EKH.pdb
     RDKit          3D

 29 29  0  0  1  0  0  0  0  0999 V2000
   17.9383  -14.9643  -15.5939 N   0  0  0  0  0  0  0  0  0  0  0  0
   17.8703  -13.9507  -16.6358 C   0  0  1  0  0  0  0  0  0  0  0  0
   16.5965  -13.2119  -16.4807 C   0  0  0  0  0  0  0  0  0  0  0  0
   16.2727  -13.0364  -15.0258 C   0  0  0  0  0  0  0  0  0  0  0  0
   15.1057  -12.2071  -14.7352 C   0  0  0  0  0  0  0  0  0  0  0  0
   14.3092  -11.8303  -15.6058 O   0  0  0  0  0  0  0  0  0  0  0  0
   19.0718  -13.0672  -16.5445 C   0  0  0  0  0  0  0  0  0  0  0  0
   19.5691  -12.7577  -15.4326 O   0  0  0  0  0  0  0  0  0  0  0  0
   14.8232  -11.7856  -13.4177 O   0  0  0  0  0  0  0  0  0  0  0  0
   19.6515  -12.5773  -17.7160 N   0  0  0  0  0  0  0  0  0  0  0  0
   20.9243  -11.8318  -17.7673 C   0  0  1  0  0  0  0  0  0  0  0  0
   21.5238  -11.9709  -19.1362 C   0  0  0  0  0  0  0  0  0  0  0  0
   22.2037  -13.2965  -19.2282 C   0  0  0  0  0  0  0  0  0  0  0  0
   22.9252  -13.5351  -20.5390 C   0  0  0  0  0  0  0  0  0  0  0  0
   23.6364  -14.8526  -20.4882 C   0  0  0  0  0  0  0  0  0  0  0  0
   24.3486  -15.0867  -21.7515 N   0  0  0  0  0  0  0  0  0  0  0  0
   20.7140  -10.4548  -17.3286 C   0  0  0  0  0  0  0  0  0  0  0  0
   19.5866   -9.8969  -17.5916 O   0  0  0  0  0  0  0  0  0  0  0  0
   21.6182   -9.6313  -16.6204 N   0  0  0  0  0  0  0  0  0  0  0  0
   21.2139   -8.2641  -16.1724 C   0  0  1  0  0  0  0  0  0  0  0  0
   22.1949   -7.9196  -15.0984 C   0  0  0  0  0  0  0  0  0  0  0  0
   22.0519   -6.5484  -14.6113 C   0  0  0  0  0  0  0  0  0  0  0  0
   21.0476   -5.6507  -15.0026 C   0  0  0  0  0  0  0  0  0  0  0  0
   21.2488   -4.5111  -14.3485 N   0  0  0  0  0  0  0  0  0  0  0  0
   22.3345   -4.6157  -13.5476 C   0  0  0  0  0  0  0  0  0  0  0  0
   22.7838   -5.8507  -13.7361 N   0  0  0  0  0  0  0  0  0  0  0  0
   21.2689   -7.3647  -17.3334 C   0  0  0  0  0  0  0  0  0  0  0  0
   22.1390   -7.5065  -18.2041 O   0  0  0  0  0  0  0  0  0  0  0  0
   20.3182   -6.3346  -17.4492 O   0  0  0  0  0  0  0  0  0  0  0  0
  2  1  1  1
  3  2  1  0
  4  3  1  0
  5  4  1  0
  6  5  2  0
  7  2  1  0
  7  8  2  0
  9  5  1  0
 10  7  1  0
 11 10  1  0
 11 12  1  6
 13 12  1  0
 13 14  1  0
 14 15  1  0
 16 15  1  0
 17 11  1  0
 18 17  2  0
 19 17  1  0
 20 27  1  0
 20 19  1  0
 21 22  1  0
 20 21  1  1
 22 23  2  0
 23 24  1  0
 25 24  1  0
 26 22  1  0
 26 25  2  0
 27 29  1  0
 28 27  2  0
M  END
$$$$
