EKH.pdb
     RDKit          3D

 29 29  0  0  1  0  0  0  0  0999 V2000
   27.3273  -17.9739  -16.9634 N   0  0  0  0  0  0  0  0  0  0  0  0
   26.1014  -17.2095  -17.1384 C   0  0  1  0  0  0  0  0  0  0  0  0
   26.1439  -16.5650  -18.4708 C   0  0  0  0  0  0  0  0  0  0  0  0
   27.5625  -16.2619  -18.8552 C   0  0  0  0  0  0  0  0  0  0  0  0
   27.7350  -15.5516  -20.1201 C   0  0  0  0  0  0  0  0  0  0  0  0
   28.4266  -15.9859  -21.0515 O   0  0  0  0  0  0  0  0  0  0  0  0
   24.9258  -18.1153  -16.9658 C   0  0  0  0  0  0  0  0  0  0  0  0
   23.8141  -17.8450  -17.4858 O   0  0  0  0  0  0  0  0  0  0  0  0
   27.1073  -14.3075  -20.3468 O   0  0  0  0  0  0  0  0  0  0  0  0
   25.0660  -19.2826  -16.2133 N   0  0  0  0  0  0  0  0  0  0  0  0
   23.9694  -20.2296  -15.9321 C   0  0  1  0  0  0  0  0  0  0  0  0
   24.5465  -21.5142  -15.4132 C   0  0  0  0  0  0  0  0  0  0  0  0
   25.2199  -22.2255  -16.5396 C   0  0  0  0  0  0  0  0  0  0  0  0
   25.7612  -23.5931  -16.1758 C   0  0  0  0  0  0  0  0  0  0  0  0
   26.4318  -24.2015  -17.3692 C   0  0  0  0  0  0  0  0  0  0  0  0
   26.9916  -25.5127  -17.0153 N   0  0  0  0  0  0  0  0  0  0  0  0
   22.9826  -19.6042  -15.0557 C   0  0  0  0  0  0  0  0  0  0  0  0
   23.3598  -19.2223  -13.8882 O   0  0  0  0  0  0  0  0  0  0  0  0
   21.6219  -19.3484  -15.3390 N   0  0  0  0  0  0  0  0  0  0  0  0
   20.7378  -18.7085  -14.3180 C   0  0  1  0  0  0  0  0  0  0  0  0
   19.8916  -17.7580  -15.1023 C   0  0  0  0  0  0  0  0  0  0  0  0
   20.6167  -16.5601  -15.5235 C   0  0  0  0  0  0  0  0  0  0  0  0
   21.9532  -16.2709  -15.2109 C   0  0  0  0  0  0  0  0  0  0  0  0
   22.2529  -15.1014  -15.7673 N   0  0  0  0  0  0  0  0  0  0  0  0
   21.1805  -14.6087  -16.4293 C   0  0  0  0  0  0  0  0  0  0  0  0
   20.2241  -15.5133  -16.2573 N   0  0  0  0  0  0  0  0  0  0  0  0
   19.9702  -19.7667  -13.6464 C   0  0  0  0  0  0  0  0  0  0  0  0
   19.9969  -20.9323  -14.0658 O   0  0  0  0  0  0  0  0  0  0  0  0
   19.2000  -19.4429  -12.5148 O   0  0  0  0  0  0  0  0  0  0  0  0
  2  1  1  6
  3  2  1  0
  4  3  1  0
  5  4  1  0
  6  5  2  0
  7  2  1  0
  7  8  2  0
  9  5  1  0
 10  7  1  0
 11 10  1  0
 11 12  1  1
 13 12  1  0
 13 14  1  0
 14 15  1  0
 16 15  1  0
 17 11  1  0
 18 17  2  0
 19 17  1  0
 20 27  1  0
 20 19  1  0
 21 22  1  0
 20 21  1  6
 22 23  2  0
 23 24  1  0
 25 24  1  0
 26 22  1  0
 26 25  2  0
 27 29  1  0
 28 27  2  0
M  END
$$$$
