EKH.pdb
     RDKit          3D

 29 29  0  0  1  0  0  0  0  0999 V2000
   25.7543  -16.8031  -18.9052 N   0  0  0  0  0  0  0  0  0  0  0  0
   26.3409  -17.3522  -17.6919 C   0  0  1  0  0  0  0  0  0  0  0  0
   26.5224  -16.2466  -16.7239 C   0  0  0  0  0  0  0  0  0  0  0  0
   25.3017  -15.3740  -16.6985 C   0  0  0  0  0  0  0  0  0  0  0  0
   25.3915  -14.1885  -15.8497 C   0  0  0  0  0  0  0  0  0  0  0  0
   24.4437  -13.7676  -15.1721 O   0  0  0  0  0  0  0  0  0  0  0  0
   25.4658  -18.4456  -17.1713 C   0  0  0  0  0  0  0  0  0  0  0  0
   24.2373  -18.4769  -17.4342 O   0  0  0  0  0  0  0  0  0  0  0  0
   26.5904  -13.4486  -15.7586 O   0  0  0  0  0  0  0  0  0  0  0  0
   26.0239  -19.4499  -16.3786 N   0  0  0  0  0  0  0  0  0  0  0  0
   25.2574  -20.5567  -15.7738 C   0  0  1  0  0  0  0  0  0  0  0  0
   26.2002  -21.4735  -15.0504 C   0  0  0  0  0  0  0  0  0  0  0  0
   26.1077  -22.8328  -15.6603 C   0  0  0  0  0  0  0  0  0  0  0  0
   27.2793  -23.1956  -16.5499 C   0  0  0  0  0  0  0  0  0  0  0  0
   27.0380  -24.5345  -17.1769 C   0  0  0  0  0  0  0  0  0  0  0  0
   27.3517  -25.6012  -16.2169 N   0  0  0  0  0  0  0  0  0  0  0  0
   24.1733  -20.0230  -14.9536 C   0  0  0  0  0  0  0  0  0  0  0  0
   24.4708  -19.2079  -14.0057 O   0  0  0  0  0  0  0  0  0  0  0  0
   22.7910  -20.2897  -15.0776 N   0  0  0  0  0  0  0  0  0  0  0  0
   21.8048  -19.6462  -14.1575 C   0  0  1  0  0  0  0  0  0  0  0  0
   21.4645  -18.3519  -14.8236 C   0  0  0  0  0  0  0  0  0  0  0  0
   20.3914  -17.6249  -14.1469 C   0  0  0  0  0  0  0  0  0  0  0  0
   19.7506  -18.0382  -12.9695 C   0  0  0  0  0  0  0  0  0  0  0  0
   18.8370  -17.1218  -12.6653 N   0  0  0  0  0  0  0  0  0  0  0  0
   18.8460  -16.1279  -13.5836 C   0  0  0  0  0  0  0  0  0  0  0  0
   19.7909  -16.4695  -14.4514 N   0  0  0  0  0  0  0  0  0  0  0  0
   20.6576  -20.5523  -14.0064 C   0  0  0  0  0  0  0  0  0  0  0  0
   19.7661  -20.3137  -13.1796 O   0  0  0  0  0  0  0  0  0  0  0  0
   20.5791  -21.7007  -14.8148 O   0  0  0  0  0  0  0  0  0  0  0  0
  2  1  1  6
  3  2  1  0
  4  3  1  0
  5  4  1  0
  6  5  2  0
  7  2  1  0
  7  8  2  0
  9  5  1  0
 10  7  1  0
 11 10  1  0
 11 12  1  1
 13 12  1  0
 13 14  1  0
 14 15  1  0
 16 15  1  0
 17 11  1  0
 18 17  2  0
 19 17  1  0
 20 27  1  0
 20 19  1  0
 21 22  1  0
 20 21  1  6
 22 23  2  0
 23 24  1  0
 25 24  1  0
 26 22  1  0
 26 25  2  0
 27 29  1  0
 28 27  2  0
M  END
$$$$
