EKH.pdb
     RDKit          3D

 29 29  0  0  1  0  0  0  0  0999 V2000
   19.1199  -12.3669  -18.3758 N   0  0  0  0  0  0  0  0  0  0  0  0
   17.9535  -11.6023  -17.9603 C   0  0  1  0  0  0  0  0  0  0  0  0
   16.7897  -12.5169  -17.9225 C   0  0  0  0  0  0  0  0  0  0  0  0
   16.7167  -13.3159  -19.1907 C   0  0  0  0  0  0  0  0  0  0  0  0
   16.6041  -14.7623  -19.0191 C   0  0  0  0  0  0  0  0  0  0  0  0
   16.6832  -15.3214  -17.9166 O   0  0  0  0  0  0  0  0  0  0  0  0
   18.2306  -10.9561  -16.6420 C   0  0  0  0  0  0  0  0  0  0  0  0
   18.1433  -11.6037  -15.5686 O   0  0  0  0  0  0  0  0  0  0  0  0
   16.3949  -15.6118  -20.1271 O   0  0  0  0  0  0  0  0  0  0  0  0
   18.5930   -9.6086  -16.6031 N   0  0  0  0  0  0  0  0  0  0  0  0
   18.9201   -8.8689  -15.3686 C   0  0  1  0  0  0  0  0  0  0  0  0
   19.5815   -7.5711  -15.7304 C   0  0  0  0  0  0  0  0  0  0  0  0
   20.9608   -7.8583  -16.2233 C   0  0  0  0  0  0  0  0  0  0  0  0
   21.6777   -6.6545  -16.8003 C   0  0  0  0  0  0  0  0  0  0  0  0
   23.0571   -7.0500  -17.2303 C   0  0  0  0  0  0  0  0  0  0  0  0
   23.6608   -5.9748  -18.0285 N   0  0  0  0  0  0  0  0  0  0  0  0
   17.7279   -8.7365  -14.5356 C   0  0  0  0  0  0  0  0  0  0  0  0
   16.7212   -8.0942  -15.0103 O   0  0  0  0  0  0  0  0  0  0  0  0
   17.5284   -9.2485  -13.2335 N   0  0  0  0  0  0  0  0  0  0  0  0
   16.2465   -9.0029  -12.5057 C   0  0  1  0  0  0  0  0  0  0  0  0
   15.6594  -10.3647  -12.3170 C   0  0  0  0  0  0  0  0  0  0  0  0
   14.4079  -10.3485  -11.5611 C   0  0  0  0  0  0  0  0  0  0  0  0
   13.3990   -9.3820  -11.6859 C   0  0  0  0  0  0  0  0  0  0  0  0
   12.4257   -9.7041  -10.8398 N   0  0  0  0  0  0  0  0  0  0  0  0
   12.7450  -10.8334  -10.1660 C   0  0  0  0  0  0  0  0  0  0  0  0
   13.9388  -11.1846  -10.6288 N   0  0  0  0  0  0  0  0  0  0  0  0
   16.5579   -8.3141  -11.2454 C   0  0  0  0  0  0  0  0  0  0  0  0
   15.6519   -7.9314  -10.4917 O   0  0  0  0  0  0  0  0  0  0  0  0
   17.9030   -8.0920  -10.8989 O   0  0  0  0  0  0  0  0  0  0  0  0
  2  1  1  1
  3  2  1  0
  4  3  1  0
  5  4  1  0
  6  5  2  0
  7  2  1  0
  7  8  2  0
  9  5  1  0
 10  7  1  0
 11 10  1  0
 11 12  1  6
 13 12  1  0
 13 14  1  0
 14 15  1  0
 16 15  1  0
 17 11  1  0
 18 17  2  0
 19 17  1  0
 20 27  1  0
 20 19  1  0
 21 22  1  0
 20 21  1  1
 22 23  2  0
 23 24  1  0
 25 24  1  0
 26 22  1  0
 26 25  2  0
 27 29  1  0
 28 27  2  0
M  END
$$$$
