EKH.pdb
     RDKit          3D

 29 29  0  0  1  0  0  0  0  0999 V2000
   16.9351  -12.4293  -15.0844 N   0  0  0  0  0  0  0  0  0  0  0  0
   17.0756  -11.0530  -15.5359 C   0  0  1  0  0  0  0  0  0  0  0  0
   15.7972  -10.3500  -15.2830 C   0  0  0  0  0  0  0  0  0  0  0  0
   14.7840  -10.7257  -16.3244 C   0  0  0  0  0  0  0  0  0  0  0  0
   14.6068   -9.7623  -17.4082 C   0  0  0  0  0  0  0  0  0  0  0  0
   15.2280   -8.6924  -17.4712 O   0  0  0  0  0  0  0  0  0  0  0  0
   18.2365  -10.4209  -14.8394 C   0  0  0  0  0  0  0  0  0  0  0  0
   18.3504  -10.4696  -13.5888 O   0  0  0  0  0  0  0  0  0  0  0  0
   13.6982  -10.0100  -18.4599 O   0  0  0  0  0  0  0  0  0  0  0  0
   19.2116   -9.7647  -15.5925 N   0  0  0  0  0  0  0  0  0  0  0  0
   20.3722   -9.0568  -15.0176 C   0  0  1  0  0  0  0  0  0  0  0  0
   21.6324   -9.7662  -15.4192 C   0  0  0  0  0  0  0  0  0  0  0  0
   21.7559   -9.7171  -16.9059 C   0  0  0  0  0  0  0  0  0  0  0  0
   22.9720  -10.4370  -17.4525 C   0  0  0  0  0  0  0  0  0  0  0  0
   22.9880  -10.3323  -18.9468 C   0  0  0  0  0  0  0  0  0  0  0  0
   24.1703  -11.0184  -19.4845 N   0  0  0  0  0  0  0  0  0  0  0  0
   20.3239   -7.6430  -15.3802 C   0  0  0  0  0  0  0  0  0  0  0  0
   19.8978   -7.3284  -16.5511 O   0  0  0  0  0  0  0  0  0  0  0  0
   20.6898   -6.5377  -14.5791 N   0  0  0  0  0  0  0  0  0  0  0  0
   20.6215   -5.1470  -15.1217 C   0  0  1  0  0  0  0  0  0  0  0  0
   20.0940   -4.3304  -13.9861 C   0  0  0  0  0  0  0  0  0  0  0  0
   19.9672   -2.9107  -14.3125 C   0  0  0  0  0  0  0  0  0  0  0  0
   19.2305   -2.3895  -15.3864 C   0  0  0  0  0  0  0  0  0  0  0  0
   19.3550   -1.0664  -15.3557 N   0  0  0  0  0  0  0  0  0  0  0  0
   20.1363   -0.6931  -14.3159 C   0  0  0  0  0  0  0  0  0  0  0  0
   20.4805   -1.8279  -13.7189 N   0  0  0  0  0  0  0  0  0  0  0  0
   21.9703   -4.7553  -15.5543 C   0  0  0  0  0  0  0  0  0  0  0  0
   22.9742   -5.2807  -15.0527 O   0  0  0  0  0  0  0  0  0  0  0  0
   22.1132   -3.7726  -16.5505 O   0  0  0  0  0  0  0  0  0  0  0  0
  2  1  1  1
  3  2  1  0
  4  3  1  0
  5  4  1  0
  6  5  2  0
  7  2  1  0
  7  8  2  0
  9  5  1  0
 10  7  1  0
 11 10  1  0
 11 12  1  6
 13 12  1  0
 13 14  1  0
 14 15  1  0
 16 15  1  0
 17 11  1  0
 18 17  2  0
 19 17  1  0
 20 27  1  0
 20 19  1  0
 21 22  1  0
 20 21  1  1
 22 23  2  0
 23 24  1  0
 25 24  1  0
 26 22  1  0
 26 25  2  0
 27 29  1  0
 28 27  2  0
M  END
$$$$
