EYA.pdb
     RDKit          3D

 27 27  0  0  1  0  0  0  0  0999 V2000
   28.7470  -23.0413  -17.6809 N   0  0  0  0  0  0  0  0  0  0  0  0
   28.5773  -21.7604  -17.0344 C   0  0  1  0  0  0  0  0  0  0  0  0
   28.3197  -20.6558  -18.0403 C   0  0  0  0  0  0  0  0  0  0  0  0
   29.5759  -20.2783  -18.7880 C   0  0  0  0  0  0  0  0  0  0  0  0
   29.2094  -19.1935  -19.7441 C   0  0  0  0  0  0  0  0  0  0  0  0
   29.1598  -19.4197  -20.9832 O   0  0  0  0  0  0  0  0  0  0  0  0
   27.3836  -21.8235  -16.1512 C   0  0  0  0  0  0  0  0  0  0  0  0
   26.4101  -22.5827  -16.3951 O   0  0  0  0  0  0  0  0  0  0  0  0
   28.9082  -17.8983  -19.3271 O   0  0  0  0  0  0  0  0  0  0  0  0
   22.1753  -20.9531   -9.0993 O   0  0  0  0  0  0  0  0  0  0  0  0
   23.2616  -20.8872   -9.9655 C   0  0  0  0  0  0  0  0  0  0  0  0
   23.3211  -19.8810  -10.9092 C   0  0  0  0  0  0  0  0  0  0  0  0
   24.3602  -19.7409  -11.8067 C   0  0  0  0  0  0  0  0  0  0  0  0
   25.3850  -20.6535  -11.7524 C   0  0  0  0  0  0  0  0  0  0  0  0
   26.5221  -20.5412  -12.6978 C   0  0  0  0  0  0  0  0  0  0  0  0
   26.1607  -21.1038  -14.0594 C   0  0  2  0  0  0  0  0  0  0  0  0
   27.2855  -21.0220  -14.9796 N   0  0  0  0  0  0  0  0  0  0  0  0
   25.0150  -20.4051  -14.6631 C   0  0  0  0  0  0  0  0  0  0  0  0
   25.1201  -19.2074  -15.0990 O   0  0  0  0  0  0  0  0  0  0  0  0
   25.3553  -21.6677  -10.8237 C   0  0  0  0  0  0  0  0  0  0  0  0
   24.2962  -21.7957   -9.9222 C   0  0  0  0  0  0  0  0  0  0  0  0
   22.3524  -20.6944  -16.8197 C   0  0  0  0  0  0  0  0  0  0  0  0
   22.6069  -20.2717  -15.3919 C   0  0  2  0  0  0  0  0  0  0  0  0
   23.7252  -20.9881  -14.8094 N   0  0  0  0  0  0  0  0  0  0  0  0
   21.3889  -20.3990  -14.5523 C   0  0  0  0  0  0  0  0  0  0  0  0
   20.3926  -19.6968  -14.8264 O   0  0  0  0  0  0  0  0  0  0  0  0
   21.3804  -21.2866  -13.4898 O   0  0  0  0  0  0  0  0  0  0  0  0
  2  1  1  6
  2  7  1  0
  3  4  1  0
  3  2  1  0
  4  5  1  0
  5  6  2  0
  7  8  2  0
  9  5  1  0
 10 11  1  0
 11 21  2  0
 11 12  1  0
 12 13  2  0
 13 14  1  0
 14 15  1  0
 16 15  1  1
 17 16  1  0
 17  7  1  0
 18 24  1  0
 18 16  1  0
 19 18  2  0
 20 14  2  0
 21 20  1  0
 23 24  1  0
 23 22  1  6
 25 23  1  0
 26 25  2  0
 27 25  1  0
M  END
$$$$
