EYA.pdb
     RDKit          3D

 27 27  0  0  1  0  0  0  0  0999 V2000
   28.8244  -23.0192  -17.2955 N   0  0  0  0  0  0  0  0  0  0  0  0
   28.1086  -21.7814  -17.0886 C   0  0  1  0  0  0  0  0  0  0  0  0
   27.2687  -21.4123  -18.2955 C   0  0  0  0  0  0  0  0  0  0  0  0
   28.0706  -20.6465  -19.3200 C   0  0  0  0  0  0  0  0  0  0  0  0
   29.0612  -21.5971  -19.9033 C   0  0  0  0  0  0  0  0  0  0  0  0
   28.6842  -22.5357  -20.6556 O   0  0  0  0  0  0  0  0  0  0  0  0
   27.1701  -21.9549  -15.9493 C   0  0  0  0  0  0  0  0  0  0  0  0
   26.4568  -22.9836  -15.8206 O   0  0  0  0  0  0  0  0  0  0  0  0
   30.4287  -21.5004  -19.6530 O   0  0  0  0  0  0  0  0  0  0  0  0
   23.2636  -20.8652   -8.1260 O   0  0  0  0  0  0  0  0  0  0  0  0
   24.1280  -20.7518   -9.2098 C   0  0  0  0  0  0  0  0  0  0  0  0
   23.7886  -19.9349  -10.2702 C   0  0  0  0  0  0  0  0  0  0  0  0
   24.5857  -19.7641  -11.3838 C   0  0  0  0  0  0  0  0  0  0  0  0
   25.7772  -20.4453  -11.4331 C   0  0  0  0  0  0  0  0  0  0  0  0
   26.6653  -20.2915  -12.6108 C   0  0  0  0  0  0  0  0  0  0  0  0
   26.1736  -21.1226  -13.7805 C   0  0  2  0  0  0  0  0  0  0  0  0
   27.0335  -20.9578  -14.9433 N   0  0  0  0  0  0  0  0  0  0  0  0
   24.7969  -20.7767  -14.1682 C   0  0  0  0  0  0  0  0  0  0  0  0
   24.5303  -19.6804  -14.7704 O   0  0  0  0  0  0  0  0  0  0  0  0
   26.1441  -21.2669  -10.3927 C   0  0  0  0  0  0  0  0  0  0  0  0
   25.3259  -21.4290   -9.2724 C   0  0  0  0  0  0  0  0  0  0  0  0
   21.8235  -21.9862  -15.4776 C   0  0  0  0  0  0  0  0  0  0  0  0
   22.3204  -21.2297  -14.2681 C   0  0  2  0  0  0  0  0  0  0  0  0
   23.6734  -21.6118  -13.9124 N   0  0  0  0  0  0  0  0  0  0  0  0
   21.3992  -21.3691  -13.1120 C   0  0  0  0  0  0  0  0  0  0  0  0
   21.6342  -22.2499  -12.2578 O   0  0  0  0  0  0  0  0  0  0  0  0
   20.3058  -20.5268  -13.0034 O   0  0  0  0  0  0  0  0  0  0  0  0
  2  1  1  6
  2  7  1  0
  3  4  1  0
  3  2  1  0
  4  5  1  0
  5  6  2  0
  7  8  2  0
  9  5  1  0
 10 11  1  0
 11 21  2  0
 11 12  1  0
 12 13  2  0
 13 14  1  0
 14 15  1  0
 16 15  1  1
 17 16  1  0
 17  7  1  0
 18 24  1  0
 18 16  1  0
 19 18  2  0
 20 14  2  0
 21 20  1  0
 23 24  1  0
 23 22  1  6
 25 23  1  0
 26 25  2  0
 27 25  1  0
M  END
$$$$
