EYA.pdb
     RDKit          3D

 27 27  0  0  1  0  0  0  0  0999 V2000
   24.3982  -38.0563  -11.1221 N   0  0  0  0  0  0  0  0  0  0  0  0
   24.1341  -37.4890   -9.8199 C   0  0  1  0  0  0  0  0  0  0  0  0
   24.3318  -38.5081   -8.7151 C   0  0  0  0  0  0  0  0  0  0  0  0
   23.1338  -39.4158   -8.5728 C   0  0  0  0  0  0  0  0  0  0  0  0
   22.1480  -38.7101   -7.7036 C   0  0  0  0  0  0  0  0  0  0  0  0
   20.9442  -39.0821   -7.6652 O   0  0  0  0  0  0  0  0  0  0  0  0
   25.1041  -36.3911   -9.5696 C   0  0  0  0  0  0  0  0  0  0  0  0
   26.1965  -36.3090  -10.1889 O   0  0  0  0  0  0  0  0  0  0  0  0
   22.4981  -37.6240   -6.9037 O   0  0  0  0  0  0  0  0  0  0  0  0
   24.4366  -32.8190  -14.3980 O   0  0  0  0  0  0  0  0  0  0  0  0
   24.6625  -32.8418  -13.0257 C   0  0  0  0  0  0  0  0  0  0  0  0
   23.6173  -33.1191  -12.1670 C   0  0  0  0  0  0  0  0  0  0  0  0
   23.7521  -33.1621  -10.7942 C   0  0  0  0  0  0  0  0  0  0  0  0
   24.9936  -32.9152  -10.2613 C   0  0  0  0  0  0  0  0  0  0  0  0
   25.1844  -32.9510   -8.7911 C   0  0  0  0  0  0  0  0  0  0  0  0
   25.7638  -34.2802   -8.3456 C   0  0  2  0  0  0  0  0  0  0  0  0
   24.8404  -35.3737   -8.6103 N   0  0  0  0  0  0  0  0  0  0  0  0
   26.0956  -34.2892   -6.9120 C   0  0  0  0  0  0  0  0  0  0  0  0
   25.1871  -34.4037   -6.0192 O   0  0  0  0  0  0  0  0  0  0  0  0
   26.0553  -32.6358  -11.0900 C   0  0  0  0  0  0  0  0  0  0  0  0
   25.9022  -32.5961  -12.4777 C   0  0  0  0  0  0  0  0  0  0  0  0
   29.2174  -34.2548   -4.7419 C   0  0  0  0  0  0  0  0  0  0  0  0
   27.7281  -34.2335   -4.9937 C   0  0  2  0  0  0  0  0  0  0  0  0
   27.4221  -34.1742   -6.4100 N   0  0  0  0  0  0  0  0  0  0  0  0
   27.0575  -33.1366   -4.2509 C   0  0  0  0  0  0  0  0  0  0  0  0
   26.4912  -32.2299   -4.8975 O   0  0  0  0  0  0  0  0  0  0  0  0
   27.0725  -33.1392   -2.8665 O   0  0  0  0  0  0  0  0  0  0  0  0
  2  1  1  6
  2  7  1  0
  3  4  1  0
  3  2  1  0
  4  5  1  0
  5  6  2  0
  7  8  2  0
  9  5  1  0
 10 11  1  0
 11 21  2  0
 11 12  1  0
 12 13  2  0
 13 14  1  0
 14 15  1  0
 16 15  1  1
 17 16  1  0
 17  7  1  0
 18 24  1  0
 18 16  1  0
 19 18  2  0
 20 14  2  0
 21 20  1  0
 23 24  1  0
 23 22  1  6
 25 23  1  0
 26 25  2  0
 27 25  1  0
M  END
$$$$
