EYA.pdb
     RDKit          3D

 27 27  0  0  1  0  0  0  0  0999 V2000
   23.2444   -7.4466  -18.6715 N   0  0  0  0  0  0  0  0  0  0  0  0
   22.0005   -8.1153  -18.9764 C   0  0  1  0  0  0  0  0  0  0  0  0
   22.1763   -9.1536  -20.0670 C   0  0  0  0  0  0  0  0  0  0  0  0
   23.2290  -10.1726  -19.7026 C   0  0  0  0  0  0  0  0  0  0  0  0
   23.4512  -11.0251  -20.9063 C   0  0  0  0  0  0  0  0  0  0  0  0
   22.8266  -10.7985  -21.9776 O   0  0  0  0  0  0  0  0  0  0  0  0
   21.5362   -8.8399  -17.7647 C   0  0  0  0  0  0  0  0  0  0  0  0
   22.3393   -9.3508  -16.9416 O   0  0  0  0  0  0  0  0  0  0  0  0
   24.3431  -12.0959  -20.9110 O   0  0  0  0  0  0  0  0  0  0  0  0
   22.4543   -4.7068  -13.2145 O   0  0  0  0  0  0  0  0  0  0  0  0
   21.5928   -5.6747  -13.7201 C   0  0  0  0  0  0  0  0  0  0  0  0
   20.9125   -5.4342  -14.8975 C   0  0  0  0  0  0  0  0  0  0  0  0
   20.0399   -6.3375  -15.4694 C   0  0  0  0  0  0  0  0  0  0  0  0
   19.8426   -7.5361  -14.8285 C   0  0  0  0  0  0  0  0  0  0  0  0
   18.9135   -8.5366  -15.4074 C   0  0  0  0  0  0  0  0  0  0  0  0
   19.6613   -9.5663  -16.2328 C   0  0  2  0  0  0  0  0  0  0  0  0
   20.1508   -8.9908  -17.4770 N   0  0  0  0  0  0  0  0  0  0  0  0
   18.8244  -10.7321  -16.5580 C   0  0  0  0  0  0  0  0  0  0  0  0
   17.9146  -10.6691  -17.4545 O   0  0  0  0  0  0  0  0  0  0  0  0
   20.5053   -7.8060  -13.6539 C   0  0  0  0  0  0  0  0  0  0  0  0
   21.3855   -6.8809  -13.0879 C   0  0  0  0  0  0  0  0  0  0  0  0
   18.7617  -14.4411  -15.8966 C   0  0  0  0  0  0  0  0  0  0  0  0
   18.1048  -13.1265  -16.2461 C   0  0  2  0  0  0  0  0  0  0  0  0
   18.9532  -11.9967  -15.9185 N   0  0  0  0  0  0  0  0  0  0  0  0
   16.7652  -12.9941  -15.6197 C   0  0  0  0  0  0  0  0  0  0  0  0
   16.6284  -12.2203  -14.6484 O   0  0  0  0  0  0  0  0  0  0  0  0
   15.7011  -13.7252  -16.1199 O   0  0  0  0  0  0  0  0  0  0  0  0
  2  1  1  1
  2  7  1  0
  3  4  1  0
  3  2  1  0
  4  5  1  0
  5  6  2  0
  7  8  2  0
  9  5  1  0
 10 11  1  0
 11 21  2  0
 11 12  1  0
 12 13  2  0
 13 14  1  0
 14 15  1  0
 16 15  1  6
 17 16  1  0
 17  7  1  0
 18 24  1  0
 18 16  1  0
 19 18  2  0
 20 14  2  0
 21 20  1  0
 23 24  1  0
 23 22  1  1
 25 23  1  0
 26 25  2  0
 27 25  1  0
M  END
$$$$
