EYA.pdb
     RDKit          3D

 27 27  0  0  1  0  0  0  0  0999 V2000
   31.2975  -27.7133  -20.5693 N   0  0  0  0  0  0  0  0  0  0  0  0
   31.9103  -29.0092  -20.7500 C   0  0  1  0  0  0  0  0  0  0  0  0
   33.3649  -29.0047  -20.3231 C   0  0  0  0  0  0  0  0  0  0  0  0
   34.2183  -28.1828  -21.2588 C   0  0  0  0  0  0  0  0  0  0  0  0
   34.8128  -29.1234  -22.2523 C   0  0  0  0  0  0  0  0  0  0  0  0
   34.6045  -28.9699  -23.4861 O   0  0  0  0  0  0  0  0  0  0  0  0
   31.2119  -29.9948  -19.8841 C   0  0  0  0  0  0  0  0  0  0  0  0
   31.6115  -31.1821  -19.7645 O   0  0  0  0  0  0  0  0  0  0  0  0
   35.6140  -30.2002  -21.8774 O   0  0  0  0  0  0  0  0  0  0  0  0
   25.8779  -33.5609  -13.8604 O   0  0  0  0  0  0  0  0  0  0  0  0
   26.6557  -32.6929  -14.6195 C   0  0  0  0  0  0  0  0  0  0  0  0
   26.0442  -31.7065  -15.3678 C   0  0  0  0  0  0  0  0  0  0  0  0
   26.7380  -30.8041  -16.1482 C   0  0  0  0  0  0  0  0  0  0  0  0
   28.1079  -30.8980  -16.1772 C   0  0  0  0  0  0  0  0  0  0  0  0
   28.8938  -29.9489  -17.0023 C   0  0  0  0  0  0  0  0  0  0  0  0
   29.3244  -30.5855  -18.3100 C   0  0  2  0  0  0  0  0  0  0  0  0
   30.0498  -29.6386  -19.1442 N   0  0  0  0  0  0  0  0  0  0  0  0
   28.1814  -31.1019  -19.0796 C   0  0  0  0  0  0  0  0  0  0  0  0
   27.4421  -30.3247  -19.7760 O   0  0  0  0  0  0  0  0  0  0  0  0
   28.7470  -31.8697  -15.4429 C   0  0  0  0  0  0  0  0  0  0  0  0
   28.0302  -32.7756  -14.6579 C   0  0  0  0  0  0  0  0  0  0  0  0
   26.6415  -34.4655  -19.9404 C   0  0  0  0  0  0  0  0  0  0  0  0
   26.6690  -32.9570  -19.8665 C   0  0  2  0  0  0  0  0  0  0  0  0
   27.8111  -32.4754  -19.1136 N   0  0  0  0  0  0  0  0  0  0  0  0
   25.3986  -32.4066  -19.3300 C   0  0  0  0  0  0  0  0  0  0  0  0
   25.2485  -32.3358  -18.0918 O   0  0  0  0  0  0  0  0  0  0  0  0
   24.4121  -31.9855  -20.2054 O   0  0  0  0  0  0  0  0  0  0  0  0
  2  1  1  1
  2  7  1  0
  3  4  1  0
  3  2  1  0
  4  5  1  0
  5  6  2  0
  7  8  2  0
  9  5  1  0
 10 11  1  0
 11 21  2  0
 11 12  1  0
 12 13  2  0
 13 14  1  0
 14 15  1  0
 16 15  1  1
 17 16  1  0
 17  7  1  0
 18 24  1  0
 18 16  1  0
 19 18  2  0
 20 14  2  0
 21 20  1  0
 23 24  1  0
 23 22  1  1
 25 23  1  0
 26 25  2  0
 27 25  1  0
M  END
$$$$
