EYA.pdb
     RDKit          3D

 27 27  0  0  1  0  0  0  0  0999 V2000
   24.0109   -7.3794  -20.6780 N   0  0  0  0  0  0  0  0  0  0  0  0
   23.0257   -8.3733  -20.3186 C   0  0  1  0  0  0  0  0  0  0  0  0
   23.6399   -9.7547  -20.2064 C   0  0  0  0  0  0  0  0  0  0  0  0
   24.0410  -10.2982  -21.5567 C   0  0  0  0  0  0  0  0  0  0  0  0
   25.4451   -9.8613  -21.8072 C   0  0  0  0  0  0  0  0  0  0  0  0
   26.2953   -9.8682  -20.8765 O   0  0  0  0  0  0  0  0  0  0  0  0
   22.4736   -8.0390  -18.9798 C   0  0  0  0  0  0  0  0  0  0  0  0
   21.5983   -8.7493  -18.4205 O   0  0  0  0  0  0  0  0  0  0  0  0
   25.8833   -9.4309  -23.0581 O   0  0  0  0  0  0  0  0  0  0  0  0
   26.4913  -11.2519  -15.4194 O   0  0  0  0  0  0  0  0  0  0  0  0
   25.8137  -10.0478  -15.5789 C   0  0  0  0  0  0  0  0  0  0  0  0
   24.6185   -9.8451  -14.9177 C   0  0  0  0  0  0  0  0  0  0  0  0
   23.8813   -8.6827  -15.0189 C   0  0  0  0  0  0  0  0  0  0  0  0
   24.3680   -7.6796  -15.8208 C   0  0  0  0  0  0  0  0  0  0  0  0
   23.6086   -6.4133  -15.9588 C   0  0  0  0  0  0  0  0  0  0  0  0
   22.4469   -6.5726  -16.9211 C   0  0  2  0  0  0  0  0  0  0  0  0
   22.9128   -6.8911  -18.2627 N   0  0  0  0  0  0  0  0  0  0  0  0
   21.6151   -5.3610  -16.9936 C   0  0  0  0  0  0  0  0  0  0  0  0
   22.0979   -4.2448  -17.3894 O   0  0  0  0  0  0  0  0  0  0  0  0
   25.5559   -7.8506  -16.4929 C   0  0  0  0  0  0  0  0  0  0  0  0
   26.2901   -9.0333  -16.3798 C   0  0  0  0  0  0  0  0  0  0  0  0
   17.9610   -4.4556  -16.8959 C   0  0  0  0  0  0  0  0  0  0  0  0
   19.4295   -4.1305  -16.7551 C   0  0  2  0  0  0  0  0  0  0  0  0
   20.2376   -5.3291  -16.6384 N   0  0  0  0  0  0  0  0  0  0  0  0
   19.6835   -3.1972  -15.6286 C   0  0  0  0  0  0  0  0  0  0  0  0
   20.1703   -3.6491  -14.5705 O   0  0  0  0  0  0  0  0  0  0  0  0
   19.3784   -1.8543  -15.7711 O   0  0  0  0  0  0  0  0  0  0  0  0
  2  1  1  1
  2  7  1  0
  3  4  1  0
  3  2  1  0
  4  5  1  0
  5  6  2  0
  7  8  2  0
  9  5  1  0
 10 11  1  0
 11 21  2  0
 11 12  1  0
 12 13  2  0
 13 14  1  0
 14 15  1  0
 16 15  1  1
 17 16  1  0
 17  7  1  0
 18 24  1  0
 18 16  1  0
 19 18  2  0
 20 14  2  0
 21 20  1  0
 23 24  1  0
 23 22  1  1
 25 23  1  0
 26 25  2  0
 27 25  1  0
M  END
$$$$
