SWC.pdb
     RDKit          3D

 27 28  0  0  1  0  0  0  0  0999 V2000
   26.4273  -22.5973  -18.0851 O   0  0  0  0  0  0  0  0  0  0  0  0
   27.6347  -22.0656  -17.6571 C   0  0  0  0  0  0  0  0  0  0  0  0
   28.1362  -22.8154  -16.4428 C   0  0  2  0  0  0  0  0  0  0  0  0
   28.1757  -24.2419  -16.6742 N   0  0  0  0  0  0  0  0  0  0  0  0
   27.2000  -22.5674  -15.3127 C   0  0  0  0  0  0  0  0  0  0  0  0
   26.4376  -23.5025  -14.8829 O   0  0  0  0  0  0  0  0  0  0  0  0
   27.1841  -21.2829  -14.7415 N   0  0  0  0  0  0  0  0  0  0  0  0
   26.3131  -20.9666  -13.6134 C   0  0  1  0  0  0  0  0  0  0  0  0
   26.8798  -19.8595  -12.7943 C   0  0  0  0  0  0  0  0  0  0  0  0
   27.7070  -20.2634  -11.6723 C   0  0  0  0  0  0  0  0  0  0  0  0
   29.0280  -20.7257  -11.7895 C   0  0  0  0  0  0  0  0  0  0  0  0
   29.4927  -21.0435  -10.5869 N   0  0  0  0  0  0  0  0  0  0  0  0
   28.5439  -20.8162   -9.6584 C   0  0  0  0  0  0  0  0  0  0  0  0
   28.5328  -20.9676   -8.2811 C   0  0  0  0  0  0  0  0  0  0  0  0
   27.4270  -20.6410   -7.5523 C   0  0  0  0  0  0  0  0  0  0  0  0
   26.3047  -20.1523   -8.2056 C   0  0  0  0  0  0  0  0  0  0  0  0
   26.3085  -19.9998   -9.5755 C   0  0  0  0  0  0  0  0  0  0  0  0
   27.4180  -20.3258  -10.3280 C   0  0  0  0  0  0  0  0  0  0  0  0
   24.9554  -20.7985  -14.0988 C   0  0  0  0  0  0  0  0  0  0  0  0
   24.6401  -20.1766  -15.1454 O   0  0  0  0  0  0  0  0  0  0  0  0
   23.8435  -21.3632  -13.3713 N   0  0  0  0  0  0  0  0  0  0  0  0
   22.5052  -21.2176  -13.8841 C   0  0  1  0  0  0  0  0  0  0  0  0
   21.8520  -22.5726  -14.1267 C   0  0  0  0  0  0  0  0  0  0  0  0
   23.0839  -23.8919  -14.0306 S   0  0  0  0  0  0  0  0  0  0  0  0
   21.6660  -20.3616  -13.0187 C   0  0  0  0  0  0  0  0  0  0  0  0
   22.1354  -19.9035  -11.9545 O   0  0  0  0  0  0  0  0  0  0  0  0
   20.3652  -20.0509  -13.3564 O   0  0  0  0  0  0  0  0  0  0  0  0
  1  2  1  0
  3  2  1  0
  3  4  1  6
  5  3  1  0
  6  5  2  0
  7  5  1  0
  8  7  1  0
  9 10  1  0
  8  9  1  6
 10 18  1  0
 11 10  2  0
 11 12  1  0
 12 13  1  0
 13 14  1  0
 14 15  2  0
 16 15  1  0
 17 16  2  0
 18 13  2  0
 18 17  1  0
 19  8  1  0
 19 20  2  0
 21 19  1  0
 22 21  1  0
 22 23  1  1
 24 23  1  0
 25 22  1  0
 26 25  2  0
 27 25  1  0
M  END
$$$$
