SWC.pdb
     RDKit          3D

 27 28  0  0  1  0  0  0  0  0999 V2000
   28.1719  -18.8625  -19.7991 O   0  0  0  0  0  0  0  0  0  0  0  0
   26.9217  -18.3094  -19.5649 C   0  0  0  0  0  0  0  0  0  0  0  0
   26.9747  -16.8066  -19.7293 C   0  0  2  0  0  0  0  0  0  0  0  0
   28.1205  -16.2355  -19.0580 N   0  0  0  0  0  0  0  0  0  0  0  0
   25.7529  -16.2194  -19.1150 C   0  0  0  0  0  0  0  0  0  0  0  0
   24.5914  -16.6563  -19.4323 O   0  0  0  0  0  0  0  0  0  0  0  0
   25.9195  -15.1791  -18.1842 N   0  0  0  0  0  0  0  0  0  0  0  0
   24.7833  -14.6311  -17.4494 C   0  0  1  0  0  0  0  0  0  0  0  0
   25.0544  -14.6077  -15.9853 C   0  0  0  0  0  0  0  0  0  0  0  0
   25.0508  -15.8983  -15.3215 C   0  0  0  0  0  0  0  0  0  0  0  0
   26.1958  -16.5230  -14.8008 C   0  0  0  0  0  0  0  0  0  0  0  0
   25.8615  -17.7024  -14.2903 N   0  0  0  0  0  0  0  0  0  0  0  0
   24.5386  -17.9046  -14.4417 C   0  0  0  0  0  0  0  0  0  0  0  0
   23.7076  -18.9503  -14.0729 C   0  0  0  0  0  0  0  0  0  0  0  0
   22.3690  -18.9018  -14.3306 C   0  0  0  0  0  0  0  0  0  0  0  0
   21.8417  -17.7889  -14.9697 C   0  0  0  0  0  0  0  0  0  0  0  0
   22.6625  -16.7454  -15.3400 C   0  0  0  0  0  0  0  0  0  0  0  0
   24.0186  -16.7782  -15.0877 C   0  0  0  0  0  0  0  0  0  0  0  0
   24.3832  -13.3790  -18.0654 C   0  0  0  0  0  0  0  0  0  0  0  0
   25.1764  -12.4739  -18.4302 O   0  0  0  0  0  0  0  0  0  0  0  0
   22.9878  -13.0937  -18.3027 N   0  0  0  0  0  0  0  0  0  0  0  0
   22.6026  -11.8239  -18.8634 C   0  0  1  0  0  0  0  0  0  0  0  0
   21.5439  -11.9922  -19.9461 C   0  0  0  0  0  0  0  0  0  0  0  0
   20.9510  -10.3782  -20.5035 S   0  0  0  0  0  0  0  0  0  0  0  0
   22.1656  -10.8653  -17.8260 C   0  0  0  0  0  0  0  0  0  0  0  0
   22.6030   -9.6944  -17.8377 O   0  0  0  0  0  0  0  0  0  0  0  0
   21.2789  -11.2310  -16.8347 O   0  0  0  0  0  0  0  0  0  0  0  0
  1  2  1  0
  3  2  1  0
  3  4  1  1
  5  3  1  0
  6  5  2  0
  7  5  1  0
  8  7  1  0
  9 10  1  0
  8  9  1  1
 10 18  1  0
 11 10  2  0
 11 12  1  0
 12 13  1  0
 13 14  1  0
 14 15  2  0
 16 15  1  0
 17 16  2  0
 18 13  2  0
 18 17  1  0
 19  8  1  0
 19 20  2  0
 21 19  1  0
 22 21  1  0
 22 23  1  6
 24 23  1  0
 25 22  1  0
 26 25  2  0
 27 25  1  0
M  END
$$$$
