SWC.pdb
     RDKit          3D

 27 28  0  0  1  0  0  0  0  0999 V2000
   28.1711  -20.6740  -18.5330 O   0  0  0  0  0  0  0  0  0  0  0  0
   27.2528  -20.9848  -17.5412 C   0  0  0  0  0  0  0  0  0  0  0  0
   27.9018  -21.8403  -16.4758 C   0  0  2  0  0  0  0  0  0  0  0  0
   28.1603  -23.1809  -16.9509 N   0  0  0  0  0  0  0  0  0  0  0  0
   26.9713  -21.9432  -15.3189 C   0  0  0  0  0  0  0  0  0  0  0  0
   26.4838  -23.0768  -14.9755 O   0  0  0  0  0  0  0  0  0  0  0  0
   26.6511  -20.7631  -14.6251 N   0  0  0  0  0  0  0  0  0  0  0  0
   25.8523  -20.7958  -13.4036 C   0  0  1  0  0  0  0  0  0  0  0  0
   26.3359  -19.7864  -12.4213 C   0  0  0  0  0  0  0  0  0  0  0  0
   27.3239  -20.2561  -11.4675 C   0  0  0  0  0  0  0  0  0  0  0  0
   28.5830  -20.7684  -11.8205 C   0  0  0  0  0  0  0  0  0  0  0  0
   29.2319  -21.1396  -10.7231 N   0  0  0  0  0  0  0  0  0  0  0  0
   28.4674  -20.9006   -9.6403 C   0  0  0  0  0  0  0  0  0  0  0  0
   28.6855  -21.0911   -8.2853 C   0  0  0  0  0  0  0  0  0  0  0  0
   27.7367  -20.7408   -7.3700 C   0  0  0  0  0  0  0  0  0  0  0  0
   26.5424  -20.1879   -7.8094 C   0  0  0  0  0  0  0  0  0  0  0  0
   26.3185  -19.9962   -9.1559 C   0  0  0  0  0  0  0  0  0  0  0  0
   27.2669  -20.3454  -10.0952 C   0  0  0  0  0  0  0  0  0  0  0  0
   24.4457  -20.7479  -13.7589 C   0  0  0  0  0  0  0  0  0  0  0  0
   23.9301  -19.9011  -14.5325 O   0  0  0  0  0  0  0  0  0  0  0  0
   23.5212  -21.7157  -13.2172 N   0  0  0  0  0  0  0  0  0  0  0  0
   22.1154  -21.6046  -13.5113 C   0  0  1  0  0  0  0  0  0  0  0  0
   21.3539  -22.8467  -13.0653 C   0  0  0  0  0  0  0  0  0  0  0  0
   19.5922  -22.6698  -13.4289 S   0  0  0  0  0  0  0  0  0  0  0  0
   21.5219  -20.3752  -12.9434 C   0  0  0  0  0  0  0  0  0  0  0  0
   21.8055  -20.0299  -11.7760 O   0  0  0  0  0  0  0  0  0  0  0  0
   20.6544  -19.5900  -13.6739 O   0  0  0  0  0  0  0  0  0  0  0  0
  1  2  1  0
  3  2  1  0
  3  4  1  6
  5  3  1  0
  6  5  2  0
  7  5  1  0
  8  7  1  0
  9 10  1  0
  8  9  1  1
 10 18  1  0
 11 10  2  0
 11 12  1  0
 12 13  1  0
 13 14  1  0
 14 15  2  0
 16 15  1  0
 17 16  2  0
 18 13  2  0
 18 17  1  0
 19  8  1  0
 19 20  2  0
 21 19  1  0
 22 21  1  0
 22 23  1  1
 24 23  1  0
 25 22  1  0
 26 25  2  0
 27 25  1  0
M  END
$$$$
