SWC.pdb
     RDKit          3D

 27 28  0  0  1  0  0  0  0  0999 V2000
   27.2326  -20.3880  -18.7341 O   0  0  0  0  0  0  0  0  0  0  0  0
   26.6174  -21.1567  -17.7573 C   0  0  0  0  0  0  0  0  0  0  0  0
   27.6452  -21.6820  -16.7796 C   0  0  2  0  0  0  0  0  0  0  0  0
   28.1976  -22.9458  -17.2124 N   0  0  0  0  0  0  0  0  0  0  0  0
   26.9797  -21.9062  -15.4674 C   0  0  0  0  0  0  0  0  0  0  0  0
   26.3607  -23.0025  -15.2312 O   0  0  0  0  0  0  0  0  0  0  0  0
   27.0551  -20.8815  -14.5078 N   0  0  0  0  0  0  0  0  0  0  0  0
   26.4425  -21.0304  -13.1911 C   0  0  1  0  0  0  0  0  0  0  0  0
   27.1819  -20.2439  -12.1653 C   0  0  0  0  0  0  0  0  0  0  0  0
   26.5752  -20.1957  -10.8478 C   0  0  0  0  0  0  0  0  0  0  0  0
   25.2258  -19.8876  -10.6093 C   0  0  0  0  0  0  0  0  0  0  0  0
   24.9960  -19.8948   -9.3015 N   0  0  0  0  0  0  0  0  0  0  0  0
   26.1313  -20.1953   -8.6422 C   0  0  0  0  0  0  0  0  0  0  0  0
   26.4149  -20.3418   -7.2938 C   0  0  0  0  0  0  0  0  0  0  0  0
   27.6700  -20.6760   -6.8772 C   0  0  0  0  0  0  0  0  0  0  0  0
   28.6683  -20.8698   -7.8211 C   0  0  0  0  0  0  0  0  0  0  0  0
   28.3935  -20.7251   -9.1640 C   0  0  0  0  0  0  0  0  0  0  0  0
   27.1299  -20.3867   -9.6027 C   0  0  0  0  0  0  0  0  0  0  0  0
   25.0158  -20.7881  -13.3048 C   0  0  0  0  0  0  0  0  0  0  0  0
   24.5000  -19.6970  -13.6583 O   0  0  0  0  0  0  0  0  0  0  0  0
   24.0696  -21.8363  -13.0039 N   0  0  0  0  0  0  0  0  0  0  0  0
   22.6564  -21.5713  -13.0922 C   0  0  1  0  0  0  0  0  0  0  0  0
   21.8374  -22.8311  -12.8397 C   0  0  0  0  0  0  0  0  0  0  0  0
   20.0703  -22.4541  -12.8896 S   0  0  0  0  0  0  0  0  0  0  0  0
   22.2386  -20.4686  -12.2003 C   0  0  0  0  0  0  0  0  0  0  0  0
   22.6690  -20.4204  -11.0277 O   0  0  0  0  0  0  0  0  0  0  0  0
   21.3777  -19.4805  -12.6308 O   0  0  0  0  0  0  0  0  0  0  0  0
  1  2  1  0
  3  2  1  0
  3  4  1  6
  5  3  1  0
  6  5  2  0
  7  5  1  0
  8  7  1  0
  9 10  1  0
  8  9  1  1
 10 18  1  0
 11 10  2  0
 11 12  1  0
 12 13  1  0
 13 14  1  0
 14 15  2  0
 16 15  1  0
 17 16  2  0
 18 13  2  0
 18 17  1  0
 19  8  1  0
 19 20  2  0
 21 19  1  0
 22 21  1  0
 22 23  1  1
 24 23  1  0
 25 22  1  0
 26 25  2  0
 27 25  1  0
M  END
$$$$
