SWC.pdb
     RDKit          3D

 27 28  0  0  1  0  0  0  0  0999 V2000
   38.2575  -37.4543  -15.6312 O   0  0  0  0  0  0  0  0  0  0  0  0
   36.8889  -37.2815  -15.7747 C   0  0  0  0  0  0  0  0  0  0  0  0
   36.3910  -36.2237  -14.8148 C   0  0  2  0  0  0  0  0  0  0  0  0
   35.9349  -36.8026  -13.5711 N   0  0  0  0  0  0  0  0  0  0  0  0
   35.2342  -35.5249  -15.4382 C   0  0  0  0  0  0  0  0  0  0  0  0
   34.0380  -35.9295  -15.2241 O   0  0  0  0  0  0  0  0  0  0  0  0
   35.5009  -34.4168  -16.2614 N   0  0  0  0  0  0  0  0  0  0  0  0
   34.4195  -33.6078  -16.8158 C   0  0  1  0  0  0  0  0  0  0  0  0
   34.4644  -32.2180  -16.2830 C   0  0  0  0  0  0  0  0  0  0  0  0
   35.4542  -31.9685  -15.2514 C   0  0  0  0  0  0  0  0  0  0  0  0
   36.6067  -31.1867  -15.4336 C   0  0  0  0  0  0  0  0  0  0  0  0
   37.3192  -31.1831  -14.3131 N   0  0  0  0  0  0  0  0  0  0  0  0
   36.6994  -31.9284  -13.3780 C   0  0  0  0  0  0  0  0  0  0  0  0
   37.0167  -32.2253  -12.0623 C   0  0  0  0  0  0  0  0  0  0  0  0
   36.1936  -33.0064  -11.3054 C   0  0  0  0  0  0  0  0  0  0  0  0
   35.0270  -33.5051  -11.8672 C   0  0  0  0  0  0  0  0  0  0  0  0
   34.7054  -33.2142  -13.1756 C   0  0  0  0  0  0  0  0  0  0  0  0
   35.5269  -32.4265  -13.9555 C   0  0  0  0  0  0  0  0  0  0  0  0
   34.4096  -33.7599  -18.2594 C   0  0  0  0  0  0  0  0  0  0  0  0
   35.4377  -33.8539  -18.9775 O   0  0  0  0  0  0  0  0  0  0  0  0
   33.1599  -33.8139  -18.9805 N   0  0  0  0  0  0  0  0  0  0  0  0
   33.1667  -33.9580  -20.4138 C   0  0  1  0  0  0  0  0  0  0  0  0
   31.8525  -34.5389  -20.9207 C   0  0  0  0  0  0  0  0  0  0  0  0
   32.0016  -35.0111  -22.6592 S   0  0  0  0  0  0  0  0  0  0  0  0
   33.4968  -32.6908  -21.1005 C   0  0  0  0  0  0  0  0  0  0  0  0
   34.4023  -32.6682  -21.9620 O   0  0  0  0  0  0  0  0  0  0  0  0
   32.8261  -31.5201  -20.8140 O   0  0  0  0  0  0  0  0  0  0  0  0
  1  2  1  0
  3  2  1  0
  3  4  1  1
  5  3  1  0
  6  5  2  0
  7  5  1  0
  8  7  1  0
  9 10  1  0
  8  9  1  6
 10 18  1  0
 11 10  2  0
 11 12  1  0
 12 13  1  0
 13 14  1  0
 14 15  2  0
 16 15  1  0
 17 16  2  0
 18 13  2  0
 18 17  1  0
 19  8  1  0
 19 20  2  0
 21 19  1  0
 22 21  1  0
 22 23  1  6
 24 23  1  0
 25 22  1  0
 26 25  2  0
 27 25  1  0
M  END
$$$$
