SWC.pdb
     RDKit          3D

 27 28  0  0  1  0  0  0  0  0999 V2000
   26.9088  -21.7058  -18.6789 O   0  0  0  0  0  0  0  0  0  0  0  0
   27.9586  -20.9165  -18.2333 C   0  0  0  0  0  0  0  0  0  0  0  0
   28.8198  -21.6908  -17.2602 C   0  0  2  0  0  0  0  0  0  0  0  0
   29.2383  -22.9606  -17.8102 N   0  0  0  0  0  0  0  0  0  0  0  0
   28.0188  -21.9708  -16.0375 C   0  0  0  0  0  0  0  0  0  0  0  0
   27.5342  -23.1383  -15.8309 O   0  0  0  0  0  0  0  0  0  0  0  0
   27.8163  -20.9177  -15.1283 N   0  0  0  0  0  0  0  0  0  0  0  0
   27.0610  -21.1169  -13.8950 C   0  0  1  0  0  0  0  0  0  0  0  0
   27.4826  -20.1462  -12.8472 C   0  0  0  0  0  0  0  0  0  0  0  0
   26.8573  -20.3084  -11.5475 C   0  0  0  0  0  0  0  0  0  0  0  0
   25.4789  -20.1795  -11.3115 C   0  0  0  0  0  0  0  0  0  0  0  0
   25.2344  -20.3535  -10.0179 N   0  0  0  0  0  0  0  0  0  0  0  0
   26.3879  -20.5957   -9.3661 C   0  0  0  0  0  0  0  0  0  0  0  0
   26.6688  -20.8548   -8.0341 C   0  0  0  0  0  0  0  0  0  0  0  0
   27.9482  -21.0908   -7.6242 C   0  0  0  0  0  0  0  0  0  0  0  0
   28.9741  -21.0694   -8.5581 C   0  0  0  0  0  0  0  0  0  0  0  0
   28.7020  -20.8117   -9.8845 C   0  0  0  0  0  0  0  0  0  0  0  0
   27.4140  -20.5702  -10.3163 C   0  0  0  0  0  0  0  0  0  0  0  0
   25.6455  -21.1701  -14.2124 C   0  0  0  0  0  0  0  0  0  0  0  0
   25.0466  -20.3525  -14.9570 O   0  0  0  0  0  0  0  0  0  0  0  0
   24.8118  -22.2136  -13.6641 N   0  0  0  0  0  0  0  0  0  0  0  0
   23.4094  -22.2547  -13.9912 C   0  0  1  0  0  0  0  0  0  0  0  0
   22.8697  -23.6788  -13.9477 C   0  0  0  0  0  0  0  0  0  0  0  0
   21.0837  -23.6842  -14.2261 S   0  0  0  0  0  0  0  0  0  0  0  0
   22.6107  -21.3489  -13.1381 C   0  0  0  0  0  0  0  0  0  0  0  0
   22.8257  -21.3034  -11.9075 O   0  0  0  0  0  0  0  0  0  0  0  0
   21.6241  -20.5437  -13.6680 O   0  0  0  0  0  0  0  0  0  0  0  0
  1  2  1  0
  3  2  1  0
  3  4  1  6
  5  3  1  0
  6  5  2  0
  7  5  1  0
  8  7  1  0
  9 10  1  0
  8  9  1  1
 10 18  1  0
 11 10  2  0
 11 12  1  0
 12 13  1  0
 13 14  1  0
 14 15  2  0
 16 15  1  0
 17 16  2  0
 18 13  2  0
 18 17  1  0
 19  8  1  0
 19 20  2  0
 21 19  1  0
 22 21  1  0
 22 23  1  1
 24 23  1  0
 25 22  1  0
 26 25  2  0
 27 25  1  0
M  END
$$$$
