SWC.pdb
     RDKit          3D

 27 28  0  0  1  0  0  0  0  0999 V2000
   17.5323  -12.8143  -16.6505 O   0  0  0  0  0  0  0  0  0  0  0  0
   18.3493  -12.4691  -17.7168 C   0  0  0  0  0  0  0  0  0  0  0  0
   19.7608  -12.9562  -17.4743 C   0  0  2  0  0  0  0  0  0  0  0  0
   19.7920  -14.0634  -16.5455 N   0  0  0  0  0  0  0  0  0  0  0  0
   20.5498  -11.8443  -16.8775 C   0  0  0  0  0  0  0  0  0  0  0  0
   20.5578  -11.6601  -15.6100 O   0  0  0  0  0  0  0  0  0  0  0  0
   21.2774  -11.0132  -17.7472 N   0  0  0  0  0  0  0  0  0  0  0  0
   22.1310   -9.9448  -17.2362 C   0  0  1  0  0  0  0  0  0  0  0  0
   23.3859   -9.8368  -18.0306 C   0  0  0  0  0  0  0  0  0  0  0  0
   24.3669  -10.8829  -17.8072 C   0  0  0  0  0  0  0  0  0  0  0  0
   24.4029  -12.0970  -18.5123 C   0  0  0  0  0  0  0  0  0  0  0  0
   25.3960  -12.8470  -18.0492 N   0  0  0  0  0  0  0  0  0  0  0  0
   26.0359  -12.1937  -17.0604 C   0  0  0  0  0  0  0  0  0  0  0  0
   27.1281  -12.5292  -16.2765 C   0  0  0  0  0  0  0  0  0  0  0  0
   27.6035  -11.6637  -15.3355 C   0  0  0  0  0  0  0  0  0  0  0  0
   26.9804  -10.4354  -15.1679 C   0  0  0  0  0  0  0  0  0  0  0  0
   25.8931  -10.0954  -15.9438 C   0  0  0  0  0  0  0  0  0  0  0  0
   25.3988  -10.9589  -16.8996 C   0  0  0  0  0  0  0  0  0  0  0  0
   21.3383   -8.7375  -17.0896 C   0  0  0  0  0  0  0  0  0  0  0  0
   20.3700   -8.4217  -17.8273 O   0  0  0  0  0  0  0  0  0  0  0  0
   21.6338   -7.7916  -16.0396 N   0  0  0  0  0  0  0  0  0  0  0  0
   20.8033   -6.6265  -15.8718 C   0  0  1  0  0  0  0  0  0  0  0  0
   19.3765   -7.0095  -15.4992 C   0  0  0  0  0  0  0  0  0  0  0  0
   18.4190   -5.5360  -15.0757 S   0  0  0  0  0  0  0  0  0  0  0  0
   21.3754   -5.6684  -14.9019 C   0  0  0  0  0  0  0  0  0  0  0  0
   22.1611   -6.0731  -14.0178 O   0  0  0  0  0  0  0  0  0  0  0  0
   21.0630   -4.3256  -14.9457 O   0  0  0  0  0  0  0  0  0  0  0  0
  1  2  1  0
  3  2  1  0
  3  4  1  1
  5  3  1  0
  6  5  2  0
  7  5  1  0
  8  7  1  0
  9 10  1  0
  8  9  1  6
 10 18  1  0
 11 10  2  0
 11 12  1  0
 12 13  1  0
 13 14  1  0
 14 15  2  0
 16 15  1  0
 17 16  2  0
 18 13  2  0
 18 17  1  0
 19  8  1  0
 19 20  2  0
 21 19  1  0
 22 21  1  0
 22 23  1  1
 24 23  1  0
 25 22  1  0
 26 25  2  0
 27 25  1  0
M  END
$$$$
