SWC.pdb
     RDKit          3D

 27 28  0  0  1  0  0  0  0  0999 V2000
   16.6497   -6.0109  -17.2601 O   0  0  0  0  0  0  0  0  0  0  0  0
   17.9913   -6.1835  -17.5667 C   0  0  0  0  0  0  0  0  0  0  0  0
   18.4024   -7.6197  -17.3288 C   0  0  2  0  0  0  0  0  0  0  0  0
   17.4689   -8.5487  -17.9250 N   0  0  0  0  0  0  0  0  0  0  0  0
   18.4154   -7.8720  -15.8621 C   0  0  0  0  0  0  0  0  0  0  0  0
   17.3840   -8.3554  -15.2764 O   0  0  0  0  0  0  0  0  0  0  0  0
   19.5887   -7.5634  -15.1518 N   0  0  0  0  0  0  0  0  0  0  0  0
   19.6589   -7.7177  -13.7018 C   0  0  1  0  0  0  0  0  0  0  0  0
   21.0061   -8.1908  -13.2790 C   0  0  0  0  0  0  0  0  0  0  0  0
   21.1887   -8.3843  -11.8523 C   0  0  0  0  0  0  0  0  0  0  0  0
   20.7582   -9.5198  -11.1467 C   0  0  0  0  0  0  0  0  0  0  0  0
   21.0451   -9.3740   -9.8584 N   0  0  0  0  0  0  0  0  0  0  0  0
   21.6525   -8.1884   -9.6595 C   0  0  0  0  0  0  0  0  0  0  0  0
   22.1558   -7.5786   -8.5216 C   0  0  0  0  0  0  0  0  0  0  0  0
   22.7547   -6.3552   -8.5927 C   0  0  0  0  0  0  0  0  0  0  0  0
   22.8569   -5.7209   -9.8225 C   0  0  0  0  0  0  0  0  0  0  0  0
   22.3578   -6.3214  -10.9584 C   0  0  0  0  0  0  0  0  0  0  0  0
   21.7485   -7.5581  -10.9045 C   0  0  0  0  0  0  0  0  0  0  0  0
   19.1587   -6.5081  -13.0743 C   0  0  0  0  0  0  0  0  0  0  0  0
   19.4279   -5.3397  -13.4536 O   0  0  0  0  0  0  0  0  0  0  0  0
   18.2845   -6.5866  -11.9278 N   0  0  0  0  0  0  0  0  0  0  0  0
   17.7779   -5.3777  -11.3304 C   0  0  1  0  0  0  0  0  0  0  0  0
   16.4261   -4.9912  -11.9176 C   0  0  0  0  0  0  0  0  0  0  0  0
   15.2249   -6.3170  -11.6592 S   0  0  0  0  0  0  0  0  0  0  0  0
   17.7200   -5.4658   -9.8556 C   0  0  0  0  0  0  0  0  0  0  0  0
   17.9756   -6.5493   -9.2870 O   0  0  0  0  0  0  0  0  0  0  0  0
   17.3882   -4.3737   -9.0810 O   0  0  0  0  0  0  0  0  0  0  0  0
  1  2  1  0
  3  2  1  0
  3  4  1  6
  5  3  1  0
  6  5  2  0
  7  5  1  0
  8  7  1  0
  9 10  1  0
  8  9  1  6
 10 18  1  0
 11 10  2  0
 11 12  1  0
 12 13  1  0
 13 14  1  0
 14 15  2  0
 16 15  1  0
 17 16  2  0
 18 13  2  0
 18 17  1  0
 19  8  1  0
 19 20  2  0
 21 19  1  0
 22 21  1  0
 22 23  1  6
 24 23  1  0
 25 22  1  0
 26 25  2  0
 27 25  1  0
M  END
$$$$
