SWC.pdb
     RDKit          3D

 27 28  0  0  1  0  0  0  0  0999 V2000
   27.1602  -19.1005  -16.0523 O   0  0  0  0  0  0  0  0  0  0  0  0
   27.5249  -20.3214  -16.5999 C   0  0  0  0  0  0  0  0  0  0  0  0
   28.3537  -21.1121  -15.6119 C   0  0  2  0  0  0  0  0  0  0  0  0
   28.7728  -22.3819  -16.1613 N   0  0  0  0  0  0  0  0  0  0  0  0
   27.5198  -21.3930  -14.4117 C   0  0  0  0  0  0  0  0  0  0  0  0
   26.6107  -22.2946  -14.4481 O   0  0  0  0  0  0  0  0  0  0  0  0
   27.7644  -20.6402  -13.2498 N   0  0  0  0  0  0  0  0  0  0  0  0
   27.0094  -20.8748  -12.0225 C   0  0  1  0  0  0  0  0  0  0  0  0
   27.7054  -20.2849  -10.8456 C   0  0  0  0  0  0  0  0  0  0  0  0
   26.9708  -20.3200   -9.5943 C   0  0  0  0  0  0  0  0  0  0  0  0
   25.5760  -20.4543   -9.4996 C   0  0  0  0  0  0  0  0  0  0  0  0
   25.2149  -20.4179   -8.2223 N   0  0  0  0  0  0  0  0  0  0  0  0
   26.3049  -20.2654   -7.4460 C   0  0  0  0  0  0  0  0  0  0  0  0
   26.4668  -20.1867   -6.0721 C   0  0  0  0  0  0  0  0  0  0  0  0
   27.7076  -20.0485   -5.5227 C   0  0  0  0  0  0  0  0  0  0  0  0
   28.8150  -19.9869   -6.3563 C   0  0  0  0  0  0  0  0  0  0  0  0
   28.6613  -20.0639   -7.7240 C   0  0  0  0  0  0  0  0  0  0  0  0
   27.4137  -20.2030   -8.2964 C   0  0  0  0  0  0  0  0  0  0  0  0
   25.6284  -20.4820  -12.2363 C   0  0  0  0  0  0  0  0  0  0  0  0
   25.2593  -19.3484  -12.6364 O   0  0  0  0  0  0  0  0  0  0  0  0
   24.5557  -21.4163  -11.9891 N   0  0  0  0  0  0  0  0  0  0  0  0
   23.2146  -21.0914  -12.4028 C   0  0  1  0  0  0  0  0  0  0  0  0
   22.5287  -22.2859  -13.0541 C   0  0  0  0  0  0  0  0  0  0  0  0
   20.7892  -21.9148  -13.3761 S   0  0  0  0  0  0  0  0  0  0  0  0
   22.4055  -20.5438  -11.2931 C   0  0  0  0  0  0  0  0  0  0  0  0
   22.4202  -21.1059  -10.1767 O   0  0  0  0  0  0  0  0  0  0  0  0
   21.6262  -19.4175  -11.4570 O   0  0  0  0  0  0  0  0  0  0  0  0
  1  2  1  0
  3  2  1  0
  3  4  1  6
  5  3  1  0
  6  5  2  0
  7  5  1  0
  8  7  1  0
  9 10  1  0
  8  9  1  1
 10 18  1  0
 11 10  2  0
 11 12  1  0
 12 13  1  0
 13 14  1  0
 14 15  2  0
 16 15  1  0
 17 16  2  0
 18 13  2  0
 18 17  1  0
 19  8  1  0
 19 20  2  0
 21 19  1  0
 22 21  1  0
 22 23  1  1
 24 23  1  0
 25 22  1  0
 26 25  2  0
 27 25  1  0
M  END
$$$$
