HAH.pdb
     RDKit          3D

 26 27  0  0  1  0  0  0  0  0999 V2000
    9.6149  -15.2076   14.6814 N   0  0  0  0  0  0  0  0  0  0  0  0
    8.5146  -15.3834   15.6177 C   0  0  1  0  0  0  0  0  0  0  0  0
    8.1821  -16.8559   15.6791 C   0  0  0  0  0  0  0  0  0  0  0  0
    7.6253  -17.3418   14.4055 C   0  0  0  0  0  0  0  0  0  0  0  0
    6.6431  -16.7566   13.6434 C   0  0  0  0  0  0  0  0  0  0  0  0
    6.4217  -17.5511   12.5567 N   0  0  0  0  0  0  0  0  0  0  0  0
    7.2382  -18.6017   12.6335 C   0  0  0  0  0  0  0  0  0  0  0  0
    7.9793  -18.4726   13.7722 N   0  0  0  0  0  0  0  0  0  0  0  0
    8.8715  -14.9119   16.9687 C   0  0  0  0  0  0  0  0  0  0  0  0
    9.9332  -15.2499   17.5494 O   0  0  0  0  0  0  0  0  0  0  0  0
    7.3377  -12.6199   19.5149 C   0  0  0  0  0  0  0  0  0  0  0  0
    8.4115  -13.5795   19.0439 C   0  0  2  0  0  0  0  0  0  0  0  0
    8.0259  -14.0273   17.7219 N   0  0  0  0  0  0  0  0  0  0  0  0
    8.5009  -14.7671   19.9559 C   0  0  0  0  0  0  0  0  0  0  0  0
    7.6678  -15.7051   19.9005 O   0  0  0  0  0  0  0  0  0  0  0  0
    9.5401  -14.8511   20.9072 N   0  0  0  0  0  0  0  0  0  0  0  0
    9.9399  -16.2043   21.3879 C   0  0  1  0  0  0  0  0  0  0  0  0
   10.3178  -17.0300   20.2162 C   0  0  0  0  0  0  0  0  0  0  0  0
   10.8059  -18.3742   20.5599 C   0  0  0  0  0  0  0  0  0  0  0  0
   10.9632  -19.0058   21.7649 C   0  0  0  0  0  0  0  0  0  0  0  0
   11.3799  -20.2949   21.5994 N   0  0  0  0  0  0  0  0  0  0  0  0
   11.4815  -20.4682   20.2757 C   0  0  0  0  0  0  0  0  0  0  0  0
   11.1453  -19.3412   19.6390 N   0  0  0  0  0  0  0  0  0  0  0  0
   11.0890  -15.9771   22.3207 C   0  0  0  0  0  0  0  0  0  0  0  0
   11.7181  -16.8698   22.8852 O   0  0  0  0  0  0  0  0  0  0  0  0
   11.5017  -14.6578   22.5906 O   0  0  0  0  0  0  0  0  0  0  0  0
  2  9  1  0
  2  1  1  6
  3  2  1  0
  4  3  1  0
  5  4  2  0
  6  7  1  0
  6  5  1  0
  7  8  2  0
  8  4  1  0
  9 10  2  0
 12 11  1  1
 12 14  1  0
 13  9  1  0
 13 12  1  0
 14 15  2  0
 16 14  1  0
 16 17  1  0
 17 24  1  0
 17 18  1  6
 19 23  1  0
 19 18  1  0
 20 19  2  0
 21 20  1  0
 21 22  1  0
 22 23  2  0
 24 26  1  0
 25 24  2  0
M  END
$$$$
