HAH.pdb
     RDKit          3D

 26 27  0  0  1  0  0  0  0  0999 V2000
    8.8664  -17.4599   16.7511 N   0  0  0  0  0  0  0  0  0  0  0  0
   10.0169  -16.5901   16.9465 C   0  0  1  0  0  0  0  0  0  0  0  0
    9.8241  -15.8424   18.2450 C   0  0  0  0  0  0  0  0  0  0  0  0
    8.7952  -14.7960   18.1232 C   0  0  0  0  0  0  0  0  0  0  0  0
    8.1162  -14.4171   16.9903 C   0  0  0  0  0  0  0  0  0  0  0  0
    7.2707  -13.4001   17.3247 N   0  0  0  0  0  0  0  0  0  0  0  0
    7.4138  -13.1479   18.6257 C   0  0  0  0  0  0  0  0  0  0  0  0
    8.3527  -14.0077   19.1171 N   0  0  0  0  0  0  0  0  0  0  0  0
   11.2732  -17.3595   17.0139 C   0  0  0  0  0  0  0  0  0  0  0  0
   11.4065  -18.3843   17.7285 O   0  0  0  0  0  0  0  0  0  0  0  0
   14.5651  -17.2835   15.2271 C   0  0  0  0  0  0  0  0  0  0  0  0
   13.6404  -17.8009   16.3101 C   0  0  2  0  0  0  0  0  0  0  0  0
   12.4414  -16.9902   16.2630 N   0  0  0  0  0  0  0  0  0  0  0  0
   14.2736  -17.6596   17.6626 C   0  0  0  0  0  0  0  0  0  0  0  0
   14.0091  -16.6907   18.4164 O   0  0  0  0  0  0  0  0  0  0  0  0
   15.1924  -18.6296   18.1176 N   0  0  0  0  0  0  0  0  0  0  0  0
   15.7960  -18.4414   19.4675 C   0  0  1  0  0  0  0  0  0  0  0  0
   15.7764  -19.7413   20.1798 C   0  0  0  0  0  0  0  0  0  0  0  0
   14.4812  -20.0714   20.7935 C   0  0  0  0  0  0  0  0  0  0  0  0
   13.3081  -19.3695   20.8788 C   0  0  0  0  0  0  0  0  0  0  0  0
   12.3301  -20.1078   21.4796 N   0  0  0  0  0  0  0  0  0  0  0  0
   12.9005  -21.2837   21.7702 C   0  0  0  0  0  0  0  0  0  0  0  0
   14.1770  -21.2845   21.3716 N   0  0  0  0  0  0  0  0  0  0  0  0
   17.1875  -17.9463   19.2210 C   0  0  0  0  0  0  0  0  0  0  0  0
   17.7062  -17.8429   18.1113 O   0  0  0  0  0  0  0  0  0  0  0  0
   17.9833  -17.5646   20.3186 O   0  0  0  0  0  0  0  0  0  0  0  0
  2  9  1  0
  2  1  1  1
  3  2  1  0
  4  3  1  0
  5  4  2  0
  6  7  1  0
  6  5  1  0
  7  8  2  0
  8  4  1  0
  9 10  2  0
 12 11  1  6
 12 14  1  0
 13  9  1  0
 13 12  1  0
 14 15  2  0
 16 14  1  0
 16 17  1  0
 17 24  1  0
 17 18  1  6
 19 23  1  0
 19 18  1  0
 20 19  2  0
 21 20  1  0
 21 22  1  0
 22 23  2  0
 24 26  1  0
 25 24  2  0
M  END
$$$$
