HAH.pdb
     RDKit          3D

 26 27  0  0  1  0  0  0  0  0999 V2000
    7.9549  -17.0650   12.1489 N   0  0  0  0  0  0  0  0  0  0  0  0
    9.3070  -17.5912   12.2634 C   0  0  1  0  0  0  0  0  0  0  0  0
   10.1938  -16.4923   12.8005 C   0  0  0  0  0  0  0  0  0  0  0  0
   10.3525  -15.3971   11.8290 C   0  0  0  0  0  0  0  0  0  0  0  0
    9.8775  -15.3451   10.5407 C   0  0  0  0  0  0  0  0  0  0  0  0
   10.2688  -14.1582    9.9937 N   0  0  0  0  0  0  0  0  0  0  0  0
   10.9672  -13.4860   10.9086 C   0  0  0  0  0  0  0  0  0  0  0  0
   11.0186  -14.2493   12.0387 N   0  0  0  0  0  0  0  0  0  0  0  0
    9.3634  -18.7475   13.1771 C   0  0  0  0  0  0  0  0  0  0  0  0
    8.6103  -18.8632   14.1761 O   0  0  0  0  0  0  0  0  0  0  0  0
   10.5563  -22.1965   12.9785 C   0  0  0  0  0  0  0  0  0  0  0  0
   10.2531  -20.9945   13.8499 C   0  0  2  0  0  0  0  0  0  0  0  0
   10.2890  -19.8305   12.9892 N   0  0  0  0  0  0  0  0  0  0  0  0
   11.2893  -20.8411   14.9237 C   0  0  0  0  0  0  0  0  0  0  0  0
   11.5023  -21.7455   15.7683 O   0  0  0  0  0  0  0  0  0  0  0  0
   12.0544  -19.6577   15.0035 N   0  0  0  0  0  0  0  0  0  0  0  0
   13.0396  -19.5363   16.1156 C   0  0  1  0  0  0  0  0  0  0  0  0
   14.2296  -18.8071   15.6159 C   0  0  0  0  0  0  0  0  0  0  0  0
   15.1447  -19.6298   14.8103 C   0  0  0  0  0  0  0  0  0  0  0  0
   15.0824  -20.9391   14.4133 C   0  0  0  0  0  0  0  0  0  0  0  0
   16.1299  -21.2619   13.6001 N   0  0  0  0  0  0  0  0  0  0  0  0
   16.8517  -20.1400   13.4883 C   0  0  0  0  0  0  0  0  0  0  0  0
   16.2854  -19.1582   14.1981 N   0  0  0  0  0  0  0  0  0  0  0  0
   12.3291  -18.7921   17.2035 C   0  0  0  0  0  0  0  0  0  0  0  0
   11.1517  -18.4416   17.1569 O   0  0  0  0  0  0  0  0  0  0  0  0
   13.0333  -18.4554   18.3759 O   0  0  0  0  0  0  0  0  0  0  0  0
  2  9  1  0
  2  1  1  1
  3  2  1  0
  4  3  1  0
  5  4  2  0
  6  7  1  0
  6  5  1  0
  7  8  2  0
  8  4  1  0
  9 10  2  0
 12 11  1  6
 12 14  1  0
 13  9  1  0
 13 12  1  0
 14 15  2  0
 16 14  1  0
 16 17  1  0
 17 24  1  0
 17 18  1  6
 19 23  1  0
 19 18  1  0
 20 19  2  0
 21 20  1  0
 21 22  1  0
 22 23  2  0
 24 26  1  0
 25 24  2  0
M  END
$$$$
