DYW.pdb
     RDKit          3D

 35 37  0  0  1  0  0  0  0  0999 V2000
    8.3147  -19.0766   20.7053 N   0  0  0  0  0  0  0  0  0  0  0  0
    9.3497  -18.5132   19.8973 C   0  0  1  0  0  0  0  0  0  0  0  0
    8.9350  -18.2694   18.4622 C   0  0  0  0  0  0  0  0  0  0  0  0
    9.7214  -19.0589   17.4956 C   0  0  0  0  0  0  0  0  0  0  0  0
   10.6014  -19.8746   17.9100 O   0  0  0  0  0  0  0  0  0  0  0  0
    9.8622  -17.2503   20.5234 C   0  0  0  0  0  0  0  0  0  0  0  0
   10.9517  -16.7639   20.1449 O   0  0  0  0  0  0  0  0  0  0  0  0
    9.4946  -18.9055   16.1358 O   0  0  0  0  0  0  0  0  0  0  0  0
    7.0634  -12.8037   16.9467 O   0  0  0  0  0  0  0  0  0  0  0  0
    7.5171  -13.1252   18.2182 C   0  0  0  0  0  0  0  0  0  0  0  0
    8.6786  -12.6226   18.7658 C   0  0  0  0  0  0  0  0  0  0  0  0
    9.0858  -12.9842   20.0557 C   0  0  0  0  0  0  0  0  0  0  0  0
    8.3201  -13.8620   20.8100 C   0  0  0  0  0  0  0  0  0  0  0  0
    8.7333  -14.2446   22.1562 C   0  0  0  0  0  0  0  0  0  0  0  0
    9.6536  -15.4091   22.2413 C   0  0  2  0  0  0  0  0  0  0  0  0
    9.1465  -16.5767   21.5442 N   0  0  0  0  0  0  0  0  0  0  0  0
   10.0530  -15.8049   23.6117 C   0  0  0  0  0  0  0  0  0  0  0  0
   11.0703  -15.2560   24.1644 O   0  0  0  0  0  0  0  0  0  0  0  0
    7.1639  -14.3614   20.2636 C   0  0  0  0  0  0  0  0  0  0  0  0
    6.7478  -14.0071   18.9767 C   0  0  0  0  0  0  0  0  0  0  0  0
    9.3723  -16.7763   24.3901 N   0  0  0  0  0  0  0  0  0  0  0  0
    9.7292  -17.0547   25.7879 C   0  0  1  0  0  0  0  0  0  0  0  0
    9.4314  -15.8723   26.6439 C   0  0  0  0  0  0  0  0  0  0  0  0
    8.0860  -15.3356   26.3838 C   0  0  0  0  0  0  0  0  0  0  0  0
    6.9883  -16.0337   25.8810 C   0  0  0  0  0  0  0  0  0  0  0  0
    5.9586  -15.1913   25.7513 N   0  0  0  0  0  0  0  0  0  0  0  0
    6.3313  -13.9562   26.1510 C   0  0  0  0  0  0  0  0  0  0  0  0
    5.6493  -12.7488   26.2311 C   0  0  0  0  0  0  0  0  0  0  0  0
    6.2314  -11.5923   26.6973 C   0  0  0  0  0  0  0  0  0  0  0  0
    7.5501  -11.6866   27.0899 C   0  0  0  0  0  0  0  0  0  0  0  0
    8.2495  -12.8645   27.0216 C   0  0  0  0  0  0  0  0  0  0  0  0
    7.6347  -14.0225   26.5438 C   0  0  0  0  0  0  0  0  0  0  0  0
    9.2692  -18.3500   26.2654 C   0  0  0  0  0  0  0  0  0  0  0  0
    8.5231  -19.1206   25.5907 O   0  0  0  0  0  0  0  0  0  0  0  0
    9.6119  -18.8731   27.5290 O   0  0  0  0  0  0  0  0  0  0  0  0
  2  1  1  1
  3  2  1  0
  3  4  1  0
  4  8  1  0
  5  4  2  0
  6  2  1  0
  6  7  2  0
  9 10  1  0
 10 11  2  0
 11 12  1  0
 13 12  2  0
 13 14  1  0
 15 14  1  1
 15 16  1  0
 15 17  1  0
 16  6  1  0
 17 21  1  0
 18 17  2  0
 19 13  1  0
 20 10  1  0
 20 19  2  0
 21 22  1  0
 22 33  1  0
 22 23  1  1
 24 23  1  0
 24 32  1  0
 25 26  1  0
 25 24  2  0
 26 27  1  0
 27 32  2  0
 27 28  1  0
 28 29  2  0
 29 30  1  0
 31 30  2  0
 32 31  1  0
 33 34  2  0
 33 35  1  0
M  END
$$$$
