DYW.pdb
     RDKit          3D

 35 37  0  0  1  0  0  0  0  0999 V2000
    8.3494  -18.5313   19.6050 N   0  0  0  0  0  0  0  0  0  0  0  0
    9.2992  -18.8302   20.6297 C   0  0  1  0  0  0  0  0  0  0  0  0
   10.4093  -19.7547   20.1779 C   0  0  0  0  0  0  0  0  0  0  0  0
    9.9151  -21.0743   19.7416 C   0  0  0  0  0  0  0  0  0  0  0  0
    8.6670  -21.3012   19.6970 O   0  0  0  0  0  0  0  0  0  0  0  0
    9.8632  -17.5609   21.1956 C   0  0  0  0  0  0  0  0  0  0  0  0
   11.0645  -17.2695   20.9984 O   0  0  0  0  0  0  0  0  0  0  0  0
   10.8192  -22.0628   19.3813 O   0  0  0  0  0  0  0  0  0  0  0  0
    7.9317  -13.5843   16.4762 O   0  0  0  0  0  0  0  0  0  0  0  0
    8.0754  -13.7065   17.8511 C   0  0  0  0  0  0  0  0  0  0  0  0
    7.4495  -12.8819   18.7621 C   0  0  0  0  0  0  0  0  0  0  0  0
    7.6335  -13.0540   20.1394 C   0  0  0  0  0  0  0  0  0  0  0  0
    8.4559  -14.0663   20.6135 C   0  0  0  0  0  0  0  0  0  0  0  0
    8.6536  -14.2566   22.0467 C   0  0  0  0  0  0  0  0  0  0  0  0
    9.5507  -15.3784   22.4301 C   0  0  2  0  0  0  0  0  0  0  0  0
    9.0730  -16.6650   21.9578 N   0  0  0  0  0  0  0  0  0  0  0  0
    9.8568  -15.4820   23.8757 C   0  0  0  0  0  0  0  0  0  0  0  0
   10.4530  -14.5181   24.4733 O   0  0  0  0  0  0  0  0  0  0  0  0
    9.0782  -14.8865   19.7055 C   0  0  0  0  0  0  0  0  0  0  0  0
    8.9017  -14.7236   18.3281 C   0  0  0  0  0  0  0  0  0  0  0  0
    9.5278  -16.6028   24.6809 N   0  0  0  0  0  0  0  0  0  0  0  0
    9.8773  -16.6769   26.1061 C   0  0  1  0  0  0  0  0  0  0  0  0
    8.6442  -16.7558   26.9384 C   0  0  0  0  0  0  0  0  0  0  0  0
    7.6065  -15.8257   26.4654 C   0  0  0  0  0  0  0  0  0  0  0  0
    6.5024  -16.1357   25.6717 C   0  0  0  0  0  0  0  0  0  0  0  0
    5.8153  -15.0160   25.4248 N   0  0  0  0  0  0  0  0  0  0  0  0
    6.4223  -13.9706   26.0271 C   0  0  0  0  0  0  0  0  0  0  0  0
    6.1144  -12.6179   26.0968 C   0  0  0  0  0  0  0  0  0  0  0  0
    6.8783  -11.7137   26.7986 C   0  0  0  0  0  0  0  0  0  0  0  0
    7.9870  -12.2203   27.4436 C   0  0  0  0  0  0  0  0  0  0  0  0
    8.3168  -13.5506   27.3924 C   0  0  0  0  0  0  0  0  0  0  0  0
    7.5247  -14.4459   26.6723 C   0  0  0  0  0  0  0  0  0  0  0  0
   10.9379  -17.6280   26.4028 C   0  0  0  0  0  0  0  0  0  0  0  0
   11.4582  -18.3903   25.5345 O   0  0  0  0  0  0  0  0  0  0  0  0
   11.4902  -17.7918   27.6896 O   0  0  0  0  0  0  0  0  0  0  0  0
  2  1  1  6
  3  2  1  0
  3  4  1  0
  4  8  1  0
  5  4  2  0
  6  2  1  0
  6  7  2  0
  9 10  1  0
 10 11  2  0
 11 12  1  0
 13 12  2  0
 13 14  1  0
 15 14  1  1
 15 16  1  0
 15 17  1  0
 16  6  1  0
 17 21  1  0
 18 17  2  0
 19 13  1  0
 20 10  1  0
 20 19  2  0
 21 22  1  0
 22 33  1  0
 22 23  1  1
 24 23  1  0
 24 32  1  0
 25 26  1  0
 25 24  2  0
 26 27  1  0
 27 32  2  0
 27 28  1  0
 28 29  2  0
 29 30  1  0
 31 30  2  0
 32 31  1  0
 33 34  2  0
 33 35  1  0
M  END
$$$$
