DYW.pdb
     RDKit          3D

 35 37  0  0  1  0  0  0  0  0999 V2000
    5.6257  -20.1131   24.1841 N   0  0  0  0  0  0  0  0  0  0  0  0
    6.6738  -20.6135   23.3519 C   0  0  1  0  0  0  0  0  0  0  0  0
    6.2097  -21.6415   22.3426 C   0  0  0  0  0  0  0  0  0  0  0  0
    6.0045  -22.9763   22.9361 C   0  0  0  0  0  0  0  0  0  0  0  0
    5.8880  -23.1000   24.1941 O   0  0  0  0  0  0  0  0  0  0  0  0
    7.3754  -19.4778   22.6680 C   0  0  0  0  0  0  0  0  0  0  0  0
    8.4382  -19.6880   22.0410 O   0  0  0  0  0  0  0  0  0  0  0  0
    5.9397  -24.0921   22.1144 O   0  0  0  0  0  0  0  0  0  0  0  0
    8.6918  -11.6498   18.7026 O   0  0  0  0  0  0  0  0  0  0  0  0
    8.1577  -12.7400   19.3747 C   0  0  0  0  0  0  0  0  0  0  0  0
    7.7683  -13.9071   18.7519 C   0  0  0  0  0  0  0  0  0  0  0  0
    7.2349  -14.9747   19.4840 C   0  0  0  0  0  0  0  0  0  0  0  0
    7.0885  -14.8743   20.8603 C   0  0  0  0  0  0  0  0  0  0  0  0
    6.5358  -15.9812   21.6342 C   0  0  0  0  0  0  0  0  0  0  0  0
    7.5050  -17.0353   22.0338 C   0  0  2  0  0  0  0  0  0  0  0  0
    6.8709  -18.1542   22.7064 N   0  0  0  0  0  0  0  0  0  0  0  0
    8.6488  -16.5700   22.8520 C   0  0  0  0  0  0  0  0  0  0  0  0
    9.5991  -15.9081   22.3038 O   0  0  0  0  0  0  0  0  0  0  0  0
    7.4768  -13.7120   21.4791 C   0  0  0  0  0  0  0  0  0  0  0  0
    8.0105  -12.6397   20.7579 C   0  0  0  0  0  0  0  0  0  0  0  0
    8.7790  -16.8049   24.2451 N   0  0  0  0  0  0  0  0  0  0  0  0
    9.9652  -16.3881   25.0053 C   0  0  1  0  0  0  0  0  0  0  0  0
    9.9482  -14.9147   25.2252 C   0  0  0  0  0  0  0  0  0  0  0  0
    8.5927  -14.4227   25.5189 C   0  0  0  0  0  0  0  0  0  0  0  0
    7.4400  -15.1905   25.6832 C   0  0  0  0  0  0  0  0  0  0  0  0
    6.4020  -14.3769   25.9006 N   0  0  0  0  0  0  0  0  0  0  0  0
    6.8226  -13.0936   25.8879 C   0  0  0  0  0  0  0  0  0  0  0  0
    6.1618  -11.8862   26.0749 C   0  0  0  0  0  0  0  0  0  0  0  0
    6.8046  -10.6700   26.0387 C   0  0  0  0  0  0  0  0  0  0  0  0
    8.1631  -10.7031   25.8034 C   0  0  0  0  0  0  0  0  0  0  0  0
    8.8426  -11.8794   25.6142 C   0  0  0  0  0  0  0  0  0  0  0  0
    8.1655  -13.0990   25.6553 C   0  0  0  0  0  0  0  0  0  0  0  0
   10.2477  -17.2264   26.1606 C   0  0  0  0  0  0  0  0  0  0  0  0
    9.4684  -18.1366   26.5729 O   0  0  0  0  0  0  0  0  0  0  0  0
   11.4205  -17.1056   26.9338 O   0  0  0  0  0  0  0  0  0  0  0  0
  2  1  1  6
  3  2  1  0
  3  4  1  0
  4  8  1  0
  5  4  2  0
  6  2  1  0
  6  7  2  0
  9 10  1  0
 10 11  2  0
 11 12  1  0
 13 12  2  0
 13 14  1  0
 15 14  1  1
 15 16  1  0
 15 17  1  0
 16  6  1  0
 17 21  1  0
 18 17  2  0
 19 13  1  0
 20 10  1  0
 20 19  2  0
 21 22  1  0
 22 33  1  0
 22 23  1  1
 24 23  1  0
 24 32  1  0
 25 26  1  0
 25 24  2  0
 26 27  1  0
 27 32  2  0
 27 28  1  0
 28 29  2  0
 29 30  1  0
 31 30  2  0
 32 31  1  0
 33 34  2  0
 33 35  1  0
M  END
$$$$
