DYW.pdb
     RDKit          3D

 35 37  0  0  1  0  0  0  0  0999 V2000
    9.3691  -18.7383   19.9292 N   0  0  0  0  0  0  0  0  0  0  0  0
   10.6907  -18.1988   19.8672 C   0  0  1  0  0  0  0  0  0  0  0  0
   11.2122  -18.0299   18.4564 C   0  0  0  0  0  0  0  0  0  0  0  0
   10.9384  -19.1990   17.5996 C   0  0  0  0  0  0  0  0  0  0  0  0
   10.4966  -20.2724   18.1135 O   0  0  0  0  0  0  0  0  0  0  0  0
   10.7526  -16.9000   20.6149 C   0  0  0  0  0  0  0  0  0  0  0  0
   11.7762  -16.1838   20.5374 O   0  0  0  0  0  0  0  0  0  0  0  0
   11.1658  -19.1192   16.2335 O   0  0  0  0  0  0  0  0  0  0  0  0
    7.1245  -12.9620   16.7349 O   0  0  0  0  0  0  0  0  0  0  0  0
    7.4247  -13.3617   18.0294 C   0  0  0  0  0  0  0  0  0  0  0  0
    6.9441  -14.5198   18.6035 C   0  0  0  0  0  0  0  0  0  0  0  0
    7.2820  -14.8709   19.9160 C   0  0  0  0  0  0  0  0  0  0  0  0
    8.1133  -14.0516   20.6667 C   0  0  0  0  0  0  0  0  0  0  0  0
    8.4740  -14.4081   22.0350 C   0  0  0  0  0  0  0  0  0  0  0  0
    9.7136  -15.2150   22.1852 C   0  0  2  0  0  0  0  0  0  0  0  0
    9.6772  -16.4469   21.4187 N   0  0  0  0  0  0  0  0  0  0  0  0
   10.1025  -15.5293   23.5795 C   0  0  0  0  0  0  0  0  0  0  0  0
   10.9366  -14.7765   24.1954 O   0  0  0  0  0  0  0  0  0  0  0  0
    8.5911  -12.8991   20.0939 C   0  0  0  0  0  0  0  0  0  0  0  0
    8.2602  -12.5388   18.7841 C   0  0  0  0  0  0  0  0  0  0  0  0
    9.6046  -16.6358   24.3148 N   0  0  0  0  0  0  0  0  0  0  0  0
    9.8855  -16.8199   25.7452 C   0  0  1  0  0  0  0  0  0  0  0  0
    9.5542  -15.5801   26.5019 C   0  0  0  0  0  0  0  0  0  0  0  0
    8.1940  -15.1052   26.2023 C   0  0  0  0  0  0  0  0  0  0  0  0
    7.1584  -15.8396   25.6249 C   0  0  0  0  0  0  0  0  0  0  0  0
    6.0907  -15.0483   25.4811 N   0  0  0  0  0  0  0  0  0  0  0  0
    6.3782  -13.8123   25.9433 C   0  0  0  0  0  0  0  0  0  0  0  0
    5.6286  -12.6467   26.0384 C   0  0  0  0  0  0  0  0  0  0  0  0
    6.1263  -11.4807   26.5735 C   0  0  0  0  0  0  0  0  0  0  0  0
    7.4302  -11.5209   27.0209 C   0  0  0  0  0  0  0  0  0  0  0  0
    8.1951  -12.6565   26.9396 C   0  0  0  0  0  0  0  0  0  0  0  0
    7.6652  -13.8253   26.3914 C   0  0  0  0  0  0  0  0  0  0  0  0
    9.3894  -18.0770   26.2848 C   0  0  0  0  0  0  0  0  0  0  0  0
    8.6667  -18.8845   25.6279 O   0  0  0  0  0  0  0  0  0  0  0  0
    9.6675  -18.5181   27.5947 O   0  0  0  0  0  0  0  0  0  0  0  0
  2  1  1  6
  3  2  1  0
  3  4  1  0
  4  8  1  0
  5  4  2  0
  6  2  1  0
  6  7  2  0
  9 10  1  0
 10 11  2  0
 11 12  1  0
 13 12  2  0
 13 14  1  0
 15 14  1  1
 15 16  1  0
 15 17  1  0
 16  6  1  0
 17 21  1  0
 18 17  2  0
 19 13  1  0
 20 10  1  0
 20 19  2  0
 21 22  1  0
 22 33  1  0
 22 23  1  1
 24 23  1  0
 24 32  1  0
 25 26  1  0
 25 24  2  0
 26 27  1  0
 27 32  2  0
 27 28  1  0
 28 29  2  0
 29 30  1  0
 31 30  2  0
 32 31  1  0
 33 34  2  0
 33 35  1  0
M  END
$$$$
