DYW.pdb
     RDKit          3D

 35 37  0  0  1  0  0  0  0  0999 V2000
    7.4757  -12.8320   17.8215 N   0  0  0  0  0  0  0  0  0  0  0  0
    8.1514  -14.0683   18.0590 C   0  0  1  0  0  0  0  0  0  0  0  0
    9.5023  -14.1618   17.3828 C   0  0  0  0  0  0  0  0  0  0  0  0
    9.4023  -14.4272   15.9352 C   0  0  0  0  0  0  0  0  0  0  0  0
    8.2667  -14.4301   15.3680 O   0  0  0  0  0  0  0  0  0  0  0  0
    8.2783  -14.3110   19.5337 C   0  0  0  0  0  0  0  0  0  0  0  0
    8.8764  -13.4798   20.2536 O   0  0  0  0  0  0  0  0  0  0  0  0
   10.5525  -14.6730   15.1997 O   0  0  0  0  0  0  0  0  0  0  0  0
    6.4425  -17.8498   27.5154 O   0  0  0  0  0  0  0  0  0  0  0  0
    6.4388  -17.4250   26.1943 C   0  0  0  0  0  0  0  0  0  0  0  0
    6.1610  -16.1308   25.8076 C   0  0  0  0  0  0  0  0  0  0  0  0
    6.1722  -15.7610   24.4572 C   0  0  0  0  0  0  0  0  0  0  0  0
    6.4658  -16.6995   23.4780 C   0  0  0  0  0  0  0  0  0  0  0  0
    6.4824  -16.3254   22.0676 C   0  0  0  0  0  0  0  0  0  0  0  0
    7.7315  -15.6777   21.5875 C   0  0  2  0  0  0  0  0  0  0  0  0
    7.7371  -15.4656   20.1517 N   0  0  0  0  0  0  0  0  0  0  0  0
    8.9895  -16.3561   21.9767 C   0  0  0  0  0  0  0  0  0  0  0  0
    9.9810  -16.3780   21.1654 O   0  0  0  0  0  0  0  0  0  0  0  0
    6.7423  -17.9874   23.8644 C   0  0  0  0  0  0  0  0  0  0  0  0
    6.7339  -18.3677   25.2099 C   0  0  0  0  0  0  0  0  0  0  0  0
    9.1921  -17.0043   23.2223 N   0  0  0  0  0  0  0  0  0  0  0  0
   10.3767  -16.7549   24.0550 C   0  0  1  0  0  0  0  0  0  0  0  0
   10.6254  -15.2911   24.1766 C   0  0  0  0  0  0  0  0  0  0  0  0
    9.9849  -14.7267   25.3753 C   0  0  0  0  0  0  0  0  0  0  0  0
   10.1506  -15.1527   26.6930 C   0  0  0  0  0  0  0  0  0  0  0  0
    9.3727  -14.4142   27.4907 N   0  0  0  0  0  0  0  0  0  0  0  0
    8.6949  -13.5102   26.7508 C   0  0  0  0  0  0  0  0  0  0  0  0
    7.7861  -12.5143   27.0849 C   0  0  0  0  0  0  0  0  0  0  0  0
    7.2208  -11.6759   26.1515 C   0  0  0  0  0  0  0  0  0  0  0  0
    7.6044  -11.8721   24.8414 C   0  0  0  0  0  0  0  0  0  0  0  0
    8.4988  -12.8474   24.4810 C   0  0  0  0  0  0  0  0  0  0  0  0
    9.0564  -13.6846   25.4483 C   0  0  0  0  0  0  0  0  0  0  0  0
   10.4074  -17.5357   25.2826 C   0  0  0  0  0  0  0  0  0  0  0  0
    9.3796  -18.0637   25.8028 O   0  0  0  0  0  0  0  0  0  0  0  0
   11.5886  -17.7804   26.0123 O   0  0  0  0  0  0  0  0  0  0  0  0
  2  1  1  1
  3  2  1  0
  3  4  1  0
  4  8  1  0
  5  4  2  0
  6  2  1  0
  6  7  2  0
  9 10  1  0
 10 11  2  0
 11 12  1  0
 13 12  2  0
 13 14  1  0
 15 14  1  6
 15 16  1  0
 15 17  1  0
 16  6  1  0
 17 21  1  0
 18 17  2  0
 19 13  1  0
 20 10  1  0
 20 19  2  0
 21 22  1  0
 22 33  1  0
 22 23  1  1
 24 23  1  0
 24 32  1  0
 25 26  1  0
 25 24  2  0
 26 27  1  0
 27 32  2  0
 27 28  1  0
 28 29  2  0
 29 30  1  0
 31 30  2  0
 32 31  1  0
 33 34  2  0
 33 35  1  0
M  END
$$$$
