DYW.pdb
     RDKit          3D

 35 37  0  0  1  0  0  0  0  0999 V2000
   10.8653  -18.9332   18.8160 N   0  0  0  0  0  0  0  0  0  0  0  0
   11.5469  -17.6825   18.9284 C   0  0  1  0  0  0  0  0  0  0  0  0
   11.6216  -16.9124   17.6274 C   0  0  0  0  0  0  0  0  0  0  0  0
   12.2530  -17.6834   16.5397 C   0  0  0  0  0  0  0  0  0  0  0  0
   13.5051  -17.8916   16.5540 O   0  0  0  0  0  0  0  0  0  0  0  0
   10.9176  -16.8475   20.0038 C   0  0  0  0  0  0  0  0  0  0  0  0
   11.4084  -15.7338   20.2963 O   0  0  0  0  0  0  0  0  0  0  0  0
   11.4732  -18.1779   15.5045 O   0  0  0  0  0  0  0  0  0  0  0  0
    5.2923  -14.4775   26.5144 O   0  0  0  0  0  0  0  0  0  0  0  0
    5.8821  -14.9708   25.3592 C   0  0  0  0  0  0  0  0  0  0  0  0
    6.0937  -14.2152   24.2253 C   0  0  0  0  0  0  0  0  0  0  0  0
    6.6942  -14.7691   23.0883 C   0  0  0  0  0  0  0  0  0  0  0  0
    7.0896  -16.0994   23.0846 C   0  0  0  0  0  0  0  0  0  0  0  0
    7.7183  -16.6872   21.9062 C   0  0  0  0  0  0  0  0  0  0  0  0
    9.1972  -16.5544   21.8310 C   0  0  2  0  0  0  0  0  0  0  0  0
    9.7692  -17.2804   20.7121 N   0  0  0  0  0  0  0  0  0  0  0  0
    9.9317  -16.9187   23.0647 C   0  0  0  0  0  0  0  0  0  0  0  0
   10.3881  -18.1072   23.2092 O   0  0  0  0  0  0  0  0  0  0  0  0
    6.8786  -16.8504   24.2142 C   0  0  0  0  0  0  0  0  0  0  0  0
    6.2798  -16.3075   25.3551 C   0  0  0  0  0  0  0  0  0  0  0  0
   10.1817  -16.0232   24.1363 N   0  0  0  0  0  0  0  0  0  0  0  0
   11.0202  -16.3878   25.2864 C   0  0  1  0  0  0  0  0  0  0  0  0
   11.4386  -15.1666   26.0302 C   0  0  0  0  0  0  0  0  0  0  0  0
   10.3660  -14.6664   26.9048 C   0  0  0  0  0  0  0  0  0  0  0  0
   10.0711  -15.0959   28.1985 C   0  0  0  0  0  0  0  0  0  0  0  0
    9.0043  -14.4270   28.6471 N   0  0  0  0  0  0  0  0  0  0  0  0
    8.5783  -13.5659   27.6978 C   0  0  0  0  0  0  0  0  0  0  0  0
    7.5399  -12.6440   27.6632 C   0  0  0  0  0  0  0  0  0  0  0  0
    7.2936  -11.8376   26.5757 C   0  0  0  0  0  0  0  0  0  0  0  0
    8.1413  -11.9881   25.4983 C   0  0  0  0  0  0  0  0  0  0  0  0
    9.1743  -12.8902   25.5029 C   0  0  0  0  0  0  0  0  0  0  0  0
    9.4010  -13.6964   26.6192 C   0  0  0  0  0  0  0  0  0  0  0  0
   10.4923  -17.4929   26.0722 C   0  0  0  0  0  0  0  0  0  0  0  0
    9.2939  -17.8974   25.9952 O   0  0  0  0  0  0  0  0  0  0  0  0
   11.2674  -18.2219   26.9971 O   0  0  0  0  0  0  0  0  0  0  0  0
  2  1  1  6
  3  2  1  0
  3  4  1  0
  4  8  1  0
  5  4  2  0
  6  2  1  0
  6  7  2  0
  9 10  1  0
 10 11  2  0
 11 12  1  0
 13 12  2  0
 13 14  1  0
 15 14  1  1
 15 16  1  0
 15 17  1  0
 16  6  1  0
 17 21  1  0
 18 17  2  0
 19 13  1  0
 20 10  1  0
 20 19  2  0
 21 22  1  0
 22 33  1  0
 22 23  1  1
 24 23  1  0
 24 32  1  0
 25 26  1  0
 25 24  2  0
 26 27  1  0
 27 32  2  0
 27 28  1  0
 28 29  2  0
 29 30  1  0
 31 30  2  0
 32 31  1  0
 33 34  2  0
 33 35  1  0
M  END
$$$$
