DYW.pdb
     RDKit          3D

 35 37  0  0  1  0  0  0  0  0999 V2000
    9.6549  -18.4644   19.4787 N   0  0  0  0  0  0  0  0  0  0  0  0
   11.0060  -18.1298   19.8014 C   0  0  1  0  0  0  0  0  0  0  0  0
   11.8910  -17.9403   18.5882 C   0  0  0  0  0  0  0  0  0  0  0  0
   11.9067  -19.1177   17.6997 C   0  0  0  0  0  0  0  0  0  0  0  0
   11.7225  -20.2778   18.1809 O   0  0  0  0  0  0  0  0  0  0  0  0
   11.0403  -16.9136   20.6784 C   0  0  0  0  0  0  0  0  0  0  0  0
   11.8680  -16.0028   20.4499 O   0  0  0  0  0  0  0  0  0  0  0  0
   12.1231  -18.9505   16.3398 O   0  0  0  0  0  0  0  0  0  0  0  0
    7.0901  -13.0405   17.5367 O   0  0  0  0  0  0  0  0  0  0  0  0
    7.5621  -13.4591   18.7727 C   0  0  0  0  0  0  0  0  0  0  0  0
    8.7567  -13.0382   19.3181 C   0  0  0  0  0  0  0  0  0  0  0  0
    9.1811  -13.4963   20.5713 C   0  0  0  0  0  0  0  0  0  0  0  0
    8.3992  -14.3891   21.2906 C   0  0  0  0  0  0  0  0  0  0  0  0
    8.8302  -14.8719   22.5985 C   0  0  0  0  0  0  0  0  0  0  0  0
   10.1370  -15.5801   22.6254 C   0  0  2  0  0  0  0  0  0  0  0  0
   10.1556  -16.7554   21.7740 N   0  0  0  0  0  0  0  0  0  0  0  0
   10.6291  -15.9554   23.9712 C   0  0  0  0  0  0  0  0  0  0  0  0
   11.7317  -16.5966   24.0925 O   0  0  0  0  0  0  0  0  0  0  0  0
    7.2102  -14.8071   20.7464 C   0  0  0  0  0  0  0  0  0  0  0  0
    6.7767  -14.3562   19.4960 C   0  0  0  0  0  0  0  0  0  0  0  0
    9.9537  -15.6477   25.1803 N   0  0  0  0  0  0  0  0  0  0  0  0
    9.4597  -16.6886   26.0920 C   0  0  1  0  0  0  0  0  0  0  0  0
    7.9876  -16.8569   25.9372 C   0  0  0  0  0  0  0  0  0  0  0  0
    7.2670  -15.5947   26.1684 C   0  0  0  0  0  0  0  0  0  0  0  0
    5.9205  -15.3394   25.9101 C   0  0  0  0  0  0  0  0  0  0  0  0
    5.6515  -14.0668   26.2182 N   0  0  0  0  0  0  0  0  0  0  0  0
    6.7717  -13.4652   26.6737 C   0  0  0  0  0  0  0  0  0  0  0  0
    7.0273  -12.1795   27.1332 C   0  0  0  0  0  0  0  0  0  0  0  0
    8.2662  -11.7784   27.5780 C   0  0  0  0  0  0  0  0  0  0  0  0
    9.2645  -12.7294   27.5470 C   0  0  0  0  0  0  0  0  0  0  0  0
    9.0425  -14.0062   27.0980 C   0  0  0  0  0  0  0  0  0  0  0  0
    7.7761  -14.3861   26.6516 C   0  0  0  0  0  0  0  0  0  0  0  0
   10.2674  -17.8991   26.0952 C   0  0  0  0  0  0  0  0  0  0  0  0
   10.8381  -18.3575   27.1295 O   0  0  0  0  0  0  0  0  0  0  0  0
   10.4918  -18.6804   24.9433 O   0  0  0  0  0  0  0  0  0  0  0  0
  2  1  1  6
  3  2  1  0
  3  4  1  0
  4  8  1  0
  5  4  2  0
  6  2  1  0
  6  7  2  0
  9 10  1  0
 10 11  2  0
 11 12  1  0
 13 12  2  0
 13 14  1  0
 15 14  1  1
 15 16  1  0
 15 17  1  0
 16  6  1  0
 17 21  1  0
 18 17  2  0
 19 13  1  0
 20 10  1  0
 20 19  2  0
 21 22  1  0
 22 33  1  0
 22 23  1  6
 24 23  1  0
 24 32  1  0
 25 26  1  0
 25 24  2  0
 26 27  1  0
 27 32  2  0
 27 28  1  0
 28 29  2  0
 29 30  1  0
 31 30  2  0
 32 31  1  0
 33 34  2  0
 33 35  1  0
M  END
$$$$
