DYW.pdb
     RDKit          3D

 35 37  0  0  1  0  0  0  0  0999 V2000
    8.9611  -19.1111   17.7339 N   0  0  0  0  0  0  0  0  0  0  0  0
    9.7460  -18.1184   18.3971 C   0  0  1  0  0  0  0  0  0  0  0  0
    9.8513  -16.8164   17.6323 C   0  0  0  0  0  0  0  0  0  0  0  0
   10.6857  -16.9284   16.4210 C   0  0  0  0  0  0  0  0  0  0  0  0
   10.6893  -15.9914   15.5646 O   0  0  0  0  0  0  0  0  0  0  0  0
    9.2148  -17.8802   19.7794 C   0  0  0  0  0  0  0  0  0  0  0  0
    8.1891  -17.1814   19.9417 O   0  0  0  0  0  0  0  0  0  0  0  0
   11.4638  -18.0597   16.2236 O   0  0  0  0  0  0  0  0  0  0  0  0
    6.9219  -20.3601   27.9516 O   0  0  0  0  0  0  0  0  0  0  0  0
    7.3564  -20.2268   26.6404 C   0  0  0  0  0  0  0  0  0  0  0  0
    6.5175  -19.9546   25.5803 C   0  0  0  0  0  0  0  0  0  0  0  0
    7.0147  -19.8314   24.2773 C   0  0  0  0  0  0  0  0  0  0  0  0
    8.3719  -19.9827   24.0299 C   0  0  0  0  0  0  0  0  0  0  0  0
    8.9020  -19.8545   22.6764 C   0  0  0  0  0  0  0  0  0  0  0  0
    9.2177  -18.4700   22.2364 C   0  0  2  0  0  0  0  0  0  0  0  0
    9.8418  -18.4263   20.9268 N   0  0  0  0  0  0  0  0  0  0  0  0
   10.0322  -17.6725   23.1824 C   0  0  0  0  0  0  0  0  0  0  0  0
   11.3109  -17.7423   23.1408 O   0  0  0  0  0  0  0  0  0  0  0  0
    9.2059  -20.2534   25.0862 C   0  0  0  0  0  0  0  0  0  0  0  0
    8.7201  -20.3785   26.3913 C   0  0  0  0  0  0  0  0  0  0  0  0
    9.4895  -16.8039   24.1641 N   0  0  0  0  0  0  0  0  0  0  0  0
   10.3332  -16.0677   25.1154 C   0  0  1  0  0  0  0  0  0  0  0  0
    9.8720  -14.6558   25.2317 C   0  0  0  0  0  0  0  0  0  0  0  0
    8.4854  -14.5732   25.7179 C   0  0  0  0  0  0  0  0  0  0  0  0
    7.6260  -15.6389   25.9840 C   0  0  0  0  0  0  0  0  0  0  0  0
    6.4413  -15.1567   26.3720 N   0  0  0  0  0  0  0  0  0  0  0  0
    6.4812  -13.8067   26.3747 C   0  0  0  0  0  0  0  0  0  0  0  0
    5.5410  -12.8394   26.7062 C   0  0  0  0  0  0  0  0  0  0  0  0
    5.8078  -11.4904   26.6543 C   0  0  0  0  0  0  0  0  0  0  0  0
    7.0769  -11.1331   26.2498 C   0  0  0  0  0  0  0  0  0  0  0  0
    8.0259  -12.0653   25.9154 C   0  0  0  0  0  0  0  0  0  0  0  0
    7.7281  -13.4272   25.9763 C   0  0  0  0  0  0  0  0  0  0  0  0
   10.5854  -16.7857   26.3557 C   0  0  0  0  0  0  0  0  0  0  0  0
    9.9181  -17.7967   26.7278 O   0  0  0  0  0  0  0  0  0  0  0  0
   11.6008  -16.4238   27.2644 O   0  0  0  0  0  0  0  0  0  0  0  0
  2  1  1  6
  3  2  1  0
  3  4  1  0
  4  8  1  0
  5  4  2  0
  6  2  1  0
  6  7  2  0
  9 10  1  0
 10 11  2  0
 11 12  1  0
 13 12  2  0
 13 14  1  0
 15 14  1  1
 15 16  1  0
 15 17  1  0
 16  6  1  0
 17 21  1  0
 18 17  2  0
 19 13  1  0
 20 10  1  0
 20 19  2  0
 21 22  1  0
 22 33  1  0
 22 23  1  1
 24 23  1  0
 24 32  1  0
 25 26  1  0
 25 24  2  0
 26 27  1  0
 27 32  2  0
 27 28  1  0
 28 29  2  0
 29 30  1  0
 31 30  2  0
 32 31  1  0
 33 34  2  0
 33 35  1  0
M  END
$$$$
