DYW.pdb
     RDKit          3D

 35 37  0  0  1  0  0  0  0  0999 V2000
   12.6794  -18.3257   18.8410 N   0  0  0  0  0  0  0  0  0  0  0  0
   13.1288  -17.8884   20.1249 C   0  0  1  0  0  0  0  0  0  0  0  0
   13.8309  -16.5478   20.0984 C   0  0  0  0  0  0  0  0  0  0  0  0
   15.0879  -16.5735   19.3268 C   0  0  0  0  0  0  0  0  0  0  0  0
   16.0058  -17.3938   19.6369 O   0  0  0  0  0  0  0  0  0  0  0  0
   11.9830  -17.8683   21.0925 C   0  0  0  0  0  0  0  0  0  0  0  0
   10.8873  -17.3682   20.7516 O   0  0  0  0  0  0  0  0  0  0  0  0
   15.2608  -15.6990   18.2639 O   0  0  0  0  0  0  0  0  0  0  0  0
    8.5993  -22.7671   19.1659 O   0  0  0  0  0  0  0  0  0  0  0  0
    9.0298  -22.0382   20.2655 C   0  0  0  0  0  0  0  0  0  0  0  0
    8.1956  -21.2649   21.0451 C   0  0  0  0  0  0  0  0  0  0  0  0
    8.6885  -20.5505   22.1437 C   0  0  0  0  0  0  0  0  0  0  0  0
   10.0365  -20.6099   22.4682 C   0  0  0  0  0  0  0  0  0  0  0  0
   10.5614  -19.8713   23.6120 C   0  0  0  0  0  0  0  0  0  0  0  0
   10.9904  -18.4749   23.3356 C   0  0  2  0  0  0  0  0  0  0  0  0
   12.0974  -18.4033   22.3996 N   0  0  0  0  0  0  0  0  0  0  0  0
   11.3193  -17.6627   24.5299 C   0  0  0  0  0  0  0  0  0  0  0  0
   12.4977  -17.7106   25.0305 O   0  0  0  0  0  0  0  0  0  0  0  0
   10.8658  -21.3802   21.6913 C   0  0  0  0  0  0  0  0  0  0  0  0
   10.3843  -22.0976   20.5921 C   0  0  0  0  0  0  0  0  0  0  0  0
   10.4009  -16.8026   25.1854 N   0  0  0  0  0  0  0  0  0  0  0  0
   10.7523  -16.0574   26.4019 C   0  0  1  0  0  0  0  0  0  0  0  0
   10.2535  -14.6563   26.3132 C   0  0  0  0  0  0  0  0  0  0  0  0
    8.7833  -14.5980   26.3398 C   0  0  0  0  0  0  0  0  0  0  0  0
    7.9010  -15.6766   26.2837 C   0  0  0  0  0  0  0  0  0  0  0  0
    6.6467  -15.2145   26.2948 N   0  0  0  0  0  0  0  0  0  0  0  0
    6.6623  -13.8654   26.3572 C   0  0  0  0  0  0  0  0  0  0  0  0
    5.6502  -12.9154   26.4088 C   0  0  0  0  0  0  0  0  0  0  0  0
    5.8981  -11.5643   26.4909 C   0  0  0  0  0  0  0  0  0  0  0  0
    7.2243  -11.1866   26.5202 C   0  0  0  0  0  0  0  0  0  0  0  0
    8.2450  -12.1014   26.4698 C   0  0  0  0  0  0  0  0  0  0  0  0
    7.9650  -13.4659   26.3860 C   0  0  0  0  0  0  0  0  0  0  0  0
   10.4781  -16.7807   27.6344 C   0  0  0  0  0  0  0  0  0  0  0  0
    9.7986  -17.8491   27.6831 O   0  0  0  0  0  0  0  0  0  0  0  0
   10.9451  -16.3601   28.8964 O   0  0  0  0  0  0  0  0  0  0  0  0
  2  1  1  6
  3  2  1  0
  3  4  1  0
  4  8  1  0
  5  4  2  0
  6  2  1  0
  6  7  2  0
  9 10  1  0
 10 11  2  0
 11 12  1  0
 13 12  2  0
 13 14  1  0
 15 14  1  1
 15 16  1  0
 15 17  1  0
 16  6  1  0
 17 21  1  0
 18 17  2  0
 19 13  1  0
 20 10  1  0
 20 19  2  0
 21 22  1  0
 22 33  1  0
 22 23  1  1
 24 23  1  0
 24 32  1  0
 25 26  1  0
 25 24  2  0
 26 27  1  0
 27 32  2  0
 27 28  1  0
 28 29  2  0
 29 30  1  0
 31 30  2  0
 32 31  1  0
 33 34  2  0
 33 35  1  0
M  END
$$$$
