EYR.pdb
     RDKit          3D

 33 33  0  0  1  0  0  0  0  0999 V2000
    7.2952  -17.8963   20.9534 N   0  0  0  0  0  0  0  0  0  0  0  0
    8.3771  -17.1324   20.3723 C   0  0  1  0  0  0  0  0  0  0  0  0
    7.8612  -16.3021   19.2427 C   0  0  0  0  0  0  0  0  0  0  0  0
    8.9775  -16.2515   18.1968 C   0  0  0  0  0  0  0  0  0  0  0  0
    8.4820  -16.2776   16.8265 C   0  0  0  0  0  0  0  0  0  0  0  0
    7.2595  -16.3623   16.5990 O   0  0  0  0  0  0  0  0  0  0  0  0
    9.0615  -16.3815   21.4396 C   0  0  0  0  0  0  0  0  0  0  0  0
   10.1559  -15.7572   21.2181 O   0  0  0  0  0  0  0  0  0  0  0  0
    9.3528  -16.2054   15.7372 O   0  0  0  0  0  0  0  0  0  0  0  0
   11.4278  -14.4008   29.7308 O   0  0  0  0  0  0  0  0  0  0  0  0
   10.6734  -14.6500   28.6060 C   0  0  0  0  0  0  0  0  0  0  0  0
   10.4126  -13.6267   27.7343 C   0  0  0  0  0  0  0  0  0  0  0  0
    9.6608  -13.8474   26.6008 C   0  0  0  0  0  0  0  0  0  0  0  0
    9.1337  -15.0710   26.2696 C   0  0  0  0  0  0  0  0  0  0  0  0
    8.3489  -15.3794   25.0614 C   0  0  0  0  0  0  0  0  0  0  0  0
    9.2494  -15.8206   23.9120 C   0  0  2  0  0  0  0  0  0  0  0  0
    8.5553  -16.3072   22.7690 N   0  0  0  0  0  0  0  0  0  0  0  0
   10.3967  -16.6312   24.3674 C   0  0  0  0  0  0  0  0  0  0  0  0
   10.2510  -17.8859   24.5284 O   0  0  0  0  0  0  0  0  0  0  0  0
    9.4109  -16.1020   27.1720 C   0  0  0  0  0  0  0  0  0  0  0  0
   10.1614  -15.8926   28.3087 C   0  0  0  0  0  0  0  0  0  0  0  0
   18.3748  -16.2045   24.8623 N   0  0  0  0  0  0  0  0  0  0  0  0
   18.5976  -16.7951   23.5857 C   0  0  0  0  0  0  0  0  0  0  0  0
   19.8253  -16.8562   23.1515 N   0  0  0  0  0  0  0  0  0  0  0  0
   17.5193  -17.3022   22.8039 N   0  0  0  0  0  0  0  0  0  0  0  0
   16.2959  -16.5685   22.8386 C   0  0  0  0  0  0  0  0  0  0  0  0
   15.2152  -17.0887   23.6941 C   0  0  0  0  0  0  0  0  0  0  0  0
   13.9179  -16.3927   23.7547 C   0  0  0  0  0  0  0  0  0  0  0  0
   12.8709  -16.9610   24.6590 C   0  0  2  0  0  0  0  0  0  0  0  0
   11.6649  -16.1122   24.6445 N   0  0  0  0  0  0  0  0  0  0  0  0
   13.2997  -17.2129   26.0459 C   0  0  0  0  0  0  0  0  0  0  0  0
   12.8416  -16.4340   27.0868 O   0  0  0  0  0  0  0  0  0  0  0  0
   14.0967  -18.1465   26.3120 O   0  0  0  0  0  0  0  0  0  0  0  0
  2  3  1  0
  2  1  1  1
  4  3  1  0
  5  4  1  0
  5  6  2  0
  7  8  2  0
  7  2  1  0
  9  5  1  0
 10 11  1  0
 11 12  2  0
 12 13  1  0
 14 15  1  0
 14 13  2  0
 16 15  1  1
 16 17  1  0
 17  7  1  0
 18 16  1  0
 19 18  2  0
 20 14  1  0
 21 20  2  0
 21 11  1  0
 23 22  1  0
 24 23  2  0
 25 23  1  0
 26 27  1  0
 26 25  1  0
 27 28  1  0
 29 28  1  6
 29 31  1  0
 29 30  1  0
 30 18  1  0
 31 32  1  0
 33 31  2  0
M  END
$$$$
