EYR.pdb
     RDKit          3D

 33 33  0  0  1  0  0  0  0  0999 V2000
    6.3082  -16.3655   20.2083 N   0  0  0  0  0  0  0  0  0  0  0  0
    7.5514  -15.6377   20.0801 C   0  0  1  0  0  0  0  0  0  0  0  0
    7.3165  -14.3598   19.3430 C   0  0  0  0  0  0  0  0  0  0  0  0
    8.6744  -13.9237   18.7878 C   0  0  0  0  0  0  0  0  0  0  0  0
    8.7052  -13.8582   17.3321 C   0  0  0  0  0  0  0  0  0  0  0  0
    9.7863  -13.7098   16.7298 O   0  0  0  0  0  0  0  0  0  0  0  0
    8.1597  -15.4885   21.4139 C   0  0  0  0  0  0  0  0  0  0  0  0
    9.3631  -15.0780   21.5549 O   0  0  0  0  0  0  0  0  0  0  0  0
    7.5365  -13.9625   16.5750 O   0  0  0  0  0  0  0  0  0  0  0  0
    6.1586  -10.0805   26.3466 O   0  0  0  0  0  0  0  0  0  0  0  0
    6.3344  -11.4085   26.0275 C   0  0  0  0  0  0  0  0  0  0  0  0
    7.4533  -11.7886   25.3356 C   0  0  0  0  0  0  0  0  0  0  0  0
    7.6551  -13.1105   25.0032 C   0  0  0  0  0  0  0  0  0  0  0  0
    6.7782  -14.1148   25.3304 C   0  0  0  0  0  0  0  0  0  0  0  0
    6.9490  -15.5474   25.0317 C   0  0  0  0  0  0  0  0  0  0  0  0
    7.9862  -15.7661   23.9348 C   0  0  2  0  0  0  0  0  0  0  0  0
    7.4557  -15.7912   22.6147 N   0  0  0  0  0  0  0  0  0  0  0  0
    8.9484  -16.8360   24.2672 C   0  0  0  0  0  0  0  0  0  0  0  0
    8.6225  -18.0518   24.0750 O   0  0  0  0  0  0  0  0  0  0  0  0
    5.6427  -13.7064   26.0361 C   0  0  0  0  0  0  0  0  0  0  0  0
    5.4305  -12.3872   26.3736 C   0  0  0  0  0  0  0  0  0  0  0  0
   17.4598  -17.9922   23.0313 N   0  0  0  0  0  0  0  0  0  0  0  0
   17.0737  -19.2237   23.6335 C   0  0  0  0  0  0  0  0  0  0  0  0
   17.9217  -20.2128   23.5894 N   0  0  0  0  0  0  0  0  0  0  0  0
   15.8041  -19.3765   24.2628 N   0  0  0  0  0  0  0  0  0  0  0  0
   14.8437  -18.3455   24.0376 C   0  0  0  0  0  0  0  0  0  0  0  0
   13.5340  -18.4801   24.6989 C   0  0  0  0  0  0  0  0  0  0  0  0
   12.4712  -17.4914   24.4462 C   0  0  0  0  0  0  0  0  0  0  0  0
   11.1477  -17.7165   25.1056 C   0  0  2  0  0  0  0  0  0  0  0  0
   10.2240  -16.6102   24.7927 N   0  0  0  0  0  0  0  0  0  0  0  0
   11.1947  -17.9448   26.5604 C   0  0  0  0  0  0  0  0  0  0  0  0
   10.6328  -17.0464   27.4419 O   0  0  0  0  0  0  0  0  0  0  0  0
   11.7514  -18.9671   27.0323 O   0  0  0  0  0  0  0  0  0  0  0  0
  2  3  1  0
  2  1  1  1
  4  3  1  0
  5  4  1  0
  5  6  2  0
  7  8  2  0
  7  2  1  0
  9  5  1  0
 10 11  1  0
 11 12  2  0
 12 13  1  0
 14 15  1  0
 14 13  2  0
 16 15  1  1
 16 17  1  0
 17  7  1  0
 18 16  1  0
 19 18  2  0
 20 14  1  0
 21 20  2  0
 21 11  1  0
 23 22  1  0
 24 23  2  0
 25 23  1  0
 26 27  1  0
 26 25  1  0
 27 28  1  0
 29 28  1  1
 29 31  1  0
 29 30  1  0
 30 18  1  0
 31 32  1  0
 33 31  2  0
M  END
$$$$
