EYR.pdb
     RDKit          3D

 33 33  0  0  1  0  0  0  0  0999 V2000
    7.4543  -16.7485   18.1642 N   0  0  0  0  0  0  0  0  0  0  0  0
    8.8698  -16.6346   18.4380 C   0  0  1  0  0  0  0  0  0  0  0  0
    9.5598  -15.9923   17.2792 C   0  0  0  0  0  0  0  0  0  0  0  0
    8.6367  -16.1713   16.0716 C   0  0  0  0  0  0  0  0  0  0  0  0
    9.1318  -15.5147   14.8682 C   0  0  0  0  0  0  0  0  0  0  0  0
   10.3029  -15.0910   14.8168 O   0  0  0  0  0  0  0  0  0  0  0  0
    9.0549  -15.9547   19.7322 C   0  0  0  0  0  0  0  0  0  0  0  0
   10.2152  -15.8199   20.2537 O   0  0  0  0  0  0  0  0  0  0  0  0
    8.3186  -15.3452   13.7458 O   0  0  0  0  0  0  0  0  0  0  0  0
    7.4807  -11.9929   27.4523 O   0  0  0  0  0  0  0  0  0  0  0  0
    7.3245  -12.4663   26.1687 C   0  0  0  0  0  0  0  0  0  0  0  0
    7.9542  -11.8234   25.1366 C   0  0  0  0  0  0  0  0  0  0  0  0
    7.8158  -12.2754   23.8423 C   0  0  0  0  0  0  0  0  0  0  0  0
    7.0608  -13.3698   23.5001 C   0  0  0  0  0  0  0  0  0  0  0  0
    6.8962  -13.9208   22.1436 C   0  0  0  0  0  0  0  0  0  0  0  0
    8.0240  -14.8873   21.7963 C   0  0  2  0  0  0  0  0  0  0  0  0
    7.9666  -15.4143   20.4757 N   0  0  0  0  0  0  0  0  0  0  0  0
    8.2883  -15.8631   22.8727 C   0  0  0  0  0  0  0  0  0  0  0  0
    7.5583  -16.9021   22.9678 O   0  0  0  0  0  0  0  0  0  0  0  0
    6.4262  -14.0117   24.5676 C   0  0  0  0  0  0  0  0  0  0  0  0
    6.5574  -13.5684   25.8658 C   0  0  0  0  0  0  0  0  0  0  0  0
   15.1586  -20.5081   22.9308 N   0  0  0  0  0  0  0  0  0  0  0  0
   14.4000  -21.0980   23.9818 C   0  0  0  0  0  0  0  0  0  0  0  0
   14.6460  -22.3424   24.2828 N   0  0  0  0  0  0  0  0  0  0  0  0
   13.4032  -20.3593   24.6831 N   0  0  0  0  0  0  0  0  0  0  0  0
   12.8746  -19.2064   24.0292 C   0  0  0  0  0  0  0  0  0  0  0  0
   11.7588  -18.5038   24.6863 C   0  0  0  0  0  0  0  0  0  0  0  0
   11.0986  -17.3705   24.0149 C   0  0  0  0  0  0  0  0  0  0  0  0
    9.8102  -16.8797   24.5948 C   0  0  2  0  0  0  0  0  0  0  0  0
    9.3054  -15.7292   23.8225 N   0  0  0  0  0  0  0  0  0  0  0  0
    9.8450  -16.5531   26.0311 C   0  0  0  0  0  0  0  0  0  0  0  0
    9.7352  -15.2508   26.4693 O   0  0  0  0  0  0  0  0  0  0  0  0
    9.9772  -17.4578   26.8923 O   0  0  0  0  0  0  0  0  0  0  0  0
  2  3  1  0
  2  1  1  6
  4  3  1  0
  5  4  1  0
  5  6  2  0
  7  8  2  0
  7  2  1  0
  9  5  1  0
 10 11  1  0
 11 12  2  0
 12 13  1  0
 14 15  1  0
 14 13  2  0
 16 15  1  1
 16 17  1  0
 17  7  1  0
 18 16  1  0
 19 18  2  0
 20 14  1  0
 21 20  2  0
 21 11  1  0
 23 22  1  0
 24 23  2  0
 25 23  1  0
 26 27  1  0
 26 25  1  0
 27 28  1  0
 29 28  1  6
 29 31  1  0
 29 30  1  0
 30 18  1  0
 31 32  1  0
 33 31  2  0
M  END
$$$$
