EYR.pdb
     RDKit          3D

 33 33  0  0  1  0  0  0  0  0999 V2000
   10.8100  -16.5615   18.0632 N   0  0  0  0  0  0  0  0  0  0  0  0
   10.4576  -17.3247   19.2401 C   0  0  1  0  0  0  0  0  0  0  0  0
   11.5564  -18.2810   19.5714 C   0  0  0  0  0  0  0  0  0  0  0  0
   11.8039  -19.1110   18.3096 C   0  0  0  0  0  0  0  0  0  0  0  0
   13.1726  -19.0142   17.8181 C   0  0  0  0  0  0  0  0  0  0  0  0
   14.0477  -18.4418   18.4963 O   0  0  0  0  0  0  0  0  0  0  0  0
   10.0892  -16.3950   20.3223 C   0  0  0  0  0  0  0  0  0  0  0  0
   10.8377  -15.4054   20.6339 O   0  0  0  0  0  0  0  0  0  0  0  0
   13.5426  -19.5578   16.5862 O   0  0  0  0  0  0  0  0  0  0  0  0
    7.9349  -11.9902   17.1417 O   0  0  0  0  0  0  0  0  0  0  0  0
    7.7931  -12.6660   18.3331 C   0  0  0  0  0  0  0  0  0  0  0  0
    7.2434  -13.9201   18.3304 C   0  0  0  0  0  0  0  0  0  0  0  0
    7.0897  -14.6194   19.5077 C   0  0  0  0  0  0  0  0  0  0  0  0
    7.4646  -14.1278   20.7335 C   0  0  0  0  0  0  0  0  0  0  0  0
    7.3552  -14.8340   22.0220 C   0  0  0  0  0  0  0  0  0  0  0  0
    8.5264  -15.7883   22.2333 C   0  0  2  0  0  0  0  0  0  0  0  0
    8.8930  -16.5400   21.0820 N   0  0  0  0  0  0  0  0  0  0  0  0
    8.4212  -16.5465   23.4962 C   0  0  0  0  0  0  0  0  0  0  0  0
    7.5408  -17.4599   23.6055 O   0  0  0  0  0  0  0  0  0  0  0  0
    8.0232  -12.8465   20.7149 C   0  0  0  0  0  0  0  0  0  0  0  0
    8.1815  -12.1380   19.5435 C   0  0  0  0  0  0  0  0  0  0  0  0
   14.9263  -18.7445   24.7530 N   0  0  0  0  0  0  0  0  0  0  0  0
   14.7210  -19.5041   23.5659 C   0  0  0  0  0  0  0  0  0  0  0  0
   15.7382  -20.1603   23.0822 N   0  0  0  0  0  0  0  0  0  0  0  0
   13.4498  -19.5477   22.9230 N   0  0  0  0  0  0  0  0  0  0  0  0
   12.3667  -20.0989   23.6708 C   0  0  0  0  0  0  0  0  0  0  0  0
   11.7044  -19.2239   24.6538 C   0  0  0  0  0  0  0  0  0  0  0  0
   10.8425  -18.1185   24.1997 C   0  0  0  0  0  0  0  0  0  0  0  0
   10.0162  -17.4185   25.2314 C   0  0  2  0  0  0  0  0  0  0  0  0
    9.2354  -16.3314   24.6121 N   0  0  0  0  0  0  0  0  0  0  0  0
   10.7567  -16.9118   26.4000 C   0  0  0  0  0  0  0  0  0  0  0  0
   10.9281  -17.6869   27.5268 O   0  0  0  0  0  0  0  0  0  0  0  0
   11.2497  -15.7565   26.3962 O   0  0  0  0  0  0  0  0  0  0  0  0
  2  3  1  0
  2  1  1  6
  4  3  1  0
  5  4  1  0
  5  6  2  0
  7  8  2  0
  7  2  1  0
  9  5  1  0
 10 11  1  0
 11 12  2  0
 12 13  1  0
 14 15  1  0
 14 13  2  0
 16 15  1  6
 16 17  1  0
 17  7  1  0
 18 16  1  0
 19 18  2  0
 20 14  1  0
 21 20  2  0
 21 11  1  0
 23 22  1  0
 24 23  2  0
 25 23  1  0
 26 27  1  0
 26 25  1  0
 27 28  1  0
 29 28  1  6
 29 31  1  0
 29 30  1  0
 30 18  1  0
 31 32  1  0
 33 31  2  0
M  END
$$$$
