EYR.pdb
     RDKit          3D

 33 33  0  0  1  0  0  0  0  0999 V2000
   10.0092  -15.6492   15.9275 N   0  0  0  0  0  0  0  0  0  0  0  0
    9.3204  -16.4803   16.8900 C   0  0  1  0  0  0  0  0  0  0  0  0
    9.8559  -17.8736   16.8313 C   0  0  0  0  0  0  0  0  0  0  0  0
    9.0813  -18.6802   17.8762 C   0  0  0  0  0  0  0  0  0  0  0  0
    9.4815  -20.0805   17.9329 C   0  0  0  0  0  0  0  0  0  0  0  0
    9.5288  -20.7659   16.8930 O   0  0  0  0  0  0  0  0  0  0  0  0
    9.3895  -15.8384   18.2146 C   0  0  0  0  0  0  0  0  0  0  0  0
   10.5071  -15.4808   18.7240 O   0  0  0  0  0  0  0  0  0  0  0  0
    9.8244  -20.6900   19.1416 O   0  0  0  0  0  0  0  0  0  0  0  0
    6.9325  -12.3230   25.9879 O   0  0  0  0  0  0  0  0  0  0  0  0
    6.9213  -12.8316   24.7083 C   0  0  0  0  0  0  0  0  0  0  0  0
    6.6477  -14.1597   24.5180 C   0  0  0  0  0  0  0  0  0  0  0  0
    6.6295  -14.6955   23.2486 C   0  0  0  0  0  0  0  0  0  0  0  0
    6.8757  -13.9619   22.1146 C   0  0  0  0  0  0  0  0  0  0  0  0
    6.8425  -14.4661   20.7306 C   0  0  0  0  0  0  0  0  0  0  0  0
    8.2035  -15.0068   20.3038 C   0  0  2  0  0  0  0  0  0  0  0  0
    8.2306  -15.5818   19.0024 N   0  0  0  0  0  0  0  0  0  0  0  0
    8.8661  -15.7845   21.3700 C   0  0  0  0  0  0  0  0  0  0  0  0
    8.5828  -17.0177   21.5125 O   0  0  0  0  0  0  0  0  0  0  0  0
    7.1530  -12.6088   22.3302 C   0  0  0  0  0  0  0  0  0  0  0  0
    7.1740  -12.0624   23.5952 C   0  0  0  0  0  0  0  0  0  0  0  0
   16.3177  -13.7429   20.9865 N   0  0  0  0  0  0  0  0  0  0  0  0
   15.7465  -14.5875   19.9922 C   0  0  0  0  0  0  0  0  0  0  0  0
   16.3659  -14.6834   18.8491 N   0  0  0  0  0  0  0  0  0  0  0  0
   14.5384  -15.3044   20.2317 N   0  0  0  0  0  0  0  0  0  0  0  0
   13.9696  -15.1936   21.5357 C   0  0  0  0  0  0  0  0  0  0  0  0
   12.6724  -15.8516   21.7698 C   0  0  0  0  0  0  0  0  0  0  0  0
   12.0348  -15.7818   23.0964 C   0  0  0  0  0  0  0  0  0  0  0  0
   10.5781  -16.1108   23.1805 C   0  0  2  0  0  0  0  0  0  0  0  0
    9.8052  -15.2557   22.2604 N   0  0  0  0  0  0  0  0  0  0  0  0
    9.9942  -16.0624   24.5323 C   0  0  0  0  0  0  0  0  0  0  0  0
   10.3795  -16.9563   25.5082 O   0  0  0  0  0  0  0  0  0  0  0  0
    9.1274  -15.2024   24.8269 O   0  0  0  0  0  0  0  0  0  0  0  0
  2  3  1  0
  2  1  1  6
  4  3  1  0
  5  4  1  0
  5  6  2  0
  7  8  2  0
  7  2  1  0
  9  5  1  0
 10 11  1  0
 11 12  2  0
 12 13  1  0
 14 15  1  0
 14 13  2  0
 16 15  1  1
 16 17  1  0
 17  7  1  0
 18 16  1  0
 19 18  2  0
 20 14  1  0
 21 20  2  0
 21 11  1  0
 23 22  1  0
 24 23  2  0
 25 23  1  0
 26 27  1  0
 26 25  1  0
 27 28  1  0
 29 28  1  1
 29 31  1  0
 29 30  1  0
 30 18  1  0
 31 32  1  0
 33 31  2  0
M  END
$$$$
