EYR.pdb
     RDKit          3D

 33 33  0  0  1  0  0  0  0  0999 V2000
    9.6999  -17.9407   19.5893 N   0  0  0  0  0  0  0  0  0  0  0  0
   11.0178  -17.4369   19.9070 C   0  0  1  0  0  0  0  0  0  0  0  0
   11.6114  -16.7778   18.7050 C   0  0  0  0  0  0  0  0  0  0  0  0
   11.7143  -17.8574   17.6250 C   0  0  0  0  0  0  0  0  0  0  0  0
   12.3246  -17.3789   16.3911 C   0  0  0  0  0  0  0  0  0  0  0  0
   11.7357  -17.5159   15.3012 O   0  0  0  0  0  0  0  0  0  0  0  0
   10.9301  -16.5871   21.1076 C   0  0  0  0  0  0  0  0  0  0  0  0
   11.9728  -16.0589   21.6274 O   0  0  0  0  0  0  0  0  0  0  0  0
   13.5739  -16.7549   16.3926 O   0  0  0  0  0  0  0  0  0  0  0  0
    7.0726  -12.8254   17.6577 O   0  0  0  0  0  0  0  0  0  0  0  0
    7.3542  -13.2579   18.9344 C   0  0  0  0  0  0  0  0  0  0  0  0
    6.7371  -14.3834   19.4116 C   0  0  0  0  0  0  0  0  0  0  0  0
    7.0002  -14.8391   20.6850 C   0  0  0  0  0  0  0  0  0  0  0  0
    7.8735  -14.2197   21.5444 C   0  0  0  0  0  0  0  0  0  0  0  0
    8.2205  -14.6711   22.9034 C   0  0  0  0  0  0  0  0  0  0  0  0
    9.5105  -15.4850   22.9056 C   0  0  2  0  0  0  0  0  0  0  0  0
    9.6943  -16.3066   21.7584 N   0  0  0  0  0  0  0  0  0  0  0  0
    9.7775  -16.1238   24.2100 C   0  0  0  0  0  0  0  0  0  0  0  0
    9.6001  -15.4575   25.2805 O   0  0  0  0  0  0  0  0  0  0  0  0
    8.4927  -13.0730   21.0388 C   0  0  0  0  0  0  0  0  0  0  0  0
    8.2369  -12.6080   19.7669 C   0  0  0  0  0  0  0  0  0  0  0  0
    8.0459  -21.6440   29.0942 N   0  0  0  0  0  0  0  0  0  0  0  0
    9.2990  -22.3053   29.2379 C   0  0  0  0  0  0  0  0  0  0  0  0
    9.5799  -22.8271   30.3990 N   0  0  0  0  0  0  0  0  0  0  0  0
   10.2197  -22.3954   28.1537 N   0  0  0  0  0  0  0  0  0  0  0  0
    9.8931  -21.6723   26.9677 C   0  0  0  0  0  0  0  0  0  0  0  0
   10.2080  -20.2333   26.9402 C   0  0  0  0  0  0  0  0  0  0  0  0
    9.9310  -19.4371   25.7318 C   0  0  0  0  0  0  0  0  0  0  0  0
   10.4547  -18.0366   25.6926 C   0  0  2  0  0  0  0  0  0  0  0  0
   10.2238  -17.4397   24.3639 N   0  0  0  0  0  0  0  0  0  0  0  0
   11.8657  -17.8760   26.0848 C   0  0  0  0  0  0  0  0  0  0  0  0
   12.2592  -18.0009   27.3999 O   0  0  0  0  0  0  0  0  0  0  0  0
   12.7457  -17.6194   25.2260 O   0  0  0  0  0  0  0  0  0  0  0  0
  2  3  1  0
  2  1  1  6
  4  3  1  0
  5  4  1  0
  5  6  2  0
  7  8  2  0
  7  2  1  0
  9  5  1  0
 10 11  1  0
 11 12  2  0
 12 13  1  0
 14 15  1  0
 14 13  2  0
 16 15  1  1
 16 17  1  0
 17  7  1  0
 18 16  1  0
 19 18  2  0
 20 14  1  0
 21 20  2  0
 21 11  1  0
 23 22  1  0
 24 23  2  0
 25 23  1  0
 26 27  1  0
 26 25  1  0
 27 28  1  0
 29 28  1  6
 29 31  1  0
 29 30  1  0
 30 18  1  0
 31 32  1  0
 33 31  2  0
M  END
$$$$
