EYR.pdb
     RDKit          3D

 33 33  0  0  1  0  0  0  0  0999 V2000
    6.9805  -17.6315   18.9787 N   0  0  0  0  0  0  0  0  0  0  0  0
    8.1066  -16.7805   18.6635 C   0  0  1  0  0  0  0  0  0  0  0  0
    7.8120  -15.9854   17.4336 C   0  0  0  0  0  0  0  0  0  0  0  0
    9.1011  -15.9694   16.6088 C   0  0  0  0  0  0  0  0  0  0  0  0
    8.8801  -15.6487   15.2043 C   0  0  0  0  0  0  0  0  0  0  0  0
    7.7224  -15.5762   14.7481 O   0  0  0  0  0  0  0  0  0  0  0  0
    8.4553  -15.9856   19.8542 C   0  0  0  0  0  0  0  0  0  0  0  0
    9.6478  -15.5653   20.0486 O   0  0  0  0  0  0  0  0  0  0  0  0
    9.9478  -15.4116   14.3361 O   0  0  0  0  0  0  0  0  0  0  0  0
    7.6993  -12.6074   28.0032 O   0  0  0  0  0  0  0  0  0  0  0  0
    7.4270  -12.9936   26.7098 C   0  0  0  0  0  0  0  0  0  0  0  0
    7.8343  -12.1970   25.6732 C   0  0  0  0  0  0  0  0  0  0  0  0
    7.5756  -12.5589   24.3691 C   0  0  0  0  0  0  0  0  0  0  0  0
    6.9117  -13.7091   24.0210 C   0  0  0  0  0  0  0  0  0  0  0  0
    6.6302  -14.1673   22.6493 C   0  0  0  0  0  0  0  0  0  0  0  0
    7.7695  -15.0234   22.1051 C   0  0  2  0  0  0  0  0  0  0  0  0
    7.4989  -15.6423   20.8526 N   0  0  0  0  0  0  0  0  0  0  0  0
    8.3746  -15.8879   23.1381 C   0  0  0  0  0  0  0  0  0  0  0  0
    7.7748  -16.9543   23.4908 O   0  0  0  0  0  0  0  0  0  0  0  0
    6.5043  -14.5082   25.0932 C   0  0  0  0  0  0  0  0  0  0  0  0
    6.7574  -14.1560   26.4013 C   0  0  0  0  0  0  0  0  0  0  0  0
   15.7105  -16.8207   22.0079 N   0  0  0  0  0  0  0  0  0  0  0  0
   15.7904  -16.1741   23.2743 C   0  0  0  0  0  0  0  0  0  0  0  0
   16.7368  -15.2946   23.4477 N   0  0  0  0  0  0  0  0  0  0  0  0
   14.8713  -16.4752   24.3210 N   0  0  0  0  0  0  0  0  0  0  0  0
   14.1157  -17.6786   24.1903 C   0  0  0  0  0  0  0  0  0  0  0  0
   12.7010  -17.6411   24.5999 C   0  0  0  0  0  0  0  0  0  0  0  0
   11.7788  -16.6663   23.9911 C   0  0  0  0  0  0  0  0  0  0  0  0
   10.3606  -16.6678   24.4660 C   0  0  2  0  0  0  0  0  0  0  0  0
    9.5881  -15.6170   23.7773 N   0  0  0  0  0  0  0  0  0  0  0  0
   10.1799  -16.5595   25.9242 C   0  0  0  0  0  0  0  0  0  0  0  0
   10.1662  -15.3326   26.5522 O   0  0  0  0  0  0  0  0  0  0  0  0
   10.0350  -17.5875   26.6313 O   0  0  0  0  0  0  0  0  0  0  0  0
  2  3  1  0
  2  1  1  1
  4  3  1  0
  5  4  1  0
  5  6  2  0
  7  8  2  0
  7  2  1  0
  9  5  1  0
 10 11  1  0
 11 12  2  0
 12 13  1  0
 14 15  1  0
 14 13  2  0
 16 15  1  1
 16 17  1  0
 17  7  1  0
 18 16  1  0
 19 18  2  0
 20 14  1  0
 21 20  2  0
 21 11  1  0
 23 22  1  0
 24 23  2  0
 25 23  1  0
 26 27  1  0
 26 25  1  0
 27 28  1  0
 29 28  1  1
 29 31  1  0
 29 30  1  0
 30 18  1  0
 31 32  1  0
 33 31  2  0
M  END
$$$$
