EYR.pdb
     RDKit          3D

 33 33  0  0  1  0  0  0  0  0999 V2000
    9.5423  -18.1764   19.1262 N   0  0  0  0  0  0  0  0  0  0  0  0
   10.7185  -17.3775   19.3907 C   0  0  1  0  0  0  0  0  0  0  0  0
   11.1264  -16.6507   18.1509 C   0  0  0  0  0  0  0  0  0  0  0  0
   10.9930  -17.6496   16.9990 C   0  0  0  0  0  0  0  0  0  0  0  0
   11.4328  -17.1110   15.7182 C   0  0  0  0  0  0  0  0  0  0  0  0
   12.5881  -17.3297   15.3048 O   0  0  0  0  0  0  0  0  0  0  0  0
   10.4637  -16.5217   20.5628 C   0  0  0  0  0  0  0  0  0  0  0  0
   11.3881  -15.8005   21.0745 O   0  0  0  0  0  0  0  0  0  0  0  0
   10.5804  -16.3442   14.9210 O   0  0  0  0  0  0  0  0  0  0  0  0
    7.5729  -12.3181   16.9980 O   0  0  0  0  0  0  0  0  0  0  0  0
    7.5867  -12.9240   18.2345 C   0  0  0  0  0  0  0  0  0  0  0  0
    8.1479  -12.2661   19.2963 C   0  0  0  0  0  0  0  0  0  0  0  0
    8.1754  -12.8483   20.5449 C   0  0  0  0  0  0  0  0  0  0  0  0
    7.6583  -14.0919   20.8110 C   0  0  0  0  0  0  0  0  0  0  0  0
    7.6292  -14.7566   22.1256 C   0  0  0  0  0  0  0  0  0  0  0  0
    8.8495  -15.6504   22.3229 C   0  0  2  0  0  0  0  0  0  0  0  0
    9.1887  -16.4472   21.1937 N   0  0  0  0  0  0  0  0  0  0  0  0
    8.8415  -16.3437   23.6267 C   0  0  0  0  0  0  0  0  0  0  0  0
    7.8297  -17.0426   23.9570 O   0  0  0  0  0  0  0  0  0  0  0  0
    7.0903  -14.7468   19.7143 C   0  0  0  0  0  0  0  0  0  0  0  0
    7.0575  -14.1742   18.4611 C   0  0  0  0  0  0  0  0  0  0  0  0
   13.9305  -23.1265   23.4650 N   0  0  0  0  0  0  0  0  0  0  0  0
   13.7783  -21.7162   23.3386 C   0  0  0  0  0  0  0  0  0  0  0  0
   14.7448  -20.9599   23.7783 N   0  0  0  0  0  0  0  0  0  0  0  0
   12.6108  -21.1448   22.7540 N   0  0  0  0  0  0  0  0  0  0  0  0
   11.5056  -20.9032   23.6236 C   0  0  0  0  0  0  0  0  0  0  0  0
   11.5601  -19.7019   24.4748 C   0  0  0  0  0  0  0  0  0  0  0  0
   10.8595  -18.4717   24.0662 C   0  0  0  0  0  0  0  0  0  0  0  0
   10.4748  -17.5065   25.1419 C   0  0  2  0  0  0  0  0  0  0  0  0
    9.8877  -16.2887   24.5524 N   0  0  0  0  0  0  0  0  0  0  0  0
   11.5476  -17.1488   26.0863 C   0  0  0  0  0  0  0  0  0  0  0  0
   12.0289  -15.8595   26.1642 O   0  0  0  0  0  0  0  0  0  0  0  0
   12.0508  -18.0148   26.8443 O   0  0  0  0  0  0  0  0  0  0  0  0
  2  3  1  0
  2  1  1  6
  4  3  1  0
  5  4  1  0
  5  6  2  0
  7  8  2  0
  7  2  1  0
  9  5  1  0
 10 11  1  0
 11 12  2  0
 12 13  1  0
 14 15  1  0
 14 13  2  0
 16 15  1  6
 16 17  1  0
 17  7  1  0
 18 16  1  0
 19 18  2  0
 20 14  1  0
 21 20  2  0
 21 11  1  0
 23 22  1  0
 24 23  2  0
 25 23  1  0
 26 27  1  0
 26 25  1  0
 27 28  1  0
 29 28  1  6
 29 31  1  0
 29 30  1  0
 30 18  1  0
 31 32  1  0
 33 31  2  0
M  END
$$$$
