EYR.pdb
     RDKit          3D

 33 33  0  0  1  0  0  0  0  0999 V2000
   11.6280  -16.6065   16.8845 N   0  0  0  0  0  0  0  0  0  0  0  0
   11.1569  -17.5385   17.8849 C   0  0  1  0  0  0  0  0  0  0  0  0
   12.1098  -18.6833   17.9994 C   0  0  0  0  0  0  0  0  0  0  0  0
   13.4725  -18.0799   18.3478 C   0  0  0  0  0  0  0  0  0  0  0  0
   14.5217  -19.0802   18.4985 C   0  0  0  0  0  0  0  0  0  0  0  0
   15.1915  -19.1391   19.5480 O   0  0  0  0  0  0  0  0  0  0  0  0
   10.9023  -16.8081   19.1392 C   0  0  0  0  0  0  0  0  0  0  0  0
   11.6985  -15.8959   19.5520 O   0  0  0  0  0  0  0  0  0  0  0  0
   14.8033  -19.9966   17.4832 O   0  0  0  0  0  0  0  0  0  0  0  0
    7.3124  -11.9113   17.1195 O   0  0  0  0  0  0  0  0  0  0  0  0
    7.4723  -12.8523   18.1121 C   0  0  0  0  0  0  0  0  0  0  0  0
    7.2017  -14.1666   17.8388 C   0  0  0  0  0  0  0  0  0  0  0  0
    7.3532  -15.1294   18.8128 C   0  0  0  0  0  0  0  0  0  0  0  0
    7.7740  -14.8533   20.0900 C   0  0  0  0  0  0  0  0  0  0  0  0
    7.9845  -15.8373   21.1662 C   0  0  0  0  0  0  0  0  0  0  0  0
    9.4104  -16.3790   21.1523 C   0  0  2  0  0  0  0  0  0  0  0  0
    9.7694  -17.0709   19.9618 N   0  0  0  0  0  0  0  0  0  0  0  0
    9.7811  -17.0369   22.4213 C   0  0  0  0  0  0  0  0  0  0  0  0
    9.4990  -18.2665   22.5938 O   0  0  0  0  0  0  0  0  0  0  0  0
    8.0447  -13.5064   20.3488 C   0  0  0  0  0  0  0  0  0  0  0  0
    7.8965  -12.5351   19.3825 C   0  0  0  0  0  0  0  0  0  0  0  0
   10.1474  -13.6858   30.6719 N   0  0  0  0  0  0  0  0  0  0  0  0
   10.8840  -14.9031   30.7316 C   0  0  0  0  0  0  0  0  0  0  0  0
   11.6497  -15.0986   31.7685 N   0  0  0  0  0  0  0  0  0  0  0  0
   10.7932  -15.8775   29.6956 N   0  0  0  0  0  0  0  0  0  0  0  0
   10.8360  -15.3976   28.3525 C   0  0  0  0  0  0  0  0  0  0  0  0
   10.6977  -16.3890   27.2715 C   0  0  0  0  0  0  0  0  0  0  0  0
   10.6139  -15.9482   25.8680 C   0  0  0  0  0  0  0  0  0  0  0  0
   10.5481  -17.0077   24.8143 C   0  0  2  0  0  0  0  0  0  0  0  0
   10.4347  -16.3951   23.4775 N   0  0  0  0  0  0  0  0  0  0  0  0
    9.4964  -18.0226   25.0003 C   0  0  0  0  0  0  0  0  0  0  0  0
    9.8108  -19.3236   25.3300 O   0  0  0  0  0  0  0  0  0  0  0  0
    8.2843  -17.7242   24.8608 O   0  0  0  0  0  0  0  0  0  0  0  0
  2  3  1  0
  2  1  1  6
  4  3  1  0
  5  4  1  0
  5  6  2  0
  7  8  2  0
  7  2  1  0
  9  5  1  0
 10 11  1  0
 11 12  2  0
 12 13  1  0
 14 15  1  0
 14 13  2  0
 16 15  1  1
 16 17  1  0
 17  7  1  0
 18 16  1  0
 19 18  2  0
 20 14  1  0
 21 20  2  0
 21 11  1  0
 23 22  1  0
 24 23  2  0
 25 23  1  0
 26 27  1  0
 26 25  1  0
 27 28  1  0
 29 28  1  1
 29 31  1  0
 29 30  1  0
 30 18  1  0
 31 32  1  0
 33 31  2  0
M  END
$$$$
