RGV.pdb
     RDKit          3D

 23 22  0  0  1  0  0  0  0  0999 V2000
    7.9534  -12.9309   15.7113 N   0  0  0  0  0  0  0  0  0  0  0  0
    7.8977  -14.2242   16.3205 C   0  0  0  0  0  0  0  0  0  0  0  0
    7.1911  -15.1173   15.7381 N   0  0  0  0  0  0  0  0  0  0  0  0
    8.6206  -14.4497   17.5272 N   0  0  0  0  0  0  0  0  0  0  0  0
    8.4011  -13.5680   18.6176 C   0  0  0  0  0  0  0  0  0  0  0  0
    7.0963  -13.5747   19.3034 C   0  0  0  0  0  0  0  0  0  0  0  0
    6.9373  -14.3116   20.5666 C   0  0  0  0  0  0  0  0  0  0  0  0
    8.0521  -15.1456   21.0762 C   0  0  2  0  0  0  0  0  0  0  0  0
    7.9245  -16.5413   20.7485 N   0  0  0  0  0  0  0  0  0  0  0  0
    8.0817  -15.0250   22.5866 C   0  0  0  0  0  0  0  0  0  0  0  0
    8.3728  -13.9217   23.1269 O   0  0  0  0  0  0  0  0  0  0  0  0
    7.1520  -16.1239   15.9608 N   0  0  0  0  0  0  0  0  0  0  0  0
    7.7853  -16.1449   23.3672 C   0  0  0  0  0  0  0  0  0  0  0  0
    7.7198  -16.1069   24.8241 C   0  0  0  0  0  0  0  0  0  0  0  0
    9.0650  -16.0616   25.4230 O   0  0  0  0  0  0  0  0  0  0  0  0
   10.0841  -16.1946   24.7044 C   0  0  0  0  0  0  0  0  0  0  0  0
    9.5938  -14.3468   29.2945 C   0  0  1  0  0  0  0  0  0  0  0  0
   10.6363  -14.4500   28.2069 C   0  0  0  0  0  0  0  0  0  0  0  0
   10.4828  -13.2718   27.2845 C   0  0  1  0  0  0  0  0  0  0  0  0
   10.5025  -15.7689   27.4473 N   0  0  0  0  0  0  0  0  0  0  0  0
    9.1930  -15.8656   26.8254 C   0  0  0  0  0  0  0  0  0  0  0  0
   10.6173  -16.8409   28.4512 O   0  0  0  0  0  0  0  0  0  0  0  0
    9.5983  -17.4382   28.8508 O   0  0  0  0  0  0  0  0  0  0  0  0
  2  1  1  0
  3  2  2  0
  4  2  1  0
  5  4  1  0
  6  5  1  0
  7  6  1  0
  8  7  1  0
  8 10  1  0
  8  9  1  1
 10 12  1  0
 11 10  2  0
 12 13  1  0
 13 14  1  0
 14 15  2  0
 14 20  1  0
 17 16  1  1
 17 19  1  0
 18 17  1  0
 19 21  1  0
 19 20  1  6
 21 22  2  0
 21 23  1  0
M  END
$$$$
