RGV.pdb
     RDKit          3D

 23 22  0  0  1  0  0  0  0  0999 V2000
   12.6699  -18.1846   16.7088 N   0  0  0  0  0  0  0  0  0  0  0  0
   13.0622  -19.5588   16.7751 C   0  0  0  0  0  0  0  0  0  0  0  0
   13.5855  -20.0710   15.7263 N   0  0  0  0  0  0  0  0  0  0  0  0
   12.8534  -20.2778   17.9871 N   0  0  0  0  0  0  0  0  0  0  0  0
   12.2798  -19.5891   19.0876 C   0  0  0  0  0  0  0  0  0  0  0  0
   10.8989  -19.0837   18.9859 C   0  0  0  0  0  0  0  0  0  0  0  0
   10.2812  -18.4053   20.1358 C   0  0  0  0  0  0  0  0  0  0  0  0
   10.5120  -18.9235   21.5056 C   0  0  2  0  0  0  0  0  0  0  0  0
   10.0219  -20.2620   21.7057 N   0  0  0  0  0  0  0  0  0  0  0  0
    9.7926  -18.0157   22.4828 C   0  0  0  0  0  0  0  0  0  0  0  0
    8.5527  -18.1531   22.6777 O   0  0  0  0  0  0  0  0  0  0  0  0
   13.9696  -21.0228   15.6229 N   0  0  0  0  0  0  0  0  0  0  0  0
   10.5158  -17.0305   23.1593 C   0  0  0  0  0  0  0  0  0  0  0  0
    9.9231  -16.1546   24.1642 C   0  0  0  0  0  0  0  0  0  0  0  0
   10.5768  -16.3181   25.4744 O   0  0  0  0  0  0  0  0  0  0  0  0
   11.4947  -17.1591   25.6248 C   0  0  0  0  0  0  0  0  0  0  0  0
    9.0489  -14.3380   29.0375 C   0  0  1  0  0  0  0  0  0  0  0  0
   10.5077  -14.2782   28.6515 C   0  0  0  0  0  0  0  0  0  0  0  0
   10.7515  -12.9968   27.9023 C   0  0  1  0  0  0  0  0  0  0  0  0
   10.8994  -15.4934   27.8123 N   0  0  0  0  0  0  0  0  0  0  0  0
   10.1536  -15.5106   26.5655 C   0  0  0  0  0  0  0  0  0  0  0  0
   10.5171  -16.6809   28.5956 O   0  0  0  0  0  0  0  0  0  0  0  0
    9.4383  -17.2631   28.3668 O   0  0  0  0  0  0  0  0  0  0  0  0
  2  1  1  0
  3  2  2  0
  4  2  1  0
  5  4  1  0
  6  5  1  0
  7  6  1  0
  8  7  1  0
  8 10  1  0
  8  9  1  6
 10 12  1  0
 11 10  2  0
 12 13  1  0
 13 14  1  0
 14 15  2  0
 14 20  1  0
 17 16  1  1
 17 19  1  0
 18 17  1  0
 19 21  1  0
 19 20  1  6
 21 22  2  0
 21 23  1  0
M  END
$$$$
