RGV.pdb
     RDKit          3D

 23 22  0  0  1  0  0  0  0  0999 V2000
    7.8162  -15.1298   16.8320 N   0  0  0  0  0  0  0  0  0  0  0  0
    7.9015  -13.7203   17.0620 C   0  0  0  0  0  0  0  0  0  0  0  0
    8.7962  -13.0733   16.4164 N   0  0  0  0  0  0  0  0  0  0  0  0
    6.9997  -13.1165   17.9849 N   0  0  0  0  0  0  0  0  0  0  0  0
    7.0934  -13.4810   19.3535 C   0  0  0  0  0  0  0  0  0  0  0  0
    6.5923  -14.7972   19.7885 C   0  0  0  0  0  0  0  0  0  0  0  0
    6.7291  -15.2039   21.1956 C   0  0  0  0  0  0  0  0  0  0  0  0
    7.9248  -15.9670   21.6270 C   0  0  2  0  0  0  0  0  0  0  0  0
    7.9136  -17.3431   21.2051 N   0  0  0  0  0  0  0  0  0  0  0  0
    7.9784  -15.9470   23.1414 C   0  0  0  0  0  0  0  0  0  0  0  0
    8.0886  -14.8493   23.7554 O   0  0  0  0  0  0  0  0  0  0  0  0
    8.9866  -12.0604   16.4609 N   0  0  0  0  0  0  0  0  0  0  0  0
    7.9058  -17.1525   23.8435 C   0  0  0  0  0  0  0  0  0  0  0  0
    7.9474  -17.2311   25.2996 C   0  0  0  0  0  0  0  0  0  0  0  0
    9.2366  -16.7527   25.8284 O   0  0  0  0  0  0  0  0  0  0  0  0
   10.2515  -16.7206   25.0925 C   0  0  0  0  0  0  0  0  0  0  0  0
    9.3107  -14.3808   29.3694 C   0  0  1  0  0  0  0  0  0  0  0  0
   10.3417  -14.3868   28.2660 C   0  0  0  0  0  0  0  0  0  0  0  0
    9.8842  -13.4527   27.1794 C   0  0  1  0  0  0  0  0  0  0  0  0
   10.5548  -15.8006   27.7273 N   0  0  0  0  0  0  0  0  0  0  0  0
    9.3154  -16.3284   27.1831 C   0  0  0  0  0  0  0  0  0  0  0  0
   10.9437  -16.6311   28.8802 O   0  0  0  0  0  0  0  0  0  0  0  0
   10.1243  -17.4210   29.3895 O   0  0  0  0  0  0  0  0  0  0  0  0
  2  1  1  0
  3  2  2  0
  4  2  1  0
  5  4  1  0
  6  5  1  0
  7  6  1  0
  8  7  1  0
  8 10  1  0
  8  9  1  1
 10 12  1  0
 11 10  2  0
 12 13  1  0
 13 14  1  0
 14 15  2  0
 14 20  1  0
 17 16  1  1
 17 19  1  0
 18 17  1  0
 19 21  1  0
 19 20  1  6
 21 22  2  0
 21 23  1  0
M  END
$$$$
