RGV.pdb
     RDKit          3D

 23 22  0  0  1  0  0  0  0  0999 V2000
   10.9669  -18.9584   16.1393 N   0  0  0  0  0  0  0  0  0  0  0  0
   11.4827  -20.2839   16.2931 C   0  0  0  0  0  0  0  0  0  0  0  0
   11.7773  -20.9264   15.2270 N   0  0  0  0  0  0  0  0  0  0  0  0
   11.6398  -20.8147   17.6058 N   0  0  0  0  0  0  0  0  0  0  0  0
   11.3459  -19.9740   18.7110 C   0  0  0  0  0  0  0  0  0  0  0  0
    9.9437  -19.6267   19.0042 C   0  0  0  0  0  0  0  0  0  0  0  0
    9.6166  -18.8694   20.2222 C   0  0  0  0  0  0  0  0  0  0  0  0
   10.6023  -17.9122   20.7793 C   0  0  2  0  0  0  0  0  0  0  0  0
   11.7031  -18.5465   21.4558 N   0  0  0  0  0  0  0  0  0  0  0  0
    9.8891  -17.0281   21.7825 C   0  0  0  0  0  0  0  0  0  0  0  0
    8.8309  -16.4238   21.4523 O   0  0  0  0  0  0  0  0  0  0  0  0
   12.1603  -21.8820   15.1612 N   0  0  0  0  0  0  0  0  0  0  0  0
   10.4164  -16.8914   23.0688 C   0  0  0  0  0  0  0  0  0  0  0  0
    9.7534  -16.1364   24.1265 C   0  0  0  0  0  0  0  0  0  0  0  0
   10.5442  -16.1423   25.3695 O   0  0  0  0  0  0  0  0  0  0  0  0
   11.5828  -16.8395   25.4574 C   0  0  0  0  0  0  0  0  0  0  0  0
    8.9395  -14.3717   28.9768 C   0  0  1  0  0  0  0  0  0  0  0  0
   10.3884  -14.1746   28.5995 C   0  0  0  0  0  0  0  0  0  0  0  0
   10.5267  -12.8427   27.9142 C   0  0  1  0  0  0  0  0  0  0  0  0
   10.8776  -15.3116   27.7038 N   0  0  0  0  0  0  0  0  0  0  0  0
   10.1148  -15.3479   26.4678 C   0  0  0  0  0  0  0  0  0  0  0  0
   10.6225  -16.5613   28.4408 O   0  0  0  0  0  0  0  0  0  0  0  0
    9.6158  -17.2495   28.1800 O   0  0  0  0  0  0  0  0  0  0  0  0
  2  1  1  0
  3  2  2  0
  4  2  1  0
  5  4  1  0
  6  5  1  0
  7  6  1  0
  8  7  1  0
  8 10  1  0
  8  9  1  1
 10 12  1  0
 11 10  2  0
 12 13  1  0
 13 14  1  0
 14 15  2  0
 14 20  1  0
 17 16  1  1
 17 19  1  0
 18 17  1  0
 19 21  1  0
 19 20  1  6
 21 22  2  0
 21 23  1  0
M  END
$$$$
