RGV.pdb
     RDKit          3D

 23 22  0  0  1  0  0  0  0  0999 V2000
    8.3633  -12.4610   18.6297 N   0  0  0  0  0  0  0  0  0  0  0  0
    7.9811  -13.5349   17.7652 C   0  0  0  0  0  0  0  0  0  0  0  0
    7.1150  -13.2794   16.8593 N   0  0  0  0  0  0  0  0  0  0  0  0
    8.5746  -14.8163   17.9535 N   0  0  0  0  0  0  0  0  0  0  0  0
    9.3708  -15.0255   19.1097 C   0  0  0  0  0  0  0  0  0  0  0  0
    8.7239  -15.0910   20.4326 C   0  0  0  0  0  0  0  0  0  0  0  0
    8.2703  -16.3863   20.9621 C   0  0  0  0  0  0  0  0  0  0  0  0
    6.9531  -16.4842   21.6356 C   0  0  2  0  0  0  0  0  0  0  0  0
    5.9683  -15.5751   21.1108 N   0  0  0  0  0  0  0  0  0  0  0  0
    7.1466  -16.1608   23.1035 C   0  0  0  0  0  0  0  0  0  0  0  0
    7.1862  -14.9581   23.4858 O   0  0  0  0  0  0  0  0  0  0  0  0
    6.7562  -13.9262   16.1401 N   0  0  0  0  0  0  0  0  0  0  0  0
    7.2808  -17.2054   24.0212 C   0  0  0  0  0  0  0  0  0  0  0  0
    7.2894  -17.0018   25.4657 C   0  0  0  0  0  0  0  0  0  0  0  0
    8.5890  -16.4858   25.9295 O   0  0  0  0  0  0  0  0  0  0  0  0
    9.5892  -16.5143   25.1736 C   0  0  0  0  0  0  0  0  0  0  0  0
   11.0871  -13.7160   29.1308 C   0  0  1  0  0  0  0  0  0  0  0  0
    9.7904  -14.1582   28.4956 C   0  0  0  0  0  0  0  0  0  0  0  0
    8.7453  -14.2712   29.5715 C   0  0  2  0  0  0  0  0  0  0  0  0
    9.9699  -15.4835   27.7567 N   0  0  0  0  0  0  0  0  0  0  0  0
    8.6949  -15.9556   27.2445 C   0  0  0  0  0  0  0  0  0  0  0  0
   10.4548  -16.4535   28.7537 O   0  0  0  0  0  0  0  0  0  0  0  0
    9.6574  -17.2358   29.3079 O   0  0  0  0  0  0  0  0  0  0  0  0
  2  1  1  0
  3  2  2  0
  4  2  1  0
  5  4  1  0
  6  5  1  0
  7  6  1  0
  8  7  1  0
  8 10  1  0
  8  9  1  6
 10 12  1  0
 11 10  2  0
 12 13  1  0
 13 14  1  0
 14 15  2  0
 14 20  1  0
 17 16  1  6
 17 19  1  0
 18 17  1  0
 19 21  1  0
 19 20  1  1
 21 22  2  0
 21 23  1  0
M  END
$$$$
