RGV.pdb
     RDKit          3D

 23 22  0  0  1  0  0  0  0  0999 V2000
    9.4309  -15.4783   15.7159 N   0  0  0  0  0  0  0  0  0  0  0  0
    8.4512  -14.4709   15.9843 C   0  0  0  0  0  0  0  0  0  0  0  0
    7.5119  -14.3230   15.1287 N   0  0  0  0  0  0  0  0  0  0  0  0
    8.5686  -13.6939   17.1726 N   0  0  0  0  0  0  0  0  0  0  0  0
    7.4547  -13.6342   18.0502 C   0  0  0  0  0  0  0  0  0  0  0  0
    7.4529  -14.4539   19.2753 C   0  0  0  0  0  0  0  0  0  0  0  0
    7.1879  -13.8231   20.5776 C   0  0  0  0  0  0  0  0  0  0  0  0
    8.3160  -13.5217   21.4912 C   0  0  2  0  0  0  0  0  0  0  0  0
    9.6079  -13.6231   20.8649 N   0  0  0  0  0  0  0  0  0  0  0  0
    8.2766  -14.5142   22.6358 C   0  0  0  0  0  0  0  0  0  0  0  0
    7.2790  -14.5479   23.4089 O   0  0  0  0  0  0  0  0  0  0  0  0
    6.7075  -13.6801   15.1914 N   0  0  0  0  0  0  0  0  0  0  0  0
    9.3531  -15.3846   22.8225 C   0  0  0  0  0  0  0  0  0  0  0  0
    9.3519  -16.4529   23.8159 C   0  0  0  0  0  0  0  0  0  0  0  0
   10.2161  -16.1233   24.9626 O   0  0  0  0  0  0  0  0  0  0  0  0
   11.4641  -16.1804   24.8535 C   0  0  0  0  0  0  0  0  0  0  0  0
    8.4436  -14.5654   28.6083 C   0  0  1  0  0  0  0  0  0  0  0  0
    9.8267  -14.2252   28.1063 C   0  0  0  0  0  0  0  0  0  0  0  0
    9.7312  -13.0040   27.2333 C   0  0  1  0  0  0  0  0  0  0  0  0
   10.4354  -15.4028   27.3465 N   0  0  0  0  0  0  0  0  0  0  0  0
    9.6175  -15.7403   26.1941 C   0  0  0  0  0  0  0  0  0  0  0  0
   10.4223  -16.5476   28.2734 O   0  0  0  0  0  0  0  0  0  0  0  0
    9.5620  -17.4423   28.1536 O   0  0  0  0  0  0  0  0  0  0  0  0
  2  1  1  0
  3  2  2  0
  4  2  1  0
  5  4  1  0
  6  5  1  0
  7  6  1  0
  8  7  1  0
  8 10  1  0
  8  9  1  6
 10 12  1  0
 11 10  2  0
 12 13  1  0
 13 14  1  0
 14 15  2  0
 14 20  1  0
 17 16  1  1
 17 19  1  0
 18 17  1  0
 19 21  1  0
 19 20  1  6
 21 22  2  0
 21 23  1  0
M  END
$$$$
