RGV.pdb
     RDKit          3D

 23 22  0  0  1  0  0  0  0  0999 V2000
    7.7598  -13.7501   14.4219 N   0  0  0  0  0  0  0  0  0  0  0  0
    8.2159  -14.3484   15.6388 C   0  0  0  0  0  0  0  0  0  0  0  0
    9.0718  -13.6952   16.3292 N   0  0  0  0  0  0  0  0  0  0  0  0
    7.7024  -15.6229   16.0153 N   0  0  0  0  0  0  0  0  0  0  0  0
    8.1186  -16.1767   17.2541 C   0  0  0  0  0  0  0  0  0  0  0  0
    7.7081  -15.5274   18.5121 C   0  0  0  0  0  0  0  0  0  0  0  0
    8.1948  -16.0501   19.7982 C   0  0  0  0  0  0  0  0  0  0  0  0
    7.5186  -17.2127   20.4221 C   0  0  2  0  0  0  0  0  0  0  0  0
    6.4674  -17.7709   19.6125 N   0  0  0  0  0  0  0  0  0  0  0  0
    6.9037  -16.7571   21.7302 C   0  0  0  0  0  0  0  0  0  0  0  0
    5.7002  -16.3769   21.7642 O   0  0  0  0  0  0  0  0  0  0  0  0
    9.5058  -13.9846   17.2193 N   0  0  0  0  0  0  0  0  0  0  0  0
    7.6828  -16.7625   22.8897 C   0  0  0  0  0  0  0  0  0  0  0  0
    7.1581  -16.4109   24.2047 C   0  0  0  0  0  0  0  0  0  0  0  0
    7.8957  -15.2800   24.7943 O   0  0  0  0  0  0  0  0  0  0  0  0
    9.0879  -15.0631   24.4719 C   0  0  0  0  0  0  0  0  0  0  0  0
    6.0420  -12.9180   27.9515 C   0  0  1  0  0  0  0  0  0  0  0  0
    6.9827  -12.3192   26.9331 C   0  0  0  0  0  0  0  0  0  0  0  0
    6.1654  -11.7281   25.8172 C   0  0  1  0  0  0  0  0  0  0  0  0
    7.9581  -13.3713   26.4076 N   0  0  0  0  0  0  0  0  0  0  0  0
    7.2388  -14.4383   25.7332 C   0  0  0  0  0  0  0  0  0  0  0  0
    8.6306  -13.9416   27.5877 O   0  0  0  0  0  0  0  0  0  0  0  0
    9.4424  -13.2558   28.2401 O   0  0  0  0  0  0  0  0  0  0  0  0
  2  1  1  0
  3  2  2  0
  4  2  1  0
  5  4  1  0
  6  5  1  0
  7  6  1  0
  8  7  1  0
  8 10  1  0
  8  9  1  6
 10 12  1  0
 11 10  2  0
 12 13  1  0
 13 14  1  0
 14 15  2  0
 14 20  1  0
 17 16  1  1
 17 19  1  0
 18 17  1  0
 19 21  1  0
 19 20  1  6
 21 22  2  0
 21 23  1  0
M  END
$$$$
