RGV.pdb
     RDKit          3D

 23 22  0  0  1  0  0  0  0  0999 V2000
    8.1852  -13.7576   14.5101 N   0  0  0  0  0  0  0  0  0  0  0  0
    7.8208  -13.8803   15.8882 C   0  0  0  0  0  0  0  0  0  0  0  0
    6.6014  -14.1639   16.1498 N   0  0  0  0  0  0  0  0  0  0  0  0
    8.8189  -13.6831   16.8855 N   0  0  0  0  0  0  0  0  0  0  0  0
    8.5520  -14.1373   18.2034 C   0  0  0  0  0  0  0  0  0  0  0  0
    7.1770  -14.0657   18.7298 C   0  0  0  0  0  0  0  0  0  0  0  0
    6.8773  -14.5965   20.0686 C   0  0  0  0  0  0  0  0  0  0  0  0
    7.6809  -15.7181   20.6113 C   0  0  2  0  0  0  0  0  0  0  0  0
    7.4025  -16.9833   19.9839 N   0  0  0  0  0  0  0  0  0  0  0  0
    7.3678  -15.8541   22.0878 C   0  0  0  0  0  0  0  0  0  0  0  0
    6.2185  -16.2223   22.4587 O   0  0  0  0  0  0  0  0  0  0  0  0
    6.1821  -14.3126   17.0806 N   0  0  0  0  0  0  0  0  0  0  0  0
    8.3618  -15.5670   23.0262 C   0  0  0  0  0  0  0  0  0  0  0  0
    8.1355  -15.6111   24.4667 C   0  0  0  0  0  0  0  0  0  0  0  0
    9.3910  -15.4273   25.2153 O   0  0  0  0  0  0  0  0  0  0  0  0
   10.4968  -15.5119   24.6300 C   0  0  0  0  0  0  0  0  0  0  0  0
    9.2971  -14.0253   29.3205 C   0  0  1  0  0  0  0  0  0  0  0  0
   10.4335  -13.8242   28.3465 C   0  0  0  0  0  0  0  0  0  0  0  0
   10.1985  -12.5419   27.5963 C   0  0  1  0  0  0  0  0  0  0  0  0
   10.5490  -15.0113   27.3916 N   0  0  0  0  0  0  0  0  0  0  0  0
    9.3330  -15.1533   26.6093 C   0  0  0  0  0  0  0  0  0  0  0  0
   10.6988  -16.2103   28.2341 O   0  0  0  0  0  0  0  0  0  0  0  0
    9.7090  -16.9234   28.4926 O   0  0  0  0  0  0  0  0  0  0  0  0
  2  1  1  0
  3  2  2  0
  4  2  1  0
  5  4  1  0
  6  5  1  0
  7  6  1  0
  8  7  1  0
  8 10  1  0
  8  9  1  6
 10 12  1  0
 11 10  2  0
 12 13  1  0
 13 14  1  0
 14 15  2  0
 14 20  1  0
 17 16  1  1
 17 19  1  0
 18 17  1  0
 19 21  1  0
 19 20  1  6
 21 22  2  0
 21 23  1  0
M  END
$$$$
