AWP.pdb
     RDKit          3D

 27 29  0  0  1  0  0  0  0  0999 V2000
   21.2002  -21.3762  -14.3038 C   0  0  0  0  0  0  0  0  0  0  0  0
   21.6317  -21.4216  -12.8425 C   0  0  2  0  0  0  0  0  0  0  0  0
   20.7037  -20.6879  -12.0329 N   0  0  0  0  0  0  0  0  0  0  0  0
   22.9886  -20.8136  -12.7896 C   0  0  0  0  0  0  0  0  0  0  0  0
   23.1382  -19.5754  -12.9475 O   0  0  0  0  0  0  0  0  0  0  0  0
   24.1707  -21.5851  -12.5615 N   0  0  0  0  0  0  0  0  0  0  0  0
   25.4897  -21.0119  -12.5174 C   0  0  1  0  0  0  0  0  0  0  0  0
   26.1955  -21.6917  -11.4083 C   0  0  0  0  0  0  0  0  0  0  0  0
   26.2979  -21.0624  -10.1315 C   0  0  0  0  0  0  0  0  0  0  0  0
   25.2205  -20.5582   -9.4308 C   0  0  0  0  0  0  0  0  0  0  0  0
   25.6390  -20.0348   -8.2704 N   0  0  0  0  0  0  0  0  0  0  0  0
   26.9726  -20.1740   -8.1720 C   0  0  0  0  0  0  0  0  0  0  0  0
   27.8925  -19.8203   -7.2088 C   0  0  0  0  0  0  0  0  0  0  0  0
   29.2219  -20.1143   -7.4202 C   0  0  0  0  0  0  0  0  0  0  0  0
   29.6266  -20.7558   -8.5836 C   0  0  0  0  0  0  0  0  0  0  0  0
   28.7155  -21.1165   -9.5583 C   0  0  0  0  0  0  0  0  0  0  0  0
   27.3896  -20.8153   -9.3318 C   0  0  0  0  0  0  0  0  0  0  0  0
   26.1170  -21.1881  -13.8362 C   0  0  0  0  0  0  0  0  0  0  0  0
   25.6941  -22.2735  -14.4505 O   0  0  0  0  0  0  0  0  0  0  0  0
   27.0381  -20.4508  -14.5298 N   0  0  0  0  0  0  0  0  0  0  0  0
   27.8858  -19.4116  -13.8985 C   0  0  0  0  0  0  0  0  0  0  0  0
   28.3443  -18.5014  -14.9800 C   0  0  0  0  0  0  0  0  0  0  0  0
   27.8093  -19.0102  -16.2681 C   0  0  0  0  0  0  0  0  0  0  0  0
   27.4146  -20.4531  -15.9127 C   0  0  1  0  0  0  0  0  0  0  0  0
   28.6655  -21.2439  -16.1447 C   0  0  0  0  0  0  0  0  0  0  0  0
   29.1460  -21.4084  -17.4347 O   0  0  0  0  0  0  0  0  0  0  0  0
   29.3109  -21.7743  -15.2072 O   0  0  0  0  0  0  0  0  0  0  0  0
  2  1  1  6
  2  3  1  0
  4  2  1  0
  5  4  2  0
  6  4  1  0
  7  6  1  0
  8  9  1  0
  7  8  1  1
  9 17  1  0
 10  9  2  0
 10 11  1  0
 11 12  1  0
 12 13  1  0
 13 14  2  0
 15 14  1  0
 16 15  2  0
 17 12  2  0
 17 16  1  0
 18 20  1  0
 18  7  1  0
 19 18  2  0
 20 21  1  0
 21 22  1  0
 23 22  1  0
 24 23  1  0
 24 20  1  0
 25 26  1  0
 24 25  1  1
 27 25  2  0
M  END
$$$$
