AWP.pdb
     RDKit          3D

 27 29  0  0  1  0  0  0  0  0999 V2000
   21.0670  -17.7630  -19.3297 C   0  0  0  0  0  0  0  0  0  0  0  0
   21.0564  -18.3664  -17.9299 C   0  0  2  0  0  0  0  0  0  0  0  0
   20.0491  -17.7339  -17.1296 N   0  0  0  0  0  0  0  0  0  0  0  0
   22.4139  -18.1358  -17.3663 C   0  0  0  0  0  0  0  0  0  0  0  0
   23.1203  -17.1807  -17.7775 O   0  0  0  0  0  0  0  0  0  0  0  0
   22.9777  -18.9677  -16.3492 N   0  0  0  0  0  0  0  0  0  0  0  0
   24.2271  -18.6780  -15.6968 C   0  0  1  0  0  0  0  0  0  0  0  0
   23.9218  -18.5774  -14.2522 C   0  0  0  0  0  0  0  0  0  0  0  0
   24.9797  -18.5799  -13.2943 C   0  0  0  0  0  0  0  0  0  0  0  0
   26.1019  -17.7803  -13.3814 C   0  0  0  0  0  0  0  0  0  0  0  0
   26.9055  -18.0110  -12.3341 N   0  0  0  0  0  0  0  0  0  0  0  0
   26.3520  -18.9467  -11.5432 C   0  0  0  0  0  0  0  0  0  0  0  0
   26.7452  -19.5424  -10.3643 C   0  0  0  0  0  0  0  0  0  0  0  0
   25.9259  -20.4925   -9.7948 C   0  0  0  0  0  0  0  0  0  0  0  0
   24.7254  -20.8430  -10.3989 C   0  0  0  0  0  0  0  0  0  0  0  0
   24.3182  -20.2543  -11.5811 C   0  0  0  0  0  0  0  0  0  0  0  0
   25.1489  -19.3058  -12.1381 C   0  0  0  0  0  0  0  0  0  0  0  0
   25.1883  -19.7362  -16.0432 C   0  0  0  0  0  0  0  0  0  0  0  0
   24.6001  -20.8933  -16.2654 O   0  0  0  0  0  0  0  0  0  0  0  0
   26.5505  -19.7432  -16.1751 N   0  0  0  0  0  0  0  0  0  0  0  0
   27.4110  -18.6104  -15.7588 C   0  0  0  0  0  0  0  0  0  0  0  0
   28.6916  -18.7344  -16.5024 C   0  0  0  0  0  0  0  0  0  0  0  0
   28.6232  -19.9608  -17.3365 C   0  0  0  0  0  0  0  0  0  0  0  0
   27.4522  -20.7265  -16.6991 C   0  0  1  0  0  0  0  0  0  0  0  0
   28.0896  -21.5306  -15.6078 C   0  0  0  0  0  0  0  0  0  0  0  0
   28.9473  -22.5707  -15.9310 O   0  0  0  0  0  0  0  0  0  0  0  0
   27.8792  -21.3015  -14.3913 O   0  0  0  0  0  0  0  0  0  0  0  0
  2  1  1  6
  2  3  1  0
  4  2  1  0
  5  4  2  0
  6  4  1  0
  7  6  1  0
  8  9  1  0
  7  8  1  1
  9 17  1  0
 10  9  2  0
 10 11  1  0
 11 12  1  0
 12 13  1  0
 13 14  2  0
 15 14  1  0
 16 15  2  0
 17 12  2  0
 17 16  1  0
 18 20  1  0
 18  7  1  0
 19 18  2  0
 20 21  1  0
 21 22  1  0
 23 22  1  0
 24 23  1  0
 24 20  1  0
 25 26  1  0
 24 25  1  1
 27 25  2  0
M  END
$$$$
