AWP.pdb
     RDKit          3D

 27 29  0  0  1  0  0  0  0  0999 V2000
   25.9332  -16.8284  -14.8918 C   0  0  0  0  0  0  0  0  0  0  0  0
   26.9215  -17.3118  -13.8367 C   0  0  2  0  0  0  0  0  0  0  0  0
   28.2650  -17.1413  -14.3068 N   0  0  0  0  0  0  0  0  0  0  0  0
   26.6123  -18.7484  -13.6031 C   0  0  0  0  0  0  0  0  0  0  0  0
   27.1667  -19.6398  -14.2948 O   0  0  0  0  0  0  0  0  0  0  0  0
   25.6890  -19.1852  -12.6025 N   0  0  0  0  0  0  0  0  0  0  0  0
   25.4508  -20.5720  -12.3015 C   0  0  1  0  0  0  0  0  0  0  0  0
   25.0934  -20.6247  -10.8663 C   0  0  0  0  0  0  0  0  0  0  0  0
   26.0532  -20.2606   -9.8749 C   0  0  0  0  0  0  0  0  0  0  0  0
   25.8354  -19.3031   -8.9044 C   0  0  0  0  0  0  0  0  0  0  0  0
   26.9200  -19.1922   -8.1253 N   0  0  0  0  0  0  0  0  0  0  0  0
   27.8636  -20.0519   -8.5472 C   0  0  0  0  0  0  0  0  0  0  0  0
   29.1397  -20.3428   -8.1156 C   0  0  0  0  0  0  0  0  0  0  0  0
   29.8644  -21.3040   -8.7859 C   0  0  0  0  0  0  0  0  0  0  0  0
   29.3178  -21.9672   -9.8769 C   0  0  0  0  0  0  0  0  0  0  0  0
   28.0396  -21.6859  -10.3210 C   0  0  0  0  0  0  0  0  0  0  0  0
   27.3277  -20.7219   -9.6399 C   0  0  0  0  0  0  0  0  0  0  0  0
   24.4049  -21.0710  -13.2075 C   0  0  0  0  0  0  0  0  0  0  0  0
   23.5885  -20.1164  -13.6031 O   0  0  0  0  0  0  0  0  0  0  0  0
   24.1275  -22.3150  -13.7059 N   0  0  0  0  0  0  0  0  0  0  0  0
   24.8927  -23.5277  -13.3307 C   0  0  0  0  0  0  0  0  0  0  0  0
   24.6810  -24.5316  -14.4057 C   0  0  0  0  0  0  0  0  0  0  0  0
   23.7581  -23.9440  -15.4094 C   0  0  0  0  0  0  0  0  0  0  0  0
   23.1362  -22.7697  -14.6360 C   0  0  1  0  0  0  0  0  0  0  0  0
   21.9568  -23.3735  -13.9371 C   0  0  0  0  0  0  0  0  0  0  0  0
   21.9822  -23.5362  -12.5606 O   0  0  0  0  0  0  0  0  0  0  0  0
   20.9272  -23.7456  -14.5520 O   0  0  0  0  0  0  0  0  0  0  0  0
  2  1  1  6
  2  3  1  0
  4  2  1  0
  5  4  2  0
  6  4  1  0
  7  6  1  0
  8  9  1  0
  7  8  1  1
  9 17  1  0
 10  9  2  0
 10 11  1  0
 11 12  1  0
 12 13  1  0
 13 14  2  0
 15 14  1  0
 16 15  2  0
 17 12  2  0
 17 16  1  0
 18 20  1  0
 18  7  1  0
 19 18  2  0
 20 21  1  0
 21 22  1  0
 23 22  1  0
 24 23  1  0
 24 20  1  0
 25 26  1  0
 24 25  1  1
 27 25  2  0
M  END
$$$$
