AWP.pdb
     RDKit          3D

 27 29  0  0  1  0  0  0  0  0999 V2000
   19.9468  -19.0911  -14.2363 C   0  0  0  0  0  0  0  0  0  0  0  0
   20.5630  -20.2660  -13.4855 C   0  0  2  0  0  0  0  0  0  0  0  0
   19.7930  -20.5579  -12.3121 N   0  0  0  0  0  0  0  0  0  0  0  0
   21.9478  -19.8535  -13.1306 C   0  0  0  0  0  0  0  0  0  0  0  0
   22.2032  -18.6550  -12.8501 O   0  0  0  0  0  0  0  0  0  0  0  0
   23.0401  -20.7754  -13.0896 N   0  0  0  0  0  0  0  0  0  0  0  0
   24.3783  -20.3959  -12.7214 C   0  0  1  0  0  0  0  0  0  0  0  0
   24.7396  -21.2407  -11.5612 C   0  0  0  0  0  0  0  0  0  0  0  0
   26.0467  -21.1586  -10.9943 C   0  0  0  0  0  0  0  0  0  0  0  0
   27.1826  -21.6607  -11.5974 C   0  0  0  0  0  0  0  0  0  0  0  0
   28.2495  -21.4267  -10.8210 N   0  0  0  0  0  0  0  0  0  0  0  0
   27.8601  -20.7789   -9.7091 C   0  0  0  0  0  0  0  0  0  0  0  0
   28.5342  -20.3080   -8.6032 C   0  0  0  0  0  0  0  0  0  0  0  0
   27.8203  -19.6708   -7.6119 C   0  0  0  0  0  0  0  0  0  0  0  0
   26.4460  -19.5066   -7.7261 C   0  0  0  0  0  0  0  0  0  0  0  0
   25.7566  -19.9737   -8.8291 C   0  0  0  0  0  0  0  0  0  0  0  0
   26.4851  -20.6088   -9.8119 C   0  0  0  0  0  0  0  0  0  0  0  0
   25.2493  -20.5685  -13.8941 C   0  0  0  0  0  0  0  0  0  0  0  0
   24.7975  -21.4874  -14.7222 O   0  0  0  0  0  0  0  0  0  0  0  0
   26.4165  -19.9655  -14.2778 N   0  0  0  0  0  0  0  0  0  0  0  0
   27.2438  -19.1446  -13.3620 C   0  0  0  0  0  0  0  0  0  0  0  0
   28.0892  -18.2608  -14.2061 C   0  0  0  0  0  0  0  0  0  0  0  0
   27.8045  -18.5733  -15.6294 C   0  0  0  0  0  0  0  0  0  0  0  0
   27.1088  -19.9409  -15.5326 C   0  0  1  0  0  0  0  0  0  0  0  0
   28.2344  -20.9288  -15.5634 C   0  0  0  0  0  0  0  0  0  0  0  0
   28.9557  -21.1134  -16.7328 O   0  0  0  0  0  0  0  0  0  0  0  0
   28.5609  -21.6097  -14.5602 O   0  0  0  0  0  0  0  0  0  0  0  0
  2  1  1  1
  2  3  1  0
  4  2  1  0
  5  4  2  0
  6  4  1  0
  7  6  1  0
  8  9  1  0
  7  8  1  1
  9 17  1  0
 10  9  2  0
 10 11  1  0
 11 12  1  0
 12 13  1  0
 13 14  2  0
 15 14  1  0
 16 15  2  0
 17 12  2  0
 17 16  1  0
 18 20  1  0
 18  7  1  0
 19 18  2  0
 20 21  1  0
 21 22  1  0
 23 22  1  0
 24 23  1  0
 24 20  1  0
 25 26  1  0
 24 25  1  1
 27 25  2  0
M  END
$$$$
