AWP.pdb
     RDKit          3D

 27 29  0  0  1  0  0  0  0  0999 V2000
   26.4064  -25.1712  -17.9492 C   0  0  0  0  0  0  0  0  0  0  0  0
   27.8084  -24.7541  -17.5203 C   0  0  2  0  0  0  0  0  0  0  0  0
   28.5369  -25.8941  -17.0461 N   0  0  0  0  0  0  0  0  0  0  0  0
   27.6313  -23.7434  -16.4429 C   0  0  0  0  0  0  0  0  0  0  0  0
   27.6064  -24.0962  -15.2366 O   0  0  0  0  0  0  0  0  0  0  0  0
   27.4831  -22.3470  -16.7128 N   0  0  0  0  0  0  0  0  0  0  0  0
   27.3715  -21.3521  -15.6793 C   0  0  1  0  0  0  0  0  0  0  0  0
   27.7437  -20.0648  -16.3074 C   0  0  0  0  0  0  0  0  0  0  0  0
   27.3617  -18.8326  -15.6970 C   0  0  0  0  0  0  0  0  0  0  0  0
   28.0820  -18.2105  -14.6969 C   0  0  0  0  0  0  0  0  0  0  0  0
   27.4691  -17.0750  -14.3357 N   0  0  0  0  0  0  0  0  0  0  0  0
   26.3530  -16.9166  -15.0683 C   0  0  0  0  0  0  0  0  0  0  0  0
   25.3747  -15.9465  -15.1048 C   0  0  0  0  0  0  0  0  0  0  0  0
   24.3340  -16.0861  -15.9969 C   0  0  0  0  0  0  0  0  0  0  0  0
   24.2728  -17.1852  -16.8437 C   0  0  0  0  0  0  0  0  0  0  0  0
   25.2464  -18.1658  -16.8183 C   0  0  0  0  0  0  0  0  0  0  0  0
   26.2808  -18.0115  -15.9204 C   0  0  0  0  0  0  0  0  0  0  0  0
   26.0033  -21.3930  -15.1409 C   0  0  0  0  0  0  0  0  0  0  0  0
   25.1214  -21.7699  -16.0435 O   0  0  0  0  0  0  0  0  0  0  0  0
   25.4860  -21.1189  -13.9038 N   0  0  0  0  0  0  0  0  0  0  0  0
   26.2891  -20.5434  -12.7989 C   0  0  0  0  0  0  0  0  0  0  0  0
   25.5880  -20.8690  -11.5298 C   0  0  0  0  0  0  0  0  0  0  0  0
   24.3431  -21.6046  -11.8667 C   0  0  0  0  0  0  0  0  0  0  0  0
   24.1702  -21.2901  -13.3617 C   0  0  1  0  0  0  0  0  0  0  0  0
   23.3929  -20.0098  -13.3803 C   0  0  0  0  0  0  0  0  0  0  0  0
   22.0296  -20.0291  -13.1292 O   0  0  0  0  0  0  0  0  0  0  0  0
   23.9291  -18.8994  -13.6171 O   0  0  0  0  0  0  0  0  0  0  0  0
  2  1  1  1
  2  3  1  0
  4  2  1  0
  5  4  2  0
  6  4  1  0
  7  6  1  0
  8  9  1  0
  7  8  1  6
  9 17  1  0
 10  9  2  0
 10 11  1  0
 11 12  1  0
 12 13  1  0
 13 14  2  0
 15 14  1  0
 16 15  2  0
 17 12  2  0
 17 16  1  0
 18 20  1  0
 18  7  1  0
 19 18  2  0
 20 21  1  0
 21 22  1  0
 23 22  1  0
 24 23  1  0
 24 20  1  0
 25 26  1  0
 24 25  1  1
 27 25  2  0
M  END
$$$$
