AWP.pdb
     RDKit          3D

 27 29  0  0  1  0  0  0  0  0999 V2000
   25.5643  -15.1485  -17.5264 C   0  0  0  0  0  0  0  0  0  0  0  0
   26.8695  -15.8532  -17.1749 C   0  0  2  0  0  0  0  0  0  0  0  0
   27.6849  -15.9903  -18.3459 N   0  0  0  0  0  0  0  0  0  0  0  0
   26.4904  -17.1828  -16.6253 C   0  0  0  0  0  0  0  0  0  0  0  0
   26.1126  -18.1046  -17.3921 O   0  0  0  0  0  0  0  0  0  0  0  0
   26.5335  -17.4798  -15.2273 N   0  0  0  0  0  0  0  0  0  0  0  0
   26.1677  -18.7601  -14.6818 C   0  0  1  0  0  0  0  0  0  0  0  0
   26.9341  -18.9042  -13.4240 C   0  0  0  0  0  0  0  0  0  0  0  0
   26.6908  -20.0134  -12.5596 C   0  0  0  0  0  0  0  0  0  0  0  0
   26.8305  -21.3333  -12.9395 C   0  0  0  0  0  0  0  0  0  0  0  0
   26.5335  -22.1359  -11.9084 N   0  0  0  0  0  0  0  0  0  0  0  0
   26.1970  -21.3888  -10.8425 C   0  0  0  0  0  0  0  0  0  0  0  0
   25.8129  -21.6957   -9.5551 C   0  0  0  0  0  0  0  0  0  0  0  0
   25.5298  -20.6669   -8.6834 C   0  0  0  0  0  0  0  0  0  0  0  0
   25.6300  -19.3445   -9.0959 C   0  0  0  0  0  0  0  0  0  0  0  0
   26.0138  -19.0216  -10.3838 C   0  0  0  0  0  0  0  0  0  0  0  0
   26.2935  -20.0621  -11.2435 C   0  0  0  0  0  0  0  0  0  0  0  0
   24.7071  -18.7921  -14.5113 C   0  0  0  0  0  0  0  0  0  0  0  0
   24.2165  -17.6166  -14.1768 O   0  0  0  0  0  0  0  0  0  0  0  0
   23.7820  -19.7933  -14.6327 N   0  0  0  0  0  0  0  0  0  0  0  0
   24.1401  -21.1906  -14.9740 C   0  0  0  0  0  0  0  0  0  0  0  0
   22.9185  -21.8368  -15.5202 C   0  0  0  0  0  0  0  0  0  0  0  0
   21.8131  -20.8467  -15.4729 C   0  0  0  0  0  0  0  0  0  0  0  0
   22.3557  -19.7954  -14.4909 C   0  0  1  0  0  0  0  0  0  0  0  0
   21.9340  -20.2982  -13.1443 C   0  0  0  0  0  0  0  0  0  0  0  0
   20.6735  -19.9873  -12.6578 O   0  0  0  0  0  0  0  0  0  0  0  0
   22.6832  -21.0014  -12.4227 O   0  0  0  0  0  0  0  0  0  0  0  0
  2  1  1  6
  2  3  1  0
  4  2  1  0
  5  4  2  0
  6  4  1  0
  7  6  1  0
  8  9  1  0
  7  8  1  1
  9 17  1  0
 10  9  2  0
 10 11  1  0
 11 12  1  0
 12 13  1  0
 13 14  2  0
 15 14  1  0
 16 15  2  0
 17 12  2  0
 17 16  1  0
 18 20  1  0
 18  7  1  0
 19 18  2  0
 20 21  1  0
 21 22  1  0
 23 22  1  0
 24 23  1  0
 24 20  1  0
 25 26  1  0
 24 25  1  1
 27 25  2  0
M  END
$$$$
