MTK.pdb
     RDKit          3D

 25 24  0  0  1  0  0  0  0  0999 V2000
    7.7109  -11.1669   27.3568 C   0  0  0  0  0  0  0  0  0  0  0  0
    6.1624  -11.9999   26.9162 S   0  0  0  0  0  0  0  0  0  0  0  0
    6.2161  -12.5217   25.1720 C   0  0  0  0  0  0  0  0  0  0  0  0
    7.2302  -13.6385   25.0417 C   0  0  0  0  0  0  0  0  0  0  0  0
    6.5998  -14.9034   24.4969 C   0  0  2  0  0  0  0  0  0  0  0  0
    5.5860  -15.3309   25.4227 N   0  0  0  0  0  0  0  0  0  0  0  0
    7.6699  -15.8889   24.3060 C   0  0  0  0  0  0  0  0  0  0  0  0
    7.6749  -16.9120   25.0344 O   0  0  0  0  0  0  0  0  0  0  0  0
    8.6887  -17.2774   20.6958 C   0  0  0  0  0  0  0  0  0  0  0  0
    9.8937  -17.0270   21.5685 C   0  0  1  0  0  0  0  0  0  0  0  0
   10.6896  -15.9912   21.0879 O   0  0  0  0  0  0  0  0  0  0  0  0
    9.5604  -16.8925   23.0169 C   0  0  2  0  0  0  0  0  0  0  0  0
    8.7137  -15.8075   23.3731 N   0  0  0  0  0  0  0  0  0  0  0  0
   10.8487  -16.7752   23.7586 C   0  0  0  0  0  0  0  0  0  0  0  0
   11.4211  -15.6431   23.9068 O   0  0  0  0  0  0  0  0  0  0  0  0
   11.5153  -17.8785   24.3378 N   0  0  0  0  0  0  0  0  0  0  0  0
   12.7656  -17.7209   25.1153 C   0  0  1  0  0  0  0  0  0  0  0  0
   12.9960  -18.9031   25.9823 C   0  0  0  0  0  0  0  0  0  0  0  0
   12.0852  -18.8970   27.1699 C   0  0  0  0  0  0  0  0  0  0  0  0
   12.3190  -20.0908   28.0854 C   0  0  0  0  0  0  0  0  0  0  0  0
   11.3066  -20.0344   29.2383 C   0  0  0  0  0  0  0  0  0  0  0  0
   11.4856  -21.1544   30.1433 N   0  0  0  0  0  0  0  0  0  0  0  0
   13.8274  -17.5735   24.1193 C   0  0  0  0  0  0  0  0  0  0  0  0
   13.7337  -18.1700   22.8812 O   0  0  0  0  0  0  0  0  0  0  0  0
   14.8487  -16.9035   24.3628 O   0  0  0  0  0  0  0  0  0  0  0  0
  1  2  1  0
  3  2  1  0
  4  3  1  0
  5  4  1  0
  5  6  1  1
  7 13  1  0
  7  5  1  0
  8  7  2  0
 10 12  1  0
 10  9  1  6
 11 10  1  0
 12 13  1  6
 14 12  1  0
 14 15  2  0
 16 14  1  0
 17 16  1  0
 17 23  1  0
 17 18  1  6
 19 18  1  0
 20 19  1  0
 21 20  1  0
 21 22  1  0
 23 25  2  0
 23 24  1  0
M  END
$$$$
