MTK.pdb
     RDKit          3D

 25 24  0  0  1  0  0  0  0  0999 V2000
    6.5606  -11.8529   24.9214 C   0  0  0  0  0  0  0  0  0  0  0  0
    6.6083  -12.8673   26.4228 S   0  0  0  0  0  0  0  0  0  0  0  0
    7.5370  -14.4011   26.1030 C   0  0  0  0  0  0  0  0  0  0  0  0
    6.5711  -15.5649   26.1771 C   0  0  0  0  0  0  0  0  0  0  0  0
    6.3397  -16.1851   24.8147 C   0  0  2  0  0  0  0  0  0  0  0  0
    5.4465  -17.3001   24.9783 N   0  0  0  0  0  0  0  0  0  0  0  0
    7.6482  -16.5601   24.2670 C   0  0  0  0  0  0  0  0  0  0  0  0
    8.2515  -17.5353   24.7791 O   0  0  0  0  0  0  0  0  0  0  0  0
    8.5933  -16.5992   20.2945 C   0  0  0  0  0  0  0  0  0  0  0  0
    9.7148  -16.0975   21.1703 C   0  0  1  0  0  0  0  0  0  0  0  0
   10.0227  -14.7627   20.9237 O   0  0  0  0  0  0  0  0  0  0  0  0
    9.5188  -16.4008   22.6182 C   0  0  2  0  0  0  0  0  0  0  0  0
    8.3131  -15.9293   23.2057 N   0  0  0  0  0  0  0  0  0  0  0  0
   10.6819  -15.8250   23.3525 C   0  0  0  0  0  0  0  0  0  0  0  0
   10.6456  -14.6333   23.8105 O   0  0  0  0  0  0  0  0  0  0  0  0
   11.8799  -16.5358   23.5906 N   0  0  0  0  0  0  0  0  0  0  0  0
   12.9757  -15.9749   24.4135 C   0  0  1  0  0  0  0  0  0  0  0  0
   13.0639  -16.6773   25.7177 C   0  0  0  0  0  0  0  0  0  0  0  0
   12.1686  -16.0494   26.7395 C   0  0  0  0  0  0  0  0  0  0  0  0
   12.2473  -16.7512   28.0883 C   0  0  0  0  0  0  0  0  0  0  0  0
   11.2089  -16.1266   29.0311 C   0  0  0  0  0  0  0  0  0  0  0  0
   11.2067  -16.7948   30.3190 N   0  0  0  0  0  0  0  0  0  0  0  0
   14.1921  -16.1625   23.6221 C   0  0  0  0  0  0  0  0  0  0  0  0
   15.3039  -15.3744   23.8228 O   0  0  0  0  0  0  0  0  0  0  0  0
   14.2575  -17.0417   22.7423 O   0  0  0  0  0  0  0  0  0  0  0  0
  1  2  1  0
  3  2  1  0
  4  3  1  0
  5  4  1  0
  5  6  1  1
  7 13  1  0
  7  5  1  0
  8  7  2  0
 10 12  1  0
 10  9  1  6
 11 10  1  0
 12 13  1  1
 14 12  1  0
 14 15  2  0
 16 14  1  0
 17 16  1  0
 17 23  1  0
 17 18  1  1
 19 18  1  0
 20 19  1  0
 21 20  1  0
 21 22  1  0
 23 25  2  0
 23 24  1  0
M  END
$$$$
