MTK.pdb
     RDKit          3D

 25 24  0  0  1  0  0  0  0  0999 V2000
    7.8534  -12.0857   20.5334 C   0  0  0  0  0  0  0  0  0  0  0  0
    6.8206  -12.3587   19.0690 S   0  0  0  0  0  0  0  0  0  0  0  0
    7.5867  -13.6174   17.9985 C   0  0  0  0  0  0  0  0  0  0  0  0
    8.1422  -14.7158   18.8802 C   0  0  0  0  0  0  0  0  0  0  0  0
    8.9417  -15.7228   18.0795 C   0  0  2  0  0  0  0  0  0  0  0  0
    8.0635  -16.3198   17.1100 N   0  0  0  0  0  0  0  0  0  0  0  0
    9.5141  -16.6898   19.0230 C   0  0  0  0  0  0  0  0  0  0  0  0
    9.1566  -17.8905   18.9363 O   0  0  0  0  0  0  0  0  0  0  0  0
   11.0992  -19.2812   19.1566 C   0  0  0  0  0  0  0  0  0  0  0  0
   11.9234  -18.3929   20.0555 C   0  0  1  0  0  0  0  0  0  0  0  0
   13.0099  -17.8301   19.3921 O   0  0  0  0  0  0  0  0  0  0  0  0
   11.1109  -17.3947   20.8108 C   0  0  2  0  0  0  0  0  0  0  0  0
   10.4413  -16.4081   20.0366 N   0  0  0  0  0  0  0  0  0  0  0  0
   12.0237  -16.7234   21.7802 C   0  0  0  0  0  0  0  0  0  0  0  0
   12.4897  -15.5577   21.5452 O   0  0  0  0  0  0  0  0  0  0  0  0
   12.4309  -17.3109   22.9992 N   0  0  0  0  0  0  0  0  0  0  0  0
   12.6272  -16.5110   24.2297 C   0  0  1  0  0  0  0  0  0  0  0  0
   11.9521  -17.1525   25.3851 C   0  0  0  0  0  0  0  0  0  0  0  0
   12.1329  -16.3537   26.6376 C   0  0  0  0  0  0  0  0  0  0  0  0
   11.6238  -17.0869   27.8710 C   0  0  0  0  0  0  0  0  0  0  0  0
   11.8204  -16.1849   29.0977 C   0  0  0  0  0  0  0  0  0  0  0  0
   11.3955  -16.8570   30.3115 N   0  0  0  0  0  0  0  0  0  0  0  0
   14.0760  -16.4469   24.4254 C   0  0  0  0  0  0  0  0  0  0  0  0
   14.6659  -15.3696   25.0490 O   0  0  0  0  0  0  0  0  0  0  0  0
   14.8190  -17.3662   24.0329 O   0  0  0  0  0  0  0  0  0  0  0  0
  1  2  1  0
  3  2  1  0
  4  3  1  0
  5  4  1  0
  5  6  1  6
  7 13  1  0
  7  5  1  0
  8  7  2  0
 10 12  1  0
 10  9  1  6
 11 10  1  0
 12 13  1  6
 14 12  1  0
 14 15  2  0
 16 14  1  0
 17 16  1  0
 17 23  1  0
 17 18  1  1
 19 18  1  0
 20 19  1  0
 21 20  1  0
 21 22  1  0
 23 25  2  0
 23 24  1  0
M  END
$$$$
