MTK.pdb
     RDKit          3D

 25 24  0  0  1  0  0  0  0  0999 V2000
    8.1775  -11.2059   25.2702 C   0  0  0  0  0  0  0  0  0  0  0  0
    6.9552  -11.9780   26.3636 S   0  0  0  0  0  0  0  0  0  0  0  0
    6.1598  -13.3770   25.5108 C   0  0  0  0  0  0  0  0  0  0  0  0
    7.0981  -14.5640   25.5694 C   0  0  0  0  0  0  0  0  0  0  0  0
    6.5871  -15.7205   24.7353 C   0  0  2  0  0  0  0  0  0  0  0  0
    5.3421  -16.1633   25.3024 N   0  0  0  0  0  0  0  0  0  0  0  0
    7.6259  -16.7566   24.7253 C   0  0  0  0  0  0  0  0  0  0  0  0
    7.5355  -17.6994   25.5500 O   0  0  0  0  0  0  0  0  0  0  0  0
    9.4483  -18.3384   21.2933 C   0  0  0  0  0  0  0  0  0  0  0  0
   10.3510  -18.0585   22.4694 C   0  0  1  0  0  0  0  0  0  0  0  0
   11.2349  -17.0122   22.2212 O   0  0  0  0  0  0  0  0  0  0  0  0
    9.6171  -17.9179   23.7611 C   0  0  2  0  0  0  0  0  0  0  0  0
    8.7367  -16.8070   23.8709 N   0  0  0  0  0  0  0  0  0  0  0  0
   10.6386  -17.8451   24.8449 C   0  0  0  0  0  0  0  0  0  0  0  0
   11.0583  -16.7192   25.2780 O   0  0  0  0  0  0  0  0  0  0  0  0
   11.2040  -18.9859   25.4581 N   0  0  0  0  0  0  0  0  0  0  0  0
   12.0847  -18.8849   26.6441 C   0  0  1  0  0  0  0  0  0  0  0  0
   11.8450  -20.0173   27.5727 C   0  0  0  0  0  0  0  0  0  0  0  0
   12.7500  -19.9506   28.7628 C   0  0  0  0  0  0  0  0  0  0  0  0
   12.5630  -21.1357   29.7001 C   0  0  0  0  0  0  0  0  0  0  0  0
   13.4098  -20.9069   30.9602 C   0  0  0  0  0  0  0  0  0  0  0  0
   13.2212  -21.9820   31.9162 N   0  0  0  0  0  0  0  0  0  0  0  0
   13.4500  -18.9051   26.1179 C   0  0  0  0  0  0  0  0  0  0  0  0
   14.4471  -18.1450   26.6886 O   0  0  0  0  0  0  0  0  0  0  0  0
   13.7507  -19.6112   25.1369 O   0  0  0  0  0  0  0  0  0  0  0  0
  1  2  1  0
  3  2  1  0
  4  3  1  0
  5  4  1  0
  5  6  1  1
  7 13  1  0
  7  5  1  0
  8  7  2  0
 10 12  1  0
 10  9  1  6
 11 10  1  0
 12 13  1  6
 14 12  1  0
 14 15  2  0
 16 14  1  0
 17 16  1  0
 17 23  1  0
 17 18  1  1
 19 18  1  0
 20 19  1  0
 21 20  1  0
 21 22  1  0
 23 25  2  0
 23 24  1  0
M  END
$$$$
