MTK.pdb
     RDKit          3D

 25 24  0  0  1  0  0  0  0  0999 V2000
    8.2463  -11.2765   26.5553 C   0  0  0  0  0  0  0  0  0  0  0  0
    6.4736  -11.2274   26.9305 S   0  0  0  0  0  0  0  0  0  0  0  0
    5.6257  -12.6028   26.0898 C   0  0  0  0  0  0  0  0  0  0  0  0
    6.6700  -13.6095   25.6555 C   0  0  0  0  0  0  0  0  0  0  0  0
    6.0621  -14.7205   24.8246 C   0  0  2  0  0  0  0  0  0  0  0  0
    5.1362  -15.4425   25.6546 N   0  0  0  0  0  0  0  0  0  0  0  0
    7.1605  -15.5498   24.3162 C   0  0  0  0  0  0  0  0  0  0  0  0
    7.5384  -16.5277   25.0077 O   0  0  0  0  0  0  0  0  0  0  0  0
    7.8809  -16.2448   20.2547 C   0  0  0  0  0  0  0  0  0  0  0  0
    9.1086  -16.1479   21.1263 C   0  0  1  0  0  0  0  0  0  0  0  0
    9.8956  -15.0439   20.8117 O   0  0  0  0  0  0  0  0  0  0  0  0
    8.8128  -16.2662   22.5842 C   0  0  2  0  0  0  0  0  0  0  0  0
    7.8502  -15.3616   23.1099 N   0  0  0  0  0  0  0  0  0  0  0  0
   10.1018  -16.0914   23.3131 C   0  0  0  0  0  0  0  0  0  0  0  0
   10.3807  -14.9923   23.9009 O   0  0  0  0  0  0  0  0  0  0  0  0
   11.0855  -17.1018   23.4058 N   0  0  0  0  0  0  0  0  0  0  0  0
   12.0792  -17.1322   24.5032 C   0  0  1  0  0  0  0  0  0  0  0  0
   11.8975  -18.3435   25.3412 C   0  0  0  0  0  0  0  0  0  0  0  0
   12.9783  -18.4653   26.3692 C   0  0  0  0  0  0  0  0  0  0  0  0
   12.7719  -19.6617   27.2878 C   0  0  0  0  0  0  0  0  0  0  0  0
   13.9175  -19.7032   28.3092 C   0  0  0  0  0  0  0  0  0  0  0  0
   13.7256  -20.7798   29.2630 N   0  0  0  0  0  0  0  0  0  0  0  0
   13.3861  -17.1287   23.8452 C   0  0  0  0  0  0  0  0  0  0  0  0
   13.5627  -17.6989   22.6037 O   0  0  0  0  0  0  0  0  0  0  0  0
   14.3787  -16.6094   24.3897 O   0  0  0  0  0  0  0  0  0  0  0  0
  1  2  1  0
  3  2  1  0
  4  3  1  0
  5  4  1  0
  5  6  1  1
  7 13  1  0
  7  5  1  0
  8  7  2  0
 10 12  1  0
 10  9  1  6
 11 10  1  0
 12 13  1  1
 14 12  1  0
 14 15  2  0
 16 14  1  0
 17 16  1  0
 17 23  1  0
 17 18  1  6
 19 18  1  0
 20 19  1  0
 21 20  1  0
 21 22  1  0
 23 25  2  0
 23 24  1  0
M  END
$$$$
