MTK.pdb
     RDKit          3D

 25 24  0  0  1  0  0  0  0  0999 V2000
    7.8323  -11.3791   27.8996 C   0  0  0  0  0  0  0  0  0  0  0  0
    6.5139  -10.9976   26.7155 S   0  0  0  0  0  0  0  0  0  0  0  0
    5.6815  -12.5338   26.2015 C   0  0  0  0  0  0  0  0  0  0  0  0
    6.7196  -13.4580   25.6009 C   0  0  0  0  0  0  0  0  0  0  0  0
    6.0854  -14.6999   25.0096 C   0  0  2  0  0  0  0  0  0  0  0  0
    5.4432  -15.4225   26.0740 N   0  0  0  0  0  0  0  0  0  0  0  0
    7.1426  -15.4648   24.3389 C   0  0  0  0  0  0  0  0  0  0  0  0
    7.6066  -16.4767   24.9202 O   0  0  0  0  0  0  0  0  0  0  0  0
    7.5155  -15.7169   20.1493 C   0  0  0  0  0  0  0  0  0  0  0  0
    8.8002  -15.7507   20.9397 C   0  0  1  0  0  0  0  0  0  0  0  0
    9.5960  -14.6332   20.7049 O   0  0  0  0  0  0  0  0  0  0  0  0
    8.5978  -16.0375   22.3901 C   0  0  2  0  0  0  0  0  0  0  0  0
    7.7039  -15.1786   23.0861 N   0  0  0  0  0  0  0  0  0  0  0  0
    9.9376  -15.9862   23.0427 C   0  0  0  0  0  0  0  0  0  0  0  0
   10.3414  -14.9277   23.6325 O   0  0  0  0  0  0  0  0  0  0  0  0
   10.8372  -17.0759   23.0574 N   0  0  0  0  0  0  0  0  0  0  0  0
   11.8763  -17.2226   24.1020 C   0  0  1  0  0  0  0  0  0  0  0  0
   11.5048  -18.2892   25.0646 C   0  0  0  0  0  0  0  0  0  0  0  0
   12.5996  -18.5398   26.0537 C   0  0  0  0  0  0  0  0  0  0  0  0
   12.2625  -19.6691   27.0174 C   0  0  0  0  0  0  0  0  0  0  0  0
   13.4091  -19.8144   28.0281 C   0  0  0  0  0  0  0  0  0  0  0  0
   13.1478  -20.8958   28.9597 N   0  0  0  0  0  0  0  0  0  0  0  0
   13.1065  -17.5562   23.3833 C   0  0  0  0  0  0  0  0  0  0  0  0
   14.3443  -17.2546   23.9070 O   0  0  0  0  0  0  0  0  0  0  0  0
   13.0700  -18.1233   22.2749 O   0  0  0  0  0  0  0  0  0  0  0  0
  1  2  1  0
  3  2  1  0
  4  3  1  0
  5  4  1  0
  5  6  1  1
  7 13  1  0
  7  5  1  0
  8  7  2  0
 10 12  1  0
 10  9  1  1
 11 10  1  0
 12 13  1  1
 14 12  1  0
 14 15  2  0
 16 14  1  0
 17 16  1  0
 17 23  1  0
 17 18  1  1
 19 18  1  0
 20 19  1  0
 21 20  1  0
 21 22  1  0
 23 25  2  0
 23 24  1  0
M  END
$$$$
