HPS.pdb
     RDKit          3D

 24 25  0  0  1  0  0  0  0  0999 V2000
   22.8856  -17.9749  -18.7349 N   0  0  0  0  0  0  0  0  0  0  0  0
   23.1239  -17.5940  -17.4007 C   0  0  1  0  0  0  0  0  0  0  0  0
   21.7850  -17.7000  -16.6670 C   0  0  0  0  0  0  0  0  0  0  0  0
   20.8508  -16.6479  -17.1498 C   0  0  0  0  0  0  0  0  0  0  0  0
   20.0551  -16.6735  -18.2791 C   0  0  0  0  0  0  0  0  0  0  0  0
   19.3509  -15.5225  -18.3642 N   0  0  0  0  0  0  0  0  0  0  0  0
   19.6893  -14.7778  -17.3123 C   0  0  0  0  0  0  0  0  0  0  0  0
   20.5908  -15.4482  -16.5778 N   0  0  0  0  0  0  0  0  0  0  0  0
   24.1446  -18.3608  -16.6535 C   0  0  0  0  0  0  0  0  0  0  0  0
   24.2227  -19.6197  -16.9818 O   0  0  0  0  0  0  0  0  0  0  0  0
   24.9978  -17.8594  -15.6614 N   0  0  0  0  0  0  0  0  0  0  0  0
   25.0760  -16.5713  -15.0647 C   0  0  0  0  0  0  0  0  0  0  0  0
   26.5857  -16.3028  -15.1678 C   0  0  0  0  0  0  0  0  0  0  0  0
   27.1868  -17.6459  -14.9502 C   0  0  0  0  0  0  0  0  0  0  0  0
   26.0425  -18.6285  -15.0123 C   0  0  1  0  0  0  0  0  0  0  0  0
   25.6353  -19.0772  -13.6567 C   0  0  0  0  0  0  0  0  0  0  0  0
   24.9686  -18.2873  -12.9423 O   0  0  0  0  0  0  0  0  0  0  0  0
   25.5088  -22.9165  -12.9005 O   0  0  0  0  0  0  0  0  0  0  0  0
   24.7360  -22.0955  -12.0780 C   0  0  0  0  0  0  0  0  0  0  0  0
   25.5301  -20.8092  -11.8204 C   0  0  2  0  0  0  0  0  0  0  0  0
   25.9531  -20.3378  -13.1249 N   0  0  0  0  0  0  0  0  0  0  0  0
   26.7315  -21.0990  -10.9966 C   0  0  0  0  0  0  0  0  0  0  0  0
   27.8981  -20.9800  -11.4411 O   0  0  0  0  0  0  0  0  0  0  0  0
   26.5967  -21.5190   -9.6828 O   0  0  0  0  0  0  0  0  0  0  0  0
  2  1  1  6
  3  2  1  0
  4  3  1  0
  4  5  2  0
  6  5  1  0
  7  6  1  0
  8  7  2  0
  8  4  1  0
  9  2  1  0
 10  9  2  0
 11 15  1  0
 11  9  1  0
 12 11  1  0
 13 12  1  0
 13 14  1  0
 14 15  1  0
 16 17  2  0
 15 16  1  1
 18 19  1  0
 20 19  1  6
 20 22  1  0
 20 21  1  0
 21 16  1  0
 22 24  1  0
 23 22  2  0
M  END
$$$$
