HPS.pdb
     RDKit          3D

 24 25  0  0  1  0  0  0  0  0999 V2000
   40.7084  -10.5270   -8.3157 N   0  0  0  0  0  0  0  0  0  0  0  0
   40.0773   -9.9094   -9.4122 C   0  0  1  0  0  0  0  0  0  0  0  0
   38.6112  -10.3471   -9.3798 C   0  0  0  0  0  0  0  0  0  0  0  0
   37.9656   -9.8848   -8.1219 C   0  0  0  0  0  0  0  0  0  0  0  0
   37.2252   -8.7356   -7.9212 C   0  0  0  0  0  0  0  0  0  0  0  0
   36.8126   -8.6805   -6.6348 N   0  0  0  0  0  0  0  0  0  0  0  0
   37.2791   -9.7706   -6.0271 C   0  0  0  0  0  0  0  0  0  0  0  0
   37.9733  -10.4993   -6.9151 N   0  0  0  0  0  0  0  0  0  0  0  0
   40.1378   -8.4329   -9.4800 C   0  0  0  0  0  0  0  0  0  0  0  0
   40.7126   -7.8678   -8.4559 O   0  0  0  0  0  0  0  0  0  0  0  0
   39.6451   -7.6289  -10.5165 N   0  0  0  0  0  0  0  0  0  0  0  0
   38.9401   -7.9686  -11.7035 C   0  0  0  0  0  0  0  0  0  0  0  0
   39.7453   -7.1779  -12.7469 C   0  0  0  0  0  0  0  0  0  0  0  0
   40.1235   -5.9377  -12.0179 C   0  0  0  0  0  0  0  0  0  0  0  0
   39.7785   -6.1854  -10.5693 C   0  0  1  0  0  0  0  0  0  0  0  0
   38.5182   -5.5009  -10.1844 C   0  0  0  0  0  0  0  0  0  0  0  0
   37.4949   -6.2027   -9.9867 O   0  0  0  0  0  0  0  0  0  0  0  0
   37.4060   -3.3382   -6.6556 O   0  0  0  0  0  0  0  0  0  0  0  0
   38.1970   -3.8850   -7.6672 C   0  0  0  0  0  0  0  0  0  0  0  0
   37.5959   -3.4614   -9.0129 C   0  0  2  0  0  0  0  0  0  0  0  0
   38.4033   -4.1098  -10.0281 N   0  0  0  0  0  0  0  0  0  0  0  0
   37.6939   -1.9891   -9.1828 C   0  0  0  0  0  0  0  0  0  0  0  0
   38.6821   -1.4374   -9.7228 O   0  0  0  0  0  0  0  0  0  0  0  0
   36.6735   -1.1624   -8.7401 O   0  0  0  0  0  0  0  0  0  0  0  0
  2  1  1  1
  3  2  1  0
  4  3  1  0
  4  5  2  0
  6  5  1  0
  7  6  1  0
  8  7  2  0
  8  4  1  0
  9  2  1  0
 10  9  2  0
 11 15  1  0
 11  9  1  0
 12 11  1  0
 13 12  1  0
 13 14  1  0
 14 15  1  0
 16 17  2  0
 15 16  1  6
 18 19  1  0
 20 19  1  1
 20 22  1  0
 20 21  1  0
 21 16  1  0
 22 24  1  0
 23 22  2  0
M  END
$$$$
