HPS.pdb
     RDKit          3D

 24 25  0  0  1  0  0  0  0  0999 V2000
   22.1232  -21.1970  -13.5413 N   0  0  0  0  0  0  0  0  0  0  0  0
   23.4312  -21.0730  -14.0471 C   0  0  1  0  0  0  0  0  0  0  0  0
   23.3809  -21.5166  -15.5110 C   0  0  0  0  0  0  0  0  0  0  0  0
   23.1767  -22.9877  -15.5943 C   0  0  0  0  0  0  0  0  0  0  0  0
   24.1115  -23.9862  -15.3991 C   0  0  0  0  0  0  0  0  0  0  0  0
   23.5270  -25.1940  -15.5653 N   0  0  0  0  0  0  0  0  0  0  0  0
   22.2467  -24.9719  -15.8602 C   0  0  0  0  0  0  0  0  0  0  0  0
   22.0289  -23.6476  -15.8794 N   0  0  0  0  0  0  0  0  0  0  0  0
   24.0589  -19.7357  -13.9704 C   0  0  0  0  0  0  0  0  0  0  0  0
   23.2375  -18.7694  -13.6701 O   0  0  0  0  0  0  0  0  0  0  0  0
   25.4114  -19.4401  -14.1871 N   0  0  0  0  0  0  0  0  0  0  0  0
   26.5011  -20.2783  -14.5493 C   0  0  0  0  0  0  0  0  0  0  0  0
   27.5488  -19.8445  -13.5119 C   0  0  0  0  0  0  0  0  0  0  0  0
   27.2954  -18.3867  -13.3599 C   0  0  0  0  0  0  0  0  0  0  0  0
   25.9908  -18.1154  -14.0693 C   0  0  1  0  0  0  0  0  0  0  0  0
   26.2124  -17.4906  -15.3979 C   0  0  0  0  0  0  0  0  0  0  0  0
   26.5184  -18.2345  -16.3632 O   0  0  0  0  0  0  0  0  0  0  0  0
   25.9144  -13.5598  -15.6185 O   0  0  0  0  0  0  0  0  0  0  0  0
   25.2097  -14.1563  -16.6651 C   0  0  0  0  0  0  0  0  0  0  0  0
   25.8475  -15.5234  -16.9405 C   0  0  2  0  0  0  0  0  0  0  0  0
   26.0994  -16.1115  -15.6391 N   0  0  0  0  0  0  0  0  0  0  0  0
   27.1387  -15.3573  -17.6556 C   0  0  0  0  0  0  0  0  0  0  0  0
   28.2470  -15.5174  -17.0912 O   0  0  0  0  0  0  0  0  0  0  0  0
   27.1580  -15.0126  -18.9978 O   0  0  0  0  0  0  0  0  0  0  0  0
  2  1  1  6
  3  2  1  0
  4  3  1  0
  4  5  2  0
  6  5  1  0
  7  6  1  0
  8  7  2  0
  8  4  1  0
  9  2  1  0
 10  9  2  0
 11 15  1  0
 11  9  1  0
 12 11  1  0
 13 12  1  0
 13 14  1  0
 14 15  1  0
 16 17  2  0
 15 16  1  6
 18 19  1  0
 20 19  1  1
 20 22  1  0
 20 21  1  0
 21 16  1  0
 22 24  1  0
 23 22  2  0
M  END
$$$$
