HPS.pdb
     RDKit          3D

 24 25  0  0  1  0  0  0  0  0999 V2000
-11692.2344-21129.3457-72828.3281 N   0  0  0  0  0  0  0  0  0  0  0  0
-11691.9629-21128.4766-72827.2656 C   0  0  1  0  0  0  0  0  0  0  0  0
-11690.9111-21127.4766-72827.7344 C   0  0  0  0  0  0  0  0  0  0  0  0
-11689.7881-21128.1875-72828.3828 C   0  0  0  0  0  0  0  0  0  0  0  0
-11688.4443-21128.0684-72828.1250 C   0  0  0  0  0  0  0  0  0  0  0  0
-11687.7451-21128.9043-72828.9609 N   0  0  0  0  0  0  0  0  0  0  0  0
-11688.6279-21129.5137-72829.7422 C   0  0  0  0  0  0  0  0  0  0  0  0
-11689.8564-21129.0762-72829.3984 N   0  0  0  0  0  0  0  0  0  0  0  0
-11693.1074-21127.7422-72826.6797 C   0  0  0  0  0  0  0  0  0  0  0  0
-11694.2695-21128.2500-72826.9609 O   0  0  0  0  0  0  0  0  0  0  0  0
-11693.0371-21126.5918-72825.8828 N   0  0  0  0  0  0  0  0  0  0  0  0
-11693.2803-21125.2285-72826.1875 C   0  0  0  0  0  0  0  0  0  0  0  0
-11692.0273-21124.5703-72825.6016 C   0  0  0  0  0  0  0  0  0  0  0  0
-11691.7666-21125.3750-72824.3828 C   0  0  0  0  0  0  0  0  0  0  0  0
-11692.6631-21126.5801-72824.4766 C   0  0  1  0  0  0  0  0  0  0  0  0
-11693.8604-21126.4473-72823.6094 C   0  0  0  0  0  0  0  0  0  0  0  0
-11693.7285-21125.8145-72822.5078 O   0  0  0  0  0  0  0  0  0  0  0  0
-11696.2090-21124.9961-72823.2969 O   0  0  0  0  0  0  0  0  0  0  0  0
-11696.6875-21125.3086-72824.5703 C   0  0  0  0  0  0  0  0  0  0  0  0
-11695.9404-21126.5586-72825.0312 C   0  0  2  0  0  0  0  0  0  0  0  0
-11695.1143-21126.9688-72823.8906 N   0  0  0  0  0  0  0  0  0  0  0  0
-11695.0674-21126.2285-72826.1875 C   0  0  0  0  0  0  0  0  0  0  0  0
-11694.7559-21125.0391-72826.4688 O   0  0  0  0  0  0  0  0  0  0  0  0
-11694.5479-21127.2305-72826.9766 O   0  0  0  0  0  0  0  0  0  0  0  0
  2  1  1  6
  3  2  1  0
  4  3  1  0
  4  5  2  0
  6  5  1  0
  7  6  1  0
  8  7  2  0
  8  4  1  0
  9  2  1  0
 10  9  2  0
 11 15  1  0
 11  9  1  0
 12 11  1  0
 13 12  1  0
 13 14  1  0
 14 15  1  0
 16 17  2  0
 15 16  1  1
 18 19  1  0
 20 19  1  1
 20 22  1  0
 20 21  1  0
 21 16  1  0
 22 24  1  0
 23 22  2  0
M  END
$$$$
