IWV.pdb
     RDKit          3D

 30 31  0  0  1  0  0  0  0  0999 V2000
   25.7777  -16.5410  -20.0375 C   0  0  0  0  0  0  0  0  0  0  0  0
   26.3187  -16.4854  -18.6428 C   0  0  0  0  0  0  0  0  0  0  0  0
   25.6624  -17.5283  -17.7402 C   0  0  2  0  0  0  0  0  0  0  0  0
   24.5779  -16.8681  -16.9611 C   0  0  0  0  0  0  0  0  0  0  0  0
   26.7697  -18.1317  -16.9270 C   0  0  2  0  0  0  0  0  0  0  0  0
   27.6311  -18.8204  -17.9069 N   0  0  0  0  0  0  0  0  0  0  0  0
   26.2706  -19.1340  -15.9221 C   0  0  0  0  0  0  0  0  0  0  0  0
   25.8267  -20.2221  -16.3603 O   0  0  0  0  0  0  0  0  0  0  0  0
   26.2932  -18.8815  -14.5549 N   0  0  0  0  0  0  0  0  0  0  0  0
   25.8155  -19.8722  -13.5654 C   0  0  1  0  0  0  0  0  0  0  0  0
   26.6666  -19.7179  -12.3631 C   0  0  0  0  0  0  0  0  0  0  0  0
   26.3376  -20.6140  -11.2446 C   0  0  0  0  0  0  0  0  0  0  0  0
   26.1210  -21.9791  -11.2863 C   0  0  0  0  0  0  0  0  0  0  0  0
   25.8253  -22.3740  -10.0373 N   0  0  0  0  0  0  0  0  0  0  0  0
   25.8470  -21.3084   -9.2077 C   0  0  0  0  0  0  0  0  0  0  0  0
   25.6102  -21.2123   -7.8393 C   0  0  0  0  0  0  0  0  0  0  0  0
   25.7088  -19.9622   -7.2609 C   0  0  0  0  0  0  0  0  0  0  0  0
   26.0271  -18.8346   -7.9816 C   0  0  0  0  0  0  0  0  0  0  0  0
   26.2573  -18.9506   -9.3323 C   0  0  0  0  0  0  0  0  0  0  0  0
   26.1636  -20.1875   -9.9250 C   0  0  0  0  0  0  0  0  0  0  0  0
   24.3721  -19.7183  -13.3782 C   0  0  0  0  0  0  0  0  0  0  0  0
   23.9047  -18.5455  -13.2186 O   0  0  0  0  0  0  0  0  0  0  0  0
   21.5430  -20.3377  -15.4115 C   0  0  0  0  0  0  0  0  0  0  0  0
   21.2032  -21.0269  -14.1206 C   0  0  1  0  0  0  0  0  0  0  0  0
   21.5225  -22.5060  -14.2987 C   0  0  0  0  0  0  0  0  0  0  0  0
   22.0826  -20.5310  -12.9854 C   0  0  2  0  0  0  0  0  0  0  0  0
   23.4535  -20.8075  -13.3683 N   0  0  0  0  0  0  0  0  0  0  0  0
   21.7261  -21.2304  -11.7447 C   0  0  0  0  0  0  0  0  0  0  0  0
   20.5346  -20.9502  -11.0928 O   0  0  0  0  0  0  0  0  0  0  0  0
   22.4679  -22.0954  -11.2283 O   0  0  0  0  0  0  0  0  0  0  0  0
  1  2  1  0
  2  3  1  0
  3  4  1  1
  5  3  1  0
  5  6  1  6
  7  9  1  0
  7  5  1  0
  8  7  2  0
 10  9  1  0
 10 11  1  1
 12 13  2  0
 12 11  1  0
 14 13  1  0
 15 20  2  0
 15 14  1  0
 16 15  1  0
 17 18  1  0
 17 16  2  0
 18 19  2  0
 19 20  1  0
 20 12  1  0
 21 10  1  0
 21 27  1  0
 22 21  2  0
 24 23  1  6
 24 26  1  0
 24 25  1  0
 26 27  1  6
 26 28  1  0
 28 29  1  0
 30 28  2  0
M  END
$$$$
