IWV.pdb
     RDKit          3D

 30 31  0  0  1  0  0  0  0  0999 V2000
   24.5352  -19.0122  -16.0348 C   0  0  0  0  0  0  0  0  0  0  0  0
   23.4642  -19.0340  -14.9890 C   0  0  0  0  0  0  0  0  0  0  0  0
   23.7278  -20.1052  -13.9326 C   0  0  2  0  0  0  0  0  0  0  0  0
   23.9562  -21.4063  -14.6212 C   0  0  0  0  0  0  0  0  0  0  0  0
   22.5560  -20.0642  -12.9962 C   0  0  2  0  0  0  0  0  0  0  0  0
   22.3871  -18.6381  -12.6585 N   0  0  0  0  0  0  0  0  0  0  0  0
   22.7974  -20.8429  -11.7318 C   0  0  0  0  0  0  0  0  0  0  0  0
   22.8922  -22.0898  -11.8283 O   0  0  0  0  0  0  0  0  0  0  0  0
   22.9145  -20.2210  -10.4937 N   0  0  0  0  0  0  0  0  0  0  0  0
   23.0988  -20.9897   -9.2430 C   0  0  1  0  0  0  0  0  0  0  0  0
   24.0532  -20.2237   -8.4088 C   0  0  0  0  0  0  0  0  0  0  0  0
   25.4736  -20.5033   -8.6667 C   0  0  0  0  0  0  0  0  0  0  0  0
   26.0224  -21.1989   -9.7283 C   0  0  0  0  0  0  0  0  0  0  0  0
   27.3518  -21.2297   -9.5401 N   0  0  0  0  0  0  0  0  0  0  0  0
   27.6632  -20.5789   -8.3982 C   0  0  0  0  0  0  0  0  0  0  0  0
   28.8919  -20.3450   -7.7872 C   0  0  0  0  0  0  0  0  0  0  0  0
   28.8907  -19.6349   -6.6028 C   0  0  0  0  0  0  0  0  0  0  0  0
   27.7364  -19.1626   -6.0225 C   0  0  0  0  0  0  0  0  0  0  0  0
   26.5327  -19.4042   -6.6418 C   0  0  0  0  0  0  0  0  0  0  0  0
   26.5150  -20.1095   -7.8217 C   0  0  0  0  0  0  0  0  0  0  0  0
   21.7918  -21.2825   -8.6530 C   0  0  0  0  0  0  0  0  0  0  0  0
   20.9200  -20.3559   -8.6241 O   0  0  0  0  0  0  0  0  0  0  0  0
   18.0432  -24.1012   -7.9429 C   0  0  0  0  0  0  0  0  0  0  0  0
   19.4384  -23.8160   -8.4214 C   0  0  1  0  0  0  0  0  0  0  0  0
   19.3301  -23.2901   -9.8473 C   0  0  0  0  0  0  0  0  0  0  0  0
   20.0841  -22.7106   -7.6035 C   0  0  2  0  0  0  0  0  0  0  0  0
   21.4331  -22.5503   -8.1103 N   0  0  0  0  0  0  0  0  0  0  0  0
   20.0909  -23.0875   -6.1846 C   0  0  0  0  0  0  0  0  0  0  0  0
   18.9653  -22.8968   -5.3973 O   0  0  0  0  0  0  0  0  0  0  0  0
   21.0946  -23.5889   -5.6310 O   0  0  0  0  0  0  0  0  0  0  0  0
  1  2  1  0
  2  3  1  0
  3  4  1  6
  5  3  1  0
  5  6  1  1
  7  9  1  0
  7  5  1  0
  8  7  2  0
 10  9  1  0
 10 11  1  1
 12 13  2  0
 12 11  1  0
 14 13  1  0
 15 20  2  0
 15 14  1  0
 16 15  1  0
 17 18  1  0
 17 16  2  0
 18 19  2  0
 19 20  1  0
 20 12  1  0
 21 10  1  0
 21 27  1  0
 22 21  2  0
 24 23  1  1
 24 26  1  0
 24 25  1  0
 26 27  1  6
 26 28  1  0
 28 29  1  0
 30 28  2  0
M  END
$$$$
