IWV.pdb
     RDKit          3D

 30 31  0  0  1  0  0  0  0  0999 V2000
   24.3158  -19.2690  -17.1606 C   0  0  0  0  0  0  0  0  0  0  0  0
   25.4683  -19.5307  -16.2417 C   0  0  0  0  0  0  0  0  0  0  0  0
   25.0114  -20.1612  -14.9277 C   0  0  2  0  0  0  0  0  0  0  0  0
   23.9531  -19.3000  -14.3297 C   0  0  0  0  0  0  0  0  0  0  0  0
   26.2490  -20.3380  -14.0978 C   0  0  2  0  0  0  0  0  0  0  0  0
   27.0824  -21.2920  -14.8539 N   0  0  0  0  0  0  0  0  0  0  0  0
   25.9574  -20.9114  -12.7378 C   0  0  0  0  0  0  0  0  0  0  0  0
   25.6059  -22.1139  -12.6791 O   0  0  0  0  0  0  0  0  0  0  0  0
   26.0687  -20.1523  -11.5781 N   0  0  0  0  0  0  0  0  0  0  0  0
   25.8104  -20.7235  -10.2379 C   0  0  1  0  0  0  0  0  0  0  0  0
   26.9324  -20.2976   -9.3699 C   0  0  0  0  0  0  0  0  0  0  0  0
   26.8372  -20.7294   -7.9675 C   0  0  0  0  0  0  0  0  0  0  0  0
   26.3878  -21.9438   -7.4822 C   0  0  0  0  0  0  0  0  0  0  0  0
   26.4520  -21.8858   -6.1420 N   0  0  0  0  0  0  0  0  0  0  0  0
   26.9257  -20.6791   -5.7627 C   0  0  0  0  0  0  0  0  0  0  0  0
   27.1680  -20.1505   -4.4979 C   0  0  0  0  0  0  0  0  0  0  0  0
   27.6628  -18.8631   -4.4284 C   0  0  0  0  0  0  0  0  0  0  0  0
   27.9175  -18.1051   -5.5478 C   0  0  0  0  0  0  0  0  0  0  0  0
   27.6714  -18.6455   -6.7880 C   0  0  0  0  0  0  0  0  0  0  0  0
   27.1787  -19.9259   -6.8761 C   0  0  0  0  0  0  0  0  0  0  0  0
   24.4618  -20.3573   -9.8028 C   0  0  0  0  0  0  0  0  0  0  0  0
   24.1384  -19.1265   -9.8066 O   0  0  0  0  0  0  0  0  0  0  0  0
   21.6244  -20.1938  -11.2283 C   0  0  0  0  0  0  0  0  0  0  0  0
   21.2091  -20.9566  -10.0025 C   0  0  1  0  0  0  0  0  0  0  0  0
   21.2125  -22.4361  -10.3663 C   0  0  0  0  0  0  0  0  0  0  0  0
   22.2206  -20.7873   -8.8816 C   0  0  2  0  0  0  0  0  0  0  0  0
   23.4826  -21.3010   -9.3774 N   0  0  0  0  0  0  0  0  0  0  0  0
   21.7727  -21.5309   -7.6976 C   0  0  0  0  0  0  0  0  0  0  0  0
   20.6389  -21.1372   -7.0029 O   0  0  0  0  0  0  0  0  0  0  0  0
   22.3826  -22.5357   -7.2692 O   0  0  0  0  0  0  0  0  0  0  0  0
  1  2  1  0
  2  3  1  0
  3  4  1  1
  5  3  1  0
  5  6  1  6
  7  9  1  0
  7  5  1  0
  8  7  2  0
 10  9  1  0
 10 11  1  1
 12 13  2  0
 12 11  1  0
 14 13  1  0
 15 20  2  0
 15 14  1  0
 16 15  1  0
 17 18  1  0
 17 16  2  0
 18 19  2  0
 19 20  1  0
 20 12  1  0
 21 10  1  0
 21 27  1  0
 22 21  2  0
 24 23  1  6
 24 26  1  0
 24 25  1  0
 26 27  1  6
 26 28  1  0
 28 29  1  0
 30 28  2  0
M  END
$$$$
