IWV.pdb
     RDKit          3D

 30 31  0  0  1  0  0  0  0  0999 V2000
   31.8900  -18.7304  -18.3991 C   0  0  0  0  0  0  0  0  0  0  0  0
   30.4866  -18.5367  -18.8832 C   0  0  0  0  0  0  0  0  0  0  0  0
   29.5026  -18.4003  -17.7230 C   0  0  2  0  0  0  0  0  0  0  0  0
   29.6909  -19.5555  -16.8014 C   0  0  0  0  0  0  0  0  0  0  0  0
   28.1413  -18.2808  -18.3429 C   0  0  2  0  0  0  0  0  0  0  0  0
   28.1942  -17.0429  -19.1437 N   0  0  0  0  0  0  0  0  0  0  0  0
   27.0470  -18.1562  -17.3181 C   0  0  0  0  0  0  0  0  0  0  0  0
   27.1583  -17.2495  -16.4587 O   0  0  0  0  0  0  0  0  0  0  0  0
   25.9455  -19.0048  -17.3085 N   0  0  0  0  0  0  0  0  0  0  0  0
   24.9136  -18.9402  -16.2502 C   0  0  1  0  0  0  0  0  0  0  0  0
   23.6125  -18.7587  -16.9344 C   0  0  0  0  0  0  0  0  0  0  0  0
   22.4365  -18.7571  -16.0517 C   0  0  0  0  0  0  0  0  0  0  0  0
   22.2036  -17.9548  -14.9498 C   0  0  0  0  0  0  0  0  0  0  0  0
   21.0173  -18.3181  -14.4358 N   0  0  0  0  0  0  0  0  0  0  0  0
   20.4920  -19.3208  -15.1726 C   0  0  0  0  0  0  0  0  0  0  0  0
   19.2968  -20.0218  -15.0391 C   0  0  0  0  0  0  0  0  0  0  0  0
   19.0307  -21.0116  -15.9645 C   0  0  0  0  0  0  0  0  0  0  0  0
   19.8932  -21.3179  -16.9915 C   0  0  0  0  0  0  0  0  0  0  0  0
   21.0687  -20.6139  -17.1061 C   0  0  0  0  0  0  0  0  0  0  0  0
   21.3500  -19.6249  -16.1936 C   0  0  0  0  0  0  0  0  0  0  0  0
   25.0421  -20.1035  -15.3714 C   0  0  0  0  0  0  0  0  0  0  0  0
   25.2851  -21.2359  -15.8987 O   0  0  0  0  0  0  0  0  0  0  0  0
   27.2179  -20.7464  -12.5579 C   0  0  0  0  0  0  0  0  0  0  0  0
   25.8581  -21.1596  -12.0710 C   0  0  1  0  0  0  0  0  0  0  0  0
   25.3305  -20.0338  -11.1902 C   0  0  0  0  0  0  0  0  0  0  0  0
   24.8798  -21.2968  -13.2251 C   0  0  2  0  0  0  0  0  0  0  0  0
   24.9155  -20.0435  -13.9534 N   0  0  0  0  0  0  0  0  0  0  0  0
   23.5355  -21.5689  -12.7016 C   0  0  0  0  0  0  0  0  0  0  0  0
   23.2488  -22.7771  -12.0840 O   0  0  0  0  0  0  0  0  0  0  0  0
   22.6040  -20.7382  -12.7873 O   0  0  0  0  0  0  0  0  0  0  0  0
  1  2  1  0
  2  3  1  0
  3  4  1  1
  5  3  1  0
  5  6  1  6
  7  9  1  0
  7  5  1  0
  8  7  2  0
 10  9  1  0
 10 11  1  6
 12 13  2  0
 12 11  1  0
 14 13  1  0
 15 20  2  0
 15 14  1  0
 16 15  1  0
 17 18  1  0
 17 16  2  0
 18 19  2  0
 19 20  1  0
 20 12  1  0
 21 10  1  0
 21 27  1  0
 22 21  2  0
 24 23  1  6
 24 26  1  0
 24 25  1  0
 26 27  1  1
 26 28  1  0
 28 29  1  0
 30 28  2  0
M  END
$$$$
