IWV.pdb
     RDKit          3D

 30 31  0  0  1  0  0  0  0  0999 V2000
   30.3943  -16.9723  -16.7625 C   0  0  0  0  0  0  0  0  0  0  0  0
   29.2700  -17.9484  -16.9180 C   0  0  0  0  0  0  0  0  0  0  0  0
   29.6311  -19.0773  -17.8814 C   0  0  2  0  0  0  0  0  0  0  0  0
   30.0253  -18.4799  -19.1878 C   0  0  0  0  0  0  0  0  0  0  0  0
   28.4407  -19.9902  -17.9187 C   0  0  2  0  0  0  0  0  0  0  0  0
   27.3373  -19.1573  -18.4338 N   0  0  0  0  0  0  0  0  0  0  0  0
   28.0680  -20.5119  -16.5578 C   0  0  0  0  0  0  0  0  0  0  0  0
   28.7864  -21.4151  -16.0666 O   0  0  0  0  0  0  0  0  0  0  0  0
   26.9721  -20.0230  -15.8553 N   0  0  0  0  0  0  0  0  0  0  0  0
   26.5726  -20.5732  -14.5413 C   0  0  1  0  0  0  0  0  0  0  0  0
   26.9479  -19.5635  -13.5247 C   0  0  0  0  0  0  0  0  0  0  0  0
   26.7431  -19.9758  -12.1282 C   0  0  0  0  0  0  0  0  0  0  0  0
   25.5773  -19.9129  -11.3871 C   0  0  0  0  0  0  0  0  0  0  0  0
   25.8619  -20.3709  -10.1571 N   0  0  0  0  0  0  0  0  0  0  0  0
   27.1648  -20.7209  -10.0938 C   0  0  0  0  0  0  0  0  0  0  0  0
   27.9200  -21.2412   -9.0466 C   0  0  0  0  0  0  0  0  0  0  0  0
   29.2539  -21.5028   -9.2902 C   0  0  0  0  0  0  0  0  0  0  0  0
   29.8446  -21.2695  -10.5105 C   0  0  0  0  0  0  0  0  0  0  0  0
   29.0813  -20.7552  -11.5321 C   0  0  0  0  0  0  0  0  0  0  0  0
   27.7515  -20.4887  -11.3075 C   0  0  0  0  0  0  0  0  0  0  0  0
   25.1657  -20.9741  -14.5872 C   0  0  0  0  0  0  0  0  0  0  0  0
   24.3193  -20.1564  -15.0712 O   0  0  0  0  0  0  0  0  0  0  0  0
   23.8882  -24.4758  -15.7251 C   0  0  0  0  0  0  0  0  0  0  0  0
   23.1590  -24.0264  -14.4909 C   0  0  1  0  0  0  0  0  0  0  0  0
   23.8534  -24.6668  -13.2955 C   0  0  0  0  0  0  0  0  0  0  0  0
   23.2752  -22.5236  -14.3010 C   0  0  2  0  0  0  0  0  0  0  0  0
   24.6847  -22.2332  -14.1247 N   0  0  0  0  0  0  0  0  0  0  0  0
   22.4972  -22.1141  -13.1253 C   0  0  0  0  0  0  0  0  0  0  0  0
   23.1336  -21.7571  -11.9460 O   0  0  0  0  0  0  0  0  0  0  0  0
   21.2469  -22.0696  -13.1336 O   0  0  0  0  0  0  0  0  0  0  0  0
  1  2  1  0
  2  3  1  0
  3  4  1  6
  5  3  1  0
  5  6  1  1
  7  9  1  0
  7  5  1  0
  8  7  2  0
 10  9  1  0
 10 11  1  1
 12 13  2  0
 12 11  1  0
 14 13  1  0
 15 20  2  0
 15 14  1  0
 16 15  1  0
 17 18  1  0
 17 16  2  0
 18 19  2  0
 19 20  1  0
 20 12  1  0
 21 10  1  0
 21 27  1  0
 22 21  2  0
 24 23  1  6
 24 26  1  0
 24 25  1  0
 26 27  1  1
 26 28  1  0
 28 29  1  0
 30 28  2  0
M  END
$$$$
