IWV.pdb
     RDKit          3D

 30 31  0  0  1  0  0  0  0  0999 V2000
   25.4717  -19.2235  -16.2858 C   0  0  0  0  0  0  0  0  0  0  0  0
   26.2672  -20.1168  -15.3857 C   0  0  0  0  0  0  0  0  0  0  0  0
   27.4849  -19.3977  -14.8085 C   0  0  2  0  0  0  0  0  0  0  0  0
   28.2784  -18.8283  -15.9334 C   0  0  0  0  0  0  0  0  0  0  0  0
   28.1990  -20.4055  -13.9564 C   0  0  2  0  0  0  0  0  0  0  0  0
   28.3794  -21.5823  -14.8277 N   0  0  0  0  0  0  0  0  0  0  0  0
   27.4023  -20.8086  -12.7456 C   0  0  0  0  0  0  0  0  0  0  0  0
   26.7627  -21.8858  -12.8049 O   0  0  0  0  0  0  0  0  0  0  0  0
   27.3651  -20.0294  -11.5944 N   0  0  0  0  0  0  0  0  0  0  0  0
   26.5920  -20.4315  -10.3987 C   0  0  1  0  0  0  0  0  0  0  0  0
   27.2600  -19.8113   -9.2313 C   0  0  0  0  0  0  0  0  0  0  0  0
   26.7679  -20.2572   -7.9193 C   0  0  0  0  0  0  0  0  0  0  0  0
   25.5926  -20.9291   -7.6374 C   0  0  0  0  0  0  0  0  0  0  0  0
   25.5449  -21.1076   -6.3072 N   0  0  0  0  0  0  0  0  0  0  0  0
   26.6470  -20.5730   -5.7381 C   0  0  0  0  0  0  0  0  0  0  0  0
   27.0464  -20.5088   -4.4062 C   0  0  0  0  0  0  0  0  0  0  0  0
   28.2479  -19.8868   -4.1295 C   0  0  0  0  0  0  0  0  0  0  0  0
   29.0436  -19.3412   -5.1101 C   0  0  0  0  0  0  0  0  0  0  0  0
   28.6312  -19.4150   -6.4198 C   0  0  0  0  0  0  0  0  0  0  0  0
   27.4377  -20.0307   -6.7137 C   0  0  0  0  0  0  0  0  0  0  0  0
   25.1786  -20.1094  -10.6002 C   0  0  0  0  0  0  0  0  0  0  0  0
   24.8784  -18.9537  -11.0402 O   0  0  0  0  0  0  0  0  0  0  0  0
   23.8887  -19.9798  -12.9424 C   0  0  0  0  0  0  0  0  0  0  0  0
   22.8108  -20.8227  -12.3223 C   0  0  1  0  0  0  0  0  0  0  0  0
   23.1604  -22.2800  -12.5971 C   0  0  0  0  0  0  0  0  0  0  0  0
   22.7900  -20.6633  -10.8116 C   0  0  2  0  0  0  0  0  0  0  0  0
   24.1131  -21.0181  -10.3365 N   0  0  0  0  0  0  0  0  0  0  0  0
   21.7654  -21.5442  -10.2375 C   0  0  0  0  0  0  0  0  0  0  0  0
   22.1255  -22.6297   -9.4530 O   0  0  0  0  0  0  0  0  0  0  0  0
   20.5427  -21.3591  -10.4266 O   0  0  0  0  0  0  0  0  0  0  0  0
  1  2  1  0
  2  3  1  0
  3  4  1  6
  5  3  1  0
  5  6  1  6
  7  9  1  0
  7  5  1  0
  8  7  2  0
 10  9  1  0
 10 11  1  1
 12 13  2  0
 12 11  1  0
 14 13  1  0
 15 20  2  0
 15 14  1  0
 16 15  1  0
 17 18  1  0
 17 16  2  0
 18 19  2  0
 19 20  1  0
 20 12  1  0
 21 10  1  0
 21 27  1  0
 22 21  2  0
 24 23  1  6
 24 26  1  0
 24 25  1  0
 26 27  1  1
 26 28  1  0
 28 29  1  0
 30 28  2  0
M  END
$$$$
