VHL.pdb
     RDKit          3D

 26 26  0  0  1  0  0  0  0  0999 V2000
   30.5700  -35.3457   -7.5016 C   0  0  0  0  0  0  0  0  0  0  0  0
   31.1104  -34.9987   -6.1249 C   0  0  1  0  0  0  0  0  0  0  0  0
   31.3684  -33.5055   -6.0693 C   0  0  0  0  0  0  0  0  0  0  0  0
   30.0177  -35.2928   -5.1179 C   0  0  2  0  0  0  0  0  0  0  0  0
   28.7906  -34.6212   -5.5004 N   0  0  0  0  0  0  0  0  0  0  0  0
   30.3684  -34.8784   -3.7545 C   0  0  0  0  0  0  0  0  0  0  0  0
   29.5877  -34.1209   -3.0807 O   0  0  0  0  0  0  0  0  0  0  0  0
   31.5484  -35.2547   -3.0760 N   0  0  0  0  0  0  0  0  0  0  0  0
   31.6935  -35.0845   -1.5985 C   0  0  1  0  0  0  0  0  0  0  0  0
   30.5386  -35.8089   -1.0261 C   0  0  0  0  0  0  0  0  0  0  0  0
   30.4301  -35.8494    0.4436 C   0  0  0  0  0  0  0  0  0  0  0  0
   31.1684  -35.2661    1.4391 C   0  0  0  0  0  0  0  0  0  0  0  0
   30.6331  -35.5430    2.6485 N   0  0  0  0  0  0  0  0  0  0  0  0
   29.5622  -36.2957    2.4141 C   0  0  0  0  0  0  0  0  0  0  0  0
   29.4163  -36.4936    1.1186 N   0  0  0  0  0  0  0  0  0  0  0  0
   33.0075  -35.7034   -1.2552 C   0  0  0  0  0  0  0  0  0  0  0  0
   33.2464  -36.8663   -1.6516 O   0  0  0  0  0  0  0  0  0  0  0  0
   37.6298  -32.6354   -0.6414 C   0  0  0  0  0  0  0  0  0  0  0  0
   36.7142  -33.7721   -1.1182 C   0  0  1  0  0  0  0  0  0  0  0  0
   37.4483  -34.6957   -2.0476 C   0  0  0  0  0  0  0  0  0  0  0  0
   36.1865  -34.4370    0.1067 C   0  0  0  0  0  0  0  0  0  0  0  0
   35.2078  -35.5426   -0.1524 C   0  0  2  0  0  0  0  0  0  0  0  0
   33.9462  -34.9635   -0.4933 N   0  0  0  0  0  0  0  0  0  0  0  0
   35.0753  -36.3051    1.1349 C   0  0  0  0  0  0  0  0  0  0  0  0
   36.0471  -37.1768    1.5882 O   0  0  0  0  0  0  0  0  0  0  0  0
   34.0454  -36.1562    1.8404 O   0  0  0  0  0  0  0  0  0  0  0  0
  2  4  1  0
  2  1  1  6
  3  2  1  0
  4  5  1  6
  6  4  1  0
  6  7  2  0
  8  6  1  0
  9  8  1  0
  9 10  1  1
 11 10  1  0
 11 12  2  0
 13 12  1  0
 14 15  2  0
 14 13  1  0
 15 11  1  0
 16  9  1  0
 17 16  2  0
 19 18  1  1
 19 21  1  0
 20 19  1  0
 22 21  1  1
 22 23  1  0
 22 24  1  0
 23 16  1  0
 24 26  2  0
 24 25  1  0
M  END
$$$$
