VHL.pdb
     RDKit          3D

 26 26  0  0  1  0  0  0  0  0999 V2000
   26.0087  -17.2162  -18.4760 C   0  0  0  0  0  0  0  0  0  0  0  0
   26.8319  -17.9780  -19.5005 C   0  0  1  0  0  0  0  0  0  0  0  0
   27.7707  -17.0047  -20.1866 C   0  0  0  0  0  0  0  0  0  0  0  0
   27.6985  -18.9657  -18.7467 C   0  0  2  0  0  0  0  0  0  0  0  0
   28.5382  -19.7025  -19.6715 N   0  0  0  0  0  0  0  0  0  0  0  0
   26.9186  -19.9281  -17.9598 C   0  0  0  0  0  0  0  0  0  0  0  0
   26.3443  -20.9217  -18.5258 O   0  0  0  0  0  0  0  0  0  0  0  0
   26.7295  -19.8612  -16.5619 N   0  0  0  0  0  0  0  0  0  0  0  0
   25.9237  -20.8836  -15.8282 C   0  0  1  0  0  0  0  0  0  0  0  0
   26.8900  -21.5346  -14.9178 C   0  0  0  0  0  0  0  0  0  0  0  0
   27.8003  -22.5346  -15.5051 C   0  0  0  0  0  0  0  0  0  0  0  0
   29.1336  -22.4970  -15.8174 C   0  0  0  0  0  0  0  0  0  0  0  0
   29.5453  -23.6993  -16.2764 N   0  0  0  0  0  0  0  0  0  0  0  0
   28.4760  -24.4895  -16.2512 C   0  0  0  0  0  0  0  0  0  0  0  0
   27.4286  -23.8283  -15.7992 N   0  0  0  0  0  0  0  0  0  0  0  0
   24.8642  -20.1141  -15.1120 C   0  0  0  0  0  0  0  0  0  0  0  0
   25.1349  -18.9669  -14.6908 O   0  0  0  0  0  0  0  0  0  0  0  0
   21.3158  -16.6732  -16.0949 C   0  0  0  0  0  0  0  0  0  0  0  0
   21.0697  -17.9556  -15.2870 C   0  0  1  0  0  0  0  0  0  0  0  0
   19.7245  -18.5407  -15.6093 C   0  0  0  0  0  0  0  0  0  0  0  0
   22.2131  -18.8670  -15.5749 C   0  0  0  0  0  0  0  0  0  0  0  0
   22.4822  -19.8899  -14.5125 C   0  0  2  0  0  0  0  0  0  0  0  0
   23.5859  -20.6980  -14.9276 N   0  0  0  0  0  0  0  0  0  0  0  0
   21.2483  -20.7412  -14.4179 C   0  0  0  0  0  0  0  0  0  0  0  0
   21.0803  -21.8949  -15.1596 O   0  0  0  0  0  0  0  0  0  0  0  0
   20.3216  -20.4051  -13.6375 O   0  0  0  0  0  0  0  0  0  0  0  0
  2  4  1  0
  2  1  1  1
  3  2  1  0
  4  5  1  6
  6  4  1  0
  6  7  2  0
  8  6  1  0
  9  8  1  0
  9 10  1  1
 11 10  1  0
 11 12  2  0
 13 12  1  0
 14 15  2  0
 14 13  1  0
 15 11  1  0
 16  9  1  0
 17 16  2  0
 19 18  1  6
 19 21  1  0
 20 19  1  0
 22 21  1  6
 22 23  1  0
 22 24  1  0
 23 16  1  0
 24 26  2  0
 24 25  1  0
M  END
$$$$
