VHL.pdb
     RDKit          3D

 26 26  0  0  1  0  0  0  0  0999 V2000
   21.6442  -17.2820  -15.3442 C   0  0  0  0  0  0  0  0  0  0  0  0
   21.8613  -15.8167  -15.6808 C   0  0  1  0  0  0  0  0  0  0  0  0
   23.1251  -15.6934  -16.5097 C   0  0  0  0  0  0  0  0  0  0  0  0
   20.7125  -15.3760  -16.5643 C   0  0  2  0  0  0  0  0  0  0  0  0
   20.6808  -16.1702  -17.7773 N   0  0  0  0  0  0  0  0  0  0  0  0
   20.7886  -13.9592  -16.9388 C   0  0  0  0  0  0  0  0  0  0  0  0
   21.3664  -13.5999  -18.0225 O   0  0  0  0  0  0  0  0  0  0  0  0
   20.2570  -12.8946  -16.1781 N   0  0  0  0  0  0  0  0  0  0  0  0
   20.2627  -11.4884  -16.6833 C   0  0  1  0  0  0  0  0  0  0  0  0
   18.8329  -11.1328  -16.8082 C   0  0  0  0  0  0  0  0  0  0  0  0
   18.1473  -11.5260  -18.0527 C   0  0  0  0  0  0  0  0  0  0  0  0
   18.5723  -12.2026  -19.1655 C   0  0  0  0  0  0  0  0  0  0  0  0
   17.5473  -12.3870  -20.0264 N   0  0  0  0  0  0  0  0  0  0  0  0
   16.4825  -11.8303  -19.4566 C   0  0  0  0  0  0  0  0  0  0  0  0
   16.8065  -11.3130  -18.2879 N   0  0  0  0  0  0  0  0  0  0  0  0
   20.9792  -10.6956  -15.6413 C   0  0  0  0  0  0  0  0  0  0  0  0
   20.6073  -10.7928  -14.4502 O   0  0  0  0  0  0  0  0  0  0  0  0
   26.3110   -9.5969  -16.2749 C   0  0  0  0  0  0  0  0  0  0  0  0
   24.9834  -10.0444  -15.6464 C   0  0  1  0  0  0  0  0  0  0  0  0
   25.2212  -10.7601  -14.3476 C   0  0  0  0  0  0  0  0  0  0  0  0
   24.1380   -8.8236  -15.5210 C   0  0  0  0  0  0  0  0  0  0  0  0
   22.7400   -9.0757  -15.0421 C   0  0  2  0  0  0  0  0  0  0  0  0
   22.0562   -9.8574  -16.0243 N   0  0  0  0  0  0  0  0  0  0  0  0
   22.0800   -7.7314  -14.9264 C   0  0  0  0  0  0  0  0  0  0  0  0
   22.0782   -7.0006  -13.7536 O   0  0  0  0  0  0  0  0  0  0  0  0
   21.5014   -7.2367  -15.9269 O   0  0  0  0  0  0  0  0  0  0  0  0
  2  4  1  0
  2  1  1  6
  3  2  1  0
  4  5  1  6
  6  4  1  0
  6  7  2  0
  8  6  1  0
  9  8  1  0
  9 10  1  1
 11 10  1  0
 11 12  2  0
 13 12  1  0
 14 15  2  0
 14 13  1  0
 15 11  1  0
 16  9  1  0
 17 16  2  0
 19 18  1  1
 19 21  1  0
 20 19  1  0
 22 21  1  6
 22 23  1  0
 22 24  1  0
 23 16  1  0
 24 26  2  0
 24 25  1  0
M  END
$$$$
