VHL.pdb
     RDKit          3D

 26 26  0  0  1  0  0  0  0  0999 V2000
   27.1506  -23.7775  -16.7388 C   0  0  0  0  0  0  0  0  0  0  0  0
   26.4780  -25.0578  -17.2036 C   0  0  1  0  0  0  0  0  0  0  0  0
   26.4234  -25.0525  -18.7189 C   0  0  0  0  0  0  0  0  0  0  0  0
   27.3697  -26.2143  -16.8009 C   0  0  2  0  0  0  0  0  0  0  0  0
   28.6621  -26.0989  -17.4486 N   0  0  0  0  0  0  0  0  0  0  0  0
   26.7971  -27.5231  -17.1366 C   0  0  0  0  0  0  0  0  0  0  0  0
   27.0682  -28.0881  -18.2522 O   0  0  0  0  0  0  0  0  0  0  0  0
   25.9283  -28.2608  -16.3026 N   0  0  0  0  0  0  0  0  0  0  0  0
   25.3859  -29.5911  -16.7139 C   0  0  1  0  0  0  0  0  0  0  0  0
   25.8686  -30.5261  -15.6752 C   0  0  0  0  0  0  0  0  0  0  0  0
   27.1042  -31.2761  -15.9657 C   0  0  0  0  0  0  0  0  0  0  0  0
   27.9570  -31.2685  -17.0377 C   0  0  0  0  0  0  0  0  0  0  0  0
   29.0068  -32.0888  -16.8120 N   0  0  0  0  0  0  0  0  0  0  0  0
   28.8155  -32.6084  -15.6030 C   0  0  0  0  0  0  0  0  0  0  0  0
   27.6981  -32.1460  -15.0774 N   0  0  0  0  0  0  0  0  0  0  0  0
   23.9021  -29.4297  -16.7194 C   0  0  0  0  0  0  0  0  0  0  0  0
   23.3731  -28.7022  -15.8491 O   0  0  0  0  0  0  0  0  0  0  0  0
   21.0548  -29.7872  -21.5487 C   0  0  0  0  0  0  0  0  0  0  0  0
   21.6783  -29.2798  -20.2405 C   0  0  1  0  0  0  0  0  0  0  0  0
   21.2768  -27.8574  -19.9734 C   0  0  0  0  0  0  0  0  0  0  0  0
   21.2693  -30.2367  -19.1738 C   0  0  0  0  0  0  0  0  0  0  0  0
   21.7260  -29.8698  -17.7938 C   0  0  2  0  0  0  0  0  0  0  0  0
   23.1339  -30.1006  -17.7037 N   0  0  0  0  0  0  0  0  0  0  0  0
   21.0081  -30.7900  -16.8484 C   0  0  0  0  0  0  0  0  0  0  0  0
   21.6468  -31.8157  -16.1778 O   0  0  0  0  0  0  0  0  0  0  0  0
   19.7768  -30.6349  -16.6474 O   0  0  0  0  0  0  0  0  0  0  0  0
  2  4  1  0
  2  1  1  6
  3  2  1  0
  4  5  1  6
  6  4  1  0
  6  7  2  0
  8  6  1  0
  9  8  1  0
  9 10  1  1
 11 10  1  0
 11 12  2  0
 13 12  1  0
 14 15  2  0
 14 13  1  0
 15 11  1  0
 16  9  1  0
 17 16  2  0
 19 18  1  6
 19 21  1  0
 20 19  1  0
 22 21  1  6
 22 23  1  0
 22 24  1  0
 23 16  1  0
 24 26  2  0
 24 25  1  0
M  END
$$$$
