VHL.pdb
     RDKit          3D

 26 26  0  0  1  0  0  0  0  0999 V2000
   28.8475  -18.8925  -14.1628 C   0  0  0  0  0  0  0  0  0  0  0  0
   27.7983  -18.4071  -15.1483 C   0  0  1  0  0  0  0  0  0  0  0  0
   28.3987  -18.4234  -16.5406 C   0  0  0  0  0  0  0  0  0  0  0  0
   26.6683  -19.4160  -15.1460 C   0  0  2  0  0  0  0  0  0  0  0  0
   25.7532  -19.1450  -16.2380 N   0  0  0  0  0  0  0  0  0  0  0  0
   25.9064  -19.4201  -13.8918 C   0  0  0  0  0  0  0  0  0  0  0  0
   25.3487  -18.3515  -13.4626 O   0  0  0  0  0  0  0  0  0  0  0  0
   25.7182  -20.5508  -13.0667 N   0  0  0  0  0  0  0  0  0  0  0  0
   24.9182  -20.4794  -11.8066 C   0  0  1  0  0  0  0  0  0  0  0  0
   23.8298  -21.4610  -12.0017 C   0  0  0  0  0  0  0  0  0  0  0  0
   22.6755  -21.0344  -12.8135 C   0  0  0  0  0  0  0  0  0  0  0  0
   22.3673  -19.8489  -13.4269 C   0  0  0  0  0  0  0  0  0  0  0  0
   21.2162  -19.9635  -14.1251 N   0  0  0  0  0  0  0  0  0  0  0  0
   20.8035  -21.2159  -13.9527 C   0  0  0  0  0  0  0  0  0  0  0  0
   21.6467  -21.8738  -13.1816 N   0  0  0  0  0  0  0  0  0  0  0  0
   25.8637  -20.8557  -10.7148 C   0  0  0  0  0  0  0  0  0  0  0  0
   27.0503  -21.1213  -11.0118 O   0  0  0  0  0  0  0  0  0  0  0  0
   27.4757  -19.0715   -5.9223 C   0  0  0  0  0  0  0  0  0  0  0  0
   28.1474  -19.6464   -7.1777 C   0  0  1  0  0  0  0  0  0  0  0  0
   28.7834  -20.9747   -6.8830 C   0  0  0  0  0  0  0  0  0  0  0  0
   27.1001  -19.6963   -8.2368 C   0  0  0  0  0  0  0  0  0  0  0  0
   26.3290  -20.9805   -8.2958 C   0  0  2  0  0  0  0  0  0  0  0  0
   25.3973  -20.9029   -9.3772 N   0  0  0  0  0  0  0  0  0  0  0  0
   25.5798  -21.0880   -6.9985 C   0  0  0  0  0  0  0  0  0  0  0  0
   25.8829  -22.0355   -6.0392 O   0  0  0  0  0  0  0  0  0  0  0  0
   24.6363  -20.2922   -6.7595 O   0  0  0  0  0  0  0  0  0  0  0  0
  2  4  1  0
  2  1  1  1
  3  2  1  0
  4  5  1  6
  6  4  1  0
  6  7  2  0
  8  6  1  0
  9  8  1  0
  9 10  1  6
 11 10  1  0
 11 12  2  0
 13 12  1  0
 14 15  2  0
 14 13  1  0
 15 11  1  0
 16  9  1  0
 17 16  2  0
 19 18  1  1
 19 21  1  0
 20 19  1  0
 22 21  1  1
 22 23  1  0
 22 24  1  0
 23 16  1  0
 24 26  2  0
 24 25  1  0
M  END
$$$$
