VHL.pdb
     RDKit          3D

 26 26  0  0  1  0  0  0  0  0999 V2000
   28.0086  -16.1913  -15.7025 C   0  0  0  0  0  0  0  0  0  0  0  0
   26.5645  -16.1891  -15.2311 C   0  0  1  0  0  0  0  0  0  0  0  0
   25.9379  -14.8582  -15.5993 C   0  0  0  0  0  0  0  0  0  0  0  0
   25.8262  -17.2536  -16.0163 C   0  0  2  0  0  0  0  0  0  0  0  0
   24.7967  -16.6462  -16.8375 N   0  0  0  0  0  0  0  0  0  0  0  0
   25.1992  -18.2663  -15.1591 C   0  0  0  0  0  0  0  0  0  0  0  0
   24.0428  -18.0656  -14.6493 O   0  0  0  0  0  0  0  0  0  0  0  0
   25.7793  -19.5094  -14.8232 N   0  0  0  0  0  0  0  0  0  0  0  0
   25.0509  -20.5184  -13.9961 C   0  0  1  0  0  0  0  0  0  0  0  0
   25.0679  -21.7505  -14.8134 C   0  0  0  0  0  0  0  0  0  0  0  0
   24.5059  -22.9702  -14.2050 C   0  0  0  0  0  0  0  0  0  0  0  0
   23.9714  -23.2220  -12.9691 C   0  0  0  0  0  0  0  0  0  0  0  0
   23.5180  -24.4930  -12.9005 N   0  0  0  0  0  0  0  0  0  0  0  0
   23.7650  -25.0372  -14.0886 C   0  0  0  0  0  0  0  0  0  0  0  0
   24.3487  -24.1602  -14.8814 N   0  0  0  0  0  0  0  0  0  0  0  0
   25.8367  -20.6373  -12.7328 C   0  0  0  0  0  0  0  0  0  0  0  0
   27.0824  -20.5280  -12.7868 O   0  0  0  0  0  0  0  0  0  0  0  0
   26.3961  -18.8067   -7.6975 C   0  0  0  0  0  0  0  0  0  0  0  0
   27.2774  -19.4400   -8.7838 C   0  0  1  0  0  0  0  0  0  0  0  0
   27.8399  -20.7524   -8.3180 C   0  0  0  0  0  0  0  0  0  0  0  0
   26.4366  -19.5408  -10.0100 C   0  0  0  0  0  0  0  0  0  0  0  0
   25.8857  -20.9084  -10.2817 C   0  0  2  0  0  0  0  0  0  0  0  0
   25.1570  -20.8698  -11.5109 N   0  0  0  0  0  0  0  0  0  0  0  0
   24.9448  -21.2210   -9.1535 C   0  0  0  0  0  0  0  0  0  0  0  0
   25.2624  -22.1078   -8.1424 O   0  0  0  0  0  0  0  0  0  0  0  0
   23.8194  -20.6623   -9.1119 O   0  0  0  0  0  0  0  0  0  0  0  0
  2  4  1  0
  2  1  1  6
  3  2  1  0
  4  5  1  1
  6  4  1  0
  6  7  2  0
  8  6  1  0
  9  8  1  0
  9 10  1  6
 11 10  1  0
 11 12  2  0
 13 12  1  0
 14 15  2  0
 14 13  1  0
 15 11  1  0
 16  9  1  0
 17 16  2  0
 19 18  1  1
 19 21  1  0
 20 19  1  0
 22 21  1  1
 22 23  1  0
 22 24  1  0
 23 16  1  0
 24 26  2  0
 24 25  1  0
M  END
$$$$
