NKF.pdb
     RDKit          3D

 29 29  0  0  1  0  0  0  0  0999 V2000
    9.2596  -21.2635   18.4652 N   0  0  0  0  0  0  0  0  0  0  0  0
    9.9824  -20.7354   19.5579 C   0  0  0  0  0  0  0  0  0  0  0  0
   10.4025  -21.5107   20.4540 O   0  0  0  0  0  0  0  0  0  0  0  0
   10.2679  -19.2879   19.6963 C   0  0  0  0  0  0  0  0  0  0  0  0
    9.8070  -18.8843   21.0760 C   0  0  2  0  0  0  0  0  0  0  0  0
    8.3690  -19.0514   21.1298 N   0  0  0  0  0  0  0  0  0  0  0  0
   10.2161  -17.5382   21.4876 C   0  0  0  0  0  0  0  0  0  0  0  0
   11.4170  -17.1396   21.4680 O   0  0  0  0  0  0  0  0  0  0  0  0
    9.2557  -16.6086   21.9360 N   0  0  0  0  0  0  0  0  0  0  0  0
    9.6462  -15.2543   22.3254 C   0  0  1  0  0  0  0  0  0  0  0  0
    8.7529  -14.2060   21.6987 C   0  0  0  0  0  0  0  0  0  0  0  0
    8.8160  -14.2707   20.1903 C   0  0  0  0  0  0  0  0  0  0  0  0
    8.0235  -13.1598   19.5502 C   0  0  0  0  0  0  0  0  0  0  0  0
    8.1329  -13.1756   18.0414 C   0  0  0  0  0  0  0  0  0  0  0  0
    7.3334  -12.0556   17.5413 N   0  0  0  0  0  0  0  0  0  0  0  0
    9.6020  -15.0734   23.7950 C   0  0  0  0  0  0  0  0  0  0  0  0
   10.0408  -13.9955   24.2584 O   0  0  0  0  0  0  0  0  0  0  0  0
    9.0907  -16.0494   24.6682 N   0  0  0  0  0  0  0  0  0  0  0  0
    9.2480  -15.9472   26.1290 C   0  0  1  0  0  0  0  0  0  0  0  0
    7.8723  -15.8554   26.6944 C   0  0  0  0  0  0  0  0  0  0  0  0
    7.2982  -14.5292   26.4909 C   0  0  0  0  0  0  0  0  0  0  0  0
    8.0921  -13.4249   26.7691 C   0  0  0  0  0  0  0  0  0  0  0  0
    7.6360  -12.1495   26.5859 C   0  0  0  0  0  0  0  0  0  0  0  0
    6.3728  -11.9431   26.1193 C   0  0  0  0  0  0  0  0  0  0  0  0
    5.5583  -13.0018   25.8345 C   0  0  0  0  0  0  0  0  0  0  0  0
    6.0273  -14.3050   26.0227 C   0  0  0  0  0  0  0  0  0  0  0  0
    9.9634  -17.1040   26.6546 C   0  0  0  0  0  0  0  0  0  0  0  0
   10.1997  -17.1565   27.9079 O   0  0  0  0  0  0  0  0  0  0  0  0
   10.4239  -18.1776   25.9282 O   0  0  0  0  0  0  0  0  0  0  0  0
  1  2  1  0
  2  4  1  0
  3  2  2  0
  4  5  1  0
  5  6  1  6
  7  8  2  0
  7  5  1  0
  9  7  1  0
 10  9  1  0
 10 11  1  6
 11 12  1  0
 12 13  1  0
 13 14  1  0
 14 15  1  0
 16 18  1  0
 16 10  1  0
 17 16  2  0
 19 27  1  0
 19 18  1  0
 19 20  1  1
 21 22  2  0
 21 20  1  0
 23 22  1  0
 24 23  2  0
 25 24  1  0
 25 26  2  0
 26 21  1  0
 27 29  1  0
 28 27  2  0
M  END
$$$$
