NKF.pdb
     RDKit          3D

 29 29  0  0  1  0  0  0  0  0999 V2000
    7.6373  -12.5185   15.9593 N   0  0  0  0  0  0  0  0  0  0  0  0
    8.2340  -13.6704   16.5183 C   0  0  0  0  0  0  0  0  0  0  0  0
    8.8354  -14.4810   15.7687 O   0  0  0  0  0  0  0  0  0  0  0  0
    8.1782  -13.9695   17.9686 C   0  0  0  0  0  0  0  0  0  0  0  0
    8.7623  -15.3497   18.1503 C   0  0  2  0  0  0  0  0  0  0  0  0
    8.3014  -16.1744   17.0520 N   0  0  0  0  0  0  0  0  0  0  0  0
    8.4822  -15.9656   19.4507 C   0  0  0  0  0  0  0  0  0  0  0  0
    7.4128  -15.7685   20.0979 O   0  0  0  0  0  0  0  0  0  0  0  0
    9.4250  -16.8271   20.0477 N   0  0  0  0  0  0  0  0  0  0  0  0
    9.1790  -17.4119   21.3652 C   0  0  1  0  0  0  0  0  0  0  0  0
   10.1886  -18.4867   21.7043 C   0  0  0  0  0  0  0  0  0  0  0  0
    9.9570  -19.7294   20.8763 C   0  0  0  0  0  0  0  0  0  0  0  0
   10.9702  -20.8021   21.1838 C   0  0  0  0  0  0  0  0  0  0  0  0
   10.7885  -22.0264   20.3139 C   0  0  0  0  0  0  0  0  0  0  0  0
   11.8421  -22.9743   20.6814 N   0  0  0  0  0  0  0  0  0  0  0  0
    9.2241  -16.3883   22.4351 C   0  0  0  0  0  0  0  0  0  0  0  0
   10.1617  -15.5581   22.4020 O   0  0  0  0  0  0  0  0  0  0  0  0
    8.2672  -16.3167   23.4626 N   0  0  0  0  0  0  0  0  0  0  0  0
    8.3126  -15.2702   24.4979 C   0  0  1  0  0  0  0  0  0  0  0  0
    7.0762  -14.4560   24.3269 C   0  0  0  0  0  0  0  0  0  0  0  0
    6.9516  -13.4472   25.3740 C   0  0  0  0  0  0  0  0  0  0  0  0
    7.7261  -12.2998   25.2701 C   0  0  0  0  0  0  0  0  0  0  0  0
    7.6532  -11.2991   26.1983 C   0  0  0  0  0  0  0  0  0  0  0  0
    6.8034  -11.4182   27.2564 C   0  0  0  0  0  0  0  0  0  0  0  0
    6.0246  -12.5314   27.3971 C   0  0  0  0  0  0  0  0  0  0  0  0
    6.1012  -13.5532   26.4464 C   0  0  0  0  0  0  0  0  0  0  0  0
    8.3804  -15.8619   25.8290 C   0  0  0  0  0  0  0  0  0  0  0  0
    7.6841  -16.9045   26.0686 O   0  0  0  0  0  0  0  0  0  0  0  0
    9.1353  -15.4084   26.8858 O   0  0  0  0  0  0  0  0  0  0  0  0
  1  2  1  0
  2  4  1  0
  3  2  2  0
  4  5  1  0
  5  6  1  6
  7  8  2  0
  7  5  1  0
  9  7  1  0
 10  9  1  0
 10 11  1  1
 11 12  1  0
 12 13  1  0
 13 14  1  0
 14 15  1  0
 16 18  1  0
 16 10  1  0
 17 16  2  0
 19 27  1  0
 19 18  1  0
 19 20  1  1
 21 22  2  0
 21 20  1  0
 23 22  1  0
 24 23  2  0
 25 24  1  0
 25 26  2  0
 26 21  1  0
 27 29  1  0
 28 27  2  0
M  END
$$$$
