NKF.pdb
     RDKit          3D

 29 29  0  0  1  0  0  0  0  0999 V2000
   15.7804  -15.5270   18.6572 N   0  0  0  0  0  0  0  0  0  0  0  0
   15.0476  -16.7159   18.4451 C   0  0  0  0  0  0  0  0  0  0  0  0
   15.6625  -17.7919   18.2338 O   0  0  0  0  0  0  0  0  0  0  0  0
   13.5662  -16.7489   18.4583 C   0  0  0  0  0  0  0  0  0  0  0  0
   13.1625  -17.6901   19.5675 C   0  0  2  0  0  0  0  0  0  0  0  0
   12.8758  -18.9795   18.9727 N   0  0  0  0  0  0  0  0  0  0  0  0
   12.0539  -17.2139   20.3999 C   0  0  0  0  0  0  0  0  0  0  0  0
   12.0360  -16.0740   20.9492 O   0  0  0  0  0  0  0  0  0  0  0  0
   10.9310  -18.0355   20.6273 N   0  0  0  0  0  0  0  0  0  0  0  0
    9.8270  -17.5813   21.4718 C   0  0  1  0  0  0  0  0  0  0  0  0
    8.6793  -18.5673   21.4808 C   0  0  0  0  0  0  0  0  0  0  0  0
    7.8921  -18.4954   20.1928 C   0  0  0  0  0  0  0  0  0  0  0  0
    6.8083  -19.5417   20.1418 C   0  0  0  0  0  0  0  0  0  0  0  0
    6.0575  -19.5233   18.8286 C   0  0  0  0  0  0  0  0  0  0  0  0
    5.0269  -20.5602   18.9088 N   0  0  0  0  0  0  0  0  0  0  0  0
   10.2605  -17.3715   22.8728 C   0  0  0  0  0  0  0  0  0  0  0  0
   11.0332  -18.2215   23.3724 O   0  0  0  0  0  0  0  0  0  0  0  0
    9.8453  -16.2708   23.6425 N   0  0  0  0  0  0  0  0  0  0  0  0
   10.1766  -16.1508   25.0725 C   0  0  1  0  0  0  0  0  0  0  0  0
    9.7189  -14.7979   25.4978 C   0  0  0  0  0  0  0  0  0  0  0  0
    9.9482  -14.5795   26.9224 C   0  0  0  0  0  0  0  0  0  0  0  0
    8.9233  -14.0142   27.6690 C   0  0  0  0  0  0  0  0  0  0  0  0
    9.0513  -13.7955   29.0122 C   0  0  0  0  0  0  0  0  0  0  0  0
   10.2081  -14.1361   29.6461 C   0  0  0  0  0  0  0  0  0  0  0  0
   11.2417  -14.6935   28.9485 C   0  0  0  0  0  0  0  0  0  0  0  0
   11.1080  -14.9160   27.5750 C   0  0  0  0  0  0  0  0  0  0  0  0
    9.5233  -17.2010   25.8450 C   0  0  0  0  0  0  0  0  0  0  0  0
    8.3033  -17.4759   25.5897 O   0  0  0  0  0  0  0  0  0  0  0  0
   10.0936  -17.9516   26.8468 O   0  0  0  0  0  0  0  0  0  0  0  0
  1  2  1  0
  2  4  1  0
  3  2  2  0
  4  5  1  0
  5  6  1  6
  7  8  2  0
  7  5  1  0
  9  7  1  0
 10  9  1  0
 10 11  1  1
 11 12  1  0
 12 13  1  0
 13 14  1  0
 14 15  1  0
 16 18  1  0
 16 10  1  0
 17 16  2  0
 19 27  1  0
 19 18  1  0
 19 20  1  1
 21 22  2  0
 21 20  1  0
 23 22  1  0
 24 23  2  0
 25 24  1  0
 25 26  2  0
 26 21  1  0
 27 29  1  0
 28 27  2  0
M  END
$$$$
