NKF.pdb
     RDKit          3D

 29 29  0  0  1  0  0  0  0  0999 V2000
    8.1967  -12.5036   17.7697 N   0  0  0  0  0  0  0  0  0  0  0  0
    8.5335  -13.5967   18.5986 C   0  0  0  0  0  0  0  0  0  0  0  0
    9.3054  -14.4883   18.1630 O   0  0  0  0  0  0  0  0  0  0  0  0
    8.0071  -13.7406   19.9764 C   0  0  0  0  0  0  0  0  0  0  0  0
    7.5335  -15.1675   20.1135 C   0  0  2  0  0  0  0  0  0  0  0  0
    6.4541  -15.3693   19.1687 N   0  0  0  0  0  0  0  0  0  0  0  0
    7.1484  -15.5555   21.4736 C   0  0  0  0  0  0  0  0  0  0  0  0
    6.4162  -14.8422   22.2196 O   0  0  0  0  0  0  0  0  0  0  0  0
    7.5951  -16.7766   22.0185 N   0  0  0  0  0  0  0  0  0  0  0  0
    7.1785  -17.1995   23.3549 C   0  0  1  0  0  0  0  0  0  0  0  0
    7.0008  -18.6995   23.4436 C   0  0  0  0  0  0  0  0  0  0  0  0
    5.8438  -19.1605   22.5878 C   0  0  0  0  0  0  0  0  0  0  0  0
    5.6491  -20.6530   22.6690 C   0  0  0  0  0  0  0  0  0  0  0  0
    4.5789  -21.1423   21.7184 C   0  0  0  0  0  0  0  0  0  0  0  0
    4.4844  -22.5934   21.8888 N   0  0  0  0  0  0  0  0  0  0  0  0
    8.1596  -16.7934   24.3879 C   0  0  0  0  0  0  0  0  0  0  0  0
    9.3739  -16.8461   24.0845 O   0  0  0  0  0  0  0  0  0  0  0  0
    7.7808  -16.3560   25.6691 N   0  0  0  0  0  0  0  0  0  0  0  0
    8.7727  -15.9411   26.6756 C   0  0  1  0  0  0  0  0  0  0  0  0
    8.0372  -15.1160   27.6751 C   0  0  0  0  0  0  0  0  0  0  0  0
    7.4806  -13.9113   27.0679 C   0  0  0  0  0  0  0  0  0  0  0  0
    6.1855  -13.5468   27.4100 C   0  0  0  0  0  0  0  0  0  0  0  0
    5.5990  -12.4221   26.9008 C   0  0  0  0  0  0  0  0  0  0  0  0
    6.2917  -11.6305   26.0350 C   0  0  0  0  0  0  0  0  0  0  0  0
    7.5679  -11.9536   25.6711 C   0  0  0  0  0  0  0  0  0  0  0  0
    8.1652  -13.1044   26.1934 C   0  0  0  0  0  0  0  0  0  0  0  0
    9.3945  -17.1034   27.2991 C   0  0  0  0  0  0  0  0  0  0  0  0
    8.7963  -18.2284   27.2236 O   0  0  0  0  0  0  0  0  0  0  0  0
   10.5907  -17.1227   27.9781 O   0  0  0  0  0  0  0  0  0  0  0  0
  1  2  1  0
  2  4  1  0
  3  2  2  0
  4  5  1  0
  5  6  1  6
  7  8  2  0
  7  5  1  0
  9  7  1  0
 10  9  1  0
 10 11  1  6
 11 12  1  0
 12 13  1  0
 13 14  1  0
 14 15  1  0
 16 18  1  0
 16 10  1  0
 17 16  2  0
 19 27  1  0
 19 18  1  0
 19 20  1  1
 21 22  2  0
 21 20  1  0
 23 22  1  0
 24 23  2  0
 25 24  1  0
 25 26  2  0
 26 21  1  0
 27 29  1  0
 28 27  2  0
M  END
$$$$
