NKF.pdb
     RDKit          3D

 29 29  0  0  1  0  0  0  0  0999 V2000
    9.5333  -15.2993   16.6810 N   0  0  0  0  0  0  0  0  0  0  0  0
    8.7785  -16.3686   17.2124 C   0  0  0  0  0  0  0  0  0  0  0  0
    8.5775  -17.3922   16.5107 O   0  0  0  0  0  0  0  0  0  0  0  0
    8.2039  -16.3337   18.5778 C   0  0  0  0  0  0  0  0  0  0  0  0
    9.0719  -17.2209   19.4372 C   0  0  2  0  0  0  0  0  0  0  0  0
    8.9865  -18.5681   18.9117 N   0  0  0  0  0  0  0  0  0  0  0  0
    8.7653  -17.1731   20.8699 C   0  0  0  0  0  0  0  0  0  0  0  0
    8.8102  -16.1106   21.5558 O   0  0  0  0  0  0  0  0  0  0  0  0
    8.3984  -18.3472   21.5585 N   0  0  0  0  0  0  0  0  0  0  0  0
    8.1878  -18.3342   23.0055 C   0  0  1  0  0  0  0  0  0  0  0  0
    7.5667  -19.6231   23.4981 C   0  0  0  0  0  0  0  0  0  0  0  0
    6.2641  -19.9048   22.7857 C   0  0  0  0  0  0  0  0  0  0  0  0
    5.6941  -21.2451   23.1737 C   0  0  0  0  0  0  0  0  0  0  0  0
    4.3692  -21.5202   22.4973 C   0  0  0  0  0  0  0  0  0  0  0  0
    3.9340  -22.8494   22.9303 N   0  0  0  0  0  0  0  0  0  0  0  0
    9.4569  -18.1278   23.7412 C   0  0  0  0  0  0  0  0  0  0  0  0
   10.4270  -17.6605   23.1010 O   0  0  0  0  0  0  0  0  0  0  0  0
    9.6043  -18.4288   25.1065 N   0  0  0  0  0  0  0  0  0  0  0  0
   10.0920  -17.4328   26.0757 C   0  0  1  0  0  0  0  0  0  0  0  0
    9.0479  -16.3721   26.1495 C   0  0  0  0  0  0  0  0  0  0  0  0
    9.4392  -15.2994   27.0584 C   0  0  0  0  0  0  0  0  0  0  0  0
    9.4127  -15.5577   28.4221 C   0  0  0  0  0  0  0  0  0  0  0  0
    9.7833  -14.6132   29.3381 C   0  0  0  0  0  0  0  0  0  0  0  0
   10.1908  -13.3838   28.9153 C   0  0  0  0  0  0  0  0  0  0  0  0
   10.2303  -13.0879   27.5825 C   0  0  0  0  0  0  0  0  0  0  0  0
    9.8508  -14.0557   26.6481 C   0  0  0  0  0  0  0  0  0  0  0  0
   10.3198  -18.0470   27.3785 C   0  0  0  0  0  0  0  0  0  0  0  0
   11.3392  -17.6820   28.0543 O   0  0  0  0  0  0  0  0  0  0  0  0
    9.5335  -19.0030   27.9784 O   0  0  0  0  0  0  0  0  0  0  0  0
  1  2  1  0
  2  4  1  0
  3  2  2  0
  4  5  1  0
  5  6  1  6
  7  8  2  0
  7  5  1  0
  9  7  1  0
 10  9  1  0
 10 11  1  1
 11 12  1  0
 12 13  1  0
 13 14  1  0
 14 15  1  0
 16 18  1  0
 16 10  1  0
 17 16  2  0
 19 27  1  0
 19 18  1  0
 19 20  1  1
 21 22  2  0
 21 20  1  0
 23 22  1  0
 24 23  2  0
 25 24  1  0
 25 26  2  0
 26 21  1  0
 27 29  1  0
 28 27  2  0
M  END
$$$$
