NKF.pdb
     RDKit          3D

 29 29  0  0  1  0  0  0  0  0999 V2000
   10.9573  -21.9475   18.3722 N   0  0  0  0  0  0  0  0  0  0  0  0
    9.8967  -21.4563   19.1654 C   0  0  0  0  0  0  0  0  0  0  0  0
    9.1464  -22.2672   19.7655 O   0  0  0  0  0  0  0  0  0  0  0  0
    9.6255  -20.0077   19.3202 C   0  0  0  0  0  0  0  0  0  0  0  0
    9.3326  -19.7745   20.7827 C   0  0  2  0  0  0  0  0  0  0  0  0
    8.0372  -20.3540   21.0735 N   0  0  0  0  0  0  0  0  0  0  0  0
    9.4114  -18.3732   21.2059 C   0  0  0  0  0  0  0  0  0  0  0  0
   10.4939  -17.8050   21.5325 O   0  0  0  0  0  0  0  0  0  0  0  0
    8.2462  -17.5820   21.2677 N   0  0  0  0  0  0  0  0  0  0  0  0
    8.3046  -16.1939   21.7239 C   0  0  1  0  0  0  0  0  0  0  0  0
    7.1372  -15.3801   21.2095 C   0  0  0  0  0  0  0  0  0  0  0  0
    7.3927  -13.9000   21.3751 C   0  0  0  0  0  0  0  0  0  0  0  0
    8.0062  -13.2974   20.1372 C   0  0  0  0  0  0  0  0  0  0  0  0
    8.2106  -11.8043   20.2693 C   0  0  0  0  0  0  0  0  0  0  0  0
    8.8755  -11.3522   19.0457 N   0  0  0  0  0  0  0  0  0  0  0  0
    8.3086  -16.1037   23.2025 C   0  0  0  0  0  0  0  0  0  0  0  0
    7.4555  -16.7773   23.8253 O   0  0  0  0  0  0  0  0  0  0  0  0
    9.2217  -15.3070   23.9152 N   0  0  0  0  0  0  0  0  0  0  0  0
    9.1607  -15.1732   25.3806 C   0  0  1  0  0  0  0  0  0  0  0  0
    7.7153  -15.1806   25.7434 C   0  0  0  0  0  0  0  0  0  0  0  0
    7.2051  -13.8266   25.9337 C   0  0  0  0  0  0  0  0  0  0  0  0
    5.8705  -13.6756   26.2848 C   0  0  0  0  0  0  0  0  0  0  0  0
    5.3210  -12.4428   26.5008 C   0  0  0  0  0  0  0  0  0  0  0  0
    6.0913  -11.3265   26.3715 C   0  0  0  0  0  0  0  0  0  0  0  0
    7.4086  -11.4305   26.0262 C   0  0  0  0  0  0  0  0  0  0  0  0
    7.9679  -12.6924   25.8060 C   0  0  0  0  0  0  0  0  0  0  0  0
    9.8781  -16.2640   26.0302 C   0  0  0  0  0  0  0  0  0  0  0  0
    9.9417  -16.2777   27.3049 O   0  0  0  0  0  0  0  0  0  0  0  0
   10.5110  -17.3118   25.4028 O   0  0  0  0  0  0  0  0  0  0  0  0
  1  2  1  0
  2  4  1  0
  3  2  2  0
  4  5  1  0
  5  6  1  6
  7  8  2  0
  7  5  1  0
  9  7  1  0
 10  9  1  0
 10 11  1  1
 11 12  1  0
 12 13  1  0
 13 14  1  0
 14 15  1  0
 16 18  1  0
 16 10  1  0
 17 16  2  0
 19 27  1  0
 19 18  1  0
 19 20  1  1
 21 22  2  0
 21 20  1  0
 23 22  1  0
 24 23  2  0
 25 24  1  0
 25 26  2  0
 26 21  1  0
 27 29  1  0
 28 27  2  0
M  END
$$$$
