NKF.pdb
     RDKit          3D

 29 29  0  0  1  0  0  0  0  0999 V2000
    8.9252  -13.0716   17.1553 N   0  0  0  0  0  0  0  0  0  0  0  0
    8.0727  -14.0714   16.6365 C   0  0  0  0  0  0  0  0  0  0  0  0
    7.3484  -13.8115   15.6423 O   0  0  0  0  0  0  0  0  0  0  0  0
    7.9927  -15.4298   17.2230 C   0  0  0  0  0  0  0  0  0  0  0  0
    8.8609  -15.4215   18.4580 C   0  0  2  0  0  0  0  0  0  0  0  0
   10.0944  -16.1104   18.1376 N   0  0  0  0  0  0  0  0  0  0  0  0
    8.2231  -15.9728   19.6572 C   0  0  0  0  0  0  0  0  0  0  0  0
    7.2329  -15.4315   20.2298 O   0  0  0  0  0  0  0  0  0  0  0  0
    8.7059  -17.1642   20.2360 N   0  0  0  0  0  0  0  0  0  0  0  0
    8.1000  -17.7080   21.4507 C   0  0  1  0  0  0  0  0  0  0  0  0
    8.5683  -19.1189   21.7334 C   0  0  0  0  0  0  0  0  0  0  0  0
    7.9317  -19.6598   22.9927 C   0  0  0  0  0  0  0  0  0  0  0  0
    8.3765  -21.0707   23.2815 C   0  0  0  0  0  0  0  0  0  0  0  0
    7.7332  -21.6282   24.5320 C   0  0  0  0  0  0  0  0  0  0  0  0
    8.3673  -22.9199   24.8017 N   0  0  0  0  0  0  0  0  0  0  0  0
    8.4112  -16.8767   22.6366 C   0  0  0  0  0  0  0  0  0  0  0  0
    9.6180  -16.6450   22.8799 O   0  0  0  0  0  0  0  0  0  0  0  0
    7.4175  -16.3467   23.4782 N   0  0  0  0  0  0  0  0  0  0  0  0
    7.7441  -15.4553   24.6041 C   0  0  1  0  0  0  0  0  0  0  0  0
    6.7602  -14.3373   24.5540 C   0  0  0  0  0  0  0  0  0  0  0  0
    6.9143  -13.4382   25.6932 C   0  0  0  0  0  0  0  0  0  0  0  0
    5.8275  -13.2651   26.5394 C   0  0  0  0  0  0  0  0  0  0  0  0
    5.8967  -12.4562   27.6391 C   0  0  0  0  0  0  0  0  0  0  0  0
    7.0552  -11.7978   27.9229 C   0  0  0  0  0  0  0  0  0  0  0  0
    8.1477  -11.9393   27.1155 C   0  0  0  0  0  0  0  0  0  0  0  0
    8.0740  -12.7671   25.9917 C   0  0  0  0  0  0  0  0  0  0  0  0
    7.6698  -16.1734   25.8711 C   0  0  0  0  0  0  0  0  0  0  0  0
    8.5249  -15.8988   26.7781 O   0  0  0  0  0  0  0  0  0  0  0  0
    6.7521  -17.1412   26.2076 O   0  0  0  0  0  0  0  0  0  0  0  0
  1  2  1  0
  2  4  1  0
  3  2  2  0
  4  5  1  0
  5  6  1  6
  7  8  2  0
  7  5  1  0
  9  7  1  0
 10  9  1  0
 10 11  1  1
 11 12  1  0
 12 13  1  0
 13 14  1  0
 14 15  1  0
 16 18  1  0
 16 10  1  0
 17 16  2  0
 19 27  1  0
 19 18  1  0
 19 20  1  1
 21 22  2  0
 21 20  1  0
 23 22  1  0
 24 23  2  0
 25 24  1  0
 25 26  2  0
 26 21  1  0
 27 29  1  0
 28 27  2  0
M  END
$$$$
