ENA.pdb
     RDKit          3D

 23 22  0  0  1  0  0  0  0  0999 V2000
    9.0532  -18.0661   22.2185 N   0  0  0  0  0  0  0  0  0  0  0  0
   10.3042  -17.3467   22.0668 C   0  0  1  0  0  0  0  0  0  0  0  0
   10.5878  -17.1758   20.6136 C   0  0  0  0  0  0  0  0  0  0  0  0
    9.4402  -17.7860   19.8210 C   0  0  0  0  0  0  0  0  0  0  0  0
    9.7060  -17.7925   18.3803 C   0  0  0  0  0  0  0  0  0  0  0  0
   10.7800  -17.3142   17.9449 O   0  0  0  0  0  0  0  0  0  0  0  0
   10.2098  -16.0587   22.8182 C   0  0  0  0  0  0  0  0  0  0  0  0
   11.0394  -15.1298   22.6912 O   0  0  0  0  0  0  0  0  0  0  0  0
    8.8139  -18.3106   17.4538 O   0  0  0  0  0  0  0  0  0  0  0  0
    5.8453  -14.2723   26.3111 N   0  0  0  0  0  0  0  0  0  0  0  0
    6.6555  -14.8645   25.3055 C   0  0  0  0  0  0  0  0  0  0  0  0
    6.4821  -16.0836   25.0820 O   0  0  0  0  0  0  0  0  0  0  0  0
    7.6523  -14.0983   24.5555 C   0  0  0  0  0  0  0  0  0  0  0  0
    9.0440  -14.6726   24.5836 C   0  0  2  0  0  0  0  0  0  0  0  0
    9.1347  -15.8231   23.7433 N   0  0  0  0  0  0  0  0  0  0  0  0
    9.3875  -14.9843   26.0074 C   0  0  0  0  0  0  0  0  0  0  0  0
    8.8303  -15.8939   26.6444 O   0  0  0  0  0  0  0  0  0  0  0  0
    9.6360  -13.4692   28.8547 C   0  0  0  0  0  0  0  0  0  0  0  0
   10.6385  -14.2688   28.0590 C   0  0  2  0  0  0  0  0  0  0  0  0
   10.3907  -14.1961   26.6276 N   0  0  0  0  0  0  0  0  0  0  0  0
   10.6688  -15.6935   28.5224 C   0  0  0  0  0  0  0  0  0  0  0  0
   11.0721  -15.9539   29.8206 O   0  0  0  0  0  0  0  0  0  0  0  0
   10.3311  -16.5898   27.7247 O   0  0  0  0  0  0  0  0  0  0  0  0
  2  1  1  6
  2  7  1  0
  3  4  1  0
  3  2  1  0
  4  5  1  0
  5  9  1  0
  6  5  2  0
  7  8  2  0
 10 11  1  0
 11 12  2  0
 14 13  1  1
 13 11  1  0
 15  7  1  0
 15 14  1  0
 16 14  1  0
 16 17  2  0
 19 18  1  1
 19 20  1  0
 19 21  1  0
 20 16  1  0
 21 22  1  0
 23 21  2  0
M  END
$$$$
