ENA.pdb
     RDKit          3D

 23 22  0  0  1  0  0  0  0  0999 V2000
   12.5214  -16.6440   17.8241 N   0  0  0  0  0  0  0  0  0  0  0  0
   13.0181  -15.2810   17.7928 C   0  0  1  0  0  0  0  0  0  0  0  0
   13.0715  -14.8207   16.3762 C   0  0  0  0  0  0  0  0  0  0  0  0
   12.4668  -15.9025   15.4922 C   0  0  0  0  0  0  0  0  0  0  0  0
   12.4327  -15.5081   14.0818 C   0  0  0  0  0  0  0  0  0  0  0  0
   13.3280  -15.9115   13.3023 O   0  0  0  0  0  0  0  0  0  0  0  0
   12.1521  -14.4358   18.6692 C   0  0  0  0  0  0  0  0  0  0  0  0
   12.4078  -13.2394   18.9350 O   0  0  0  0  0  0  0  0  0  0  0  0
   11.4419  -14.6952   13.5524 O   0  0  0  0  0  0  0  0  0  0  0  0
    8.8415  -12.5310   18.2003 N   0  0  0  0  0  0  0  0  0  0  0  0
    8.1155  -13.6330   18.7266 C   0  0  0  0  0  0  0  0  0  0  0  0
    6.9840  -13.8521   18.2390 O   0  0  0  0  0  0  0  0  0  0  0  0
    8.6518  -14.4835   19.7907 C   0  0  0  0  0  0  0  0  0  0  0  0
   10.0976  -14.2354   20.1307 C   0  0  2  0  0  0  0  0  0  0  0  0
   10.9566  -14.9724   19.2607 N   0  0  0  0  0  0  0  0  0  0  0  0
   10.3038  -14.5980   21.5687 C   0  0  0  0  0  0  0  0  0  0  0  0
    9.6065  -14.1261   22.4824 O   0  0  0  0  0  0  0  0  0  0  0  0
   10.5255  -16.6114   23.9196 C   0  0  0  0  0  0  0  0  0  0  0  0
   11.6595  -15.8807   23.2429 C   0  0  2  0  0  0  0  0  0  0  0  0
   11.3409  -15.5175   21.8710 N   0  0  0  0  0  0  0  0  0  0  0  0
   12.9204  -16.6882   23.3007 C   0  0  0  0  0  0  0  0  0  0  0  0
   13.4906  -17.1028   22.1096 O   0  0  0  0  0  0  0  0  0  0  0  0
   13.4088  -16.9568   24.4157 O   0  0  0  0  0  0  0  0  0  0  0  0
  2  1  1  6
  2  7  1  0
  3  4  1  0
  3  2  1  0
  4  5  1  0
  5  9  1  0
  6  5  2  0
  7  8  2  0
 10 11  1  0
 11 12  2  0
 14 13  1  6
 13 11  1  0
 15  7  1  0
 15 14  1  0
 16 14  1  0
 16 17  2  0
 19 18  1  6
 19 20  1  0
 19 21  1  0
 20 16  1  0
 21 22  1  0
 23 21  2  0
M  END
$$$$
