ENA.pdb
     RDKit          3D

 23 22  0  0  1  0  0  0  0  0999 V2000
    8.4028  -13.6918   18.9723 N   0  0  0  0  0  0  0  0  0  0  0  0
    9.1149  -14.5824   19.8696 C   0  0  1  0  0  0  0  0  0  0  0  0
   10.5026  -14.0708   20.0543 C   0  0  0  0  0  0  0  0  0  0  0  0
   11.4331  -14.8521   19.1371 C   0  0  0  0  0  0  0  0  0  0  0  0
   12.8374  -14.4820   19.3299 C   0  0  0  0  0  0  0  0  0  0  0  0
   13.1467  -13.6673   20.2312 O   0  0  0  0  0  0  0  0  0  0  0  0
    8.3409  -14.6987   21.1423 C   0  0  0  0  0  0  0  0  0  0  0  0
    7.4777  -13.8643   21.4972 O   0  0  0  0  0  0  0  0  0  0  0  0
   13.8637  -14.9959   18.5519 O   0  0  0  0  0  0  0  0  0  0  0  0
    5.7542  -17.4430   25.3148 N   0  0  0  0  0  0  0  0  0  0  0  0
    7.1346  -17.5759   25.0067 C   0  0  0  0  0  0  0  0  0  0  0  0
    7.8972  -17.8979   25.9453 O   0  0  0  0  0  0  0  0  0  0  0  0
    7.6579  -17.3503   23.6582 C   0  0  0  0  0  0  0  0  0  0  0  0
    7.9571  -15.9118   23.3283 C   0  0  2  0  0  0  0  0  0  0  0  0
    8.5584  -15.8020   22.0382 N   0  0  0  0  0  0  0  0  0  0  0  0
    8.8350  -15.3618   24.4095 C   0  0  0  0  0  0  0  0  0  0  0  0
   10.0241  -15.6976   24.5389 O   0  0  0  0  0  0  0  0  0  0  0  0
    8.4648  -12.4533   26.7671 C   0  0  0  0  0  0  0  0  0  0  0  0
    9.0552  -13.7740   26.3374 C   0  0  2  0  0  0  0  0  0  0  0  0
    8.2618  -14.4233   25.3057 N   0  0  0  0  0  0  0  0  0  0  0  0
    9.2409  -14.6807   27.5159 C   0  0  0  0  0  0  0  0  0  0  0  0
   10.1244  -14.2950   28.5092 O   0  0  0  0  0  0  0  0  0  0  0  0
    8.5953  -15.7462   27.5591 O   0  0  0  0  0  0  0  0  0  0  0  0
  2  1  1  6
  2  7  1  0
  3  4  1  0
  3  2  1  0
  4  5  1  0
  5  9  1  0
  6  5  2  0
  7  8  2  0
 10 11  1  0
 11 12  2  0
 14 13  1  1
 13 11  1  0
 15  7  1  0
 15 14  1  0
 16 14  1  0
 16 17  2  0
 19 18  1  1
 19 20  1  0
 19 21  1  0
 20 16  1  0
 21 22  1  0
 23 21  2  0
M  END
$$$$
