ENA.pdb
     RDKit          3D

 23 22  0  0  1  0  0  0  0  0999 V2000
   11.5541  -18.3075   20.6673 N   0  0  0  0  0  0  0  0  0  0  0  0
   10.2271  -18.8396   20.4193 C   0  0  1  0  0  0  0  0  0  0  0  0
   10.1226  -19.2219   18.9826 C   0  0  0  0  0  0  0  0  0  0  0  0
   11.4702  -18.9790   18.3174 C   0  0  0  0  0  0  0  0  0  0  0  0
   11.4708  -19.3797   16.9083 C   0  0  0  0  0  0  0  0  0  0  0  0
   10.5911  -18.9324   16.1351 O   0  0  0  0  0  0  0  0  0  0  0  0
    9.9811  -19.9710   21.3637 C   0  0  0  0  0  0  0  0  0  0  0  0
    8.8948  -20.5907   21.4213 O   0  0  0  0  0  0  0  0  0  0  0  0
   12.4126  -20.2456   16.3735 O   0  0  0  0  0  0  0  0  0  0  0  0
   10.4062  -24.9455   23.2933 N   0  0  0  0  0  0  0  0  0  0  0  0
   11.2968  -23.8871   23.6172 C   0  0  0  0  0  0  0  0  0  0  0  0
   11.9240  -23.9832   24.6959 O   0  0  0  0  0  0  0  0  0  0  0  0
   11.4842  -22.7297   22.7405 C   0  0  0  0  0  0  0  0  0  0  0  0
   10.8341  -21.4596   23.2221 C   0  0  2  0  0  0  0  0  0  0  0  0
   11.0069  -20.4094   22.2707 N   0  0  0  0  0  0  0  0  0  0  0  0
   11.4213  -21.1160   24.5560 C   0  0  0  0  0  0  0  0  0  0  0  0
   12.5281  -20.5642   24.6756 O   0  0  0  0  0  0  0  0  0  0  0  0
   11.8964  -22.4492   27.5880 C   0  0  0  0  0  0  0  0  0  0  0  0
   11.1882  -21.2301   27.0497 C   0  0  2  0  0  0  0  0  0  0  0  0
   10.6639  -21.4434   25.7099 N   0  0  0  0  0  0  0  0  0  0  0  0
   12.0902  -20.0340   27.0843 C   0  0  0  0  0  0  0  0  0  0  0  0
   12.6294  -19.6524   28.3007 O   0  0  0  0  0  0  0  0  0  0  0  0
   12.3217  -19.4278   26.0201 O   0  0  0  0  0  0  0  0  0  0  0  0
  2  1  1  6
  2  7  1  0
  3  4  1  0
  3  2  1  0
  4  5  1  0
  5  9  1  0
  6  5  2  0
  7  8  2  0
 10 11  1  0
 11 12  2  0
 14 13  1  6
 13 11  1  0
 15  7  1  0
 15 14  1  0
 16 14  1  0
 16 17  2  0
 19 18  1  6
 19 20  1  0
 19 21  1  0
 20 16  1  0
 21 22  1  0
 23 21  2  0
M  END
$$$$
