ENA.pdb
     RDKit          3D

 23 22  0  0  1  0  0  0  0  0999 V2000
    9.4748  -14.3645   19.2488 N   0  0  0  0  0  0  0  0  0  0  0  0
   10.2437  -15.0536   20.2684 C   0  0  1  0  0  0  0  0  0  0  0  0
   11.5836  -14.4101   20.3777 C   0  0  0  0  0  0  0  0  0  0  0  0
   12.4846  -14.9794   19.2907 C   0  0  0  0  0  0  0  0  0  0  0  0
   13.8692  -14.5198   19.4242 C   0  0  0  0  0  0  0  0  0  0  0  0
   14.2613  -13.5299   18.7623 O   0  0  0  0  0  0  0  0  0  0  0  0
    9.4646  -15.0442   21.5433 C   0  0  0  0  0  0  0  0  0  0  0  0
    8.6664  -14.1301   21.8510 O   0  0  0  0  0  0  0  0  0  0  0  0
   14.7878  -15.1347   20.2612 O   0  0  0  0  0  0  0  0  0  0  0  0
    6.2686  -17.5472   25.1862 N   0  0  0  0  0  0  0  0  0  0  0  0
    7.6365  -17.9241   25.1153 C   0  0  0  0  0  0  0  0  0  0  0  0
    8.1267  -18.4749   26.1265 O   0  0  0  0  0  0  0  0  0  0  0  0
    8.4501  -17.6863   23.9216 C   0  0  0  0  0  0  0  0  0  0  0  0
    8.7930  -16.2423   23.6672 C   0  0  2  0  0  0  0  0  0  0  0  0
    9.6002  -16.1115   22.4970 N   0  0  0  0  0  0  0  0  0  0  0  0
    9.4758  -15.7067   24.8875 C   0  0  0  0  0  0  0  0  0  0  0  0
   10.7077  -15.7596   25.0401 O   0  0  0  0  0  0  0  0  0  0  0  0
    8.3310  -13.5126   27.7240 C   0  0  0  0  0  0  0  0  0  0  0  0
    9.2363  -14.5438   27.0958 C   0  0  2  0  0  0  0  0  0  0  0  0
    8.6616  -15.1217   25.8910 N   0  0  0  0  0  0  0  0  0  0  0  0
    9.5878  -15.6139   28.0841 C   0  0  0  0  0  0  0  0  0  0  0  0
   10.2904  -15.2535   29.2209 O   0  0  0  0  0  0  0  0  0  0  0  0
    9.2361  -16.7861   27.8477 O   0  0  0  0  0  0  0  0  0  0  0  0
  2  1  1  6
  2  7  1  0
  3  4  1  0
  3  2  1  0
  4  5  1  0
  5  9  1  0
  6  5  2  0
  7  8  2  0
 10 11  1  0
 11 12  2  0
 14 13  1  1
 13 11  1  0
 15  7  1  0
 15 14  1  0
 16 14  1  0
 16 17  2  0
 19 18  1  1
 19 20  1  0
 19 21  1  0
 20 16  1  0
 21 22  1  0
 23 21  2  0
M  END
$$$$
