ENA.pdb
     RDKit          3D

 23 22  0  0  1  0  0  0  0  0999 V2000
    9.6386  -17.4482   15.2319 N   0  0  0  0  0  0  0  0  0  0  0  0
    8.6698  -16.4283   15.5880 C   0  0  1  0  0  0  0  0  0  0  0  0
    7.4780  -16.5670   14.7037 C   0  0  0  0  0  0  0  0  0  0  0  0
    7.8794  -16.1834   13.2862 C   0  0  0  0  0  0  0  0  0  0  0  0
    6.7478  -16.2398   12.3574 C   0  0  0  0  0  0  0  0  0  0  0  0
    6.2600  -17.3502   12.0399 O   0  0  0  0  0  0  0  0  0  0  0  0
    8.3578  -16.5522   17.0440 C   0  0  0  0  0  0  0  0  0  0  0  0
    7.5769  -15.7799   17.6448 O   0  0  0  0  0  0  0  0  0  0  0  0
    6.1761  -15.1064   11.7995 O   0  0  0  0  0  0  0  0  0  0  0  0
    7.8600  -20.9886   17.9102 N   0  0  0  0  0  0  0  0  0  0  0  0
    7.6151  -20.0486   18.9469 C   0  0  0  0  0  0  0  0  0  0  0  0
    6.4289  -19.9140   19.3224 O   0  0  0  0  0  0  0  0  0  0  0  0
    8.6896  -19.2649   19.5588 C   0  0  0  0  0  0  0  0  0  0  0  0
    8.6721  -17.7971   19.2231 C   0  0  2  0  0  0  0  0  0  0  0  0
    8.9555  -17.5901   17.8394 N   0  0  0  0  0  0  0  0  0  0  0  0
    9.6603  -17.1072   20.1117 C   0  0  0  0  0  0  0  0  0  0  0  0
   10.8692  -17.0337   19.8345 O   0  0  0  0  0  0  0  0  0  0  0  0
    9.3112  -14.9727   23.2143 C   0  0  0  0  0  0  0  0  0  0  0  0
   10.0588  -15.8620   22.2511 C   0  0  2  0  0  0  0  0  0  0  0  0
    9.1705  -16.5237   21.3084 N   0  0  0  0  0  0  0  0  0  0  0  0
   10.8916  -16.8640   22.9912 C   0  0  0  0  0  0  0  0  0  0  0  0
   10.5647  -18.2040   22.8756 O   0  0  0  0  0  0  0  0  0  0  0  0
   11.8455  -16.4561   23.6822 O   0  0  0  0  0  0  0  0  0  0  0  0
  2  1  1  6
  2  7  1  0
  3  4  1  0
  3  2  1  0
  4  5  1  0
  5  9  1  0
  6  5  2  0
  7  8  2  0
 10 11  1  0
 11 12  2  0
 14 13  1  6
 13 11  1  0
 15  7  1  0
 15 14  1  0
 16 14  1  0
 16 17  2  0
 19 18  1  1
 19 20  1  0
 19 21  1  0
 20 16  1  0
 21 22  1  0
 23 21  2  0
M  END
$$$$
