ENA.pdb
     RDKit          3D

 23 22  0  0  1  0  0  0  0  0999 V2000
    7.8013  -14.5616   20.0654 N   0  0  0  0  0  0  0  0  0  0  0  0
    7.4555  -14.9441   21.4217 C   0  0  1  0  0  0  0  0  0  0  0  0
    7.5375  -16.4276   21.5390 C   0  0  0  0  0  0  0  0  0  0  0  0
    8.5580  -16.9377   20.5311 C   0  0  0  0  0  0  0  0  0  0  0  0
    8.6766  -18.3976   20.5559 C   0  0  0  0  0  0  0  0  0  0  0  0
    9.8032  -18.9314   20.4229 O   0  0  0  0  0  0  0  0  0  0  0  0
    8.3521  -14.2141   22.3681 C   0  0  0  0  0  0  0  0  0  0  0  0
    8.8802  -13.1116   22.0980 O   0  0  0  0  0  0  0  0  0  0  0  0
    7.5860  -19.2376   20.7221 O   0  0  0  0  0  0  0  0  0  0  0  0
    7.6693  -12.5723   27.2052 N   0  0  0  0  0  0  0  0  0  0  0  0
    6.6828  -12.8869   26.2326 C   0  0  0  0  0  0  0  0  0  0  0  0
    5.5163  -12.4944   26.4598 O   0  0  0  0  0  0  0  0  0  0  0  0
    6.9990  -13.6352   25.0147 C   0  0  0  0  0  0  0  0  0  0  0  0
    8.4371  -14.0644   24.8915 C   0  0  2  0  0  0  0  0  0  0  0  0
    8.6555  -14.7590   23.6635 N   0  0  0  0  0  0  0  0  0  0  0  0
    8.7730  -14.9055   26.0839 C   0  0  0  0  0  0  0  0  0  0  0  0
    8.6495  -14.4913   27.2487 O   0  0  0  0  0  0  0  0  0  0  0  0
    8.7482  -18.5680   26.3940 C   0  0  0  0  0  0  0  0  0  0  0  0
    9.2434  -17.2320   26.8915 C   0  0  2  0  0  0  0  0  0  0  0  0
    9.2473  -16.2211   25.8458 N   0  0  0  0  0  0  0  0  0  0  0  0
   10.6027  -17.3660   27.5078 C   0  0  0  0  0  0  0  0  0  0  0  0
   11.6180  -16.5474   27.0443 O   0  0  0  0  0  0  0  0  0  0  0  0
   10.7696  -18.2070   28.4125 O   0  0  0  0  0  0  0  0  0  0  0  0
  2  1  1  6
  2  7  1  0
  3  4  1  0
  3  2  1  0
  4  5  1  0
  5  9  1  0
  6  5  2  0
  7  8  2  0
 10 11  1  0
 11 12  2  0
 14 13  1  1
 13 11  1  0
 15  7  1  0
 15 14  1  0
 16 14  1  0
 16 17  2  0
 19 18  1  6
 19 20  1  0
 19 21  1  0
 20 16  1  0
 21 22  1  0
 23 21  2  0
M  END
$$$$
