ENA.pdb
     RDKit          3D

 23 22  0  0  1  0  0  0  0  0999 V2000
   11.0294  -17.2954   19.8092 N   0  0  0  0  0  0  0  0  0  0  0  0
   11.6502  -16.8309   21.0357 C   0  0  1  0  0  0  0  0  0  0  0  0
   12.3806  -15.5624   20.7549 C   0  0  0  0  0  0  0  0  0  0  0  0
   13.5773  -15.8784   19.8686 C   0  0  0  0  0  0  0  0  0  0  0  0
   14.3798  -14.6875   19.5788 C   0  0  0  0  0  0  0  0  0  0  0  0
   15.0760  -14.1723   20.4853 O   0  0  0  0  0  0  0  0  0  0  0  0
   10.5956  -16.6995   22.0859 C   0  0  0  0  0  0  0  0  0  0  0  0
    9.3892  -16.4932   21.8225 O   0  0  0  0  0  0  0  0  0  0  0  0
   14.4106  -14.0877   18.3291 O   0  0  0  0  0  0  0  0  0  0  0  0
   12.0331  -18.6258   24.8389 N   0  0  0  0  0  0  0  0  0  0  0  0
   10.7243  -18.9132   25.3108 C   0  0  0  0  0  0  0  0  0  0  0  0
   10.5612  -20.0037   25.9030 O   0  0  0  0  0  0  0  0  0  0  0  0
    9.6062  -17.9874   25.1215 C   0  0  0  0  0  0  0  0  0  0  0  0
    9.9832  -16.6508   24.5395 C   0  0  2  0  0  0  0  0  0  0  0  0
   10.9278  -16.8072   23.4806 N   0  0  0  0  0  0  0  0  0  0  0  0
   10.5139  -15.7960   25.6485 C   0  0  0  0  0  0  0  0  0  0  0  0
   11.7060  -15.8204   25.9977 O   0  0  0  0  0  0  0  0  0  0  0  0
    9.0537  -12.9828   27.7040 C   0  0  0  0  0  0  0  0  0  0  0  0
   10.0015  -14.1294   27.4502 C   0  0  2  0  0  0  0  0  0  0  0  0
    9.5995  -14.9349   26.3077 N   0  0  0  0  0  0  0  0  0  0  0  0
   10.1468  -14.9790   28.6759 C   0  0  0  0  0  0  0  0  0  0  0  0
   10.7472  -14.4242   29.7929 O   0  0  0  0  0  0  0  0  0  0  0  0
    9.7231  -16.1509   28.6457 O   0  0  0  0  0  0  0  0  0  0  0  0
  2  1  1  6
  2  7  1  0
  3  4  1  0
  3  2  1  0
  4  5  1  0
  5  9  1  0
  6  5  2  0
  7  8  2  0
 10 11  1  0
 11 12  2  0
 14 13  1  1
 13 11  1  0
 15  7  1  0
 15 14  1  0
 16 14  1  0
 16 17  2  0
 19 18  1  1
 19 20  1  0
 19 21  1  0
 20 16  1  0
 21 22  1  0
 23 21  2  0
M  END
$$$$
