QLA.pdb
     RDKit          3D

 23 22  0  0  1  0  0  0  0  0999 V2000
   21.2676  -12.2742  -20.7254 N   0  0  0  0  0  0  0  0  0  0  0  0
   20.2436  -13.2481  -20.6486 C   0  0  0  0  0  0  0  0  0  0  0  0
   20.0926  -14.0696  -21.5695 O   0  0  0  0  0  0  0  0  0  0  0  0
   19.3207  -13.3189  -19.4702 C   0  0  0  0  0  0  0  0  0  0  0  0
   19.5937  -12.1960  -18.5103 C   0  0  0  0  0  0  0  0  0  0  0  0
   20.6816  -12.4617  -17.5306 C   0  0  2  0  0  0  0  0  0  0  0  0
   20.2699  -13.5825  -16.6388 N   0  0  0  0  0  0  0  0  0  0  0  0
   21.0957  -11.3609  -16.6749 C   0  0  0  0  0  0  0  0  0  0  0  0
   20.4231  -11.1570  -15.6005 O   0  0  0  0  0  0  0  0  0  0  0  0
   24.4055  -10.3991  -13.9192 C   0  0  0  0  0  0  0  0  0  0  0  0
   24.7454  -10.2505  -15.4144 C   0  0  2  0  0  0  0  0  0  0  0  0
   26.2376  -10.0174  -15.4634 C   0  0  0  0  0  0  0  0  0  0  0  0
   23.9482   -9.1010  -15.9087 C   0  0  0  0  0  0  0  0  0  0  0  0
   22.4467   -9.3541  -15.9789 C   0  0  2  0  0  0  0  0  0  0  0  0
   22.1720  -10.4641  -16.8703 N   0  0  0  0  0  0  0  0  0  0  0  0
   21.7063   -8.1464  -16.3658 C   0  0  0  0  0  0  0  0  0  0  0  0
   21.9104   -7.6577  -17.5113 O   0  0  0  0  0  0  0  0  0  0  0  0
   18.7048   -6.1152  -15.3357 C   0  0  0  0  0  0  0  0  0  0  0  0
   19.9637   -6.3550  -16.1256 C   0  0  2  0  0  0  0  0  0  0  0  0
   20.7595   -7.4510  -15.5716 N   0  0  0  0  0  0  0  0  0  0  0  0
   20.7634   -5.1254  -16.2728 C   0  0  0  0  0  0  0  0  0  0  0  0
   20.3768   -4.0460  -17.0471 O   0  0  0  0  0  0  0  0  0  0  0  0
   21.8506   -5.0560  -15.6627 O   0  0  0  0  0  0  0  0  0  0  0  0
  1  2  1  0
  2  4  1  0
  3  2  2  0
  4  5  1  0
  6  8  1  0
  6  5  1  0
  6  7  1  1
  8 15  1  0
  9  8  2  0
 11 10  1  1
 11 13  1  0
 12 11  1  0
 14 13  1  6
 14 16  1  0
 15 14  1  0
 16 17  2  0
 16 20  1  0
 19 18  1  1
 19 21  1  0
 20 19  1  0
 21 22  1  0
 23 21  2  0
M  END
$$$$
