QLA.pdb
     RDKit          3D

 23 22  0  0  1  0  0  0  0  0999 V2000
   25.3083  -16.1995  -20.8740 N   0  0  0  0  0  0  0  0  0  0  0  0
   24.1312  -16.2788  -20.0923 C   0  0  0  0  0  0  0  0  0  0  0  0
   24.0239  -17.1495  -19.2114 O   0  0  0  0  0  0  0  0  0  0  0  0
   22.9915  -15.3281  -20.2990 C   0  0  0  0  0  0  0  0  0  0  0  0
   22.8329  -14.4193  -19.1134 C   0  0  0  0  0  0  0  0  0  0  0  0
   22.8346  -12.9665  -19.4347 C   0  0  2  0  0  0  0  0  0  0  0  0
   23.9740  -12.6719  -20.3491 N   0  0  0  0  0  0  0  0  0  0  0  0
   22.9243  -12.0345  -18.3217 C   0  0  0  0  0  0  0  0  0  0  0  0
   22.1341  -12.2184  -17.3266 O   0  0  0  0  0  0  0  0  0  0  0  0
   26.1866  -11.3905  -15.6064 C   0  0  0  0  0  0  0  0  0  0  0  0
   26.3240  -10.5197  -16.8697 C   0  0  2  0  0  0  0  0  0  0  0  0
   27.7044   -9.9107  -16.7866 C   0  0  0  0  0  0  0  0  0  0  0  0
   25.2292   -9.5203  -16.8056 C   0  0  0  0  0  0  0  0  0  0  0  0
   23.8312  -10.0984  -16.9929 C   0  0  2  0  0  0  0  0  0  0  0  0
   23.7921  -10.9262  -18.1825 N   0  0  0  0  0  0  0  0  0  0  0  0
   22.8051   -9.0483  -17.0237 C   0  0  0  0  0  0  0  0  0  0  0  0
   22.7703   -8.2715  -18.0177 O   0  0  0  0  0  0  0  0  0  0  0  0
   19.4994   -8.1335  -15.5627 C   0  0  0  0  0  0  0  0  0  0  0  0
   20.8090   -7.7635  -16.2064 C   0  0  2  0  0  0  0  0  0  0  0  0
   21.8208   -8.8062  -16.0322 N   0  0  0  0  0  0  0  0  0  0  0  0
   21.2978   -6.4517  -15.7445 C   0  0  0  0  0  0  0  0  0  0  0  0
   20.6406   -5.2586  -15.9864 O   0  0  0  0  0  0  0  0  0  0  0  0
   22.3654   -6.4178  -15.0978 O   0  0  0  0  0  0  0  0  0  0  0  0
  1  2  1  0
  2  4  1  0
  3  2  2  0
  4  5  1  0
  6  8  1  0
  6  5  1  0
  6  7  1  6
  8 15  1  0
  9  8  2  0
 11 10  1  1
 11 13  1  0
 12 11  1  0
 14 13  1  6
 14 16  1  0
 15 14  1  0
 16 17  2  0
 16 20  1  0
 19 18  1  1
 19 21  1  0
 20 19  1  0
 21 22  1  0
 23 21  2  0
M  END
$$$$
