QLA.pdb
     RDKit          3D

 23 22  0  0  1  0  0  0  0  0999 V2000
   21.5460  -23.5972  -15.3828 N   0  0  0  0  0  0  0  0  0  0  0  0
   20.1543  -23.3552  -15.4697 C   0  0  0  0  0  0  0  0  0  0  0  0
   19.3632  -24.3035  -15.6125 O   0  0  0  0  0  0  0  0  0  0  0  0
   19.5975  -21.9662  -15.3935 C   0  0  0  0  0  0  0  0  0  0  0  0
   20.6850  -20.9702  -15.1066 C   0  0  0  0  0  0  0  0  0  0  0  0
   21.2821  -21.0709  -13.7475 C   0  0  2  0  0  0  0  0  0  0  0  0
   20.4012  -20.3634  -12.7756 N   0  0  0  0  0  0  0  0  0  0  0  0
   22.6278  -20.5493  -13.5670 C   0  0  0  0  0  0  0  0  0  0  0  0
   22.8111  -19.2943  -13.7663 O   0  0  0  0  0  0  0  0  0  0  0  0
   25.1481  -19.3444  -10.4688 C   0  0  0  0  0  0  0  0  0  0  0  0
   25.1974  -20.8770  -10.6161 C   0  0  2  0  0  0  0  0  0  0  0  0
   25.9775  -21.3683   -9.4189 C   0  0  0  0  0  0  0  0  0  0  0  0
   25.8662  -21.1479  -11.9125 C   0  0  0  0  0  0  0  0  0  0  0  0
   25.1059  -20.6470  -13.1351 C   0  0  2  0  0  0  0  0  0  0  0  0
   23.7917  -21.2572  -13.1861 N   0  0  0  0  0  0  0  0  0  0  0  0
   25.8595  -20.8680  -14.3759 C   0  0  0  0  0  0  0  0  0  0  0  0
   25.8159  -22.0106  -14.9099 O   0  0  0  0  0  0  0  0  0  0  0  0
   28.1037  -19.0786  -16.8652 C   0  0  0  0  0  0  0  0  0  0  0  0
   27.3874  -20.2635  -16.2742 C   0  0  2  0  0  0  0  0  0  0  0  0
   26.6515  -19.9108  -15.0595 N   0  0  0  0  0  0  0  0  0  0  0  0
   28.2990  -21.3990  -16.0449 C   0  0  0  0  0  0  0  0  0  0  0  0
   28.8895  -22.1273  -17.0622 O   0  0  0  0  0  0  0  0  0  0  0  0
   28.5515  -21.7198  -14.8649 O   0  0  0  0  0  0  0  0  0  0  0  0
  1  2  1  0
  2  4  1  0
  3  2  2  0
  4  5  1  0
  6  8  1  0
  6  5  1  0
  6  7  1  1
  8 15  1  0
  9  8  2  0
 11 10  1  1
 11 13  1  0
 12 11  1  0
 14 13  1  1
 14 16  1  0
 15 14  1  0
 16 17  2  0
 16 20  1  0
 19 18  1  1
 19 21  1  0
 20 19  1  0
 21 22  1  0
 23 21  2  0
M  END
$$$$
