QLA.pdb
     RDKit          3D

 23 22  0  0  1  0  0  0  0  0999 V2000
   27.1432  -15.9738  -15.2305 N   0  0  0  0  0  0  0  0  0  0  0  0
   27.6467  -16.2661  -16.5204 C   0  0  0  0  0  0  0  0  0  0  0  0
   28.3516  -15.4350  -17.1188 O   0  0  0  0  0  0  0  0  0  0  0  0
   27.3498  -17.5696  -17.1971 C   0  0  0  0  0  0  0  0  0  0  0  0
   26.5776  -18.4805  -16.2856 C   0  0  0  0  0  0  0  0  0  0  0  0
   27.4137  -19.3859  -15.4519 C   0  0  2  0  0  0  0  0  0  0  0  0
   28.1070  -20.3621  -16.3394 N   0  0  0  0  0  0  0  0  0  0  0  0
   26.7414  -20.1509  -14.4134 C   0  0  0  0  0  0  0  0  0  0  0  0
   26.2738  -21.3034  -14.7318 O   0  0  0  0  0  0  0  0  0  0  0  0
   25.4478  -20.1282   -8.3523 C   0  0  0  0  0  0  0  0  0  0  0  0
   25.0928  -20.7697   -9.7071 C   0  0  2  0  0  0  0  0  0  0  0  0
   25.3706  -22.2450   -9.5353 C   0  0  0  0  0  0  0  0  0  0  0  0
   25.9617  -20.1153  -10.7162 C   0  0  0  0  0  0  0  0  0  0  0  0
   25.7199  -20.5695  -12.1511 C   0  0  2  0  0  0  0  0  0  0  0  0
   26.5327  -19.7878  -13.0623 N   0  0  0  0  0  0  0  0  0  0  0  0
   24.2963  -20.5189  -12.5079 C   0  0  0  0  0  0  0  0  0  0  0  0
   23.7226  -19.3951  -12.5320 O   0  0  0  0  0  0  0  0  0  0  0  0
   21.7124  -22.4142  -14.3683 C   0  0  0  0  0  0  0  0  0  0  0  0
   22.0938  -21.4366  -13.2889 C   0  0  2  0  0  0  0  0  0  0  0  0
   23.4735  -21.6252  -12.8394 N   0  0  0  0  0  0  0  0  0  0  0  0
   21.1470  -21.4673  -12.1594 C   0  0  0  0  0  0  0  0  0  0  0  0
   19.7998  -21.1763  -12.2785 O   0  0  0  0  0  0  0  0  0  0  0  0
   21.5880  -21.7743  -11.0322 O   0  0  0  0  0  0  0  0  0  0  0  0
  1  2  1  0
  2  4  1  0
  3  2  2  0
  4  5  1  0
  6  8  1  0
  6  5  1  0
  6  7  1  6
  8 15  1  0
  9  8  2  0
 11 10  1  1
 11 13  1  0
 12 11  1  0
 14 13  1  1
 14 16  1  0
 15 14  1  0
 16 17  2  0
 16 20  1  0
 19 18  1  6
 19 21  1  0
 20 19  1  0
 21 22  1  0
 23 21  2  0
M  END
$$$$
