QLA.pdb
     RDKit          3D

 23 22  0  0  1  0  0  0  0  0999 V2000
   27.2404  -16.4002  -15.1447 N   0  0  0  0  0  0  0  0  0  0  0  0
   27.7145  -16.7751  -16.4243 C   0  0  0  0  0  0  0  0  0  0  0  0
   28.4344  -15.9986  -17.0758 O   0  0  0  0  0  0  0  0  0  0  0  0
   27.3682  -18.1026  -17.0268 C   0  0  0  0  0  0  0  0  0  0  0  0
   26.6147  -18.9540  -16.0449 C   0  0  0  0  0  0  0  0  0  0  0  0
   27.4653  -19.8345  -15.1992 C   0  0  2  0  0  0  0  0  0  0  0  0
   28.1009  -20.8706  -16.0614 N   0  0  0  0  0  0  0  0  0  0  0  0
   26.8206  -20.5294  -14.0960 C   0  0  0  0  0  0  0  0  0  0  0  0
   26.2041  -21.6238  -14.3613 O   0  0  0  0  0  0  0  0  0  0  0  0
   25.5093  -19.8406   -8.0683 C   0  0  0  0  0  0  0  0  0  0  0  0
   25.1894  -20.6502   -9.3391 C   0  0  2  0  0  0  0  0  0  0  0  0
   25.4338  -22.0937   -8.9651 C   0  0  0  0  0  0  0  0  0  0  0  0
   26.1045  -20.1468  -10.3930 C   0  0  0  0  0  0  0  0  0  0  0  0
   25.8420  -20.7125  -11.7839 C   0  0  2  0  0  0  0  0  0  0  0  0
   26.7851  -20.1536  -12.7327 N   0  0  0  0  0  0  0  0  0  0  0  0
   24.4516  -20.5013  -12.2064 C   0  0  0  0  0  0  0  0  0  0  0  0
   24.0669  -19.3220  -12.4389 O   0  0  0  0  0  0  0  0  0  0  0  0
   21.7473  -22.0683  -14.0581 C   0  0  0  0  0  0  0  0  0  0  0  0
   22.1382  -21.1797  -12.9074 C   0  0  2  0  0  0  0  0  0  0  0  0
   23.4671  -21.5055  -12.3885 N   0  0  0  0  0  0  0  0  0  0  0  0
   21.1229  -21.1853  -11.8386 C   0  0  0  0  0  0  0  0  0  0  0  0
   19.8084  -20.7968  -12.0260 O   0  0  0  0  0  0  0  0  0  0  0  0
   21.4711  -21.5629  -10.7005 O   0  0  0  0  0  0  0  0  0  0  0  0
  1  2  1  0
  2  4  1  0
  3  2  2  0
  4  5  1  0
  6  8  1  0
  6  5  1  0
  6  7  1  6
  8 15  1  0
  9  8  2  0
 11 10  1  1
 11 13  1  0
 12 11  1  0
 14 13  1  1
 14 16  1  0
 15 14  1  0
 16 17  2  0
 16 20  1  0
 19 18  1  6
 19 21  1  0
 20 19  1  0
 21 22  1  0
 23 21  2  0
M  END
$$$$
