QLA.pdb
     RDKit          3D

 23 22  0  0  1  0  0  0  0  0999 V2000
   13.5061  -20.9532   -4.5289 N   0  0  0  0  0  0  0  0  0  0  0  0
   13.3762  -22.2678   -4.0212 C   0  0  0  0  0  0  0  0  0  0  0  0
   13.5341  -22.4872   -2.8077 O   0  0  0  0  0  0  0  0  0  0  0  0
   13.0486  -23.4222   -4.9186 C   0  0  0  0  0  0  0  0  0  0  0  0
   13.5090  -24.7172   -4.3121 C   0  0  0  0  0  0  0  0  0  0  0  0
   14.8564  -25.1694   -4.7523 C   0  0  2  0  0  0  0  0  0  0  0  0
   14.7531  -25.7415   -6.1246 N   0  0  0  0  0  0  0  0  0  0  0  0
   15.5353  -26.1549   -3.9255 C   0  0  0  0  0  0  0  0  0  0  0  0
   15.1048  -27.3637   -3.9663 O   0  0  0  0  0  0  0  0  0  0  0  0
   20.8790  -27.3927   -1.2300 C   0  0  0  0  0  0  0  0  0  0  0  0
   19.4186  -27.8670   -1.3535 C   0  0  2  0  0  0  0  0  0  0  0  0
   19.4968  -29.2444   -1.9699 C   0  0  0  0  0  0  0  0  0  0  0  0
   18.7300  -26.8710   -2.2109 C   0  0  0  0  0  0  0  0  0  0  0  0
   17.2133  -27.0158   -2.2582 C   0  0  2  0  0  0  0  0  0  0  0  0
   16.6388  -25.9557   -3.0634 N   0  0  0  0  0  0  0  0  0  0  0  0
   16.6261  -27.0597   -0.9130 C   0  0  0  0  0  0  0  0  0  0  0  0
   16.6779  -26.0192   -0.2007 O   0  0  0  0  0  0  0  0  0  0  0  0
   14.2653  -28.9769    1.2540 C   0  0  0  0  0  0  0  0  0  0  0  0
   15.4782  -28.1066    1.0592 C   0  0  2  0  0  0  0  0  0  0  0  0
   15.9881  -28.1737   -0.3108 N   0  0  0  0  0  0  0  0  0  0  0  0
   16.5329  -28.4044    2.0450 C   0  0  0  0  0  0  0  0  0  0  0  0
   16.4372  -28.0935    3.3896 O   0  0  0  0  0  0  0  0  0  0  0  0
   17.5705  -28.9700    1.6415 O   0  0  0  0  0  0  0  0  0  0  0  0
  1  2  1  0
  2  4  1  0
  3  2  2  0
  4  5  1  0
  6  8  1  0
  6  5  1  0
  6  7  1  6
  8 15  1  0
  9  8  2  0
 11 10  1  6
 11 13  1  0
 12 11  1  0
 14 13  1  1
 14 16  1  0
 15 14  1  0
 16 17  2  0
 16 20  1  0
 19 18  1  6
 19 21  1  0
 20 19  1  0
 21 22  1  0
 23 21  2  0
M  END
$$$$
