QLA.pdb
     RDKit          3D

 23 22  0  0  1  0  0  0  0  0999 V2000
   20.5845  -23.5631  -13.9463 N   0  0  0  0  0  0  0  0  0  0  0  0
   19.4868  -22.9385  -13.3078 C   0  0  0  0  0  0  0  0  0  0  0  0
   18.4566  -23.5884  -13.0587 O   0  0  0  0  0  0  0  0  0  0  0  0
   19.5307  -21.4925  -12.9170 C   0  0  0  0  0  0  0  0  0  0  0  0
   20.8538  -20.8813  -13.2810 C   0  0  0  0  0  0  0  0  0  0  0  0
   21.9992  -21.3239  -12.4408 C   0  0  2  0  0  0  0  0  0  0  0  0
   21.7484  -20.9242  -11.0271 N   0  0  0  0  0  0  0  0  0  0  0  0
   23.3210  -20.8335  -12.7983 C   0  0  0  0  0  0  0  0  0  0  0  0
   23.3902  -19.8816  -13.6570 O   0  0  0  0  0  0  0  0  0  0  0  0
   29.3260  -21.4522  -11.3783 C   0  0  0  0  0  0  0  0  0  0  0  0
   28.3332  -20.8893  -12.4129 C   0  0  2  0  0  0  0  0  0  0  0  0
   28.6065  -19.4039  -12.4616 C   0  0  0  0  0  0  0  0  0  0  0  0
   26.9775  -21.2275  -11.9136 C   0  0  0  0  0  0  0  0  0  0  0  0
   25.8376  -20.7801  -12.8214 C   0  0  2  0  0  0  0  0  0  0  0  0
   24.5737  -21.2730  -12.3099 N   0  0  0  0  0  0  0  0  0  0  0  0
   26.0581  -21.1850  -14.2157 C   0  0  0  0  0  0  0  0  0  0  0  0
   26.1095  -22.4174  -14.4824 O   0  0  0  0  0  0  0  0  0  0  0  0
   25.7932  -19.9925  -17.7284 C   0  0  0  0  0  0  0  0  0  0  0  0
   26.4449  -20.8455  -16.6730 C   0  0  2  0  0  0  0  0  0  0  0  0
   26.2225  -20.3186  -15.3261 N   0  0  0  0  0  0  0  0  0  0  0  0
   27.8789  -21.0547  -16.9430 C   0  0  0  0  0  0  0  0  0  0  0  0
   28.3810  -22.1523  -17.6191 O   0  0  0  0  0  0  0  0  0  0  0  0
   28.6844  -20.1907  -16.5380 O   0  0  0  0  0  0  0  0  0  0  0  0
  1  2  1  0
  2  4  1  0
  3  2  2  0
  4  5  1  0
  6  8  1  0
  6  5  1  0
  6  7  1  1
  8 15  1  0
  9  8  2  0
 11 10  1  1
 11 13  1  0
 12 11  1  0
 14 13  1  1
 14 16  1  0
 15 14  1  0
 16 17  2  0
 16 20  1  0
 19 18  1  6
 19 21  1  0
 20 19  1  0
 21 22  1  0
 23 21  2  0
M  END
$$$$
