WCT.pdb
     RDKit          3D

 28 29  0  0  1  0  0  0  0  0999 V2000
    9.5212  -17.1543   23.1568 N   0  0  0  0  0  0  0  0  0  0  0  0
   10.3697  -15.9486   23.1340 C   0  0  1  0  0  0  0  0  0  0  0  0
    9.4693  -14.8270   23.5375 C   0  0  0  0  0  0  0  0  0  0  0  0
    8.3454  -14.5758   22.5996 C   0  0  0  0  0  0  0  0  0  0  0  0
    7.0023  -14.8956   22.8398 C   0  0  0  0  0  0  0  0  0  0  0  0
    6.2623  -14.5005   21.8003 N   0  0  0  0  0  0  0  0  0  0  0  0
    7.0692  -13.9301   20.8786 C   0  0  0  0  0  0  0  0  0  0  0  0
    6.8534  -13.3696   19.6508 C   0  0  0  0  0  0  0  0  0  0  0  0
    7.9047  -12.8721   18.9414 C   0  0  0  0  0  0  0  0  0  0  0  0
    9.2019  -12.9068   19.4091 C   0  0  0  0  0  0  0  0  0  0  0  0
    9.4273  -13.4694   20.6446 C   0  0  0  0  0  0  0  0  0  0  0  0
    8.3729  -13.9814   21.3862 C   0  0  0  0  0  0  0  0  0  0  0  0
   11.5495  -16.1887   23.9429 C   0  0  0  0  0  0  0  0  0  0  0  0
   12.4403  -15.3166   24.1196 O   0  0  0  0  0  0  0  0  0  0  0  0
   11.7997  -17.4443   24.6179 N   0  0  0  0  0  0  0  0  0  0  0  0
   13.0118  -17.6844   25.3549 C   0  0  1  0  0  0  0  0  0  0  0  0
   12.6470  -18.7972   26.3678 C   0  0  0  0  0  0  0  0  0  0  0  0
   11.3879  -18.1565   27.5037 S   0  0  0  0  0  0  0  0  0  0  0  0
   14.1591  -18.1314   24.5233 C   0  0  0  0  0  0  0  0  0  0  0  0
   14.4691  -19.3547   24.5335 O   0  0  0  0  0  0  0  0  0  0  0  0
   15.0029  -16.5856   20.7955 C   0  0  0  0  0  0  0  0  0  0  0  0
   16.2286  -16.7402   21.6612 C   0  0  1  0  0  0  0  0  0  0  0  0
   16.8451  -15.5180   21.9513 O   0  0  0  0  0  0  0  0  0  0  0  0
   16.0235  -17.5828   22.8671 C   0  0  2  0  0  0  0  0  0  0  0  0
   14.9313  -17.2578   23.7109 N   0  0  0  0  0  0  0  0  0  0  0  0
   17.3168  -17.8694   23.5854 C   0  0  0  0  0  0  0  0  0  0  0  0
   18.2970  -18.3626   22.9256 O   0  0  0  0  0  0  0  0  0  0  0  0
   17.5563  -17.6517   24.9166 O   0  0  0  0  0  0  0  0  0  0  0  0
  2  1  1  1
  3  2  1  0
  3  4  1  0
  4  5  2  0
  5  6  1  0
  7  6  1  0
  8  7  2  0
  9  8  1  0
 10 11  1  0
 10  9  2  0
 11 12  2  0
 12  4  1  0
 12  7  1  0
 13 14  2  0
 13  2  1  0
 15 13  1  0
 16 19  1  0
 16 15  1  0
 16 17  1  1
 18 17  1  0
 19 20  2  0
 22 21  1  1
 22 23  1  0
 24 22  1  0
 25 19  1  0
 24 25  1  1
 26 28  1  0
 26 24  1  0
 27 26  2  0
M  END
$$$$
