WCT.pdb
     RDKit          3D

 28 29  0  0  1  0  0  0  0  0999 V2000
    6.4608  -17.7914   23.9719 N   0  0  0  0  0  0  0  0  0  0  0  0
    6.8078  -16.3987   23.6342 C   0  0  1  0  0  0  0  0  0  0  0  0
    7.6777  -15.9280   24.7538 C   0  0  0  0  0  0  0  0  0  0  0  0
    7.0097  -14.9973   25.6991 C   0  0  0  0  0  0  0  0  0  0  0  0
    5.9626  -15.3363   26.5665 C   0  0  0  0  0  0  0  0  0  0  0  0
    5.6285  -14.2667   27.2935 N   0  0  0  0  0  0  0  0  0  0  0  0
    6.4181  -13.2297   26.9371 C   0  0  0  0  0  0  0  0  0  0  0  0
    6.5081  -11.9274   27.3421 C   0  0  0  0  0  0  0  0  0  0  0  0
    7.4305  -11.1042   26.7696 C   0  0  0  0  0  0  0  0  0  0  0  0
    8.2949  -11.5275   25.7815 C   0  0  0  0  0  0  0  0  0  0  0  0
    8.2106  -12.8375   25.3684 C   0  0  0  0  0  0  0  0  0  0  0  0
    7.2806  -13.6949   25.9373 C   0  0  0  0  0  0  0  0  0  0  0  0
    7.3592  -16.3636   22.2931 C   0  0  0  0  0  0  0  0  0  0  0  0
    8.0385  -17.3091   21.8136 O   0  0  0  0  0  0  0  0  0  0  0  0
    7.1719  -15.2456   21.3933 N   0  0  0  0  0  0  0  0  0  0  0  0
    7.8223  -15.1823   20.1115 C   0  0  1  0  0  0  0  0  0  0  0  0
    7.6250  -13.7216   19.6376 C   0  0  0  0  0  0  0  0  0  0  0  0
    8.4350  -13.5203   18.0283 S   0  0  0  0  0  0  0  0  0  0  0  0
    9.2737  -15.4990   20.1420 C   0  0  0  0  0  0  0  0  0  0  0  0
   10.0397  -14.7475   20.8062 O   0  0  0  0  0  0  0  0  0  0  0  0
   11.4736  -18.3900   21.4605 C   0  0  0  0  0  0  0  0  0  0  0  0
   11.6016  -18.2939   19.9605 C   0  0  1  0  0  0  0  0  0  0  0  0
   10.9928  -19.3636   19.2948 O   0  0  0  0  0  0  0  0  0  0  0  0
   11.2211  -16.9731   19.3974 C   0  0  2  0  0  0  0  0  0  0  0  0
    9.8533  -16.6058   19.4647 N   0  0  0  0  0  0  0  0  0  0  0  0
   11.8840  -16.7102   18.0700 C   0  0  0  0  0  0  0  0  0  0  0  0
   11.1571  -16.6243   17.0195 O   0  0  0  0  0  0  0  0  0  0  0  0
   13.2296  -16.5522   17.8667 O   0  0  0  0  0  0  0  0  0  0  0  0
  2  1  1  1
  3  2  1  0
  3  4  1  0
  4  5  2  0
  5  6  1  0
  7  6  1  0
  8  7  2  0
  9  8  1  0
 10 11  1  0
 10  9  2  0
 11 12  2  0
 12  4  1  0
 12  7  1  0
 13 14  2  0
 13  2  1  0
 15 13  1  0
 16 19  1  0
 16 15  1  0
 16 17  1  1
 18 17  1  0
 19 20  2  0
 22 21  1  1
 22 23  1  0
 24 22  1  0
 25 19  1  0
 24 25  1  6
 26 28  1  0
 26 24  1  0
 27 26  2  0
M  END
$$$$
