WCT.pdb
     RDKit          3D

 28 29  0  0  1  0  0  0  0  0999 V2000
    6.8214  -17.1862   25.5202 N   0  0  0  0  0  0  0  0  0  0  0  0
    6.6853  -16.2066   24.4266 C   0  0  1  0  0  0  0  0  0  0  0  0
    7.7874  -15.2215   24.6423 C   0  0  0  0  0  0  0  0  0  0  0  0
    7.7862  -14.5848   25.9841 C   0  0  0  0  0  0  0  0  0  0  0  0
    8.3797  -15.1194   27.1356 C   0  0  0  0  0  0  0  0  0  0  0  0
    8.2156  -14.2684   28.1520 N   0  0  0  0  0  0  0  0  0  0  0  0
    7.5328  -13.1878   27.7138 C   0  0  0  0  0  0  0  0  0  0  0  0
    7.0942  -12.0401   28.3126 C   0  0  0  0  0  0  0  0  0  0  0  0
    6.4072  -11.1174   27.5827 C   0  0  0  0  0  0  0  0  0  0  0  0
    6.1259  -11.2871   26.2430 C   0  0  0  0  0  0  0  0  0  0  0  0
    6.5643  -12.4400   25.6328 C   0  0  0  0  0  0  0  0  0  0  0  0
    7.2668  -13.3934   26.3548 C   0  0  0  0  0  0  0  0  0  0  0  0
    6.6543  -16.9154   23.1616 C   0  0  0  0  0  0  0  0  0  0  0  0
    5.6001  -17.4172   22.6903 O   0  0  0  0  0  0  0  0  0  0  0  0
    7.8269  -17.1009   22.3337 N   0  0  0  0  0  0  0  0  0  0  0  0
    8.1169  -16.2379   21.2196 C   0  0  1  0  0  0  0  0  0  0  0  0
    7.2350  -14.9857   21.4471 C   0  0  0  0  0  0  0  0  0  0  0  0
    7.4136  -13.8841   20.0184 S   0  0  0  0  0  0  0  0  0  0  0  0
    9.5406  -15.8258   21.1150 C   0  0  0  0  0  0  0  0  0  0  0  0
    9.8940  -15.1286   20.1241 O   0  0  0  0  0  0  0  0  0  0  0  0
   14.1183  -16.2081   20.7706 C   0  0  0  0  0  0  0  0  0  0  0  0
   12.7050  -15.7165   20.9628 C   0  0  1  0  0  0  0  0  0  0  0  0
   12.0739  -15.3954   19.7559 O   0  0  0  0  0  0  0  0  0  0  0  0
   11.8707  -16.5797   21.8375 C   0  0  2  0  0  0  0  0  0  0  0  0
   10.5333  -16.1710   22.0715 N   0  0  0  0  0  0  0  0  0  0  0  0
   12.6184  -17.0358   23.0636 C   0  0  0  0  0  0  0  0  0  0  0  0
   13.8351  -17.4161   22.9429 O   0  0  0  0  0  0  0  0  0  0  0  0
   12.1106  -17.0897   24.3349 O   0  0  0  0  0  0  0  0  0  0  0  0
  2  1  1  1
  3  2  1  0
  3  4  1  0
  4  5  2  0
  5  6  1  0
  7  6  1  0
  8  7  2  0
  9  8  1  0
 10 11  1  0
 10  9  2  0
 11 12  2  0
 12  4  1  0
 12  7  1  0
 13 14  2  0
 13  2  1  0
 15 13  1  0
 16 19  1  0
 16 15  1  0
 16 17  1  1
 18 17  1  0
 19 20  2  0
 22 21  1  6
 22 23  1  0
 24 22  1  0
 25 19  1  0
 24 25  1  1
 26 28  1  0
 26 24  1  0
 27 26  2  0
M  END
$$$$
