WCT.pdb
     RDKit          3D

 28 29  0  0  1  0  0  0  0  0999 V2000
    6.5599  -18.3527   25.3691 N   0  0  0  0  0  0  0  0  0  0  0  0
    6.7740  -16.9918   24.8437 C   0  0  1  0  0  0  0  0  0  0  0  0
    7.4914  -16.2596   25.9304 C   0  0  0  0  0  0  0  0  0  0  0  0
    6.8452  -14.9873   26.3421 C   0  0  0  0  0  0  0  0  0  0  0  0
    5.5124  -14.8509   26.7528 C   0  0  0  0  0  0  0  0  0  0  0  0
    5.2800  -13.5770   27.0804 N   0  0  0  0  0  0  0  0  0  0  0  0
    6.4135  -12.8637   26.9002 C   0  0  0  0  0  0  0  0  0  0  0  0
    6.7391  -11.5473   27.0710 C   0  0  0  0  0  0  0  0  0  0  0  0
    8.0022  -11.1218   26.7887 C   0  0  0  0  0  0  0  0  0  0  0  0
    8.9884  -11.9699   26.3295 C   0  0  0  0  0  0  0  0  0  0  0  0
    8.6684  -13.2969   26.1551 C   0  0  0  0  0  0  0  0  0  0  0  0
    7.3896  -13.7540   26.4370 C   0  0  0  0  0  0  0  0  0  0  0  0
    7.4250  -17.0839   23.5508 C   0  0  0  0  0  0  0  0  0  0  0  0
    8.2381  -18.0016   23.2642 O   0  0  0  0  0  0  0  0  0  0  0  0
    7.1924  -16.1358   22.4823 N   0  0  0  0  0  0  0  0  0  0  0  0
    7.9695  -16.1472   21.2715 C   0  0  1  0  0  0  0  0  0  0  0  0
    7.4979  -14.8996   20.4851 C   0  0  0  0  0  0  0  0  0  0  0  0
    8.3672  -14.8546   18.8949 S   0  0  0  0  0  0  0  0  0  0  0  0
    9.4383  -16.0709   21.4826 C   0  0  0  0  0  0  0  0  0  0  0  0
    9.9092  -15.0618   22.0764 O   0  0  0  0  0  0  0  0  0  0  0  0
   12.0512  -18.3775   23.3359 C   0  0  0  0  0  0  0  0  0  0  0  0
   12.3644  -18.2723   21.8640 C   0  0  1  0  0  0  0  0  0  0  0  0
   12.1331  -19.4673   21.1737 O   0  0  0  0  0  0  0  0  0  0  0  0
   11.7602  -17.0929   21.1927 C   0  0  2  0  0  0  0  0  0  0  0  0
   10.3492  -17.0740   21.0542 N   0  0  0  0  0  0  0  0  0  0  0  0
   12.5244  -16.6898   19.9583 C   0  0  0  0  0  0  0  0  0  0  0  0
   12.0069  -16.9110   18.8081 O   0  0  0  0  0  0  0  0  0  0  0  0
   13.7582  -16.0945   19.9415 O   0  0  0  0  0  0  0  0  0  0  0  0
  2  1  1  1
  3  2  1  0
  3  4  1  0
  4  5  2  0
  5  6  1  0
  7  6  1  0
  8  7  2  0
  9  8  1  0
 10 11  1  0
 10  9  2  0
 11 12  2  0
 12  4  1  0
 12  7  1  0
 13 14  2  0
 13  2  1  0
 15 13  1  0
 16 19  1  0
 16 15  1  0
 16 17  1  6
 18 17  1  0
 19 20  2  0
 22 21  1  1
 22 23  1  0
 24 22  1  0
 25 19  1  0
 24 25  1  6
 26 28  1  0
 26 24  1  0
 27 26  2  0
M  END
$$$$
