WCT.pdb
     RDKit          3D

 28 29  0  0  1  0  0  0  0  0999 V2000
    6.4926  -18.0409   24.5134 N   0  0  0  0  0  0  0  0  0  0  0  0
    6.9769  -16.7445   24.0045 C   0  0  1  0  0  0  0  0  0  0  0  0
    7.8253  -16.1849   25.0993 C   0  0  0  0  0  0  0  0  0  0  0  0
    7.1165  -15.2439   26.0037 C   0  0  0  0  0  0  0  0  0  0  0  0
    6.3997  -15.6077   27.1516 C   0  0  0  0  0  0  0  0  0  0  0  0
    5.9219  -14.5079   27.7401 N   0  0  0  0  0  0  0  0  0  0  0  0
    6.2969  -13.4271   27.0210 C   0  0  0  0  0  0  0  0  0  0  0  0
    6.0878  -12.0831   27.1558 C   0  0  0  0  0  0  0  0  0  0  0  0
    6.6064  -11.2232   26.2351 C   0  0  0  0  0  0  0  0  0  0  0  0
    7.3463  -11.6495   25.1518 C   0  0  0  0  0  0  0  0  0  0  0  0
    7.5613  -13.0013   25.0091 C   0  0  0  0  0  0  0  0  0  0  0  0
    7.0445  -13.8962   25.9343 C   0  0  0  0  0  0  0  0  0  0  0  0
    7.5981  -16.9501   22.7100 C   0  0  0  0  0  0  0  0  0  0  0  0
    8.0243  -18.0730   22.3323 O   0  0  0  0  0  0  0  0  0  0  0  0
    7.7753  -15.8873   21.7436 N   0  0  0  0  0  0  0  0  0  0  0  0
    8.6642  -16.0201   20.6201 C   0  0  1  0  0  0  0  0  0  0  0  0
    8.3671  -14.7879   19.7307 C   0  0  0  0  0  0  0  0  0  0  0  0
    6.6053  -14.3842   19.8702 S   0  0  0  0  0  0  0  0  0  0  0  0
   10.1069  -16.0353   20.9755 C   0  0  0  0  0  0  0  0  0  0  0  0
   10.8824  -15.2398   20.3768 O   0  0  0  0  0  0  0  0  0  0  0  0
   11.8132  -16.2367   24.7624 C   0  0  0  0  0  0  0  0  0  0  0  0
   12.2770  -17.3020   23.8003 C   0  0  1  0  0  0  0  0  0  0  0  0
   11.8460  -18.5833   24.1612 O   0  0  0  0  0  0  0  0  0  0  0  0
   12.0207  -16.9890   22.3710 C   0  0  2  0  0  0  0  0  0  0  0  0
   10.6677  -16.8965   21.9569 N   0  0  0  0  0  0  0  0  0  0  0  0
   12.9140  -17.7776   21.4488 C   0  0  0  0  0  0  0  0  0  0  0  0
   12.3818  -18.5864   20.6109 O   0  0  0  0  0  0  0  0  0  0  0  0
   14.2823  -17.7171   21.4175 O   0  0  0  0  0  0  0  0  0  0  0  0
  2  1  1  1
  3  2  1  0
  3  4  1  0
  4  5  2  0
  5  6  1  0
  7  6  1  0
  8  7  2  0
  9  8  1  0
 10 11  1  0
 10  9  2  0
 11 12  2  0
 12  4  1  0
 12  7  1  0
 13 14  2  0
 13  2  1  0
 15 13  1  0
 16 19  1  0
 16 15  1  0
 16 17  1  6
 18 17  1  0
 19 20  2  0
 22 21  1  1
 22 23  1  0
 24 22  1  0
 25 19  1  0
 24 25  1  6
 26 28  1  0
 26 24  1  0
 27 26  2  0
M  END
$$$$
