WCT.pdb
     RDKit          3D

 28 29  0  0  1  0  0  0  0  0999 V2000
    6.7536  -17.9431   24.6462 N   0  0  0  0  0  0  0  0  0  0  0  0
    7.1766  -16.6554   24.0658 C   0  0  1  0  0  0  0  0  0  0  0  0
    7.9142  -15.9548   25.1599 C   0  0  0  0  0  0  0  0  0  0  0  0
    7.1315  -14.8948   25.8453 C   0  0  0  0  0  0  0  0  0  0  0  0
    5.9376  -15.0967   26.5507 C   0  0  0  0  0  0  0  0  0  0  0  0
    5.5268  -13.9341   27.0642 N   0  0  0  0  0  0  0  0  0  0  0  0
    6.4075  -12.9678   26.7227 C   0  0  0  0  0  0  0  0  0  0  0  0
    6.4791  -11.6249   26.9669 C   0  0  0  0  0  0  0  0  0  0  0  0
    7.5190  -10.9017   26.4652 C   0  0  0  0  0  0  0  0  0  0  0  0
    8.5230  -11.4680   25.7076 C   0  0  0  0  0  0  0  0  0  0  0  0
    8.4581  -12.8196   25.4575 C   0  0  0  0  0  0  0  0  0  0  0  0
    7.4099  -13.5772   25.9586 C   0  0  0  0  0  0  0  0  0  0  0  0
    7.8899  -16.9090   22.8286 C   0  0  0  0  0  0  0  0  0  0  0  0
    8.4756  -17.9987   22.5939 O   0  0  0  0  0  0  0  0  0  0  0  0
    7.9843  -15.9372   21.7603 N   0  0  0  0  0  0  0  0  0  0  0  0
    8.8731  -16.1175   20.6432 C   0  0  1  0  0  0  0  0  0  0  0  0
    8.4790  -15.0068   19.6389 C   0  0  0  0  0  0  0  0  0  0  0  0
    6.7879  -15.3182   19.0650 S   0  0  0  0  0  0  0  0  0  0  0  0
   10.3152  -15.9906   20.9778 C   0  0  0  0  0  0  0  0  0  0  0  0
   10.7863  -14.8378   21.1824 O   0  0  0  0  0  0  0  0  0  0  0  0
   11.5930  -16.8291   24.0450 C   0  0  0  0  0  0  0  0  0  0  0  0
   12.6195  -16.4429   23.0092 C   0  0  1  0  0  0  0  0  0  0  0  0
   13.9285  -16.4829   23.5020 O   0  0  0  0  0  0  0  0  0  0  0  0
   12.4715  -17.1462   21.7093 C   0  0  2  0  0  0  0  0  0  0  0  0
   11.2001  -17.0976   21.0834 N   0  0  0  0  0  0  0  0  0  0  0  0
   13.1202  -18.5060   21.7231 C   0  0  0  0  0  0  0  0  0  0  0  0
   12.4172  -19.5259   22.0474 O   0  0  0  0  0  0  0  0  0  0  0  0
   14.4294  -18.7695   21.4171 O   0  0  0  0  0  0  0  0  0  0  0  0
  2  1  1  1
  3  2  1  0
  3  4  1  0
  4  5  2  0
  5  6  1  0
  7  6  1  0
  8  7  2  0
  9  8  1  0
 10 11  1  0
 10  9  2  0
 11 12  2  0
 12  4  1  0
 12  7  1  0
 13 14  2  0
 13  2  1  0
 15 13  1  0
 16 19  1  0
 16 15  1  0
 16 17  1  6
 18 17  1  0
 19 20  2  0
 22 21  1  1
 22 23  1  0
 24 22  1  0
 25 19  1  0
 24 25  1  1
 26 28  1  0
 26 24  1  0
 27 26  2  0
M  END
$$$$
