WCT.pdb
     RDKit          3D

 28 29  0  0  1  0  0  0  0  0999 V2000
    6.6633  -18.3103   26.1846 N   0  0  0  0  0  0  0  0  0  0  0  0
    7.4599  -17.1926   25.6457 C   0  0  1  0  0  0  0  0  0  0  0  0
    8.8629  -17.4644   26.0811 C   0  0  0  0  0  0  0  0  0  0  0  0
    9.2794  -16.7274   27.3014 C   0  0  0  0  0  0  0  0  0  0  0  0
    9.7037  -17.3175   28.4995 C   0  0  0  0  0  0  0  0  0  0  0  0
   10.0318  -16.3597   29.3708 N   0  0  0  0  0  0  0  0  0  0  0  0
    9.8388  -15.1543   28.7913 C   0  0  0  0  0  0  0  0  0  0  0  0
   10.0043  -13.8650   29.2139 C   0  0  0  0  0  0  0  0  0  0  0  0
    9.7083  -12.8353   28.3724 C   0  0  0  0  0  0  0  0  0  0  0  0
    9.2401  -13.0325   27.0900 C   0  0  0  0  0  0  0  0  0  0  0  0
    9.0710  -14.3278   26.6571 C   0  0  0  0  0  0  0  0  0  0  0  0
    9.3668  -15.3928   27.4951 C   0  0  0  0  0  0  0  0  0  0  0  0
    7.2073  -17.0789   24.2220 C   0  0  0  0  0  0  0  0  0  0  0  0
    6.8738  -18.0631   23.5110 O   0  0  0  0  0  0  0  0  0  0  0  0
    7.3111  -15.8283   23.5009 N   0  0  0  0  0  0  0  0  0  0  0  0
    7.5290  -15.7846   22.0794 C   0  0  1  0  0  0  0  0  0  0  0  0
    7.1651  -14.3375   21.6660 C   0  0  0  0  0  0  0  0  0  0  0  0
    7.4601  -14.1518   19.8870 S   0  0  0  0  0  0  0  0  0  0  0  0
    8.9238  -16.0808   21.6615 C   0  0  0  0  0  0  0  0  0  0  0  0
    9.8641  -15.4378   22.2047 O   0  0  0  0  0  0  0  0  0  0  0  0
   11.2804  -18.9786   22.0662 C   0  0  0  0  0  0  0  0  0  0  0  0
   11.0421  -18.7790   20.5900 C   0  0  1  0  0  0  0  0  0  0  0  0
   10.2757  -19.8023   20.0213 O   0  0  0  0  0  0  0  0  0  0  0  0
   10.5541  -17.4238   20.2269 C   0  0  2  0  0  0  0  0  0  0  0  0
    9.2635  -17.0526   20.6818 N   0  0  0  0  0  0  0  0  0  0  0  0
   10.8412  -17.0846   18.7871 C   0  0  0  0  0  0  0  0  0  0  0  0
    9.8630  -16.9778   17.9677 O   0  0  0  0  0  0  0  0  0  0  0  0
   12.0832  -16.8756   18.2481 O   0  0  0  0  0  0  0  0  0  0  0  0
  2  1  1  6
  3  2  1  0
  3  4  1  0
  4  5  2  0
  5  6  1  0
  7  6  1  0
  8  7  2  0
  9  8  1  0
 10 11  1  0
 10  9  2  0
 11 12  2  0
 12  4  1  0
 12  7  1  0
 13 14  2  0
 13  2  1  0
 15 13  1  0
 16 19  1  0
 16 15  1  0
 16 17  1  1
 18 17  1  0
 19 20  2  0
 22 21  1  1
 22 23  1  0
 24 22  1  0
 25 19  1  0
 24 25  1  6
 26 28  1  0
 26 24  1  0
 27 26  2  0
M  END
$$$$
