WCT.pdb
     RDKit          3D

 28 29  0  0  1  0  0  0  0  0999 V2000
    6.8857  -18.1196   24.7888 N   0  0  0  0  0  0  0  0  0  0  0  0
    7.6553  -16.9718   24.2746 C   0  0  1  0  0  0  0  0  0  0  0  0
    8.0736  -16.2048   25.4864 C   0  0  0  0  0  0  0  0  0  0  0  0
    7.1323  -15.1272   25.8846 C   0  0  0  0  0  0  0  0  0  0  0  0
    5.8057  -15.3197   26.2931 C   0  0  0  0  0  0  0  0  0  0  0  0
    5.2653  -14.1393   26.6074 N   0  0  0  0  0  0  0  0  0  0  0  0
    6.1884  -13.1703   26.4204 C   0  0  0  0  0  0  0  0  0  0  0  0
    6.1788  -11.8126   26.5778 C   0  0  0  0  0  0  0  0  0  0  0  0
    7.2988  -11.0916   26.2919 C   0  0  0  0  0  0  0  0  0  0  0  0
    8.4652  -11.6747   25.8420 C   0  0  0  0  0  0  0  0  0  0  0  0
    8.4828  -13.0413   25.6812 C   0  0  0  0  0  0  0  0  0  0  0  0
    7.3554  -13.7968   25.9670 C   0  0  0  0  0  0  0  0  0  0  0  0
    8.6993  -17.4619   23.3950 C   0  0  0  0  0  0  0  0  0  0  0  0
    9.2728  -18.5686   23.5730 O   0  0  0  0  0  0  0  0  0  0  0  0
    9.1652  -16.7261   22.2390 N   0  0  0  0  0  0  0  0  0  0  0  0
   10.3605  -17.0988   21.5301 C   0  0  1  0  0  0  0  0  0  0  0  0
   10.5545  -15.9892   20.4678 C   0  0  0  0  0  0  0  0  0  0  0  0
   11.9824  -16.4180   19.4365 S   0  0  0  0  0  0  0  0  0  0  0  0
   11.5769  -17.1869   22.3789 C   0  0  0  0  0  0  0  0  0  0  0  0
   11.8251  -16.2393   23.1746 O   0  0  0  0  0  0  0  0  0  0  0  0
   15.3060  -19.8851   24.3483 C   0  0  0  0  0  0  0  0  0  0  0  0
   14.0024  -19.7946   23.5945 C   0  0  1  0  0  0  0  0  0  0  0  0
   12.9322  -20.3659   24.2917 O   0  0  0  0  0  0  0  0  0  0  0  0
   13.6913  -18.4398   23.0709 C   0  0  2  0  0  0  0  0  0  0  0  0
   12.4814  -18.2824   22.3485 N   0  0  0  0  0  0  0  0  0  0  0  0
   14.8944  -17.7842   22.4438 C   0  0  0  0  0  0  0  0  0  0  0  0
   15.1399  -17.9934   21.2047 O   0  0  0  0  0  0  0  0  0  0  0  0
   15.7827  -16.9632   23.0872 O   0  0  0  0  0  0  0  0  0  0  0  0
  2  1  1  1
  3  2  1  0
  3  4  1  0
  4  5  2  0
  5  6  1  0
  7  6  1  0
  8  7  2  0
  9  8  1  0
 10 11  1  0
 10  9  2  0
 11 12  2  0
 12  4  1  0
 12  7  1  0
 13 14  2  0
 13  2  1  0
 15 13  1  0
 16 19  1  0
 16 15  1  0
 16 17  1  6
 18 17  1  0
 19 20  2  0
 22 21  1  1
 22 23  1  0
 24 22  1  0
 25 19  1  0
 24 25  1  6
 26 28  1  0
 26 24  1  0
 27 26  2  0
M  END
$$$$
