QSL.pdb
     RDKit          3D

 24 23  0  0  1  0  0  0  0  0999 V2000
   24.9197  -27.4214  -15.5467 N   0  0  0  0  0  0  0  0  0  0  0  0
   24.7500  -27.3742  -16.9767 C   0  0  0  0  0  0  0  0  0  0  0  0
   24.8087  -28.4706  -17.5688 O   0  0  0  0  0  0  0  0  0  0  0  0
   24.5286  -26.0535  -17.5888 C   0  0  0  0  0  0  0  0  0  0  0  0
   24.5077  -24.9921  -16.5327 C   0  0  0  0  0  0  0  0  0  0  0  0
   25.3666  -23.8091  -16.8969 C   0  0  2  0  0  0  0  0  0  0  0  0
   26.7172  -24.1756  -16.3743 N   0  0  0  0  0  0  0  0  0  0  0  0
   25.0061  -22.5593  -16.2314 C   0  0  0  0  0  0  0  0  0  0  0  0
   25.6479  -22.1667  -15.1946 O   0  0  0  0  0  0  0  0  0  0  0  0
   25.0248  -19.0014  -17.4282 O   0  0  0  0  0  0  0  0  0  0  0  0
   23.7388  -19.3355  -17.0519 C   0  0  0  0  0  0  0  0  0  0  0  0
   23.7271  -20.3961  -15.9594 C   0  0  2  0  0  0  0  0  0  0  0  0
   23.9637  -21.6651  -16.6201 N   0  0  0  0  0  0  0  0  0  0  0  0
   22.3714  -20.3492  -15.3397 C   0  0  0  0  0  0  0  0  0  0  0  0
   21.4495  -20.9872  -15.9097 O   0  0  0  0  0  0  0  0  0  0  0  0
   21.2972  -19.3794   -9.8321 C   0  0  0  0  0  0  0  0  0  0  0  0
   21.0318  -20.1641  -11.1697 C   0  0  1  0  0  0  0  0  0  0  0  0
   19.8896  -21.0568  -10.8259 C   0  0  0  0  0  0  0  0  0  0  0  0
   20.8411  -19.1303  -12.1905 C   0  0  0  0  0  0  0  0  0  0  0  0
   20.6883  -19.5156  -13.6201 C   0  0  2  0  0  0  0  0  0  0  0  0
   22.0775  -19.6397  -14.1705 N   0  0  0  0  0  0  0  0  0  0  0  0
   20.0773  -18.4692  -14.4317 C   0  0  0  0  0  0  0  0  0  0  0  0
   20.8191  -17.6164  -15.0353 O   0  0  0  0  0  0  0  0  0  0  0  0
   18.7359  -18.3108  -14.6217 O   0  0  0  0  0  0  0  0  0  0  0  0
  2  1  1  0
  2  3  2  0
  4  2  1  0
  5  4  1  0
  6  5  1  0
  6  7  1  1
  8  6  1  0
  9  8  2  0
 10 11  1  0
 12 11  1  6
 12 13  1  0
 13  8  1  0
 14 12  1  0
 15 14  2  0
 17 16  1  1
 18 17  1  0
 19 17  1  0
 20 19  1  1
 20 21  1  0
 21 14  1  0
 22 20  1  0
 22 24  1  0
 23 22  2  0
M  END
$$$$
