QSL.pdb
     RDKit          3D

 24 23  0  0  1  0  0  0  0  0999 V2000
   22.8648  -16.6324  -16.2452 N   0  0  0  0  0  0  0  0  0  0  0  0
   22.4471  -17.6350  -17.1919 C   0  0  0  0  0  0  0  0  0  0  0  0
   22.2778  -18.7820  -16.7316 O   0  0  0  0  0  0  0  0  0  0  0  0
   22.2655  -17.2115  -18.5904 C   0  0  0  0  0  0  0  0  0  0  0  0
   22.4349  -15.7283  -18.7067 C   0  0  0  0  0  0  0  0  0  0  0  0
   21.1655  -14.9830  -18.3860 C   0  0  2  0  0  0  0  0  0  0  0  0
   20.2744  -15.2817  -19.5472 N   0  0  0  0  0  0  0  0  0  0  0  0
   21.2990  -13.5285  -18.3484 C   0  0  0  0  0  0  0  0  0  0  0  0
   22.4095  -12.9698  -18.6573 O   0  0  0  0  0  0  0  0  0  0  0  0
   19.1862   -9.1430  -17.9512 O   0  0  0  0  0  0  0  0  0  0  0  0
   19.1136  -10.5211  -18.0029 C   0  0  0  0  0  0  0  0  0  0  0  0
   20.4947  -11.1614  -17.9755 C   0  0  2  0  0  0  0  0  0  0  0  0
   20.2800  -12.5955  -17.9901 N   0  0  0  0  0  0  0  0  0  0  0  0
   21.1397  -10.7202  -16.7052 C   0  0  0  0  0  0  0  0  0  0  0  0
   20.8219  -11.3274  -15.6507 O   0  0  0  0  0  0  0  0  0  0  0  0
   26.4007  -10.0194  -15.8236 C   0  0  0  0  0  0  0  0  0  0  0  0
   24.9026  -10.4478  -15.6059 C   0  0  1  0  0  0  0  0  0  0  0  0
   24.9615  -11.3038  -14.3878 C   0  0  0  0  0  0  0  0  0  0  0  0
   24.1475   -9.1931  -15.5546 C   0  0  0  0  0  0  0  0  0  0  0  0
   22.6753   -9.2192  -15.3365 C   0  0  2  0  0  0  0  0  0  0  0  0
   22.0692   -9.6775  -16.6290 N   0  0  0  0  0  0  0  0  0  0  0  0
   22.1051   -7.8931  -15.1277 C   0  0  0  0  0  0  0  0  0  0  0  0
   21.6227   -7.2436  -16.1213 O   0  0  0  0  0  0  0  0  0  0  0  0
   22.0279   -7.2564  -13.9239 O   0  0  0  0  0  0  0  0  0  0  0  0
  2  1  1  0
  2  3  2  0
  4  2  1  0
  5  4  1  0
  6  5  1  0
  6  7  1  6
  8  6  1  0
  9  8  2  0
 10 11  1  0
 12 11  1  1
 12 13  1  0
 13  8  1  0
 14 12  1  0
 15 14  2  0
 17 16  1  1
 18 17  1  0
 19 17  1  0
 20 19  1  6
 20 21  1  0
 21 14  1  0
 22 20  1  0
 22 24  1  0
 23 22  2  0
M  END
$$$$
