QSL.pdb
     RDKit          3D

 24 23  0  0  1  0  0  0  0  0999 V2000
   20.4305  -22.9109  -17.9382 N   0  0  0  0  0  0  0  0  0  0  0  0
   19.1816  -22.7837  -18.6451 C   0  0  0  0  0  0  0  0  0  0  0  0
   19.2294  -22.1680  -19.7291 O   0  0  0  0  0  0  0  0  0  0  0  0
   17.9886  -23.3839  -18.0250 C   0  0  0  0  0  0  0  0  0  0  0  0
   18.3592  -24.0608  -16.7418 C   0  0  0  0  0  0  0  0  0  0  0  0
   17.8773  -23.2977  -15.5354 C   0  0  2  0  0  0  0  0  0  0  0  0
   18.3851  -21.9116  -15.7650 N   0  0  0  0  0  0  0  0  0  0  0  0
   18.4540  -23.7291  -14.2641 C   0  0  0  0  0  0  0  0  0  0  0  0
   18.0859  -24.8310  -13.7244 O   0  0  0  0  0  0  0  0  0  0  0  0
   21.1950  -21.4940  -12.0027 O   0  0  0  0  0  0  0  0  0  0  0  0
   21.3913  -22.8526  -12.1527 C   0  0  0  0  0  0  0  0  0  0  0  0
   20.0753  -23.5979  -12.3294 C   0  0  2  0  0  0  0  0  0  0  0  0
   19.4403  -23.0318  -13.5038 N   0  0  0  0  0  0  0  0  0  0  0  0
   19.2743  -23.3382  -11.0985 C   0  0  0  0  0  0  0  0  0  0  0  0
   18.4703  -22.3713  -11.1216 O   0  0  0  0  0  0  0  0  0  0  0  0
   15.0968  -25.1705   -9.3707 C   0  0  0  0  0  0  0  0  0  0  0  0
   16.6280  -25.3547   -9.0594 C   0  0  1  0  0  0  0  0  0  0  0  0
   17.0919  -26.2721  -10.1378 C   0  0  0  0  0  0  0  0  0  0  0  0
   17.1745  -23.9964   -9.0006 C   0  0  0  0  0  0  0  0  0  0  0  0
   18.6129  -23.7865   -8.6806 C   0  0  2  0  0  0  0  0  0  0  0  0
   19.3712  -24.1069   -9.9338 N   0  0  0  0  0  0  0  0  0  0  0  0
   19.1255  -24.7392   -7.7024 C   0  0  0  0  0  0  0  0  0  0  0  0
   19.7915  -25.7606   -8.0964 O   0  0  0  0  0  0  0  0  0  0  0  0
   18.9617  -24.6371   -6.3521 O   0  0  0  0  0  0  0  0  0  0  0  0
  2  1  1  0
  2  3  2  0
  4  2  1  0
  5  4  1  0
  6  5  1  0
  6  7  1  6
  8  6  1  0
  9  8  2  0
 10 11  1  0
 12 11  1  1
 12 13  1  0
 13  8  1  0
 14 12  1  0
 15 14  2  0
 17 16  1  6
 18 17  1  0
 19 17  1  0
 20 19  1  6
 20 21  1  0
 21 14  1  0
 22 20  1  0
 22 24  1  0
 23 22  2  0
M  END
$$$$
