QSL.pdb
     RDKit          3D

 24 23  0  0  1  0  0  0  0  0999 V2000
   12.3645   -8.4938  -10.7035 N   0  0  0  0  0  0  0  0  0  0  0  0
   12.2167   -9.5413   -9.7254 C   0  0  0  0  0  0  0  0  0  0  0  0
   11.1258   -9.5726   -9.1211 O   0  0  0  0  0  0  0  0  0  0  0  0
   13.3539  -10.4576   -9.5378 C   0  0  0  0  0  0  0  0  0  0  0  0
   14.4920  -10.0560  -10.4242 C   0  0  0  0  0  0  0  0  0  0  0  0
   14.3622  -10.6274  -11.8121 C   0  0  2  0  0  0  0  0  0  0  0  0
   14.5826  -12.0919  -11.6161 N   0  0  0  0  0  0  0  0  0  0  0  0
   15.3894  -10.1913  -12.7553 C   0  0  0  0  0  0  0  0  0  0  0  0
   16.4617  -10.8748  -12.9100 O   0  0  0  0  0  0  0  0  0  0  0  0
   14.9552   -6.8071  -14.9847 O   0  0  0  0  0  0  0  0  0  0  0  0
   15.7078   -7.7979  -15.5836 C   0  0  0  0  0  0  0  0  0  0  0  0
   16.3646   -8.7085  -14.5552 C   0  0  2  0  0  0  0  0  0  0  0  0
   15.3407   -9.0264  -13.5786 N   0  0  0  0  0  0  0  0  0  0  0  0
   17.4753   -7.9232  -13.9438 C   0  0  0  0  0  0  0  0  0  0  0  0
   17.2319   -7.3081  -12.8742 O   0  0  0  0  0  0  0  0  0  0  0  0
   22.6411   -9.6572  -13.7323 C   0  0  0  0  0  0  0  0  0  0  0  0
   21.3649   -8.9518  -13.1414 C   0  0  1  0  0  0  0  0  0  0  0  0
   21.7439   -8.6807  -11.7263 C   0  0  0  0  0  0  0  0  0  0  0  0
   21.1032   -7.8198  -14.0343 C   0  0  0  0  0  0  0  0  0  0  0  0
   19.8562   -7.0222  -13.8785 C   0  0  2  0  0  0  0  0  0  0  0  0
   18.7586   -7.8376  -14.4939 N   0  0  0  0  0  0  0  0  0  0  0  0
   19.8642   -5.7908  -14.6601 C   0  0  0  0  0  0  0  0  0  0  0  0
   20.5886   -4.8028  -14.2846 O   0  0  0  0  0  0  0  0  0  0  0  0
   19.1491   -5.5864  -15.8034 O   0  0  0  0  0  0  0  0  0  0  0  0
  2  1  1  0
  2  3  2  0
  4  2  1  0
  5  4  1  0
  6  5  1  0
  6  7  1  1
  8  6  1  0
  9  8  2  0
 10 11  1  0
 12 11  1  6
 12 13  1  0
 13  8  1  0
 14 12  1  0
 15 14  2  0
 17 16  1  6
 18 17  1  0
 19 17  1  0
 20 19  1  6
 20 21  1  0
 21 14  1  0
 22 20  1  0
 22 24  1  0
 23 22  2  0
M  END
$$$$
