QSL.pdb
     RDKit          3D

 24 23  0  0  1  0  0  0  0  0999 V2000
   13.3333   -9.6920  -14.8839 N   0  0  0  0  0  0  0  0  0  0  0  0
   12.7484  -10.3209  -16.0406 C   0  0  0  0  0  0  0  0  0  0  0  0
   11.5140  -10.1913  -16.1655 O   0  0  0  0  0  0  0  0  0  0  0  0
   13.6541  -11.0457  -16.9475 C   0  0  0  0  0  0  0  0  0  0  0  0
   15.0739  -10.8768  -16.5027 C   0  0  0  0  0  0  0  0  0  0  0  0
   16.0470  -11.5500  -17.4352 C   0  0  2  0  0  0  0  0  0  0  0  0
   16.2464  -12.9000  -16.8274 N   0  0  0  0  0  0  0  0  0  0  0  0
   17.3719  -10.9363  -17.4894 C   0  0  0  0  0  0  0  0  0  0  0  0
   18.3913  -11.5484  -17.0130 O   0  0  0  0  0  0  0  0  0  0  0  0
   20.3453   -7.5265  -19.2695 O   0  0  0  0  0  0  0  0  0  0  0  0
   19.0784   -8.0559  -19.1223 C   0  0  0  0  0  0  0  0  0  0  0  0
   19.0270   -9.0996  -18.0149 C   0  0  2  0  0  0  0  0  0  0  0  0
   17.6900   -9.6605  -18.0446 N   0  0  0  0  0  0  0  0  0  0  0  0
   19.2847   -8.3735  -16.7379 C   0  0  0  0  0  0  0  0  0  0  0  0
   18.2942   -7.8819  -16.1389 O   0  0  0  0  0  0  0  0  0  0  0  0
   23.1258   -9.8751  -13.0404 C   0  0  0  0  0  0  0  0  0  0  0  0
   21.6974   -9.3708  -13.4653 C   0  0  1  0  0  0  0  0  0  0  0  0
   20.9625   -9.2845  -12.1721 C   0  0  0  0  0  0  0  0  0  0  0  0
   21.9347   -8.1428  -14.2288 C   0  0  0  0  0  0  0  0  0  0  0  0
   20.8008   -7.4583  -14.9081 C   0  0  2  0  0  0  0  0  0  0  0  0
   20.5575   -8.2140  -16.1800 N   0  0  0  0  0  0  0  0  0  0  0  0
   21.1322   -6.1099  -15.3544 C   0  0  0  0  0  0  0  0  0  0  0  0
   21.3103   -5.1792  -14.4918 O   0  0  0  0  0  0  0  0  0  0  0  0
   21.2831   -5.7328  -16.6565 O   0  0  0  0  0  0  0  0  0  0  0  0
  2  1  1  0
  2  3  2  0
  4  2  1  0
  5  4  1  0
  6  5  1  0
  6  7  1  1
  8  6  1  0
  9  8  2  0
 10 11  1  0
 12 11  1  6
 12 13  1  0
 13  8  1  0
 14 12  1  0
 15 14  2  0
 17 16  1  1
 18 17  1  0
 19 17  1  0
 20 19  1  6
 20 21  1  0
 21 14  1  0
 22 20  1  0
 22 24  1  0
 23 22  2  0
M  END
$$$$
