QSL.pdb
     RDKit          3D

 24 23  0  0  1  0  0  0  0  0999 V2000
   25.2808  -23.5876  -20.9880 N   0  0  0  0  0  0  0  0  0  0  0  0
   24.0010  -23.9469  -20.4324 C   0  0  0  0  0  0  0  0  0  0  0  0
   23.0090  -23.3903  -20.9447 O   0  0  0  0  0  0  0  0  0  0  0  0
   23.9917  -24.9214  -19.3287 C   0  0  0  0  0  0  0  0  0  0  0  0
   23.9977  -24.2094  -18.0114 C   0  0  0  0  0  0  0  0  0  0  0  0
   23.2116  -22.9249  -18.0545 C   0  0  2  0  0  0  0  0  0  0  0  0
   24.2045  -21.9160  -18.5319 N   0  0  0  0  0  0  0  0  0  0  0  0
   22.7467  -22.4444  -16.7553 C   0  0  0  0  0  0  0  0  0  0  0  0
   23.5566  -21.8663  -15.9487 O   0  0  0  0  0  0  0  0  0  0  0  0
   19.3647  -20.8419  -16.1995 O   0  0  0  0  0  0  0  0  0  0  0  0
   20.3048  -20.7204  -15.1953 C   0  0  0  0  0  0  0  0  0  0  0  0
   21.0345  -22.0325  -14.9421 C   0  0  2  0  0  0  0  0  0  0  0  0
   21.4179  -22.5439  -16.2438 N   0  0  0  0  0  0  0  0  0  0  0  0
   20.0577  -22.9359  -14.2682 C   0  0  0  0  0  0  0  0  0  0  0  0
   19.2829  -23.6035  -15.0002 O   0  0  0  0  0  0  0  0  0  0  0  0
   18.9797  -26.2664   -9.9258 C   0  0  0  0  0  0  0  0  0  0  0  0
   18.5075  -24.7688   -9.8283 C   0  0  1  0  0  0  0  0  0  0  0  0
   18.6299  -24.4617   -8.3755 C   0  0  0  0  0  0  0  0  0  0  0  0
   19.3479  -24.0380  -10.7805 C   0  0  0  0  0  0  0  0  0  0  0  0
   18.9710  -23.9878  -12.2196 C   0  0  2  0  0  0  0  0  0  0  0  0
   19.9614  -23.0761  -12.8798 N   0  0  0  0  0  0  0  0  0  0  0  0
   17.6843  -23.3412  -12.4509 C   0  0  0  0  0  0  0  0  0  0  0  0
   17.5826  -22.0684  -12.3436 O   0  0  0  0  0  0  0  0  0  0  0  0
   16.5338  -23.9900  -12.7913 O   0  0  0  0  0  0  0  0  0  0  0  0
  2  1  1  0
  2  3  2  0
  4  2  1  0
  5  4  1  0
  6  5  1  0
  6  7  1  1
  8  6  1  0
  9  8  2  0
 10 11  1  0
 12 11  1  6
 12 13  1  0
 13  8  1  0
 14 12  1  0
 15 14  2  0
 17 16  1  1
 18 17  1  0
 19 17  1  0
 20 19  1  1
 20 21  1  0
 21 14  1  0
 22 20  1  0
 22 24  1  0
 23 22  2  0
M  END
$$$$
