QSL.pdb
     RDKit          3D

 24 23  0  0  1  0  0  0  0  0999 V2000
   13.4317  -16.1354  -15.2696 N   0  0  0  0  0  0  0  0  0  0  0  0
   14.4481  -15.1155  -15.3170 C   0  0  0  0  0  0  0  0  0  0  0  0
   14.0374  -13.9402  -15.3971 O   0  0  0  0  0  0  0  0  0  0  0  0
   15.8521  -15.5562  -15.2682 C   0  0  0  0  0  0  0  0  0  0  0  0
   16.7677  -14.3794  -15.4066 C   0  0  0  0  0  0  0  0  0  0  0  0
   17.0653  -14.0556  -16.8475 C   0  0  2  0  0  0  0  0  0  0  0  0
   17.9199  -15.1946  -17.2991 N   0  0  0  0  0  0  0  0  0  0  0  0
   17.8642  -12.8499  -17.0546 C   0  0  0  0  0  0  0  0  0  0  0  0
   19.0588  -12.9322  -17.5096 O   0  0  0  0  0  0  0  0  0  0  0  0
   16.6503   -9.0524  -15.9034 O   0  0  0  0  0  0  0  0  0  0  0  0
   17.3566   -9.1474  -17.0862 C   0  0  0  0  0  0  0  0  0  0  0  0
   18.2810  -10.3572  -17.0970 C   0  0  2  0  0  0  0  0  0  0  0  0
   17.4506  -11.5080  -16.7989 N   0  0  0  0  0  0  0  0  0  0  0  0
   19.2937  -10.1245  -16.0272 C   0  0  0  0  0  0  0  0  0  0  0  0
   19.0787  -10.6416  -14.9011 O   0  0  0  0  0  0  0  0  0  0  0  0
   23.7098  -10.6251  -13.5612 C   0  0  0  0  0  0  0  0  0  0  0  0
   23.9580   -9.7329  -14.8331 C   0  0  1  0  0  0  0  0  0  0  0  0
   25.2196  -10.2850  -15.4016 C   0  0  0  0  0  0  0  0  0  0  0  0
   22.7245   -9.8308  -15.6180 C   0  0  0  0  0  0  0  0  0  0  0  0
   21.4802   -9.1731  -15.1334 C   0  0  2  0  0  0  0  0  0  0  0  0
   20.4566   -9.3691  -16.2114 N   0  0  0  0  0  0  0  0  0  0  0  0
   21.6058   -7.7243  -15.0226 C   0  0  0  0  0  0  0  0  0  0  0  0
   21.4643   -6.9912  -16.0639 O   0  0  0  0  0  0  0  0  0  0  0  0
   21.8634   -7.0486  -13.8661 O   0  0  0  0  0  0  0  0  0  0  0  0
  2  1  1  0
  2  3  2  0
  4  2  1  0
  5  4  1  0
  6  5  1  0
  6  7  1  1
  8  6  1  0
  9  8  2  0
 10 11  1  0
 12 11  1  1
 12 13  1  0
 13  8  1  0
 14 12  1  0
 15 14  2  0
 17 16  1  1
 18 17  1  0
 19 17  1  0
 20 19  1  6
 20 21  1  0
 21 14  1  0
 22 20  1  0
 22 24  1  0
 23 22  2  0
M  END
$$$$
