QSL.pdb
     RDKit          3D

 24 23  0  0  1  0  0  0  0  0999 V2000
   27.8903  -27.1495  -16.1023 N   0  0  0  0  0  0  0  0  0  0  0  0
   26.7307  -27.6726  -16.7787 C   0  0  0  0  0  0  0  0  0  0  0  0
   26.8890  -28.7598  -17.3697 O   0  0  0  0  0  0  0  0  0  0  0  0
   25.4910  -26.8815  -16.7071 C   0  0  0  0  0  0  0  0  0  0  0  0
   25.6787  -25.7094  -15.7942 C   0  0  0  0  0  0  0  0  0  0  0  0
   24.7907  -24.5503  -16.1653 C   0  0  2  0  0  0  0  0  0  0  0  0
   25.3107  -24.1157  -17.4966 N   0  0  0  0  0  0  0  0  0  0  0  0
   24.9040  -23.3845  -15.2919 C   0  0  0  0  0  0  0  0  0  0  0  0
   24.4757  -23.4323  -14.0857 O   0  0  0  0  0  0  0  0  0  0  0  0
   26.4141  -19.7502  -16.5696 O   0  0  0  0  0  0  0  0  0  0  0  0
   26.5985  -20.0640  -15.2376 C   0  0  0  0  0  0  0  0  0  0  0  0
   25.5129  -20.9985  -14.7214 C   0  0  2  0  0  0  0  0  0  0  0  0
   25.4710  -22.1212  -15.6383 N   0  0  0  0  0  0  0  0  0  0  0  0
   24.2391  -20.2233  -14.7510 C   0  0  0  0  0  0  0  0  0  0  0  0
   24.1698  -19.1918  -14.0347 O   0  0  0  0  0  0  0  0  0  0  0  0
   21.7395  -18.2945  -19.0184 C   0  0  0  0  0  0  0  0  0  0  0  0
   22.2903  -18.3635  -17.5463 C   0  0  1  0  0  0  0  0  0  0  0  0
   22.1105  -16.9722  -17.0444 C   0  0  0  0  0  0  0  0  0  0  0  0
   21.5432  -19.4497  -16.9067 C   0  0  0  0  0  0  0  0  0  0  0  0
   21.8370  -19.8251  -15.4966 C   0  0  2  0  0  0  0  0  0  0  0  0
   23.1312  -20.5816  -15.5263 N   0  0  0  0  0  0  0  0  0  0  0  0
   20.8804  -20.7800  -14.9485 C   0  0  0  0  0  0  0  0  0  0  0  0
   21.1390  -22.0344  -14.9875 O   0  0  0  0  0  0  0  0  0  0  0  0
   19.6911  -20.4490  -14.3684 O   0  0  0  0  0  0  0  0  0  0  0  0
  2  1  1  0
  2  3  2  0
  4  2  1  0
  5  4  1  0
  6  5  1  0
  6  7  1  6
  8  6  1  0
  9  8  2  0
 10 11  1  0
 12 11  1  6
 12 13  1  0
 13  8  1  0
 14 12  1  0
 15 14  2  0
 17 16  1  6
 18 17  1  0
 19 17  1  0
 20 19  1  6
 20 21  1  0
 21 14  1  0
 22 20  1  0
 22 24  1  0
 23 22  2  0
M  END
$$$$
