CKK.pdb
     RDKit          3D

 25 24  0  0  1  0  0  0  0  0999 V2000
   19.6128  -12.7492  -16.5957 N   0  0  0  0  0  0  0  0  0  0  0  0
   20.4226  -11.8259  -17.3421 C   0  0  1  0  0  0  0  0  0  0  0  0
   19.5455  -11.0344  -18.2867 C   0  0  0  0  0  0  0  0  0  0  0  0
   18.4156  -10.0316  -17.2822 S   0  0  0  0  0  0  0  0  0  0  0  0
   21.1516  -10.9508  -16.3988 C   0  0  0  0  0  0  0  0  0  0  0  0
   20.7732  -10.8522  -15.2089 O   0  0  0  0  0  0  0  0  0  0  0  0
   22.2727  -10.2282  -16.8411 N   0  0  0  0  0  0  0  0  0  0  0  0
   22.9863   -9.3828  -15.9307 C   0  0  1  0  0  0  0  0  0  0  0  0
   24.4623   -9.3270  -16.3480 C   0  0  0  0  0  0  0  0  0  0  0  0
   25.0814  -10.6277  -15.8577 C   0  0  0  0  0  0  0  0  0  0  0  0
   26.5679  -10.6549  -16.0732 C   0  0  0  0  0  0  0  0  0  0  0  0
   27.0661  -12.0164  -15.6371 C   0  0  0  0  0  0  0  0  0  0  0  0
   28.4832  -12.1840  -15.8788 N   0  0  0  0  0  0  0  0  0  0  0  0
   22.4548   -8.0004  -16.0542 C   0  0  0  0  0  0  0  0  0  0  0  0
   22.2663   -7.5372  -17.2146 O   0  0  0  0  0  0  0  0  0  0  0  0
   22.1572   -7.1972  -14.9234 N   0  0  0  0  0  0  0  0  0  0  0  0
   21.5659   -5.8904  -15.1569 C   0  0  1  0  0  0  0  0  0  0  0  0
   20.2346   -5.7711  -14.4513 C   0  0  0  0  0  0  0  0  0  0  0  0
   19.7075   -4.3902  -14.4818 C   0  0  0  0  0  0  0  0  0  0  0  0
   18.4655   -4.2218  -15.3226 C   0  0  0  0  0  0  0  0  0  0  0  0
   17.9715   -2.7833  -15.3012 C   0  0  0  0  0  0  0  0  0  0  0  0
   16.8990   -2.5910  -16.2603 N   0  0  0  0  0  0  0  0  0  0  0  0
   22.5630   -4.9036  -14.6964 C   0  0  0  0  0  0  0  0  0  0  0  0
   23.2770   -5.1580  -13.7186 O   0  0  0  0  0  0  0  0  0  0  0  0
   22.7359   -3.6823  -15.3250 O   0  0  0  0  0  0  0  0  0  0  0  0
  2  3  1  0
  2  1  1  1
  4  3  1  0
  5  2  1  0
  6  5  2  0
  7  5  1  0
  8  7  1  0
  8  9  1  6
 10  9  1  0
 11 10  1  0
 12 11  1  0
 13 12  1  0
 14  8  1  0
 14 15  2  0
 16 14  1  0
 17 16  1  0
 17 18  1  1
 19 20  1  0
 19 18  1  0
 20 21  1  0
 21 22  1  0
 23 17  1  0
 24 23  2  0
 25 23  1  0
M  END
$$$$
