CKK.pdb
     RDKit          3D

 25 24  0  0  1  0  0  0  0  0999 V2000
   25.6737  -20.4651  -10.8807 N   0  0  0  0  0  0  0  0  0  0  0  0
   25.4904  -20.6257  -12.2972 C   0  0  1  0  0  0  0  0  0  0  0  0
   25.9969  -21.9866  -12.7206 C   0  0  0  0  0  0  0  0  0  0  0  0
   27.8082  -21.9078  -12.7821 S   0  0  0  0  0  0  0  0  0  0  0  0
   24.0597  -20.4411  -12.6231 C   0  0  0  0  0  0  0  0  0  0  0  0
   23.1999  -20.4427  -11.7124 O   0  0  0  0  0  0  0  0  0  0  0  0
   23.6658  -20.2633  -13.9602 N   0  0  0  0  0  0  0  0  0  0  0  0
   22.3023  -19.9518  -14.2711 C   0  0  1  0  0  0  0  0  0  0  0  0
   22.2093  -19.5090  -15.7377 C   0  0  0  0  0  0  0  0  0  0  0  0
   23.0560  -18.2492  -15.8452 C   0  0  0  0  0  0  0  0  0  0  0  0
   23.2528  -17.8285  -17.2738 C   0  0  0  0  0  0  0  0  0  0  0  0
   24.1639  -16.6195  -17.2708 C   0  0  0  0  0  0  0  0  0  0  0  0
   24.4644  -16.1570  -18.6089 N   0  0  0  0  0  0  0  0  0  0  0  0
   21.4940  -21.1929  -14.1474 C   0  0  0  0  0  0  0  0  0  0  0  0
   22.0518  -22.2948  -14.4143 O   0  0  0  0  0  0  0  0  0  0  0  0
   20.1341  -21.1766  -13.7441 N   0  0  0  0  0  0  0  0  0  0  0  0
   19.4831  -22.4535  -13.5037 C   0  0  1  0  0  0  0  0  0  0  0  0
   18.6867  -22.4152  -12.2197 C   0  0  0  0  0  0  0  0  0  0  0  0
   17.9474  -23.6734  -11.9826 C   0  0  0  0  0  0  0  0  0  0  0  0
   17.0373  -23.6374  -10.7791 C   0  0  0  0  0  0  0  0  0  0  0  0
   16.3067  -24.9589  -10.5961 C   0  0  0  0  0  0  0  0  0  0  0  0
   15.4761  -24.9296   -9.4059 N   0  0  0  0  0  0  0  0  0  0  0  0
   18.6565  -22.7209  -14.6975 C   0  0  0  0  0  0  0  0  0  0  0  0
   18.5635  -23.8732  -15.1382 O   0  0  0  0  0  0  0  0  0  0  0  0
   17.9680  -21.7172  -15.3571 O   0  0  0  0  0  0  0  0  0  0  0  0
  2  3  1  0
  2  1  1  1
  4  3  1  0
  5  2  1  0
  6  5  2  0
  7  5  1  0
  8  7  1  0
  8  9  1  6
 10  9  1  0
 11 10  1  0
 12 11  1  0
 13 12  1  0
 14  8  1  0
 14 15  2  0
 16 14  1  0
 17 16  1  0
 17 18  1  1
 19 20  1  0
 19 18  1  0
 20 21  1  0
 21 22  1  0
 23 17  1  0
 24 23  2  0
 25 23  1  0
M  END
$$$$
