CKK.pdb
     RDKit          3D

 25 24  0  0  1  0  0  0  0  0999 V2000
   18.6731  -14.9340  -16.9184 N   0  0  0  0  0  0  0  0  0  0  0  0
   18.3112  -13.5440  -16.9698 C   0  0  1  0  0  0  0  0  0  0  0  0
   16.8458  -13.3910  -16.6277 C   0  0  0  0  0  0  0  0  0  0  0  0
   15.8857  -13.8102  -18.1088 S   0  0  0  0  0  0  0  0  0  0  0  0
   19.1785  -12.7846  -16.0434 C   0  0  0  0  0  0  0  0  0  0  0  0
   19.0050  -12.8675  -14.8058 O   0  0  0  0  0  0  0  0  0  0  0  0
   20.2005  -11.9675  -16.5559 N   0  0  0  0  0  0  0  0  0  0  0  0
   21.0871  -11.2824  -15.6628 C   0  0  1  0  0  0  0  0  0  0  0  0
   22.3816  -10.9325  -16.4095 C   0  0  0  0  0  0  0  0  0  0  0  0
   23.3482  -12.0715  -16.1200 C   0  0  0  0  0  0  0  0  0  0  0  0
   24.6250  -11.9323  -16.8992 C   0  0  0  0  0  0  0  0  0  0  0  0
   25.4794  -13.1441  -16.5932 C   0  0  0  0  0  0  0  0  0  0  0  0
   26.6445  -13.2226  -17.4482 N   0  0  0  0  0  0  0  0  0  0  0  0
   20.4590   -9.9941  -15.2695 C   0  0  0  0  0  0  0  0  0  0  0  0
   19.8126   -9.3553  -16.1474 O   0  0  0  0  0  0  0  0  0  0  0  0
   20.5628   -9.4682  -13.9562 N   0  0  0  0  0  0  0  0  0  0  0  0
   19.7966   -8.2741  -13.6417 C   0  0  1  0  0  0  0  0  0  0  0  0
   18.9606   -8.4856  -12.4004 C   0  0  0  0  0  0  0  0  0  0  0  0
   18.2866   -7.2449  -11.9621 C   0  0  0  0  0  0  0  0  0  0  0  0
   17.4747   -7.3965  -10.6989 C   0  0  0  0  0  0  0  0  0  0  0  0
   16.7968   -6.0901  -10.3148 C   0  0  0  0  0  0  0  0  0  0  0  0
   15.8279   -6.3029   -9.2548 N   0  0  0  0  0  0  0  0  0  0  0  0
   20.7809   -7.1821  -13.5055 C   0  0  0  0  0  0  0  0  0  0  0  0
   20.3932   -6.0179  -13.3476 O   0  0  0  0  0  0  0  0  0  0  0  0
   22.1457   -7.4107  -13.5478 O   0  0  0  0  0  0  0  0  0  0  0  0
  2  3  1  0
  2  1  1  1
  4  3  1  0
  5  2  1  0
  6  5  2  0
  7  5  1  0
  8  7  1  0
  8  9  1  6
 10  9  1  0
 11 10  1  0
 12 11  1  0
 13 12  1  0
 14  8  1  0
 14 15  2  0
 16 14  1  0
 17 16  1  0
 17 18  1  1
 19 20  1  0
 19 18  1  0
 20 21  1  0
 21 22  1  0
 23 17  1  0
 24 23  2  0
 25 23  1  0
M  END
$$$$
