CKK.pdb
     RDKit          3D

 25 24  0  0  1  0  0  0  0  0999 V2000
   18.5030  -24.5345   -8.2628 N   0  0  0  0  0  0  0  0  0  0  0  0
   18.7548  -24.8264   -9.6474 C   0  0  1  0  0  0  0  0  0  0  0  0
   17.6113  -25.6433  -10.2070 C   0  0  0  0  0  0  0  0  0  0  0  0
   17.8048  -27.3458   -9.6111 S   0  0  0  0  0  0  0  0  0  0  0  0
   18.9404  -23.5569  -10.3827 C   0  0  0  0  0  0  0  0  0  0  0  0
   18.3570  -22.5160  -10.0019 O   0  0  0  0  0  0  0  0  0  0  0  0
   19.7750  -23.5203  -11.5127 N   0  0  0  0  0  0  0  0  0  0  0  0
   20.0145  -22.2795  -12.1879 C   0  0  1  0  0  0  0  0  0  0  0  0
   21.3093  -22.3929  -13.0042 C   0  0  0  0  0  0  0  0  0  0  0  0
   21.5162  -21.0285  -13.6454 C   0  0  0  0  0  0  0  0  0  0  0  0
   22.6895  -21.0242  -14.5835 C   0  0  0  0  0  0  0  0  0  0  0  0
   22.7291  -19.6686  -15.2565 C   0  0  0  0  0  0  0  0  0  0  0  0
   23.8747  -19.5239  -16.1291 N   0  0  0  0  0  0  0  0  0  0  0  0
   18.9146  -22.0512  -13.1610 C   0  0  0  0  0  0  0  0  0  0  0  0
   18.5130  -23.0343  -13.8459 O   0  0  0  0  0  0  0  0  0  0  0  0
   18.3112  -20.7801  -13.3408 N   0  0  0  0  0  0  0  0  0  0  0  0
   17.1719  -20.6915  -14.2387 C   0  0  1  0  0  0  0  0  0  0  0  0
   16.1267  -19.7497  -13.6864 C   0  0  0  0  0  0  0  0  0  0  0  0
   14.9385  -19.6580  -14.5613 C   0  0  0  0  0  0  0  0  0  0  0  0
   13.9096  -18.6538  -14.1021 C   0  0  0  0  0  0  0  0  0  0  0  0
   12.6806  -18.6690  -14.9982 C   0  0  0  0  0  0  0  0  0  0  0  0
   11.6363  -17.8179  -14.4575 N   0  0  0  0  0  0  0  0  0  0  0  0
   17.7137  -20.2642  -15.5439 C   0  0  0  0  0  0  0  0  0  0  0  0
   17.1457  -20.6042  -16.5891 O   0  0  0  0  0  0  0  0  0  0  0  0
   18.8525  -19.4840  -15.6494 O   0  0  0  0  0  0  0  0  0  0  0  0
  2  3  1  0
  2  1  1  1
  4  3  1  0
  5  2  1  0
  6  5  2  0
  7  5  1  0
  8  7  1  0
  8  9  1  6
 10  9  1  0
 11 10  1  0
 12 11  1  0
 13 12  1  0
 14  8  1  0
 14 15  2  0
 16 14  1  0
 17 16  1  0
 17 18  1  1
 19 20  1  0
 19 18  1  0
 20 21  1  0
 21 22  1  0
 23 17  1  0
 24 23  2  0
 25 23  1  0
M  END
$$$$
