CKK.pdb
     RDKit          3D

 25 24  0  0  1  0  0  0  0  0999 V2000
   27.0763  -21.0746  -10.4976 N   0  0  0  0  0  0  0  0  0  0  0  0
   25.6417  -20.9955  -10.5374 C   0  0  1  0  0  0  0  0  0  0  0  0
   25.1611  -20.0149   -9.4907 C   0  0  0  0  0  0  0  0  0  0  0  0
   24.1566  -20.9341   -8.2920 S   0  0  0  0  0  0  0  0  0  0  0  0
   25.2171  -20.6046  -11.8990 C   0  0  0  0  0  0  0  0  0  0  0  0
   25.5520  -19.4933  -12.3697 O   0  0  0  0  0  0  0  0  0  0  0  0
   24.4351  -21.4850  -12.6659 N   0  0  0  0  0  0  0  0  0  0  0  0
   24.0756  -21.1406  -14.0094 C   0  0  1  0  0  0  0  0  0  0  0  0
   24.8129  -22.0716  -14.9817 C   0  0  0  0  0  0  0  0  0  0  0  0
   25.7888  -21.1868  -15.7435 C   0  0  0  0  0  0  0  0  0  0  0  0
   26.5548  -21.9615  -16.7779 C   0  0  0  0  0  0  0  0  0  0  0  0
   27.9262  -22.2515  -16.2060 C   0  0  0  0  0  0  0  0  0  0  0  0
   28.7596  -22.9908  -17.1300 N   0  0  0  0  0  0  0  0  0  0  0  0
   22.6230  -21.3975  -14.1904 C   0  0  0  0  0  0  0  0  0  0  0  0
   22.1083  -22.3676  -13.5654 O   0  0  0  0  0  0  0  0  0  0  0  0
   21.8092  -20.5968  -15.0324 N   0  0  0  0  0  0  0  0  0  0  0  0
   20.3942  -20.9184  -15.1126 C   0  0  1  0  0  0  0  0  0  0  0  0
   19.6232  -19.7865  -15.7519 C   0  0  0  0  0  0  0  0  0  0  0  0
   18.1966  -20.1219  -15.9469 C   0  0  0  0  0  0  0  0  0  0  0  0
   17.3717  -18.9984  -16.5257 C   0  0  0  0  0  0  0  0  0  0  0  0
   15.9080  -19.3925  -16.6519 C   0  0  0  0  0  0  0  0  0  0  0  0
   15.1025  -18.2604  -17.0727 N   0  0  0  0  0  0  0  0  0  0  0  0
   20.3061  -22.1854  -15.8653 C   0  0  0  0  0  0  0  0  0  0  0  0
   19.4161  -23.0019  -15.5971 O   0  0  0  0  0  0  0  0  0  0  0  0
   21.1944  -22.5043  -16.8781 O   0  0  0  0  0  0  0  0  0  0  0  0
  2  3  1  0
  2  1  1  6
  4  3  1  0
  5  2  1  0
  6  5  2  0
  7  5  1  0
  8  7  1  0
  8  9  1  6
 10  9  1  0
 11 10  1  0
 12 11  1  0
 13 12  1  0
 14  8  1  0
 14 15  2  0
 16 14  1  0
 17 16  1  0
 17 18  1  6
 19 20  1  0
 19 18  1  0
 20 21  1  0
 21 22  1  0
 23 17  1  0
 24 23  2  0
 25 23  1  0
M  END
$$$$
