CKK.pdb
     RDKit          3D

 25 24  0  0  1  0  0  0  0  0999 V2000
   17.1833  -14.0386  -14.9322 N   0  0  0  0  0  0  0  0  0  0  0  0
   16.7658  -12.9910  -15.8233 C   0  0  1  0  0  0  0  0  0  0  0  0
   15.4549  -12.4107  -15.3409 C   0  0  0  0  0  0  0  0  0  0  0  0
   14.1782  -13.6831  -15.5462 S   0  0  0  0  0  0  0  0  0  0  0  0
   17.8306  -11.9675  -15.8979 C   0  0  0  0  0  0  0  0  0  0  0  0
   18.3122  -11.4804  -14.8493 O   0  0  0  0  0  0  0  0  0  0  0  0
   18.3024  -11.5412  -17.1511 N   0  0  0  0  0  0  0  0  0  0  0  0
   19.3972  -10.6204  -17.2303 C   0  0  1  0  0  0  0  0  0  0  0  0
   20.0718  -10.7578  -18.6020 C   0  0  0  0  0  0  0  0  0  0  0  0
   21.2245   -9.7643  -18.5988 C   0  0  0  0  0  0  0  0  0  0  0  0
   22.4509  -10.3295  -19.2569 C   0  0  0  0  0  0  0  0  0  0  0  0
   23.5156   -9.2535  -19.2355 C   0  0  0  0  0  0  0  0  0  0  0  0
   24.8143   -9.7604  -19.6244 N   0  0  0  0  0  0  0  0  0  0  0  0
   18.8578   -9.2375  -17.1559 C   0  0  0  0  0  0  0  0  0  0  0  0
   17.8014   -8.9760  -17.7979 O   0  0  0  0  0  0  0  0  0  0  0  0
   19.4855   -8.2172  -16.3960 N   0  0  0  0  0  0  0  0  0  0  0  0
   18.8736   -6.8991  -16.3951 C   0  0  1  0  0  0  0  0  0  0  0  0
   17.6366   -6.8834  -15.5267 C   0  0  0  0  0  0  0  0  0  0  0  0
   17.0774   -5.5234  -15.3747 C   0  0  0  0  0  0  0  0  0  0  0  0
   15.8244   -5.4611  -14.5356 C   0  0  0  0  0  0  0  0  0  0  0  0
   15.2335   -4.0596  -14.5236 C   0  0  0  0  0  0  0  0  0  0  0  0
   14.0403   -4.0090  -13.6982 N   0  0  0  0  0  0  0  0  0  0  0  0
   19.9209   -5.9637  -15.9390 C   0  0  0  0  0  0  0  0  0  0  0  0
   20.8410   -6.3710  -15.2191 O   0  0  0  0  0  0  0  0  0  0  0  0
   19.9165   -4.6245  -16.2897 O   0  0  0  0  0  0  0  0  0  0  0  0
  2  3  1  0
  2  1  1  1
  4  3  1  0
  5  2  1  0
  6  5  2  0
  7  5  1  0
  8  7  1  0
  8  9  1  6
 10  9  1  0
 11 10  1  0
 12 11  1  0
 13 12  1  0
 14  8  1  0
 14 15  2  0
 16 14  1  0
 17 16  1  0
 17 18  1  1
 19 20  1  0
 19 18  1  0
 20 21  1  0
 21 22  1  0
 23 17  1  0
 24 23  2  0
 25 23  1  0
M  END
$$$$
