IWS.pdb
     RDKit          3D

 29 30  0  0  1  0  0  0  0  0999 V2000
   21.4840  -28.0437  -19.1150 C   0  0  0  0  0  0  0  0  0  0  0  0
   22.5380  -28.5874  -18.1499 C   0  0  0  0  0  0  0  0  0  0  0  0
   22.7456  -30.0729  -18.3712 C   0  0  2  0  0  0  0  0  0  0  0  0
   21.4278  -30.7561  -18.2638 C   0  0  0  0  0  0  0  0  0  0  0  0
   23.8413  -30.6424  -17.5574 C   0  0  2  0  0  0  0  0  0  0  0  0
   23.6213  -30.2403  -16.1668 N   0  0  0  0  0  0  0  0  0  0  0  0
   25.2050  -30.3040  -18.0064 C   0  0  0  0  0  0  0  0  0  0  0  0
   25.3789  -29.3602  -18.8184 O   0  0  0  0  0  0  0  0  0  0  0  0
   26.3683  -30.9751  -17.5855 N   0  0  0  0  0  0  0  0  0  0  0  0
   27.7093  -30.7002  -17.9639 C   0  0  1  0  0  0  0  0  0  0  0  0
   28.4947  -30.4345  -16.6707 C   0  0  0  0  0  0  0  0  0  0  0  0
   29.9005  -30.0628  -17.0101 C   0  0  0  0  0  0  0  0  0  0  0  0
   30.3598  -28.9592  -17.6902 C   0  0  0  0  0  0  0  0  0  0  0  0
   31.6985  -29.0770  -17.7362 N   0  0  0  0  0  0  0  0  0  0  0  0
   32.1039  -30.1896  -17.1249 C   0  0  0  0  0  0  0  0  0  0  0  0
   33.3338  -30.7727  -16.8919 C   0  0  0  0  0  0  0  0  0  0  0  0
   33.4695  -31.9660  -16.2111 C   0  0  0  0  0  0  0  0  0  0  0  0
   32.3563  -32.6247  -15.7336 C   0  0  0  0  0  0  0  0  0  0  0  0
   31.1246  -32.0380  -15.9685 C   0  0  0  0  0  0  0  0  0  0  0  0
   30.9876  -30.8422  -16.6506 C   0  0  0  0  0  0  0  0  0  0  0  0
   28.3565  -31.6650  -18.8252 C   0  0  0  0  0  0  0  0  0  0  0  0
   28.3901  -32.8692  -18.4787 O   0  0  0  0  0  0  0  0  0  0  0  0
   29.4603  -30.6292  -22.6629 O   0  0  0  0  0  0  0  0  0  0  0  0
   29.2380  -31.9846  -22.3779 C   0  0  0  0  0  0  0  0  0  0  0  0
   29.5816  -32.3100  -20.9484 C   0  0  2  0  0  0  0  0  0  0  0  0
   28.9703  -31.3389  -20.0629 N   0  0  0  0  0  0  0  0  0  0  0  0
   31.0617  -32.3162  -20.8156 C   0  0  0  0  0  0  0  0  0  0  0  0
   31.6117  -31.4845  -20.0550 O   0  0  0  0  0  0  0  0  0  0  0  0
   31.8013  -33.2363  -21.5314 O   0  0  0  0  0  0  0  0  0  0  0  0
  2  1  1  0
  3  2  1  0
  3  4  1  1
  5  3  1  0
  5  6  1  1
  7  5  1  0
  8  7  2  0
  9  7  1  0
 10  9  1  0
 11 12  1  0
 10 11  1  1
 12 20  1  0
 12 13  2  0
 13 14  1  0
 15 14  1  0
 15 16  2  0
 17 16  1  0
 18 17  2  0
 19 18  1  0
 19 20  2  0
 20 15  1  0
 21 22  2  0
 21 10  1  0
 25 24  1  6
 24 23  1  0
 25 26  1  0
 26 21  1  0
 27 25  1  0
 28 27  2  0
 29 27  1  0
M  END
$$$$
