IWS.pdb
     RDKit          3D

 29 30  0  0  1  0  0  0  0  0999 V2000
   19.9373  -21.9528  -14.4635 C   0  0  0  0  0  0  0  0  0  0  0  0
   20.1455  -21.5883  -12.9931 C   0  0  0  0  0  0  0  0  0  0  0  0
   21.5682  -21.1200  -12.7577 C   0  0  2  0  0  0  0  0  0  0  0  0
   22.4998  -22.1347  -13.3210 C   0  0  0  0  0  0  0  0  0  0  0  0
   21.8279  -20.7025  -11.3629 C   0  0  2  0  0  0  0  0  0  0  0  0
   20.8217  -19.7025  -11.0006 N   0  0  0  0  0  0  0  0  0  0  0  0
   23.1934  -20.2150  -11.0920 C   0  0  0  0  0  0  0  0  0  0  0  0
   23.6407  -19.2260  -11.7260 O   0  0  0  0  0  0  0  0  0  0  0  0
   24.0675  -20.7868  -10.1486 N   0  0  0  0  0  0  0  0  0  0  0  0
   25.4345  -20.4680   -9.9326 C   0  0  1  0  0  0  0  0  0  0  0  0
   25.7777  -20.9111   -8.5025 C   0  0  0  0  0  0  0  0  0  0  0  0
   26.6479  -19.8826   -7.8585 C   0  0  0  0  0  0  0  0  0  0  0  0
   26.8904  -18.5883   -8.2552 C   0  0  0  0  0  0  0  0  0  0  0  0
   27.7365  -18.0699   -7.3478 N   0  0  0  0  0  0  0  0  0  0  0  0
   28.0378  -18.9638   -6.4065 C   0  0  0  0  0  0  0  0  0  0  0  0
   28.8353  -18.9508   -5.2793 C   0  0  0  0  0  0  0  0  0  0  0  0
   28.9708  -20.0511   -4.4564 C   0  0  0  0  0  0  0  0  0  0  0  0
   28.2989  -21.2206   -4.7428 C   0  0  0  0  0  0  0  0  0  0  0  0
   27.5001  -21.2309   -5.8734 C   0  0  0  0  0  0  0  0  0  0  0  0
   27.3636  -20.1288   -6.6985 C   0  0  0  0  0  0  0  0  0  0  0  0
   26.3815  -20.9522  -10.9126 C   0  0  0  0  0  0  0  0  0  0  0  0
   26.8738  -22.0967  -10.7745 O   0  0  0  0  0  0  0  0  0  0  0  0
   27.8811  -18.4645  -13.8894 O   0  0  0  0  0  0  0  0  0  0  0  0
   27.6816  -19.8022  -14.2614 C   0  0  0  0  0  0  0  0  0  0  0  0
   27.7004  -20.7152  -13.0642 C   0  0  2  0  0  0  0  0  0  0  0  0
   26.8030  -20.2077  -12.0453 N   0  0  0  0  0  0  0  0  0  0  0  0
   29.0984  -20.8027  -12.5678 C   0  0  0  0  0  0  0  0  0  0  0  0
   29.9859  -21.2750  -13.3175 O   0  0  0  0  0  0  0  0  0  0  0  0
   29.3923  -20.3627  -11.2926 O   0  0  0  0  0  0  0  0  0  0  0  0
  2  1  1  0
  3  2  1  0
  3  4  1  1
  5  3  1  0
  5  6  1  6
  7  5  1  0
  8  7  2  0
  9  7  1  0
 10  9  1  0
 11 12  1  0
 10 11  1  1
 12 20  1  0
 12 13  2  0
 13 14  1  0
 15 14  1  0
 15 16  2  0
 17 16  1  0
 18 17  2  0
 19 18  1  0
 19 20  2  0
 20 15  1  0
 21 22  2  0
 21 10  1  0
 25 24  1  6
 24 23  1  0
 25 26  1  0
 26 21  1  0
 27 25  1  0
 28 27  2  0
 29 27  1  0
M  END
$$$$
