IWS.pdb
     RDKit          3D

 29 30  0  0  1  0  0  0  0  0999 V2000
   29.6238  -18.6561  -16.0308 C   0  0  0  0  0  0  0  0  0  0  0  0
   28.1404  -18.4137  -15.7498 C   0  0  0  0  0  0  0  0  0  0  0  0
   27.6110  -19.4394  -14.7667 C   0  0  2  0  0  0  0  0  0  0  0  0
   28.0862  -20.7860  -15.1859 C   0  0  0  0  0  0  0  0  0  0  0  0
   26.1604  -19.3135  -14.5078 C   0  0  2  0  0  0  0  0  0  0  0  0
   25.8826  -17.9113  -14.1906 N   0  0  0  0  0  0  0  0  0  0  0  0
   25.6213  -20.2164  -13.4735 C   0  0  0  0  0  0  0  0  0  0  0  0
   25.5094  -21.4452  -13.7140 O   0  0  0  0  0  0  0  0  0  0  0  0
   25.2073  -19.8002  -12.1944 N   0  0  0  0  0  0  0  0  0  0  0  0
   24.5738  -20.5838  -11.1935 C   0  0  1  0  0  0  0  0  0  0  0  0
   25.0191  -20.0216   -9.8351 C   0  0  0  0  0  0  0  0  0  0  0  0
   26.4088  -20.4802   -9.5384 C   0  0  0  0  0  0  0  0  0  0  0  0
   27.2414  -21.2599  -10.3067 C   0  0  0  0  0  0  0  0  0  0  0  0
   28.3832  -21.3904   -9.6087 N   0  0  0  0  0  0  0  0  0  0  0  0
   28.3141  -20.7381   -8.4486 C   0  0  0  0  0  0  0  0  0  0  0  0
   29.1801  -20.5534   -7.3891 C   0  0  0  0  0  0  0  0  0  0  0  0
   28.8407  -19.8081   -6.2776 C   0  0  0  0  0  0  0  0  0  0  0  0
   27.5995  -19.2137   -6.1915 C   0  0  0  0  0  0  0  0  0  0  0  0
   26.7332  -19.4005   -7.2551 C   0  0  0  0  0  0  0  0  0  0  0  0
   27.0726  -20.1470   -8.3693 C   0  0  0  0  0  0  0  0  0  0  0  0
   23.1392  -20.7376  -11.2941 C   0  0  0  0  0  0  0  0  0  0  0  0
   22.4144  -19.7152  -11.3177 O   0  0  0  0  0  0  0  0  0  0  0  0
   19.6938  -23.3720  -13.0703 O   0  0  0  0  0  0  0  0  0  0  0  0
   20.7309  -23.4793  -12.1319 C   0  0  0  0  0  0  0  0  0  0  0  0
   21.0433  -22.1478  -11.5021 C   0  0  2  0  0  0  0  0  0  0  0  0
   22.4782  -21.9915  -11.3698 N   0  0  0  0  0  0  0  0  0  0  0  0
   20.3622  -22.0861  -10.1827 C   0  0  0  0  0  0  0  0  0  0  0  0
   21.0532  -22.0892   -9.1362 O   0  0  0  0  0  0  0  0  0  0  0  0
   18.9837  -22.0267  -10.1351 O   0  0  0  0  0  0  0  0  0  0  0  0
  2  1  1  0
  3  2  1  0
  3  4  1  6
  5  3  1  0
  5  6  1  1
  7  5  1  0
  8  7  2  0
  9  7  1  0
 10  9  1  0
 11 12  1  0
 10 11  1  1
 12 20  1  0
 12 13  2  0
 13 14  1  0
 15 14  1  0
 15 16  2  0
 17 16  1  0
 18 17  2  0
 19 18  1  0
 19 20  2  0
 20 15  1  0
 21 22  2  0
 21 10  1  0
 25 24  1  1
 24 23  1  0
 25 26  1  0
 26 21  1  0
 27 25  1  0
 28 27  2  0
 29 27  1  0
M  END
$$$$
