IWS.pdb
     RDKit          3D

 29 30  0  0  1  0  0  0  0  0999 V2000
   28.4518  -11.8899  -15.9393 C   0  0  0  0  0  0  0  0  0  0  0  0
   27.0026  -12.3772  -15.9124 C   0  0  0  0  0  0  0  0  0  0  0  0
   26.0456  -11.2022  -15.9605 C   0  0  2  0  0  0  0  0  0  0  0  0
   26.4206  -10.2421  -14.8871 C   0  0  0  0  0  0  0  0  0  0  0  0
   24.6227  -11.6028  -16.0063 C   0  0  2  0  0  0  0  0  0  0  0  0
   24.4817  -12.6361  -17.0340 N   0  0  0  0  0  0  0  0  0  0  0  0
   23.6619  -10.5029  -16.2135 C   0  0  0  0  0  0  0  0  0  0  0  0
   23.6195   -9.9112  -17.3218 O   0  0  0  0  0  0  0  0  0  0  0  0
   22.7571  -10.0454  -15.2373 N   0  0  0  0  0  0  0  0  0  0  0  0
   21.8220   -8.9831  -15.3559 C   0  0  1  0  0  0  0  0  0  0  0  0
   20.4411   -9.5605  -15.0102 C   0  0  0  0  0  0  0  0  0  0  0  0
   19.8909  -10.2791  -16.1979 C   0  0  0  0  0  0  0  0  0  0  0  0
   20.4964  -10.5372  -17.4056 C   0  0  0  0  0  0  0  0  0  0  0  0
   19.5953  -11.2128  -18.1403 N   0  0  0  0  0  0  0  0  0  0  0  0
   18.4616  -11.3926  -17.4633 C   0  0  0  0  0  0  0  0  0  0  0  0
   17.2542  -12.0021  -17.7420 C   0  0  0  0  0  0  0  0  0  0  0  0
   16.2185  -12.0431  -16.8301 C   0  0  0  0  0  0  0  0  0  0  0  0
   16.3629  -11.4637  -15.5873 C   0  0  0  0  0  0  0  0  0  0  0  0
   17.5743  -10.8534  -15.3104 C   0  0  0  0  0  0  0  0  0  0  0  0
   18.6127  -10.8119  -16.2235 C   0  0  0  0  0  0  0  0  0  0  0  0
   22.1189   -7.7669  -14.6319 C   0  0  0  0  0  0  0  0  0  0  0  0
   22.6926   -7.8412  -13.5199 O   0  0  0  0  0  0  0  0  0  0  0  0
   23.0426   -4.3534  -16.4883 O   0  0  0  0  0  0  0  0  0  0  0  0
   23.3459   -4.6064  -15.1423 C   0  0  0  0  0  0  0  0  0  0  0  0
   22.1836   -5.2413  -14.4260 C   0  0  2  0  0  0  0  0  0  0  0  0
   21.8001   -6.4655  -15.1007 N   0  0  0  0  0  0  0  0  0  0  0  0
   21.0665   -4.2618  -14.3927 C   0  0  0  0  0  0  0  0  0  0  0  0
   20.0029   -4.5251  -15.0027 O   0  0  0  0  0  0  0  0  0  0  0  0
   21.2214   -3.0826  -13.6915 O   0  0  0  0  0  0  0  0  0  0  0  0
  2  1  1  0
  3  2  1  0
  3  4  1  1
  5  3  1  0
  5  6  1  6
  7  5  1  0
  8  7  2  0
  9  7  1  0
 10  9  1  0
 11 12  1  0
 10 11  1  1
 12 20  1  0
 12 13  2  0
 13 14  1  0
 15 14  1  0
 15 16  2  0
 17 16  1  0
 18 17  2  0
 19 18  1  0
 19 20  2  0
 20 15  1  0
 21 22  2  0
 21 10  1  0
 25 24  1  6
 24 23  1  0
 25 26  1  0
 26 21  1  0
 27 25  1  0
 28 27  2  0
 29 27  1  0
M  END
$$$$
