IWS.pdb
     RDKit          3D

 29 30  0  0  1  0  0  0  0  0999 V2000
   29.9084  -18.0655  -17.1678 C   0  0  0  0  0  0  0  0  0  0  0  0
   28.6448  -17.6783  -16.3987 C   0  0  0  0  0  0  0  0  0  0  0  0
   28.3381  -18.7069  -15.3278 C   0  0  2  0  0  0  0  0  0  0  0  0
   28.4600  -20.0640  -15.9263 C   0  0  0  0  0  0  0  0  0  0  0  0
   27.0871  -18.4325  -14.5883 C   0  0  2  0  0  0  0  0  0  0  0  0
   27.1482  -17.0528  -14.1022 N   0  0  0  0  0  0  0  0  0  0  0  0
   26.7775  -19.3748  -13.4966 C   0  0  0  0  0  0  0  0  0  0  0  0
   26.4757  -20.5651  -13.7657 O   0  0  0  0  0  0  0  0  0  0  0  0
   26.7928  -19.0385  -12.1300 N   0  0  0  0  0  0  0  0  0  0  0  0
   26.3492  -19.8328  -11.0395 C   0  0  1  0  0  0  0  0  0  0  0  0
   26.9819  -19.2445   -9.7694 C   0  0  0  0  0  0  0  0  0  0  0  0
   26.4677  -19.9752   -8.5731 C   0  0  0  0  0  0  0  0  0  0  0  0
   25.3761  -20.8061   -8.4743 C   0  0  0  0  0  0  0  0  0  0  0  0
   25.3333  -21.2191   -7.1954 N   0  0  0  0  0  0  0  0  0  0  0  0
   26.3340  -20.6954   -6.4880 C   0  0  0  0  0  0  0  0  0  0  0  0
   26.7412  -20.7885   -5.1718 C   0  0  0  0  0  0  0  0  0  0  0  0
   27.8484  -20.1185   -4.6910 C   0  0  0  0  0  0  0  0  0  0  0  0
   28.5960  -19.3192   -5.5296 C   0  0  0  0  0  0  0  0  0  0  0  0
   28.1856  -19.2276   -6.8486 C   0  0  0  0  0  0  0  0  0  0  0  0
   27.0763  -19.8987   -7.3314 C   0  0  0  0  0  0  0  0  0  0  0  0
   24.9223  -20.0332  -10.9144 C   0  0  0  0  0  0  0  0  0  0  0  0
   24.1885  -19.0544  -10.6412 O   0  0  0  0  0  0  0  0  0  0  0  0
   21.1262  -23.1230  -11.4232 O   0  0  0  0  0  0  0  0  0  0  0  0
   22.5110  -22.9182  -11.3337 C   0  0  0  0  0  0  0  0  0  0  0  0
   22.8431  -21.4565  -11.1907 C   0  0  2  0  0  0  0  0  0  0  0  0
   24.2786  -21.2872  -11.0828 N   0  0  0  0  0  0  0  0  0  0  0  0
   22.1388  -20.9346   -9.9907 C   0  0  0  0  0  0  0  0  0  0  0  0
   21.1114  -20.2315  -10.1412 O   0  0  0  0  0  0  0  0  0  0  0  0
   22.6288  -21.2340   -8.7352 O   0  0  0  0  0  0  0  0  0  0  0  0
  2  1  1  0
  3  2  1  0
  3  4  1  6
  5  3  1  0
  5  6  1  1
  7  5  1  0
  8  7  2  0
  9  7  1  0
 10  9  1  0
 11 12  1  0
 10 11  1  1
 12 20  1  0
 12 13  2  0
 13 14  1  0
 15 14  1  0
 15 16  2  0
 17 16  1  0
 18 17  2  0
 19 18  1  0
 19 20  2  0
 20 15  1  0
 21 22  2  0
 21 10  1  0
 25 24  1  1
 24 23  1  0
 25 26  1  0
 26 21  1  0
 27 25  1  0
 28 27  2  0
 29 27  1  0
M  END
$$$$
