IWS.pdb
     RDKit          3D

 29 30  0  0  1  0  0  0  0  0999 V2000
   22.2017  -10.2395    9.2595 C   0  0  0  0  0  0  0  0  0  0  0  0
   21.0825  -10.1954    8.2185 C   0  0  0  0  0  0  0  0  0  0  0  0
   20.4104  -11.5494    8.1027 C   0  0  2  0  0  0  0  0  0  0  0  0
   21.4651  -12.5935    7.9925 C   0  0  0  0  0  0  0  0  0  0  0  0
   19.3438  -11.5923    7.0791 C   0  0  2  0  0  0  0  0  0  0  0  0
   18.3321  -10.5992    7.4454 N   0  0  0  0  0  0  0  0  0  0  0  0
   18.7389  -12.9180    6.8504 C   0  0  0  0  0  0  0  0  0  0  0  0
   17.9016  -13.3723    7.6706 O   0  0  0  0  0  0  0  0  0  0  0  0
   19.0330  -13.7451    5.7502 N   0  0  0  0  0  0  0  0  0  0  0  0
   18.5757  -15.0695    5.5182 C   0  0  1  0  0  0  0  0  0  0  0  0
   18.7557  -15.3498    4.0186 C   0  0  0  0  0  0  0  0  0  0  0  0
   17.4160  -15.4422    3.3657 C   0  0  0  0  0  0  0  0  0  0  0  0
   16.4842  -14.4504    3.1665 C   0  0  0  0  0  0  0  0  0  0  0  0
   15.4481  -15.0301    2.5352 N   0  0  0  0  0  0  0  0  0  0  0  0
   15.6768  -16.3265    2.3276 C   0  0  0  0  0  0  0  0  0  0  0  0
   14.9640  -17.3532    1.7406 C   0  0  0  0  0  0  0  0  0  0  0  0
   15.4537  -18.6414    1.6589 C   0  0  0  0  0  0  0  0  0  0  0  0
   16.6963  -18.9467    2.1726 C   0  0  0  0  0  0  0  0  0  0  0  0
   17.4089  -17.9157    2.7604 C   0  0  0  0  0  0  0  0  0  0  0  0
   16.9190  -16.6245    2.8426 C   0  0  0  0  0  0  0  0  0  0  0  0
   19.1333  -16.1096    6.3543 C   0  0  0  0  0  0  0  0  0  0  0  0
   20.3783  -16.2382    6.4227 O   0  0  0  0  0  0  0  0  0  0  0  0
   16.9546  -18.0233    9.3264 O   0  0  0  0  0  0  0  0  0  0  0  0
   18.3573  -18.0057    9.3266 C   0  0  0  0  0  0  0  0  0  0  0  0
   18.9090  -18.0841    7.9278 C   0  0  2  0  0  0  0  0  0  0  0  0
   18.3542  -17.0159    7.1203 N   0  0  0  0  0  0  0  0  0  0  0  0
   18.5756  -19.4209    7.3706 C   0  0  0  0  0  0  0  0  0  0  0  0
   17.9102  -19.4936    6.3101 O   0  0  0  0  0  0  0  0  0  0  0  0
   19.0046  -20.5550    8.0307 O   0  0  0  0  0  0  0  0  0  0  0  0
  2  1  1  0
  3  2  1  0
  3  4  1  6
  5  3  1  0
  5  6  1  1
  7  5  1  0
  8  7  2  0
  9  7  1  0
 10  9  1  0
 11 12  1  0
 10 11  1  6
 12 20  1  0
 12 13  2  0
 13 14  1  0
 15 14  1  0
 15 16  2  0
 17 16  1  0
 18 17  2  0
 19 18  1  0
 19 20  2  0
 20 15  1  0
 21 22  2  0
 21 10  1  0
 25 24  1  1
 24 23  1  0
 25 26  1  0
 26 21  1  0
 27 25  1  0
 28 27  2  0
 29 27  1  0
M  END
$$$$
