IWS.pdb
     RDKit          3D

 29 30  0  0  1  0  0  0  0  0999 V2000
   29.4035  -19.8339  -11.9922 C   0  0  0  0  0  0  0  0  0  0  0  0
   28.0372  -19.8632  -12.6782 C   0  0  0  0  0  0  0  0  0  0  0  0
   28.0167  -20.9071  -13.7777 C   0  0  2  0  0  0  0  0  0  0  0  0
   29.1749  -20.6663  -14.6806 C   0  0  0  0  0  0  0  0  0  0  0  0
   26.6986  -21.0456  -14.4340 C   0  0  2  0  0  0  0  0  0  0  0  0
   26.4473  -19.8209  -15.1960 N   0  0  0  0  0  0  0  0  0  0  0  0
   25.5732  -21.3601  -13.5338 C   0  0  0  0  0  0  0  0  0  0  0  0
   25.4822  -22.5058  -13.0246 O   0  0  0  0  0  0  0  0  0  0  0  0
   24.5571  -20.4504  -13.1862 N   0  0  0  0  0  0  0  0  0  0  0  0
   23.3612  -20.7227  -12.4702 C   0  0  1  0  0  0  0  0  0  0  0  0
   23.1895  -19.5969  -11.4393 C   0  0  0  0  0  0  0  0  0  0  0  0
   23.3336  -20.1569  -10.0627 C   0  0  0  0  0  0  0  0  0  0  0  0
   22.4157  -20.8604   -9.3181 C   0  0  0  0  0  0  0  0  0  0  0  0
   23.0189  -21.1455   -8.1506 N   0  0  0  0  0  0  0  0  0  0  0  0
   24.2603  -20.6617   -8.1208 C   0  0  0  0  0  0  0  0  0  0  0  0
   25.2809  -20.6721   -7.1908 C   0  0  0  0  0  0  0  0  0  0  0  0
   26.5032  -20.0753   -7.4273 C   0  0  0  0  0  0  0  0  0  0  0  0
   26.7454  -19.4375   -8.6256 C   0  0  0  0  0  0  0  0  0  0  0  0
   25.7205  -19.4286   -9.5562 C   0  0  0  0  0  0  0  0  0  0  0  0
   24.4954  -20.0265   -9.3201 C   0  0  0  0  0  0  0  0  0  0  0  0
   22.1678  -20.9525  -13.2542 C   0  0  0  0  0  0  0  0  0  0  0  0
   21.8901  -20.1670  -14.1907 O   0  0  0  0  0  0  0  0  0  0  0  0
   19.5875  -24.1024  -12.3522 O   0  0  0  0  0  0  0  0  0  0  0  0
   19.6607  -23.7090  -13.6967 C   0  0  0  0  0  0  0  0  0  0  0  0
   20.0782  -22.2682  -13.8267 C   0  0  2  0  0  0  0  0  0  0  0  0
   21.2679  -22.0281  -13.0342 N   0  0  0  0  0  0  0  0  0  0  0  0
   18.9451  -21.4139  -13.3855 C   0  0  0  0  0  0  0  0  0  0  0  0
   19.1005  -20.6501  -12.4031 O   0  0  0  0  0  0  0  0  0  0  0  0
   17.7451  -21.4778  -14.0653 O   0  0  0  0  0  0  0  0  0  0  0  0
  2  1  1  0
  3  2  1  0
  3  4  1  6
  5  3  1  0
  5  6  1  1
  7  5  1  0
  8  7  2  0
  9  7  1  0
 10  9  1  0
 11 12  1  0
 10 11  1  1
 12 20  1  0
 12 13  2  0
 13 14  1  0
 15 14  1  0
 15 16  2  0
 17 16  1  0
 18 17  2  0
 19 18  1  0
 19 20  2  0
 20 15  1  0
 21 22  2  0
 21 10  1  0
 25 24  1  1
 24 23  1  0
 25 26  1  0
 26 21  1  0
 27 25  1  0
 28 27  2  0
 29 27  1  0
M  END
$$$$
