IWS.pdb
     RDKit          3D

 29 30  0  0  1  0  0  0  0  0999 V2000
   25.0396  -19.8034  -16.8459 C   0  0  0  0  0  0  0  0  0  0  0  0
   24.1112  -19.6741  -15.6378 C   0  0  0  0  0  0  0  0  0  0  0  0
   24.7497  -20.2900  -14.4083 C   0  0  2  0  0  0  0  0  0  0  0  0
   25.2229  -21.6576  -14.7554 C   0  0  0  0  0  0  0  0  0  0  0  0
   23.9144  -20.1801  -13.1928 C   0  0  2  0  0  0  0  0  0  0  0  0
   23.5213  -18.7774  -13.0455 N   0  0  0  0  0  0  0  0  0  0  0  0
   24.5256  -20.7008  -11.9555 C   0  0  0  0  0  0  0  0  0  0  0  0
   24.6886  -21.9390  -11.8126 O   0  0  0  0  0  0  0  0  0  0  0  0
   24.9563  -19.8964  -10.8839 N   0  0  0  0  0  0  0  0  0  0  0  0
   25.4607  -20.3272   -9.6282 C   0  0  1  0  0  0  0  0  0  0  0  0
   26.5414  -19.3192   -9.2092 C   0  0  0  0  0  0  0  0  0  0  0  0
   27.5578  -20.0050   -8.3571 C   0  0  0  0  0  0  0  0  0  0  0  0
   28.3030  -21.1263   -8.6385 C   0  0  0  0  0  0  0  0  0  0  0  0
   29.0740  -21.3452   -7.5588 N   0  0  0  0  0  0  0  0  0  0  0  0
   28.8551  -20.4268   -6.6183 C   0  0  0  0  0  0  0  0  0  0  0  0
   29.3638  -20.1941   -5.3558 C   0  0  0  0  0  0  0  0  0  0  0  0
   28.9455  -19.1366   -4.5731 C   0  0  0  0  0  0  0  0  0  0  0  0
   27.9863  -18.2628   -5.0399 C   0  0  0  0  0  0  0  0  0  0  0  0
   27.4780  -18.4983   -6.3058 C   0  0  0  0  0  0  0  0  0  0  0  0
   27.8967  -19.5578   -7.0908 C   0  0  0  0  0  0  0  0  0  0  0  0
   24.4909  -20.5763   -8.5846 C   0  0  0  0  0  0  0  0  0  0  0  0
   23.6173  -19.7108   -8.3418 O   0  0  0  0  0  0  0  0  0  0  0  0
   24.8872  -23.8632   -6.1213 O   0  0  0  0  0  0  0  0  0  0  0  0
   23.5624  -23.4443   -6.3137 C   0  0  0  0  0  0  0  0  0  0  0  0
   23.4976  -22.0011   -6.7384 C   0  0  2  0  0  0  0  0  0  0  0  0
   24.4564  -21.7573   -7.7977 N   0  0  0  0  0  0  0  0  0  0  0  0
   23.7694  -21.1534   -5.5485 C   0  0  0  0  0  0  0  0  0  0  0  0
   24.7472  -20.3685   -5.5664 O   0  0  0  0  0  0  0  0  0  0  0  0
   22.9409  -21.2466   -4.4481 O   0  0  0  0  0  0  0  0  0  0  0  0
  2  1  1  0
  3  2  1  0
  3  4  1  6
  5  3  1  0
  5  6  1  1
  7  5  1  0
  8  7  2  0
  9  7  1  0
 10  9  1  0
 11 12  1  0
 10 11  1  1
 12 20  1  0
 12 13  2  0
 13 14  1  0
 15 14  1  0
 15 16  2  0
 17 16  1  0
 18 17  2  0
 19 18  1  0
 19 20  2  0
 20 15  1  0
 21 22  2  0
 21 10  1  0
 25 24  1  1
 24 23  1  0
 25 26  1  0
 26 21  1  0
 27 25  1  0
 28 27  2  0
 29 27  1  0
M  END
$$$$
