IWS.pdb
     RDKit          3D

 29 30  0  0  1  0  0  0  0  0999 V2000
   28.2559  -17.7501  -17.3077 C   0  0  0  0  0  0  0  0  0  0  0  0
   28.8087  -18.6125  -16.1724 C   0  0  0  0  0  0  0  0  0  0  0  0
   27.6770  -19.2239  -15.3697 C   0  0  2  0  0  0  0  0  0  0  0  0
   26.7150  -18.1464  -15.0114 C   0  0  0  0  0  0  0  0  0  0  0  0
   28.1399  -20.0790  -14.2554 C   0  0  2  0  0  0  0  0  0  0  0  0
   29.0608  -21.0742  -14.8080 N   0  0  0  0  0  0  0  0  0  0  0  0
   27.0729  -20.7156  -13.4606 C   0  0  0  0  0  0  0  0  0  0  0  0
   26.4272  -21.6810  -13.9418 O   0  0  0  0  0  0  0  0  0  0  0  0
   26.7053  -20.3166  -12.1619 N   0  0  0  0  0  0  0  0  0  0  0  0
   25.6583  -20.8432  -11.3599 C   0  0  1  0  0  0  0  0  0  0  0  0
   25.8925  -20.3380   -9.9283 C   0  0  0  0  0  0  0  0  0  0  0  0
   27.2339  -20.7914   -9.4541 C   0  0  0  0  0  0  0  0  0  0  0  0
   28.1338  -21.6218  -10.0803 C   0  0  0  0  0  0  0  0  0  0  0  0
   29.1898  -21.7221   -9.2539 N   0  0  0  0  0  0  0  0  0  0  0  0
   29.0036  -21.0033   -8.1473 C   0  0  0  0  0  0  0  0  0  0  0  0
   29.7505  -20.7655   -7.0106 C   0  0  0  0  0  0  0  0  0  0  0  0
   29.3024  -19.9542   -5.9873 C   0  0  0  0  0  0  0  0  0  0  0  0
   28.0687  -19.3445   -6.0729 C   0  0  0  0  0  0  0  0  0  0  0  0
   27.3219  -19.5845   -7.2136 C   0  0  0  0  0  0  0  0  0  0  0  0
   27.7701  -20.3973   -8.2394 C   0  0  0  0  0  0  0  0  0  0  0  0
   24.3058  -20.6181  -11.8201 C   0  0  0  0  0  0  0  0  0  0  0  0
   23.9197  -19.4450  -12.0348 O   0  0  0  0  0  0  0  0  0  0  0  0
   22.6081  -22.9162  -14.4352 O   0  0  0  0  0  0  0  0  0  0  0  0
   21.6513  -22.6369  -13.4482 C   0  0  0  0  0  0  0  0  0  0  0  0
   22.0465  -21.4427  -12.6205 C   0  0  2  0  0  0  0  0  0  0  0  0
   23.3628  -21.6536  -12.0512 N   0  0  0  0  0  0  0  0  0  0  0  0
   21.0187  -21.2475  -11.5651 C   0  0  0  0  0  0  0  0  0  0  0  0
   21.3657  -21.2731  -10.3603 O   0  0  0  0  0  0  0  0  0  0  0  0
   19.7036  -21.0420  -11.9314 O   0  0  0  0  0  0  0  0  0  0  0  0
  2  1  1  0
  3  2  1  0
  3  4  1  1
  5  3  1  0
  5  6  1  6
  7  5  1  0
  8  7  2  0
  9  7  1  0
 10  9  1  0
 11 12  1  0
 10 11  1  1
 12 20  1  0
 12 13  2  0
 13 14  1  0
 15 14  1  0
 15 16  2  0
 17 16  1  0
 18 17  2  0
 19 18  1  0
 19 20  2  0
 20 15  1  0
 21 22  2  0
 21 10  1  0
 25 24  1  1
 24 23  1  0
 25 26  1  0
 26 21  1  0
 27 25  1  0
 28 27  2  0
 29 27  1  0
M  END
$$$$
