VTC.pdb
     RDKit          3D

 21 20  0  0  1  0  0  0  0  0999 V2000
    8.4413  -12.9398   18.3174 C   0  0  0  0  0  0  0  0  0  0  0  0
    7.7991  -13.6052   19.4937 C   0  0  2  0  0  0  0  0  0  0  0  0
    7.9014  -12.6731   20.6767 C   0  0  0  0  0  0  0  0  0  0  0  0
    8.4606  -14.9040   19.8712 C   0  0  2  0  0  0  0  0  0  0  0  0
    8.5084  -15.8555   18.8115 N   0  0  0  0  0  0  0  0  0  0  0  0
    7.7670  -15.4516   21.0647 C   0  0  0  0  0  0  0  0  0  0  0  0
    6.8952  -16.3476   20.9978 O   0  0  0  0  0  0  0  0  0  0  0  0
    7.1195  -17.5123   22.1788 C   0  0  0  0  0  0  0  0  0  0  0  0
    7.5758  -16.9506   23.5058 C   0  0  1  0  0  0  0  0  0  0  0  0
    8.9750  -17.2013   23.5289 O   0  0  0  0  0  0  0  0  0  0  0  0
    7.4424  -15.4599   23.5432 C   0  0  2  0  0  0  0  0  0  0  0  0
    8.1077  -14.9370   22.3312 N   0  0  0  0  0  0  0  0  0  0  0  0
    8.0230  -14.7745   24.6899 C   0  0  0  0  0  0  0  0  0  0  0  0
    9.2637  -14.4382   24.5928 O   0  0  0  0  0  0  0  0  0  0  0  0
    7.3541  -14.4440   25.8950 N   0  0  0  0  0  0  0  0  0  0  0  0
    7.9956  -13.6510   26.8858 C   0  0  1  0  0  0  0  0  0  0  0  0
    6.9940  -12.7102   27.5734 C   0  0  0  0  0  0  0  0  0  0  0  0
    6.1033  -11.8634   26.2357 S   0  0  0  0  0  0  0  0  0  0  0  0
    8.7418  -14.4301   27.8883 C   0  0  0  0  0  0  0  0  0  0  0  0
    9.4849  -13.7791   28.8418 O   0  0  0  0  0  0  0  0  0  0  0  0
    8.7010  -15.6718   27.8738 O   0  0  0  0  0  0  0  0  0  0  0  0
  2  1  1  6
  2  3  1  0
  4  2  1  0
  4  5  1  6
  6  4  1  0
  6 12  1  0
  7  6  2  0
  9  8  1  6
  9 11  1  0
 10  9  1  0
 11 12  1  6
 11 13  1  0
 13 15  1  0
 14 13  2  0
 15 16  1  0
 16 17  1  1
 17 18  1  0
 19 16  1  0
 19 20  1  0
 21 19  2  0
M  END
$$$$
