VTC.pdb
     RDKit          3D

 21 20  0  0  1  0  0  0  0  0999 V2000
    7.9515  -19.5333   18.6576 C   0  0  0  0  0  0  0  0  0  0  0  0
    8.5783  -18.9842   17.4147 C   0  0  2  0  0  0  0  0  0  0  0  0
   10.0750  -19.1414   17.5322 C   0  0  0  0  0  0  0  0  0  0  0  0
    8.2832  -17.5234   17.2005 C   0  0  2  0  0  0  0  0  0  0  0  0
    8.6607  -17.0420   15.9136 N   0  0  0  0  0  0  0  0  0  0  0  0
    8.9391  -16.7506   18.2858 C   0  0  0  0  0  0  0  0  0  0  0  0
   10.1664  -16.5037   18.3039 O   0  0  0  0  0  0  0  0  0  0  0  0
    7.3111  -13.5741   19.6035 C   0  0  0  0  0  0  0  0  0  0  0  0
    7.7221  -14.4157   20.7898 C   0  0  1  0  0  0  0  0  0  0  0  0
    6.5532  -15.1573   21.1140 O   0  0  0  0  0  0  0  0  0  0  0  0
    8.7440  -15.4401   20.4054 C   0  0  2  0  0  0  0  0  0  0  0  0
    8.1408  -16.2736   19.3442 N   0  0  0  0  0  0  0  0  0  0  0  0
    9.2056  -16.3375   21.4559 C   0  0  0  0  0  0  0  0  0  0  0  0
    9.1684  -17.5990   21.1936 O   0  0  0  0  0  0  0  0  0  0  0  0
    9.6899  -15.9546   22.7317 N   0  0  0  0  0  0  0  0  0  0  0  0
   10.4545  -16.8596   23.5180 C   0  0  1  0  0  0  0  0  0  0  0  0
   11.6867  -17.3566   22.7460 C   0  0  0  0  0  0  0  0  0  0  0  0
   12.5344  -18.5214   23.8527 S   0  0  0  0  0  0  0  0  0  0  0  0
   10.8511  -16.3263   24.8322 C   0  0  0  0  0  0  0  0  0  0  0  0
   10.8160  -17.1411   25.9368 O   0  0  0  0  0  0  0  0  0  0  0  0
   11.2166  -15.1442   24.9442 O   0  0  0  0  0  0  0  0  0  0  0  0
  2  1  1  1
  2  3  1  0
  4  2  1  0
  4  5  1  6
  6  4  1  0
  6 12  1  0
  7  6  2  0
  9  8  1  6
  9 11  1  0
 10  9  1  0
 11 12  1  6
 11 13  1  0
 13 15  1  0
 14 13  2  0
 15 16  1  0
 16 17  1  6
 17 18  1  0
 19 16  1  0
 19 20  1  0
 21 19  2  0
M  END
$$$$
