VTC.pdb
     RDKit          3D

 21 20  0  0  1  0  0  0  0  0999 V2000
    7.2999  -12.8102   20.0391 C   0  0  0  0  0  0  0  0  0  0  0  0
    8.7140  -13.2982   20.0762 C   0  0  2  0  0  0  0  0  0  0  0  0
    9.4480  -12.7066   18.8972 C   0  0  0  0  0  0  0  0  0  0  0  0
    8.8239  -14.7969   19.9834 C   0  0  2  0  0  0  0  0  0  0  0  0
    8.3598  -15.3333   18.7476 N   0  0  0  0  0  0  0  0  0  0  0  0
    8.1052  -15.3902   21.1396 C   0  0  0  0  0  0  0  0  0  0  0  0
    7.1671  -16.2099   21.0142 O   0  0  0  0  0  0  0  0  0  0  0  0
    7.3898  -17.6077   22.2236 C   0  0  0  0  0  0  0  0  0  0  0  0
    7.9689  -17.0790   23.5157 C   0  0  1  0  0  0  0  0  0  0  0  0
    9.3669  -17.3055   23.3907 O   0  0  0  0  0  0  0  0  0  0  0  0
    7.8183  -15.5928   23.6145 C   0  0  2  0  0  0  0  0  0  0  0  0
    8.4990  -15.0114   22.4382 N   0  0  0  0  0  0  0  0  0  0  0  0
    8.3710  -14.9513   24.7998 C   0  0  0  0  0  0  0  0  0  0  0  0
    9.6263  -14.6602   24.7651 O   0  0  0  0  0  0  0  0  0  0  0  0
    7.6606  -14.6185   25.9803 N   0  0  0  0  0  0  0  0  0  0  0  0
    8.2726  -13.8364   26.9980 C   0  0  1  0  0  0  0  0  0  0  0  0
    7.2596  -12.8757   27.6400 C   0  0  0  0  0  0  0  0  0  0  0  0
    6.1501  -12.3503   26.3010 S   0  0  0  0  0  0  0  0  0  0  0  0
    8.9587  -14.6282   28.0330 C   0  0  0  0  0  0  0  0  0  0  0  0
    9.6804  -13.9905   29.0117 O   0  0  0  0  0  0  0  0  0  0  0  0
    8.8866  -15.8684   28.0232 O   0  0  0  0  0  0  0  0  0  0  0  0
  2  1  1  6
  2  3  1  0
  4  2  1  0
  4  5  1  6
  6  4  1  0
  6 12  1  0
  7  6  2  0
  9  8  1  6
  9 11  1  0
 10  9  1  0
 11 12  1  6
 11 13  1  0
 13 15  1  0
 14 13  2  0
 15 16  1  0
 16 17  1  1
 17 18  1  0
 19 16  1  0
 19 20  1  0
 21 19  2  0
M  END
$$$$
