VTC.pdb
     RDKit          3D

 21 20  0  0  1  0  0  0  0  0999 V2000
    6.8533  -21.0718   21.9820 C   0  0  0  0  0  0  0  0  0  0  0  0
    5.9428  -19.8932   21.8365 C   0  0  2  0  0  0  0  0  0  0  0  0
    4.5332  -20.3472   22.1292 C   0  0  0  0  0  0  0  0  0  0  0  0
    5.9591  -19.3020   20.4519 C   0  0  2  0  0  0  0  0  0  0  0  0
    5.4997  -20.1933   19.4394 N   0  0  0  0  0  0  0  0  0  0  0  0
    7.3332  -18.8159   20.1679 C   0  0  0  0  0  0  0  0  0  0  0  0
    8.2146  -19.5288   19.6365 O   0  0  0  0  0  0  0  0  0  0  0  0
    8.1075  -16.3205   17.9801 C   0  0  0  0  0  0  0  0  0  0  0  0
    8.8197  -15.8437   19.2250 C   0  0  1  0  0  0  0  0  0  0  0  0
    7.8962  -14.9523   19.8364 O   0  0  0  0  0  0  0  0  0  0  0  0
    9.0033  -16.9564   20.2097 C   0  0  2  0  0  0  0  0  0  0  0  0
    7.6585  -17.4893   20.5136 N   0  0  0  0  0  0  0  0  0  0  0  0
    9.6352  -16.6173   21.4776 C   0  0  0  0  0  0  0  0  0  0  0  0
    8.8463  -16.3740   22.4677 O   0  0  0  0  0  0  0  0  0  0  0  0
   11.0286  -16.5317   21.7226 N   0  0  0  0  0  0  0  0  0  0  0  0
   11.5184  -16.2330   23.0237 C   0  0  1  0  0  0  0  0  0  0  0  0
   11.0360  -17.2727   24.0473 C   0  0  0  0  0  0  0  0  0  0  0  0
   11.7821  -16.7966   25.6337 S   0  0  0  0  0  0  0  0  0  0  0  0
   12.9817  -16.0816   23.0944 C   0  0  0  0  0  0  0  0  0  0  0  0
   13.5632  -15.6136   24.2467 O   0  0  0  0  0  0  0  0  0  0  0  0
   13.6897  -16.3753   22.1166 O   0  0  0  0  0  0  0  0  0  0  0  0
  2  1  1  6
  2  3  1  0
  4  2  1  0
  4  5  1  6
  6  4  1  0
  6 12  1  0
  7  6  2  0
  9  8  1  6
  9 11  1  0
 10  9  1  0
 11 12  1  1
 11 13  1  0
 13 15  1  0
 14 13  2  0
 15 16  1  0
 16 17  1  1
 17 18  1  0
 19 16  1  0
 19 20  1  0
 21 19  2  0
M  END
$$$$
