VTC.pdb
     RDKit          3D

 21 20  0  0  1  0  0  0  0  0999 V2000
    7.2238  -19.8000   16.8094 C   0  0  0  0  0  0  0  0  0  0  0  0
    7.9193  -18.8950   17.7771 C   0  0  2  0  0  0  0  0  0  0  0  0
    7.4048  -19.2015   19.1628 C   0  0  0  0  0  0  0  0  0  0  0  0
    7.6695  -17.4354   17.5046 C   0  0  2  0  0  0  0  0  0  0  0  0
    7.9369  -17.0463   16.1602 N   0  0  0  0  0  0  0  0  0  0  0  0
    8.4649  -16.6372   18.4718 C   0  0  0  0  0  0  0  0  0  0  0  0
    9.6998  -16.4624   18.3619 O   0  0  0  0  0  0  0  0  0  0  0  0
    7.3079  -13.2483   19.6117 C   0  0  0  0  0  0  0  0  0  0  0  0
    7.6666  -14.0378   20.8497 C   0  0  1  0  0  0  0  0  0  0  0  0
    6.4334  -14.6058   21.2716 O   0  0  0  0  0  0  0  0  0  0  0  0
    8.5444  -15.2046   20.5187 C   0  0  2  0  0  0  0  0  0  0  0  0
    7.7965  -16.0495   19.5639 N   0  0  0  0  0  0  0  0  0  0  0  0
    8.9547  -16.0564   21.6268 C   0  0  0  0  0  0  0  0  0  0  0  0
    8.3040  -17.1589   21.7777 O   0  0  0  0  0  0  0  0  0  0  0  0
    9.9975  -15.7876   22.5484 N   0  0  0  0  0  0  0  0  0  0  0  0
   10.2629  -16.6805   23.6228 C   0  0  1  0  0  0  0  0  0  0  0  0
   11.5450  -17.4875   23.3658 C   0  0  0  0  0  0  0  0  0  0  0  0
   11.7628  -18.5568   24.8181 S   0  0  0  0  0  0  0  0  0  0  0  0
   10.3195  -16.0310   24.9434 C   0  0  0  0  0  0  0  0  0  0  0  0
   10.4254  -16.7994   26.0763 O   0  0  0  0  0  0  0  0  0  0  0  0
   10.2717  -14.7930   25.0351 O   0  0  0  0  0  0  0  0  0  0  0  0
  2  1  1  6
  2  3  1  0
  4  2  1  0
  4  5  1  6
  6  4  1  0
  6 12  1  0
  7  6  2  0
  9  8  1  6
  9 11  1  0
 10  9  1  0
 11 12  1  6
 11 13  1  0
 13 15  1  0
 14 13  2  0
 15 16  1  0
 16 17  1  6
 17 18  1  0
 19 16  1  0
 19 20  1  0
 21 19  2  0
M  END
$$$$
