VTC.pdb
     RDKit          3D

 21 20  0  0  1  0  0  0  0  0999 V2000
    8.4752  -12.7206   18.4596 C   0  0  0  0  0  0  0  0  0  0  0  0
    7.8097  -13.3481   19.6439 C   0  0  2  0  0  0  0  0  0  0  0  0
    8.2274  -12.5860   20.8782 C   0  0  0  0  0  0  0  0  0  0  0  0
    8.1927  -14.7908   19.8407 C   0  0  2  0  0  0  0  0  0  0  0  0
    7.8312  -15.6365   18.7524 N   0  0  0  0  0  0  0  0  0  0  0  0
    7.5985  -15.2615   21.1177 C   0  0  0  0  0  0  0  0  0  0  0  0
    6.3847  -15.5405   21.2453 O   0  0  0  0  0  0  0  0  0  0  0  0
    8.0559  -17.9586   24.9526 C   0  0  0  0  0  0  0  0  0  0  0  0
    8.3799  -17.3623   23.6020 C   0  0  1  0  0  0  0  0  0  0  0  0
    7.5668  -18.0931   22.6932 O   0  0  0  0  0  0  0  0  0  0  0  0
    7.9062  -15.9456   23.5022 C   0  0  2  0  0  0  0  0  0  0  0  0
    8.4423  -15.3999   22.2375 N   0  0  0  0  0  0  0  0  0  0  0  0
    8.3044  -15.0403   24.5717 C   0  0  0  0  0  0  0  0  0  0  0  0
    9.5252  -14.6269   24.5521 O   0  0  0  0  0  0  0  0  0  0  0  0
    7.4787  -14.5737   25.6250 N   0  0  0  0  0  0  0  0  0  0  0  0
    8.0049  -13.7231   26.6357 C   0  0  1  0  0  0  0  0  0  0  0  0
    6.8790  -12.9901   27.3816 C   0  0  0  0  0  0  0  0  0  0  0  0
    5.8295  -12.2472   26.0983 S   0  0  0  0  0  0  0  0  0  0  0  0
    8.8962  -14.4043   27.5899 C   0  0  0  0  0  0  0  0  0  0  0  0
    9.6319  -13.6643   28.4823 O   0  0  0  0  0  0  0  0  0  0  0  0
    8.9841  -15.6435   27.5898 O   0  0  0  0  0  0  0  0  0  0  0  0
  2  1  1  6
  2  3  1  0
  4  2  1  0
  4  5  1  6
  6  4  1  0
  6 12  1  0
  7  6  2  0
  9  8  1  1
  9 11  1  0
 10  9  1  0
 11 12  1  6
 11 13  1  0
 13 15  1  0
 14 13  2  0
 15 16  1  0
 16 17  1  1
 17 18  1  0
 19 16  1  0
 19 20  1  0
 21 19  2  0
M  END
$$$$
