VTC.pdb
     RDKit          3D

 21 20  0  0  1  0  0  0  0  0999 V2000
    7.9685  -12.6366   19.2762 C   0  0  0  0  0  0  0  0  0  0  0  0
    7.8926  -13.6501   20.3744 C   0  0  2  0  0  0  0  0  0  0  0  0
    8.4475  -13.0255   21.6318 C   0  0  0  0  0  0  0  0  0  0  0  0
    8.6906  -14.8939   20.0862 C   0  0  2  0  0  0  0  0  0  0  0  0
    8.3367  -15.5352   18.8640 N   0  0  0  0  0  0  0  0  0  0  0  0
    8.5554  -15.8141   21.2439 C   0  0  0  0  0  0  0  0  0  0  0  0
    7.8652  -16.8581   21.2105 O   0  0  0  0  0  0  0  0  0  0  0  0
    9.3310  -18.1553   21.7854 C   0  0  0  0  0  0  0  0  0  0  0  0
    9.8740  -17.6960   23.1191 C   0  0  1  0  0  0  0  0  0  0  0  0
   11.2190  -17.3285   22.8412 O   0  0  0  0  0  0  0  0  0  0  0  0
    9.2079  -16.4353   23.5756 C   0  0  2  0  0  0  0  0  0  0  0  0
    9.2367  -15.4953   22.4352 N   0  0  0  0  0  0  0  0  0  0  0  0
    9.7999  -15.7533   24.7185 C   0  0  0  0  0  0  0  0  0  0  0  0
   10.6850  -14.8532   24.4573 O   0  0  0  0  0  0  0  0  0  0  0  0
    9.4941  -15.9852   26.0829 N   0  0  0  0  0  0  0  0  0  0  0  0
   10.1006  -15.2038   27.1043 C   0  0  1  0  0  0  0  0  0  0  0  0
    9.1395  -14.1180   27.6128 C   0  0  0  0  0  0  0  0  0  0  0  0
   10.0367  -13.2259   28.9163 S   0  0  0  0  0  0  0  0  0  0  0  0
   10.6283  -15.9926   28.2305 C   0  0  0  0  0  0  0  0  0  0  0  0
   10.2593  -17.3074   28.3733 O   0  0  0  0  0  0  0  0  0  0  0  0
   11.4045  -15.4731   29.0498 O   0  0  0  0  0  0  0  0  0  0  0  0
  2  1  1  6
  2  3  1  0
  4  2  1  0
  4  5  1  6
  6  4  1  0
  6 12  1  0
  7  6  2  0
  9  8  1  6
  9 11  1  0
 10  9  1  0
 11 12  1  6
 11 13  1  0
 13 15  1  0
 14 13  2  0
 15 16  1  0
 16 17  1  1
 17 18  1  0
 19 16  1  0
 19 20  1  0
 21 19  2  0
M  END
$$$$
