VTC.pdb
     RDKit          3D

 21 20  0  0  1  0  0  0  0  0999 V2000
    7.8384  -12.1671   18.4457 C   0  0  0  0  0  0  0  0  0  0  0  0
    7.9599  -13.4390   19.2247 C   0  0  2  0  0  0  0  0  0  0  0  0
    8.6341  -13.1248   20.5384 C   0  0  0  0  0  0  0  0  0  0  0  0
    8.7835  -14.4853   18.5221 C   0  0  2  0  0  0  0  0  0  0  0  0
    8.2960  -14.8290   17.2280 N   0  0  0  0  0  0  0  0  0  0  0  0
    8.8760  -15.6765   19.4040 C   0  0  0  0  0  0  0  0  0  0  0  0
    7.9720  -16.5389   19.4855 O   0  0  0  0  0  0  0  0  0  0  0  0
   10.7153  -18.4421   19.1316 C   0  0  0  0  0  0  0  0  0  0  0  0
   11.1753  -17.9246   20.4752 C   0  0  1  0  0  0  0  0  0  0  0  0
   12.2894  -17.0965   20.1680 O   0  0  0  0  0  0  0  0  0  0  0  0
   10.1602  -17.0084   21.0848 C   0  0  2  0  0  0  0  0  0  0  0  0
   10.0368  -15.8422   20.1851 N   0  0  0  0  0  0  0  0  0  0  0  0
   10.4472  -16.5014   22.4199 C   0  0  0  0  0  0  0  0  0  0  0  0
   11.3016  -15.5394   22.4996 O   0  0  0  0  0  0  0  0  0  0  0  0
    9.8767  -16.9640   23.6321 N   0  0  0  0  0  0  0  0  0  0  0  0
   10.2720  -16.4053   24.8785 C   0  0  1  0  0  0  0  0  0  0  0  0
    9.0482  -16.0565   25.7400 C   0  0  0  0  0  0  0  0  0  0  0  0
    7.9843  -15.0147   24.6994 S   0  0  0  0  0  0  0  0  0  0  0  0
   11.2156  -17.2418   25.6393 C   0  0  0  0  0  0  0  0  0  0  0  0
   11.7779  -16.7565   26.7941 O   0  0  0  0  0  0  0  0  0  0  0  0
   11.5036  -18.3825   25.2403 O   0  0  0  0  0  0  0  0  0  0  0  0
  2  1  1  6
  2  3  1  0
  4  2  1  0
  4  5  1  6
  6  4  1  0
  6 12  1  0
  7  6  2  0
  9  8  1  6
  9 11  1  0
 10  9  1  0
 11 12  1  6
 11 13  1  0
 13 15  1  0
 14 13  2  0
 15 16  1  0
 16 17  1  1
 17 18  1  0
 19 16  1  0
 19 20  1  0
 21 19  2  0
M  END
$$$$
