MWG.pdb
     RDKit          3D

 27 28  0  0  1  0  0  0  0  0999 V2000
    8.5473  -11.9897   19.0668 C   0  0  0  0  0  0  0  0  0  0  0  0
    7.1148  -13.0984   19.1289 S   0  0  0  0  0  0  0  0  0  0  0  0
    7.6123  -14.7381   19.7339 C   0  0  0  0  0  0  0  0  0  0  0  0
    8.3592  -14.5408   21.0235 C   0  0  0  0  0  0  0  0  0  0  0  0
    8.9718  -15.8472   21.5242 C   0  0  2  0  0  0  0  0  0  0  0  0
    7.9348  -16.8648   21.6350 N   0  0  0  0  0  0  0  0  0  0  0  0
    9.6934  -15.6554   22.7932 C   0  0  0  0  0  0  0  0  0  0  0  0
   10.5999  -14.7691   22.8000 O   0  0  0  0  0  0  0  0  0  0  0  0
    9.4650  -16.3605   23.9776 N   0  0  0  0  0  0  0  0  0  0  0  0
   10.1538  -16.0521   25.2528 C   0  0  1  0  0  0  0  0  0  0  0  0
    9.1148  -16.2578   26.3340 C   0  0  0  0  0  0  0  0  0  0  0  0
    7.8733  -15.5269   26.1711 C   0  0  0  0  0  0  0  0  0  0  0  0
    6.6260  -16.0431   25.8919 C   0  0  0  0  0  0  0  0  0  0  0  0
    5.7545  -15.0258   25.8084 N   0  0  0  0  0  0  0  0  0  0  0  0
    6.3724  -13.8411   26.0219 C   0  0  0  0  0  0  0  0  0  0  0  0
    5.9025  -12.5350   26.0378 C   0  0  0  0  0  0  0  0  0  0  0  0
    6.8250  -11.5343   26.2940 C   0  0  0  0  0  0  0  0  0  0  0  0
    8.1505  -11.8260   26.5226 C   0  0  0  0  0  0  0  0  0  0  0  0
    8.5811  -13.1350   26.4990 C   0  0  0  0  0  0  0  0  0  0  0  0
    7.6938  -14.1503   26.2484 C   0  0  0  0  0  0  0  0  0  0  0  0
   11.3039  -16.9610   25.4088 C   0  0  0  0  0  0  0  0  0  0  0  0
   11.8554  -17.0615   26.5304 O   0  0  0  0  0  0  0  0  0  0  0  0
   11.7944  -17.7210   24.3208 N   0  0  0  0  0  0  0  0  0  0  0  0
   12.9216  -18.6431   24.5142 C   0  0  0  0  0  0  0  0  0  0  0  0
   14.1472  -18.1140   23.8633 C   0  0  0  0  0  0  0  0  0  0  0  0
   14.7808  -18.7215   22.7978 O   0  0  0  0  0  0  0  0  0  0  0  0
   14.6441  -17.0475   24.3046 O   0  0  0  0  0  0  0  0  0  0  0  0
  2  1  1  0
  3  2  1  0
  4  3  1  0
  4  5  1  0
  5  6  1  1
  7  8  2  0
  7  5  1  0
  9  7  1  0
 10  9  1  0
 11 12  1  0
 10 11  1  1
 12 13  2  0
 12 20  1  0
 13 14  1  0
 14 15  1  0
 15 16  2  0
 16 17  1  0
 18 17  2  0
 19 18  1  0
 20 19  2  0
 20 15  1  0
 21 22  2  0
 21 10  1  0
 23 21  1  0
 24 23  1  0
 24 25  1  0
 25 26  1  0
 27 25  2  0
M  END
$$$$
