MWG.pdb
     RDKit          3D

 27 28  0  0  1  0  0  0  0  0999 V2000
    8.4457  -12.0327   18.7047 C   0  0  0  0  0  0  0  0  0  0  0  0
    7.0145  -13.1275   18.5100 S   0  0  0  0  0  0  0  0  0  0  0  0
    7.2767  -14.6766   19.4232 C   0  0  0  0  0  0  0  0  0  0  0  0
    8.1361  -14.3626   20.6159 C   0  0  0  0  0  0  0  0  0  0  0  0
    8.4180  -15.6105   21.4501 C   0  0  2  0  0  0  0  0  0  0  0  0
    7.2082  -16.4162   21.5524 N   0  0  0  0  0  0  0  0  0  0  0  0
    8.9637  -15.2653   22.7734 C   0  0  0  0  0  0  0  0  0  0  0  0
    9.1481  -14.0326   23.0051 O   0  0  0  0  0  0  0  0  0  0  0  0
    9.2913  -16.1727   23.7840 N   0  0  0  0  0  0  0  0  0  0  0  0
   10.0765  -15.8029   24.9850 C   0  0  1  0  0  0  0  0  0  0  0  0
    9.1651  -16.0720   26.1630 C   0  0  0  0  0  0  0  0  0  0  0  0
    7.8793  -15.4024   26.1391 C   0  0  0  0  0  0  0  0  0  0  0  0
    6.6550  -15.9475   25.8168 C   0  0  0  0  0  0  0  0  0  0  0  0
    5.7248  -14.9840   25.9048 N   0  0  0  0  0  0  0  0  0  0  0  0
    6.2809  -13.8075   26.2755 C   0  0  0  0  0  0  0  0  0  0  0  0
    5.7384  -12.5488   26.4948 C   0  0  0  0  0  0  0  0  0  0  0  0
    6.6103  -11.5416   26.8735 C   0  0  0  0  0  0  0  0  0  0  0  0
    7.9569  -11.7821   27.0250 C   0  0  0  0  0  0  0  0  0  0  0  0
    8.4603  -13.0449   26.7987 C   0  0  0  0  0  0  0  0  0  0  0  0
    7.6245  -14.0652   26.4225 C   0  0  0  0  0  0  0  0  0  0  0  0
   11.2992  -16.6252   25.0307 C   0  0  0  0  0  0  0  0  0  0  0  0
   12.1416  -16.4175   25.9360 O   0  0  0  0  0  0  0  0  0  0  0  0
   11.5385  -17.6422   24.0765 N   0  0  0  0  0  0  0  0  0  0  0  0
   12.7943  -18.4037   24.1098 C   0  0  0  0  0  0  0  0  0  0  0  0
   12.8470  -19.2722   25.3135 C   0  0  0  0  0  0  0  0  0  0  0  0
   11.8278  -19.3737   26.2391 O   0  0  0  0  0  0  0  0  0  0  0  0
   13.8803  -19.9602   25.5080 O   0  0  0  0  0  0  0  0  0  0  0  0
  2  1  1  0
  3  2  1  0
  4  3  1  0
  4  5  1  0
  5  6  1  1
  7  8  2  0
  7  5  1  0
  9  7  1  0
 10  9  1  0
 11 12  1  0
 10 11  1  1
 12 13  2  0
 12 20  1  0
 13 14  1  0
 14 15  1  0
 15 16  2  0
 16 17  1  0
 18 17  2  0
 19 18  1  0
 20 19  2  0
 20 15  1  0
 21 22  2  0
 21 10  1  0
 23 21  1  0
 24 23  1  0
 24 25  1  0
 25 26  1  0
 27 25  2  0
M  END
$$$$
