MWG.pdb
     RDKit          3D

 27 28  0  0  1  0  0  0  0  0999 V2000
    9.8684  -22.4262   23.4099 C   0  0  0  0  0  0  0  0  0  0  0  0
    8.9122  -22.7358   21.9016 S   0  0  0  0  0  0  0  0  0  0  0  0
    7.7440  -21.3758   21.6053 C   0  0  0  0  0  0  0  0  0  0  0  0
    8.4780  -20.0851   21.8403 C   0  0  0  0  0  0  0  0  0  0  0  0
    7.5148  -18.9332   22.1195 C   0  0  2  0  0  0  0  0  0  0  0  0
    6.5998  -18.7752   20.9966 N   0  0  0  0  0  0  0  0  0  0  0  0
    8.2360  -17.6858   22.4224 C   0  0  0  0  0  0  0  0  0  0  0  0
    8.5388  -16.9531   21.4332 O   0  0  0  0  0  0  0  0  0  0  0  0
    8.6100  -17.2467   23.6950 N   0  0  0  0  0  0  0  0  0  0  0  0
    9.5039  -16.0874   23.9245 C   0  0  1  0  0  0  0  0  0  0  0  0
    9.2257  -15.6363   25.3422 C   0  0  0  0  0  0  0  0  0  0  0  0
    7.9127  -15.0709   25.5842 C   0  0  0  0  0  0  0  0  0  0  0  0
    6.7080  -15.7388   25.6368 C   0  0  0  0  0  0  0  0  0  0  0  0
    5.7357  -14.8430   25.8684 N   0  0  0  0  0  0  0  0  0  0  0  0
    6.2445  -13.5937   25.9738 C   0  0  0  0  0  0  0  0  0  0  0  0
    5.6484  -12.3617   26.2056 C   0  0  0  0  0  0  0  0  0  0  0  0
    6.4806  -11.2557   26.2539 C   0  0  0  0  0  0  0  0  0  0  0  0
    7.8404  -11.3767   26.0791 C   0  0  0  0  0  0  0  0  0  0  0  0
    8.3973  -12.6165   25.8510 C   0  0  0  0  0  0  0  0  0  0  0  0
    7.6019  -13.7325   25.7971 C   0  0  0  0  0  0  0  0  0  0  0  0
   10.9025  -16.5169   23.7436 C   0  0  0  0  0  0  0  0  0  0  0  0
   11.2793  -17.6002   24.2502 O   0  0  0  0  0  0  0  0  0  0  0  0
   11.8242  -15.7331   23.0099 N   0  0  0  0  0  0  0  0  0  0  0  0
   13.1250  -16.2949   22.6222 C   0  0  0  0  0  0  0  0  0  0  0  0
   14.1208  -16.1046   23.7075 C   0  0  0  0  0  0  0  0  0  0  0  0
   15.2630  -15.3391   23.5836 O   0  0  0  0  0  0  0  0  0  0  0  0
   13.9178  -16.6725   24.8098 O   0  0  0  0  0  0  0  0  0  0  0  0
  2  1  1  0
  3  2  1  0
  4  3  1  0
  4  5  1  0
  5  6  1  6
  7  8  2  0
  7  5  1  0
  9  7  1  0
 10  9  1  0
 11 12  1  0
 10 11  1  1
 12 13  2  0
 12 20  1  0
 13 14  1  0
 14 15  1  0
 15 16  2  0
 16 17  1  0
 18 17  2  0
 19 18  1  0
 20 19  2  0
 20 15  1  0
 21 22  2  0
 21 10  1  0
 23 21  1  0
 24 23  1  0
 24 25  1  0
 25 26  1  0
 27 25  2  0
M  END
$$$$
