MWG.pdb
     RDKit          3D

 27 28  0  0  1  0  0  0  0  0999 V2000
    6.3832  -19.4032   18.8817 C   0  0  0  0  0  0  0  0  0  0  0  0
    7.3650  -18.1860   19.7981 S   0  0  0  0  0  0  0  0  0  0  0  0
    7.9284  -16.8641   18.6858 C   0  0  0  0  0  0  0  0  0  0  0  0
    8.6846  -15.8630   19.5140 C   0  0  0  0  0  0  0  0  0  0  0  0
    7.8048  -15.2566   20.6052 C   0  0  2  0  0  0  0  0  0  0  0  0
    7.1443  -14.0618   20.0956 N   0  0  0  0  0  0  0  0  0  0  0  0
    8.5739  -14.9810   21.8301 C   0  0  0  0  0  0  0  0  0  0  0  0
    9.1139  -13.8371   21.9135 O   0  0  0  0  0  0  0  0  0  0  0  0
    8.7562  -15.8651   22.8966 N   0  0  0  0  0  0  0  0  0  0  0  0
    9.4922  -15.5075   24.1319 C   0  0  1  0  0  0  0  0  0  0  0  0
    8.6231  -15.9878   25.2741 C   0  0  0  0  0  0  0  0  0  0  0  0
    7.4947  -15.1433   25.6142 C   0  0  0  0  0  0  0  0  0  0  0  0
    6.1573  -15.4754   25.5793 C   0  0  0  0  0  0  0  0  0  0  0  0
    5.4436  -14.4027   25.9551 N   0  0  0  0  0  0  0  0  0  0  0  0
    6.2548  -13.3586   26.2422 C   0  0  0  0  0  0  0  0  0  0  0  0
    5.9913  -12.0628   26.6645 C   0  0  0  0  0  0  0  0  0  0  0  0
    7.0795  -11.2310   26.8697 C   0  0  0  0  0  0  0  0  0  0  0  0
    8.3660  -11.6736   26.6626 C   0  0  0  0  0  0  0  0  0  0  0  0
    8.5897  -12.9672   26.2432 C   0  0  0  0  0  0  0  0  0  0  0  0
    7.5347  -13.8173   26.0306 C   0  0  0  0  0  0  0  0  0  0  0  0
   10.8069  -16.1742   24.1170 C   0  0  0  0  0  0  0  0  0  0  0  0
   11.4433  -16.2940   25.1907 O   0  0  0  0  0  0  0  0  0  0  0  0
   11.3615  -16.6814   22.9182 N   0  0  0  0  0  0  0  0  0  0  0  0
   12.6513  -17.3843   22.9422 C   0  0  0  0  0  0  0  0  0  0  0  0
   13.0670  -17.7605   21.5668 C   0  0  0  0  0  0  0  0  0  0  0  0
   13.5475  -19.0067   21.2178 O   0  0  0  0  0  0  0  0  0  0  0  0
   12.9786  -16.8959   20.6594 O   0  0  0  0  0  0  0  0  0  0  0  0
  2  1  1  0
  3  2  1  0
  4  3  1  0
  4  5  1  0
  5  6  1  6
  7  8  2  0
  7  5  1  0
  9  7  1  0
 10  9  1  0
 11 12  1  0
 10 11  1  1
 12 13  2  0
 12 20  1  0
 13 14  1  0
 14 15  1  0
 15 16  2  0
 16 17  1  0
 18 17  2  0
 19 18  1  0
 20 19  2  0
 20 15  1  0
 21 22  2  0
 21 10  1  0
 23 21  1  0
 24 23  1  0
 24 25  1  0
 25 26  1  0
 27 25  2  0
M  END
$$$$
