MWG.pdb
     RDKit          3D

 27 28  0  0  1  0  0  0  0  0999 V2000
    7.9729  -11.7258   19.7607 C   0  0  0  0  0  0  0  0  0  0  0  0
    6.8880  -12.9900   19.0465 S   0  0  0  0  0  0  0  0  0  0  0  0
    7.4503  -14.6493   19.5288 C   0  0  0  0  0  0  0  0  0  0  0  0
    7.8885  -14.5823   20.9653 C   0  0  0  0  0  0  0  0  0  0  0  0
    8.4272  -15.9260   21.4521 C   0  0  2  0  0  0  0  0  0  0  0  0
    7.5117  -16.9913   21.0647 N   0  0  0  0  0  0  0  0  0  0  0  0
    8.6777  -15.9153   22.9030 C   0  0  0  0  0  0  0  0  0  0  0  0
    7.8457  -16.5424   23.6252 O   0  0  0  0  0  0  0  0  0  0  0  0
    9.7442  -15.2790   23.5432 N   0  0  0  0  0  0  0  0  0  0  0  0
   10.1065  -15.5260   24.9586 C   0  0  1  0  0  0  0  0  0  0  0  0
    8.9220  -16.2523   25.5588 C   0  0  0  0  0  0  0  0  0  0  0  0
    7.7053  -15.4768   25.7012 C   0  0  0  0  0  0  0  0  0  0  0  0
    6.4115  -15.8967   25.4777 C   0  0  0  0  0  0  0  0  0  0  0  0
    5.5844  -14.8655   25.7102 N   0  0  0  0  0  0  0  0  0  0  0  0
    6.2771  -13.7646   26.0828 C   0  0  0  0  0  0  0  0  0  0  0  0
    5.8735  -12.4804   26.4215 C   0  0  0  0  0  0  0  0  0  0  0  0
    6.8649  -11.5748   26.7609 C   0  0  0  0  0  0  0  0  0  0  0  0
    8.1928  -11.9363   26.7613 C   0  0  0  0  0  0  0  0  0  0  0  0
    8.5566  -13.2208   26.4195 C   0  0  0  0  0  0  0  0  0  0  0  0
    7.6001  -14.1427   26.0782 C   0  0  0  0  0  0  0  0  0  0  0  0
   11.3361  -16.3379   25.0044 C   0  0  0  0  0  0  0  0  0  0  0  0
   11.8039  -16.6760   26.1175 O   0  0  0  0  0  0  0  0  0  0  0  0
   11.9952  -16.7431   23.8197 N   0  0  0  0  0  0  0  0  0  0  0  0
   13.1363  -17.6657   23.8895 C   0  0  0  0  0  0  0  0  0  0  0  0
   14.4178  -16.9165   23.8397 C   0  0  0  0  0  0  0  0  0  0  0  0
   15.6604  -17.5137   23.7687 O   0  0  0  0  0  0  0  0  0  0  0  0
   14.3761  -15.6609   23.8634 O   0  0  0  0  0  0  0  0  0  0  0  0
  2  1  1  0
  3  2  1  0
  4  3  1  0
  4  5  1  0
  5  6  1  1
  7  8  2  0
  7  5  1  0
  9  7  1  0
 10  9  1  0
 11 12  1  0
 10 11  1  6
 12 13  2  0
 12 20  1  0
 13 14  1  0
 14 15  1  0
 15 16  2  0
 16 17  1  0
 18 17  2  0
 19 18  1  0
 20 19  2  0
 20 15  1  0
 21 22  2  0
 21 10  1  0
 23 21  1  0
 24 23  1  0
 24 25  1  0
 25 26  1  0
 27 25  2  0
M  END
$$$$
