MWG.pdb
     RDKit          3D

 27 28  0  0  1  0  0  0  0  0999 V2000
    6.6421  -11.7673   20.1146 C   0  0  0  0  0  0  0  0  0  0  0  0
    7.5613  -13.1988   19.4894 S   0  0  0  0  0  0  0  0  0  0  0  0
    7.7830  -14.4304   20.8070 C   0  0  0  0  0  0  0  0  0  0  0  0
    8.6308  -15.5418   20.2540 C   0  0  0  0  0  0  0  0  0  0  0  0
    8.7899  -16.6810   21.2587 C   0  0  2  0  0  0  0  0  0  0  0  0
    7.4811  -17.2278   21.5922 N   0  0  0  0  0  0  0  0  0  0  0  0
    9.5274  -16.2471   22.4570 C   0  0  0  0  0  0  0  0  0  0  0  0
   10.4315  -15.3762   22.2802 O   0  0  0  0  0  0  0  0  0  0  0  0
    9.3161  -16.7096   23.7584 N   0  0  0  0  0  0  0  0  0  0  0  0
   10.0612  -16.1994   24.9332 C   0  0  1  0  0  0  0  0  0  0  0  0
    9.0933  -16.2825   26.0937 C   0  0  0  0  0  0  0  0  0  0  0  0
    7.8519  -15.5490   25.9410 C   0  0  0  0  0  0  0  0  0  0  0  0
    6.6150  -16.0540   25.6017 C   0  0  0  0  0  0  0  0  0  0  0  0
    5.7400  -15.0374   25.5538 N   0  0  0  0  0  0  0  0  0  0  0  0
    6.3455  -13.8640   25.8494 C   0  0  0  0  0  0  0  0  0  0  0  0
    5.8678  -12.5630   25.9272 C   0  0  0  0  0  0  0  0  0  0  0  0
    6.7778  -11.5744   26.2628 C   0  0  0  0  0  0  0  0  0  0  0  0
    8.0988  -11.8728   26.5079 C   0  0  0  0  0  0  0  0  0  0  0  0
    8.5375  -13.1764   26.4213 C   0  0  0  0  0  0  0  0  0  0  0  0
    7.6627  -14.1798   26.0914 C   0  0  0  0  0  0  0  0  0  0  0  0
   11.2549  -17.0382   25.1455 C   0  0  0  0  0  0  0  0  0  0  0  0
   12.1149  -16.6760   25.9829 O   0  0  0  0  0  0  0  0  0  0  0  0
   11.4467  -18.2411   24.4257 N   0  0  0  0  0  0  0  0  0  0  0  0
   12.6871  -18.4577   23.6690 C   0  0  0  0  0  0  0  0  0  0  0  0
   13.7730  -18.9247   24.5682 C   0  0  0  0  0  0  0  0  0  0  0  0
   15.0008  -19.3768   24.1279 O   0  0  0  0  0  0  0  0  0  0  0  0
   13.5686  -18.9104   25.8079 O   0  0  0  0  0  0  0  0  0  0  0  0
  2  1  1  0
  3  2  1  0
  4  3  1  0
  4  5  1  0
  5  6  1  1
  7  8  2  0
  7  5  1  0
  9  7  1  0
 10  9  1  0
 11 12  1  0
 10 11  1  1
 12 13  2  0
 12 20  1  0
 13 14  1  0
 14 15  1  0
 15 16  2  0
 16 17  1  0
 18 17  2  0
 19 18  1  0
 20 19  2  0
 20 15  1  0
 21 22  2  0
 21 10  1  0
 23 21  1  0
 24 23  1  0
 24 25  1  0
 25 26  1  0
 27 25  2  0
M  END
$$$$
