MWG.pdb
     RDKit          3D

 27 28  0  0  1  0  0  0  0  0999 V2000
    7.4352  -11.7496   18.9849 C   0  0  0  0  0  0  0  0  0  0  0  0
    6.8090  -13.1423   18.0085 S   0  0  0  0  0  0  0  0  0  0  0  0
    7.1541  -14.7123   18.8559 C   0  0  0  0  0  0  0  0  0  0  0  0
    8.5886  -15.0709   18.5845 C   0  0  0  0  0  0  0  0  0  0  0  0
    9.0547  -16.2295   19.4637 C   0  0  2  0  0  0  0  0  0  0  0  0
    8.0535  -17.2882   19.4520 N   0  0  0  0  0  0  0  0  0  0  0  0
    9.3658  -15.7805   20.8310 C   0  0  0  0  0  0  0  0  0  0  0  0
   10.2825  -14.9124   20.9464 O   0  0  0  0  0  0  0  0  0  0  0  0
    8.7419  -16.2261   21.9991 N   0  0  0  0  0  0  0  0  0  0  0  0
    9.0836  -15.7168   23.3480 C   0  0  1  0  0  0  0  0  0  0  0  0
    7.7628  -15.5725   24.0727 C   0  0  0  0  0  0  0  0  0  0  0  0
    7.8244  -14.9872   25.3978 C   0  0  0  0  0  0  0  0  0  0  0  0
    8.2681  -15.5834   26.5587 C   0  0  0  0  0  0  0  0  0  0  0  0
    8.1441  -14.7017   27.5630 N   0  0  0  0  0  0  0  0  0  0  0  0
    7.6316  -13.5311   27.1181 C   0  0  0  0  0  0  0  0  0  0  0  0
    7.3258  -12.3421   27.7658 C   0  0  0  0  0  0  0  0  0  0  0  0
    6.8023  -11.3181   26.9940 C   0  0  0  0  0  0  0  0  0  0  0  0
    6.5954  -11.4763   25.6427 C   0  0  0  0  0  0  0  0  0  0  0  0
    6.9110  -12.6714   25.0332 C   0  0  0  0  0  0  0  0  0  0  0  0
    7.4312  -13.7060   25.7681 C   0  0  0  0  0  0  0  0  0  0  0  0
    9.9783  -16.6818   24.0126 C   0  0  0  0  0  0  0  0  0  0  0  0
    9.5167  -17.7866   24.3848 O   0  0  0  0  0  0  0  0  0  0  0  0
   11.3438  -16.3864   24.2361 N   0  0  0  0  0  0  0  0  0  0  0  0
   12.2066  -17.3600   24.9186 C   0  0  0  0  0  0  0  0  0  0  0  0
   13.5923  -16.8384   25.0356 C   0  0  0  0  0  0  0  0  0  0  0  0
   14.0146  -15.6380   24.5004 O   0  0  0  0  0  0  0  0  0  0  0  0
   14.4384  -17.5272   25.6590 O   0  0  0  0  0  0  0  0  0  0  0  0
  2  1  1  0
  3  2  1  0
  4  3  1  0
  4  5  1  0
  5  6  1  1
  7  8  2  0
  7  5  1  0
  9  7  1  0
 10  9  1  0
 11 12  1  0
 10 11  1  1
 12 13  2  0
 12 20  1  0
 13 14  1  0
 14 15  1  0
 15 16  2  0
 16 17  1  0
 18 17  2  0
 19 18  1  0
 20 19  2  0
 20 15  1  0
 21 22  2  0
 21 10  1  0
 23 21  1  0
 24 23  1  0
 24 25  1  0
 25 26  1  0
 27 25  2  0
M  END
$$$$
