MWG.pdb
     RDKit          3D

 27 28  0  0  1  0  0  0  0  0999 V2000
    7.6136  -12.6869   17.3835 C   0  0  0  0  0  0  0  0  0  0  0  0
    8.0340  -13.1534   19.0837 S   0  0  0  0  0  0  0  0  0  0  0  0
    6.7669  -14.2637   19.7647 C   0  0  0  0  0  0  0  0  0  0  0  0
    7.1038  -14.5082   21.2092 C   0  0  0  0  0  0  0  0  0  0  0  0
    8.3043  -15.4407   21.3567 C   0  0  2  0  0  0  0  0  0  0  0  0
    7.8676  -16.8257   21.2366 N   0  0  0  0  0  0  0  0  0  0  0  0
    9.0269  -15.1980   22.6164 C   0  0  0  0  0  0  0  0  0  0  0  0
    9.5668  -14.0586   22.7483 O   0  0  0  0  0  0  0  0  0  0  0  0
    9.1654  -16.1085   23.6672 N   0  0  0  0  0  0  0  0  0  0  0  0
    9.9406  -15.8189   24.8964 C   0  0  1  0  0  0  0  0  0  0  0  0
    9.0064  -16.1284   26.0462 C   0  0  0  0  0  0  0  0  0  0  0  0
    7.7584  -15.3906   26.0688 C   0  0  0  0  0  0  0  0  0  0  0  0
    6.5074  -15.8465   25.7122 C   0  0  0  0  0  0  0  0  0  0  0  0
    5.6300  -14.8425   25.8656 N   0  0  0  0  0  0  0  0  0  0  0  0
    6.2475  -13.7250   26.3135 C   0  0  0  0  0  0  0  0  0  0  0  0
    5.7727  -12.4564   26.6171 C   0  0  0  0  0  0  0  0  0  0  0  0
    6.6965  -11.5250   27.0613 C   0  0  0  0  0  0  0  0  0  0  0  0
    8.0279  -11.8470   27.1946 C   0  0  0  0  0  0  0  0  0  0  0  0
    8.4634  -13.1171   26.8838 C   0  0  0  0  0  0  0  0  0  0  0  0
    7.5750  -14.0636   26.4413 C   0  0  0  0  0  0  0  0  0  0  0  0
   11.1446  -16.6694   24.9158 C   0  0  0  0  0  0  0  0  0  0  0  0
   11.1667  -17.6800   25.6577 O   0  0  0  0  0  0  0  0  0  0  0  0
   12.2711  -16.3689   24.1142 N   0  0  0  0  0  0  0  0  0  0  0  0
   13.4959  -17.1713   24.2333 C   0  0  0  0  0  0  0  0  0  0  0  0
   14.4724  -16.7938   23.1799 C   0  0  0  0  0  0  0  0  0  0  0  0
   15.7625  -17.2803   23.1111 O   0  0  0  0  0  0  0  0  0  0  0  0
   14.1089  -15.9814   22.2929 O   0  0  0  0  0  0  0  0  0  0  0  0
  2  1  1  0
  3  2  1  0
  4  3  1  0
  4  5  1  0
  5  6  1  1
  7  8  2  0
  7  5  1  0
  9  7  1  0
 10  9  1  0
 11 12  1  0
 10 11  1  1
 12 13  2  0
 12 20  1  0
 13 14  1  0
 14 15  1  0
 15 16  2  0
 16 17  1  0
 18 17  2  0
 19 18  1  0
 20 19  2  0
 20 15  1  0
 21 22  2  0
 21 10  1  0
 23 21  1  0
 24 23  1  0
 24 25  1  0
 25 26  1  0
 27 25  2  0
M  END
$$$$
