MWG.pdb
     RDKit          3D

 27 28  0  0  1  0  0  0  0  0999 V2000
    7.9404  -11.7049   19.9126 C   0  0  0  0  0  0  0  0  0  0  0  0
    7.6469  -13.1801   18.9013 S   0  0  0  0  0  0  0  0  0  0  0  0
    7.4544  -14.6434   19.9615 C   0  0  0  0  0  0  0  0  0  0  0  0
    8.4531  -14.5307   21.0794 C   0  0  0  0  0  0  0  0  0  0  0  0
    8.8909  -15.9045   21.5830 C   0  0  2  0  0  0  0  0  0  0  0  0
    7.7310  -16.7795   21.6932 N   0  0  0  0  0  0  0  0  0  0  0  0
    9.6291  -15.8056   22.8531 C   0  0  0  0  0  0  0  0  0  0  0  0
   10.6164  -15.0105   22.8731 O   0  0  0  0  0  0  0  0  0  0  0  0
    9.3356  -16.5068   24.0254 N   0  0  0  0  0  0  0  0  0  0  0  0
   10.0702  -16.3080   25.2968 C   0  0  1  0  0  0  0  0  0  0  0  0
    9.0254  -16.4054   26.3875 C   0  0  0  0  0  0  0  0  0  0  0  0
    7.8111  -15.6419   26.1758 C   0  0  0  0  0  0  0  0  0  0  0  0
    6.5538  -16.1278   25.8875 C   0  0  0  0  0  0  0  0  0  0  0  0
    5.7169  -15.0871   25.7537 N   0  0  0  0  0  0  0  0  0  0  0  0
    6.3678  -13.9159   25.9420 C   0  0  0  0  0  0  0  0  0  0  0  0
    5.9395  -12.5960   25.9066 C   0  0  0  0  0  0  0  0  0  0  0  0
    6.8882  -11.6167   26.1498 C   0  0  0  0  0  0  0  0  0  0  0  0
    8.1989  -11.9420   26.4148 C   0  0  0  0  0  0  0  0  0  0  0  0
    8.5881  -13.2638   26.4419 C   0  0  0  0  0  0  0  0  0  0  0  0
    7.6741  -14.2586   26.2055 C   0  0  0  0  0  0  0  0  0  0  0  0
   11.1025  -17.3530   25.4228 C   0  0  0  0  0  0  0  0  0  0  0  0
   11.6151  -17.5730   26.5457 O   0  0  0  0  0  0  0  0  0  0  0  0
   11.5228  -18.1111   24.3045 N   0  0  0  0  0  0  0  0  0  0  0  0
   12.5938  -19.1062   24.4489 C   0  0  0  0  0  0  0  0  0  0  0  0
   13.8350  -18.6388   23.7804 C   0  0  0  0  0  0  0  0  0  0  0  0
   13.8642  -18.0319   22.5407 O   0  0  0  0  0  0  0  0  0  0  0  0
   14.9303  -18.8026   24.3739 O   0  0  0  0  0  0  0  0  0  0  0  0
  2  1  1  0
  3  2  1  0
  4  3  1  0
  4  5  1  0
  5  6  1  1
  7  8  2  0
  7  5  1  0
  9  7  1  0
 10  9  1  0
 11 12  1  0
 10 11  1  1
 12 13  2  0
 12 20  1  0
 13 14  1  0
 14 15  1  0
 15 16  2  0
 16 17  1  0
 18 17  2  0
 19 18  1  0
 20 19  2  0
 20 15  1  0
 21 22  2  0
 21 10  1  0
 23 21  1  0
 24 23  1  0
 24 25  1  0
 25 26  1  0
 27 25  2  0
M  END
$$$$
