DFN.pdb
     RDKit          3D

 28 28  0  0  1  0  0  0  0  0999 V2000
   28.9076  -21.0271  -14.8949 N   0  0  0  0  0  0  0  0  0  0  0  0
   27.9481  -20.0359  -14.4465 C   0  0  1  0  0  0  0  0  0  0  0  0
   27.3073  -19.4429  -15.7019 C   0  0  0  0  0  0  0  0  0  0  0  0
   28.3243  -18.6015  -16.3748 C   0  0  0  0  0  0  0  0  0  0  0  0
   28.8183  -17.6134  -15.7664 O   0  0  0  0  0  0  0  0  0  0  0  0
   26.9072  -20.7159  -13.6277 C   0  0  0  0  0  0  0  0  0  0  0  0
   26.4228  -21.8291  -14.0116 O   0  0  0  0  0  0  0  0  0  0  0  0
   28.7851  -18.8298  -17.6638 O   0  0  0  0  0  0  0  0  0  0  0  0
   26.4000  -20.2026  -12.4185 N   0  0  0  0  0  0  0  0  0  0  0  0
   25.4288  -20.9018  -11.5794 C   0  0  1  0  0  0  0  0  0  0  0  0
   25.4725  -20.2656  -10.2497 C   0  0  0  0  0  0  0  0  0  0  0  0
   26.6620  -20.4076   -9.4401 C   0  0  0  0  0  0  0  0  0  0  0  0
   26.9011  -19.7749   -8.2397 C   0  0  0  0  0  0  0  0  0  0  0  0
   28.0542  -19.9621   -7.5185 C   0  0  0  0  0  0  0  0  0  0  0  0
   29.0339  -20.8142   -7.9903 C   0  0  0  0  0  0  0  0  0  0  0  0
   28.8256  -21.4634   -9.1890 C   0  0  0  0  0  0  0  0  0  0  0  0
   27.6602  -21.2540   -9.8862 C   0  0  0  0  0  0  0  0  0  0  0  0
   24.0648  -20.8209  -12.1381 C   0  0  0  0  0  0  0  0  0  0  0  0
   23.7418  -19.7378  -12.6824 O   0  0  0  0  0  0  0  0  0  0  0  0
   19.6708  -21.7624  -14.5380 N   0  0  0  0  0  0  0  0  0  0  0  0
   20.3316  -23.0146  -14.2995 C   0  0  0  0  0  0  0  0  0  0  0  0
   19.7944  -23.9920  -14.9111 O   0  0  0  0  0  0  0  0  0  0  0  0
   21.5129  -23.1149  -13.4255 C   0  0  0  0  0  0  0  0  0  0  0  0
   21.9380  -21.7670  -12.9483 C   0  0  2  0  0  0  0  0  0  0  0  0
   23.1274  -21.8673  -12.0953 N   0  0  0  0  0  0  0  0  0  0  0  0
   20.8699  -21.2223  -12.0390 C   0  0  0  0  0  0  0  0  0  0  0  0
   19.6914  -21.0561  -12.4006 O   0  0  0  0  0  0  0  0  0  0  0  0
   21.1710  -20.8778  -10.7315 O   0  0  0  0  0  0  0  0  0  0  0  0
  2  6  1  0
  2  1  1  6
  2  3  1  0
  4  8  1  0
  4  3  1  0
  5  4  2  0
  6  9  1  0
  7  6  2  0
  9 10  1  0
 10 11  1  1
 11 12  1  0
 12 17  2  0
 12 13  1  0
 13 14  2  0
 14 15  1  0
 16 15  2  0
 17 16  1  0
 18 19  2  0
 18 10  1  0
 21 20  1  0
 21 23  1  0
 22 21  2  0
 24 23  1  1
 24 25  1  0
 25 18  1  0
 26 24  1  0
 27 26  2  0
 28 26  1  0
M  END
$$$$
