DFN.pdb
     RDKit          3D

 28 28  0  0  1  0  0  0  0  0999 V2000
   27.3647  -22.9244  -16.5391 N   0  0  0  0  0  0  0  0  0  0  0  0
   27.1794  -21.5870  -16.0090 C   0  0  1  0  0  0  0  0  0  0  0  0
   26.2569  -20.8511  -16.9815 C   0  0  0  0  0  0  0  0  0  0  0  0
   27.1084  -20.0848  -17.9210 C   0  0  0  0  0  0  0  0  0  0  0  0
   26.5937  -19.5681  -18.9500 O   0  0  0  0  0  0  0  0  0  0  0  0
   26.5224  -21.6886  -14.6769 C   0  0  0  0  0  0  0  0  0  0  0  0
   25.4567  -22.3725  -14.5440 O   0  0  0  0  0  0  0  0  0  0  0  0
   28.4710  -19.8896  -17.7444 O   0  0  0  0  0  0  0  0  0  0  0  0
   27.0077  -21.0633  -13.5123 N   0  0  0  0  0  0  0  0  0  0  0  0
   26.3303  -21.1119  -12.2181 C   0  0  1  0  0  0  0  0  0  0  0  0
   27.2456  -20.5098  -11.2308 C   0  0  0  0  0  0  0  0  0  0  0  0
   26.7809  -20.2967   -9.8784 C   0  0  0  0  0  0  0  0  0  0  0  0
   26.1727  -19.1546   -9.4048 C   0  0  0  0  0  0  0  0  0  0  0  0
   25.7491  -19.0233   -8.1055 C   0  0  0  0  0  0  0  0  0  0  0  0
   25.9261  -20.0622   -7.2123 C   0  0  0  0  0  0  0  0  0  0  0  0
   26.5316  -21.2196   -7.6546 C   0  0  0  0  0  0  0  0  0  0  0  0
   26.9440  -21.3188   -8.9616 C   0  0  0  0  0  0  0  0  0  0  0  0
   25.0513  -20.3753  -12.2422 C   0  0  0  0  0  0  0  0  0  0  0  0
   25.0704  -19.2289  -12.7515 O   0  0  0  0  0  0  0  0  0  0  0  0
   20.6573  -19.4516  -15.1258 N   0  0  0  0  0  0  0  0  0  0  0  0
   20.8573  -20.0772  -13.8490 C   0  0  0  0  0  0  0  0  0  0  0  0
   19.8270  -20.0418  -13.1040 O   0  0  0  0  0  0  0  0  0  0  0  0
   22.1448  -20.6886  -13.4773 C   0  0  0  0  0  0  0  0  0  0  0  0
   22.5943  -20.2099  -12.1379 C   0  0  2  0  0  0  0  0  0  0  0  0
   23.8388  -20.8757  -11.7373 N   0  0  0  0  0  0  0  0  0  0  0  0
   21.5871  -20.6488  -11.1098 C   0  0  0  0  0  0  0  0  0  0  0  0
   20.7609  -19.8739  -10.5958 O   0  0  0  0  0  0  0  0  0  0  0  0
   21.5441  -21.9679  -10.6888 O   0  0  0  0  0  0  0  0  0  0  0  0
  2  6  1  0
  2  1  1  6
  2  3  1  0
  4  8  1  0
  4  3  1  0
  5  4  2  0
  6  9  1  0
  7  6  2  0
  9 10  1  0
 10 11  1  1
 11 12  1  0
 12 17  2  0
 12 13  1  0
 13 14  2  0
 14 15  1  0
 16 15  2  0
 17 16  1  0
 18 19  2  0
 18 10  1  0
 21 20  1  0
 21 23  1  0
 22 21  2  0
 24 23  1  6
 24 25  1  0
 25 18  1  0
 26 24  1  0
 27 26  2  0
 28 26  1  0
M  END
$$$$
