DFN.pdb
     RDKit          3D

 28 28  0  0  1  0  0  0  0  0999 V2000
   18.2663  -11.7770  -15.9355 N   0  0  0  0  0  0  0  0  0  0  0  0
   17.5087  -10.5832  -15.6114 C   0  0  1  0  0  0  0  0  0  0  0  0
   16.0298  -10.9597  -15.7076 C   0  0  0  0  0  0  0  0  0  0  0  0
   15.6684  -11.0116  -17.1435 C   0  0  0  0  0  0  0  0  0  0  0  0
   15.1447  -12.0564  -17.6177 O   0  0  0  0  0  0  0  0  0  0  0  0
   17.8315  -10.1776  -14.2158 C   0  0  0  0  0  0  0  0  0  0  0  0
   17.8996  -11.0571  -13.2976 O   0  0  0  0  0  0  0  0  0  0  0  0
   15.8711   -9.9625  -18.0291 O   0  0  0  0  0  0  0  0  0  0  0  0
   18.0753   -8.8481  -13.8209 N   0  0  0  0  0  0  0  0  0  0  0  0
   18.4414   -8.4554  -12.4615 C   0  0  1  0  0  0  0  0  0  0  0  0
   19.6355   -7.5966  -12.5690 C   0  0  0  0  0  0  0  0  0  0  0  0
   20.8999   -8.1921  -12.9391 C   0  0  0  0  0  0  0  0  0  0  0  0
   21.5687   -7.9925  -14.1271 C   0  0  0  0  0  0  0  0  0  0  0  0
   22.7734   -8.5871  -14.4099 C   0  0  0  0  0  0  0  0  0  0  0  0
   23.3646   -9.4254  -13.4846 C   0  0  0  0  0  0  0  0  0  0  0  0
   22.7212   -9.6462  -12.2851 C   0  0  0  0  0  0  0  0  0  0  0  0
   21.5163   -9.0355  -12.0333 C   0  0  0  0  0  0  0  0  0  0  0  0
   17.3480   -7.7257  -11.7898 C   0  0  0  0  0  0  0  0  0  0  0  0
   16.7133   -6.8963  -12.4848 O   0  0  0  0  0  0  0  0  0  0  0  0
   14.2883   -6.4922   -6.7142 N   0  0  0  0  0  0  0  0  0  0  0  0
   14.2581   -6.9085   -8.0880 C   0  0  0  0  0  0  0  0  0  0  0  0
   13.2375   -6.4871   -8.7196 O   0  0  0  0  0  0  0  0  0  0  0  0
   15.3241   -7.7416   -8.6703 C   0  0  0  0  0  0  0  0  0  0  0  0
   15.8561   -7.1276   -9.9214 C   0  0  2  0  0  0  0  0  0  0  0  0
   16.9859   -7.9042  -10.4435 N   0  0  0  0  0  0  0  0  0  0  0  0
   16.4483   -5.7866   -9.5822 C   0  0  0  0  0  0  0  0  0  0  0  0
   17.6732   -5.5891   -9.4928 O   0  0  0  0  0  0  0  0  0  0  0  0
   15.6267   -4.6954   -9.3513 O   0  0  0  0  0  0  0  0  0  0  0  0
  2  6  1  0
  2  1  1  1
  2  3  1  0
  4  8  1  0
  4  3  1  0
  5  4  2  0
  6  9  1  0
  7  6  2  0
  9 10  1  0
 10 11  1  6
 11 12  1  0
 12 17  2  0
 12 13  1  0
 13 14  2  0
 14 15  1  0
 16 15  2  0
 17 16  1  0
 18 19  2  0
 18 10  1  0
 21 20  1  0
 21 23  1  0
 22 21  2  0
 24 23  1  1
 24 25  1  0
 25 18  1  0
 26 24  1  0
 27 26  2  0
 28 26  1  0
M  END
$$$$
