DFN.pdb
     RDKit          3D

 28 28  0  0  1  0  0  0  0  0999 V2000
   18.7430   -8.8116  -15.0239 N   0  0  0  0  0  0  0  0  0  0  0  0
   17.7345   -9.4866  -14.2293 C   0  0  1  0  0  0  0  0  0  0  0  0
   18.0812  -10.9759  -14.2494 C   0  0  0  0  0  0  0  0  0  0  0  0
   17.6648  -11.5198  -15.5631 C   0  0  0  0  0  0  0  0  0  0  0  0
   18.0989  -12.6425  -15.9395 O   0  0  0  0  0  0  0  0  0  0  0  0
   17.8065   -8.9756  -12.8329 C   0  0  0  0  0  0  0  0  0  0  0  0
   17.1398   -9.5476  -11.9112 O   0  0  0  0  0  0  0  0  0  0  0  0
   16.8067  -10.8629  -16.4339 O   0  0  0  0  0  0  0  0  0  0  0  0
   18.5832   -7.8683  -12.4410 N   0  0  0  0  0  0  0  0  0  0  0  0
   18.6666   -7.3760  -11.0674 C   0  0  1  0  0  0  0  0  0  0  0  0
   20.0434   -6.8859  -10.8691 C   0  0  0  0  0  0  0  0  0  0  0  0
   20.6232   -5.9987  -11.8525 C   0  0  0  0  0  0  0  0  0  0  0  0
   20.3996   -4.6423  -11.9468 C   0  0  0  0  0  0  0  0  0  0  0  0
   20.9912   -3.8572  -12.9051 C   0  0  0  0  0  0  0  0  0  0  0  0
   21.8512   -4.4219  -13.8272 C   0  0  0  0  0  0  0  0  0  0  0  0
   22.0966   -5.7773  -13.7602 C   0  0  0  0  0  0  0  0  0  0  0  0
   21.4883   -6.5348  -12.7884 C   0  0  0  0  0  0  0  0  0  0  0  0
   17.6984   -6.2905  -10.8157 C   0  0  0  0  0  0  0  0  0  0  0  0
   17.2359   -5.7027  -11.8229 O   0  0  0  0  0  0  0  0  0  0  0  0
   14.4027   -2.8115   -9.0837 N   0  0  0  0  0  0  0  0  0  0  0  0
   14.5180   -3.8258   -8.0738 C   0  0  0  0  0  0  0  0  0  0  0  0
   13.7097   -3.6658   -7.1048 O   0  0  0  0  0  0  0  0  0  0  0  0
   15.4899   -4.9268   -8.1868 C   0  0  0  0  0  0  0  0  0  0  0  0
   16.2825   -4.8101   -9.4452 C   0  0  2  0  0  0  0  0  0  0  0  0
   17.2746   -5.8869   -9.5378 N   0  0  0  0  0  0  0  0  0  0  0  0
   17.1023   -3.5501   -9.3794 C   0  0  0  0  0  0  0  0  0  0  0  0
   16.5991   -2.4125   -9.3832 O   0  0  0  0  0  0  0  0  0  0  0  0
   18.4844   -3.6156   -9.3105 O   0  0  0  0  0  0  0  0  0  0  0  0
  2  6  1  0
  2  1  1  6
  2  3  1  0
  4  8  1  0
  4  3  1  0
  5  4  2  0
  6  9  1  0
  7  6  2  0
  9 10  1  0
 10 11  1  6
 11 12  1  0
 12 17  2  0
 12 13  1  0
 13 14  2  0
 14 15  1  0
 16 15  2  0
 17 16  1  0
 18 19  2  0
 18 10  1  0
 21 20  1  0
 21 23  1  0
 22 21  2  0
 24 23  1  1
 24 25  1  0
 25 18  1  0
 26 24  1  0
 27 26  2  0
 28 26  1  0
M  END
$$$$
