DFN.pdb
     RDKit          3D

 28 28  0  0  1  0  0  0  0  0999 V2000
   25.1374  -12.8532  -19.8087 N   0  0  0  0  0  0  0  0  0  0  0  0
   24.9575  -11.4169  -19.9042 C   0  0  1  0  0  0  0  0  0  0  0  0
   23.7870  -11.1817  -20.8596 C   0  0  0  0  0  0  0  0  0  0  0  0
   24.2349  -11.5492  -22.2233 C   0  0  0  0  0  0  0  0  0  0  0  0
   25.4605  -11.4888  -22.5149 O   0  0  0  0  0  0  0  0  0  0  0  0
   24.6156  -10.8882  -18.5552 C   0  0  0  0  0  0  0  0  0  0  0  0
   23.7371  -11.4763  -17.8456 O   0  0  0  0  0  0  0  0  0  0  0  0
   23.3774  -11.9670  -23.2313 O   0  0  0  0  0  0  0  0  0  0  0  0
   25.2111   -9.7467  -17.9851 N   0  0  0  0  0  0  0  0  0  0  0  0
   24.9504   -9.2851  -16.6231 C   0  0  1  0  0  0  0  0  0  0  0  0
   26.2267   -9.3687  -15.8890 C   0  0  0  0  0  0  0  0  0  0  0  0
   26.8593  -10.6580  -15.7215 C   0  0  0  0  0  0  0  0  0  0  0  0
   26.4468  -11.6536  -14.8628 C   0  0  0  0  0  0  0  0  0  0  0  0
   27.0934  -12.8603  -14.7599 C   0  0  0  0  0  0  0  0  0  0  0  0
   28.2068  -13.1163  -15.5366 C   0  0  0  0  0  0  0  0  0  0  0  0
   28.6458  -12.1406  -16.4068 C   0  0  0  0  0  0  0  0  0  0  0  0
   27.9757  -10.9435  -16.4856 C   0  0  0  0  0  0  0  0  0  0  0  0
   24.4413   -7.8996  -16.6032 C   0  0  0  0  0  0  0  0  0  0  0  0
   24.6917   -7.1924  -17.6087 O   0  0  0  0  0  0  0  0  0  0  0  0
   21.6827   -3.7060  -16.3587 N   0  0  0  0  0  0  0  0  0  0  0  0
   21.2810   -4.9117  -17.0270 C   0  0  0  0  0  0  0  0  0  0  0  0
   20.2540   -4.7617  -17.7623 O   0  0  0  0  0  0  0  0  0  0  0  0
   22.0135   -6.1774  -16.8515 C   0  0  0  0  0  0  0  0  0  0  0  0
   23.0330   -6.0569  -15.7692 C   0  0  2  0  0  0  0  0  0  0  0  0
   23.7074   -7.3400  -15.5432 N   0  0  0  0  0  0  0  0  0  0  0  0
   22.3236   -5.7732  -14.4729 C   0  0  0  0  0  0  0  0  0  0  0  0
   21.9457   -6.6685  -13.6964 O   0  0  0  0  0  0  0  0  0  0  0  0
   22.0597   -4.4686  -14.0889 O   0  0  0  0  0  0  0  0  0  0  0  0
  2  6  1  0
  2  1  1  1
  2  3  1  0
  4  8  1  0
  4  3  1  0
  5  4  2  0
  6  9  1  0
  7  6  2  0
  9 10  1  0
 10 11  1  1
 11 12  1  0
 12 17  2  0
 12 13  1  0
 13 14  2  0
 14 15  1  0
 16 15  2  0
 17 16  1  0
 18 19  2  0
 18 10  1  0
 21 20  1  0
 21 23  1  0
 22 21  2  0
 24 23  1  6
 24 25  1  0
 25 18  1  0
 26 24  1  0
 27 26  2  0
 28 26  1  0
M  END
$$$$
