DFN.pdb
     RDKit          3D

 28 28  0  0  1  0  0  0  0  0999 V2000
   28.2471  -21.5259  -18.3230 N   0  0  0  0  0  0  0  0  0  0  0  0
   28.5598  -22.9268  -18.1137 C   0  0  1  0  0  0  0  0  0  0  0  0
   28.5642  -23.5884  -19.4924 C   0  0  0  0  0  0  0  0  0  0  0  0
   27.1697  -23.6016  -19.9925 C   0  0  0  0  0  0  0  0  0  0  0  0
   26.3141  -24.3422  -19.4356 O   0  0  0  0  0  0  0  0  0  0  0  0
   29.9154  -23.0276  -17.5066 C   0  0  0  0  0  0  0  0  0  0  0  0
   30.8927  -22.3974  -18.0251 O   0  0  0  0  0  0  0  0  0  0  0  0
   26.7252  -22.8353  -21.0607 O   0  0  0  0  0  0  0  0  0  0  0  0
   30.2084  -23.7943  -16.3625 N   0  0  0  0  0  0  0  0  0  0  0  0
   31.5158  -23.8181  -15.7098 C   0  0  1  0  0  0  0  0  0  0  0  0
   31.2987  -23.4488  -14.2986 C   0  0  0  0  0  0  0  0  0  0  0  0
   32.4264  -23.4321  -13.3938 C   0  0  0  0  0  0  0  0  0  0  0  0
   33.5945  -24.1466  -13.5473 C   0  0  0  0  0  0  0  0  0  0  0  0
   34.6306  -24.0773  -12.6492 C   0  0  0  0  0  0  0  0  0  0  0  0
   34.5271  -23.2664  -11.5356 C   0  0  0  0  0  0  0  0  0  0  0  0
   33.3707  -22.5377  -11.3524 C   0  0  0  0  0  0  0  0  0  0  0  0
   32.3523  -22.6296  -12.2703 C   0  0  0  0  0  0  0  0  0  0  0  0
   32.1462  -25.1502  -15.7963 C   0  0  0  0  0  0  0  0  0  0  0  0
   31.4281  -26.1343  -15.4969 O   0  0  0  0  0  0  0  0  0  0  0  0
   33.3476  -29.9772  -16.7252 N   0  0  0  0  0  0  0  0  0  0  0  0
   33.6781  -28.8473  -17.5473 C   0  0  0  0  0  0  0  0  0  0  0  0
   34.4890  -29.1278  -18.4863 O   0  0  0  0  0  0  0  0  0  0  0  0
   33.1120  -27.5113  -17.2945 C   0  0  0  0  0  0  0  0  0  0  0  0
   33.9412  -26.7597  -16.3082 C   0  0  2  0  0  0  0  0  0  0  0  0
   33.4777  -25.3730  -16.1871 N   0  0  0  0  0  0  0  0  0  0  0  0
   35.3398  -26.6412  -16.8504 C   0  0  0  0  0  0  0  0  0  0  0  0
   35.8162  -25.5715  -17.2698 O   0  0  0  0  0  0  0  0  0  0  0  0
   36.1680  -27.7505  -16.9024 O   0  0  0  0  0  0  0  0  0  0  0  0
  2  6  1  0
  2  1  1  6
  2  3  1  0
  4  8  1  0
  4  3  1  0
  5  4  2  0
  6  9  1  0
  7  6  2  0
  9 10  1  0
 10 11  1  1
 11 12  1  0
 12 17  2  0
 12 13  1  0
 13 14  2  0
 14 15  1  0
 16 15  2  0
 17 16  1  0
 18 19  2  0
 18 10  1  0
 21 20  1  0
 21 23  1  0
 22 21  2  0
 24 23  1  6
 24 25  1  0
 25 18  1  0
 26 24  1  0
 27 26  2  0
 28 26  1  0
M  END
$$$$
