DFN.pdb
     RDKit          3D

 28 28  0  0  1  0  0  0  0  0999 V2000
   18.2844   -9.7441  -16.5552 N   0  0  0  0  0  0  0  0  0  0  0  0
   18.3273   -8.3228  -16.2688 C   0  0  1  0  0  0  0  0  0  0  0  0
   16.9934   -7.7385  -16.7355 C   0  0  0  0  0  0  0  0  0  0  0  0
   17.1152   -7.4295  -18.1794 C   0  0  0  0  0  0  0  0  0  0  0  0
   18.2126   -7.6258  -18.7691 O   0  0  0  0  0  0  0  0  0  0  0  0
   18.4674   -8.1365  -14.7984 C   0  0  0  0  0  0  0  0  0  0  0  0
   17.9097   -8.9545  -13.9978 O   0  0  0  0  0  0  0  0  0  0  0  0
   16.0779   -6.9250  -18.9512 O   0  0  0  0  0  0  0  0  0  0  0  0
   19.1953   -7.0869  -14.2057 N   0  0  0  0  0  0  0  0  0  0  0  0
   19.4696   -6.9922  -12.7732 C   0  0  1  0  0  0  0  0  0  0  0  0
   20.9222   -6.7844  -12.6264 C   0  0  0  0  0  0  0  0  0  0  0  0
   21.8247   -7.8649  -12.9554 C   0  0  0  0  0  0  0  0  0  0  0  0
   22.5423   -7.9889  -14.1252 C   0  0  0  0  0  0  0  0  0  0  0  0
   23.3891   -9.0417  -14.3687 C   0  0  0  0  0  0  0  0  0  0  0  0
   23.5492  -10.0336  -13.4206 C   0  0  0  0  0  0  0  0  0  0  0  0
   22.8454   -9.9394  -12.2384 C   0  0  0  0  0  0  0  0  0  0  0  0
   22.0059   -8.8724  -12.0260 C   0  0  0  0  0  0  0  0  0  0  0  0
   18.7300   -5.8785  -12.1472 C   0  0  0  0  0  0  0  0  0  0  0  0
   18.8348   -4.7542  -12.6940 O   0  0  0  0  0  0  0  0  0  0  0  0
   15.5732   -2.7311   -9.7155 N   0  0  0  0  0  0  0  0  0  0  0  0
   15.0078   -3.7046  -10.6068 C   0  0  0  0  0  0  0  0  0  0  0  0
   13.8096   -3.4426  -10.9440 O   0  0  0  0  0  0  0  0  0  0  0  0
   15.7736   -4.8774  -11.0622 C   0  0  0  0  0  0  0  0  0  0  0  0
   17.1734   -4.8313  -10.5488 C   0  0  2  0  0  0  0  0  0  0  0  0
   17.9319   -6.0043  -10.9972 N   0  0  0  0  0  0  0  0  0  0  0  0
   17.1379   -4.9588   -9.0499 C   0  0  0  0  0  0  0  0  0  0  0  0
   17.6175   -5.9313   -8.4404 O   0  0  0  0  0  0  0  0  0  0  0  0
   16.5535   -3.9698   -8.2757 O   0  0  0  0  0  0  0  0  0  0  0  0
  2  6  1  0
  2  1  1  1
  2  3  1  0
  4  8  1  0
  4  3  1  0
  5  4  2  0
  6  9  1  0
  7  6  2  0
  9 10  1  0
 10 11  1  6
 11 12  1  0
 12 17  2  0
 12 13  1  0
 13 14  2  0
 14 15  1  0
 16 15  2  0
 17 16  1  0
 18 19  2  0
 18 10  1  0
 21 20  1  0
 21 23  1  0
 22 21  2  0
 24 23  1  6
 24 25  1  0
 25 18  1  0
 26 24  1  0
 27 26  2  0
 28 26  1  0
M  END
$$$$
