DFN.pdb
     RDKit          3D

 28 28  0  0  1  0  0  0  0  0999 V2000
   21.6692  -12.6062  -20.0995 N   0  0  0  0  0  0  0  0  0  0  0  0
   21.6945  -11.1565  -20.0574 C   0  0  1  0  0  0  0  0  0  0  0  0
   20.7158  -10.6671  -21.1256 C   0  0  0  0  0  0  0  0  0  0  0  0
   21.3924  -10.7682  -22.4398 C   0  0  0  0  0  0  0  0  0  0  0  0
   20.7389  -11.1442  -23.4508 O   0  0  0  0  0  0  0  0  0  0  0  0
   21.2327  -10.7100  -18.7144 C   0  0  0  0  0  0  0  0  0  0  0  0
   20.1833  -11.2170  -18.2018 O   0  0  0  0  0  0  0  0  0  0  0  0
   22.7325  -10.4701  -22.6432 O   0  0  0  0  0  0  0  0  0  0  0  0
   21.8920   -9.7350  -17.9414 N   0  0  0  0  0  0  0  0  0  0  0  0
   21.4070   -9.2537  -16.6495 C   0  0  1  0  0  0  0  0  0  0  0  0
   22.5931   -9.0193  -15.8050 C   0  0  0  0  0  0  0  0  0  0  0  0
   22.4157   -8.4747  -14.4775 C   0  0  0  0  0  0  0  0  0  0  0  0
   22.1725   -9.2022  -13.3328 C   0  0  0  0  0  0  0  0  0  0  0  0
   22.0207   -8.6177  -12.0999 C   0  0  0  0  0  0  0  0  0  0  0  0
   22.1102   -7.2453  -11.9698 C   0  0  0  0  0  0  0  0  0  0  0  0
   22.3530   -6.4878  -13.0963 C   0  0  0  0  0  0  0  0  0  0  0  0
   22.5001   -7.1041  -14.3156 C   0  0  0  0  0  0  0  0  0  0  0  0
   20.6263   -8.0085  -16.7877 C   0  0  0  0  0  0  0  0  0  0  0  0
   21.1051   -7.1230  -17.5364 O   0  0  0  0  0  0  0  0  0  0  0  0
   17.3045   -4.1489  -16.8018 N   0  0  0  0  0  0  0  0  0  0  0  0
   16.6564   -5.4015  -17.0714 C   0  0  0  0  0  0  0  0  0  0  0  0
   15.4600   -5.2710  -17.4833 O   0  0  0  0  0  0  0  0  0  0  0  0
   17.3446   -6.6892  -16.8772 C   0  0  0  0  0  0  0  0  0  0  0  0
   18.7360   -6.4798  -16.3820 C   0  0  2  0  0  0  0  0  0  0  0  0
   19.4024   -7.7645  -16.1413 N   0  0  0  0  0  0  0  0  0  0  0  0
   18.6690   -5.8326  -15.0253 C   0  0  0  0  0  0  0  0  0  0  0  0
   18.3590   -4.6397  -14.8574 O   0  0  0  0  0  0  0  0  0  0  0  0
   18.9582   -6.5636  -13.8847 O   0  0  0  0  0  0  0  0  0  0  0  0
  2  6  1  0
  2  1  1  1
  2  3  1  0
  4  8  1  0
  4  3  1  0
  5  4  2  0
  6  9  1  0
  7  6  2  0
  9 10  1  0
 10 11  1  1
 11 12  1  0
 12 17  2  0
 12 13  1  0
 13 14  2  0
 14 15  1  0
 16 15  2  0
 17 16  1  0
 18 19  2  0
 18 10  1  0
 21 20  1  0
 21 23  1  0
 22 21  2  0
 24 23  1  1
 24 25  1  0
 25 18  1  0
 26 24  1  0
 27 26  2  0
 28 26  1  0
M  END
$$$$
