SDG.pdb
     RDKit          3D

 19 18  0  0  1  0  0  0  0  0999 V2000
   11.7140   -9.7266  -12.1919 O   0  0  0  0  0  0  0  0  0  0  0  0
   13.1013   -9.9199  -12.3052 C   0  0  0  0  0  0  0  0  0  0  0  0
   13.3364  -11.1260  -13.2128 C   0  0  2  0  0  0  0  0  0  0  0  0
   12.7048  -12.3061  -12.6851 N   0  0  0  0  0  0  0  0  0  0  0  0
   14.8143  -11.3929  -13.2444 C   0  0  0  0  0  0  0  0  0  0  0  0
   15.4143  -11.9489  -12.2989 O   0  0  0  0  0  0  0  0  0  0  0  0
   15.5198  -10.9972  -14.3785 N   0  0  0  0  0  0  0  0  0  0  0  0
   16.9957  -11.2564  -14.5423 C   0  0  1  0  0  0  0  0  0  0  0  0
   17.0068  -12.2207  -15.6965 C   0  0  0  0  0  0  0  0  0  0  0  0
   18.2488  -12.9056  -16.0053 C   0  0  0  0  0  0  0  0  0  0  0  0
   18.7683  -13.1351  -17.1153 O   0  0  0  0  0  0  0  0  0  0  0  0
   17.5188   -9.9011  -14.8869 C   0  0  0  0  0  0  0  0  0  0  0  0
   16.8405   -9.1054  -15.6453 O   0  0  0  0  0  0  0  0  0  0  0  0
   19.0251  -13.4084  -14.9193 O   0  0  0  0  0  0  0  0  0  0  0  0
   18.7439   -9.3721  -14.4399 N   0  0  0  0  0  0  0  0  0  0  0  0
   19.1813   -8.0431  -14.8358 C   0  0  0  0  0  0  0  0  0  0  0  0
   20.4838   -7.7375  -14.2039 C   0  0  0  0  0  0  0  0  0  0  0  0
   21.2059   -6.5943  -14.4821 O   0  0  0  0  0  0  0  0  0  0  0  0
   20.9782   -8.5454  -13.3674 O   0  0  0  0  0  0  0  0  0  0  0  0
  1  2  1  0
  2  3  1  0
  3  4  1  1
  5  3  1  0
  5  6  2  0
  7  5  1  0
  8  7  1  0
  8  9  1  6
 10  9  1  0
 10 14  1  0
 11 10  2  0
 12  8  1  0
 13 12  2  0
 15 12  1  0
 16 15  1  0
 17 16  1  0
 17 18  1  0
 19 17  2  0
M  END
$$$$
