SDG.pdb
     RDKit          3D

 19 18  0  0  1  0  0  0  0  0999 V2000
   19.9485  -10.2308  -13.9868 O   0  0  0  0  0  0  0  0  0  0  0  0
   18.8510  -10.0076  -14.8355 C   0  0  0  0  0  0  0  0  0  0  0  0
   19.3627   -9.9977  -16.2749 C   0  0  2  0  0  0  0  0  0  0  0  0
   20.5282  -10.8289  -16.4191 N   0  0  0  0  0  0  0  0  0  0  0  0
   19.7796   -8.5921  -16.6020 C   0  0  0  0  0  0  0  0  0  0  0  0
   20.9347   -8.3091  -16.9875 O   0  0  0  0  0  0  0  0  0  0  0  0
   18.8271   -7.5851  -16.4627 N   0  0  0  0  0  0  0  0  0  0  0  0
   19.1093   -6.1507  -16.8302 C   0  0  1  0  0  0  0  0  0  0  0  0
   17.7368   -5.6571  -17.1970 C   0  0  0  0  0  0  0  0  0  0  0  0
   17.1563   -6.1123  -18.4471 C   0  0  0  0  0  0  0  0  0  0  0  0
   17.6395   -6.0880  -19.5963 O   0  0  0  0  0  0  0  0  0  0  0  0
   19.6256   -5.5907  -15.5460 C   0  0  0  0  0  0  0  0  0  0  0  0
   19.1002   -5.9354  -14.4175 O   0  0  0  0  0  0  0  0  0  0  0  0
   15.8466   -6.6765  -18.4121 O   0  0  0  0  0  0  0  0  0  0  0  0
   20.6898   -4.6766  -15.4351 N   0  0  0  0  0  0  0  0  0  0  0  0
   21.2481   -4.3218  -14.1402 C   0  0  0  0  0  0  0  0  0  0  0  0
   22.0477   -5.4504  -13.6150 C   0  0  0  0  0  0  0  0  0  0  0  0
   21.5420   -6.3866  -12.7356 O   0  0  0  0  0  0  0  0  0  0  0  0
   23.2519   -5.5843  -13.9740 O   0  0  0  0  0  0  0  0  0  0  0  0
  1  2  1  0
  2  3  1  0
  3  4  1  1
  5  3  1  0
  5  6  2  0
  7  5  1  0
  8  7  1  0
  8  9  1  1
 10  9  1  0
 10 14  1  0
 11 10  2  0
 12  8  1  0
 13 12  2  0
 15 12  1  0
 16 15  1  0
 17 16  1  0
 17 18  1  0
 19 17  2  0
M  END
$$$$
