SDG.pdb
     RDKit          3D

 19 18  0  0  1  0  0  0  0  0999 V2000
   13.7596   -9.4993  -15.9624 O   0  0  0  0  0  0  0  0  0  0  0  0
   15.0545   -8.9561  -16.0133 C   0  0  0  0  0  0  0  0  0  0  0  0
   16.0440  -10.0622  -15.6509 C   0  0  2  0  0  0  0  0  0  0  0  0
   15.4069  -11.1013  -14.8867 N   0  0  0  0  0  0  0  0  0  0  0  0
   17.1047   -9.4576  -14.7758 C   0  0  0  0  0  0  0  0  0  0  0  0
   17.1326   -9.6348  -13.5385 O   0  0  0  0  0  0  0  0  0  0  0  0
   18.0812   -8.6752  -15.3881 N   0  0  0  0  0  0  0  0  0  0  0  0
   19.3156   -8.2084  -14.6596 C   0  0  1  0  0  0  0  0  0  0  0  0
   20.4065   -8.8520  -15.4706 C   0  0  0  0  0  0  0  0  0  0  0  0
   21.7839   -8.5353  -15.1398 C   0  0  0  0  0  0  0  0  0  0  0  0
   22.2828   -8.2428  -14.0352 O   0  0  0  0  0  0  0  0  0  0  0  0
   19.2391   -6.7265  -14.8247 C   0  0  0  0  0  0  0  0  0  0  0  0
   19.9816   -5.9443  -14.1139 O   0  0  0  0  0  0  0  0  0  0  0  0
   22.7458   -8.5458  -16.1933 O   0  0  0  0  0  0  0  0  0  0  0  0
   18.3946   -6.0588  -15.7311 N   0  0  0  0  0  0  0  0  0  0  0  0
   18.3214   -4.6070  -15.7651 C   0  0  0  0  0  0  0  0  0  0  0  0
   19.1564   -4.0907  -16.8720 C   0  0  0  0  0  0  0  0  0  0  0  0
   19.1697   -2.7629  -17.2492 O   0  0  0  0  0  0  0  0  0  0  0  0
   19.9003   -4.8832  -17.5167 O   0  0  0  0  0  0  0  0  0  0  0  0
  1  2  1  0
  2  3  1  0
  3  4  1  1
  5  3  1  0
  5  6  2  0
  7  5  1  0
  8  7  1  0
  8  9  1  6
 10  9  1  0
 10 14  1  0
 11 10  2  0
 12  8  1  0
 13 12  2  0
 15 12  1  0
 16 15  1  0
 17 16  1  0
 17 18  1  0
 19 17  2  0
M  END
$$$$
