SDG.pdb
     RDKit          3D

 19 18  0  0  1  0  0  0  0  0999 V2000
   28.1946  -10.7636  -15.6531 O   0  0  0  0  0  0  0  0  0  0  0  0
   27.1543  -10.0244  -16.2413 C   0  0  0  0  0  0  0  0  0  0  0  0
   26.0221  -10.9922  -16.5806 C   0  0  2  0  0  0  0  0  0  0  0  0
   26.4197  -11.9205  -17.6053 N   0  0  0  0  0  0  0  0  0  0  0  0
   24.8819  -10.1857  -17.1338 C   0  0  0  0  0  0  0  0  0  0  0  0
   24.7264  -10.0003  -18.3603 O   0  0  0  0  0  0  0  0  0  0  0  0
   23.9789   -9.6344  -16.2275 N   0  0  0  0  0  0  0  0  0  0  0  0
   22.8422   -8.7442  -16.6609 C   0  0  1  0  0  0  0  0  0  0  0  0
   21.6527   -9.6304  -16.4120 C   0  0  0  0  0  0  0  0  0  0  0  0
   20.3280   -9.0707  -16.6092 C   0  0  0  0  0  0  0  0  0  0  0  0
   19.2807   -9.2765  -15.9648 O   0  0  0  0  0  0  0  0  0  0  0  0
   22.9515   -7.6030  -15.7044 C   0  0  0  0  0  0  0  0  0  0  0  0
   23.1124   -7.8147  -14.4404 O   0  0  0  0  0  0  0  0  0  0  0  0
   20.1431   -8.1473  -17.6807 O   0  0  0  0  0  0  0  0  0  0  0  0
   22.8980   -6.2431  -16.0623 N   0  0  0  0  0  0  0  0  0  0  0  0
   22.9941   -5.1944  -15.0597 C   0  0  0  0  0  0  0  0  0  0  0  0
   21.6690   -4.9734  -14.4399 C   0  0  0  0  0  0  0  0  0  0  0  0
   20.5439   -5.6919  -14.7914 O   0  0  0  0  0  0  0  0  0  0  0  0
   21.5363   -4.0913  -13.5447 O   0  0  0  0  0  0  0  0  0  0  0  0
  1  2  1  0
  2  3  1  0
  3  4  1  6
  5  3  1  0
  5  6  2  0
  7  5  1  0
  8  7  1  0
  8  9  1  1
 10  9  1  0
 10 14  1  0
 11 10  2  0
 12  8  1  0
 13 12  2  0
 15 12  1  0
 16 15  1  0
 17 16  1  0
 17 18  1  0
 19 17  2  0
M  END
$$$$
