SDG.pdb
     RDKit          3D

 19 18  0  0  1  0  0  0  0  0999 V2000
   14.7124   -8.8025  -14.0553 O   0  0  0  0  0  0  0  0  0  0  0  0
   15.1851   -9.2442  -15.3026 C   0  0  0  0  0  0  0  0  0  0  0  0
   16.2530  -10.3076  -15.0522 C   0  0  2  0  0  0  0  0  0  0  0  0
   15.7793  -11.3177  -14.1437 N   0  0  0  0  0  0  0  0  0  0  0  0
   17.4226   -9.6341  -14.3928 C   0  0  0  0  0  0  0  0  0  0  0  0
   17.5990   -9.6594  -13.1553 O   0  0  0  0  0  0  0  0  0  0  0  0
   18.3293   -8.9635  -15.2106 N   0  0  0  0  0  0  0  0  0  0  0  0
   19.6002   -8.3538  -14.6765 C   0  0  1  0  0  0  0  0  0  0  0  0
   20.6457   -9.2247  -15.3172 C   0  0  0  0  0  0  0  0  0  0  0  0
   22.0385   -8.8430  -15.1721 C   0  0  0  0  0  0  0  0  0  0  0  0
   22.5450   -7.9690  -14.4410 O   0  0  0  0  0  0  0  0  0  0  0  0
   19.5466   -6.9702  -15.2350 C   0  0  0  0  0  0  0  0  0  0  0  0
   19.1608   -6.7639  -16.4503 O   0  0  0  0  0  0  0  0  0  0  0  0
   23.0087   -9.5356  -15.9557 O   0  0  0  0  0  0  0  0  0  0  0  0
   19.8895   -5.8019  -14.5293 N   0  0  0  0  0  0  0  0  0  0  0  0
   19.8174   -4.4924  -15.1571 C   0  0  0  0  0  0  0  0  0  0  0  0
   18.5645   -3.8150  -14.7565 C   0  0  0  0  0  0  0  0  0  0  0  0
   18.2992   -2.4911  -15.0437 O   0  0  0  0  0  0  0  0  0  0  0  0
   17.6813   -4.4579  -14.1212 O   0  0  0  0  0  0  0  0  0  0  0  0
  1  2  1  0
  2  3  1  0
  3  4  1  1
  5  3  1  0
  5  6  2  0
  7  5  1  0
  8  7  1  0
  8  9  1  6
 10  9  1  0
 10 14  1  0
 11 10  2  0
 12  8  1  0
 13 12  2  0
 15 12  1  0
 16 15  1  0
 17 16  1  0
 17 18  1  0
 19 17  2  0
M  END
$$$$
