SDG.pdb
     RDKit          3D

 19 18  0  0  1  0  0  0  0  0999 V2000
   18.0994  -11.7360  -18.1923 O   0  0  0  0  0  0  0  0  0  0  0  0
   18.0891  -10.7224  -17.2192 C   0  0  0  0  0  0  0  0  0  0  0  0
   19.5187  -10.5414  -16.7121 C   0  0  2  0  0  0  0  0  0  0  0  0
   19.9909  -11.7285  -16.0503 N   0  0  0  0  0  0  0  0  0  0  0  0
   19.5049   -9.4415  -15.6891 C   0  0  0  0  0  0  0  0  0  0  0  0
   18.8914   -9.5439  -14.6046 O   0  0  0  0  0  0  0  0  0  0  0  0
   20.2081   -8.2753  -15.9826 N   0  0  0  0  0  0  0  0  0  0  0  0
   20.2718   -7.1096  -15.0289 C   0  0  1  0  0  0  0  0  0  0  0  0
   21.7015   -7.1754  -14.5666 C   0  0  0  0  0  0  0  0  0  0  0  0
   22.1805   -6.1383  -13.6711 C   0  0  0  0  0  0  0  0  0  0  0  0
   22.0756   -6.0561  -12.4314 O   0  0  0  0  0  0  0  0  0  0  0  0
   19.9832   -5.9512  -15.9254 C   0  0  0  0  0  0  0  0  0  0  0  0
   20.4254   -5.9298  -17.1388 O   0  0  0  0  0  0  0  0  0  0  0  0
   22.8780   -5.0313  -14.2395 O   0  0  0  0  0  0  0  0  0  0  0  0
   19.2318   -4.8180  -15.5619 N   0  0  0  0  0  0  0  0  0  0  0  0
   19.0960   -3.6827  -16.4601 C   0  0  0  0  0  0  0  0  0  0  0  0
   18.1611   -2.6947  -15.8781 C   0  0  0  0  0  0  0  0  0  0  0  0
   17.4676   -2.9145  -14.7048 O   0  0  0  0  0  0  0  0  0  0  0  0
   17.9723   -1.5912  -16.4641 O   0  0  0  0  0  0  0  0  0  0  0  0
  1  2  1  0
  2  3  1  0
  3  4  1  1
  5  3  1  0
  5  6  2  0
  7  5  1  0
  8  7  1  0
  8  9  1  6
 10  9  1  0
 10 14  1  0
 11 10  2  0
 12  8  1  0
 13 12  2  0
 15 12  1  0
 16 15  1  0
 17 16  1  0
 17 18  1  0
 19 17  2  0
M  END
$$$$
