SDG.pdb
     RDKit          3D

 19 18  0  0  1  0  0  0  0  0999 V2000
   17.5322   -8.5593  -15.5228 O   0  0  0  0  0  0  0  0  0  0  0  0
   18.6522   -7.7376  -15.3108 C   0  0  0  0  0  0  0  0  0  0  0  0
   19.7341   -8.5804  -14.6376 C   0  0  2  0  0  0  0  0  0  0  0  0
   19.2982   -9.0577  -13.3523 N   0  0  0  0  0  0  0  0  0  0  0  0
   20.9223   -7.6928  -14.3992 C   0  0  0  0  0  0  0  0  0  0  0  0
   21.1909   -7.2223  -13.2725 O   0  0  0  0  0  0  0  0  0  0  0  0
   21.7391   -7.3975  -15.4885 N   0  0  0  0  0  0  0  0  0  0  0  0
   22.9578   -6.5185  -15.3686 C   0  0  1  0  0  0  0  0  0  0  0  0
   23.9082   -7.1882  -16.3227 C   0  0  0  0  0  0  0  0  0  0  0  0
   25.1238   -6.4833  -16.6868 C   0  0  0  0  0  0  0  0  0  0  0  0
   25.8412   -5.7370  -15.9919 O   0  0  0  0  0  0  0  0  0  0  0  0
   22.4475   -5.2021  -15.8542 C   0  0  0  0  0  0  0  0  0  0  0  0
   21.7340   -5.1266  -16.9283 O   0  0  0  0  0  0  0  0  0  0  0  0
   25.6110   -6.6310  -18.0194 O   0  0  0  0  0  0  0  0  0  0  0  0
   22.6752   -3.9660  -15.2212 N   0  0  0  0  0  0  0  0  0  0  0  0
   22.2845   -2.7137  -15.8484 C   0  0  0  0  0  0  0  0  0  0  0  0
   20.8804   -2.3994  -15.5038 C   0  0  0  0  0  0  0  0  0  0  0  0
   20.0675   -3.2622  -14.7962 O   0  0  0  0  0  0  0  0  0  0  0  0
   20.3799   -1.2961  -15.8629 O   0  0  0  0  0  0  0  0  0  0  0  0
  1  2  1  0
  2  3  1  0
  3  4  1  1
  5  3  1  0
  5  6  2  0
  7  5  1  0
  8  7  1  0
  8  9  1  6
 10  9  1  0
 10 14  1  0
 11 10  2  0
 12  8  1  0
 13 12  2  0
 15 12  1  0
 16 15  1  0
 17 16  1  0
 17 18  1  0
 19 17  2  0
M  END
$$$$
