SDG.pdb
     RDKit          3D

 19 18  0  0  1  0  0  0  0  0999 V2000
   27.3966  -18.8894  -16.0050 O   0  0  0  0  0  0  0  0  0  0  0  0
   27.1768  -19.5240  -14.7707 C   0  0  0  0  0  0  0  0  0  0  0  0
   26.9689  -21.0138  -15.0373 C   0  0  2  0  0  0  0  0  0  0  0  0
   27.8882  -21.4982  -16.0324 N   0  0  0  0  0  0  0  0  0  0  0  0
   25.5842  -21.1897  -15.5924 C   0  0  0  0  0  0  0  0  0  0  0  0
   25.3615  -21.2796  -16.8194 O   0  0  0  0  0  0  0  0  0  0  0  0
   24.5268  -21.2519  -14.6876 N   0  0  0  0  0  0  0  0  0  0  0  0
   23.0898  -21.3536  -15.1313 C   0  0  1  0  0  0  0  0  0  0  0  0
   22.7733  -22.7871  -14.8042 C   0  0  0  0  0  0  0  0  0  0  0  0
   21.4426  -23.2814  -15.1072 C   0  0  0  0  0  0  0  0  0  0  0  0
   20.4838  -23.4886  -14.3376 O   0  0  0  0  0  0  0  0  0  0  0  0
   22.4118  -20.3696  -14.2362 C   0  0  0  0  0  0  0  0  0  0  0  0
   22.6627  -20.3481  -12.9694 O   0  0  0  0  0  0  0  0  0  0  0  0
   21.1352  -23.5900  -16.4656 O   0  0  0  0  0  0  0  0  0  0  0  0
   21.4771  -19.4060  -14.6586 N   0  0  0  0  0  0  0  0  0  0  0  0
   20.8526  -18.4950  -13.7130 C   0  0  0  0  0  0  0  0  0  0  0  0
   19.5646  -19.0591  -13.2525 C   0  0  0  0  0  0  0  0  0  0  0  0
   18.7112  -18.3890  -12.3991 O   0  0  0  0  0  0  0  0  0  0  0  0
   19.2077  -20.2059  -13.6455 O   0  0  0  0  0  0  0  0  0  0  0  0
  1  2  1  0
  2  3  1  0
  3  4  1  6
  5  3  1  0
  5  6  2  0
  7  5  1  0
  8  7  1  0
  8  9  1  1
 10  9  1  0
 10 14  1  0
 11 10  2  0
 12  8  1  0
 13 12  2  0
 15 12  1  0
 16 15  1  0
 17 16  1  0
 17 18  1  0
 19 17  2  0
M  END
$$$$
