SDG.pdb
     RDKit          3D

 19 18  0  0  1  0  0  0  0  0999 V2000
   18.9940  -13.6331  -16.7762 O   0  0  0  0  0  0  0  0  0  0  0  0
   20.0836  -12.7778  -17.0122 C   0  0  0  0  0  0  0  0  0  0  0  0
   20.0808  -11.7010  -15.9286 C   0  0  2  0  0  0  0  0  0  0  0  0
   18.8128  -11.0236  -15.8707 N   0  0  0  0  0  0  0  0  0  0  0  0
   21.1128  -10.6750  -16.3012 C   0  0  0  0  0  0  0  0  0  0  0  0
   22.3094  -10.9734  -16.5065 O   0  0  0  0  0  0  0  0  0  0  0  0
   20.6971   -9.3504  -16.4159 N   0  0  0  0  0  0  0  0  0  0  0  0
   21.6452   -8.2353  -16.7767 C   0  0  1  0  0  0  0  0  0  0  0  0
   20.9901   -7.6676  -18.0058 C   0  0  0  0  0  0  0  0  0  0  0  0
   21.0128   -8.4593  -19.2222 C   0  0  0  0  0  0  0  0  0  0  0  0
   21.9905   -8.8709  -19.8775 O   0  0  0  0  0  0  0  0  0  0  0  0
   21.5550   -7.3443  -15.5821 C   0  0  0  0  0  0  0  0  0  0  0  0
   20.4538   -7.2455  -14.9144 O   0  0  0  0  0  0  0  0  0  0  0  0
   19.7644   -8.8493  -19.7917 O   0  0  0  0  0  0  0  0  0  0  0  0
   22.6101   -6.5600  -15.0798 N   0  0  0  0  0  0  0  0  0  0  0  0
   22.4398   -5.7363  -13.8938 C   0  0  0  0  0  0  0  0  0  0  0  0
   21.4350   -4.6828  -14.1577 C   0  0  0  0  0  0  0  0  0  0  0  0
   20.2466   -4.5844  -13.4623 O   0  0  0  0  0  0  0  0  0  0  0  0
   21.6527   -3.8217  -15.0567 O   0  0  0  0  0  0  0  0  0  0  0  0
  1  2  1  0
  2  3  1  0
  3  4  1  6
  5  3  1  0
  5  6  2  0
  7  5  1  0
  8  7  1  0
  8  9  1  6
 10  9  1  0
 10 14  1  0
 11 10  2  0
 12  8  1  0
 13 12  2  0
 15 12  1  0
 16 15  1  0
 17 16  1  0
 17 18  1  0
 19 17  2  0
M  END
$$$$
