KFV.pdb
     RDKit          3D

 28 28  0  0  1  0  0  0  0  0999 V2000
   28.1282  -21.2153  -14.3393 N   0  0  0  0  0  0  0  0  0  0  0  0
   28.0472  -20.1495  -13.3883 C   0  0  1  0  0  0  0  0  0  0  0  0
   27.0313  -19.1357  -13.8627 C   0  0  0  0  0  0  0  0  0  0  0  0
   27.6909  -18.3404  -14.9900 C   0  0  0  0  0  0  0  0  0  0  0  0
   27.6824  -19.1312  -16.2803 C   0  0  0  0  0  0  0  0  0  0  0  0
   27.6156  -18.1455  -17.4213 C   0  0  0  0  0  0  0  0  0  0  0  0
   28.9386  -17.7253  -17.8035 N   0  0  0  0  0  0  0  0  0  0  0  0
   27.6488  -20.6662  -12.0392 C   0  0  0  0  0  0  0  0  0  0  0  0
   26.9216  -21.6650  -11.8903 O   0  0  0  0  0  0  0  0  0  0  0  0
   28.1077  -20.0055  -10.8701 N   0  0  0  0  0  0  0  0  0  0  0  0
   27.6256  -20.3678   -9.5461 C   0  0  1  0  0  0  0  0  0  0  0  0
   28.6548  -19.8606   -8.5663 C   0  0  0  0  0  0  0  0  0  0  0  0
   28.2274  -19.9466   -7.1589 C   0  0  0  0  0  0  0  0  0  0  0  0
   28.3030  -21.1212   -6.4401 C   0  0  0  0  0  0  0  0  0  0  0  0
   27.8945  -21.1837   -5.1050 C   0  0  0  0  0  0  0  0  0  0  0  0
   27.4021  -20.0614   -4.4709 C   0  0  0  0  0  0  0  0  0  0  0  0
   27.3212  -18.8725   -5.1850 C   0  0  0  0  0  0  0  0  0  0  0  0
   27.7311  -18.8444   -6.4964 C   0  0  0  0  0  0  0  0  0  0  0  0
   26.2681  -19.8762   -9.2913 C   0  0  0  0  0  0  0  0  0  0  0  0
   25.9929  -18.6610   -9.1432 O   0  0  0  0  0  0  0  0  0  0  0  0
   22.8963  -22.2337  -10.3381 C   0  0  0  0  0  0  0  0  0  0  0  0
   23.0587  -20.7325  -10.2402 C   0  0  2  0  0  0  0  0  0  0  0  0
   23.7321  -20.1542  -11.4526 C   0  0  0  0  0  0  0  0  0  0  0  0
   23.8151  -20.3575   -8.9582 C   0  0  2  0  0  0  0  0  0  0  0  0
   25.1884  -20.7942   -9.2021 N   0  0  0  0  0  0  0  0  0  0  0  0
   23.1977  -21.1455   -7.8632 C   0  0  0  0  0  0  0  0  0  0  0  0
   21.9104  -20.8207   -7.4703 O   0  0  0  0  0  0  0  0  0  0  0  0
   23.7984  -22.0722   -7.3020 O   0  0  0  0  0  0  0  0  0  0  0  0
  2  1  1  6
  2  3  1  0
  4  3  1  0
  5  4  1  0
  6  5  1  0
  7  6  1  0
  8  9  2  0
  8  2  1  0
 10  8  1  0
 11 10  1  0
 12 13  1  0
 11 12  1  1
 13 18  2  0
 14 13  1  0
 14 15  2  0
 15 16  1  0
 16 17  2  0
 18 17  1  0
 19 20  2  0
 19 11  1  0
 22 21  1  6
 22 23  1  0
 24 25  1  6
 24 22  1  0
 25 19  1  0
 26 24  1  0
 27 26  1  0
 28 26  2  0
M  END
$$$$
