KFV.pdb
     RDKit          3D

 28 28  0  0  1  0  0  0  0  0999 V2000
   26.2927  -21.7137  -13.4713 N   0  0  0  0  0  0  0  0  0  0  0  0
   25.6669  -20.7825  -12.5836 C   0  0  1  0  0  0  0  0  0  0  0  0
   24.1745  -20.7920  -12.8240 C   0  0  0  0  0  0  0  0  0  0  0  0
   23.9474  -20.2310  -14.2282 C   0  0  0  0  0  0  0  0  0  0  0  0
   24.2388  -18.7464  -14.2661 C   0  0  0  0  0  0  0  0  0  0  0  0
   23.8485  -18.2377  -15.6324 C   0  0  0  0  0  0  0  0  0  0  0  0
   24.9216  -17.4723  -16.2116 N   0  0  0  0  0  0  0  0  0  0  0  0
   25.9476  -21.1354  -11.1544 C   0  0  0  0  0  0  0  0  0  0  0  0
   25.4664  -22.1425  -10.6042 O   0  0  0  0  0  0  0  0  0  0  0  0
   26.7937  -20.3016  -10.3779 N   0  0  0  0  0  0  0  0  0  0  0  0
   26.9788  -20.5147   -8.9507 C   0  0  1  0  0  0  0  0  0  0  0  0
   28.1547  -19.6615   -8.5434 C   0  0  0  0  0  0  0  0  0  0  0  0
   28.4320  -19.6850   -7.0965 C   0  0  0  0  0  0  0  0  0  0  0  0
   28.0101  -18.6790   -6.2526 C   0  0  0  0  0  0  0  0  0  0  0  0
   28.2808  -18.7188   -4.8822 C   0  0  0  0  0  0  0  0  0  0  0  0
   28.9824  -19.7752   -4.3381 C   0  0  0  0  0  0  0  0  0  0  0  0
   29.4124  -20.7944   -5.1784 C   0  0  0  0  0  0  0  0  0  0  0  0
   29.1300  -20.7253   -6.5215 C   0  0  0  0  0  0  0  0  0  0  0  0
   25.7579  -20.2512   -8.1830 C   0  0  0  0  0  0  0  0  0  0  0  0
   25.0513  -19.2270   -8.3441 O   0  0  0  0  0  0  0  0  0  0  0  0
   22.7544  -22.0583   -7.9837 C   0  0  0  0  0  0  0  0  0  0  0  0
   23.2218  -22.0537   -6.5447 C   0  0  2  0  0  0  0  0  0  0  0  0
   22.0750  -21.9951   -5.5755 C   0  0  0  0  0  0  0  0  0  0  0  0
   24.2059  -20.9003   -6.3042 C   0  0  2  0  0  0  0  0  0  0  0  0
   25.3255  -21.1811   -7.2006 N   0  0  0  0  0  0  0  0  0  0  0  0
   24.6280  -21.0003   -4.8855 C   0  0  0  0  0  0  0  0  0  0  0  0
   23.9694  -20.2192   -3.9512 O   0  0  0  0  0  0  0  0  0  0  0  0
   25.5418  -21.7549   -4.5242 O   0  0  0  0  0  0  0  0  0  0  0  0
  2  1  1  6
  2  3  1  0
  4  3  1  0
  5  4  1  0
  6  5  1  0
  7  6  1  0
  8  9  2  0
  8  2  1  0
 10  8  1  0
 11 10  1  0
 12 13  1  0
 11 12  1  1
 13 18  2  0
 14 13  1  0
 14 15  2  0
 15 16  1  0
 16 17  2  0
 18 17  1  0
 19 20  2  0
 19 11  1  0
 22 21  1  6
 22 23  1  0
 24 25  1  6
 24 22  1  0
 25 19  1  0
 26 24  1  0
 27 26  1  0
 28 26  2  0
M  END
$$$$
