KFV.pdb
     RDKit          3D

 28 28  0  0  1  0  0  0  0  0999 V2000
   25.9539  -22.0448  -13.2153 N   0  0  0  0  0  0  0  0  0  0  0  0
   25.7771  -20.8621  -12.4301 C   0  0  1  0  0  0  0  0  0  0  0  0
   24.3877  -20.3137  -12.6626 C   0  0  0  0  0  0  0  0  0  0  0  0
   24.2781  -20.0008  -14.1554 C   0  0  0  0  0  0  0  0  0  0  0  0
   25.1159  -18.7922  -14.5129 C   0  0  0  0  0  0  0  0  0  0  0  0
   24.9201  -18.5179  -15.9840 C   0  0  0  0  0  0  0  0  0  0  0  0
   25.7854  -17.4524  -16.4185 N   0  0  0  0  0  0  0  0  0  0  0  0
   25.9636  -21.1555  -10.9723 C   0  0  0  0  0  0  0  0  0  0  0  0
   25.4240  -22.1243  -10.4077 O   0  0  0  0  0  0  0  0  0  0  0  0
   26.7847  -20.3077  -10.1844 N   0  0  0  0  0  0  0  0  0  0  0  0
   26.8702  -20.4513   -8.7392 C   0  0  1  0  0  0  0  0  0  0  0  0
   27.9936  -19.5504   -8.2889 C   0  0  0  0  0  0  0  0  0  0  0  0
   28.2020  -19.5453   -6.8304 C   0  0  0  0  0  0  0  0  0  0  0  0
   27.8343  -18.4759   -6.0408 C   0  0  0  0  0  0  0  0  0  0  0  0
   28.0381  -18.4894   -4.6583 C   0  0  0  0  0  0  0  0  0  0  0  0
   28.6169  -19.5828   -4.0472 C   0  0  0  0  0  0  0  0  0  0  0  0
   28.9915  -20.6659   -4.8323 C   0  0  0  0  0  0  0  0  0  0  0  0
   28.7773  -20.6213   -6.1890 C   0  0  0  0  0  0  0  0  0  0  0  0
   25.5909  -20.1854   -8.0742 C   0  0  0  0  0  0  0  0  0  0  0  0
   24.9029  -19.1588   -8.2912 O   0  0  0  0  0  0  0  0  0  0  0  0
   21.6225  -22.0370   -6.0645 C   0  0  0  0  0  0  0  0  0  0  0  0
   23.0040  -22.1673   -6.6676 C   0  0  2  0  0  0  0  0  0  0  0  0
   23.7344  -23.3772   -6.1571 C   0  0  0  0  0  0  0  0  0  0  0  0
   23.8182  -20.8888   -6.4242 C   0  0  2  0  0  0  0  0  0  0  0  0
   25.0764  -21.1154   -7.1324 N   0  0  0  0  0  0  0  0  0  0  0  0
   24.0438  -20.8098   -4.9600 C   0  0  0  0  0  0  0  0  0  0  0  0
   23.0215  -20.3166   -4.1672 O   0  0  0  0  0  0  0  0  0  0  0  0
   25.1090  -21.1693   -4.4396 O   0  0  0  0  0  0  0  0  0  0  0  0
  2  1  1  6
  2  3  1  0
  4  3  1  0
  5  4  1  0
  6  5  1  0
  7  6  1  0
  8  9  2  0
  8  2  1  0
 10  8  1  0
 11 10  1  0
 12 13  1  0
 11 12  1  1
 13 18  2  0
 14 13  1  0
 14 15  2  0
 15 16  1  0
 16 17  2  0
 18 17  1  0
 19 20  2  0
 19 11  1  0
 22 21  1  1
 22 23  1  0
 24 25  1  6
 24 22  1  0
 25 19  1  0
 26 24  1  0
 27 26  1  0
 28 26  2  0
M  END
$$$$
