KFV.pdb
     RDKit          3D

 28 28  0  0  1  0  0  0  0  0999 V2000
   28.3953  -22.4555  -17.3804 N   0  0  0  0  0  0  0  0  0  0  0  0
   27.6837  -21.3151  -16.8907 C   0  0  1  0  0  0  0  0  0  0  0  0
   26.5818  -20.9611  -17.8632 C   0  0  0  0  0  0  0  0  0  0  0  0
   27.1313  -19.8649  -18.7768 C   0  0  0  0  0  0  0  0  0  0  0  0
   26.5521  -18.5170  -18.4055 C   0  0  0  0  0  0  0  0  0  0  0  0
   26.9126  -17.5454  -19.5027 C   0  0  0  0  0  0  0  0  0  0  0  0
   28.2844  -17.1269  -19.3759 N   0  0  0  0  0  0  0  0  0  0  0  0
   27.0928  -21.5926  -15.5417 C   0  0  0  0  0  0  0  0  0  0  0  0
   26.3364  -22.5567  -15.3251 O   0  0  0  0  0  0  0  0  0  0  0  0
   27.3945  -20.7344  -14.4524 N   0  0  0  0  0  0  0  0  0  0  0  0
   26.7461  -20.8820  -13.1585 C   0  0  1  0  0  0  0  0  0  0  0  0
   27.6910  -20.2923  -12.1407 C   0  0  0  0  0  0  0  0  0  0  0  0
   27.1656  -20.3078  -10.7643 C   0  0  0  0  0  0  0  0  0  0  0  0
   26.3895  -19.2833  -10.2640 C   0  0  0  0  0  0  0  0  0  0  0  0
   25.8982  -19.3157   -8.9561 C   0  0  0  0  0  0  0  0  0  0  0  0
   26.1814  -20.3833   -8.1289 C   0  0  0  0  0  0  0  0  0  0  0  0
   26.9622  -21.4211   -8.6218 C   0  0  0  0  0  0  0  0  0  0  0  0
   27.4299  -21.3588   -9.9125 C   0  0  0  0  0  0  0  0  0  0  0  0
   25.4035  -20.2936  -13.1355 C   0  0  0  0  0  0  0  0  0  0  0  0
   25.1773  -19.0855  -13.3876 O   0  0  0  0  0  0  0  0  0  0  0  0
   22.1366  -22.7964  -13.4733 C   0  0  0  0  0  0  0  0  0  0  0  0
   22.1156  -21.3100  -13.7555 C   0  0  2  0  0  0  0  0  0  0  0  0
   22.5958  -20.9888  -15.1426 C   0  0  0  0  0  0  0  0  0  0  0  0
   22.9330  -20.5522  -12.7001 C   0  0  2  0  0  0  0  0  0  0  0  0
   24.2816  -21.1034  -12.8159 N   0  0  0  0  0  0  0  0  0  0  0  0
   22.3353  -20.8923  -11.3855 C   0  0  0  0  0  0  0  0  0  0  0  0
   21.1728  -20.2417  -11.0084 O   0  0  0  0  0  0  0  0  0  0  0  0
   22.8448  -21.7318  -10.6301 O   0  0  0  0  0  0  0  0  0  0  0  0
  2  1  1  6
  2  3  1  0
  4  3  1  0
  5  4  1  0
  6  5  1  0
  7  6  1  0
  8  9  2  0
  8  2  1  0
 10  8  1  0
 11 10  1  0
 12 13  1  0
 11 12  1  1
 13 18  2  0
 14 13  1  0
 14 15  2  0
 15 16  1  0
 16 17  2  0
 18 17  1  0
 19 20  2  0
 19 11  1  0
 22 21  1  1
 22 23  1  0
 24 25  1  1
 24 22  1  0
 25 19  1  0
 26 24  1  0
 27 26  1  0
 28 26  2  0
M  END
$$$$
