KFV.pdb
     RDKit          3D

 28 28  0  0  1  0  0  0  0  0999 V2000
   26.3703  -22.0984  -12.6960 N   0  0  0  0  0  0  0  0  0  0  0  0
   26.2479  -20.8822  -11.9527 C   0  0  1  0  0  0  0  0  0  0  0  0
   24.8777  -20.2896  -12.1903 C   0  0  0  0  0  0  0  0  0  0  0  0
   24.8629  -19.7677  -13.6276 C   0  0  0  0  0  0  0  0  0  0  0  0
   25.6315  -18.4684  -13.7342 C   0  0  0  0  0  0  0  0  0  0  0  0
   25.5953  -18.0319  -15.1785 C   0  0  0  0  0  0  0  0  0  0  0  0
   26.4096  -16.8605  -15.3725 N   0  0  0  0  0  0  0  0  0  0  0  0
   26.4406  -21.1297  -10.4872 C   0  0  0  0  0  0  0  0  0  0  0  0
   25.9021  -22.0793   -9.8898 O   0  0  0  0  0  0  0  0  0  0  0  0
   27.2667  -20.2588   -9.7302 N   0  0  0  0  0  0  0  0  0  0  0  0
   27.4592  -20.4369   -8.2992 C   0  0  1  0  0  0  0  0  0  0  0  0
   28.6526  -19.5937   -7.9234 C   0  0  0  0  0  0  0  0  0  0  0  0
   28.9179  -19.5529   -6.4747 C   0  0  0  0  0  0  0  0  0  0  0  0
   29.4603  -20.6254   -5.7980 C   0  0  0  0  0  0  0  0  0  0  0  0
   29.7068  -20.5681   -4.4236 C   0  0  0  0  0  0  0  0  0  0  0  0
   29.4102  -19.4269   -3.7068 C   0  0  0  0  0  0  0  0  0  0  0  0
   28.8635  -18.3403   -4.3776 C   0  0  0  0  0  0  0  0  0  0  0  0
   28.6334  -18.4287   -5.7295 C   0  0  0  0  0  0  0  0  0  0  0  0
   26.2489  -20.1319   -7.5299 C   0  0  0  0  0  0  0  0  0  0  0  0
   25.5430  -19.1146   -7.7324 O   0  0  0  0  0  0  0  0  0  0  0  0
   23.3744  -22.2246   -7.1016 C   0  0  0  0  0  0  0  0  0  0  0  0
   23.8096  -21.9482   -5.6791 C   0  0  2  0  0  0  0  0  0  0  0  0
   22.6413  -21.8219   -4.7426 C   0  0  0  0  0  0  0  0  0  0  0  0
   24.6980  -20.6975   -5.6235 C   0  0  2  0  0  0  0  0  0  0  0  0
   25.8267  -21.0108   -6.4975 N   0  0  0  0  0  0  0  0  0  0  0  0
   25.1431  -20.5637   -4.2146 C   0  0  0  0  0  0  0  0  0  0  0  0
   24.2604  -20.0151   -3.2999 O   0  0  0  0  0  0  0  0  0  0  0  0
   26.2686  -20.9259   -3.8446 O   0  0  0  0  0  0  0  0  0  0  0  0
  2  1  1  6
  2  3  1  0
  4  3  1  0
  5  4  1  0
  6  5  1  0
  7  6  1  0
  8  9  2  0
  8  2  1  0
 10  8  1  0
 11 10  1  0
 12 13  1  0
 11 12  1  1
 13 18  2  0
 14 13  1  0
 14 15  2  0
 15 16  1  0
 16 17  2  0
 18 17  1  0
 19 20  2  0
 19 11  1  0
 22 21  1  6
 22 23  1  0
 24 25  1  6
 24 22  1  0
 25 19  1  0
 26 24  1  0
 27 26  1  0
 28 26  2  0
M  END
$$$$
