KFV.pdb
     RDKit          3D

 28 28  0  0  1  0  0  0  0  0999 V2000
   20.4141  -20.0435  -13.0724 N   0  0  0  0  0  0  0  0  0  0  0  0
   21.4652  -21.0115  -13.1420 C   0  0  1  0  0  0  0  0  0  0  0  0
   21.6440  -21.4493  -14.5778 C   0  0  0  0  0  0  0  0  0  0  0  0
   20.3598  -22.1730  -14.9845 C   0  0  0  0  0  0  0  0  0  0  0  0
   20.1761  -23.4366  -14.1720 C   0  0  0  0  0  0  0  0  0  0  0  0
   18.9493  -24.1432  -14.6950 C   0  0  0  0  0  0  0  0  0  0  0  0
   18.6337  -25.2822  -13.8728 N   0  0  0  0  0  0  0  0  0  0  0  0
   22.7518  -20.4413  -12.6270 C   0  0  0  0  0  0  0  0  0  0  0  0
   23.4930  -19.7215  -13.3208 O   0  0  0  0  0  0  0  0  0  0  0  0
   23.1616  -20.7202  -11.2972 N   0  0  0  0  0  0  0  0  0  0  0  0
   24.4763  -20.3389  -10.8048 C   0  0  1  0  0  0  0  0  0  0  0  0
   24.4693  -20.6120   -9.3209 C   0  0  0  0  0  0  0  0  0  0  0  0
   25.6641  -20.1106   -8.6195 C   0  0  0  0  0  0  0  0  0  0  0  0
   25.7756  -18.7995   -8.2064 C   0  0  0  0  0  0  0  0  0  0  0  0
   26.9159  -18.3418   -7.5406 C   0  0  0  0  0  0  0  0  0  0  0  0
   27.9649  -19.1994   -7.2796 C   0  0  0  0  0  0  0  0  0  0  0  0
   27.8639  -20.5224   -7.6910 C   0  0  0  0  0  0  0  0  0  0  0  0
   26.7291  -20.9409   -8.3433 C   0  0  0  0  0  0  0  0  0  0  0  0
   25.5607  -21.0097  -11.5284 C   0  0  0  0  0  0  0  0  0  0  0  0
   25.7234  -22.2538  -11.5253 O   0  0  0  0  0  0  0  0  0  0  0  0
   29.0654  -20.2931  -14.9767 C   0  0  0  0  0  0  0  0  0  0  0  0
   28.0452  -19.7511  -13.9995 C   0  0  2  0  0  0  0  0  0  0  0  0
   28.5722  -18.5794  -13.2204 C   0  0  0  0  0  0  0  0  0  0  0  0
   27.5587  -20.8635  -13.0602 C   0  0  2  0  0  0  0  0  0  0  0  0
   26.4901  -20.2429  -12.2799 N   0  0  0  0  0  0  0  0  0  0  0  0
   28.7111  -21.2117  -12.1931 C   0  0  0  0  0  0  0  0  0  0  0  0
   29.1298  -20.2805  -11.2580 O   0  0  0  0  0  0  0  0  0  0  0  0
   29.2973  -22.2991  -12.2857 O   0  0  0  0  0  0  0  0  0  0  0  0
  2  1  1  6
  2  3  1  0
  4  3  1  0
  5  4  1  0
  6  5  1  0
  7  6  1  0
  8  9  2  0
  8  2  1  0
 10  8  1  0
 11 10  1  0
 12 13  1  0
 11 12  1  1
 13 18  2  0
 14 13  1  0
 14 15  2  0
 15 16  1  0
 16 17  2  0
 18 17  1  0
 19 20  2  0
 19 11  1  0
 22 21  1  6
 22 23  1  0
 24 25  1  1
 24 22  1  0
 25 19  1  0
 26 24  1  0
 27 26  1  0
 28 26  2  0
M  END
$$$$
