HFC.pdb
     RDKit          3D

 28 29  0  0  1  0  0  0  0  0999 V2000
   27.1532  -20.4437  -19.2008 N   0  0  0  0  0  0  0  0  0  0  0  0
   26.0745  -19.8588  -18.4312 C   0  0  1  0  0  0  0  0  0  0  0  0
   24.8314  -19.8038  -19.3201 C   0  0  0  0  0  0  0  0  0  0  0  0
   25.1327  -18.8125  -20.3875 C   0  0  0  0  0  0  0  0  0  0  0  0
   25.1128  -19.0096  -21.7375 C   0  0  0  0  0  0  0  0  0  0  0  0
   25.4505  -17.8457  -22.3625 N   0  0  0  0  0  0  0  0  0  0  0  0
   25.6740  -16.9483  -21.3997 C   0  0  0  0  0  0  0  0  0  0  0  0
   25.4821  -17.5302  -20.1869 N   0  0  0  0  0  0  0  0  0  0  0  0
   25.8118  -20.6495  -17.1921 C   0  0  0  0  0  0  0  0  0  0  0  0
   25.5676  -21.8703  -17.2076 O   0  0  0  0  0  0  0  0  0  0  0  0
   25.8420  -19.9845  -15.9564 N   0  0  0  0  0  0  0  0  0  0  0  0
   25.4828  -20.5862  -14.6967 C   0  0  1  0  0  0  0  0  0  0  0  0
   26.0887  -19.6875  -13.6087 C   0  0  0  0  0  0  0  0  0  0  0  0
   25.8502  -20.2173  -12.2709 C   0  0  0  0  0  0  0  0  0  0  0  0
   24.8508  -19.7078  -11.4755 C   0  0  0  0  0  0  0  0  0  0  0  0
   24.6591  -20.2314  -10.2278 C   0  0  0  0  0  0  0  0  0  0  0  0
   25.4511  -21.2579   -9.7606 C   0  0  0  0  0  0  0  0  0  0  0  0
   26.4577  -21.7835  -10.5401 C   0  0  0  0  0  0  0  0  0  0  0  0
   26.6351  -21.2413  -11.7961 C   0  0  0  0  0  0  0  0  0  0  0  0
   24.0002  -20.6581  -14.5265 C   0  0  0  0  0  0  0  0  0  0  0  0
   23.2851  -19.6103  -14.6302 O   0  0  0  0  0  0  0  0  0  0  0  0
   23.3232  -21.8619  -14.2478 N   0  0  0  0  0  0  0  0  0  0  0  0
   21.9213  -21.9633  -13.9492 C   0  0  1  0  0  0  0  0  0  0  0  0
   21.4931  -23.3733  -13.6214 C   0  0  0  0  0  0  0  0  0  0  0  0
   19.6849  -23.3753  -13.4620 S   0  0  0  0  0  0  0  0  0  0  0  0
   21.4783  -21.0095  -12.9148 C   0  0  0  0  0  0  0  0  0  0  0  0
   20.2607  -20.7209  -12.8619 O   0  0  0  0  0  0  0  0  0  0  0  0
   22.3286  -20.4160  -12.0011 O   0  0  0  0  0  0  0  0  0  0  0  0
  2  1  1  6
  2  9  1  0
  3  2  1  0
  4  3  1  0
  5  4  2  0
  6  5  1  0
  7  6  1  0
  7  8  2  0
  8  4  1  0
  9 11  1  0
  9 10  2  0
 11 12  1  0
 12 13  1  1
 13 14  1  0
 14 19  2  0
 15 16  2  0
 15 14  1  0
 16 17  1  0
 17 18  2  0
 19 18  1  0
 20 12  1  0
 20 21  2  0
 22 20  1  0
 23 22  1  0
 23 24  1  1
 24 25  1  0
 26 23  1  0
 27 26  2  0
 28 26  1  0
M  END
$$$$
