HFC.pdb
     RDKit          3D

 28 29  0  0  1  0  0  0  0  0999 V2000
   26.5107  -19.4187  -19.2740 N   0  0  0  0  0  0  0  0  0  0  0  0
   26.2448  -18.6639  -18.0668 C   0  0  1  0  0  0  0  0  0  0  0  0
   25.1791  -17.6148  -18.3868 C   0  0  0  0  0  0  0  0  0  0  0  0
   24.1508  -18.3101  -19.2064 C   0  0  0  0  0  0  0  0  0  0  0  0
   23.2616  -19.2606  -18.7967 C   0  0  0  0  0  0  0  0  0  0  0  0
   22.4939  -19.6392  -19.8583 N   0  0  0  0  0  0  0  0  0  0  0  0
   22.9134  -18.9243  -20.9048 C   0  0  0  0  0  0  0  0  0  0  0  0
   23.9275  -18.1076  -20.5162 N   0  0  0  0  0  0  0  0  0  0  0  0
   25.7962  -19.5627  -16.9621 C   0  0  0  0  0  0  0  0  0  0  0  0
   25.2721  -20.6738  -17.1644 O   0  0  0  0  0  0  0  0  0  0  0  0
   25.9745  -19.1334  -15.6376 N   0  0  0  0  0  0  0  0  0  0  0  0
   25.5709  -19.8841  -14.4750 C   0  0  1  0  0  0  0  0  0  0  0  0
   26.2805  -19.2304  -13.2802 C   0  0  0  0  0  0  0  0  0  0  0  0
   26.0326  -19.9540  -12.0383 C   0  0  0  0  0  0  0  0  0  0  0  0
   25.0509  -19.5469  -11.1656 C   0  0  0  0  0  0  0  0  0  0  0  0
   24.8496  -20.2518  -10.0123 C   0  0  0  0  0  0  0  0  0  0  0  0
   25.6145  -21.3591   -9.7157 C   0  0  0  0  0  0  0  0  0  0  0  0
   26.6031  -21.7847  -10.5751 C   0  0  0  0  0  0  0  0  0  0  0  0
   26.7906  -21.0598  -11.7338 C   0  0  0  0  0  0  0  0  0  0  0  0
   24.0912  -19.8323  -14.2755 C   0  0  0  0  0  0  0  0  0  0  0  0
   23.4615  -18.7315  -14.3837 O   0  0  0  0  0  0  0  0  0  0  0  0
   23.3245  -20.9725  -13.9633 N   0  0  0  0  0  0  0  0  0  0  0  0
   21.9127  -20.9624  -13.6959 C   0  0  1  0  0  0  0  0  0  0  0  0
   21.2528  -22.2891  -13.9845 C   0  0  0  0  0  0  0  0  0  0  0  0
   21.9096  -22.8974  -15.5635 S   0  0  0  0  0  0  0  0  0  0  0  0
   21.5823  -20.4773  -12.3426 C   0  0  0  0  0  0  0  0  0  0  0  0
   20.3737  -20.3369  -12.0456 O   0  0  0  0  0  0  0  0  0  0  0  0
   22.5288  -20.1689  -11.3837 O   0  0  0  0  0  0  0  0  0  0  0  0
  2  1  1  6
  2  9  1  0
  3  2  1  0
  4  3  1  0
  5  4  2  0
  6  5  1  0
  7  6  1  0
  7  8  2  0
  8  4  1  0
  9 11  1  0
  9 10  2  0
 11 12  1  0
 12 13  1  1
 13 14  1  0
 14 19  2  0
 15 16  2  0
 15 14  1  0
 16 17  1  0
 17 18  2  0
 19 18  1  0
 20 12  1  0
 20 21  2  0
 22 20  1  0
 23 22  1  0
 23 24  1  1
 24 25  1  0
 26 23  1  0
 27 26  2  0
 28 26  1  0
M  END
$$$$
