HFC.pdb
     RDKit          3D

 28 29  0  0  1  0  0  0  0  0999 V2000
   17.7951  -12.8703  -18.1226 N   0  0  0  0  0  0  0  0  0  0  0  0
   18.4023  -11.5925  -18.4330 C   0  0  1  0  0  0  0  0  0  0  0  0
   17.5787  -10.9304  -19.5384 C   0  0  0  0  0  0  0  0  0  0  0  0
   17.7225  -11.8012  -20.7358 C   0  0  0  0  0  0  0  0  0  0  0  0
   16.7683  -12.5862  -21.3147 C   0  0  0  0  0  0  0  0  0  0  0  0
   17.3092  -13.2234  -22.3921 N   0  0  0  0  0  0  0  0  0  0  0  0
   18.5823  -12.8285  -22.4674 C   0  0  0  0  0  0  0  0  0  0  0  0
   18.8452  -11.9577  -21.4580 N   0  0  0  0  0  0  0  0  0  0  0  0
   18.4680  -10.7231  -17.2209 C   0  0  0  0  0  0  0  0  0  0  0  0
   17.6406  -10.7923  -16.2930 O   0  0  0  0  0  0  0  0  0  0  0  0
   19.5096   -9.7870  -17.1258 N   0  0  0  0  0  0  0  0  0  0  0  0
   19.6767   -8.8599  -16.0347 C   0  0  1  0  0  0  0  0  0  0  0  0
   21.1631   -8.9169  -15.6530 C   0  0  0  0  0  0  0  0  0  0  0  0
   21.4809   -7.9978  -14.5659 C   0  0  0  0  0  0  0  0  0  0  0  0
   21.2923   -8.3617  -13.2533 C   0  0  0  0  0  0  0  0  0  0  0  0
   21.6023   -7.4720  -12.2634 C   0  0  0  0  0  0  0  0  0  0  0  0
   22.0987   -6.2220  -12.5639 C   0  0  0  0  0  0  0  0  0  0  0  0
   22.2956   -5.8365  -13.8714 C   0  0  0  0  0  0  0  0  0  0  0  0
   21.9767   -6.7488  -14.8559 C   0  0  0  0  0  0  0  0  0  0  0  0
   19.3100   -7.4685  -16.4366 C   0  0  0  0  0  0  0  0  0  0  0  0
   19.7340   -6.9779  -17.5319 O   0  0  0  0  0  0  0  0  0  0  0  0
   18.4925   -6.6376  -15.6449 N   0  0  0  0  0  0  0  0  0  0  0  0
   18.1474   -5.2805  -15.9674 C   0  0  1  0  0  0  0  0  0  0  0  0
   16.6583   -5.0711  -16.1006 C   0  0  0  0  0  0  0  0  0  0  0  0
   16.3818   -3.3173  -16.4780 S   0  0  0  0  0  0  0  0  0  0  0  0
   18.7521   -4.2950  -15.0513 C   0  0  0  0  0  0  0  0  0  0  0  0
   18.7155   -4.5329  -13.8222 O   0  0  0  0  0  0  0  0  0  0  0  0
   19.3565   -3.1249  -15.4706 O   0  0  0  0  0  0  0  0  0  0  0  0
  2  1  1  1
  2  9  1  0
  3  2  1  0
  4  3  1  0
  5  4  2  0
  6  5  1  0
  7  6  1  0
  7  8  2  0
  8  4  1  0
  9 11  1  0
  9 10  2  0
 11 12  1  0
 12 13  1  6
 13 14  1  0
 14 19  2  0
 15 16  2  0
 15 14  1  0
 16 17  1  0
 17 18  2  0
 19 18  1  0
 20 12  1  0
 20 21  2  0
 22 20  1  0
 23 22  1  0
 23 24  1  1
 24 25  1  0
 26 23  1  0
 27 26  2  0
 28 26  1  0
M  END
$$$$
