HFC.pdb
     RDKit          3D

 28 29  0  0  1  0  0  0  0  0999 V2000
   24.8006   -9.7414  -21.0187 N   0  0  0  0  0  0  0  0  0  0  0  0
   24.1513   -8.5000  -20.6512 C   0  0  1  0  0  0  0  0  0  0  0  0
   23.0876   -8.1894  -21.7052 C   0  0  0  0  0  0  0  0  0  0  0  0
   23.8253   -7.7119  -22.9054 C   0  0  0  0  0  0  0  0  0  0  0  0
   24.2253   -6.4378  -23.1854 C   0  0  0  0  0  0  0  0  0  0  0  0
   24.8715   -6.4276  -24.3861 N   0  0  0  0  0  0  0  0  0  0  0  0
   24.8642   -7.6859  -24.8323 C   0  0  0  0  0  0  0  0  0  0  0  0
   24.2260   -8.4799  -23.9331 N   0  0  0  0  0  0  0  0  0  0  0  0
   23.5442   -8.5964  -19.2905 C   0  0  0  0  0  0  0  0  0  0  0  0
   22.8374   -9.5566  -18.9314 O   0  0  0  0  0  0  0  0  0  0  0  0
   23.7822   -7.5571  -18.3776 N   0  0  0  0  0  0  0  0  0  0  0  0
   23.3130   -7.5445  -17.0146 C   0  0  1  0  0  0  0  0  0  0  0  0
   24.5431   -7.2469  -16.1448 C   0  0  0  0  0  0  0  0  0  0  0  0
   25.4506   -8.3869  -16.0781 C   0  0  0  0  0  0  0  0  0  0  0  0
   25.2144   -9.4301  -15.2139 C   0  0  0  0  0  0  0  0  0  0  0  0
   26.0885  -10.4801  -15.1814 C   0  0  0  0  0  0  0  0  0  0  0  0
   27.1970  -10.5052  -15.9998 C   0  0  0  0  0  0  0  0  0  0  0  0
   27.4530   -9.4712  -16.8730 C   0  0  0  0  0  0  0  0  0  0  0  0
   26.5590   -8.4208  -16.8907 C   0  0  0  0  0  0  0  0  0  0  0  0
   22.2754   -6.4910  -16.8018 C   0  0  0  0  0  0  0  0  0  0  0  0
   22.2988   -5.4131  -17.4785 O   0  0  0  0  0  0  0  0  0  0  0  0
   21.2346   -6.6259  -15.8616 N   0  0  0  0  0  0  0  0  0  0  0  0
   19.9617   -5.9649  -15.9479 C   0  0  1  0  0  0  0  0  0  0  0  0
   19.2890   -6.1624  -17.2849 C   0  0  0  0  0  0  0  0  0  0  0  0
   17.7430   -5.2116  -17.2678 S   0  0  0  0  0  0  0  0  0  0  0  0
   19.0568   -6.3014  -14.8326 C   0  0  0  0  0  0  0  0  0  0  0  0
   18.8034   -7.5099  -14.6232 O   0  0  0  0  0  0  0  0  0  0  0  0
   18.4726   -5.3606  -14.0056 O   0  0  0  0  0  0  0  0  0  0  0  0
  2  1  1  6
  2  9  1  0
  3  2  1  0
  4  3  1  0
  5  4  2  0
  6  5  1  0
  7  6  1  0
  7  8  2  0
  8  4  1  0
  9 11  1  0
  9 10  2  0
 11 12  1  0
 12 13  1  1
 13 14  1  0
 14 19  2  0
 15 16  2  0
 15 14  1  0
 16 17  1  0
 17 18  2  0
 19 18  1  0
 20 12  1  0
 20 21  2  0
 22 20  1  0
 23 22  1  0
 23 24  1  6
 24 25  1  0
 26 23  1  0
 27 26  2  0
 28 26  1  0
M  END
$$$$
