WCH.pdb
     RDKit          3D

 31 33  0  0  1  0  0  0  0  0999 V2000
   26.2320  -19.2885  -11.8838 N   0  0  0  0  0  0  0  0  0  0  0  0
   26.1500  -20.7090  -11.9534 C   0  0  1  0  0  0  0  0  0  0  0  0
   25.5553  -21.2506  -10.6826 C   0  0  0  0  0  0  0  0  0  0  0  0
   26.0841  -20.6822   -9.4472 C   0  0  0  0  0  0  0  0  0  0  0  0
   25.3694  -19.8380   -8.6273 C   0  0  0  0  0  0  0  0  0  0  0  0
   26.1684  -19.4982   -7.6104 N   0  0  0  0  0  0  0  0  0  0  0  0
   27.3940  -20.0882   -7.7234 C   0  0  0  0  0  0  0  0  0  0  0  0
   28.5222  -20.0480   -6.9395 C   0  0  0  0  0  0  0  0  0  0  0  0
   29.6334  -20.7592   -7.2950 C   0  0  0  0  0  0  0  0  0  0  0  0
   29.6022  -21.5139   -8.4485 C   0  0  0  0  0  0  0  0  0  0  0  0
   28.4707  -21.5461   -9.2230 C   0  0  0  0  0  0  0  0  0  0  0  0
   27.3263  -20.8319   -8.8859 C   0  0  0  0  0  0  0  0  0  0  0  0
   25.3373  -21.2006  -13.1104 C   0  0  0  0  0  0  0  0  0  0  0  0
   24.3196  -20.5644  -13.5001 O   0  0  0  0  0  0  0  0  0  0  0  0
   25.6435  -22.3861  -13.8334 N   0  0  0  0  0  0  0  0  0  0  0  0
   24.7921  -22.8662  -14.9025 C   0  0  1  0  0  0  0  0  0  0  0  0
   25.5707  -23.9020  -15.6848 C   0  0  0  0  0  0  0  0  0  0  0  0
   27.0703  -23.1092  -16.3249 S   0  0  0  0  0  0  0  0  0  0  0  0
   23.5701  -23.5299  -14.3935 C   0  0  0  0  0  0  0  0  0  0  0  0
   23.5050  -24.2125  -13.3456 O   0  0  0  0  0  0  0  0  0  0  0  0
   22.3812  -23.3780  -15.1561 N   0  0  0  0  0  0  0  0  0  0  0  0
   21.0982  -23.1162  -14.4753 C   0  0  1  0  0  0  0  0  0  0  0  0
   21.2208  -21.7435  -13.8707 C   0  0  0  0  0  0  0  0  0  0  0  0
   20.0960  -21.2967  -13.0646 C   0  0  0  0  0  0  0  0  0  0  0  0
   18.9481  -21.9460  -12.7049 C   0  0  0  0  0  0  0  0  0  0  0  0
   18.2340  -21.1252  -11.8924 N   0  0  0  0  0  0  0  0  0  0  0  0
   18.9075  -19.9959  -11.7422 C   0  0  0  0  0  0  0  0  0  0  0  0
   20.0275  -20.0795  -12.4375 N   0  0  0  0  0  0  0  0  0  0  0  0
   20.1025  -22.9913  -15.5996 C   0  0  0  0  0  0  0  0  0  0  0  0
   18.8157  -23.4695  -15.5815 O   0  0  0  0  0  0  0  0  0  0  0  0
   20.5065  -22.3855  -16.6514 O   0  0  0  0  0  0  0  0  0  0  0  0
  2  1  1  1
  2  3  1  0
  3  4  1  0
  4  5  2  0
  6  5  1  0
  7  6  1  0
  8  7  2  0
  9  8  1  0
 10 11  1  0
 10  9  2  0
 11 12  2  0
 12  7  1  0
 12  4  1  0
 13  2  1  0
 13 15  1  0
 14 13  2  0
 16 15  1  0
 16 17  1  1
 17 18  1  0
 19 16  1  0
 20 19  2  0
 21 19  1  0
 22 21  1  0
 23 24  1  0
 22 23  1  6
 24 25  2  0
 26 25  1  0
 27 26  1  0
 28 27  2  0
 28 24  1  0
 29 22  1  0
 29 30  1  0
 31 29  2  0
M  END
$$$$
