WCH.pdb
     RDKit          3D

 31 33  0  0  1  0  0  0  0  0999 V2000
   28.2908  -21.5208  -15.9607 N   0  0  0  0  0  0  0  0  0  0  0  0
   27.5117  -20.5414  -15.2802 C   0  0  1  0  0  0  0  0  0  0  0  0
   26.6352  -19.8121  -16.2608 C   0  0  0  0  0  0  0  0  0  0  0  0
   27.1969  -18.5856  -16.8169 C   0  0  0  0  0  0  0  0  0  0  0  0
   27.6992  -18.4860  -18.0950 C   0  0  0  0  0  0  0  0  0  0  0  0
   28.1470  -17.2358  -18.2516 N   0  0  0  0  0  0  0  0  0  0  0  0
   27.9600  -16.4961  -17.1199 C   0  0  0  0  0  0  0  0  0  0  0  0
   28.2454  -15.1891  -16.8044 C   0  0  0  0  0  0  0  0  0  0  0  0
   27.9359  -14.6957  -15.5685 C   0  0  0  0  0  0  0  0  0  0  0  0
   27.3350  -15.5285  -14.6485 C   0  0  0  0  0  0  0  0  0  0  0  0
   27.0551  -16.8311  -14.9745 C   0  0  0  0  0  0  0  0  0  0  0  0
   27.3598  -17.3598  -16.2240 C   0  0  0  0  0  0  0  0  0  0  0  0
   26.6482  -21.1154  -14.2004 C   0  0  0  0  0  0  0  0  0  0  0  0
   25.9951  -22.1778  -14.3934 O   0  0  0  0  0  0  0  0  0  0  0  0
   26.5046  -20.5224  -12.9160 N   0  0  0  0  0  0  0  0  0  0  0  0
   25.4555  -20.9289  -12.0037 C   0  0  1  0  0  0  0  0  0  0  0  0
   25.7890  -20.3715  -10.6366 C   0  0  0  0  0  0  0  0  0  0  0  0
   24.4184  -20.7719   -9.5193 S   0  0  0  0  0  0  0  0  0  0  0  0
   24.1333  -20.3836  -12.3878 C   0  0  0  0  0  0  0  0  0  0  0  0
   23.8717  -19.1680  -12.5365 O   0  0  0  0  0  0  0  0  0  0  0  0
   23.0827  -21.3152  -12.6037 N   0  0  0  0  0  0  0  0  0  0  0  0
   21.7295  -20.8333  -12.9423 C   0  0  1  0  0  0  0  0  0  0  0  0
   21.3191  -21.5829  -14.1810 C   0  0  0  0  0  0  0  0  0  0  0  0
   19.9415  -21.4033  -14.6105 C   0  0  0  0  0  0  0  0  0  0  0  0
   18.7680  -21.6270  -13.9461 C   0  0  0  0  0  0  0  0  0  0  0  0
   17.7447  -21.2484  -14.7543 N   0  0  0  0  0  0  0  0  0  0  0  0
   18.2533  -20.7993  -15.8906 C   0  0  0  0  0  0  0  0  0  0  0  0
   19.5698  -20.8838  -15.8237 N   0  0  0  0  0  0  0  0  0  0  0  0
   20.8613  -21.3584  -11.8280 C   0  0  0  0  0  0  0  0  0  0  0  0
   20.9807  -22.5925  -11.2386 O   0  0  0  0  0  0  0  0  0  0  0  0
   19.9412  -20.5752  -11.4077 O   0  0  0  0  0  0  0  0  0  0  0  0
  2  1  1  6
  2  3  1  0
  3  4  1  0
  4  5  2  0
  6  5  1  0
  7  6  1  0
  8  7  2  0
  9  8  1  0
 10 11  1  0
 10  9  2  0
 11 12  2  0
 12  7  1  0
 12  4  1  0
 13  2  1  0
 13 15  1  0
 14 13  2  0
 16 15  1  0
 16 17  1  1
 17 18  1  0
 19 16  1  0
 20 19  2  0
 21 19  1  0
 22 21  1  0
 23 24  1  0
 22 23  1  6
 24 25  2  0
 26 25  1  0
 27 26  1  0
 28 27  2  0
 28 24  1  0
 29 22  1  0
 29 30  1  0
 31 29  2  0
M  END
$$$$
