WCH.pdb
     RDKit          3D

 31 33  0  0  1  0  0  0  0  0999 V2000
   26.9436  -18.8005   -8.4657 N   0  0  0  0  0  0  0  0  0  0  0  0
   26.7185  -20.1282   -8.9303 C   0  0  1  0  0  0  0  0  0  0  0  0
   25.8882  -20.8865   -7.9316 C   0  0  0  0  0  0  0  0  0  0  0  0
   26.2271  -20.6615   -6.5303 C   0  0  0  0  0  0  0  0  0  0  0  0
   25.3061  -20.6903   -5.5073 C   0  0  0  0  0  0  0  0  0  0  0  0
   25.9608  -20.4202   -4.3730 N   0  0  0  0  0  0  0  0  0  0  0  0
   27.2897  -20.2122   -4.6043 C   0  0  0  0  0  0  0  0  0  0  0  0
   28.3440  -19.9164   -3.7737 C   0  0  0  0  0  0  0  0  0  0  0  0
   29.6021  -19.7654   -4.2848 C   0  0  0  0  0  0  0  0  0  0  0  0
   29.7936  -19.9146   -5.6420 C   0  0  0  0  0  0  0  0  0  0  0  0
   28.7339  -20.2096   -6.4613 C   0  0  0  0  0  0  0  0  0  0  0  0
   27.4433  -20.3679   -5.9686 C   0  0  0  0  0  0  0  0  0  0  0  0
   26.0357  -20.1833  -10.2613 C   0  0  0  0  0  0  0  0  0  0  0  0
   25.1168  -19.3677  -10.5490 O   0  0  0  0  0  0  0  0  0  0  0  0
   26.3630  -21.1315  -11.2692 N   0  0  0  0  0  0  0  0  0  0  0  0
   26.2247  -20.8225  -12.6777 C   0  0  1  0  0  0  0  0  0  0  0  0
   27.2401  -21.6507  -13.4353 C   0  0  0  0  0  0  0  0  0  0  0  0
   28.8574  -20.8498  -13.2614 S   0  0  0  0  0  0  0  0  0  0  0  0
   24.8876  -21.1811  -13.2038 C   0  0  0  0  0  0  0  0  0  0  0  0
   24.3317  -22.2937  -13.0586 O   0  0  0  0  0  0  0  0  0  0  0  0
   24.1841  -20.1823  -13.9288 N   0  0  0  0  0  0  0  0  0  0  0  0
   22.7889  -20.4210  -14.3463 C   0  0  1  0  0  0  0  0  0  0  0  0
   22.2242  -19.0718  -14.7007 C   0  0  0  0  0  0  0  0  0  0  0  0
   20.8459  -19.0567  -15.1636 C   0  0  0  0  0  0  0  0  0  0  0  0
   19.7566  -19.7610  -14.7322 C   0  0  0  0  0  0  0  0  0  0  0  0
   18.6765  -19.3493  -15.4448 N   0  0  0  0  0  0  0  0  0  0  0  0
   19.0686  -18.4156  -16.2968 C   0  0  0  0  0  0  0  0  0  0  0  0
   20.3668  -18.2258  -16.1433 N   0  0  0  0  0  0  0  0  0  0  0  0
   22.9162  -21.1758  -15.6445 C   0  0  0  0  0  0  0  0  0  0  0  0
   22.0148  -22.0933  -16.1247 O   0  0  0  0  0  0  0  0  0  0  0  0
   23.9571  -20.9282  -16.3457 O   0  0  0  0  0  0  0  0  0  0  0  0
  2  1  1  1
  2  3  1  0
  3  4  1  0
  4  5  2  0
  6  5  1  0
  7  6  1  0
  8  7  2  0
  9  8  1  0
 10 11  1  0
 10  9  2  0
 11 12  2  0
 12  7  1  0
 12  4  1  0
 13  2  1  0
 13 15  1  0
 14 13  2  0
 16 15  1  0
 16 17  1  6
 17 18  1  0
 19 16  1  0
 20 19  2  0
 21 19  1  0
 22 21  1  0
 23 24  1  0
 22 23  1  6
 24 25  2  0
 26 25  1  0
 27 26  1  0
 28 27  2  0
 28 24  1  0
 29 22  1  0
 29 30  1  0
 31 29  2  0
M  END
$$$$
