WCH.pdb
     RDKit          3D

 31 33  0  0  1  0  0  0  0  0999 V2000
   20.6125   -9.1166  -18.3401 N   0  0  0  0  0  0  0  0  0  0  0  0
   19.8583   -8.0748  -17.7275 C   0  0  1  0  0  0  0  0  0  0  0  0
   19.4958   -7.0346  -18.7515 C   0  0  0  0  0  0  0  0  0  0  0  0
   20.6212   -6.3834  -19.4136 C   0  0  0  0  0  0  0  0  0  0  0  0
   21.8369   -6.1568  -18.8083 C   0  0  0  0  0  0  0  0  0  0  0  0
   22.6128   -5.5246  -19.6951 N   0  0  0  0  0  0  0  0  0  0  0  0
   21.9555   -5.3216  -20.8739 C   0  0  0  0  0  0  0  0  0  0  0  0
   22.3290   -4.7332  -22.0586 C   0  0  0  0  0  0  0  0  0  0  0  0
   21.4512   -4.6719  -23.1038 C   0  0  0  0  0  0  0  0  0  0  0  0
   20.1904   -5.2083  -22.9492 C   0  0  0  0  0  0  0  0  0  0  0  0
   19.8288   -5.7928  -21.7622 C   0  0  0  0  0  0  0  0  0  0  0  0
   20.7012   -5.8684  -20.6821 C   0  0  0  0  0  0  0  0  0  0  0  0
   18.6031   -8.5584  -17.0706 C   0  0  0  0  0  0  0  0  0  0  0  0
   17.7884   -9.2907  -17.6969 O   0  0  0  0  0  0  0  0  0  0  0  0
   18.2473   -8.2367  -15.7320 N   0  0  0  0  0  0  0  0  0  0  0  0
   17.0303   -8.7379  -15.1272 C   0  0  1  0  0  0  0  0  0  0  0  0
   17.3680  -10.0243  -14.4044 C   0  0  0  0  0  0  0  0  0  0  0  0
   15.8710  -10.6016  -13.5603 S   0  0  0  0  0  0  0  0  0  0  0  0
   16.4757   -7.8035  -14.1211 C   0  0  0  0  0  0  0  0  0  0  0  0
   17.1128   -7.3250  -13.1550 O   0  0  0  0  0  0  0  0  0  0  0  0
   15.1149   -7.4226  -14.2668 N   0  0  0  0  0  0  0  0  0  0  0  0
   14.4999   -6.5010  -13.2919 C   0  0  1  0  0  0  0  0  0  0  0  0
   13.9653   -5.3445  -14.0928 C   0  0  0  0  0  0  0  0  0  0  0  0
   13.2935   -4.2993  -13.3374 C   0  0  0  0  0  0  0  0  0  0  0  0
   13.1916   -4.1049  -11.9881 C   0  0  0  0  0  0  0  0  0  0  0  0
   12.5111   -2.9490  -11.7769 N   0  0  0  0  0  0  0  0  0  0  0  0
   12.1943   -2.4293  -12.9521 C   0  0  0  0  0  0  0  0  0  0  0  0
   12.6552   -3.2246  -13.9007 N   0  0  0  0  0  0  0  0  0  0  0  0
   13.2954   -7.2510  -12.7841 C   0  0  0  0  0  0  0  0  0  0  0  0
   12.6255   -6.9855  -11.6156 O   0  0  0  0  0  0  0  0  0  0  0  0
   12.8748   -8.2123  -13.5160 O   0  0  0  0  0  0  0  0  0  0  0  0
  2  1  1  6
  2  3  1  0
  3  4  1  0
  4  5  2  0
  6  5  1  0
  7  6  1  0
  8  7  2  0
  9  8  1  0
 10 11  1  0
 10  9  2  0
 11 12  2  0
 12  7  1  0
 12  4  1  0
 13  2  1  0
 13 15  1  0
 14 13  2  0
 16 15  1  0
 16 17  1  1
 17 18  1  0
 19 16  1  0
 20 19  2  0
 21 19  1  0
 22 21  1  0
 23 24  1  0
 22 23  1  6
 24 25  2  0
 26 25  1  0
 27 26  1  0
 28 27  2  0
 28 24  1  0
 29 22  1  0
 29 30  1  0
 31 29  2  0
M  END
$$$$
