WCH.pdb
     RDKit          3D

 31 33  0  0  1  0  0  0  0  0999 V2000
   20.5708  -20.8910  -11.7506 N   0  0  0  0  0  0  0  0  0  0  0  0
   21.2971  -20.7497  -12.9679 C   0  0  1  0  0  0  0  0  0  0  0  0
   20.6952  -19.6502  -13.7989 C   0  0  0  0  0  0  0  0  0  0  0  0
   19.5896  -20.0478  -14.6642 C   0  0  0  0  0  0  0  0  0  0  0  0
   18.2653  -19.8156  -14.3674 C   0  0  0  0  0  0  0  0  0  0  0  0
   17.5367  -20.3315  -15.3630 N   0  0  0  0  0  0  0  0  0  0  0  0
   18.3308  -20.9006  -16.3161 C   0  0  0  0  0  0  0  0  0  0  0  0
   18.0514  -21.5383  -17.5010 C   0  0  0  0  0  0  0  0  0  0  0  0
   19.0657  -22.0157  -18.2821 C   0  0  0  0  0  0  0  0  0  0  0  0
   20.3680  -21.8466  -17.8619 C   0  0  0  0  0  0  0  0  0  0  0  0
   20.6348  -21.2087  -16.6773 C   0  0  0  0  0  0  0  0  0  0  0  0
   19.6225  -20.7139  -15.8625 C   0  0  0  0  0  0  0  0  0  0  0  0
   22.7499  -20.4535  -12.7612 C   0  0  0  0  0  0  0  0  0  0  0  0
   23.1142  -19.4927  -12.0288 O   0  0  0  0  0  0  0  0  0  0  0  0
   23.7949  -21.2109  -13.3580 N   0  0  0  0  0  0  0  0  0  0  0  0
   25.1827  -20.8110  -13.2473 C   0  0  1  0  0  0  0  0  0  0  0  0
   25.9524  -21.9699  -12.6510 C   0  0  0  0  0  0  0  0  0  0  0  0
   25.7807  -21.8872  -10.8480 S   0  0  0  0  0  0  0  0  0  0  0  0
   25.7896  -20.5146  -14.5652 C   0  0  0  0  0  0  0  0  0  0  0  0
   25.4646  -21.0576  -15.6458 O   0  0  0  0  0  0  0  0  0  0  0  0
   26.8204  -19.5377  -14.6023 N   0  0  0  0  0  0  0  0  0  0  0  0
   27.3833  -19.1102  -15.8978 C   0  0  1  0  0  0  0  0  0  0  0  0
   28.4077  -18.0551  -15.5782 C   0  0  0  0  0  0  0  0  0  0  0  0
   29.0873  -17.4576  -16.7164 C   0  0  0  0  0  0  0  0  0  0  0  0
   28.9142  -17.6556  -18.0579 C   0  0  0  0  0  0  0  0  0  0  0  0
   29.7496  -16.8156  -18.7213 N   0  0  0  0  0  0  0  0  0  0  0  0
   30.4271  -16.1093  -17.8304 C   0  0  0  0  0  0  0  0  0  0  0  0
   30.0437  -16.4798  -16.6218 N   0  0  0  0  0  0  0  0  0  0  0  0
   28.1555  -20.3115  -16.3790 C   0  0  0  0  0  0  0  0  0  0  0  0
   28.3303  -20.6731  -17.6919 O   0  0  0  0  0  0  0  0  0  0  0  0
   28.6868  -21.0446  -15.4752 O   0  0  0  0  0  0  0  0  0  0  0  0
  2  1  1  1
  2  3  1  0
  3  4  1  0
  4  5  2  0
  6  5  1  0
  7  6  1  0
  8  7  2  0
  9  8  1  0
 10 11  1  0
 10  9  2  0
 11 12  2  0
 12  7  1  0
 12  4  1  0
 13  2  1  0
 13 15  1  0
 14 13  2  0
 16 15  1  0
 16 17  1  6
 17 18  1  0
 19 16  1  0
 20 19  2  0
 21 19  1  0
 22 21  1  0
 23 24  1  0
 22 23  1  1
 24 25  2  0
 26 25  1  0
 27 26  1  0
 28 27  2  0
 28 24  1  0
 29 22  1  0
 29 30  1  0
 31 29  2  0
M  END
$$$$
