WCH.pdb
     RDKit          3D

 31 33  0  0  1  0  0  0  0  0999 V2000
   26.2295  -20.8185  -15.9911 N   0  0  0  0  0  0  0  0  0  0  0  0
   24.9177  -20.3422  -15.7056 C   0  0  1  0  0  0  0  0  0  0  0  0
   24.0779  -20.3753  -16.9528 C   0  0  0  0  0  0  0  0  0  0  0  0
   24.4708  -19.4403  -18.0018 C   0  0  0  0  0  0  0  0  0  0  0  0
   25.1884  -19.8033  -19.1194 C   0  0  0  0  0  0  0  0  0  0  0  0
   25.3868  -18.6966  -19.8432 N   0  0  0  0  0  0  0  0  0  0  0  0
   24.8248  -17.6055  -19.2462 C   0  0  0  0  0  0  0  0  0  0  0  0
   24.7607  -16.2795  -19.6020 C   0  0  0  0  0  0  0  0  0  0  0  0
   24.1120  -15.3823  -18.8014 C   0  0  0  0  0  0  0  0  0  0  0  0
   23.5258  -15.8292  -17.6362 C   0  0  0  0  0  0  0  0  0  0  0  0
   23.5963  -17.1549  -17.2913 C   0  0  0  0  0  0  0  0  0  0  0  0
   24.2505  -18.0894  -18.0864 C   0  0  0  0  0  0  0  0  0  0  0  0
   24.2208  -21.1265  -14.6378 C   0  0  0  0  0  0  0  0  0  0  0  0
   23.8024  -22.2951  -14.8652 O   0  0  0  0  0  0  0  0  0  0  0  0
   23.9861  -20.6264  -13.3275 N   0  0  0  0  0  0  0  0  0  0  0  0
   23.2507  -21.3918  -12.3419 C   0  0  1  0  0  0  0  0  0  0  0  0
   23.5345  -20.7900  -10.9823 C   0  0  0  0  0  0  0  0  0  0  0  0
   25.3001  -21.0066  -10.6319 S   0  0  0  0  0  0  0  0  0  0  0  0
   21.7866  -21.3229  -12.5538 C   0  0  0  0  0  0  0  0  0  0  0  0
   21.1289  -20.2668  -12.6958 O   0  0  0  0  0  0  0  0  0  0  0  0
   21.0768  -22.5526  -12.5989 N   0  0  0  0  0  0  0  0  0  0  0  0
   19.6178  -22.5528  -12.8206 C   0  0  1  0  0  0  0  0  0  0  0  0
   19.2751  -23.9257  -13.3330 C   0  0  0  0  0  0  0  0  0  0  0  0
   17.8691  -24.1728  -13.6096 C   0  0  0  0  0  0  0  0  0  0  0  0
   17.0106  -25.0987  -13.0858 C   0  0  0  0  0  0  0  0  0  0  0  0
   15.7813  -24.8880  -13.6227 N   0  0  0  0  0  0  0  0  0  0  0  0
   15.8590  -23.8633  -14.4566 C   0  0  0  0  0  0  0  0  0  0  0  0
   17.1035  -23.4203  -14.4624 N   0  0  0  0  0  0  0  0  0  0  0  0
   19.0338  -22.4655  -11.4340 C   0  0  0  0  0  0  0  0  0  0  0  0
   17.8136  -21.9227  -11.1158 O   0  0  0  0  0  0  0  0  0  0  0  0
   19.7480  -22.9424  -10.4859 O   0  0  0  0  0  0  0  0  0  0  0  0
  2  1  1  6
  2  3  1  0
  3  4  1  0
  4  5  2  0
  6  5  1  0
  7  6  1  0
  8  7  2  0
  9  8  1  0
 10 11  1  0
 10  9  2  0
 11 12  2  0
 12  7  1  0
 12  4  1  0
 13  2  1  0
 13 15  1  0
 14 13  2  0
 16 15  1  0
 16 17  1  1
 17 18  1  0
 19 16  1  0
 20 19  2  0
 21 19  1  0
 22 21  1  0
 23 24  1  0
 22 23  1  1
 24 25  2  0
 26 25  1  0
 27 26  1  0
 28 27  2  0
 28 24  1  0
 29 22  1  0
 29 30  1  0
 31 29  2  0
M  END
$$$$
