WCH.pdb
     RDKit          3D

 31 33  0  0  1  0  0  0  0  0999 V2000
   24.3069  -14.8447  -15.4015 N   0  0  0  0  0  0  0  0  0  0  0  0
   23.7269  -13.8827  -16.2776 C   0  0  1  0  0  0  0  0  0  0  0  0
   22.2466  -14.1215  -16.3928 C   0  0  0  0  0  0  0  0  0  0  0  0
   21.8562  -15.4565  -16.8337 C   0  0  0  0  0  0  0  0  0  0  0  0
   21.9788  -15.8987  -18.1318 C   0  0  0  0  0  0  0  0  0  0  0  0
   21.5054  -17.1486  -18.1741 N   0  0  0  0  0  0  0  0  0  0  0  0
   21.0708  -17.5567  -16.9463 C   0  0  0  0  0  0  0  0  0  0  0  0
   20.5206  -18.7334  -16.4974 C   0  0  0  0  0  0  0  0  0  0  0  0
   20.1763  -18.8753  -15.1828 C   0  0  0  0  0  0  0  0  0  0  0  0
   20.3899  -17.8218  -14.3193 C   0  0  0  0  0  0  0  0  0  0  0  0
   20.9395  -16.6520  -14.7787 C   0  0  0  0  0  0  0  0  0  0  0  0
   21.2984  -16.4798  -16.1110 C   0  0  0  0  0  0  0  0  0  0  0  0
   23.9516  -12.4692  -15.8390 C   0  0  0  0  0  0  0  0  0  0  0  0
   23.7200  -12.1186  -14.6492 O   0  0  0  0  0  0  0  0  0  0  0  0
   24.4282  -11.4479  -16.7061 N   0  0  0  0  0  0  0  0  0  0  0  0
   24.6021  -10.0838  -16.2510 C   0  0  1  0  0  0  0  0  0  0  0  0
   25.9378   -9.5909  -16.7648 C   0  0  0  0  0  0  0  0  0  0  0  0
   26.1329   -7.8636  -16.2493 S   0  0  0  0  0  0  0  0  0  0  0  0
   23.5641   -9.1746  -16.7887 C   0  0  0  0  0  0  0  0  0  0  0  0
   23.2855   -9.0377  -18.0018 O   0  0  0  0  0  0  0  0  0  0  0  0
   22.8293   -8.3994  -15.8521 N   0  0  0  0  0  0  0  0  0  0  0  0
   21.7810   -7.4739  -16.3239 C   0  0  1  0  0  0  0  0  0  0  0  0
   20.5570   -8.3172  -16.5593 C   0  0  0  0  0  0  0  0  0  0  0  0
   19.3468   -7.5998  -16.9269 C   0  0  0  0  0  0  0  0  0  0  0  0
   19.1420   -6.2702  -17.1695 C   0  0  0  0  0  0  0  0  0  0  0  0
   17.8460   -6.1016  -17.5380 N   0  0  0  0  0  0  0  0  0  0  0  0
   17.2516   -7.2840  -17.5300 C   0  0  0  0  0  0  0  0  0  0  0  0
   18.1355   -8.1957  -17.1662 N   0  0  0  0  0  0  0  0  0  0  0  0
   21.4754   -6.6186  -15.1213 C   0  0  0  0  0  0  0  0  0  0  0  0
   22.0498   -6.7520  -13.8816 O   0  0  0  0  0  0  0  0  0  0  0  0
   20.6060   -5.6949  -15.2875 O   0  0  0  0  0  0  0  0  0  0  0  0
  2  1  1  1
  2  3  1  0
  3  4  1  0
  4  5  2  0
  6  5  1  0
  7  6  1  0
  8  7  2  0
  9  8  1  0
 10 11  1  0
 10  9  2  0
 11 12  2  0
 12  7  1  0
 12  4  1  0
 13  2  1  0
 13 15  1  0
 14 13  2  0
 16 15  1  0
 16 17  1  6
 17 18  1  0
 19 16  1  0
 20 19  2  0
 21 19  1  0
 22 21  1  0
 23 24  1  0
 22 23  1  1
 24 25  2  0
 26 25  1  0
 27 26  1  0
 28 27  2  0
 28 24  1  0
 29 22  1  0
 29 30  1  0
 31 29  2  0
M  END
$$$$
