WCH.pdb
     RDKit          3D

 31 33  0  0  1  0  0  0  0  0999 V2000
   18.7961  -25.0076  -15.1867 N   0  0  0  0  0  0  0  0  0  0  0  0
   19.8629  -25.9438  -15.0649 C   0  0  1  0  0  0  0  0  0  0  0  0
   21.1613  -25.2158  -14.8510 C   0  0  0  0  0  0  0  0  0  0  0  0
   21.5280  -24.2622  -15.8927 C   0  0  0  0  0  0  0  0  0  0  0  0
   21.5044  -22.8963  -15.7209 C   0  0  0  0  0  0  0  0  0  0  0  0
   21.8741  -22.3418  -16.8802 N   0  0  0  0  0  0  0  0  0  0  0  0
   22.1447  -23.2924  -17.8214 C   0  0  0  0  0  0  0  0  0  0  0  0
   22.5560  -23.2157  -19.1305 C   0  0  0  0  0  0  0  0  0  0  0  0
   22.7625  -24.3552  -19.8555 C   0  0  0  0  0  0  0  0  0  0  0  0
   22.5519  -25.5772  -19.2527 C   0  0  0  0  0  0  0  0  0  0  0  0
   22.1411  -25.6416  -17.9456 C   0  0  0  0  0  0  0  0  0  0  0  0
   21.9225  -24.4984  -17.1848 C   0  0  0  0  0  0  0  0  0  0  0  0
   19.6709  -26.9200  -13.9463 C   0  0  0  0  0  0  0  0  0  0  0  0
   19.3912  -26.5203  -12.7825 O   0  0  0  0  0  0  0  0  0  0  0  0
   19.7868  -28.3278  -14.1087 N   0  0  0  0  0  0  0  0  0  0  0  0
   19.5869  -29.2401  -13.0014 C   0  0  1  0  0  0  0  0  0  0  0  0
   18.1561  -29.7308  -13.0582 C   0  0  0  0  0  0  0  0  0  0  0  0
   17.8698  -30.4316  -14.7057 S   0  0  0  0  0  0  0  0  0  0  0  0
   20.4618  -30.4317  -13.0891 C   0  0  0  0  0  0  0  0  0  0  0  0
   21.0458  -30.8211  -14.1262 O   0  0  0  0  0  0  0  0  0  0  0  0
   20.6507  -31.1893  -11.9023 N   0  0  0  0  0  0  0  0  0  0  0  0
   21.5509  -32.3587  -11.9109 C   0  0  1  0  0  0  0  0  0  0  0  0
   21.9834  -32.5611  -10.4837 C   0  0  0  0  0  0  0  0  0  0  0  0
   23.3881  -32.3146  -10.1998 C   0  0  0  0  0  0  0  0  0  0  0  0
   24.3974  -31.8878  -11.0170 C   0  0  0  0  0  0  0  0  0  0  0  0
   25.5213  -31.7529  -10.2670 N   0  0  0  0  0  0  0  0  0  0  0  0
   25.2327  -32.0819   -9.0180 C   0  0  0  0  0  0  0  0  0  0  0  0
   23.9577  -32.4216   -8.9573 N   0  0  0  0  0  0  0  0  0  0  0  0
   20.6469  -33.5179  -12.2429 C   0  0  0  0  0  0  0  0  0  0  0  0
   19.2835  -33.5368  -12.0825 O   0  0  0  0  0  0  0  0  0  0  0  0
   21.2138  -34.5638  -12.7133 O   0  0  0  0  0  0  0  0  0  0  0  0
  2  1  1  1
  2  3  1  0
  3  4  1  0
  4  5  2  0
  6  5  1  0
  7  6  1  0
  8  7  2  0
  9  8  1  0
 10 11  1  0
 10  9  2  0
 11 12  2  0
 12  7  1  0
 12  4  1  0
 13  2  1  0
 13 15  1  0
 14 13  2  0
 16 15  1  0
 16 17  1  6
 17 18  1  0
 19 16  1  0
 20 19  2  0
 21 19  1  0
 22 21  1  0
 23 24  1  0
 22 23  1  1
 24 25  2  0
 26 25  1  0
 27 26  1  0
 28 27  2  0
 28 24  1  0
 29 22  1  0
 29 30  1  0
 31 29  2  0
M  END
$$$$
