NNS.pdb
     RDKit          3D

 23 22  0  0  1  0  0  0  0  0999 V2000
   10.7481  -15.9195   13.2005 N   0  0  0  0  0  0  0  0  0  0  0  0
   10.3494  -16.5477   14.3967 C   0  0  0  0  0  0  0  0  0  0  0  0
    9.1622  -16.8752   14.5653 O   0  0  0  0  0  0  0  0  0  0  0  0
   11.3472  -16.8162   15.4487 C   0  0  0  0  0  0  0  0  0  0  0  0
   11.0158  -15.9742   16.6261 C   0  0  2  0  0  0  0  0  0  0  0  0
   10.8349  -14.6120   16.2392 N   0  0  0  0  0  0  0  0  0  0  0  0
   11.9432  -16.0749   17.7647 C   0  0  0  0  0  0  0  0  0  0  0  0
   12.0083  -17.1790   18.3638 O   0  0  0  0  0  0  0  0  0  0  0  0
   16.2355  -15.7251   17.1846 N   0  0  0  0  0  0  0  0  0  0  0  0
   15.5430  -14.6058   17.7149 C   0  0  0  0  0  0  0  0  0  0  0  0
   15.3776  -13.6306   16.9437 O   0  0  0  0  0  0  0  0  0  0  0  0
   15.0253  -14.5429   19.0933 C   0  0  0  0  0  0  0  0  0  0  0  0
   13.6838  -15.1064   19.3197 C   0  0  2  0  0  0  0  0  0  0  0  0
   12.7563  -15.0082   18.2153 N   0  0  0  0  0  0  0  0  0  0  0  0
   13.0472  -14.9818   20.6194 C   0  0  0  0  0  0  0  0  0  0  0  0
   13.3473  -13.9105   21.2893 O   0  0  0  0  0  0  0  0  0  0  0  0
    9.6607  -16.7441   22.0223 O   0  0  0  0  0  0  0  0  0  0  0  0
   10.1649  -15.6057   22.6769 C   0  0  0  0  0  0  0  0  0  0  0  0
   11.6665  -15.6177   22.6189 C   0  0  2  0  0  0  0  0  0  0  0  0
   12.1566  -15.8588   21.2550 N   0  0  0  0  0  0  0  0  0  0  0  0
   12.2419  -16.6214   23.5274 C   0  0  0  0  0  0  0  0  0  0  0  0
   12.0500  -16.5632   24.8956 O   0  0  0  0  0  0  0  0  0  0  0  0
   12.9407  -17.5855   23.0807 O   0  0  0  0  0  0  0  0  0  0  0  0
  1  2  1  0
  2  4  1  0
  3  2  2  0
  4  5  1  0
  5  6  1  6
  7  5  1  0
  8  7  2  0
 10  9  1  0
 11 10  2  0
 12 10  1  0
 13 12  1  6
 13 15  1  0
 13 14  1  0
 14  7  1  0
 15 20  1  0
 16 15  2  0
 18 17  1  0
 19 18  1  6
 19 21  1  0
 20 19  1  0
 21 23  2  0
 21 22  1  0
M  END
$$$$
