NNS.pdb
     RDKit          3D

 23 22  0  0  1  0  0  0  0  0999 V2000
    9.3775  -17.2959   14.0883 N   0  0  0  0  0  0  0  0  0  0  0  0
    8.4693  -17.2302   15.1631 C   0  0  0  0  0  0  0  0  0  0  0  0
    7.4234  -17.9017   15.1398 O   0  0  0  0  0  0  0  0  0  0  0  0
    8.7649  -16.3615   16.3173 C   0  0  0  0  0  0  0  0  0  0  0  0
    9.4448  -17.1819   17.3515 C   0  0  2  0  0  0  0  0  0  0  0  0
    8.7383  -18.4022   17.5745 N   0  0  0  0  0  0  0  0  0  0  0  0
    9.7244  -16.5000   18.6257 C   0  0  0  0  0  0  0  0  0  0  0  0
   10.9259  -16.2412   18.8935 O   0  0  0  0  0  0  0  0  0  0  0  0
    6.4044  -13.2352   19.7436 N   0  0  0  0  0  0  0  0  0  0  0  0
    7.6208  -13.3845   20.4589 C   0  0  0  0  0  0  0  0  0  0  0  0
    8.4543  -12.4536   20.3501 O   0  0  0  0  0  0  0  0  0  0  0  0
    7.9367  -14.5531   21.2993 C   0  0  0  0  0  0  0  0  0  0  0  0
    8.9926  -15.4533   20.8062 C   0  0  2  0  0  0  0  0  0  0  0  0
    8.7249  -16.1243   19.5540 N   0  0  0  0  0  0  0  0  0  0  0  0
    9.7622  -16.2588   21.7383 C   0  0  0  0  0  0  0  0  0  0  0  0
    9.3449  -17.4776   21.9022 O   0  0  0  0  0  0  0  0  0  0  0  0
   13.6422  -16.4539   22.2043 O   0  0  0  0  0  0  0  0  0  0  0  0
   13.0542  -16.5323   23.4798 C   0  0  0  0  0  0  0  0  0  0  0  0
   11.5970  -16.8720   23.3403 C   0  0  2  0  0  0  0  0  0  0  0  0
   10.8913  -15.9036   22.4902 N   0  0  0  0  0  0  0  0  0  0  0  0
   10.9257  -16.9529   24.6467 C   0  0  0  0  0  0  0  0  0  0  0  0
   11.3219  -17.8552   25.6167 O   0  0  0  0  0  0  0  0  0  0  0  0
    9.9501  -16.1880   24.9305 O   0  0  0  0  0  0  0  0  0  0  0  0
  1  2  1  0
  2  4  1  0
  3  2  2  0
  4  5  1  0
  5  6  1  1
  7  5  1  0
  8  7  2  0
 10  9  1  0
 11 10  2  0
 12 10  1  0
 13 12  1  1
 13 15  1  0
 13 14  1  0
 14  7  1  0
 15 20  1  0
 16 15  2  0
 18 17  1  0
 19 18  1  1
 19 21  1  0
 20 19  1  0
 21 23  2  0
 21 22  1  0
M  END
$$$$
