NNS.pdb
     RDKit          3D

 23 22  0  0  1  0  0  0  0  0999 V2000
    7.9553  -12.1509   18.6856 N   0  0  0  0  0  0  0  0  0  0  0  0
    7.9241  -13.5025   19.0811 C   0  0  0  0  0  0  0  0  0  0  0  0
    8.3378  -14.3884   18.3135 O   0  0  0  0  0  0  0  0  0  0  0  0
    7.3987  -13.8626   20.4111 C   0  0  0  0  0  0  0  0  0  0  0  0
    8.4607  -14.5968   21.1446 C   0  0  2  0  0  0  0  0  0  0  0  0
    8.8648  -15.7590   20.4207 N   0  0  0  0  0  0  0  0  0  0  0  0
    8.1542  -14.9338   22.5443 C   0  0  0  0  0  0  0  0  0  0  0  0
    7.6643  -14.0269   23.2652 O   0  0  0  0  0  0  0  0  0  0  0  0
    5.0574  -17.6127   24.0181 N   0  0  0  0  0  0  0  0  0  0  0  0
    6.3435  -18.1997   23.8959 C   0  0  0  0  0  0  0  0  0  0  0  0
    6.4820  -19.0678   23.0013 O   0  0  0  0  0  0  0  0  0  0  0  0
    7.4895  -17.8428   24.7510 C   0  0  0  0  0  0  0  0  0  0  0  0
    8.1178  -16.5351   24.4988 C   0  0  2  0  0  0  0  0  0  0  0  0
    8.3781  -16.2091   23.1148 N   0  0  0  0  0  0  0  0  0  0  0  0
    9.1222  -16.0173   25.4114 C   0  0  0  0  0  0  0  0  0  0  0  0
   10.3492  -16.3415   25.1359 O   0  0  0  0  0  0  0  0  0  0  0  0
    8.6596  -13.2252   28.4383 O   0  0  0  0  0  0  0  0  0  0  0  0
    9.9393  -13.3988   27.8807 C   0  0  0  0  0  0  0  0  0  0  0  0
   10.0864  -14.8128   27.3934 C   0  0  2  0  0  0  0  0  0  0  0  0
    8.9528  -15.2192   26.5519 N   0  0  0  0  0  0  0  0  0  0  0  0
   10.2319  -15.7635   28.5064 C   0  0  0  0  0  0  0  0  0  0  0  0
   11.2681  -15.6686   29.4172 O   0  0  0  0  0  0  0  0  0  0  0  0
    9.4015  -16.7127   28.6702 O   0  0  0  0  0  0  0  0  0  0  0  0
  1  2  1  0
  2  4  1  0
  3  2  2  0
  4  5  1  0
  5  6  1  6
  7  5  1  0
  8  7  2  0
 10  9  1  0
 11 10  2  0
 12 10  1  0
 13 12  1  6
 13 15  1  0
 13 14  1  0
 14  7  1  0
 15 20  1  0
 16 15  2  0
 18 17  1  0
 19 18  1  1
 19 21  1  0
 20 19  1  0
 21 23  2  0
 21 22  1  0
M  END
$$$$
