NNS.pdb
     RDKit          3D

 23 22  0  0  1  0  0  0  0  0999 V2000
    2.8357  -21.6081   22.0978 N   0  0  0  0  0  0  0  0  0  0  0  0
    3.6583  -20.4867   21.8739 C   0  0  0  0  0  0  0  0  0  0  0  0
    3.4309  -19.7252   20.9180 O   0  0  0  0  0  0  0  0  0  0  0  0
    4.7910  -20.2191   22.7794 C   0  0  0  0  0  0  0  0  0  0  0  0
    5.8706  -19.5727   21.9910 C   0  0  2  0  0  0  0  0  0  0  0  0
    6.2810  -20.4120   20.9116 N   0  0  0  0  0  0  0  0  0  0  0  0
    7.0347  -19.1081   22.7629 C   0  0  0  0  0  0  0  0  0  0  0  0
    7.4358  -19.8396   23.7042 O   0  0  0  0  0  0  0  0  0  0  0  0
   11.2918  -17.3988   20.7224 N   0  0  0  0  0  0  0  0  0  0  0  0
   10.0821  -16.7835   21.1364 C   0  0  0  0  0  0  0  0  0  0  0  0
    9.2648  -16.4868   20.2324 O   0  0  0  0  0  0  0  0  0  0  0  0
    9.7552  -16.4871   22.5425 C   0  0  0  0  0  0  0  0  0  0  0  0
    8.8848  -17.4526   23.2343 C   0  0  2  0  0  0  0  0  0  0  0  0
    7.7186  -17.8967   22.5046 N   0  0  0  0  0  0  0  0  0  0  0  0
    8.6614  -17.3424   24.6653 C   0  0  0  0  0  0  0  0  0  0  0  0
    7.7773  -16.4630   25.0279 O   0  0  0  0  0  0  0  0  0  0  0  0
    7.2992  -19.5600   27.2571 O   0  0  0  0  0  0  0  0  0  0  0  0
    7.4772  -18.1712   27.3923 C   0  0  0  0  0  0  0  0  0  0  0  0
    8.9125  -17.8204   27.1184 C   0  0  2  0  0  0  0  0  0  0  0  0
    9.2701  -18.0499   25.7120 N   0  0  0  0  0  0  0  0  0  0  0  0
    9.8349  -18.5714   27.9839 C   0  0  0  0  0  0  0  0  0  0  0  0
    9.7555  -18.5099   29.3630 O   0  0  0  0  0  0  0  0  0  0  0  0
   10.7439  -19.3098   27.4881 O   0  0  0  0  0  0  0  0  0  0  0  0
  1  2  1  0
  2  4  1  0
  3  2  2  0
  4  5  1  0
  5  6  1  6
  7  5  1  0
  8  7  2  0
 10  9  1  0
 11 10  2  0
 12 10  1  0
 13 12  1  6
 13 15  1  0
 13 14  1  0
 14  7  1  0
 15 20  1  0
 16 15  2  0
 18 17  1  0
 19 18  1  6
 19 21  1  0
 20 19  1  0
 21 23  2  0
 21 22  1  0
M  END
$$$$
