NNS.pdb
     RDKit          3D

 23 22  0  0  1  0  0  0  0  0999 V2000
    8.3673  -12.0047   18.8915 N   0  0  0  0  0  0  0  0  0  0  0  0
    7.9370  -13.3447   18.9512 C   0  0  0  0  0  0  0  0  0  0  0  0
    8.0604  -14.0859   17.9609 O   0  0  0  0  0  0  0  0  0  0  0  0
    7.3396  -13.8654   20.1947 C   0  0  0  0  0  0  0  0  0  0  0  0
    8.4196  -14.4883   21.0012 C   0  0  2  0  0  0  0  0  0  0  0  0
    9.0745  -15.5182   20.2606 N   0  0  0  0  0  0  0  0  0  0  0  0
    8.0232  -14.9743   22.3329 C   0  0  0  0  0  0  0  0  0  0  0  0
    7.3293  -14.2063   23.0477 O   0  0  0  0  0  0  0  0  0  0  0  0
    6.9135  -19.4943   22.3100 N   0  0  0  0  0  0  0  0  0  0  0  0
    6.6420  -18.5988   23.3767 C   0  0  0  0  0  0  0  0  0  0  0  0
    5.4530  -18.2202   23.5034 O   0  0  0  0  0  0  0  0  0  0  0  0
    7.6682  -18.1093   24.3143 C   0  0  0  0  0  0  0  0  0  0  0  0
    8.0615  -16.6964   24.1818 C   0  0  2  0  0  0  0  0  0  0  0  0
    8.3767  -16.2449   22.8452 N   0  0  0  0  0  0  0  0  0  0  0  0
    8.8682  -16.0616   25.2095 C   0  0  0  0  0  0  0  0  0  0  0  0
   10.1468  -16.0389   24.9831 O   0  0  0  0  0  0  0  0  0  0  0  0
    9.7568  -13.1927   29.0008 O   0  0  0  0  0  0  0  0  0  0  0  0
    8.7817  -13.7936   28.1842 C   0  0  0  0  0  0  0  0  0  0  0  0
    9.4193  -14.8689   27.3502 C   0  0  2  0  0  0  0  0  0  0  0  0
    8.4605  -15.4730   26.4152 N   0  0  0  0  0  0  0  0  0  0  0  0
   10.0192  -15.9238   28.1815 C   0  0  0  0  0  0  0  0  0  0  0  0
   11.2257  -15.7430   28.8325 O   0  0  0  0  0  0  0  0  0  0  0  0
    9.4425  -17.0473   28.3315 O   0  0  0  0  0  0  0  0  0  0  0  0
  1  2  1  0
  2  4  1  0
  3  2  2  0
  4  5  1  0
  5  6  1  6
  7  5  1  0
  8  7  2  0
 10  9  1  0
 11 10  2  0
 12 10  1  0
 13 12  1  6
 13 15  1  0
 13 14  1  0
 14  7  1  0
 15 20  1  0
 16 15  2  0
 18 17  1  0
 19 18  1  1
 19 21  1  0
 20 19  1  0
 21 23  2  0
 21 22  1  0
M  END
$$$$
