NNS.pdb
     RDKit          3D

 23 22  0  0  1  0  0  0  0  0999 V2000
    7.3288  -13.3014   14.6001 N   0  0  0  0  0  0  0  0  0  0  0  0
    7.3380  -14.0041   15.8209 C   0  0  0  0  0  0  0  0  0  0  0  0
    7.6586  -15.2048   15.8489 O   0  0  0  0  0  0  0  0  0  0  0  0
    6.9663  -13.3087   17.0669 C   0  0  0  0  0  0  0  0  0  0  0  0
    8.0453  -13.5338   18.0619 C   0  0  2  0  0  0  0  0  0  0  0  0
    9.3231  -13.2376   17.4984 N   0  0  0  0  0  0  0  0  0  0  0  0
    8.0532  -14.8568   18.7072 C   0  0  0  0  0  0  0  0  0  0  0  0
    7.0249  -15.1960   19.3473 O   0  0  0  0  0  0  0  0  0  0  0  0
    9.7668  -20.6793   18.5304 N   0  0  0  0  0  0  0  0  0  0  0  0
    9.0274  -19.5492   18.9658 C   0  0  0  0  0  0  0  0  0  0  0  0
    8.2492  -19.7259   19.9335 O   0  0  0  0  0  0  0  0  0  0  0  0
    9.1322  -18.2158   18.3470 C   0  0  0  0  0  0  0  0  0  0  0  0
    9.1514  -17.0636   19.2638 C   0  0  2  0  0  0  0  0  0  0  0  0
    9.1432  -15.7568   18.6457 N   0  0  0  0  0  0  0  0  0  0  0  0
    9.9289  -17.1162   20.4896 C   0  0  0  0  0  0  0  0  0  0  0  0
   11.1214  -16.6067   20.4184 O   0  0  0  0  0  0  0  0  0  0  0  0
    9.5999  -15.8390   24.1583 O   0  0  0  0  0  0  0  0  0  0  0  0
    9.8058  -17.2306   24.1534 C   0  0  0  0  0  0  0  0  0  0  0  0
   10.4985  -17.6305   22.8812 C   0  0  2  0  0  0  0  0  0  0  0  0
    9.5743  -17.6442   21.7393 N   0  0  0  0  0  0  0  0  0  0  0  0
   11.1452  -18.9464   22.9998 C   0  0  0  0  0  0  0  0  0  0  0  0
   12.1388  -19.1906   23.9300 O   0  0  0  0  0  0  0  0  0  0  0  0
   10.8085  -19.9125   22.2444 O   0  0  0  0  0  0  0  0  0  0  0  0
  1  2  1  0
  2  4  1  0
  3  2  2  0
  4  5  1  0
  5  6  1  6
  7  5  1  0
  8  7  2  0
 10  9  1  0
 11 10  2  0
 12 10  1  0
 13 12  1  6
 13 15  1  0
 13 14  1  0
 14  7  1  0
 15 20  1  0
 16 15  2  0
 18 17  1  0
 19 18  1  1
 19 21  1  0
 20 19  1  0
 21 23  2  0
 21 22  1  0
M  END
$$$$
