NNS.pdb
     RDKit          3D

 23 22  0  0  1  0  0  0  0  0999 V2000
    8.1359  -13.0379   15.7120 N   0  0  0  0  0  0  0  0  0  0  0  0
    7.5461  -14.3168   15.6805 C   0  0  0  0  0  0  0  0  0  0  0  0
    6.5401  -14.5243   14.9804 O   0  0  0  0  0  0  0  0  0  0  0  0
    8.1279  -15.4096   16.4816 C   0  0  0  0  0  0  0  0  0  0  0  0
    9.1971  -14.8366   17.3379 C   0  0  2  0  0  0  0  0  0  0  0  0
   10.2212  -14.2432   16.5397 N   0  0  0  0  0  0  0  0  0  0  0  0
    9.7765  -15.7519   18.3345 C   0  0  0  0  0  0  0  0  0  0  0  0
    8.9903  -16.2837   19.1598 O   0  0  0  0  0  0  0  0  0  0  0  0
   12.7171  -19.7542   17.5861 N   0  0  0  0  0  0  0  0  0  0  0  0
   12.8880  -18.3527   17.7280 C   0  0  0  0  0  0  0  0  0  0  0  0
   12.9971  -17.6901   16.6687 O   0  0  0  0  0  0  0  0  0  0  0  0
   12.9411  -17.6633   19.0294 C   0  0  0  0  0  0  0  0  0  0  0  0
   11.7392  -16.9106   19.4259 C   0  0  2  0  0  0  0  0  0  0  0  0
   11.1549  -16.0621   18.4119 N   0  0  0  0  0  0  0  0  0  0  0  0
   11.6258  -16.3664   20.7679 C   0  0  0  0  0  0  0  0  0  0  0  0
   12.5658  -15.5419   21.1189 O   0  0  0  0  0  0  0  0  0  0  0  0
    8.4056  -16.5424   23.4099 O   0  0  0  0  0  0  0  0  0  0  0  0
    9.3318  -15.4867   23.4916 C   0  0  0  0  0  0  0  0  0  0  0  0
   10.6875  -15.9749   23.0646 C   0  0  2  0  0  0  0  0  0  0  0  0
   10.6453  -16.6097   21.7404 N   0  0  0  0  0  0  0  0  0  0  0  0
   11.2622  -16.9165   24.0377 C   0  0  0  0  0  0  0  0  0  0  0  0
   11.5571  -18.2250   23.7014 O   0  0  0  0  0  0  0  0  0  0  0  0
   11.5102  -16.5550   25.2315 O   0  0  0  0  0  0  0  0  0  0  0  0
  1  2  1  0
  2  4  1  0
  3  2  2  0
  4  5  1  0
  5  6  1  6
  7  5  1  0
  8  7  2  0
 10  9  1  0
 11 10  2  0
 12 10  1  0
 13 12  1  6
 13 15  1  0
 13 14  1  0
 14  7  1  0
 15 20  1  0
 16 15  2  0
 18 17  1  0
 19 18  1  1
 19 21  1  0
 20 19  1  0
 21 23  2  0
 21 22  1  0
M  END
$$$$
