NNS.pdb
     RDKit          3D

 23 22  0  0  1  0  0  0  0  0999 V2000
    8.6570  -12.6996   17.5913 N   0  0  0  0  0  0  0  0  0  0  0  0
    7.9626  -13.8897   17.8842 C   0  0  0  0  0  0  0  0  0  0  0  0
    7.8596  -14.7814   17.0243 O   0  0  0  0  0  0  0  0  0  0  0  0
    7.3583  -14.0739   19.2166 C   0  0  0  0  0  0  0  0  0  0  0  0
    8.4307  -14.4842   20.1581 C   0  0  2  0  0  0  0  0  0  0  0  0
    9.1487  -15.6081   19.6486 N   0  0  0  0  0  0  0  0  0  0  0  0
    8.0048  -14.7226   21.5468 C   0  0  0  0  0  0  0  0  0  0  0  0
    7.3068  -13.8344   22.0999 O   0  0  0  0  0  0  0  0  0  0  0  0
    5.9865  -18.2093   25.7704 N   0  0  0  0  0  0  0  0  0  0  0  0
    7.3038  -17.9048   25.3399 C   0  0  0  0  0  0  0  0  0  0  0  0
    8.1972  -17.9082   26.2203 O   0  0  0  0  0  0  0  0  0  0  0  0
    7.6560  -17.5937   23.9432 C   0  0  0  0  0  0  0  0  0  0  0  0
    7.8391  -16.1708   23.6110 C   0  0  2  0  0  0  0  0  0  0  0  0
    8.3347  -15.8847   22.2835 N   0  0  0  0  0  0  0  0  0  0  0  0
    8.3180  -15.2397   24.6178 C   0  0  0  0  0  0  0  0  0  0  0  0
    9.6089  -15.1531   24.7314 O   0  0  0  0  0  0  0  0  0  0  0  0
    6.0901  -12.6064   26.9310 O   0  0  0  0  0  0  0  0  0  0  0  0
    7.4228  -12.2581   26.6454 C   0  0  0  0  0  0  0  0  0  0  0  0
    8.2327  -13.5061   26.4332 C   0  0  2  0  0  0  0  0  0  0  0  0
    7.5817  -14.4235   25.4884 N   0  0  0  0  0  0  0  0  0  0  0  0
    8.4922  -14.2124   27.6972 C   0  0  0  0  0  0  0  0  0  0  0  0
    9.1997  -13.6252   28.7300 O   0  0  0  0  0  0  0  0  0  0  0  0
    8.0697  -15.3972   27.8844 O   0  0  0  0  0  0  0  0  0  0  0  0
  1  2  1  0
  2  4  1  0
  3  2  2  0
  4  5  1  0
  5  6  1  6
  7  5  1  0
  8  7  2  0
 10  9  1  0
 11 10  2  0
 12 10  1  0
 13 12  1  1
 13 15  1  0
 13 14  1  0
 14  7  1  0
 15 20  1  0
 16 15  2  0
 18 17  1  0
 19 18  1  1
 19 21  1  0
 20 19  1  0
 21 23  2  0
 21 22  1  0
M  END
$$$$
