RQS.pdb
     RDKit          3D

 27 26  0  0  1  0  0  0  0  0999 V2000
   27.2085  -23.1610  -15.0723 N   0  0  0  0  0  0  0  0  0  0  0  0
   26.7082  -22.6497  -16.2985 C   0  0  0  0  0  0  0  0  0  0  0  0
   27.1458  -21.5286  -16.7694 N   0  0  0  0  0  0  0  0  0  0  0  0
   25.7108  -23.3422  -17.0563 N   0  0  0  0  0  0  0  0  0  0  0  0
   24.3112  -23.3149  -16.6587 C   0  0  0  0  0  0  0  0  0  0  0  0
   24.1426  -24.4117  -15.6292 C   0  0  0  0  0  0  0  0  0  0  0  0
   22.7134  -24.5698  -15.1613 C   0  0  0  0  0  0  0  0  0  0  0  0
   22.4552  -23.4099  -14.2144 C   0  0  2  0  0  0  0  0  0  0  0  0
   23.3016  -23.5844  -13.0465 N   0  0  0  0  0  0  0  0  0  0  0  0
   21.0560  -23.3497  -13.7808 C   0  0  0  0  0  0  0  0  0  0  0  0
   20.0701  -23.4734  -14.5586 O   0  0  0  0  0  0  0  0  0  0  0  0
   26.8329  -21.2125  -17.6925 N   0  0  0  0  0  0  0  0  0  0  0  0
   18.9356  -24.6469   -7.9411 C   0  0  0  0  0  0  0  0  0  0  0  0
   19.0915  -25.6286   -8.9546 O   0  0  0  0  0  0  0  0  0  0  0  0
   19.0156  -26.8607   -8.6380 C   0  0  0  0  0  0  0  0  0  0  0  0
   19.3320  -25.1733  -10.3259 C   0  0  0  0  0  0  0  0  0  0  0  0
   19.3047  -23.6767  -10.4913 C   0  0  2  0  0  0  0  0  0  0  0  0
   19.4153  -23.1978  -11.8938 N   0  0  0  0  0  0  0  0  0  0  0  0
   20.7544  -23.1419  -12.4121 C   0  0  0  0  0  0  0  0  0  0  0  0
   18.6723  -21.9198  -12.1212 O   0  0  0  0  0  0  0  0  0  0  0  0
   19.0396  -20.8433  -11.5661 O   0  0  0  0  0  0  0  0  0  0  0  0
   16.4930  -21.2161  -15.3694 C   0  0  0  0  0  0  0  0  0  0  0  0
   16.9622  -20.1468  -14.6250 C   0  0  1  0  0  0  0  0  0  0  0  0
   16.8621  -20.5281  -13.1537 N   0  0  0  0  0  0  0  0  0  0  0  0
   17.5235  -21.8254  -12.9597 C   0  0  0  0  0  0  0  0  0  0  0  0
   15.4730  -20.6509  -12.7133 O   0  0  0  0  0  0  0  0  0  0  0  0
   14.9411  -21.8510  -12.2462 O   0  0  0  0  0  0  0  0  0  0  0  0
  2  3  2  0
  2  1  1  0
  4  2  1  0
  5  4  1  0
  6  5  1  0
  7  8  1  0
  7  6  1  0
  8 10  1  0
  8  9  1  1
 10 11  2  0
 12 13  1  0
 13 15  1  0
 14 13  2  0
 16 15  1  0
 17 16  1  6
 18 17  1  0
 18 10  1  0
 19 20  2  0
 19 17  1  0
 21 22  1  0
 23 22  1  1
 23 24  1  0
 23 25  1  0
 24 19  1  0
 25 26  1  0
 27 25  2  0
M  END
$$$$
