RQS.pdb
     RDKit          3D

 27 26  0  0  1  0  0  0  0  0999 V2000
   26.5697  -19.8964   -9.3377 N   0  0  0  0  0  0  0  0  0  0  0  0
   25.6755  -20.9813   -9.5343 C   0  0  0  0  0  0  0  0  0  0  0  0
   24.7452  -21.2294   -8.6722 N   0  0  0  0  0  0  0  0  0  0  0  0
   25.7636  -21.8368  -10.6784 N   0  0  0  0  0  0  0  0  0  0  0  0
   26.7939  -21.6394  -11.6868 C   0  0  0  0  0  0  0  0  0  0  0  0
   26.3078  -20.5130  -12.5734 C   0  0  0  0  0  0  0  0  0  0  0  0
   25.7913  -20.9931  -13.9110 C   0  0  0  0  0  0  0  0  0  0  0  0
   24.6467  -21.9422  -13.5983 C   0  0  2  0  0  0  0  0  0  0  0  0
   25.0122  -23.2633  -14.0797 N   0  0  0  0  0  0  0  0  0  0  0  0
   23.3954  -21.5323  -14.2431 C   0  0  0  0  0  0  0  0  0  0  0  0
   22.9906  -21.9841  -15.3496 O   0  0  0  0  0  0  0  0  0  0  0  0
   24.0895  -21.9977   -8.8445 N   0  0  0  0  0  0  0  0  0  0  0  0
   17.9836  -21.1181  -13.6661 C   0  0  0  0  0  0  0  0  0  0  0  0
   18.6561  -21.4655  -12.4651 O   0  0  0  0  0  0  0  0  0  0  0  0
   18.1578  -22.3691  -11.7173 C   0  0  0  0  0  0  0  0  0  0  0  0
   19.9007  -20.7636  -12.1428 C   0  0  0  0  0  0  0  0  0  0  0  0
   20.2979  -19.7194  -13.1526 C   0  0  2  0  0  0  0  0  0  0  0  0
   21.2975  -20.1658  -14.1575 N   0  0  0  0  0  0  0  0  0  0  0  0
   22.5641  -20.5727  -13.6143 C   0  0  0  0  0  0  0  0  0  0  0  0
   21.4563  -19.1884  -15.2785 O   0  0  0  0  0  0  0  0  0  0  0  0
   21.5698  -17.9483  -15.0523 O   0  0  0  0  0  0  0  0  0  0  0  0
   21.2919  -20.3089  -19.2299 C   0  0  0  0  0  0  0  0  0  0  0  0
   22.0853  -19.2025  -18.9765 C   0  0  1  0  0  0  0  0  0  0  0  0
   21.5741  -18.5498  -17.6988 N   0  0  0  0  0  0  0  0  0  0  0  0
   21.4897  -19.5749  -16.6500 C   0  0  0  0  0  0  0  0  0  0  0  0
   20.2456  -17.9647  -17.8766 O   0  0  0  0  0  0  0  0  0  0  0  0
   20.0082  -16.9019  -18.7458 O   0  0  0  0  0  0  0  0  0  0  0  0
  2  3  2  0
  2  1  1  0
  4  2  1  0
  5  4  1  0
  6  5  1  0
  7  8  1  0
  7  6  1  0
  8 10  1  0
  8  9  1  6
 10 11  2  0
 12 13  1  0
 13 15  1  0
 14 13  2  0
 16 15  1  0
 17 16  1  1
 18 17  1  0
 18 10  1  0
 19 20  2  0
 19 17  1  0
 21 22  1  0
 23 22  1  1
 23 24  1  0
 23 25  1  0
 24 19  1  0
 25 26  1  0
 27 25  2  0
M  END
$$$$
