RQS.pdb
     RDKit          3D

 27 26  0  0  1  0  0  0  0  0999 V2000
   18.9216  -26.0843  -11.3825 N   0  0  0  0  0  0  0  0  0  0  0  0
   17.8040  -25.4331  -10.7977 C   0  0  0  0  0  0  0  0  0  0  0  0
   16.7209  -26.0903  -10.5427 N   0  0  0  0  0  0  0  0  0  0  0  0
   17.8261  -24.0400  -10.4701 N   0  0  0  0  0  0  0  0  0  0  0  0
   18.6123  -23.0967  -11.2509 C   0  0  0  0  0  0  0  0  0  0  0  0
   17.6783  -22.5350  -12.3013 C   0  0  0  0  0  0  0  0  0  0  0  0
   18.3574  -21.5609  -13.2375 C   0  0  0  0  0  0  0  0  0  0  0  0
   19.2289  -20.6791  -12.3592 C   0  0  2  0  0  0  0  0  0  0  0  0
   18.4966  -19.4554  -12.0813 N   0  0  0  0  0  0  0  0  0  0  0  0
   20.4986  -20.3348  -13.0065 C   0  0  0  0  0  0  0  0  0  0  0  0
   20.8726  -19.1532  -13.2432 O   0  0  0  0  0  0  0  0  0  0  0  0
   16.7192  -27.1116  -10.6248 N   0  0  0  0  0  0  0  0  0  0  0  0
   25.1951  -24.4274  -14.6199 C   0  0  0  0  0  0  0  0  0  0  0  0
   25.7169  -23.1656  -15.0086 O   0  0  0  0  0  0  0  0  0  0  0  0
   26.8808  -23.1109  -15.5248 C   0  0  0  0  0  0  0  0  0  0  0  0
   24.8844  -21.9791  -14.7968 C   0  0  0  0  0  0  0  0  0  0  0  0
   23.5536  -22.2677  -14.1536 C   0  0  2  0  0  0  0  0  0  0  0  0
   22.6301  -21.1062  -14.0729 N   0  0  0  0  0  0  0  0  0  0  0  0
   21.3853  -21.3660  -13.4037 C   0  0  0  0  0  0  0  0  0  0  0  0
   22.4264  -20.4453  -15.3991 O   0  0  0  0  0  0  0  0  0  0  0  0
   21.5682  -20.8813  -16.2209 O   0  0  0  0  0  0  0  0  0  0  0  0
   23.1945  -16.7197  -18.3693 C   0  0  0  0  0  0  0  0  0  0  0  0
   23.3911  -17.2525  -17.1063 C   0  0  1  0  0  0  0  0  0  0  0  0
   22.8861  -18.6894  -17.1268 N   0  0  0  0  0  0  0  0  0  0  0  0
   23.1676  -19.3038  -15.8224 C   0  0  0  0  0  0  0  0  0  0  0  0
   23.5447  -19.4864  -18.1611 O   0  0  0  0  0  0  0  0  0  0  0  0
   23.0802  -19.5366  -19.4738 O   0  0  0  0  0  0  0  0  0  0  0  0
  2  3  2  0
  2  1  1  0
  4  2  1  0
  5  4  1  0
  6  5  1  0
  7  8  1  0
  7  6  1  0
  8 10  1  0
  8  9  1  6
 10 11  2  0
 12 13  1  0
 13 15  1  0
 14 13  2  0
 16 15  1  0
 17 16  1  1
 18 17  1  0
 18 10  1  0
 19 20  2  0
 19 17  1  0
 21 22  1  0
 23 22  1  1
 23 24  1  0
 23 25  1  0
 24 19  1  0
 25 26  1  0
 27 25  2  0
M  END
$$$$
