RQS.pdb
     RDKit          3D

 27 26  0  0  1  0  0  0  0  0999 V2000
   24.6464  -24.8057  -13.7156 N   0  0  0  0  0  0  0  0  0  0  0  0
   24.3954  -24.1203  -14.9332 C   0  0  0  0  0  0  0  0  0  0  0  0
   23.1839  -23.9177  -15.3345 N   0  0  0  0  0  0  0  0  0  0  0  0
   25.4573  -23.6314  -15.7590 N   0  0  0  0  0  0  0  0  0  0  0  0
   26.8172  -23.5279  -15.2518 C   0  0  0  0  0  0  0  0  0  0  0  0
   26.8258  -22.3497  -14.3016 C   0  0  0  0  0  0  0  0  0  0  0  0
   27.1729  -21.0439  -14.9807 C   0  0  0  0  0  0  0  0  0  0  0  0
   27.2695  -20.0109  -13.8707 C   0  0  2  0  0  0  0  0  0  0  0  0
   27.0687  -20.6913  -12.6029 N   0  0  0  0  0  0  0  0  0  0  0  0
   26.2612  -18.9554  -14.0070 C   0  0  0  0  0  0  0  0  0  0  0  0
   25.2060  -18.8940  -13.3178 O   0  0  0  0  0  0  0  0  0  0  0  0
   23.0200  -23.3982  -16.2024 N   0  0  0  0  0  0  0  0  0  0  0  0
   26.3167  -12.7337  -15.1828 C   0  0  0  0  0  0  0  0  0  0  0  0
   26.1086  -13.3307  -16.4539 O   0  0  0  0  0  0  0  0  0  0  0  0
   26.0055  -12.5809  -17.4791 C   0  0  0  0  0  0  0  0  0  0  0  0
   26.0235  -14.7913  -16.5251 C   0  0  0  0  0  0  0  0  0  0  0  0
   26.1997  -15.4836  -15.1994 C   0  0  1  0  0  0  0  0  0  0  0  0
   25.5469  -16.8145  -15.0943 N   0  0  0  0  0  0  0  0  0  0  0  0
   26.4497  -17.9244  -14.9604 C   0  0  0  0  0  0  0  0  0  0  0  0
   24.5357  -17.0414  -16.1728 O   0  0  0  0  0  0  0  0  0  0  0  0
   24.8875  -17.4171  -17.3291 O   0  0  0  0  0  0  0  0  0  0  0  0
   21.7210  -19.9621  -14.7516 C   0  0  0  0  0  0  0  0  0  0  0  0
   22.6175  -18.9072  -14.7870 C   0  0  1  0  0  0  0  0  0  0  0  0
   22.2367  -18.0160  -15.9619 N   0  0  0  0  0  0  0  0  0  0  0  0
   23.1359  -16.8544  -15.9798 C   0  0  0  0  0  0  0  0  0  0  0  0
   20.8614  -17.5300  -15.8574 O   0  0  0  0  0  0  0  0  0  0  0  0
   19.7654  -18.3042  -16.2327 O   0  0  0  0  0  0  0  0  0  0  0  0
  2  3  2  0
  2  1  1  0
  4  2  1  0
  5  4  1  0
  6  5  1  0
  7  8  1  0
  7  6  1  0
  8 10  1  0
  8  9  1  1
 10 11  2  0
 12 13  1  0
 13 15  1  0
 14 13  2  0
 16 15  1  0
 17 16  1  1
 18 17  1  0
 18 10  1  0
 19 20  2  0
 19 17  1  0
 21 22  1  0
 23 22  1  6
 23 24  1  0
 23 25  1  0
 24 19  1  0
 25 26  1  0
 27 25  2  0
M  END
$$$$
