RQS.pdb
     RDKit          3D

 27 26  0  0  1  0  0  0  0  0999 V2000
   18.9684  -21.9937  -14.4499 N   0  0  0  0  0  0  0  0  0  0  0  0
   18.7952  -22.4600  -13.1202 C   0  0  0  0  0  0  0  0  0  0  0  0
   18.1635  -23.5633  -12.8888 N   0  0  0  0  0  0  0  0  0  0  0  0
   19.3041  -21.7391  -11.9933 N   0  0  0  0  0  0  0  0  0  0  0  0
   20.1319  -20.5554  -12.1697 C   0  0  0  0  0  0  0  0  0  0  0  0
   21.5480  -20.9768  -11.8405 C   0  0  0  0  0  0  0  0  0  0  0  0
   22.5296  -20.6712  -12.9494 C   0  0  0  0  0  0  0  0  0  0  0  0
   23.8328  -21.3409  -12.5474 C   0  0  2  0  0  0  0  0  0  0  0  0
   24.3357  -20.6720  -11.3597 N   0  0  0  0  0  0  0  0  0  0  0  0
   24.8468  -21.2581  -13.6030 C   0  0  0  0  0  0  0  0  0  0  0  0
   25.5048  -20.2149  -13.8694 O   0  0  0  0  0  0  0  0  0  0  0  0
   17.9186  -23.8120  -11.9254 N   0  0  0  0  0  0  0  0  0  0  0  0
   28.3727  -25.9413  -15.9059 C   0  0  0  0  0  0  0  0  0  0  0  0
   28.6920  -24.8774  -16.7899 O   0  0  0  0  0  0  0  0  0  0  0  0
   29.6239  -25.0420  -17.6435 C   0  0  0  0  0  0  0  0  0  0  0  0
   27.9271  -23.6332  -16.6777 C   0  0  0  0  0  0  0  0  0  0  0  0
   26.8452  -23.6680  -15.6308 C   0  0  2  0  0  0  0  0  0  0  0  0
   26.1070  -22.3912  -15.4479 N   0  0  0  0  0  0  0  0  0  0  0  0
   25.1322  -22.3997  -14.3922 C   0  0  0  0  0  0  0  0  0  0  0  0
   25.5400  -21.8706  -16.7303 O   0  0  0  0  0  0  0  0  0  0  0  0
   24.3655  -22.1705  -17.0943 O   0  0  0  0  0  0  0  0  0  0  0  0
   25.9085  -18.9972  -20.6065 C   0  0  0  0  0  0  0  0  0  0  0  0
   26.5361  -19.4693  -19.4658 C   0  0  2  0  0  0  0  0  0  0  0  0
   25.6262  -20.5165  -18.8372 N   0  0  0  0  0  0  0  0  0  0  0  0
   26.2656  -21.0194  -17.6139 C   0  0  0  0  0  0  0  0  0  0  0  0
   25.3945  -21.6492  -19.7328 O   0  0  0  0  0  0  0  0  0  0  0  0
   24.3007  -21.7085  -20.5939 O   0  0  0  0  0  0  0  0  0  0  0  0
  2  3  2  0
  2  1  1  0
  4  2  1  0
  5  4  1  0
  6  5  1  0
  7  8  1  0
  7  6  1  0
  8 10  1  0
  8  9  1  1
 10 11  2  0
 12 13  1  0
 13 15  1  0
 14 13  2  0
 16 15  1  0
 17 16  1  1
 18 17  1  0
 18 10  1  0
 19 20  2  0
 19 17  1  0
 21 22  1  0
 23 22  1  1
 23 24  1  0
 23 25  1  0
 24 19  1  0
 25 26  1  0
 27 25  2  0
M  END
$$$$
