RQS.pdb
     RDKit          3D

 27 26  0  0  1  0  0  0  0  0999 V2000
   23.8063  -21.4551  -12.5115 N   0  0  0  0  0  0  0  0  0  0  0  0
   24.1419  -20.9814  -11.2160 C   0  0  0  0  0  0  0  0  0  0  0  0
   23.2158  -20.6451  -10.3798 N   0  0  0  0  0  0  0  0  0  0  0  0
   25.5009  -20.8558  -10.7848 N   0  0  0  0  0  0  0  0  0  0  0  0
   26.6055  -21.1113  -11.6970 C   0  0  0  0  0  0  0  0  0  0  0  0
   27.5109  -19.9011  -11.6145 C   0  0  0  0  0  0  0  0  0  0  0  0
   28.2439  -19.6208  -12.9071 C   0  0  0  0  0  0  0  0  0  0  0  0
   27.7616  -20.6702  -13.8944 C   0  0  2  0  0  0  0  0  0  0  0  0
   28.9282  -21.2916  -14.4974 N   0  0  0  0  0  0  0  0  0  0  0  0
   26.9311  -20.0922  -14.9553 C   0  0  0  0  0  0  0  0  0  0  0  0
   27.3590  -19.2860  -15.8266 O   0  0  0  0  0  0  0  0  0  0  0  0
   23.4704  -20.3882   -9.4212 N   0  0  0  0  0  0  0  0  0  0  0  0
   24.9571  -23.9990  -16.4378 C   0  0  0  0  0  0  0  0  0  0  0  0
   23.7522  -23.5680  -15.8230 O   0  0  0  0  0  0  0  0  0  0  0  0
   23.1312  -24.3699  -15.0514 C   0  0  0  0  0  0  0  0  0  0  0  0
   23.2792  -22.2110  -16.1070 C   0  0  0  0  0  0  0  0  0  0  0  0
   24.2470  -21.3756  -16.9028 C   0  0  1  0  0  0  0  0  0  0  0  0
   24.7594  -20.1696  -16.2019 N   0  0  0  0  0  0  0  0  0  0  0  0
   25.5596  -20.4378  -15.0388 C   0  0  0  0  0  0  0  0  0  0  0  0
   23.6822  -19.1702  -15.9230 O   0  0  0  0  0  0  0  0  0  0  0  0
   22.7799  -19.4045  -15.0669 O   0  0  0  0  0  0  0  0  0  0  0  0
   23.5011  -15.6170  -17.8914 C   0  0  0  0  0  0  0  0  0  0  0  0
   22.9448  -15.5708  -16.6241 C   0  0  1  0  0  0  0  0  0  0  0  0
   22.5061  -16.9831  -16.2598 N   0  0  0  0  0  0  0  0  0  0  0  0
   23.5967  -17.9116  -16.5866 C   0  0  0  0  0  0  0  0  0  0  0  0
   21.3150  -17.3949  -17.0017 O   0  0  0  0  0  0  0  0  0  0  0  0
   20.0715  -16.7967  -16.8091 O   0  0  0  0  0  0  0  0  0  0  0  0
  2  3  2  0
  2  1  1  0
  4  2  1  0
  5  4  1  0
  6  5  1  0
  7  8  1  0
  7  6  1  0
  8 10  1  0
  8  9  1  6
 10 11  2  0
 12 13  1  0
 13 15  1  0
 14 13  2  0
 16 15  1  0
 17 16  1  6
 18 17  1  0
 18 10  1  0
 19 20  2  0
 19 17  1  0
 21 22  1  0
 23 22  1  1
 23 24  1  0
 23 25  1  0
 24 19  1  0
 25 26  1  0
 27 25  2  0
M  END
$$$$
