SQS.pdb
     RDKit          3D

 22 21  0  0  1  0  0  0  0  0999 V2000
   14.6764   -9.7045  -16.4067 O   0  0  0  0  0  0  0  0  0  0  0  0
   15.8128   -9.1746  -15.8009 C   0  0  0  0  0  0  0  0  0  0  0  0
   16.7671  -10.2794  -15.3806 C   0  0  2  0  0  0  0  0  0  0  0  0
   16.2099  -10.9449  -14.2182 N   0  0  0  0  0  0  0  0  0  0  0  0
   18.0582   -9.6800  -14.9946 C   0  0  0  0  0  0  0  0  0  0  0  0
   18.2811   -9.3089  -13.7961 O   0  0  0  0  0  0  0  0  0  0  0  0
   23.2728  -11.2153  -17.7115 N   0  0  0  0  0  0  0  0  0  0  0  0
   21.9001  -11.4066  -17.9487 C   0  0  0  0  0  0  0  0  0  0  0  0
   21.5212  -12.2605  -18.7865 O   0  0  0  0  0  0  0  0  0  0  0  0
   20.8411  -10.6229  -17.2338 C   0  0  0  0  0  0  0  0  0  0  0  0
   21.4573   -9.7002  -16.2381 C   0  0  0  0  0  0  0  0  0  0  0  0
   20.4359   -8.9441  -15.4541 C   0  0  2  0  0  0  0  0  0  0  0  0
   19.1278   -9.4731  -15.8996 N   0  0  0  0  0  0  0  0  0  0  0  0
   20.4767   -7.4833  -15.6479 C   0  0  0  0  0  0  0  0  0  0  0  0
   19.9480   -6.9318  -16.6071 O   0  0  0  0  0  0  0  0  0  0  0  0
   22.3012   -5.0478  -12.6240 O   0  0  0  0  0  0  0  0  0  0  0  0
   21.3399   -4.5282  -13.4895 C   0  0  0  0  0  0  0  0  0  0  0  0
   21.3094   -5.2638  -14.7914 C   0  0  2  0  0  0  0  0  0  0  0  0
   21.1481   -6.6667  -14.7006 N   0  0  0  0  0  0  0  0  0  0  0  0
   22.5129   -4.9269  -15.5616 C   0  0  0  0  0  0  0  0  0  0  0  0
   22.8059   -3.6490  -16.0151 O   0  0  0  0  0  0  0  0  0  0  0  0
   23.3293   -5.8405  -15.8298 O   0  0  0  0  0  0  0  0  0  0  0  0
  2  1  1  0
  3  4  1  1
  3  2  1  0
  5  3  1  0
  6  5  2  0
  7  8  1  0
  8 10  1  0
  8  9  2  0
 10 11  1  0
 12 11  1  6
 12 13  1  0
 12 14  1  0
 13  5  1  0
 14 19  1  0
 15 14  2  0
 16 17  1  0
 18 17  1  1
 18 20  1  0
 19 18  1  0
 20 22  2  0
 20 21  1  0
M  END
$$$$
