SQS.pdb
     RDKit          3D

 22 21  0  0  1  0  0  0  0  0999 V2000
   14.9881   -9.8540  -15.7922 O   0  0  0  0  0  0  0  0  0  0  0  0
   15.4881   -9.4085  -14.5714 C   0  0  0  0  0  0  0  0  0  0  0  0
   16.9961   -9.5818  -14.5086 C   0  0  2  0  0  0  0  0  0  0  0  0
   17.2871  -10.9978  -14.3858 N   0  0  0  0  0  0  0  0  0  0  0  0
   17.5100   -8.8990  -13.3065 C   0  0  0  0  0  0  0  0  0  0  0  0
   17.4864   -9.4656  -12.1653 O   0  0  0  0  0  0  0  0  0  0  0  0
   22.4474   -5.6634  -13.0590 N   0  0  0  0  0  0  0  0  0  0  0  0
   21.3738   -5.1978  -13.8387 C   0  0  0  0  0  0  0  0  0  0  0  0
   21.5926   -4.4675  -14.8355 O   0  0  0  0  0  0  0  0  0  0  0  0
   19.9467   -5.5380  -13.5315 C   0  0  0  0  0  0  0  0  0  0  0  0
   19.8677   -6.4300  -12.3397 C   0  0  0  0  0  0  0  0  0  0  0  0
   18.4778   -6.9090  -12.0781 C   0  0  2  0  0  0  0  0  0  0  0  0
   18.0574   -7.5929  -13.3210 N   0  0  0  0  0  0  0  0  0  0  0  0
   17.5172   -5.8415  -11.7453 C   0  0  0  0  0  0  0  0  0  0  0  0
   16.9583   -5.1680  -12.6043 O   0  0  0  0  0  0  0  0  0  0  0  0
   15.3518   -5.8253   -8.2135 O   0  0  0  0  0  0  0  0  0  0  0  0
   15.1198   -4.9269   -9.2539 C   0  0  0  0  0  0  0  0  0  0  0  0
   16.3915   -4.5124   -9.9233 C   0  0  2  0  0  0  0  0  0  0  0  0
   17.2140   -5.5669  -10.3860 N   0  0  0  0  0  0  0  0  0  0  0  0
   17.1396   -3.6243   -9.0251 C   0  0  0  0  0  0  0  0  0  0  0  0
   16.6394   -2.4288   -8.5299 O   0  0  0  0  0  0  0  0  0  0  0  0
   18.2985   -3.9572   -8.6801 O   0  0  0  0  0  0  0  0  0  0  0  0
  2  1  1  0
  3  4  1  1
  3  2  1  0
  5  3  1  0
  6  5  2  0
  7  8  1  0
  8 10  1  0
  8  9  2  0
 10 11  1  0
 12 11  1  6
 12 13  1  0
 12 14  1  0
 13  5  1  0
 14 19  1  0
 15 14  2  0
 16 17  1  0
 18 17  1  1
 18 20  1  0
 19 18  1  0
 20 22  2  0
 20 21  1  0
M  END
$$$$
