SQS.pdb
     RDKit          3D

 22 21  0  0  1  0  0  0  0  0999 V2000
   24.5537  -11.2505  -18.7607 O   0  0  0  0  0  0  0  0  0  0  0  0
   23.6362  -10.2061  -18.6810 C   0  0  0  0  0  0  0  0  0  0  0  0
   22.2866  -10.7073  -18.1957 C   0  0  2  0  0  0  0  0  0  0  0  0
   21.5331  -11.1718  -19.3450 N   0  0  0  0  0  0  0  0  0  0  0  0
   21.5488   -9.5873  -17.5820 C   0  0  0  0  0  0  0  0  0  0  0  0
   21.1138   -8.6190  -18.2870 O   0  0  0  0  0  0  0  0  0  0  0  0
   18.0245   -9.9696  -12.5309 N   0  0  0  0  0  0  0  0  0  0  0  0
   17.6868  -10.2169  -13.8733 C   0  0  0  0  0  0  0  0  0  0  0  0
   16.6483  -10.8647  -14.1500 O   0  0  0  0  0  0  0  0  0  0  0  0
   18.5253   -9.7341  -15.0181 C   0  0  0  0  0  0  0  0  0  0  0  0
   19.6953   -8.9578  -14.5172 C   0  0  0  0  0  0  0  0  0  0  0  0
   20.5043   -8.3684  -15.6253 C   0  0  2  0  0  0  0  0  0  0  0  0
   21.2706   -9.4980  -16.1963 N   0  0  0  0  0  0  0  0  0  0  0  0
   21.4280   -7.2995  -15.2043 C   0  0  0  0  0  0  0  0  0  0  0  0
   22.5649   -7.5310  -14.8071 O   0  0  0  0  0  0  0  0  0  0  0  0
   22.1111   -2.4530  -14.9686 O   0  0  0  0  0  0  0  0  0  0  0  0
   21.2409   -3.4918  -15.2954 C   0  0  0  0  0  0  0  0  0  0  0  0
   21.7940   -4.8242  -14.9007 C   0  0  2  0  0  0  0  0  0  0  0  0
   21.0054   -5.9453  -15.2528 N   0  0  0  0  0  0  0  0  0  0  0  0
   22.0776   -4.8188  -13.4604 C   0  0  0  0  0  0  0  0  0  0  0  0
   23.2246   -4.2736  -12.9021 O   0  0  0  0  0  0  0  0  0  0  0  0
   21.2404   -5.3346  -12.6817 O   0  0  0  0  0  0  0  0  0  0  0  0
  2  1  1  0
  3  4  1  6
  3  2  1  0
  5  3  1  0
  6  5  2  0
  7  8  1  0
  8 10  1  0
  8  9  2  0
 10 11  1  0
 12 11  1  1
 12 13  1  0
 12 14  1  0
 13  5  1  0
 14 19  1  0
 15 14  2  0
 16 17  1  0
 18 17  1  1
 18 20  1  0
 19 18  1  0
 20 22  2  0
 20 21  1  0
M  END
$$$$
