SQS.pdb
     RDKit          3D

 22 21  0  0  1  0  0  0  0  0999 V2000
   27.7391  -20.2327  -15.5576 O   0  0  0  0  0  0  0  0  0  0  0  0
   26.3585  -20.1477  -15.7182 C   0  0  0  0  0  0  0  0  0  0  0  0
   25.6463  -21.1376  -14.8123 C   0  0  2  0  0  0  0  0  0  0  0  0
   25.8288  -22.4687  -15.3596 N   0  0  0  0  0  0  0  0  0  0  0  0
   24.2029  -20.8345  -14.8075 C   0  0  0  0  0  0  0  0  0  0  0  0
   23.4100  -21.3877  -15.6375 O   0  0  0  0  0  0  0  0  0  0  0  0
   21.0696  -19.3035   -9.8545 N   0  0  0  0  0  0  0  0  0  0  0  0
   21.0881  -20.5690  -10.4674 C   0  0  0  0  0  0  0  0  0  0  0  0
   20.8478  -21.5977   -9.7901 O   0  0  0  0  0  0  0  0  0  0  0  0
   21.3877  -20.7553  -11.9241 C   0  0  0  0  0  0  0  0  0  0  0  0
   21.7088  -19.4470  -12.5626 C   0  0  0  0  0  0  0  0  0  0  0  0
   22.1550  -19.5991  -13.9794 C   0  0  2  0  0  0  0  0  0  0  0  0
   23.5957  -19.9280  -13.9046 N   0  0  0  0  0  0  0  0  0  0  0  0
   21.9587  -18.3992  -14.8129 C   0  0  0  0  0  0  0  0  0  0  0  0
   22.8050  -17.5165  -14.9052 O   0  0  0  0  0  0  0  0  0  0  0  0
   21.4820  -17.1981  -18.9897 O   0  0  0  0  0  0  0  0  0  0  0  0
   21.6166  -17.9694  -17.8364 C   0  0  0  0  0  0  0  0  0  0  0  0
   20.6250  -17.5775  -16.7875 C   0  0  2  0  0  0  0  0  0  0  0  0
   20.7522  -18.2402  -15.5437 N   0  0  0  0  0  0  0  0  0  0  0  0
   19.2685  -17.7365  -17.3258 C   0  0  0  0  0  0  0  0  0  0  0  0
   18.6073  -16.7572  -18.0526 O   0  0  0  0  0  0  0  0  0  0  0  0
   18.6646  -18.8167  -17.1220 O   0  0  0  0  0  0  0  0  0  0  0  0
  2  1  1  0
  3  4  1  6
  3  2  1  0
  5  3  1  0
  6  5  2  0
  7  8  1  0
  8 10  1  0
  8  9  2  0
 10 11  1  0
 12 11  1  1
 12 13  1  0
 12 14  1  0
 13  5  1  0
 14 19  1  0
 15 14  2  0
 16 17  1  0
 18 17  1  6
 18 20  1  0
 19 18  1  0
 20 22  2  0
 20 21  1  0
M  END
$$$$
