SQS.pdb
     RDKit          3D

 22 21  0  0  1  0  0  0  0  0999 V2000
   21.5567  -11.2480    5.5494 O   0  0  0  0  0  0  0  0  0  0  0  0
   20.6167  -12.0035    6.2458 C   0  0  0  0  0  0  0  0  0  0  0  0
   19.4372  -12.3544    5.3551 C   0  0  2  0  0  0  0  0  0  0  0  0
   18.6477  -11.1546    5.1509 N   0  0  0  0  0  0  0  0  0  0  0  0
   18.5940  -13.3505    6.0422 C   0  0  0  0  0  0  0  0  0  0  0  0
   17.7230  -12.9964    6.9023 O   0  0  0  0  0  0  0  0  0  0  0  0
   15.5178  -17.5561    3.4506 N   0  0  0  0  0  0  0  0  0  0  0  0
   16.9021  -17.3952    3.2634 C   0  0  0  0  0  0  0  0  0  0  0  0
   17.4375  -17.7663    2.1908 O   0  0  0  0  0  0  0  0  0  0  0  0
   17.7918  -16.7881    4.3057 C   0  0  0  0  0  0  0  0  0  0  0  0
   16.9946  -16.3732    5.4951 C   0  0  0  0  0  0  0  0  0  0  0  0
   17.8323  -15.7123    6.5397 C   0  0  2  0  0  0  0  0  0  0  0  0
   18.6804  -14.7447    5.8092 N   0  0  0  0  0  0  0  0  0  0  0  0
   18.6807  -16.6351    7.3153 C   0  0  0  0  0  0  0  0  0  0  0  0
   19.8276  -16.9125    6.9812 O   0  0  0  0  0  0  0  0  0  0  0  0
   18.7984  -16.7699   11.3733 O   0  0  0  0  0  0  0  0  0  0  0  0
   18.5019  -18.0110   10.8121 C   0  0  0  0  0  0  0  0  0  0  0  0
   18.8968  -18.0774    9.3711 C   0  0  2  0  0  0  0  0  0  0  0  0
   18.1702  -17.2359    8.4957 N   0  0  0  0  0  0  0  0  0  0  0  0
   18.8370  -19.4733    8.9206 C   0  0  0  0  0  0  0  0  0  0  0  0
   19.6519  -20.4799    9.4178 O   0  0  0  0  0  0  0  0  0  0  0  0
   18.0041  -19.7833    8.0356 O   0  0  0  0  0  0  0  0  0  0  0  0
  2  1  1  0
  3  4  1  1
  3  2  1  0
  5  3  1  0
  6  5  2  0
  7  8  1  0
  8 10  1  0
  8  9  2  0
 10 11  1  0
 12 11  1  6
 12 13  1  0
 12 14  1  0
 13  5  1  0
 14 19  1  0
 15 14  2  0
 16 17  1  0
 18 17  1  1
 18 20  1  0
 19 18  1  0
 20 22  2  0
 20 21  1  0
M  END
$$$$
