SQS.pdb
     RDKit          3D

 22 21  0  0  1  0  0  0  0  0999 V2000
   13.6798  -11.7672  -13.7005 O   0  0  0  0  0  0  0  0  0  0  0  0
   14.0981  -10.4636  -13.4458 C   0  0  0  0  0  0  0  0  0  0  0  0
   15.6060  -10.4037  -13.2703 C   0  0  2  0  0  0  0  0  0  0  0  0
   15.9850  -11.3682  -12.2551 N   0  0  0  0  0  0  0  0  0  0  0  0
   15.9826   -9.0597  -12.7936 C   0  0  0  0  0  0  0  0  0  0  0  0
   15.8169   -8.0298  -13.5255 O   0  0  0  0  0  0  0  0  0  0  0  0
   15.2325   -6.5363   -7.3010 N   0  0  0  0  0  0  0  0  0  0  0  0
   14.4210   -6.4828   -8.4481 C   0  0  0  0  0  0  0  0  0  0  0  0
   13.2122   -6.1612   -8.3471 O   0  0  0  0  0  0  0  0  0  0  0  0
   14.9397   -6.7983   -9.8185 C   0  0  0  0  0  0  0  0  0  0  0  0
   16.3581   -7.2520   -9.7481 C   0  0  0  0  0  0  0  0  0  0  0  0
   16.9596   -7.4525  -11.1001 C   0  0  2  0  0  0  0  0  0  0  0  0
   16.5442   -8.8098  -11.5177 N   0  0  0  0  0  0  0  0  0  0  0  0
   18.4294   -7.3463  -11.1355 C   0  0  0  0  0  0  0  0  0  0  0  0
   19.1601   -8.1226  -10.5294 O   0  0  0  0  0  0  0  0  0  0  0  0
   22.1001   -7.3675  -13.6340 O   0  0  0  0  0  0  0  0  0  0  0  0
   20.8045   -7.5058  -13.1383 C   0  0  0  0  0  0  0  0  0  0  0  0
   20.3830   -6.3100  -12.3451 C   0  0  2  0  0  0  0  0  0  0  0  0
   19.0419   -6.3141  -11.8935 N   0  0  0  0  0  0  0  0  0  0  0  0
   20.6680   -5.0955  -13.1191 C   0  0  0  0  0  0  0  0  0  0  0  0
   21.8839   -4.4284  -13.0877 O   0  0  0  0  0  0  0  0  0  0  0  0
   19.7663   -4.6267  -13.8541 O   0  0  0  0  0  0  0  0  0  0  0  0
  2  1  1  0
  3  4  1  1
  3  2  1  0
  5  3  1  0
  6  5  2  0
  7  8  1  0
  8 10  1  0
  8  9  2  0
 10 11  1  0
 12 11  1  1
 12 13  1  0
 12 14  1  0
 13  5  1  0
 14 19  1  0
 15 14  2  0
 16 17  1  0
 18 17  1  6
 18 20  1  0
 19 18  1  0
 20 22  2  0
 20 21  1  0
M  END
$$$$
