GPF.pdb
     RDKit          3D

 23 24  0  0  1  0  0  0  0  0999 V2000
   25.2022  -18.8324  -15.7156 N   0  0  0  0  0  0  0  0  0  0  0  0
   26.0124  -18.5569  -14.5787 C   0  0  0  0  0  0  0  0  0  0  0  0
   26.0752  -19.6714  -13.6111 C   0  0  0  0  0  0  0  0  0  0  0  0
   25.0439  -20.3399  -13.3837 O   0  0  0  0  0  0  0  0  0  0  0  0
   27.2739  -19.9985  -12.9376 N   0  0  0  0  0  0  0  0  0  0  0  0
   28.5847  -19.3669  -13.1384 C   0  0  0  0  0  0  0  0  0  0  0  0
   29.4802  -20.6125  -13.0902 C   0  0  0  0  0  0  0  0  0  0  0  0
   28.9392  -21.2819  -11.8452 C   0  0  0  0  0  0  0  0  0  0  0  0
   27.4768  -21.0089  -11.9188 C   0  0  1  0  0  0  0  0  0  0  0  0
   26.9973  -20.4998  -10.6028 C   0  0  0  0  0  0  0  0  0  0  0  0
   27.0046  -19.2479  -10.3546 O   0  0  0  0  0  0  0  0  0  0  0  0
   26.5292  -21.3981   -9.6155 N   0  0  0  0  0  0  0  0  0  0  0  0
   25.9013  -20.9405   -8.3665 C   0  0  1  0  0  0  0  0  0  0  0  0
   26.5907  -19.6624   -7.9945 C   0  0  0  0  0  0  0  0  0  0  0  0
   27.4336  -19.7580   -6.7943 C   0  0  0  0  0  0  0  0  0  0  0  0
   27.5681  -20.9360   -6.0881 C   0  0  0  0  0  0  0  0  0  0  0  0
   28.3599  -21.0310   -4.9595 C   0  0  0  0  0  0  0  0  0  0  0  0
   29.0562  -19.9385   -4.4877 C   0  0  0  0  0  0  0  0  0  0  0  0
   28.9320  -18.7540   -5.1826 C   0  0  0  0  0  0  0  0  0  0  0  0
   28.1394  -18.6674   -6.3087 C   0  0  0  0  0  0  0  0  0  0  0  0
   24.4599  -20.8339   -8.5484 C   0  0  0  0  0  0  0  0  0  0  0  0
   23.9357  -20.4154   -9.7543 O   0  0  0  0  0  0  0  0  0  0  0  0
   23.6756  -21.1186   -7.6182 O   0  0  0  0  0  0  0  0  0  0  0  0
  1  2  1  0
  3  2  1  0
  3  4  2  0
  5  3  1  0
  6  5  1  0
  7  6  1  0
  8  7  1  0
  8  9  1  0
  9  5  1  0
  9 10  1  1
 10 11  2  0
 12 10  1  0
 12 13  1  0
 13 14  1  6
 14 15  1  0
 15 20  1  0
 16 15  2  0
 16 17  1  0
 17 18  2  0
 18 19  1  0
 20 19  2  0
 21 22  1  0
 21 13  1  0
 23 21  2  0
M  END
$$$$
