GPF.pdb
     RDKit          3D

 23 24  0  0  1  0  0  0  0  0999 V2000
   24.4130  -17.7017  -17.8791 N   0  0  0  0  0  0  0  0  0  0  0  0
   25.6964  -18.1244  -17.4328 C   0  0  0  0  0  0  0  0  0  0  0  0
   25.6475  -19.1882  -16.4089 C   0  0  0  0  0  0  0  0  0  0  0  0
   24.5732  -19.4077  -15.8089 O   0  0  0  0  0  0  0  0  0  0  0  0
   26.7868  -19.9625  -16.0928 N   0  0  0  0  0  0  0  0  0  0  0  0
   28.1001  -19.8845  -16.7462 C   0  0  0  0  0  0  0  0  0  0  0  0
   28.4349  -21.3801  -16.8291 C   0  0  0  0  0  0  0  0  0  0  0  0
   28.1125  -21.8046  -15.4126 C   0  0  0  0  0  0  0  0  0  0  0  0
   26.9146  -20.9862  -15.0752 C   0  0  1  0  0  0  0  0  0  0  0  0
   27.1052  -20.3488  -13.7416 C   0  0  0  0  0  0  0  0  0  0  0  0
   27.8188  -19.2970  -13.6261 O   0  0  0  0  0  0  0  0  0  0  0  0
   26.4975  -20.9025  -12.5905 N   0  0  0  0  0  0  0  0  0  0  0  0
   26.6990  -20.3425  -11.2454 C   0  0  1  0  0  0  0  0  0  0  0  0
   25.6012  -19.3428  -11.0387 C   0  0  0  0  0  0  0  0  0  0  0  0
   24.2550  -19.9288  -10.9736 C   0  0  0  0  0  0  0  0  0  0  0  0
   23.5244  -20.2087  -12.1104 C   0  0  0  0  0  0  0  0  0  0  0  0
   22.2585  -20.7602  -12.0544 C   0  0  0  0  0  0  0  0  0  0  0  0
   21.6671  -21.0566  -10.8447 C   0  0  0  0  0  0  0  0  0  0  0  0
   22.3846  -20.7826   -9.6995 C   0  0  0  0  0  0  0  0  0  0  0  0
   23.6481  -20.2319   -9.7640 C   0  0  0  0  0  0  0  0  0  0  0  0
   26.7469  -21.4183  -10.2643 C   0  0  0  0  0  0  0  0  0  0  0  0
   27.0589  -21.1507   -8.9471 O   0  0  0  0  0  0  0  0  0  0  0  0
   26.5070  -22.5984  -10.5978 O   0  0  0  0  0  0  0  0  0  0  0  0
  1  2  1  0
  3  2  1  0
  3  4  2  0
  5  3  1  0
  6  5  1  0
  7  6  1  0
  8  7  1  0
  8  9  1  0
  9  5  1  0
  9 10  1  1
 10 11  2  0
 12 10  1  0
 12 13  1  0
 13 14  1  1
 14 15  1  0
 15 20  1  0
 16 15  2  0
 16 17  1  0
 17 18  2  0
 18 19  1  0
 20 19  2  0
 21 22  1  0
 21 13  1  0
 23 21  2  0
M  END
$$$$
