GPF.pdb
     RDKit          3D

 23 24  0  0  1  0  0  0  0  0999 V2000
   24.8372  -23.8780  -15.2888 N   0  0  0  0  0  0  0  0  0  0  0  0
   24.8129  -22.4960  -14.9508 C   0  0  0  0  0  0  0  0  0  0  0  0
   25.8375  -22.1098  -13.9591 C   0  0  0  0  0  0  0  0  0  0  0  0
   26.5519  -22.9968  -13.4440 O   0  0  0  0  0  0  0  0  0  0  0  0
   26.0281  -20.7617  -13.5801 N   0  0  0  0  0  0  0  0  0  0  0  0
   25.2827  -19.6020  -14.0872 C   0  0  0  0  0  0  0  0  0  0  0  0
   26.4363  -18.6005  -14.2365 C   0  0  0  0  0  0  0  0  0  0  0  0
   27.1124  -18.7703  -12.8931 C   0  0  0  0  0  0  0  0  0  0  0  0
   26.9809  -20.2299  -12.6266 C   0  0  1  0  0  0  0  0  0  0  0  0
   26.4764  -20.4406  -11.2403 C   0  0  0  0  0  0  0  0  0  0  0  0
   25.2224  -20.5172  -11.0156 O   0  0  0  0  0  0  0  0  0  0  0  0
   27.3814  -20.5579  -10.1595 N   0  0  0  0  0  0  0  0  0  0  0  0
   26.9536  -20.9683   -8.8134 C   0  0  1  0  0  0  0  0  0  0  0  0
   28.2052  -21.1075   -8.0001 C   0  0  0  0  0  0  0  0  0  0  0  0
   28.1501  -20.4464   -6.6887 C   0  0  0  0  0  0  0  0  0  0  0  0
   27.9571  -21.1555   -5.5206 C   0  0  0  0  0  0  0  0  0  0  0  0
   27.9052  -20.5385   -4.2852 C   0  0  0  0  0  0  0  0  0  0  0  0
   28.0460  -19.1719   -4.1686 C   0  0  0  0  0  0  0  0  0  0  0  0
   28.2395  -18.4493   -5.3269 C   0  0  0  0  0  0  0  0  0  0  0  0
   28.2902  -19.0730   -6.5567 C   0  0  0  0  0  0  0  0  0  0  0  0
   25.9815  -20.0167   -8.2922 C   0  0  0  0  0  0  0  0  0  0  0  0
   26.0650  -18.6795   -8.6223 O   0  0  0  0  0  0  0  0  0  0  0  0
   25.0581  -20.3938   -7.5395 O   0  0  0  0  0  0  0  0  0  0  0  0
  1  2  1  0
  3  2  1  0
  3  4  2  0
  5  3  1  0
  6  5  1  0
  7  6  1  0
  8  7  1  0
  8  9  1  0
  9  5  1  0
  9 10  1  1
 10 11  2  0
 12 10  1  0
 12 13  1  0
 13 14  1  1
 14 15  1  0
 15 20  1  0
 16 15  2  0
 16 17  1  0
 17 18  2  0
 18 19  1  0
 20 19  2  0
 21 22  1  0
 21 13  1  0
 23 21  2  0
M  END
$$$$
