GPF.pdb
     RDKit          3D

 23 24  0  0  1  0  0  0  0  0999 V2000
   23.6572  -21.7251  -15.4596 N   0  0  0  0  0  0  0  0  0  0  0  0
   24.5831  -20.8071  -14.8897 C   0  0  0  0  0  0  0  0  0  0  0  0
   25.3091  -21.3455  -13.7211 C   0  0  0  0  0  0  0  0  0  0  0  0
   24.9013  -22.3967  -13.1817 O   0  0  0  0  0  0  0  0  0  0  0  0
   26.4529  -20.6995  -13.1999 N   0  0  0  0  0  0  0  0  0  0  0  0
   27.0911  -19.4914  -13.7393 C   0  0  0  0  0  0  0  0  0  0  0  0
   28.5655  -19.8874  -13.5809 C   0  0  0  0  0  0  0  0  0  0  0  0
   28.5553  -20.3883  -12.1527 C   0  0  0  0  0  0  0  0  0  0  0  0
   27.2379  -21.0743  -12.0409 C   0  0  1  0  0  0  0  0  0  0  0  0
   26.5463  -20.6272  -10.7989 C   0  0  0  0  0  0  0  0  0  0  0  0
   25.7013  -19.6716  -10.8401 O   0  0  0  0  0  0  0  0  0  0  0  0
   26.8188  -21.2569   -9.5619 N   0  0  0  0  0  0  0  0  0  0  0  0
   26.1534  -20.8606   -8.3114 C   0  0  1  0  0  0  0  0  0  0  0  0
   26.7997  -21.6606   -7.2208 C   0  0  0  0  0  0  0  0  0  0  0  0
   27.6680  -20.8773   -6.3305 C   0  0  0  0  0  0  0  0  0  0  0  0
   27.1757  -19.8576   -5.5417 C   0  0  0  0  0  0  0  0  0  0  0  0
   27.9879  -19.1187   -4.7026 C   0  0  0  0  0  0  0  0  0  0  0  0
   29.3402  -19.3740   -4.6189 C   0  0  0  0  0  0  0  0  0  0  0  0
   29.8474  -20.3900   -5.4011 C   0  0  0  0  0  0  0  0  0  0  0  0
   29.0296  -21.1232   -6.2364 C   0  0  0  0  0  0  0  0  0  0  0  0
   26.2320  -19.4154   -8.1463 C   0  0  0  0  0  0  0  0  0  0  0  0
   25.1884  -18.7188   -7.5721 O   0  0  0  0  0  0  0  0  0  0  0  0
   27.2429  -18.7834   -8.5209 O   0  0  0  0  0  0  0  0  0  0  0  0
  1  2  1  0
  3  2  1  0
  3  4  2  0
  5  3  1  0
  6  5  1  0
  7  6  1  0
  8  7  1  0
  8  9  1  0
  9  5  1  0
  9 10  1  1
 10 11  2  0
 12 10  1  0
 12 13  1  0
 13 14  1  1
 14 15  1  0
 15 20  1  0
 16 15  2  0
 16 17  1  0
 17 18  2  0
 18 19  1  0
 20 19  2  0
 21 22  1  0
 21 13  1  0
 23 21  2  0
M  END
$$$$
