GPF.pdb
     RDKit          3D

 23 24  0  0  1  0  0  0  0  0999 V2000
   26.0693  -17.1373  -14.5090 N   0  0  0  0  0  0  0  0  0  0  0  0
   27.0329  -17.5785  -13.5596 C   0  0  0  0  0  0  0  0  0  0  0  0
   26.6471  -18.8187  -12.8556 C   0  0  0  0  0  0  0  0  0  0  0  0
   25.4486  -18.9981  -12.5496 O   0  0  0  0  0  0  0  0  0  0  0  0
   27.6015  -19.8058  -12.5208 N   0  0  0  0  0  0  0  0  0  0  0  0
   29.0424  -19.7531  -12.8014 C   0  0  0  0  0  0  0  0  0  0  0  0
   29.2737  -21.2083  -13.2311 C   0  0  0  0  0  0  0  0  0  0  0  0
   28.5592  -21.9339  -12.1115 C   0  0  0  0  0  0  0  0  0  0  0  0
   27.3798  -21.0656  -11.8399 C   0  0  1  0  0  0  0  0  0  0  0  0
   27.2604  -20.8305  -10.3731 C   0  0  0  0  0  0  0  0  0  0  0  0
   28.2892  -20.5212   -9.6841 O   0  0  0  0  0  0  0  0  0  0  0  0
   26.0063  -20.9476   -9.7294 N   0  0  0  0  0  0  0  0  0  0  0  0
   25.8614  -20.8861   -8.2670 C   0  0  1  0  0  0  0  0  0  0  0  0
   26.4229  -19.5617   -7.8454 C   0  0  0  0  0  0  0  0  0  0  0  0
   27.3803  -19.6379   -6.7330 C   0  0  0  0  0  0  0  0  0  0  0  0
   28.6795  -19.1890   -6.8553 C   0  0  0  0  0  0  0  0  0  0  0  0
   29.5832  -19.2580   -5.8121 C   0  0  0  0  0  0  0  0  0  0  0  0
   29.2183  -19.7850   -4.5914 C   0  0  0  0  0  0  0  0  0  0  0  0
   27.9232  -20.2379   -4.4535 C   0  0  0  0  0  0  0  0  0  0  0  0
   27.0269  -20.1655   -5.5000 C   0  0  0  0  0  0  0  0  0  0  0  0
   24.4703  -21.1123   -7.8983 C   0  0  0  0  0  0  0  0  0  0  0  0
   24.1459  -21.5683   -6.6370 O   0  0  0  0  0  0  0  0  0  0  0  0
   23.5496  -20.8981   -8.7155 O   0  0  0  0  0  0  0  0  0  0  0  0
  1  2  1  0
  3  2  1  0
  3  4  2  0
  5  3  1  0
  6  5  1  0
  7  6  1  0
  8  7  1  0
  8  9  1  0
  9  5  1  0
  9 10  1  1
 10 11  2  0
 12 10  1  0
 12 13  1  0
 13 14  1  6
 14 15  1  0
 15 20  1  0
 16 15  2  0
 16 17  1  0
 17 18  2  0
 18 19  1  0
 20 19  2  0
 21 22  1  0
 21 13  1  0
 23 21  2  0
M  END
$$$$
