GPF.pdb
     RDKit          3D

 23 24  0  0  1  0  0  0  0  0999 V2000
   24.6233  -24.0739  -15.1542 N   0  0  0  0  0  0  0  0  0  0  0  0
   24.6950  -22.6641  -14.9754 C   0  0  0  0  0  0  0  0  0  0  0  0
   25.7323  -22.2405  -14.0126 C   0  0  0  0  0  0  0  0  0  0  0  0
   26.4321  -23.1095  -13.4491 O   0  0  0  0  0  0  0  0  0  0  0  0
   25.9511  -20.8764  -13.7146 N   0  0  0  0  0  0  0  0  0  0  0  0
   25.2424  -19.7328  -14.3041 C   0  0  0  0  0  0  0  0  0  0  0  0
   26.4227  -18.7707  -14.4966 C   0  0  0  0  0  0  0  0  0  0  0  0
   27.0749  -18.8729  -13.1346 C   0  0  0  0  0  0  0  0  0  0  0  0
   26.9031  -20.3095  -12.7807 C   0  0  1  0  0  0  0  0  0  0  0  0
   26.3735  -20.4214  -11.3922 C   0  0  0  0  0  0  0  0  0  0  0  0
   25.1163  -20.4976  -11.1862 O   0  0  0  0  0  0  0  0  0  0  0  0
   27.2580  -20.4445  -10.2886 N   0  0  0  0  0  0  0  0  0  0  0  0
   26.8560  -20.9463   -8.9657 C   0  0  1  0  0  0  0  0  0  0  0  0
   28.1221  -21.1281   -8.1839 C   0  0  0  0  0  0  0  0  0  0  0  0
   28.1198  -20.4714   -6.8691 C   0  0  0  0  0  0  0  0  0  0  0  0
   28.1378  -19.0976   -6.7388 C   0  0  0  0  0  0  0  0  0  0  0  0
   28.1351  -18.4755   -5.5048 C   0  0  0  0  0  0  0  0  0  0  0  0
   28.1141  -19.2119   -4.3394 C   0  0  0  0  0  0  0  0  0  0  0  0
   28.0959  -20.5859   -4.4531 C   0  0  0  0  0  0  0  0  0  0  0  0
   28.0987  -21.1995   -5.6890 C   0  0  0  0  0  0  0  0  0  0  0  0
   25.8858  -20.0394   -8.3671 C   0  0  0  0  0  0  0  0  0  0  0  0
   24.9261  -20.5159   -7.4977 O   0  0  0  0  0  0  0  0  0  0  0  0
   25.9058  -18.8179   -8.6300 O   0  0  0  0  0  0  0  0  0  0  0  0
  1  2  1  0
  3  2  1  0
  3  4  2  0
  5  3  1  0
  6  5  1  0
  7  6  1  0
  8  7  1  0
  8  9  1  0
  9  5  1  0
  9 10  1  1
 10 11  2  0
 12 10  1  0
 12 13  1  0
 13 14  1  1
 14 15  1  0
 15 20  1  0
 16 15  2  0
 16 17  1  0
 17 18  2  0
 18 19  1  0
 20 19  2  0
 21 22  1  0
 21 13  1  0
 23 21  2  0
M  END
$$$$
