GPF.pdb
     RDKit          3D

 23 24  0  0  1  0  0  0  0  0999 V2000
   29.3594  -21.7391  -18.5756 N   0  0  0  0  0  0  0  0  0  0  0  0
   28.6992  -20.5279  -18.2265 C   0  0  0  0  0  0  0  0  0  0  0  0
   28.2462  -20.4832  -16.8210 C   0  0  0  0  0  0  0  0  0  0  0  0
   28.4558  -21.4688  -16.0815 O   0  0  0  0  0  0  0  0  0  0  0  0
   27.5820  -19.3524  -16.2943 N   0  0  0  0  0  0  0  0  0  0  0  0
   27.2356  -18.1274  -17.0272 C   0  0  0  0  0  0  0  0  0  0  0  0
   27.5844  -17.0818  -15.9591 C   0  0  0  0  0  0  0  0  0  0  0  0
   26.8915  -17.6868  -14.7572 C   0  0  0  0  0  0  0  0  0  0  0  0
   27.1027  -19.1496  -14.9419 C   0  0  1  0  0  0  0  0  0  0  0  0
   25.8109  -19.8682  -14.7529 C   0  0  0  0  0  0  0  0  0  0  0  0
   25.0009  -20.0055  -15.7296 O   0  0  0  0  0  0  0  0  0  0  0  0
   25.4689  -20.4053  -13.4898 N   0  0  0  0  0  0  0  0  0  0  0  0
   24.2686  -21.2298  -13.2819 C   0  0  1  0  0  0  0  0  0  0  0  0
   24.6198  -22.2191  -12.2118 C   0  0  0  0  0  0  0  0  0  0  0  0
   25.0845  -21.6119  -10.9567 C   0  0  0  0  0  0  0  0  0  0  0  0
   26.4262  -21.4746  -10.6645 C   0  0  0  0  0  0  0  0  0  0  0  0
   26.8681  -20.9039   -9.4860 C   0  0  0  0  0  0  0  0  0  0  0  0
   25.9744  -20.4427   -8.5428 C   0  0  0  0  0  0  0  0  0  0  0  0
   24.6300  -20.5728   -8.8202 C   0  0  0  0  0  0  0  0  0  0  0  0
   24.1970  -21.1439   -9.9992 C   0  0  0  0  0  0  0  0  0  0  0  0
   23.1279  -20.3749  -12.9819 C   0  0  0  0  0  0  0  0  0  0  0  0
   21.8414  -20.8636  -13.0833 O   0  0  0  0  0  0  0  0  0  0  0  0
   23.2942  -19.1879  -12.6287 O   0  0  0  0  0  0  0  0  0  0  0  0
  1  2  1  0
  3  2  1  0
  3  4  2  0
  5  3  1  0
  6  5  1  0
  7  6  1  0
  8  7  1  0
  8  9  1  0
  9  5  1  0
  9 10  1  6
 10 11  2  0
 12 10  1  0
 12 13  1  0
 13 14  1  1
 14 15  1  0
 15 20  1  0
 16 15  2  0
 16 17  1  0
 17 18  2  0
 18 19  1  0
 20 19  2  0
 21 22  1  0
 21 13  1  0
 23 21  2  0
M  END
$$$$
