GPF.pdb
     RDKit          3D

 23 24  0  0  1  0  0  0  0  0999 V2000
   26.5317  -18.1383  -14.2228 N   0  0  0  0  0  0  0  0  0  0  0  0
   27.6163  -18.4658  -13.3619 C   0  0  0  0  0  0  0  0  0  0  0  0
   27.4315  -19.7372  -12.6325 C   0  0  0  0  0  0  0  0  0  0  0  0
   26.3169  -20.3020  -12.6651 O   0  0  0  0  0  0  0  0  0  0  0  0
   28.4853  -20.3285  -11.8996 N   0  0  0  0  0  0  0  0  0  0  0  0
   29.8623  -19.8274  -11.7979 C   0  0  0  0  0  0  0  0  0  0  0  0
   30.6269  -21.1541  -11.9029 C   0  0  0  0  0  0  0  0  0  0  0  0
   29.8529  -21.9878  -10.9046 C   0  0  0  0  0  0  0  0  0  0  0  0
   28.4469  -21.5366  -11.1001 C   0  0  1  0  0  0  0  0  0  0  0  0
   27.8279  -21.2443   -9.7764 C   0  0  0  0  0  0  0  0  0  0  0  0
   28.5493  -21.1933   -8.7248 O   0  0  0  0  0  0  0  0  0  0  0  0
   26.4351  -21.0205   -9.6715 N   0  0  0  0  0  0  0  0  0  0  0  0
   25.7711  -20.7709   -8.3829 C   0  0  1  0  0  0  0  0  0  0  0  0
   26.3331  -19.4815   -7.8645 C   0  0  0  0  0  0  0  0  0  0  0  0
   27.2128  -19.6321   -6.6969 C   0  0  0  0  0  0  0  0  0  0  0  0
   27.0770  -20.6811   -5.8104 C   0  0  0  0  0  0  0  0  0  0  0  0
   27.9021  -20.8273   -4.7115 C   0  0  0  0  0  0  0  0  0  0  0  0
   28.9070  -19.9193   -4.4534 C   0  0  0  0  0  0  0  0  0  0  0  0
   29.0554  -18.8655   -5.3302 C   0  0  0  0  0  0  0  0  0  0  0  0
   28.2274  -18.7266   -6.4252 C   0  0  0  0  0  0  0  0  0  0  0  0
   24.3253  -20.7868   -8.5609 C   0  0  0  0  0  0  0  0  0  0  0  0
   23.4926  -21.0728   -7.4984 O   0  0  0  0  0  0  0  0  0  0  0  0
   23.8159  -20.5425   -9.6755 O   0  0  0  0  0  0  0  0  0  0  0  0
  1  2  1  0
  3  2  1  0
  3  4  2  0
  5  3  1  0
  6  5  1  0
  7  6  1  0
  8  7  1  0
  8  9  1  0
  9  5  1  0
  9 10  1  1
 10 11  2  0
 12 10  1  0
 12 13  1  0
 13 14  1  6
 14 15  1  0
 15 20  1  0
 16 15  2  0
 16 17  1  0
 17 18  2  0
 18 19  1  0
 20 19  2  0
 21 22  1  0
 21 13  1  0
 23 21  2  0
M  END
$$$$
