GPF.pdb
     RDKit          3D

 23 24  0  0  1  0  0  0  0  0999 V2000
   28.0352  -21.1425  -16.0078 N   0  0  0  0  0  0  0  0  0  0  0  0
   27.7251  -20.8141  -14.6584 C   0  0  0  0  0  0  0  0  0  0  0  0
   26.3948  -21.2872  -14.2237 C   0  0  0  0  0  0  0  0  0  0  0  0
   25.6653  -21.8896  -15.0405 O   0  0  0  0  0  0  0  0  0  0  0  0
   25.9289  -21.0741  -12.9065 N   0  0  0  0  0  0  0  0  0  0  0  0
   26.6520  -20.3864  -11.8287 C   0  0  0  0  0  0  0  0  0  0  0  0
   26.3020  -21.3104  -10.6542 C   0  0  0  0  0  0  0  0  0  0  0  0
   24.8069  -21.4382  -10.8517 C   0  0  0  0  0  0  0  0  0  0  0  0
   24.6603  -21.4771  -12.3335 C   0  0  1  0  0  0  0  0  0  0  0  0
   23.5933  -20.5259  -12.7546 C   0  0  0  0  0  0  0  0  0  0  0  0
   23.8192  -19.2699  -12.7706 O   0  0  0  0  0  0  0  0  0  0  0  0
   22.3195  -21.0047  -13.1408 N   0  0  0  0  0  0  0  0  0  0  0  0
   21.2683  -20.1180  -13.6626 C   0  0  1  0  0  0  0  0  0  0  0  0
   21.6008  -19.8767  -15.1042 C   0  0  0  0  0  0  0  0  0  0  0  0
   21.5662  -21.0834  -15.9424 C   0  0  0  0  0  0  0  0  0  0  0  0
   20.3788  -21.6780  -16.3181 C   0  0  0  0  0  0  0  0  0  0  0  0
   20.3411  -22.8123  -17.1065 C   0  0  0  0  0  0  0  0  0  0  0  0
   21.5033  -23.4031  -17.5551 C   0  0  0  0  0  0  0  0  0  0  0  0
   22.6980  -22.8207  -17.1880 C   0  0  0  0  0  0  0  0  0  0  0  0
   22.7271  -21.6880  -16.4005 C   0  0  0  0  0  0  0  0  0  0  0  0
   19.9588  -20.7090  -13.4217 C   0  0  0  0  0  0  0  0  0  0  0  0
   19.8504  -21.9998  -12.9461 O   0  0  0  0  0  0  0  0  0  0  0  0
   18.9142  -20.0593  -13.6411 O   0  0  0  0  0  0  0  0  0  0  0  0
  1  2  1  0
  3  2  1  0
  3  4  2  0
  5  3  1  0
  6  5  1  0
  7  6  1  0
  8  7  1  0
  8  9  1  0
  9  5  1  0
  9 10  1  1
 10 11  2  0
 12 10  1  0
 12 13  1  0
 13 14  1  6
 14 15  1  0
 15 20  1  0
 16 15  2  0
 16 17  1  0
 17 18  2  0
 18 19  1  0
 20 19  2  0
 21 22  1  0
 21 13  1  0
 23 21  2  0
M  END
$$$$
