GPF.pdb
     RDKit          3D

 23 24  0  0  1  0  0  0  0  0999 V2000
   13.1950  -22.6053   -0.2769 N   0  0  0  0  0  0  0  0  0  0  0  0
   12.6933  -21.8347    0.8090 C   0  0  0  0  0  0  0  0  0  0  0  0
   13.4621  -20.5992    1.0645 C   0  0  0  0  0  0  0  0  0  0  0  0
   14.4864  -20.3677    0.3867 O   0  0  0  0  0  0  0  0  0  0  0  0
   13.0659  -19.6743    2.0570 N   0  0  0  0  0  0  0  0  0  0  0  0
   11.8697  -19.7670    2.9044 C   0  0  0  0  0  0  0  0  0  0  0  0
   11.4252  -18.2981    2.8828 C   0  0  0  0  0  0  0  0  0  0  0  0
   12.7422  -17.6164    3.1855 C   0  0  0  0  0  0  0  0  0  0  0  0
   13.7352  -18.4521    2.4545 C   0  0  1  0  0  0  0  0  0  0  0  0
   14.8768  -18.7741    3.3566 C   0  0  0  0  0  0  0  0  0  0  0  0
   14.9080  -19.8843    3.9854 O   0  0  0  0  0  0  0  0  0  0  0  0
   15.9373  -17.8533    3.5255 N   0  0  0  0  0  0  0  0  0  0  0  0
   17.0453  -18.0895    4.4636 C   0  0  1  0  0  0  0  0  0  0  0  0
   18.2845  -17.5921    3.7824 C   0  0  0  0  0  0  0  0  0  0  0  0
   18.2728  -16.1535    3.4821 C   0  0  0  0  0  0  0  0  0  0  0  0
   18.1237  -15.6770    2.1955 C   0  0  0  0  0  0  0  0  0  0  0  0
   18.1114  -14.3254    1.9082 C   0  0  0  0  0  0  0  0  0  0  0  0
   18.2494  -13.3865    2.9084 C   0  0  0  0  0  0  0  0  0  0  0  0
   18.3993  -13.8470    4.1995 C   0  0  0  0  0  0  0  0  0  0  0  0
   18.4105  -15.1983    4.4780 C   0  0  0  0  0  0  0  0  0  0  0  0
   16.7506  -17.4614    5.7445 C   0  0  0  0  0  0  0  0  0  0  0  0
   17.4366  -17.8359    6.8817 O   0  0  0  0  0  0  0  0  0  0  0  0
   15.8742  -16.5754    5.8352 O   0  0  0  0  0  0  0  0  0  0  0  0
  1  2  1  0
  3  2  1  0
  3  4  2  0
  5  3  1  0
  6  5  1  0
  7  6  1  0
  8  7  1  0
  8  9  1  0
  9  5  1  0
  9 10  1  1
 10 11  2  0
 12 10  1  0
 12 13  1  0
 13 14  1  6
 14 15  1  0
 15 20  1  0
 16 15  2  0
 16 17  1  0
 17 18  2  0
 18 19  1  0
 20 19  2  0
 21 22  1  0
 21 13  1  0
 23 21  2  0
M  END
$$$$
