GPF.pdb
     RDKit          3D

 23 24  0  0  1  0  0  0  0  0999 V2000
   27.1558  -16.6161  -14.4435 N   0  0  0  0  0  0  0  0  0  0  0  0
   27.6099  -17.9244  -14.1167 C   0  0  0  0  0  0  0  0  0  0  0  0
   26.7095  -18.6528  -13.1995 C   0  0  0  0  0  0  0  0  0  0  0  0
   25.8838  -18.0088  -12.5171 O   0  0  0  0  0  0  0  0  0  0  0  0
   26.7608  -20.0598  -13.0763 N   0  0  0  0  0  0  0  0  0  0  0  0
   27.6405  -20.9670  -13.8251 C   0  0  0  0  0  0  0  0  0  0  0  0
   26.6508  -22.1039  -14.1143 C   0  0  0  0  0  0  0  0  0  0  0  0
   26.0548  -22.2957  -12.7363 C   0  0  0  0  0  0  0  0  0  0  0  0
   25.9744  -20.9074  -12.2028 C   0  0  1  0  0  0  0  0  0  0  0  0
   26.5381  -20.8693  -10.8238 C   0  0  0  0  0  0  0  0  0  0  0  0
   27.8007  -20.8194  -10.6448 O   0  0  0  0  0  0  0  0  0  0  0  0
   25.6801  -20.8880   -9.6993 N   0  0  0  0  0  0  0  0  0  0  0  0
   26.1885  -20.9366   -8.3199 C   0  0  1  0  0  0  0  0  0  0  0  0
   27.0139  -19.6992   -8.1334 C   0  0  0  0  0  0  0  0  0  0  0  0
   27.6048  -19.5633   -6.7946 C   0  0  0  0  0  0  0  0  0  0  0  0
   27.9148  -20.6612   -6.0181 C   0  0  0  0  0  0  0  0  0  0  0  0
   28.4710  -20.5386   -4.7590 C   0  0  0  0  0  0  0  0  0  0  0  0
   28.7420  -19.2983   -4.2212 C   0  0  0  0  0  0  0  0  0  0  0  0
   28.4377  -18.1913   -4.9850 C   0  0  0  0  0  0  0  0  0  0  0  0
   27.8825  -18.3223   -6.2414 C   0  0  0  0  0  0  0  0  0  0  0  0
   25.0778  -21.0838   -7.3889 C   0  0  0  0  0  0  0  0  0  0  0  0
   25.2371  -21.7932   -6.2161 O   0  0  0  0  0  0  0  0  0  0  0  0
   23.9650  -20.5718   -7.6355 O   0  0  0  0  0  0  0  0  0  0  0  0
  1  2  1  0
  3  2  1  0
  3  4  2  0
  5  3  1  0
  6  5  1  0
  7  6  1  0
  8  7  1  0
  8  9  1  0
  9  5  1  0
  9 10  1  1
 10 11  2  0
 12 10  1  0
 12 13  1  0
 13 14  1  1
 14 15  1  0
 15 20  1  0
 16 15  2  0
 16 17  1  0
 17 18  2  0
 18 19  1  0
 20 19  2  0
 21 22  1  0
 21 13  1  0
 23 21  2  0
M  END
$$$$
