VQY.pdb
     RDKit          3D

 29 29  0  0  1  0  0  0  0  0999 V2000
    8.9994  -12.9548   21.2049 C   0  0  0  0  0  0  0  0  0  0  0  0
    7.8514  -13.4099   20.3424 C   0  0  1  0  0  0  0  0  0  0  0  0
    7.5430  -12.4417   19.2516 C   0  0  0  0  0  0  0  0  0  0  0  0
    8.1583  -14.8099   19.8690 C   0  0  2  0  0  0  0  0  0  0  0  0
    7.1723  -15.2975   18.9347 N   0  0  0  0  0  0  0  0  0  0  0  0
    8.2621  -15.7888   20.9803 C   0  0  0  0  0  0  0  0  0  0  0  0
    7.2490  -16.3133   21.4894 O   0  0  0  0  0  0  0  0  0  0  0  0
   13.3748  -19.0588   21.2304 N   0  0  0  0  0  0  0  0  0  0  0  0
   12.2127  -19.3043   20.4616 C   0  0  0  0  0  0  0  0  0  0  0  0
   12.2797  -20.0295   19.4486 O   0  0  0  0  0  0  0  0  0  0  0  0
   10.9213  -18.7029   20.8551 C   0  0  0  0  0  0  0  0  0  0  0  0
   11.0252  -17.8269   22.0505 C   0  0  0  0  0  0  0  0  0  0  0  0
    9.7652  -17.1517   22.5178 C   0  0  2  0  0  0  0  0  0  0  0  0
    9.5160  -16.1373   21.4744 N   0  0  0  0  0  0  0  0  0  0  0  0
    9.8558  -16.5393   23.8268 C   0  0  0  0  0  0  0  0  0  0  0  0
   10.6412  -15.5727   23.9961 O   0  0  0  0  0  0  0  0  0  0  0  0
    6.1996  -10.6708   25.8646 O   0  0  0  0  0  0  0  0  0  0  0  0
    6.6486  -11.9765   26.0818 C   0  0  0  0  0  0  0  0  0  0  0  0
    7.9327  -12.2468   26.5224 C   0  0  0  0  0  0  0  0  0  0  0  0
    8.3673  -13.5293   26.7331 C   0  0  0  0  0  0  0  0  0  0  0  0
    7.5062  -14.5805   26.5015 C   0  0  0  0  0  0  0  0  0  0  0  0
    7.9209  -15.9599   26.7051 C   0  0  0  0  0  0  0  0  0  0  0  0
    9.3142  -16.2859   26.2133 C   0  0  2  0  0  0  0  0  0  0  0  0
    9.0957  -16.9779   24.9199 N   0  0  0  0  0  0  0  0  0  0  0  0
    9.9192  -17.2909   27.1184 C   0  0  0  0  0  0  0  0  0  0  0  0
   10.1490  -18.6074   26.7151 O   0  0  0  0  0  0  0  0  0  0  0  0
    6.2207  -14.3342   26.0617 C   0  0  0  0  0  0  0  0  0  0  0  0
    5.7938  -13.0228   25.8521 C   0  0  0  0  0  0  0  0  0  0  0  0
   10.2652  -17.0356   28.3006 O   0  0  0  0  0  0  0  0  0  0  0  0
  2  1  1  6
  3  2  1  0
  4  2  1  0
  4  5  1  6
  6 14  1  0
  6  4  1  0
  7  6  2  0
  8  9  1  0
  9 10  2  0
 11 12  1  0
 11  9  1  0
 13 12  1  6
 13 14  1  0
 15 13  1  0
 16 15  2  0
 18 28  2  0
 18 17  1  0
 19 18  1  0
 20 21  1  0
 20 19  2  0
 21 27  2  0
 22 21  1  0
 23 22  1  1
 23 25  1  0
 23 24  1  0
 24 15  1  0
 25 26  1  0
 27 28  1  0
 29 25  2  0
M  END
$$$$
