VQY.pdb
     RDKit          3D

 29 29  0  0  1  0  0  0  0  0999 V2000
    8.8711  -13.1529   20.5249 C   0  0  0  0  0  0  0  0  0  0  0  0
    8.1418  -13.7197   19.3350 C   0  0  1  0  0  0  0  0  0  0  0  0
    8.1470  -12.7888   18.1705 C   0  0  0  0  0  0  0  0  0  0  0  0
    8.7193  -15.0845   19.0484 C   0  0  2  0  0  0  0  0  0  0  0  0
    8.2410  -15.6272   17.7997 N   0  0  0  0  0  0  0  0  0  0  0  0
    8.4327  -16.0725   20.1189 C   0  0  0  0  0  0  0  0  0  0  0  0
    7.6074  -16.9960   19.9554 O   0  0  0  0  0  0  0  0  0  0  0  0
    8.9525  -20.3015   21.9952 N   0  0  0  0  0  0  0  0  0  0  0  0
   10.2770  -20.3036   21.4977 C   0  0  0  0  0  0  0  0  0  0  0  0
   10.7303  -21.3246   20.9422 O   0  0  0  0  0  0  0  0  0  0  0  0
   11.1240  -19.1004   21.6359 C   0  0  0  0  0  0  0  0  0  0  0  0
   10.4627  -17.8618   21.1503 C   0  0  0  0  0  0  0  0  0  0  0  0
    9.5936  -17.1197   22.1279 C   0  0  2  0  0  0  0  0  0  0  0  0
    9.0953  -15.9754   21.3392 N   0  0  0  0  0  0  0  0  0  0  0  0
   10.2747  -16.6695   23.3237 C   0  0  0  0  0  0  0  0  0  0  0  0
   10.7012  -17.5230   24.1419 O   0  0  0  0  0  0  0  0  0  0  0  0
    5.3996  -11.6458   28.2492 O   0  0  0  0  0  0  0  0  0  0  0  0
    6.1738  -12.3254   27.3045 C   0  0  0  0  0  0  0  0  0  0  0  0
    7.3858  -11.8295   26.8559 C   0  0  0  0  0  0  0  0  0  0  0  0
    8.1401  -12.5002   25.9290 C   0  0  0  0  0  0  0  0  0  0  0  0
    7.6837  -13.7006   25.4280 C   0  0  0  0  0  0  0  0  0  0  0  0
    8.4447  -14.4484   24.4391 C   0  0  0  0  0  0  0  0  0  0  0  0
    9.8645  -14.7792   24.8440 C   0  0  2  0  0  0  0  0  0  0  0  0
   10.4853  -15.3129   23.6074 N   0  0  0  0  0  0  0  0  0  0  0  0
    9.8384  -15.9042   25.8077 C   0  0  0  0  0  0  0  0  0  0  0  0
   10.1825  -15.7371   27.1503 O   0  0  0  0  0  0  0  0  0  0  0  0
    6.4775  -14.2142   25.8614 C   0  0  0  0  0  0  0  0  0  0  0  0
    5.7215  -13.5189   26.8054 C   0  0  0  0  0  0  0  0  0  0  0  0
    9.5091  -17.0764   25.4917 O   0  0  0  0  0  0  0  0  0  0  0  0
  2  1  1  1
  3  2  1  0
  4  2  1  0
  4  5  1  6
  6 14  1  0
  6  4  1  0
  7  6  2  0
  8  9  1  0
  9 10  2  0
 11 12  1  0
 11  9  1  0
 13 12  1  6
 13 14  1  0
 15 13  1  0
 16 15  2  0
 18 28  2  0
 18 17  1  0
 19 18  1  0
 20 21  1  0
 20 19  2  0
 21 27  2  0
 22 21  1  0
 23 22  1  6
 23 25  1  0
 23 24  1  0
 24 15  1  0
 25 26  1  0
 27 28  1  0
 29 25  2  0
M  END
$$$$
