VQY.pdb
     RDKit          3D

 29 29  0  0  1  0  0  0  0  0999 V2000
    8.7955  -12.8049   20.8180 C   0  0  0  0  0  0  0  0  0  0  0  0
    7.8334  -13.3397   19.7897 C   0  0  1  0  0  0  0  0  0  0  0  0
    7.6306  -12.3928   18.6563 C   0  0  0  0  0  0  0  0  0  0  0  0
    8.3119  -14.7119   19.3815 C   0  0  2  0  0  0  0  0  0  0  0  0
    7.5058  -15.2786   18.3272 N   0  0  0  0  0  0  0  0  0  0  0  0
    8.3381  -15.6768   20.5095 C   0  0  0  0  0  0  0  0  0  0  0  0
    7.3015  -16.2500   20.9067 O   0  0  0  0  0  0  0  0  0  0  0  0
   11.8052  -20.0456   20.6026 N   0  0  0  0  0  0  0  0  0  0  0  0
   11.8972  -19.9637   22.0120 C   0  0  0  0  0  0  0  0  0  0  0  0
   12.2996  -20.9468   22.6664 O   0  0  0  0  0  0  0  0  0  0  0  0
   11.5168  -18.7178   22.7099 C   0  0  0  0  0  0  0  0  0  0  0  0
   10.9941  -17.6716   21.7938 C   0  0  0  0  0  0  0  0  0  0  0  0
    9.7292  -16.9694   22.2049 C   0  0  2  0  0  0  0  0  0  0  0  0
    9.5435  -15.9564   21.1471 N   0  0  0  0  0  0  0  0  0  0  0  0
    9.7773  -16.3515   23.5135 C   0  0  0  0  0  0  0  0  0  0  0  0
   10.5806  -15.4056   23.7133 O   0  0  0  0  0  0  0  0  0  0  0  0
    6.0917  -10.4652   26.4811 O   0  0  0  0  0  0  0  0  0  0  0  0
    6.5287  -11.7928   26.4627 C   0  0  0  0  0  0  0  0  0  0  0  0
    7.8697  -12.1249   26.5489 C   0  0  0  0  0  0  0  0  0  0  0  0
    8.2920  -13.4284   26.5299 C   0  0  0  0  0  0  0  0  0  0  0  0
    7.3601  -14.4384   26.4224 C   0  0  0  0  0  0  0  0  0  0  0  0
    7.7576  -15.8375   26.3928 C   0  0  0  0  0  0  0  0  0  0  0  0
    9.1585  -16.0914   25.8804 C   0  0  2  0  0  0  0  0  0  0  0  0
    8.9566  -16.7621   24.5732 N   0  0  0  0  0  0  0  0  0  0  0  0
    9.8154  -17.0900   26.7560 C   0  0  0  0  0  0  0  0  0  0  0  0
   10.4445  -16.7288   27.9487 O   0  0  0  0  0  0  0  0  0  0  0  0
    6.0169  -14.1303   26.3353 C   0  0  0  0  0  0  0  0  0  0  0  0
    5.6035  -12.7982   26.3560 C   0  0  0  0  0  0  0  0  0  0  0  0
    9.8544  -18.3194   26.4928 O   0  0  0  0  0  0  0  0  0  0  0  0
  2  1  1  1
  3  2  1  0
  4  2  1  0
  4  5  1  6
  6 14  1  0
  6  4  1  0
  7  6  2  0
  8  9  1  0
  9 10  2  0
 11 12  1  0
 11  9  1  0
 13 12  1  6
 13 14  1  0
 15 13  1  0
 16 15  2  0
 18 28  2  0
 18 17  1  0
 19 18  1  0
 20 21  1  0
 20 19  2  0
 21 27  2  0
 22 21  1  0
 23 22  1  1
 23 25  1  0
 23 24  1  0
 24 15  1  0
 25 26  1  0
 27 28  1  0
 29 25  2  0
M  END
$$$$
