VQY.pdb
     RDKit          3D

 29 29  0  0  1  0  0  0  0  0999 V2000
    8.4957  -12.7225   21.0393 C   0  0  0  0  0  0  0  0  0  0  0  0
    7.7310  -13.1980   19.8318 C   0  0  1  0  0  0  0  0  0  0  0  0
    7.7176  -12.1883   18.7351 C   0  0  0  0  0  0  0  0  0  0  0  0
    8.2863  -14.5448   19.4364 C   0  0  2  0  0  0  0  0  0  0  0  0
    7.6625  -15.0620   18.2423 N   0  0  0  0  0  0  0  0  0  0  0  0
    8.1496  -15.5657   20.5056 C   0  0  0  0  0  0  0  0  0  0  0  0
    7.0682  -16.1552   20.7153 O   0  0  0  0  0  0  0  0  0  0  0  0
   11.2369  -20.4493   20.6559 N   0  0  0  0  0  0  0  0  0  0  0  0
   11.4147  -20.1014   22.0157 C   0  0  0  0  0  0  0  0  0  0  0  0
   12.3386  -20.6206   22.6740 O   0  0  0  0  0  0  0  0  0  0  0  0
   10.5084  -19.1261   22.6574 C   0  0  0  0  0  0  0  0  0  0  0  0
   10.2063  -17.9546   21.7951 C   0  0  0  0  0  0  0  0  0  0  0  0
    9.2675  -16.9188   22.3494 C   0  0  2  0  0  0  0  0  0  0  0  0
    9.2485  -15.8807   21.2998 N   0  0  0  0  0  0  0  0  0  0  0  0
    9.6657  -16.3609   23.6249 C   0  0  0  0  0  0  0  0  0  0  0  0
   10.6836  -15.6253   23.6790 O   0  0  0  0  0  0  0  0  0  0  0  0
    5.9663  -10.7738   26.1854 O   0  0  0  0  0  0  0  0  0  0  0  0
    6.5452  -12.0338   26.3612 C   0  0  0  0  0  0  0  0  0  0  0  0
    6.0391  -13.1659   25.7461 C   0  0  0  0  0  0  0  0  0  0  0  0
    6.6108  -14.3987   25.9228 C   0  0  0  0  0  0  0  0  0  0  0  0
    7.7193  -14.5188   26.7333 C   0  0  0  0  0  0  0  0  0  0  0  0
    8.3597  -15.8058   26.9570 C   0  0  0  0  0  0  0  0  0  0  0  0
    9.5505  -16.0885   26.0673 C   0  0  2  0  0  0  0  0  0  0  0  0
    8.9567  -16.6033   24.8096 N   0  0  0  0  0  0  0  0  0  0  0  0
   10.3243  -17.2122   26.6450 C   0  0  0  0  0  0  0  0  0  0  0  0
   11.2305  -17.0268   27.6906 O   0  0  0  0  0  0  0  0  0  0  0  0
    8.2413  -13.4029   27.3568 C   0  0  0  0  0  0  0  0  0  0  0  0
    7.6474  -12.1551   27.1666 C   0  0  0  0  0  0  0  0  0  0  0  0
   10.2235  -18.3993   26.2414 O   0  0  0  0  0  0  0  0  0  0  0  0
  2  1  1  1
  3  2  1  0
  4  2  1  0
  4  5  1  6
  6 14  1  0
  6  4  1  0
  7  6  2  0
  8  9  1  0
  9 10  2  0
 11 12  1  0
 11  9  1  0
 13 12  1  6
 13 14  1  0
 15 13  1  0
 16 15  2  0
 18 28  2  0
 18 17  1  0
 19 18  1  0
 20 21  1  0
 20 19  2  0
 21 27  2  0
 22 21  1  0
 23 22  1  1
 23 25  1  0
 23 24  1  0
 24 15  1  0
 25 26  1  0
 27 28  1  0
 29 25  2  0
M  END
$$$$
