VQY.pdb
     RDKit          3D

 29 29  0  0  1  0  0  0  0  0999 V2000
    7.8711  -13.0231   20.7131 C   0  0  0  0  0  0  0  0  0  0  0  0
    7.6636  -13.3566   19.2590 C   0  0  1  0  0  0  0  0  0  0  0  0
    7.8467  -12.1712   18.3736 C   0  0  0  0  0  0  0  0  0  0  0  0
    8.5512  -14.5309   18.9249 C   0  0  2  0  0  0  0  0  0  0  0  0
    8.3995  -14.9559   17.5541 N   0  0  0  0  0  0  0  0  0  0  0  0
    8.3125  -15.7063   19.7997 C   0  0  0  0  0  0  0  0  0  0  0  0
    7.6569  -16.6945   19.4064 O   0  0  0  0  0  0  0  0  0  0  0  0
   10.0593  -20.3524   20.2485 N   0  0  0  0  0  0  0  0  0  0  0  0
   10.9479  -19.2531   20.3100 C   0  0  0  0  0  0  0  0  0  0  0  0
   12.1128  -19.3711   19.8791 O   0  0  0  0  0  0  0  0  0  0  0  0
   10.4998  -17.9672   20.8844 C   0  0  0  0  0  0  0  0  0  0  0  0
    9.1115  -18.0152   21.4113 C   0  0  0  0  0  0  0  0  0  0  0  0
    8.5928  -16.7783   22.0916 C   0  0  2  0  0  0  0  0  0  0  0  0
    8.8280  -15.7170   21.0927 N   0  0  0  0  0  0  0  0  0  0  0  0
    9.2389  -16.4618   23.3482 C   0  0  0  0  0  0  0  0  0  0  0  0
   10.4594  -16.1609   23.3488 O   0  0  0  0  0  0  0  0  0  0  0  0
    6.3117  -10.4359   25.8656 O   0  0  0  0  0  0  0  0  0  0  0  0
    6.7753  -11.7350   26.0920 C   0  0  0  0  0  0  0  0  0  0  0  0
    5.9176  -12.7763   26.4017 C   0  0  0  0  0  0  0  0  0  0  0  0
    6.3783  -14.0478   26.6231 C   0  0  0  0  0  0  0  0  0  0  0  0
    7.7305  -14.3007   26.5358 C   0  0  0  0  0  0  0  0  0  0  0  0
    8.2699  -15.6318   26.7669 C   0  0  0  0  0  0  0  0  0  0  0  0
    9.3248  -16.0730   25.7759 C   0  0  2  0  0  0  0  0  0  0  0  0
    8.5557  -16.4714   24.5721 N   0  0  0  0  0  0  0  0  0  0  0  0
    9.9677  -17.3095   26.2790 C   0  0  0  0  0  0  0  0  0  0  0  0
   10.8824  -17.2921   27.3334 O   0  0  0  0  0  0  0  0  0  0  0  0
    8.6045  -13.2770   26.2279 C   0  0  0  0  0  0  0  0  0  0  0  0
    8.1194  -11.9881   26.0055 C   0  0  0  0  0  0  0  0  0  0  0  0
    9.7401  -18.4501   25.7998 O   0  0  0  0  0  0  0  0  0  0  0  0
  2  1  1  1
  3  2  1  0
  4  2  1  0
  4  5  1  6
  6 14  1  0
  6  4  1  0
  7  6  2  0
  8  9  1  0
  9 10  2  0
 11 12  1  0
 11  9  1  0
 13 12  1  6
 13 14  1  0
 15 13  1  0
 16 15  2  0
 18 28  2  0
 18 17  1  0
 19 18  1  0
 20 21  1  0
 20 19  2  0
 21 27  2  0
 22 21  1  0
 23 22  1  1
 23 25  1  0
 23 24  1  0
 24 15  1  0
 25 26  1  0
 27 28  1  0
 29 25  2  0
M  END
$$$$
