VQY.pdb
     RDKit          3D

 29 29  0  0  1  0  0  0  0  0999 V2000
    6.7865  -13.0167   20.3702 C   0  0  0  0  0  0  0  0  0  0  0  0
    7.9097  -13.3812   19.4351 C   0  0  1  0  0  0  0  0  0  0  0  0
    8.1362  -12.3433   18.3891 C   0  0  0  0  0  0  0  0  0  0  0  0
    9.1230  -13.6991   20.2749 C   0  0  2  0  0  0  0  0  0  0  0  0
   10.2291  -14.1713   19.4774 N   0  0  0  0  0  0  0  0  0  0  0  0
    8.8513  -14.7095   21.3282 C   0  0  0  0  0  0  0  0  0  0  0  0
    7.8891  -14.5930   22.1165 O   0  0  0  0  0  0  0  0  0  0  0  0
   11.5718  -20.2347   20.6152 N   0  0  0  0  0  0  0  0  0  0  0  0
   11.2658  -20.3151   21.9942 C   0  0  0  0  0  0  0  0  0  0  0  0
   11.7220  -21.2535   22.6781 O   0  0  0  0  0  0  0  0  0  0  0  0
   10.4065  -19.2914   22.6250 C   0  0  0  0  0  0  0  0  0  0  0  0
   10.3544  -18.0198   21.8586 C   0  0  0  0  0  0  0  0  0  0  0  0
    9.5035  -16.9144   22.4207 C   0  0  2  0  0  0  0  0  0  0  0  0
    9.6844  -15.8182   21.4484 N   0  0  0  0  0  0  0  0  0  0  0  0
    9.8669  -16.4896   23.7564 C   0  0  0  0  0  0  0  0  0  0  0  0
   10.8816  -15.7641   23.9119 O   0  0  0  0  0  0  0  0  0  0  0  0
    6.0152  -11.0777   25.8558 O   0  0  0  0  0  0  0  0  0  0  0  0
    6.5773  -12.3280   26.1287 C   0  0  0  0  0  0  0  0  0  0  0  0
    5.8733  -13.5051   25.9425 C   0  0  0  0  0  0  0  0  0  0  0  0
    6.4298  -14.7280   26.2124 C   0  0  0  0  0  0  0  0  0  0  0  0
    7.7244  -14.7919   26.6814 C   0  0  0  0  0  0  0  0  0  0  0  0
    8.3585  -16.0649   26.9875 C   0  0  0  0  0  0  0  0  0  0  0  0
    9.6175  -16.3555   26.2002 C   0  0  2  0  0  0  0  0  0  0  0  0
    9.1273  -16.8507   24.8911 N   0  0  0  0  0  0  0  0  0  0  0  0
   10.3246  -17.4948   26.8305 C   0  0  0  0  0  0  0  0  0  0  0  0
   11.0634  -17.3489   28.0059 O   0  0  0  0  0  0  0  0  0  0  0  0
    8.4455  -13.6303   26.8745 C   0  0  0  0  0  0  0  0  0  0  0  0
    7.8644  -12.3933   26.5951 C   0  0  0  0  0  0  0  0  0  0  0  0
   10.3119  -18.6611   26.3594 O   0  0  0  0  0  0  0  0  0  0  0  0
  2  1  1  1
  3  2  1  0
  4  2  1  0
  4  5  1  6
  6 14  1  0
  6  4  1  0
  7  6  2  0
  8  9  1  0
  9 10  2  0
 11 12  1  0
 11  9  1  0
 13 12  1  6
 13 14  1  0
 15 13  1  0
 16 15  2  0
 18 28  2  0
 18 17  1  0
 19 18  1  0
 20 21  1  0
 20 19  2  0
 21 27  2  0
 22 21  1  0
 23 22  1  1
 23 25  1  0
 23 24  1  0
 24 15  1  0
 25 26  1  0
 27 28  1  0
 29 25  2  0
M  END
$$$$
