VQY.pdb
     RDKit          3D

 29 29  0  0  1  0  0  0  0  0999 V2000
    8.7809  -12.8086   21.4138 C   0  0  0  0  0  0  0  0  0  0  0  0
    7.8044  -13.2773   20.3671 C   0  0  1  0  0  0  0  0  0  0  0  0
    7.5364  -12.2358   19.3346 C   0  0  0  0  0  0  0  0  0  0  0  0
    8.3127  -14.5879   19.8173 C   0  0  2  0  0  0  0  0  0  0  0  0
    7.4733  -15.0973   18.7597 N   0  0  0  0  0  0  0  0  0  0  0  0
    8.4368  -15.6432   20.8542 C   0  0  0  0  0  0  0  0  0  0  0  0
    7.4683  -16.3636   21.1764 O   0  0  0  0  0  0  0  0  0  0  0  0
   12.9440  -19.2977   20.5030 N   0  0  0  0  0  0  0  0  0  0  0  0
   12.7648  -19.4764   21.8950 C   0  0  0  0  0  0  0  0  0  0  0  0
   13.5564  -20.1971   22.5358 O   0  0  0  0  0  0  0  0  0  0  0  0
   11.6423  -18.8128   22.5906 C   0  0  0  0  0  0  0  0  0  0  0  0
   11.1189  -17.6306   21.8587 C   0  0  0  0  0  0  0  0  0  0  0  0
    9.9445  -16.9130   22.4651 C   0  0  2  0  0  0  0  0  0  0  0  0
    9.6595  -15.8425   21.4893 N   0  0  0  0  0  0  0  0  0  0  0  0
   10.1848  -16.3642   23.7833 C   0  0  0  0  0  0  0  0  0  0  0  0
   11.1674  -15.5998   23.9570 O   0  0  0  0  0  0  0  0  0  0  0  0
    6.2068  -10.9820   25.3215 O   0  0  0  0  0  0  0  0  0  0  0  0
    6.8109  -12.1711   25.7395 C   0  0  0  0  0  0  0  0  0  0  0  0
    7.9711  -12.1786   26.4944 C   0  0  0  0  0  0  0  0  0  0  0  0
    8.5590  -13.3478   26.9008 C   0  0  0  0  0  0  0  0  0  0  0  0
    7.9828  -14.5503   26.5511 C   0  0  0  0  0  0  0  0  0  0  0  0
    8.5706  -15.8187   26.9534 C   0  0  0  0  0  0  0  0  0  0  0  0
    9.8340  -16.1993   26.2128 C   0  0  2  0  0  0  0  0  0  0  0  0
    9.3595  -16.6463   24.8807 N   0  0  0  0  0  0  0  0  0  0  0  0
   10.4267  -17.3938   26.8585 C   0  0  0  0  0  0  0  0  0  0  0  0
   11.0715  -17.3240   28.0947 O   0  0  0  0  0  0  0  0  0  0  0  0
    6.8252  -14.5667   25.7986 C   0  0  0  0  0  0  0  0  0  0  0  0
    6.2393  -13.3675   25.3927 C   0  0  0  0  0  0  0  0  0  0  0  0
   10.3934  -18.5428   26.3476 O   0  0  0  0  0  0  0  0  0  0  0  0
  2  1  1  1
  3  2  1  0
  4  2  1  0
  4  5  1  6
  6 14  1  0
  6  4  1  0
  7  6  2  0
  8  9  1  0
  9 10  2  0
 11 12  1  0
 11  9  1  0
 13 12  1  6
 13 14  1  0
 15 13  1  0
 16 15  2  0
 18 28  2  0
 18 17  1  0
 19 18  1  0
 20 21  1  0
 20 19  2  0
 21 27  2  0
 22 21  1  0
 23 22  1  1
 23 25  1  0
 23 24  1  0
 24 15  1  0
 25 26  1  0
 27 28  1  0
 29 25  2  0
M  END
$$$$
