VQY.pdb
     RDKit          3D

 29 29  0  0  1  0  0  0  0  0999 V2000
    9.0239  -12.7287   21.3418 C   0  0  0  0  0  0  0  0  0  0  0  0
    7.9017  -13.1170   20.4151 C   0  0  1  0  0  0  0  0  0  0  0  0
    7.6944  -12.1197   19.3265 C   0  0  0  0  0  0  0  0  0  0  0  0
    8.1674  -14.5229   19.9342 C   0  0  2  0  0  0  0  0  0  0  0  0
    7.1717  -14.9737   18.9919 N   0  0  0  0  0  0  0  0  0  0  0  0
    8.2351  -15.5115   21.0397 C   0  0  0  0  0  0  0  0  0  0  0  0
    7.2047  -15.9331   21.6067 O   0  0  0  0  0  0  0  0  0  0  0  0
   13.3401  -18.9384   21.2902 N   0  0  0  0  0  0  0  0  0  0  0  0
   12.5256  -19.6050   22.2357 C   0  0  0  0  0  0  0  0  0  0  0  0
   12.8022  -20.7715   22.5812 O   0  0  0  0  0  0  0  0  0  0  0  0
   11.3482  -18.9234   22.8132 C   0  0  0  0  0  0  0  0  0  0  0  0
   10.8420  -17.8133   21.9655 C   0  0  0  0  0  0  0  0  0  0  0  0
    9.6781  -17.0217   22.4949 C   0  0  2  0  0  0  0  0  0  0  0  0
    9.4734  -15.9864   21.4625 N   0  0  0  0  0  0  0  0  0  0  0  0
    9.8941  -16.4231   23.7955 C   0  0  0  0  0  0  0  0  0  0  0  0
   10.7340  -15.4948   23.9089 O   0  0  0  0  0  0  0  0  0  0  0  0
    5.9011  -10.9422   25.8473 O   0  0  0  0  0  0  0  0  0  0  0  0
    6.5058  -12.1716   26.1242 C   0  0  0  0  0  0  0  0  0  0  0  0
    7.7604  -12.2581   26.7025 C   0  0  0  0  0  0  0  0  0  0  0  0
    8.3483  -13.4665   26.9712 C   0  0  0  0  0  0  0  0  0  0  0  0
    7.6759  -14.6286   26.6591 C   0  0  0  0  0  0  0  0  0  0  0  0
    8.2589  -15.9357   26.9197 C   0  0  0  0  0  0  0  0  0  0  0  0
    9.5775  -16.1957   26.2247 C   0  0  2  0  0  0  0  0  0  0  0  0
    9.1978  -16.8335   24.9408 N   0  0  0  0  0  0  0  0  0  0  0  0
   10.3266  -17.2223   26.9863 C   0  0  0  0  0  0  0  0  0  0  0  0
   10.5095  -18.5181   26.5002 O   0  0  0  0  0  0  0  0  0  0  0  0
    6.4232  -14.5661   26.0817 C   0  0  0  0  0  0  0  0  0  0  0  0
    5.8387  -13.3280   25.8146 C   0  0  0  0  0  0  0  0  0  0  0  0
   10.8454  -17.0053   28.1115 O   0  0  0  0  0  0  0  0  0  0  0  0
  2  1  1  6
  3  2  1  0
  4  2  1  0
  4  5  1  6
  6 14  1  0
  6  4  1  0
  7  6  2  0
  8  9  1  0
  9 10  2  0
 11 12  1  0
 11  9  1  0
 13 12  1  6
 13 14  1  0
 15 13  1  0
 16 15  2  0
 18 28  2  0
 18 17  1  0
 19 18  1  0
 20 21  1  0
 20 19  2  0
 21 27  2  0
 22 21  1  0
 23 22  1  1
 23 25  1  0
 23 24  1  0
 24 15  1  0
 25 26  1  0
 27 28  1  0
 29 25  2  0
M  END
$$$$
