LPT.pdb
     RDKit          3D

 23 23  0  0  1  0  0  0  0  0999 V2000
   21.5945  -23.7077  -14.5684 C   0  0  0  0  0  0  0  0  0  0  0  0
   22.6504  -23.2772  -13.5591 C   0  0  1  0  0  0  0  0  0  0  0  0
   23.9984  -23.5306  -14.1598 C   0  0  0  0  0  0  0  0  0  0  0  0
   22.4240  -21.8900  -13.0810 C   0  0  0  0  0  0  0  0  0  0  0  0
   23.5110  -21.3429  -12.1790 C   0  0  2  0  0  0  0  0  0  0  0  0
   23.0401  -21.0291  -10.8898 N   0  0  0  0  0  0  0  0  0  0  0  0
   24.2131  -20.2946  -12.9157 C   0  0  0  0  0  0  0  0  0  0  0  0
   23.6460  -19.1451  -12.9326 O   0  0  0  0  0  0  0  0  0  0  0  0
   25.4294  -20.4027  -13.6026 N   0  0  0  0  0  0  0  0  0  0  0  0
   26.2912  -21.5339  -13.8692 C   0  0  0  0  0  0  0  0  0  0  0  0
   27.6380  -20.9488  -13.4083 C   0  0  0  0  0  0  0  0  0  0  0  0
   27.6122  -19.6397  -14.1711 C   0  0  0  0  0  0  0  0  0  0  0  0
   26.1623  -19.2957  -14.2678 C   0  0  1  0  0  0  0  0  0  0  0  0
   25.6585  -19.2507  -15.6556 C   0  0  0  0  0  0  0  0  0  0  0  0
   25.4697  -20.3271  -16.3080 O   0  0  0  0  0  0  0  0  0  0  0  0
   22.5072  -17.3802  -16.5690 C   0  0  0  0  0  0  0  0  0  0  0  0
   23.6448  -16.8641  -17.3808 C   0  0  1  0  0  0  0  0  0  0  0  0
   24.1730  -15.7039  -16.7830 O   0  0  0  0  0  0  0  0  0  0  0  0
   24.7841  -17.8466  -17.5272 C   0  0  2  0  0  0  0  0  0  0  0  0
   25.3949  -17.9834  -16.2316 N   0  0  0  0  0  0  0  0  0  0  0  0
   25.7863  -17.4297  -18.5043 C   0  0  0  0  0  0  0  0  0  0  0  0
   26.9081  -17.0337  -18.1129 O   0  0  0  0  0  0  0  0  0  0  0  0
   25.5564  -17.4497  -19.8703 O   0  0  0  0  0  0  0  0  0  0  0  0
  2  1  1  6
  3  2  1  0
  4  5  1  0
  4  2  1  0
  5  6  1  1
  5  7  1  0
  7  9  1  0
  8  7  2  0
  9 13  1  0
  9 10  1  0
 10 11  1  0
 11 12  1  0
 13 12  1  0
 13 14  1  6
 14 15  2  0
 14 20  1  0
 17 19  1  0
 17 16  1  1
 18 17  1  0
 19 21  1  0
 19 20  1  1
 21 22  2  0
 21 23  1  0
M  END
$$$$
