LPT.pdb
     RDKit          3D

 23 23  0  0  1  0  0  0  0  0999 V2000
   23.8887  -14.2298  -14.4927 C   0  0  0  0  0  0  0  0  0  0  0  0
   23.0619  -14.1250  -15.7671 C   0  0  1  0  0  0  0  0  0  0  0  0
   21.9398  -15.1124  -15.6758 C   0  0  0  0  0  0  0  0  0  0  0  0
   22.6495  -12.7260  -16.0443 C   0  0  0  0  0  0  0  0  0  0  0  0
   21.9369  -12.5229  -17.3653 C   0  0  2  0  0  0  0  0  0  0  0  0
   22.7206  -12.9077  -18.4700 N   0  0  0  0  0  0  0  0  0  0  0  0
   21.3833  -11.1708  -17.3678 C   0  0  0  0  0  0  0  0  0  0  0  0
   22.0692  -10.2852  -17.9911 O   0  0  0  0  0  0  0  0  0  0  0  0
   20.1943  -10.7345  -16.7688 N   0  0  0  0  0  0  0  0  0  0  0  0
   19.2947  -11.3709  -15.8312 C   0  0  0  0  0  0  0  0  0  0  0  0
   17.9570  -11.1379  -16.5558 C   0  0  0  0  0  0  0  0  0  0  0  0
   18.0749   -9.6503  -16.8192 C   0  0  0  0  0  0  0  0  0  0  0  0
   19.5417   -9.4163  -16.9733 C   0  0  1  0  0  0  0  0  0  0  0  0
   20.1066   -8.5191  -15.9449 C   0  0  0  0  0  0  0  0  0  0  0  0
   20.5234   -8.9891  -14.8380 O   0  0  0  0  0  0  0  0  0  0  0  0
   23.0033   -6.4457  -16.5758 C   0  0  0  0  0  0  0  0  0  0  0  0
   21.9146   -5.5251  -16.1439 C   0  0  1  0  0  0  0  0  0  0  0  0
   21.3023   -4.9443  -17.2709 O   0  0  0  0  0  0  0  0  0  0  0  0
   20.8243   -6.2029  -15.3459 C   0  0  2  0  0  0  0  0  0  0  0  0
   20.1690   -7.1322  -16.2274 N   0  0  0  0  0  0  0  0  0  0  0  0
   19.8449   -5.2701  -14.7949 C   0  0  0  0  0  0  0  0  0  0  0  0
   18.7276   -5.1451  -15.3466 O   0  0  0  0  0  0  0  0  0  0  0  0
   20.0921   -4.4999  -13.6701 O   0  0  0  0  0  0  0  0  0  0  0  0
  2  1  1  1
  3  2  1  0
  4  5  1  0
  4  2  1  0
  5  6  1  6
  5  7  1  0
  7  9  1  0
  8  7  2  0
  9 13  1  0
  9 10  1  0
 10 11  1  0
 11 12  1  0
 13 12  1  0
 13 14  1  1
 14 15  2  0
 14 20  1  0
 17 19  1  0
 17 16  1  6
 18 17  1  0
 19 21  1  0
 19 20  1  6
 21 22  2  0
 21 23  1  0
M  END
$$$$
