LPT.pdb
     RDKit          3D

 23 23  0  0  1  0  0  0  0  0999 V2000
   14.5466  -10.4109  -16.1227 C   0  0  0  0  0  0  0  0  0  0  0  0
   15.7806  -11.2166  -16.5063 C   0  0  1  0  0  0  0  0  0  0  0  0
   15.6953  -11.5297  -17.9682 C   0  0  0  0  0  0  0  0  0  0  0  0
   17.0334  -10.5455  -16.0774 C   0  0  0  0  0  0  0  0  0  0  0  0
   18.2973  -11.3453  -16.3165 C   0  0  2  0  0  0  0  0  0  0  0  0
   18.3250  -12.5485  -15.5857 N   0  0  0  0  0  0  0  0  0  0  0  0
   19.4322  -10.4375  -16.1667 C   0  0  0  0  0  0  0  0  0  0  0  0
   20.0955  -10.5444  -15.0750 O   0  0  0  0  0  0  0  0  0  0  0  0
   19.8751   -9.4679  -17.0759 N   0  0  0  0  0  0  0  0  0  0  0  0
   19.3972   -9.0820  -18.3859 C   0  0  0  0  0  0  0  0  0  0  0  0
   20.7220   -9.1231  -19.1682 C   0  0  0  0  0  0  0  0  0  0  0  0
   21.5811   -8.2855  -18.2427 C   0  0  0  0  0  0  0  0  0  0  0  0
   21.0205   -8.5427  -16.8827 C   0  0  1  0  0  0  0  0  0  0  0  0
   20.4643   -7.3365  -16.2367 C   0  0  0  0  0  0  0  0  0  0  0  0
   19.2379   -7.0317  -16.3879 O   0  0  0  0  0  0  0  0  0  0  0  0
   21.3662   -6.5278  -12.5285 C   0  0  0  0  0  0  0  0  0  0  0  0
   21.6243   -5.3566  -13.4123 C   0  0  1  0  0  0  0  0  0  0  0  0
   22.9925   -5.2944  -13.7388 O   0  0  0  0  0  0  0  0  0  0  0  0
   20.8581   -5.3955  -14.7147 C   0  0  2  0  0  0  0  0  0  0  0  0
   21.3313   -6.5376  -15.4510 N   0  0  0  0  0  0  0  0  0  0  0  0
   21.0212   -4.1873  -15.5188 C   0  0  0  0  0  0  0  0  0  0  0  0
   21.7113   -4.2248  -16.5632 O   0  0  0  0  0  0  0  0  0  0  0  0
   20.4402   -2.9761  -15.1798 O   0  0  0  0  0  0  0  0  0  0  0  0
  2  1  1  6
  3  2  1  0
  4  5  1  0
  4  2  1  0
  5  6  1  1
  5  7  1  0
  7  9  1  0
  8  7  2  0
  9 13  1  0
  9 10  1  0
 10 11  1  0
 11 12  1  0
 13 12  1  0
 13 14  1  6
 14 15  2  0
 14 20  1  0
 17 19  1  0
 17 16  1  1
 18 17  1  0
 19 21  1  0
 19 20  1  6
 21 22  2  0
 21 23  1  0
M  END
$$$$
