LPT.pdb
     RDKit          3D

 23 23  0  0  1  0  0  0  0  0999 V2000
   36.9190   -6.7571   -6.9613 C   0  0  0  0  0  0  0  0  0  0  0  0
   36.9187   -8.2670   -7.1590 C   0  0  1  0  0  0  0  0  0  0  0  0
   36.4738   -8.5524   -8.5600 C   0  0  0  0  0  0  0  0  0  0  0  0
   38.2175   -8.8745   -6.7740 C   0  0  0  0  0  0  0  0  0  0  0  0
   38.2649  -10.3857   -6.8660 C   0  0  2  0  0  0  0  0  0  0  0  0
   37.4014  -11.0131   -5.9478 N   0  0  0  0  0  0  0  0  0  0  0  0
   39.6696  -10.7871   -6.8555 C   0  0  0  0  0  0  0  0  0  0  0  0
   40.1029  -11.2832   -5.7557 O   0  0  0  0  0  0  0  0  0  0  0  0
   40.5923  -10.6916   -7.9055 N   0  0  0  0  0  0  0  0  0  0  0  0
   40.4924  -10.1187   -9.2303 C   0  0  0  0  0  0  0  0  0  0  0  0
   41.0297  -11.2958  -10.0636 C   0  0  0  0  0  0  0  0  0  0  0  0
   42.3083  -11.5754   -9.2999 C   0  0  0  0  0  0  0  0  0  0  0  0
   41.9907  -11.1911   -7.8923 C   0  0  1  0  0  0  0  0  0  0  0  0
   42.8160  -10.0758   -7.3854 C   0  0  0  0  0  0  0  0  0  0  0  0
   42.5145   -8.8716   -7.6659 O   0  0  0  0  0  0  0  0  0  0  0  0
   43.9778  -10.1529   -3.7065 C   0  0  0  0  0  0  0  0  0  0  0  0
   45.1375   -9.8724   -4.5986 C   0  0  1  0  0  0  0  0  0  0  0  0
   45.8880  -11.0476   -4.7932 O   0  0  0  0  0  0  0  0  0  0  0  0
   44.7448   -9.3642   -5.9669 C   0  0  2  0  0  0  0  0  0  0  0  0
   43.9427  -10.3866   -6.5847 N   0  0  0  0  0  0  0  0  0  0  0  0
   45.8891   -9.0519   -6.8190 C   0  0  0  0  0  0  0  0  0  0  0  0
   46.2018   -9.8304   -7.7488 O   0  0  0  0  0  0  0  0  0  0  0  0
   46.6633   -7.9156   -6.6491 O   0  0  0  0  0  0  0  0  0  0  0  0
  2  1  1  6
  3  2  1  0
  4  5  1  0
  4  2  1  0
  5  6  1  1
  5  7  1  0
  7  9  1  0
  8  7  2  0
  9 13  1  0
  9 10  1  0
 10 11  1  0
 11 12  1  0
 13 12  1  0
 13 14  1  6
 14 15  2  0
 14 20  1  0
 17 19  1  0
 17 16  1  1
 18 17  1  0
 19 21  1  0
 19 20  1  6
 21 22  2  0
 21 23  1  0
M  END
$$$$
