LPT.pdb
     RDKit          3D

 23 23  0  0  1  0  0  0  0  0999 V2000
   14.5878  -11.0981  -14.5293 C   0  0  0  0  0  0  0  0  0  0  0  0
   15.6430  -11.5481  -15.5308 C   0  0  1  0  0  0  0  0  0  0  0  0
   15.0103  -11.5857  -16.8874 C   0  0  0  0  0  0  0  0  0  0  0  0
   16.8794  -10.7319  -15.4343 C   0  0  0  0  0  0  0  0  0  0  0  0
   18.0501  -11.2531  -16.2418 C   0  0  2  0  0  0  0  0  0  0  0  0
   18.4824  -12.5230  -15.8142 N   0  0  0  0  0  0  0  0  0  0  0  0
   19.0481  -10.1886  -16.3144 C   0  0  0  0  0  0  0  0  0  0  0  0
   20.1015  -10.3581  -15.6038 O   0  0  0  0  0  0  0  0  0  0  0  0
   18.9847   -9.0093  -17.0683 N   0  0  0  0  0  0  0  0  0  0  0  0
   17.9384   -8.4451  -17.8931 C   0  0  0  0  0  0  0  0  0  0  0  0
   18.7447   -8.1515  -19.1707 C   0  0  0  0  0  0  0  0  0  0  0  0
   19.9104   -7.4004  -18.5598 C   0  0  0  0  0  0  0  0  0  0  0  0
   20.0585   -7.9916  -17.1965 C   0  0  1  0  0  0  0  0  0  0  0  0
   19.8317   -7.0218  -16.1057 C   0  0  0  0  0  0  0  0  0  0  0  0
   18.6516   -6.7735  -15.6990 O   0  0  0  0  0  0  0  0  0  0  0  0
   21.3853   -7.4096  -12.8572 C   0  0  0  0  0  0  0  0  0  0  0  0
   21.7509   -6.0417  -13.3204 C   0  0  1  0  0  0  0  0  0  0  0  0
   23.0586   -6.0456  -13.8423 O   0  0  0  0  0  0  0  0  0  0  0  0
   20.8428   -5.5014  -14.4013 C   0  0  2  0  0  0  0  0  0  0  0  0
   20.9589   -6.3831  -15.5324 N   0  0  0  0  0  0  0  0  0  0  0  0
   21.1700   -4.1361  -14.8036 C   0  0  0  0  0  0  0  0  0  0  0  0
   21.7171   -3.9292  -15.9110 O   0  0  0  0  0  0  0  0  0  0  0  0
   20.9014   -3.0344  -14.0076 O   0  0  0  0  0  0  0  0  0  0  0  0
  2  1  1  1
  3  2  1  0
  4  5  1  0
  4  2  1  0
  5  6  1  1
  5  7  1  0
  7  9  1  0
  8  7  2  0
  9 13  1  0
  9 10  1  0
 10 11  1  0
 11 12  1  0
 13 12  1  0
 13 14  1  1
 14 15  2  0
 14 20  1  0
 17 19  1  0
 17 16  1  6
 18 17  1  0
 19 21  1  0
 19 20  1  6
 21 22  2  0
 21 23  1  0
M  END
$$$$
