LPT.pdb
     RDKit          3D

 23 23  0  0  1  0  0  0  0  0999 V2000
   17.9177  -12.0567  -19.7337 C   0  0  0  0  0  0  0  0  0  0  0  0
   18.4182  -12.3025  -18.3167 C   0  0  1  0  0  0  0  0  0  0  0  0
   19.8262  -12.8050  -18.4015 C   0  0  0  0  0  0  0  0  0  0  0  0
   18.2244  -11.1137  -17.4488 C   0  0  0  0  0  0  0  0  0  0  0  0
   18.5117  -11.3453  -15.9797 C   0  0  2  0  0  0  0  0  0  0  0  0
   17.6774  -12.3268  -15.4113 N   0  0  0  0  0  0  0  0  0  0  0  0
   18.5613  -10.0396  -15.3260 C   0  0  0  0  0  0  0  0  0  0  0  0
   17.4872   -9.6681  -14.7331 O   0  0  0  0  0  0  0  0  0  0  0  0
   19.6440   -9.1518  -15.2742 N   0  0  0  0  0  0  0  0  0  0  0  0
   20.9594   -9.1963  -15.8751 C   0  0  0  0  0  0  0  0  0  0  0  0
   21.8217   -8.9030  -14.6345 C   0  0  0  0  0  0  0  0  0  0  0  0
   21.1083   -7.6671  -14.1247 C   0  0  0  0  0  0  0  0  0  0  0  0
   19.6868   -7.8629  -14.5379 C   0  0  1  0  0  0  0  0  0  0  0  0
   19.2017   -6.8378  -15.4844 C   0  0  0  0  0  0  0  0  0  0  0  0
   19.3266   -7.0086  -16.7393 O   0  0  0  0  0  0  0  0  0  0  0  0
   16.2785   -4.3464  -13.9466 C   0  0  0  0  0  0  0  0  0  0  0  0
   16.4899   -4.6679  -15.3858 C   0  0  1  0  0  0  0  0  0  0  0  0
   15.8558   -3.7026  -16.1910 O   0  0  0  0  0  0  0  0  0  0  0  0
   17.9445   -4.7020  -15.7953 C   0  0  2  0  0  0  0  0  0  0  0  0
   18.5988   -5.6699  -14.9555 N   0  0  0  0  0  0  0  0  0  0  0  0
   18.6116   -3.4088  -15.6709 C   0  0  0  0  0  0  0  0  0  0  0  0
   19.2923   -3.1568  -14.6503 O   0  0  0  0  0  0  0  0  0  0  0  0
   18.5292   -2.4252  -16.6431 O   0  0  0  0  0  0  0  0  0  0  0  0
  2  1  1  6
  3  2  1  0
  4  5  1  0
  4  2  1  0
  5  6  1  1
  5  7  1  0
  7  9  1  0
  8  7  2  0
  9 13  1  0
  9 10  1  0
 10 11  1  0
 11 12  1  0
 13 12  1  0
 13 14  1  6
 14 15  2  0
 14 20  1  0
 17 19  1  0
 17 16  1  1
 18 17  1  0
 19 21  1  0
 19 20  1  1
 21 22  2  0
 21 23  1  0
M  END
$$$$
