LPT.pdb
     RDKit          3D

 23 23  0  0  1  0  0  0  0  0999 V2000
   25.5647  -13.5469  -15.6275 C   0  0  0  0  0  0  0  0  0  0  0  0
   24.2221  -13.5082  -16.3451 C   0  0  1  0  0  0  0  0  0  0  0  0
   23.3520  -14.5780  -15.7614 C   0  0  0  0  0  0  0  0  0  0  0  0
   23.6334  -12.1453  -16.3418 C   0  0  0  0  0  0  0  0  0  0  0  0
   22.3872  -11.9887  -17.1885 C   0  0  2  0  0  0  0  0  0  0  0  0
   22.5921  -12.3621  -18.5306 N   0  0  0  0  0  0  0  0  0  0  0  0
   21.8415  -10.6577  -16.9331 C   0  0  0  0  0  0  0  0  0  0  0  0
   22.1422   -9.7542  -17.7914 O   0  0  0  0  0  0  0  0  0  0  0  0
   21.0313  -10.2588  -15.8620 N   0  0  0  0  0  0  0  0  0  0  0  0
   20.5958  -10.9526  -14.6694 C   0  0  0  0  0  0  0  0  0  0  0  0
   19.0844  -10.6714  -14.7426 C   0  0  0  0  0  0  0  0  0  0  0  0
   19.1222   -9.1702  -14.9453 C   0  0  0  0  0  0  0  0  0  0  0  0
   20.3916   -8.9292  -15.6940 C   0  0  1  0  0  0  0  0  0  0  0  0
   21.3645   -8.1007  -14.9532 C   0  0  0  0  0  0  0  0  0  0  0  0
   22.1631   -8.6353  -14.1189 O   0  0  0  0  0  0  0  0  0  0  0  0
   23.4264   -5.6054  -16.9651 C   0  0  0  0  0  0  0  0  0  0  0  0
   22.8214   -4.9146  -15.7920 C   0  0  1  0  0  0  0  0  0  0  0  0
   21.6654   -4.2164  -16.1903 O   0  0  0  0  0  0  0  0  0  0  0  0
   22.4133   -5.8505  -14.6775 C   0  0  2  0  0  0  0  0  0  0  0  0
   21.3800   -6.7054  -15.1989 N   0  0  0  0  0  0  0  0  0  0  0  0
   21.9270   -5.1570  -13.4878 C   0  0  0  0  0  0  0  0  0  0  0  0
   22.7205   -4.4772  -12.7974 O   0  0  0  0  0  0  0  0  0  0  0  0
   20.6060   -5.2128  -13.0740 O   0  0  0  0  0  0  0  0  0  0  0  0
  2  1  1  1
  3  2  1  0
  4  5  1  0
  4  2  1  0
  5  6  1  6
  5  7  1  0
  7  9  1  0
  8  7  2  0
  9 13  1  0
  9 10  1  0
 10 11  1  0
 11 12  1  0
 13 12  1  0
 13 14  1  1
 14 15  2  0
 14 20  1  0
 17 19  1  0
 17 16  1  6
 18 17  1  0
 19 21  1  0
 19 20  1  6
 21 22  2  0
 21 23  1  0
M  END
$$$$
