LPT.pdb
     RDKit          3D

 23 23  0  0  1  0  0  0  0  0999 V2000
   22.3947  -10.7423  -21.1639 C   0  0  0  0  0  0  0  0  0  0  0  0
   21.8642  -11.5702  -20.0012 C   0  0  1  0  0  0  0  0  0  0  0  0
   22.8611  -12.6474  -19.7045 C   0  0  0  0  0  0  0  0  0  0  0  0
   21.4915  -10.7198  -18.8427 C   0  0  0  0  0  0  0  0  0  0  0  0
   20.8904  -11.4688  -17.6714 C   0  0  2  0  0  0  0  0  0  0  0  0
   19.6812  -12.1109  -18.0001 N   0  0  0  0  0  0  0  0  0  0  0  0
   20.8854  -10.5660  -16.5227 C   0  0  0  0  0  0  0  0  0  0  0  0
   19.7891   -9.9372  -16.3084 O   0  0  0  0  0  0  0  0  0  0  0  0
   21.9377  -10.3105  -15.6336 N   0  0  0  0  0  0  0  0  0  0  0  0
   23.3128  -10.7596  -15.6097 C   0  0  0  0  0  0  0  0  0  0  0  0
   23.3994  -11.2539  -14.1548 C   0  0  0  0  0  0  0  0  0  0  0  0
   22.8394  -10.0367  -13.4469 C   0  0  0  0  0  0  0  0  0  0  0  0
   21.8751   -9.4504  -14.4247 C   0  0  1  0  0  0  0  0  0  0  0  0
   22.2429   -8.0918  -14.8729 C   0  0  0  0  0  0  0  0  0  0  0  0
   23.0860   -7.9292  -15.8123 O   0  0  0  0  0  0  0  0  0  0  0  0
   19.9939   -5.7080  -16.3233 C   0  0  0  0  0  0  0  0  0  0  0  0
   20.5419   -5.0644  -15.0965 C   0  0  1  0  0  0  0  0  0  0  0  0
   19.6427   -5.2296  -14.0258 O   0  0  0  0  0  0  0  0  0  0  0  0
   21.8707   -5.6318  -14.6524 C   0  0  2  0  0  0  0  0  0  0  0  0
   21.6331   -6.9865  -14.2297 N   0  0  0  0  0  0  0  0  0  0  0  0
   22.4888   -4.8765  -13.5659 C   0  0  0  0  0  0  0  0  0  0  0  0
   22.5041   -5.3537  -12.4081 O   0  0  0  0  0  0  0  0  0  0  0  0
   23.0714   -3.6336  -13.7527 O   0  0  0  0  0  0  0  0  0  0  0  0
  2  1  1  6
  3  2  1  0
  4  5  1  0
  4  2  1  0
  5  6  1  6
  5  7  1  0
  7  9  1  0
  8  7  2  0
  9 13  1  0
  9 10  1  0
 10 11  1  0
 11 12  1  0
 13 12  1  0
 13 14  1  6
 14 15  2  0
 14 20  1  0
 17 19  1  0
 17 16  1  6
 18 17  1  0
 19 21  1  0
 19 20  1  1
 21 22  2  0
 21 23  1  0
M  END
$$$$
