LPT.pdb
     RDKit          3D

 23 23  0  0  1  0  0  0  0  0999 V2000
   24.8824  -23.9867  -16.3183 C   0  0  0  0  0  0  0  0  0  0  0  0
   24.7892  -23.2616  -14.9824 C   0  0  1  0  0  0  0  0  0  0  0  0
   26.1443  -23.2842  -14.3457 C   0  0  0  0  0  0  0  0  0  0  0  0
   24.1829  -21.9142  -15.1268 C   0  0  0  0  0  0  0  0  0  0  0  0
   24.0459  -21.1367  -13.8340 C   0  0  2  0  0  0  0  0  0  0  0  0
   22.9959  -21.6101  -13.0242 N   0  0  0  0  0  0  0  0  0  0  0  0
   24.0527  -19.7145  -14.1686 C   0  0  0  0  0  0  0  0  0  0  0  0
   22.9445  -19.0931  -13.9984 O   0  0  0  0  0  0  0  0  0  0  0  0
   25.1274  -18.9568  -14.6522 N   0  0  0  0  0  0  0  0  0  0  0  0
   26.4778  -19.3217  -15.0218 C   0  0  0  0  0  0  0  0  0  0  0  0
   27.2603  -18.2625  -14.2253 C   0  0  0  0  0  0  0  0  0  0  0  0
   26.5129  -17.0202  -14.6661 C   0  0  0  0  0  0  0  0  0  0  0  0
   25.1204  -17.4962  -14.9200 C   0  0  1  0  0  0  0  0  0  0  0  0
   24.6921  -17.3426  -16.3253 C   0  0  0  0  0  0  0  0  0  0  0  0
   25.0092  -18.2161  -17.1949 O   0  0  0  0  0  0  0  0  0  0  0  0
   21.7072  -14.3891  -16.9070 C   0  0  0  0  0  0  0  0  0  0  0  0
   21.8169  -15.6854  -17.6330 C   0  0  1  0  0  0  0  0  0  0  0  0
   21.1423  -15.6030  -18.8661 O   0  0  0  0  0  0  0  0  0  0  0  0
   23.2400  -16.0979  -17.9319 C   0  0  2  0  0  0  0  0  0  0  0  0
   23.9246  -16.2029  -16.6707 N   0  0  0  0  0  0  0  0  0  0  0  0
   23.9450  -15.1587  -18.8000 C   0  0  0  0  0  0  0  0  0  0  0  0
   24.7305  -14.3209  -18.3004 O   0  0  0  0  0  0  0  0  0  0  0  0
   23.7873  -15.1456  -20.1763 O   0  0  0  0  0  0  0  0  0  0  0  0
  2  1  1  6
  3  2  1  0
  4  5  1  0
  4  2  1  0
  5  6  1  6
  5  7  1  0
  7  9  1  0
  8  7  2  0
  9 13  1  0
  9 10  1  0
 10 11  1  0
 11 12  1  0
 13 12  1  0
 13 14  1  6
 14 15  2  0
 14 20  1  0
 17 19  1  0
 17 16  1  6
 18 17  1  0
 19 21  1  0
 19 20  1  1
 21 22  2  0
 21 23  1  0
M  END
$$$$
