FDT.pdb
     RDKit          3D

 27 27  0  0  1  0  0  0  0  0999 V2000
    6.2539  -17.0937   23.4226 N   0  0  0  0  0  0  0  0  0  0  0  0
    7.1716  -16.2007   24.0631 C   0  0  1  0  0  0  0  0  0  0  0  0
    6.5737  -15.5856   25.3270 C   0  0  0  0  0  0  0  0  0  0  0  0
    6.5600  -14.1040   25.2305 C   0  0  0  0  0  0  0  0  0  0  0  0
    7.5413  -13.3765   24.5909 C   0  0  0  0  0  0  0  0  0  0  0  0
    7.5045  -11.9942   24.5156 C   0  0  0  0  0  0  0  0  0  0  0  0
    6.4703  -11.2989   25.0865 C   0  0  0  0  0  0  0  0  0  0  0  0
    5.4762  -11.9888   25.7311 C   0  0  0  0  0  0  0  0  0  0  0  0
    5.5202  -13.3683   25.8020 C   0  0  0  0  0  0  0  0  0  0  0  0
    8.4841  -16.8244   24.3413 C   0  0  0  0  0  0  0  0  0  0  0  0
    8.6146  -17.8151   25.1048 O   0  0  0  0  0  0  0  0  0  0  0  0
    9.6660  -16.3159   23.7440 N   0  0  0  0  0  0  0  0  0  0  0  0
   10.9852  -16.7248   24.0794 C   0  0  1  0  0  0  0  0  0  0  0  0
   11.9801  -16.2604   23.0729 C   0  0  0  0  0  0  0  0  0  0  0  0
   13.2971  -16.9056   23.1957 C   0  0  0  0  0  0  0  0  0  0  0  0
   14.3965  -16.3807   22.8812 O   0  0  0  0  0  0  0  0  0  0  0  0
   11.3761  -16.3896   25.4696 C   0  0  0  0  0  0  0  0  0  0  0  0
   11.9843  -15.3201   25.6801 O   0  0  0  0  0  0  0  0  0  0  0  0
   13.3994  -18.2156   23.6992 O   0  0  0  0  0  0  0  0  0  0  0  0
   10.3804  -14.7307   27.9151 C   0  0  0  0  0  0  0  0  0  0  0  0
   10.4439  -16.0848   28.5741 C   0  0  1  0  0  0  0  0  0  0  0  0
    9.1923  -16.6783   28.4231 O   0  0  0  0  0  0  0  0  0  0  0  0
   11.5271  -16.9577   27.9290 C   0  0  2  0  0  0  0  0  0  0  0  0
   11.0963  -17.2208   26.5822 N   0  0  0  0  0  0  0  0  0  0  0  0
   11.6346  -18.1684   28.7555 C   0  0  0  0  0  0  0  0  0  0  0  0
   12.2710  -18.0589   29.9844 O   0  0  0  0  0  0  0  0  0  0  0  0
   11.1932  -19.2859   28.4276 O   0  0  0  0  0  0  0  0  0  0  0  0
  2  1  1  1
  3  2  1  0
  4  3  1  0
  4  5  2  0
  6  5  1  0
  7  6  2  0
  8  9  2  0
  8  7  1  0
  9  4  1  0
 10  2  1  0
 11 10  2  0
 12 10  1  0
 13 17  1  0
 13 12  1  0
 13 14  1  6
 15 14  1  0
 16 15  2  0
 17 18  2  0
 19 15  1  0
 21 20  1  6
 21 22  1  0
 23 21  1  0
 23 24  1  6
 24 17  1  0
 25 26  1  0
 25 23  1  0
 27 25  2  0
M  END
$$$$
