FDT.pdb
     RDKit          3D

 27 27  0  0  1  0  0  0  0  0999 V2000
    6.2463  -16.9787   25.0852 N   0  0  0  0  0  0  0  0  0  0  0  0
    7.1818  -16.5391   24.0947 C   0  0  1  0  0  0  0  0  0  0  0  0
    7.0063  -15.0572   23.7686 C   0  0  0  0  0  0  0  0  0  0  0  0
    6.9718  -14.2491   25.0137 C   0  0  0  0  0  0  0  0  0  0  0  0
    5.9858  -14.3708   25.9699 C   0  0  0  0  0  0  0  0  0  0  0  0
    5.9772  -13.6039   27.1229 C   0  0  0  0  0  0  0  0  0  0  0  0
    6.9689  -12.6850   27.3484 C   0  0  0  0  0  0  0  0  0  0  0  0
    7.9663  -12.5362   26.4195 C   0  0  0  0  0  0  0  0  0  0  0  0
    7.9678  -13.3053   25.2713 C   0  0  0  0  0  0  0  0  0  0  0  0
    8.5849  -16.8458   24.4502 C   0  0  0  0  0  0  0  0  0  0  0  0
    8.8908  -17.6708   25.3487 O   0  0  0  0  0  0  0  0  0  0  0  0
    9.6567  -16.2064   23.7759 N   0  0  0  0  0  0  0  0  0  0  0  0
   11.0279  -16.5509   23.9218 C   0  0  1  0  0  0  0  0  0  0  0  0
   11.8735  -15.9050   22.8795 C   0  0  0  0  0  0  0  0  0  0  0  0
   11.6496  -16.4285   21.5225 C   0  0  0  0  0  0  0  0  0  0  0  0
   11.1544  -17.5523   21.2488 O   0  0  0  0  0  0  0  0  0  0  0  0
   11.5500  -16.3441   25.2937 C   0  0  0  0  0  0  0  0  0  0  0  0
   12.6817  -16.7877   25.5777 O   0  0  0  0  0  0  0  0  0  0  0  0
   11.9973  -15.6555   20.3992 O   0  0  0  0  0  0  0  0  0  0  0  0
   10.9036  -13.0659   27.4985 C   0  0  0  0  0  0  0  0  0  0  0  0
   10.5424  -14.3187   28.2550 C   0  0  1  0  0  0  0  0  0  0  0  0
    9.1628  -14.4832   28.1497 O   0  0  0  0  0  0  0  0  0  0  0  0
   11.2687  -15.5379   27.6739 C   0  0  2  0  0  0  0  0  0  0  0  0
   10.8319  -15.6661   26.3095 N   0  0  0  0  0  0  0  0  0  0  0  0
   10.8991  -16.6845   28.5161 C   0  0  0  0  0  0  0  0  0  0  0  0
   10.1534  -17.7009   27.9349 O   0  0  0  0  0  0  0  0  0  0  0  0
   11.2100  -16.8054   29.7161 O   0  0  0  0  0  0  0  0  0  0  0  0
  2  1  1  1
  3  2  1  0
  4  3  1  0
  4  5  2  0
  6  5  1  0
  7  6  2  0
  8  9  2  0
  8  7  1  0
  9  4  1  0
 10  2  1  0
 11 10  2  0
 12 10  1  0
 13 17  1  0
 13 12  1  0
 13 14  1  6
 15 14  1  0
 16 15  2  0
 17 18  2  0
 19 15  1  0
 21 20  1  6
 21 22  1  0
 23 21  1  0
 23 24  1  6
 24 17  1  0
 25 26  1  0
 25 23  1  0
 27 25  2  0
M  END
$$$$
