FDT.pdb
     RDKit          3D

 27 27  0  0  1  0  0  0  0  0999 V2000
    6.3644  -16.0234   25.4239 N   0  0  0  0  0  0  0  0  0  0  0  0
    7.4588  -15.4770   24.6801 C   0  0  1  0  0  0  0  0  0  0  0  0
    8.1363  -14.3311   25.4294 C   0  0  0  0  0  0  0  0  0  0  0  0
    7.2023  -13.1883   25.5907 C   0  0  0  0  0  0  0  0  0  0  0  0
    6.7285  -12.4409   24.5332 C   0  0  0  0  0  0  0  0  0  0  0  0
    5.8578  -11.3790   24.7115 C   0  0  0  0  0  0  0  0  0  0  0  0
    5.4354  -11.0360   25.9697 C   0  0  0  0  0  0  0  0  0  0  0  0
    5.8857  -11.7568   27.0456 C   0  0  0  0  0  0  0  0  0  0  0  0
    6.7546  -12.8152   26.8594 C   0  0  0  0  0  0  0  0  0  0  0  0
    8.4432  -16.5009   24.2660 C   0  0  0  0  0  0  0  0  0  0  0  0
    8.4861  -17.6467   24.7826 O   0  0  0  0  0  0  0  0  0  0  0  0
    9.3931  -16.2202   23.2505 N   0  0  0  0  0  0  0  0  0  0  0  0
   10.5830  -16.9639   23.0245 C   0  0  1  0  0  0  0  0  0  0  0  0
   11.2286  -16.5941   21.7341 C   0  0  0  0  0  0  0  0  0  0  0  0
   10.4903  -17.0519   20.5462 C   0  0  0  0  0  0  0  0  0  0  0  0
   10.5634  -16.5361   19.4008 O   0  0  0  0  0  0  0  0  0  0  0  0
   11.5271  -16.9368   24.1671 C   0  0  0  0  0  0  0  0  0  0  0  0
   11.9020  -15.8312   24.6089 O   0  0  0  0  0  0  0  0  0  0  0  0
    9.6163  -18.1510   20.6358 O   0  0  0  0  0  0  0  0  0  0  0  0
   11.1544  -16.3074   26.8369 C   0  0  0  0  0  0  0  0  0  0  0  0
   11.6527  -17.7033   27.1108 C   0  0  1  0  0  0  0  0  0  0  0  0
   10.5497  -18.5536   27.0649 O   0  0  0  0  0  0  0  0  0  0  0  0
   12.6941  -18.1275   26.0682 C   0  0  2  0  0  0  0  0  0  0  0  0
   12.0324  -18.1038   24.7913 N   0  0  0  0  0  0  0  0  0  0  0  0
   13.1576  -19.4658   26.4617 C   0  0  0  0  0  0  0  0  0  0  0  0
   14.0574  -19.5555   27.5150 O   0  0  0  0  0  0  0  0  0  0  0  0
   12.7974  -20.5246   25.9138 O   0  0  0  0  0  0  0  0  0  0  0  0
  2  1  1  1
  3  2  1  0
  4  3  1  0
  4  5  2  0
  6  5  1  0
  7  6  2  0
  8  9  2  0
  8  7  1  0
  9  4  1  0
 10  2  1  0
 11 10  2  0
 12 10  1  0
 13 17  1  0
 13 12  1  0
 13 14  1  6
 15 14  1  0
 16 15  2  0
 17 18  2  0
 19 15  1  0
 21 20  1  6
 21 22  1  0
 23 21  1  0
 23 24  1  6
 24 17  1  0
 25 26  1  0
 25 23  1  0
 27 25  2  0
M  END
$$$$
