FDT.pdb
     RDKit          3D

 27 27  0  0  1  0  0  0  0  0999 V2000
    7.7032  -16.9363   26.1052 N   0  0  0  0  0  0  0  0  0  0  0  0
    7.1521  -16.2017   25.0069 C   0  0  1  0  0  0  0  0  0  0  0  0
    7.8750  -14.8727   24.7954 C   0  0  0  0  0  0  0  0  0  0  0  0
    7.4092  -13.8627   25.7789 C   0  0  0  0  0  0  0  0  0  0  0  0
    6.1059  -13.7798   26.2216 C   0  0  0  0  0  0  0  0  0  0  0  0
    5.6976  -12.8271   27.1400 C   0  0  0  0  0  0  0  0  0  0  0  0
    6.5967  -11.9231   27.6433 C   0  0  0  0  0  0  0  0  0  0  0  0
    7.9017  -11.9752   27.2261 C   0  0  0  0  0  0  0  0  0  0  0  0
    8.3014  -12.9289   26.3093 C   0  0  0  0  0  0  0  0  0  0  0  0
    7.1014  -16.9879   23.7546 C   0  0  0  0  0  0  0  0  0  0  0  0
    7.9698  -17.8485   23.4599 O   0  0  0  0  0  0  0  0  0  0  0  0
    6.0495  -16.7944   22.8228 N   0  0  0  0  0  0  0  0  0  0  0  0
    5.9606  -17.4317   21.5555 C   0  0  1  0  0  0  0  0  0  0  0  0
    4.5479  -17.5666   21.1031 C   0  0  0  0  0  0  0  0  0  0  0  0
    3.7674  -18.5487   21.8725 C   0  0  0  0  0  0  0  0  0  0  0  0
    2.5154  -18.5454   21.9980 O   0  0  0  0  0  0  0  0  0  0  0  0
    6.8385  -16.8290   20.5241 C   0  0  0  0  0  0  0  0  0  0  0  0
    6.9470  -17.4015   19.4202 O   0  0  0  0  0  0  0  0  0  0  0  0
    4.4179  -19.6000   22.5446 O   0  0  0  0  0  0  0  0  0  0  0  0
    6.9258  -13.0286   19.8640 C   0  0  0  0  0  0  0  0  0  0  0  0
    8.3505  -13.5114   19.9594 C   0  0  1  0  0  0  0  0  0  0  0  0
    8.8159  -13.1807   21.2306 O   0  0  0  0  0  0  0  0  0  0  0  0
    8.4309  -15.0272   19.7421 C   0  0  2  0  0  0  0  0  0  0  0  0
    7.5674  -15.6304   20.7215 N   0  0  0  0  0  0  0  0  0  0  0  0
    9.8444  -15.3974   19.9018 C   0  0  0  0  0  0  0  0  0  0  0  0
   10.7464  -14.9327   18.9543 O   0  0  0  0  0  0  0  0  0  0  0  0
   10.2874  -16.0999   20.8299 O   0  0  0  0  0  0  0  0  0  0  0  0
  2  1  1  1
  3  2  1  0
  4  3  1  0
  4  5  2  0
  6  5  1  0
  7  6  2  0
  8  9  2  0
  8  7  1  0
  9  4  1  0
 10  2  1  0
 11 10  2  0
 12 10  1  0
 13 17  1  0
 13 12  1  0
 13 14  1  6
 15 14  1  0
 16 15  2  0
 17 18  2  0
 19 15  1  0
 21 20  1  1
 21 22  1  0
 23 21  1  0
 23 24  1  1
 24 17  1  0
 25 26  1  0
 25 23  1  0
 27 25  2  0
M  END
$$$$
