FDT.pdb
     RDKit          3D

 27 27  0  0  1  0  0  0  0  0999 V2000
    6.2179  -16.6619   24.0516 N   0  0  0  0  0  0  0  0  0  0  0  0
    7.4016  -15.9160   24.3551 C   0  0  1  0  0  0  0  0  0  0  0  0
    7.3417  -15.3035   25.7531 C   0  0  0  0  0  0  0  0  0  0  0  0
    6.8410  -13.9071   25.6904 C   0  0  0  0  0  0  0  0  0  0  0  0
    5.5989  -13.5252   26.1518 C   0  0  0  0  0  0  0  0  0  0  0  0
    5.1561  -12.2151   26.0810 C   0  0  0  0  0  0  0  0  0  0  0  0
    5.9572  -11.2437   25.5393 C   0  0  0  0  0  0  0  0  0  0  0  0
    7.1991  -11.5863   25.0702 C   0  0  0  0  0  0  0  0  0  0  0  0
    7.6338  -12.8960   25.1444 C   0  0  0  0  0  0  0  0  0  0  0  0
    8.6417  -16.7009   24.1679 C   0  0  0  0  0  0  0  0  0  0  0  0
    8.7000  -17.9376   24.3887 O   0  0  0  0  0  0  0  0  0  0  0  0
    9.8334  -16.0727   23.7236 N   0  0  0  0  0  0  0  0  0  0  0  0
   11.1425  -16.5958   23.9046 C   0  0  1  0  0  0  0  0  0  0  0  0
   12.0726  -16.1391   22.8347 C   0  0  0  0  0  0  0  0  0  0  0  0
   13.3621  -16.8483   22.8239 C   0  0  0  0  0  0  0  0  0  0  0  0
   14.4788  -16.3314   23.0861 O   0  0  0  0  0  0  0  0  0  0  0  0
   11.6854  -16.3810   25.2672 C   0  0  0  0  0  0  0  0  0  0  0  0
   12.7121  -15.6837   25.4005 O   0  0  0  0  0  0  0  0  0  0  0  0
   13.4145  -18.2170   22.5017 O   0  0  0  0  0  0  0  0  0  0  0  0
   11.3950  -14.3864   27.8293 C   0  0  0  0  0  0  0  0  0  0  0  0
   11.0296  -15.6969   28.4781 C   0  0  1  0  0  0  0  0  0  0  0  0
    9.6420  -15.8132   28.4247 O   0  0  0  0  0  0  0  0  0  0  0  0
   11.6897  -16.8726   27.7477 C   0  0  2  0  0  0  0  0  0  0  0  0
   11.1005  -16.9264   26.4367 N   0  0  0  0  0  0  0  0  0  0  0  0
   11.4235  -18.0698   28.5578 C   0  0  0  0  0  0  0  0  0  0  0  0
   12.0769  -18.1847   29.7773 O   0  0  0  0  0  0  0  0  0  0  0  0
   10.6513  -18.9881   28.2239 O   0  0  0  0  0  0  0  0  0  0  0  0
  2  1  1  1
  3  2  1  0
  4  3  1  0
  4  5  2  0
  6  5  1  0
  7  6  2  0
  8  9  2  0
  8  7  1  0
  9  4  1  0
 10  2  1  0
 11 10  2  0
 12 10  1  0
 13 17  1  0
 13 12  1  0
 13 14  1  6
 15 14  1  0
 16 15  2  0
 17 18  2  0
 19 15  1  0
 21 20  1  6
 21 22  1  0
 23 21  1  0
 23 24  1  6
 24 17  1  0
 25 26  1  0
 25 23  1  0
 27 25  2  0
M  END
$$$$
