FDT.pdb
     RDKit          3D

 27 27  0  0  1  0  0  0  0  0999 V2000
    6.0700  -17.8551   23.5269 N   0  0  0  0  0  0  0  0  0  0  0  0
    6.7838  -16.7083   24.0013 C   0  0  1  0  0  0  0  0  0  0  0  0
    6.0583  -16.0305   25.1622 C   0  0  0  0  0  0  0  0  0  0  0  0
    6.7132  -14.7434   25.5070 C   0  0  0  0  0  0  0  0  0  0  0  0
    7.1023  -14.4093   26.7870 C   0  0  0  0  0  0  0  0  0  0  0  0
    7.7113  -13.2011   27.0816 C   0  0  0  0  0  0  0  0  0  0  0  0
    7.9482  -12.2869   26.0882 C   0  0  0  0  0  0  0  0  0  0  0  0
    7.5749  -12.5845   24.8029 C   0  0  0  0  0  0  0  0  0  0  0  0
    6.9676  -13.7925   24.5170 C   0  0  0  0  0  0  0  0  0  0  0  0
    8.1897  -17.0081   24.3514 C   0  0  0  0  0  0  0  0  0  0  0  0
    8.5060  -17.9070   25.1721 O   0  0  0  0  0  0  0  0  0  0  0  0
    9.2522  -16.2768   23.7613 N   0  0  0  0  0  0  0  0  0  0  0  0
   10.6297  -16.4669   24.0555 C   0  0  1  0  0  0  0  0  0  0  0  0
   11.5025  -15.9824   22.9501 C   0  0  0  0  0  0  0  0  0  0  0  0
   12.8753  -16.5105   23.0001 C   0  0  0  0  0  0  0  0  0  0  0  0
   13.3130  -17.3184   23.8597 O   0  0  0  0  0  0  0  0  0  0  0  0
   11.0334  -15.9370   25.3798 C   0  0  0  0  0  0  0  0  0  0  0  0
   11.3872  -14.7430   25.4653 O   0  0  0  0  0  0  0  0  0  0  0  0
   13.8209  -16.1168   22.0353 O   0  0  0  0  0  0  0  0  0  0  0  0
   10.1425  -14.0834   27.3035 C   0  0  0  0  0  0  0  0  0  0  0  0
   10.2009  -15.2544   28.2508 C   0  0  1  0  0  0  0  0  0  0  0  0
    8.9761  -15.9141   28.1705 O   0  0  0  0  0  0  0  0  0  0  0  0
   11.3426  -16.2066   27.8750 C   0  0  2  0  0  0  0  0  0  0  0  0
   11.0406  -16.7149   26.5638 N   0  0  0  0  0  0  0  0  0  0  0  0
   11.3765  -17.2476   28.9121 C   0  0  0  0  0  0  0  0  0  0  0  0
   11.7005  -16.8622   30.2058 O   0  0  0  0  0  0  0  0  0  0  0  0
   11.1341  -18.4522   28.7084 O   0  0  0  0  0  0  0  0  0  0  0  0
  2  1  1  1
  3  2  1  0
  4  3  1  0
  4  5  2  0
  6  5  1  0
  7  6  2  0
  8  9  2  0
  8  7  1  0
  9  4  1  0
 10  2  1  0
 11 10  2  0
 12 10  1  0
 13 17  1  0
 13 12  1  0
 13 14  1  6
 15 14  1  0
 16 15  2  0
 17 18  2  0
 19 15  1  0
 21 20  1  6
 21 22  1  0
 23 21  1  0
 23 24  1  6
 24 17  1  0
 25 26  1  0
 25 23  1  0
 27 25  2  0
M  END
$$$$
