FDT.pdb
     RDKit          3D

 27 27  0  0  1  0  0  0  0  0999 V2000
    6.1373  -17.0103   25.4506 N   0  0  0  0  0  0  0  0  0  0  0  0
    6.9412  -16.6846   24.3116 C   0  0  1  0  0  0  0  0  0  0  0  0
    6.7051  -15.2496   23.8440 C   0  0  0  0  0  0  0  0  0  0  0  0
    6.8290  -14.3029   24.9810 C   0  0  0  0  0  0  0  0  0  0  0  0
    6.0294  -14.3564   26.1031 C   0  0  0  0  0  0  0  0  0  0  0  0
    6.1658  -13.4603   27.1500 C   0  0  0  0  0  0  0  0  0  0  0  0
    7.1187  -12.4763   27.0970 C   0  0  0  0  0  0  0  0  0  0  0  0
    7.9322  -12.3922   25.9966 C   0  0  0  0  0  0  0  0  0  0  0  0
    7.7899  -13.2904   24.9560 C   0  0  0  0  0  0  0  0  0  0  0  0
    8.3812  -16.9462   24.5282 C   0  0  0  0  0  0  0  0  0  0  0  0
    8.7981  -17.7864   25.3660 O   0  0  0  0  0  0  0  0  0  0  0  0
    9.3626  -16.2438   23.7828 N   0  0  0  0  0  0  0  0  0  0  0  0
   10.7573  -16.5150   23.8195 C   0  0  1  0  0  0  0  0  0  0  0  0
   11.4805  -15.8408   22.7055 C   0  0  0  0  0  0  0  0  0  0  0  0
   12.8616  -16.3139   22.5196 C   0  0  0  0  0  0  0  0  0  0  0  0
   13.2594  -17.4918   22.7130 O   0  0  0  0  0  0  0  0  0  0  0  0
   11.3774  -16.2626   25.1421 C   0  0  0  0  0  0  0  0  0  0  0  0
   12.5875  -16.5269   25.2972 O   0  0  0  0  0  0  0  0  0  0  0  0
   13.8636  -15.4231   22.0923 O   0  0  0  0  0  0  0  0  0  0  0  0
   10.5067  -13.1267   27.4277 C   0  0  0  0  0  0  0  0  0  0  0  0
   10.4077  -14.4089   28.2140 C   0  0  1  0  0  0  0  0  0  0  0  0
    9.0617  -14.7671   28.2550 O   0  0  0  0  0  0  0  0  0  0  0  0
   11.2333  -15.5206   27.5552 C   0  0  2  0  0  0  0  0  0  0  0  0
   10.6692  -15.7342   26.2494 N   0  0  0  0  0  0  0  0  0  0  0  0
   11.1314  -16.6935   28.4351 C   0  0  0  0  0  0  0  0  0  0  0  0
   11.6391  -16.5831   29.7225 O   0  0  0  0  0  0  0  0  0  0  0  0
   10.6204  -17.7798   28.1035 O   0  0  0  0  0  0  0  0  0  0  0  0
  2  1  1  1
  3  2  1  0
  4  3  1  0
  4  5  2  0
  6  5  1  0
  7  6  2  0
  8  9  2  0
  8  7  1  0
  9  4  1  0
 10  2  1  0
 11 10  2  0
 12 10  1  0
 13 17  1  0
 13 12  1  0
 13 14  1  6
 15 14  1  0
 16 15  2  0
 17 18  2  0
 19 15  1  0
 21 20  1  6
 21 22  1  0
 23 21  1  0
 23 24  1  6
 24 17  1  0
 25 26  1  0
 25 23  1  0
 27 25  2  0
M  END
$$$$
