TQG.pdb
     RDKit          3D

 21 20  0  0  1  0  0  0  0  0999 V2000
   27.6403  -19.3292  -17.7247 C   0  0  0  0  0  0  0  0  0  0  0  0
   28.1098  -20.7418  -17.9937 C   0  0  1  0  0  0  0  0  0  0  0  0
   29.2334  -20.6464  -18.8252 O   0  0  0  0  0  0  0  0  0  0  0  0
   28.5274  -21.3424  -16.6756 C   0  0  2  0  0  0  0  0  0  0  0  0
   29.0861  -22.6412  -16.8987 N   0  0  0  0  0  0  0  0  0  0  0  0
   27.4068  -21.4081  -15.7111 C   0  0  0  0  0  0  0  0  0  0  0  0
   26.4920  -22.2676  -15.7851 O   0  0  0  0  0  0  0  0  0  0  0  0
   26.3209  -22.2652  -11.0033 N   0  0  0  0  0  0  0  0  0  0  0  0
   25.4190  -21.2300  -10.7204 C   0  0  0  0  0  0  0  0  0  0  0  0
   24.4796  -21.3944   -9.9291 O   0  0  0  0  0  0  0  0  0  0  0  0
   25.5919  -19.9116  -11.3808 C   0  0  0  0  0  0  0  0  0  0  0  0
   26.7288  -19.9296  -12.3663 C   0  0  0  0  0  0  0  0  0  0  0  0
   26.2723  -20.3959  -13.6881 C   0  0  2  0  0  0  0  0  0  0  0  0
   27.3489  -20.4796  -14.6653 N   0  0  0  0  0  0  0  0  0  0  0  0
   25.1705  -19.6565  -14.3158 C   0  0  0  0  0  0  0  0  0  0  0  0
   25.2778  -18.4520  -14.5831 O   0  0  0  0  0  0  0  0  0  0  0  0
   23.9193  -20.2898  -14.6494 N   0  0  0  0  0  0  0  0  0  0  0  0
   22.8498  -19.4920  -15.2049 C   0  0  0  0  0  0  0  0  0  0  0  0
   21.5965  -19.6302  -14.4637 C   0  0  0  0  0  0  0  0  0  0  0  0
   20.5952  -18.9530  -14.8005 O   0  0  0  0  0  0  0  0  0  0  0  0
   21.4658  -20.4898  -13.3895 O   0  0  0  0  0  0  0  0  0  0  0  0
  2  4  1  0
  2  1  1  1
  3  2  1  0
  4  5  1  6
  6  4  1  0
  7  6  2  0
  8  9  1  0
  9 10  2  0
 11  9  1  0
 11 12  1  0
 13 12  1  1
 13 15  1  0
 13 14  1  0
 14  6  1  0
 15 17  1  0
 16 15  2  0
 17 18  1  0
 18 19  1  0
 19 20  2  0
 19 21  1  0
M  END
$$$$
