TQG.pdb
     RDKit          3D

 21 20  0  0  1  0  0  0  0  0999 V2000
   25.3858  -10.3473  -15.3945 C   0  0  0  0  0  0  0  0  0  0  0  0
   25.1234  -10.8939  -16.7804 C   0  0  1  0  0  0  0  0  0  0  0  0
   25.9431  -12.0194  -16.9366 O   0  0  0  0  0  0  0  0  0  0  0  0
   23.6810  -11.3292  -16.8334 C   0  0  2  0  0  0  0  0  0  0  0  0
   23.4569  -12.0941  -18.0223 N   0  0  0  0  0  0  0  0  0  0  0  0
   22.7480  -10.1828  -16.7590 C   0  0  0  0  0  0  0  0  0  0  0  0
   22.5198   -9.4240  -17.7354 O   0  0  0  0  0  0  0  0  0  0  0  0
   17.2860  -10.3796  -14.4976 N   0  0  0  0  0  0  0  0  0  0  0  0
   17.7670  -10.5554  -15.8025 C   0  0  0  0  0  0  0  0  0  0  0  0
   17.0867  -11.1267  -16.6666 O   0  0  0  0  0  0  0  0  0  0  0  0
   19.1166  -10.0480  -16.1566 C   0  0  0  0  0  0  0  0  0  0  0  0
   19.7724   -9.3566  -14.9924 C   0  0  0  0  0  0  0  0  0  0  0  0
   21.1081   -8.8544  -15.3627 C   0  0  2  0  0  0  0  0  0  0  0  0
   22.0830   -9.9188  -15.5561 N   0  0  0  0  0  0  0  0  0  0  0  0
   21.7198   -7.8590  -14.4741 C   0  0  0  0  0  0  0  0  0  0  0  0
   22.3914   -8.2038  -13.4923 O   0  0  0  0  0  0  0  0  0  0  0  0
   21.5709   -6.4428  -14.6978 N   0  0  0  0  0  0  0  0  0  0  0  0
   22.1716   -5.5137  -13.7679 C   0  0  0  0  0  0  0  0  0  0  0  0
   21.9276   -4.1168  -14.1259 C   0  0  0  0  0  0  0  0  0  0  0  0
   22.3173   -3.2004  -13.3624 O   0  0  0  0  0  0  0  0  0  0  0  0
   21.2747   -3.7567  -15.2896 O   0  0  0  0  0  0  0  0  0  0  0  0
  2  4  1  0
  2  1  1  1
  3  2  1  0
  4  5  1  6
  6  4  1  0
  7  6  2  0
  8  9  1  0
  9 10  2  0
 11  9  1  0
 11 12  1  0
 13 12  1  1
 13 15  1  0
 13 14  1  0
 14  6  1  0
 15 17  1  0
 16 15  2  0
 17 18  1  0
 18 19  1  0
 19 20  2  0
 19 21  1  0
M  END
$$$$
