TQG.pdb
     RDKit          3D

 21 20  0  0  1  0  0  0  0  0999 V2000
   22.9434  -10.9948  -17.1513 C   0  0  0  0  0  0  0  0  0  0  0  0
   23.9994  -11.4196  -16.1550 C   0  0  1  0  0  0  0  0  0  0  0  0
   24.3513  -12.7384  -16.4715 O   0  0  0  0  0  0  0  0  0  0  0  0
   25.2007  -10.5317  -16.3572 C   0  0  2  0  0  0  0  0  0  0  0  0
   26.3131  -11.0607  -15.6281 N   0  0  0  0  0  0  0  0  0  0  0  0
   24.9318   -9.1297  -15.9669 C   0  0  0  0  0  0  0  0  0  0  0  0
   24.8333   -8.7617  -14.7685 O   0  0  0  0  0  0  0  0  0  0  0  0
   27.0357   -4.1852  -19.0228 N   0  0  0  0  0  0  0  0  0  0  0  0
   26.2870   -3.6006  -17.9919 C   0  0  0  0  0  0  0  0  0  0  0  0
   26.3653   -2.3879  -17.7489 O   0  0  0  0  0  0  0  0  0  0  0  0
   25.3831   -4.4496  -17.1756 C   0  0  0  0  0  0  0  0  0  0  0  0
   25.4670   -5.8968  -17.5787 C   0  0  0  0  0  0  0  0  0  0  0  0
   24.6132   -6.7338  -16.7164 C   0  0  2  0  0  0  0  0  0  0  0  0
   24.7780   -8.1594  -16.9639 N   0  0  0  0  0  0  0  0  0  0  0  0
   23.1724   -6.4534  -16.7252 C   0  0  0  0  0  0  0  0  0  0  0  0
   22.4390   -6.8974  -17.6189 O   0  0  0  0  0  0  0  0  0  0  0  0
   22.5445   -5.6542  -15.7031 N   0  0  0  0  0  0  0  0  0  0  0  0
   21.1256   -5.3914  -15.7839 C   0  0  0  0  0  0  0  0  0  0  0  0
   20.6394   -4.5627  -14.6813 C   0  0  0  0  0  0  0  0  0  0  0  0
   20.2022   -5.1065  -13.6384 O   0  0  0  0  0  0  0  0  0  0  0  0
   20.6410   -3.1818  -14.7400 O   0  0  0  0  0  0  0  0  0  0  0  0
  2  4  1  0
  2  1  1  6
  3  2  1  0
  4  5  1  1
  6  4  1  0
  7  6  2  0
  8  9  1  0
  9 10  2  0
 11  9  1  0
 11 12  1  0
 13 12  1  6
 13 15  1  0
 13 14  1  0
 14  6  1  0
 15 17  1  0
 16 15  2  0
 17 18  1  0
 18 19  1  0
 19 20  2  0
 19 21  1  0
M  END
$$$$
