TQG.pdb
     RDKit          3D

 21 20  0  0  1  0  0  0  0  0999 V2000
   28.6047  -18.7128  -17.5384 C   0  0  0  0  0  0  0  0  0  0  0  0
   27.4190  -19.2206  -16.7480 C   0  0  1  0  0  0  0  0  0  0  0  0
   26.4166  -19.5363  -17.6747 O   0  0  0  0  0  0  0  0  0  0  0  0
   27.8475  -20.4824  -16.0432 C   0  0  2  0  0  0  0  0  0  0  0  0
   28.2158  -21.4689  -17.0128 N   0  0  0  0  0  0  0  0  0  0  0  0
   26.7990  -20.9993  -15.1356 C   0  0  0  0  0  0  0  0  0  0  0  0
   26.0844  -21.9954  -15.4155 O   0  0  0  0  0  0  0  0  0  0  0  0
   24.4060  -20.7712   -8.1865 N   0  0  0  0  0  0  0  0  0  0  0  0
   25.4113  -20.8550   -9.1598 C   0  0  0  0  0  0  0  0  0  0  0  0
   26.6038  -20.6844   -8.8683 O   0  0  0  0  0  0  0  0  0  0  0  0
   25.0414  -21.1536  -10.5662 C   0  0  0  0  0  0  0  0  0  0  0  0
   26.0236  -20.5562  -11.5370 C   0  0  0  0  0  0  0  0  0  0  0  0
   25.5838  -20.7677  -12.9280 C   0  0  2  0  0  0  0  0  0  0  0  0
   26.5815  -20.3623  -13.9084 N   0  0  0  0  0  0  0  0  0  0  0  0
   24.3084  -20.1606  -13.3273 C   0  0  0  0  0  0  0  0  0  0  0  0
   24.2370  -18.9622  -13.6315 O   0  0  0  0  0  0  0  0  0  0  0  0
   23.0859  -20.9222  -13.3847 N   0  0  0  0  0  0  0  0  0  0  0  0
   21.8499  -20.2502  -13.7159 C   0  0  0  0  0  0  0  0  0  0  0  0
   20.7058  -21.1601  -13.7636 C   0  0  0  0  0  0  0  0  0  0  0  0
   20.8818  -22.3920  -13.6022 O   0  0  0  0  0  0  0  0  0  0  0  0
   19.4165  -20.7130  -13.9826 O   0  0  0  0  0  0  0  0  0  0  0  0
  2  4  1  0
  2  1  1  6
  3  2  1  0
  4  5  1  6
  6  4  1  0
  7  6  2  0
  8  9  1  0
  9 10  2  0
 11  9  1  0
 11 12  1  0
 13 12  1  1
 13 15  1  0
 13 14  1  0
 14  6  1  0
 15 17  1  0
 16 15  2  0
 17 18  1  0
 18 19  1  0
 19 20  2  0
 19 21  1  0
M  END
$$$$
