TQG.pdb
     RDKit          3D

 21 20  0  0  1  0  0  0  0  0999 V2000
   26.2944  -20.6631  -18.5604 C   0  0  0  0  0  0  0  0  0  0  0  0
   27.3814  -21.3368  -17.7524 C   0  0  1  0  0  0  0  0  0  0  0  0
   28.5821  -21.1517  -18.4505 O   0  0  0  0  0  0  0  0  0  0  0  0
   27.4724  -20.6244  -16.4269 C   0  0  2  0  0  0  0  0  0  0  0  0
   28.7481  -20.8843  -15.8322 N   0  0  0  0  0  0  0  0  0  0  0  0
   26.3747  -21.0059  -15.5106 C   0  0  0  0  0  0  0  0  0  0  0  0
   25.3298  -21.5862  -15.9015 O   0  0  0  0  0  0  0  0  0  0  0  0
   26.5789  -20.3673   -9.1394 N   0  0  0  0  0  0  0  0  0  0  0  0
   25.3426  -20.9849   -9.3739 C   0  0  0  0  0  0  0  0  0  0  0  0
   24.6212  -21.3553   -8.4367 O   0  0  0  0  0  0  0  0  0  0  0  0
   24.8882  -21.1997  -10.7709 C   0  0  0  0  0  0  0  0  0  0  0  0
   25.9499  -20.8144  -11.7650 C   0  0  0  0  0  0  0  0  0  0  0  0
   25.4726  -21.0077  -13.1463 C   0  0  2  0  0  0  0  0  0  0  0  0
   26.4899  -20.7150  -14.1463 N   0  0  0  0  0  0  0  0  0  0  0  0
   24.2543  -20.2902  -13.5409 C   0  0  0  0  0  0  0  0  0  0  0  0
   24.2592  -19.0630  -13.7071 O   0  0  0  0  0  0  0  0  0  0  0  0
   23.0021  -20.9722  -13.7528 N   0  0  0  0  0  0  0  0  0  0  0  0
   21.8198  -20.1995  -14.0591 C   0  0  0  0  0  0  0  0  0  0  0  0
   20.7395  -20.4116  -13.0964 C   0  0  0  0  0  0  0  0  0  0  0  0
   20.8944  -21.2267  -12.1551 O   0  0  0  0  0  0  0  0  0  0  0  0
   19.5341  -19.7408  -13.1807 O   0  0  0  0  0  0  0  0  0  0  0  0
  2  4  1  0
  2  1  1  6
  3  2  1  0
  4  5  1  1
  6  4  1  0
  7  6  2  0
  8  9  1  0
  9 10  2  0
 11  9  1  0
 11 12  1  0
 13 12  1  1
 13 15  1  0
 13 14  1  0
 14  6  1  0
 15 17  1  0
 16 15  2  0
 17 18  1  0
 18 19  1  0
 19 20  2  0
 19 21  1  0
M  END
$$$$
