TQG.pdb
     RDKit          3D

 21 20  0  0  1  0  0  0  0  0999 V2000
   20.6923  -25.4211  -13.6352 C   0  0  0  0  0  0  0  0  0  0  0  0
   20.6681  -26.8965  -13.3022 C   0  0  1  0  0  0  0  0  0  0  0  0
   21.9508  -27.3948  -13.5659 O   0  0  0  0  0  0  0  0  0  0  0  0
   20.3877  -27.0264  -11.8267 C   0  0  2  0  0  0  0  0  0  0  0  0
   20.5558  -28.3907  -11.4274 N   0  0  0  0  0  0  0  0  0  0  0  0
   19.0391  -26.5334  -11.4684 C   0  0  0  0  0  0  0  0  0  0  0  0
   17.9824  -27.0628  -11.8979 O   0  0  0  0  0  0  0  0  0  0  0  0
   18.7259  -24.5313   -6.1419 N   0  0  0  0  0  0  0  0  0  0  0  0
   18.4129  -25.8258   -6.5792 C   0  0  0  0  0  0  0  0  0  0  0  0
   18.6105  -26.8134   -5.8571 O   0  0  0  0  0  0  0  0  0  0  0  0
   17.8338  -26.0180   -7.9327 C   0  0  0  0  0  0  0  0  0  0  0  0
   17.6559  -24.7080   -8.6511 C   0  0  0  0  0  0  0  0  0  0  0  0
   17.6566  -24.9046  -10.1121 C   0  0  2  0  0  0  0  0  0  0  0  0
   18.9180  -25.4306  -10.6151 N   0  0  0  0  0  0  0  0  0  0  0  0
   17.3040  -23.7478  -10.9441 C   0  0  0  0  0  0  0  0  0  0  0  0
   18.1705  -22.9584  -11.3439 O   0  0  0  0  0  0  0  0  0  0  0  0
   15.9433  -23.4751  -11.3341 N   0  0  0  0  0  0  0  0  0  0  0  0
   15.6740  -22.3837  -12.2424 C   0  0  0  0  0  0  0  0  0  0  0  0
   15.3534  -21.1362  -11.5496 C   0  0  0  0  0  0  0  0  0  0  0  0
   15.0262  -20.1217  -12.2116 O   0  0  0  0  0  0  0  0  0  0  0  0
   15.3962  -21.0252  -10.1726 O   0  0  0  0  0  0  0  0  0  0  0  0
  2  4  1  0
  2  1  1  1
  3  2  1  0
  4  5  1  6
  6  4  1  0
  7  6  2  0
  8  9  1  0
  9 10  2  0
 11  9  1  0
 11 12  1  0
 13 12  1  1
 13 15  1  0
 13 14  1  0
 14  6  1  0
 15 17  1  0
 16 15  2  0
 17 18  1  0
 18 19  1  0
 19 20  2  0
 19 21  1  0
M  END
$$$$
