TQG.pdb
     RDKit          3D

 21 20  0  0  1  0  0  0  0  0999 V2000
   20.2020  -14.8520  -16.5582 C   0  0  0  0  0  0  0  0  0  0  0  0
   18.8695  -14.2212  -16.8972 C   0  0  1  0  0  0  0  0  0  0  0  0
   17.8769  -15.1228  -16.4911 O   0  0  0  0  0  0  0  0  0  0  0  0
   18.7433  -12.9575  -16.0849 C   0  0  2  0  0  0  0  0  0  0  0  0
   17.3726  -12.5469  -16.0513 N   0  0  0  0  0  0  0  0  0  0  0  0
   19.6074  -11.8725  -16.6009 C   0  0  0  0  0  0  0  0  0  0  0  0
   20.8631  -11.9175  -16.5506 O   0  0  0  0  0  0  0  0  0  0  0  0
   21.8892  -11.5057  -20.5349 N   0  0  0  0  0  0  0  0  0  0  0  0
   21.2107  -10.2950  -20.3374 C   0  0  0  0  0  0  0  0  0  0  0  0
   21.7886   -9.2062  -20.4655 O   0  0  0  0  0  0  0  0  0  0  0  0
   19.7730  -10.3169  -19.9680 C   0  0  0  0  0  0  0  0  0  0  0  0
   19.4257   -9.1980  -19.0239 C   0  0  0  0  0  0  0  0  0  0  0  0
   19.7441   -9.5657  -17.6322 C   0  0  2  0  0  0  0  0  0  0  0  0
   19.0159  -10.7403  -17.1729 N   0  0  0  0  0  0  0  0  0  0  0  0
   19.5814   -8.5247  -16.6102 C   0  0  0  0  0  0  0  0  0  0  0  0
   18.4570   -8.1541  -16.2467 O   0  0  0  0  0  0  0  0  0  0  0  0
   20.7125   -7.8873  -15.9838 N   0  0  0  0  0  0  0  0  0  0  0  0
   20.4863   -6.8219  -15.0338 C   0  0  0  0  0  0  0  0  0  0  0  0
   21.7271   -6.1931  -14.5821 C   0  0  0  0  0  0  0  0  0  0  0  0
   22.8282   -6.7471  -14.8169 O   0  0  0  0  0  0  0  0  0  0  0  0
   21.7387   -4.9937  -13.8955 O   0  0  0  0  0  0  0  0  0  0  0  0
  2  4  1  0
  2  1  1  1
  3  2  1  0
  4  5  1  6
  6  4  1  0
  7  6  2  0
  8  9  1  0
  9 10  2  0
 11  9  1  0
 11 12  1  0
 13 12  1  6
 13 15  1  0
 13 14  1  0
 14  6  1  0
 15 17  1  0
 16 15  2  0
 17 18  1  0
 18 19  1  0
 19 20  2  0
 19 21  1  0
M  END
$$$$
