TQG.pdb
     RDKit          3D

 21 20  0  0  1  0  0  0  0  0999 V2000
   14.0243  -11.5918  -11.5147 C   0  0  0  0  0  0  0  0  0  0  0  0
   12.6167  -11.6753  -10.9671 C   0  0  1  0  0  0  0  0  0  0  0  0
   12.2756  -13.0336  -10.9256 O   0  0  0  0  0  0  0  0  0  0  0  0
   12.6420  -11.1350   -9.5600 C   0  0  2  0  0  0  0  0  0  0  0  0
   11.3596  -11.3243   -8.9531 N   0  0  0  0  0  0  0  0  0  0  0  0
   13.0426   -9.7110   -9.5150 C   0  0  0  0  0  0  0  0  0  0  0  0
   12.2139   -8.7667   -9.5681 O   0  0  0  0  0  0  0  0  0  0  0  0
   13.5044   -5.3761   -7.7298 N   0  0  0  0  0  0  0  0  0  0  0  0
   14.8145   -5.0134   -8.0718 C   0  0  0  0  0  0  0  0  0  0  0  0
   15.1452   -3.8237   -8.1768 O   0  0  0  0  0  0  0  0  0  0  0  0
   15.8253   -6.0738   -8.3129 C   0  0  0  0  0  0  0  0  0  0  0  0
   15.2313   -7.4489   -8.1710 C   0  0  0  0  0  0  0  0  0  0  0  0
   14.9379   -8.0344   -9.4917 C   0  0  2  0  0  0  0  0  0  0  0  0
   14.3996   -9.3850   -9.4088 N   0  0  0  0  0  0  0  0  0  0  0  0
   16.0310   -8.0601  -10.4711 C   0  0  0  0  0  0  0  0  0  0  0  0
   17.1125   -8.6039  -10.2097 O   0  0  0  0  0  0  0  0  0  0  0  0
   15.9014   -7.4590  -11.7748 N   0  0  0  0  0  0  0  0  0  0  0  0
   17.0541   -7.4033  -12.6448 C   0  0  0  0  0  0  0  0  0  0  0  0
   17.6884   -6.0856  -12.6609 C   0  0  0  0  0  0  0  0  0  0  0  0
   17.8738   -5.4698  -11.5834 O   0  0  0  0  0  0  0  0  0  0  0  0
   18.0996   -5.4791  -13.8327 O   0  0  0  0  0  0  0  0  0  0  0  0
  2  4  1  0
  2  1  1  1
  3  2  1  0
  4  5  1  6
  6  4  1  0
  7  6  2  0
  8  9  1  0
  9 10  2  0
 11  9  1  0
 11 12  1  0
 13 12  1  1
 13 15  1  0
 13 14  1  0
 14  6  1  0
 15 17  1  0
 16 15  2  0
 17 18  1  0
 18 19  1  0
 19 20  2  0
 19 21  1  0
M  END
$$$$
