TQG.pdb
     RDKit          3D

 21 20  0  0  1  0  0  0  0  0999 V2000
   26.0202   -9.9889  -14.7905 C   0  0  0  0  0  0  0  0  0  0  0  0
   26.2479  -10.4794  -16.2032 C   0  0  1  0  0  0  0  0  0  0  0  0
   27.3621  -11.3282  -16.1652 O   0  0  0  0  0  0  0  0  0  0  0  0
   25.0371  -11.2809  -16.6084 C   0  0  2  0  0  0  0  0  0  0  0  0
   25.3648  -12.1052  -17.7318 N   0  0  0  0  0  0  0  0  0  0  0  0
   23.8711  -10.4200  -16.9072 C   0  0  0  0  0  0  0  0  0  0  0  0
   23.6643   -9.9207  -18.0426 O   0  0  0  0  0  0  0  0  0  0  0  0
   18.5781  -10.7467  -18.4206 N   0  0  0  0  0  0  0  0  0  0  0  0
   19.0818   -9.5899  -17.8099 C   0  0  0  0  0  0  0  0  0  0  0  0
   19.3824   -8.5898  -18.4772 O   0  0  0  0  0  0  0  0  0  0  0  0
   19.2588   -9.5615  -16.3361 C   0  0  0  0  0  0  0  0  0  0  0  0
   20.5097  -10.2831  -15.9136 C   0  0  0  0  0  0  0  0  0  0  0  0
   21.6956   -9.4240  -16.0831 C   0  0  2  0  0  0  0  0  0  0  0  0
   22.9492  -10.1400  -15.8918 N   0  0  0  0  0  0  0  0  0  0  0  0
   21.7616   -8.2045  -15.2688 C   0  0  0  0  0  0  0  0  0  0  0  0
   20.7420   -7.7161  -14.7630 O   0  0  0  0  0  0  0  0  0  0  0  0
   23.0055   -7.5202  -15.0192 N   0  0  0  0  0  0  0  0  0  0  0  0
   23.0140   -6.3636  -14.1526 C   0  0  0  0  0  0  0  0  0  0  0  0
   22.4933   -5.1629  -14.8054 C   0  0  0  0  0  0  0  0  0  0  0  0
   22.0395   -5.2352  -15.9731 O   0  0  0  0  0  0  0  0  0  0  0  0
   22.4794   -3.9305  -14.1801 O   0  0  0  0  0  0  0  0  0  0  0  0
  2  4  1  0
  2  1  1  1
  3  2  1  0
  4  5  1  6
  6  4  1  0
  7  6  2  0
  8  9  1  0
  9 10  2  0
 11  9  1  0
 11 12  1  0
 13 12  1  1
 13 15  1  0
 13 14  1  0
 14  6  1  0
 15 17  1  0
 16 15  2  0
 17 18  1  0
 18 19  1  0
 19 20  2  0
 19 21  1  0
M  END
$$$$
