SPR.pdb
     RDKit          3D

 25 25  0  0  1  0  0  0  0  0999 V2000
   27.3903  -15.7672  -15.2723 O   0  0  0  0  0  0  0  0  0  0  0  0
   26.6331  -16.9212  -15.3932 C   0  0  0  0  0  0  0  0  0  0  0  0
   26.8938  -17.5962  -16.7451 C   0  0  2  0  0  0  0  0  0  0  0  0
   26.4793  -16.6704  -17.7576 N   0  0  0  0  0  0  0  0  0  0  0  0
   26.2590  -18.9186  -16.8039 C   0  0  0  0  0  0  0  0  0  0  0  0
   25.2415  -19.0089  -17.5770 O   0  0  0  0  0  0  0  0  0  0  0  0
   26.6478  -20.0739  -16.1104 N   0  0  0  0  0  0  0  0  0  0  0  0
   27.7411  -20.2709  -15.1774 C   0  0  0  0  0  0  0  0  0  0  0  0
   28.0311  -21.7475  -15.1169 C   0  0  0  0  0  0  0  0  0  0  0  0
   27.1571  -22.3221  -16.2031 C   0  0  0  0  0  0  0  0  0  0  0  0
   25.9959  -21.3682  -16.1950 C   0  0  1  0  0  0  0  0  0  0  0  0
   25.0858  -21.5868  -15.0308 C   0  0  0  0  0  0  0  0  0  0  0  0
   25.2961  -21.0696  -13.9108 O   0  0  0  0  0  0  0  0  0  0  0  0
   19.8203  -16.8379  -16.8316 N   0  0  0  0  0  0  0  0  0  0  0  0
   19.2537  -17.0502  -15.5276 C   0  0  0  0  0  0  0  0  0  0  0  0
   18.0967  -16.5887  -15.2763 N   0  0  0  0  0  0  0  0  0  0  0  0
   20.0473  -17.7681  -14.6188 N   0  0  0  0  0  0  0  0  0  0  0  0
   21.3390  -18.3138  -15.0892 C   0  0  0  0  0  0  0  0  0  0  0  0
   21.3321  -19.7560  -14.7068 C   0  0  0  0  0  0  0  0  0  0  0  0
   22.4802  -20.6077  -14.9614 C   0  0  0  0  0  0  0  0  0  0  0  0
   22.6247  -22.0058  -14.5485 C   0  0  2  0  0  0  0  0  0  0  0  0
   23.9439  -22.4016  -15.1799 N   0  0  0  0  0  0  0  0  0  0  0  0
   21.6502  -23.0140  -14.9393 C   0  0  0  0  0  0  0  0  0  0  0  0
   21.6221  -23.5427  -16.0666 O   0  0  0  0  0  0  0  0  0  0  0  0
   20.6483  -23.4784  -14.0625 O   0  0  0  0  0  0  0  0  0  0  0  0
  2  1  1  0
  3  2  1  0
  3  4  1  6
  5  7  1  0
  5  3  1  0
  6  5  2  0
  7  8  1  0
  9  8  1  0
 10 11  1  0
 10  9  1  0
 11  7  1  0
 11 12  1  1
 13 12  2  0
 15 14  1  0
 15 16  2  0
 17 15  1  0
 18 17  1  0
 19 18  1  0
 20 19  1  0
 21 22  1  0
 21 20  1  6
 22 12  1  0
 23 21  1  0
 24 23  2  0
 25 23  1  0
M  END
$$$$
