SPR.pdb
     RDKit          3D

 25 25  0  0  1  0  0  0  0  0999 V2000
   17.8658  -27.1011  -13.2070 O   0  0  0  0  0  0  0  0  0  0  0  0
   17.8837  -27.2408  -11.8287 C   0  0  0  0  0  0  0  0  0  0  0  0
   19.2977  -27.0077  -11.2830 C   0  0  2  0  0  0  0  0  0  0  0  0
   20.0779  -28.1524  -11.6502 N   0  0  0  0  0  0  0  0  0  0  0  0
   19.2639  -26.7036   -9.8472 C   0  0  0  0  0  0  0  0  0  0  0  0
   19.7818  -27.5913   -9.0824 O   0  0  0  0  0  0  0  0  0  0  0  0
   18.7305  -25.5583   -9.2385 N   0  0  0  0  0  0  0  0  0  0  0  0
   18.0816  -24.4073   -9.8375 C   0  0  0  0  0  0  0  0  0  0  0  0
   18.1559  -23.2737   -8.8489 C   0  0  0  0  0  0  0  0  0  0  0  0
   19.0388  -23.8188   -7.7547 C   0  0  0  0  0  0  0  0  0  0  0  0
   18.7227  -25.2868   -7.8124 C   0  0  1  0  0  0  0  0  0  0  0  0
   17.3925  -25.6081   -7.2132 C   0  0  0  0  0  0  0  0  0  0  0  0
   16.3505  -25.6882   -7.9014 O   0  0  0  0  0  0  0  0  0  0  0  0
   14.7956  -22.6851   -1.9640 N   0  0  0  0  0  0  0  0  0  0  0  0
   14.8834  -23.4028   -0.7216 C   0  0  0  0  0  0  0  0  0  0  0  0
   14.4059  -22.8735    0.3304 N   0  0  0  0  0  0  0  0  0  0  0  0
   15.5053  -24.6602   -0.7774 N   0  0  0  0  0  0  0  0  0  0  0  0
   16.4046  -24.9517   -1.9149 C   0  0  0  0  0  0  0  0  0  0  0  0
   15.7819  -26.0977   -2.6395 C   0  0  0  0  0  0  0  0  0  0  0  0
   16.3851  -26.6456   -3.8413 C   0  0  0  0  0  0  0  0  0  0  0  0
   15.9940  -26.3381   -5.2191 C   0  0  2  0  0  0  0  0  0  0  0  0
   17.2878  -25.8327   -5.8244 N   0  0  0  0  0  0  0  0  0  0  0  0
   14.9738  -25.3416   -5.5109 C   0  0  0  0  0  0  0  0  0  0  0  0
   15.2230  -24.1347   -5.6909 O   0  0  0  0  0  0  0  0  0  0  0  0
   13.6057  -25.6668   -5.6146 O   0  0  0  0  0  0  0  0  0  0  0  0
  2  1  1  0
  3  2  1  0
  3  4  1  1
  5  7  1  0
  5  3  1  0
  6  5  2  0
  7  8  1  0
  9  8  1  0
 10 11  1  0
 10  9  1  0
 11  7  1  0
 11 12  1  6
 13 12  2  0
 15 14  1  0
 15 16  2  0
 17 15  1  0
 18 17  1  0
 19 18  1  0
 20 19  1  0
 21 22  1  0
 21 20  1  1
 22 12  1  0
 23 21  1  0
 24 23  2  0
 25 23  1  0
M  END
$$$$
