SPR.pdb
     RDKit          3D

 25 25  0  0  1  0  0  0  0  0999 V2000
   19.9426  -19.8467  -11.7126 O   0  0  0  0  0  0  0  0  0  0  0  0
   20.9149  -19.6791  -12.6853 C   0  0  0  0  0  0  0  0  0  0  0  0
   20.6351  -20.5887  -13.8876 C   0  0  2  0  0  0  0  0  0  0  0  0
   20.1961  -21.8476  -13.3619 N   0  0  0  0  0  0  0  0  0  0  0  0
   21.7976  -20.6512  -14.7818 C   0  0  0  0  0  0  0  0  0  0  0  0
   22.4363  -21.7617  -14.7805 O   0  0  0  0  0  0  0  0  0  0  0  0
   22.2718  -19.6344  -15.6234 N   0  0  0  0  0  0  0  0  0  0  0  0
   21.7812  -18.2821  -15.8104 C   0  0  0  0  0  0  0  0  0  0  0  0
   22.2906  -17.7897  -17.1394 C   0  0  0  0  0  0  0  0  0  0  0  0
   22.9335  -19.0124  -17.7442 C   0  0  0  0  0  0  0  0  0  0  0  0
   23.4085  -19.7428  -16.5199 C   0  0  1  0  0  0  0  0  0  0  0  0
   24.6257  -19.1188  -15.9194 C   0  0  0  0  0  0  0  0  0  0  0  0
   24.6175  -17.9633  -15.4390 O   0  0  0  0  0  0  0  0  0  0  0  0
   26.1909  -20.2105   -9.5618 N   0  0  0  0  0  0  0  0  0  0  0  0
   25.0255  -20.8911  -10.0566 C   0  0  0  0  0  0  0  0  0  0  0  0
   23.9297  -20.7757   -9.4234 N   0  0  0  0  0  0  0  0  0  0  0  0
   25.2013  -21.6452  -11.2277 N   0  0  0  0  0  0  0  0  0  0  0  0
   26.4727  -21.5069  -11.9706 C   0  0  0  0  0  0  0  0  0  0  0  0
   26.1911  -20.5494  -13.0797 C   0  0  0  0  0  0  0  0  0  0  0  0
   27.2161  -20.1921  -14.0441 C   0  0  0  0  0  0  0  0  0  0  0  0
   27.0524  -19.2783  -15.1772 C   0  0  2  0  0  0  0  0  0  0  0  0
   25.8363  -19.8423  -15.8831 N   0  0  0  0  0  0  0  0  0  0  0  0
   28.0932  -19.1283  -16.1839 C   0  0  0  0  0  0  0  0  0  0  0  0
   28.1194  -19.7756  -17.2475 O   0  0  0  0  0  0  0  0  0  0  0  0
   29.1674  -18.2274  -16.0337 O   0  0  0  0  0  0  0  0  0  0  0  0
  2  1  1  0
  3  2  1  0
  3  4  1  1
  5  7  1  0
  5  3  1  0
  6  5  2  0
  7  8  1  0
  9  8  1  0
 10 11  1  0
 10  9  1  0
 11  7  1  0
 11 12  1  1
 13 12  2  0
 15 14  1  0
 15 16  2  0
 17 15  1  0
 18 17  1  0
 19 18  1  0
 20 19  1  0
 21 22  1  0
 21 20  1  1
 22 12  1  0
 23 21  1  0
 24 23  2  0
 25 23  1  0
M  END
$$$$
