SPR.pdb
     RDKit          3D

 25 25  0  0  1  0  0  0  0  0999 V2000
   17.0137   -9.4729  -17.9856 O   0  0  0  0  0  0  0  0  0  0  0  0
   18.2780   -9.0963  -18.4091 C   0  0  0  0  0  0  0  0  0  0  0  0
   18.5364   -9.5918  -19.8370 C   0  0  2  0  0  0  0  0  0  0  0  0
   18.5052  -11.0239  -19.7911 N   0  0  0  0  0  0  0  0  0  0  0  0
   19.7674   -9.0066  -20.3822 C   0  0  0  0  0  0  0  0  0  0  0  0
   20.7525   -9.8150  -20.5130 O   0  0  0  0  0  0  0  0  0  0  0  0
   19.9704   -7.6735  -20.7678 N   0  0  0  0  0  0  0  0  0  0  0  0
   19.0509   -6.5517  -20.7441 C   0  0  0  0  0  0  0  0  0  0  0  0
   19.5721   -5.5121  -21.7010 C   0  0  0  0  0  0  0  0  0  0  0  0
   20.7261   -6.2061  -22.3796 C   0  0  0  0  0  0  0  0  0  0  0  0
   21.2079   -7.1265  -21.2938 C   0  0  1  0  0  0  0  0  0  0  0  0
   21.9695   -6.4050  -20.2303 C   0  0  0  0  0  0  0  0  0  0  0  0
   21.4009   -5.7643  -19.3180 O   0  0  0  0  0  0  0  0  0  0  0  0
   22.4721   -7.9621  -13.3285 N   0  0  0  0  0  0  0  0  0  0  0  0
   23.2258   -8.7816  -14.2377 C   0  0  0  0  0  0  0  0  0  0  0  0
   23.4389   -9.9980  -13.9383 N   0  0  0  0  0  0  0  0  0  0  0  0
   23.6744   -8.1520  -15.4097 N   0  0  0  0  0  0  0  0  0  0  0  0
   23.5413   -8.8750  -16.6932 C   0  0  0  0  0  0  0  0  0  0  0  0
   24.2198   -8.0206  -17.7109 C   0  0  0  0  0  0  0  0  0  0  0  0
   23.7864   -6.6571  -17.9587 C   0  0  0  0  0  0  0  0  0  0  0  0
   24.1720   -5.8241  -19.1003 C   0  0  2  0  0  0  0  0  0  0  0  0
   23.3799   -6.4360  -20.2378 N   0  0  0  0  0  0  0  0  0  0  0  0
   25.5559   -5.7443  -19.5446 C   0  0  0  0  0  0  0  0  0  0  0  0
   26.4765   -5.2799  -18.8462 O   0  0  0  0  0  0  0  0  0  0  0  0
   25.9698   -6.1919  -20.8160 O   0  0  0  0  0  0  0  0  0  0  0  0
  2  1  1  0
  3  2  1  0
  3  4  1  1
  5  7  1  0
  5  3  1  0
  6  5  2  0
  7  8  1  0
  9  8  1  0
 10 11  1  0
 10  9  1  0
 11  7  1  0
 11 12  1  1
 13 12  2  0
 15 14  1  0
 15 16  2  0
 17 15  1  0
 18 17  1  0
 19 18  1  0
 20 19  1  0
 21 22  1  0
 21 20  1  1
 22 12  1  0
 23 21  1  0
 24 23  2  0
 25 23  1  0
M  END
$$$$
