SPR.pdb
     RDKit          3D

 25 25  0  0  1  0  0  0  0  0999 V2000
   23.5945  -20.9075  -20.2225 O   0  0  0  0  0  0  0  0  0  0  0  0
   24.5392  -20.9035  -19.2089 C   0  0  0  0  0  0  0  0  0  0  0  0
   24.9322  -19.4664  -18.8460 C   0  0  2  0  0  0  0  0  0  0  0  0
   26.3560  -19.4546  -18.6827 N   0  0  0  0  0  0  0  0  0  0  0  0
   24.1626  -18.9860  -17.6919 C   0  0  0  0  0  0  0  0  0  0  0  0
   24.8097  -18.9113  -16.5889 O   0  0  0  0  0  0  0  0  0  0  0  0
   22.8123  -18.6071  -17.6755 N   0  0  0  0  0  0  0  0  0  0  0  0
   21.8540  -18.5448  -18.7628 C   0  0  0  0  0  0  0  0  0  0  0  0
   20.7392  -17.6254  -18.3385 C   0  0  0  0  0  0  0  0  0  0  0  0
   21.2342  -17.0508  -17.0352 C   0  0  0  0  0  0  0  0  0  0  0  0
   22.0699  -18.1808  -16.5031 C   0  0  1  0  0  0  0  0  0  0  0  0
   21.2401  -19.2975  -15.9592 C   0  0  0  0  0  0  0  0  0  0  0  0
   20.4438  -19.9481  -16.6724 O   0  0  0  0  0  0  0  0  0  0  0  0
   26.2229  -21.8759  -11.1786 N   0  0  0  0  0  0  0  0  0  0  0  0
   25.5119  -20.9616  -10.3272 C   0  0  0  0  0  0  0  0  0  0  0  0
   26.1537  -20.3283   -9.4316 N   0  0  0  0  0  0  0  0  0  0  0  0
   24.1331  -20.8429  -10.5634 N   0  0  0  0  0  0  0  0  0  0  0  0
   23.5030  -21.7622  -11.5356 C   0  0  0  0  0  0  0  0  0  0  0  0
   22.4873  -20.9470  -12.2636 C   0  0  0  0  0  0  0  0  0  0  0  0
   21.6326  -21.5392  -13.2771 C   0  0  0  0  0  0  0  0  0  0  0  0
   20.5976  -20.8436  -14.0456 C   0  0  2  0  0  0  0  0  0  0  0  0
   21.3443  -19.6458  -14.5961 N   0  0  0  0  0  0  0  0  0  0  0  0
   19.3947  -20.3330  -13.4043 C   0  0  0  0  0  0  0  0  0  0  0  0
   19.2377  -19.1385  -13.0890 O   0  0  0  0  0  0  0  0  0  0  0  0
   18.2978  -21.1597  -13.0853 O   0  0  0  0  0  0  0  0  0  0  0  0
  2  1  1  0
  3  2  1  0
  3  4  1  1
  5  7  1  0
  5  3  1  0
  6  5  2  0
  7  8  1  0
  9  8  1  0
 10 11  1  0
 10  9  1  0
 11  7  1  0
 11 12  1  6
 13 12  2  0
 15 14  1  0
 15 16  2  0
 17 15  1  0
 18 17  1  0
 19 18  1  0
 20 19  1  0
 21 22  1  0
 21 20  1  1
 22 12  1  0
 23 21  1  0
 24 23  2  0
 25 23  1  0
M  END
$$$$
