SPR.pdb
     RDKit          3D

 25 25  0  0  1  0  0  0  0  0999 V2000
   27.2984  -21.2001  -20.5111 O   0  0  0  0  0  0  0  0  0  0  0  0
   27.2132  -21.0565  -19.1357 C   0  0  0  0  0  0  0  0  0  0  0  0
   28.5063  -20.4503  -18.5773 C   0  0  2  0  0  0  0  0  0  0  0  0
   29.5186  -21.4587  -18.6881 N   0  0  0  0  0  0  0  0  0  0  0  0
   28.2960  -19.9157  -17.2263 C   0  0  0  0  0  0  0  0  0  0  0  0
   28.9105  -20.5324  -16.2865 O   0  0  0  0  0  0  0  0  0  0  0  0
   27.5032  -18.8161  -16.8668 N   0  0  0  0  0  0  0  0  0  0  0  0
   26.6202  -18.0041  -17.6826 C   0  0  0  0  0  0  0  0  0  0  0  0
   26.4142  -16.6937  -16.9695 C   0  0  0  0  0  0  0  0  0  0  0  0
   27.3769  -16.7686  -15.8113 C   0  0  0  0  0  0  0  0  0  0  0  0
   27.4058  -18.2456  -15.5355 C   0  0  1  0  0  0  0  0  0  0  0  0
   26.1729  -18.7202  -14.8381 C   0  0  0  0  0  0  0  0  0  0  0  0
   25.1490  -19.0808  -15.4606 O   0  0  0  0  0  0  0  0  0  0  0  0
   22.0108  -21.3693  -10.1411 N   0  0  0  0  0  0  0  0  0  0  0  0
   22.5033  -21.6133   -8.8128 C   0  0  0  0  0  0  0  0  0  0  0  0
   21.6699  -21.7894   -7.8698 N   0  0  0  0  0  0  0  0  0  0  0  0
   23.8993  -21.6369   -8.6663 N   0  0  0  0  0  0  0  0  0  0  0  0
   24.7369  -21.5598   -9.8830 C   0  0  0  0  0  0  0  0  0  0  0  0
   24.9142  -20.1046  -10.1605 C   0  0  0  0  0  0  0  0  0  0  0  0
   25.6349  -19.6445  -11.3341 C   0  0  0  0  0  0  0  0  0  0  0  0
   25.1272  -19.6338  -12.7081 C   0  0  2  0  0  0  0  0  0  0  0  0
   26.1432  -18.7711  -13.4286 N   0  0  0  0  0  0  0  0  0  0  0  0
   23.8135  -19.0923  -13.0243 C   0  0  0  0  0  0  0  0  0  0  0  0
   23.5883  -17.8763  -13.1719 O   0  0  0  0  0  0  0  0  0  0  0  0
   22.6775  -19.9107  -13.1912 O   0  0  0  0  0  0  0  0  0  0  0  0
  2  1  1  0
  3  2  1  0
  3  4  1  1
  5  7  1  0
  5  3  1  0
  6  5  2  0
  7  8  1  0
  9  8  1  0
 10 11  1  0
 10  9  1  0
 11  7  1  0
 11 12  1  6
 13 12  2  0
 15 14  1  0
 15 16  2  0
 17 15  1  0
 18 17  1  0
 19 18  1  0
 20 19  1  0
 21 22  1  0
 21 20  1  1
 22 12  1  0
 23 21  1  0
 24 23  2  0
 25 23  1  0
M  END
$$$$
