SPR.pdb
     RDKit          3D

 25 25  0  0  1  0  0  0  0  0999 V2000
   13.4438  -27.5435   -1.9109 O   0  0  0  0  0  0  0  0  0  0  0  0
   13.2275  -26.7825   -0.7735 C   0  0  0  0  0  0  0  0  0  0  0  0
   14.4114  -25.8404   -0.5237 C   0  0  2  0  0  0  0  0  0  0  0  0
   15.5930  -26.6514   -0.5192 N   0  0  0  0  0  0  0  0  0  0  0  0
   14.1967  -25.0347    0.6845 C   0  0  0  0  0  0  0  0  0  0  0  0
   13.1249  -24.3331    0.6973 O   0  0  0  0  0  0  0  0  0  0  0  0
   15.0330  -24.9569    1.8077 N   0  0  0  0  0  0  0  0  0  0  0  0
   16.2981  -25.6172    2.0687 C   0  0  0  0  0  0  0  0  0  0  0  0
   16.5218  -25.6061    3.5579 C   0  0  0  0  0  0  0  0  0  0  0  0
   15.2245  -25.0653    4.1042 C   0  0  0  0  0  0  0  0  0  0  0  0
   14.7823  -24.1562    2.9924 C   0  0  1  0  0  0  0  0  0  0  0  0
   15.5615  -22.8823    2.9527 C   0  0  0  0  0  0  0  0  0  0  0  0
   16.5442  -22.7224    2.1945 O   0  0  0  0  0  0  0  0  0  0  0  0
   10.4669  -17.9411   -0.4473 N   0  0  0  0  0  0  0  0  0  0  0  0
   11.1009  -16.8966    0.3098 C   0  0  0  0  0  0  0  0  0  0  0  0
   10.8678  -15.6855    0.0034 N   0  0  0  0  0  0  0  0  0  0  0  0
   11.9459  -17.3138    1.3505 N   0  0  0  0  0  0  0  0  0  0  0  0
   12.3420  -18.7376    1.4087 C   0  0  0  0  0  0  0  0  0  0  0  0
   13.1607  -18.8794    2.6479 C   0  0  0  0  0  0  0  0  0  0  0  0
   13.7621  -20.1500    3.0115 C   0  0  0  0  0  0  0  0  0  0  0  0
   15.1842  -20.3879    3.2701 C   0  0  2  0  0  0  0  0  0  0  0  0
   15.1913  -21.8103    3.7918 N   0  0  0  0  0  0  0  0  0  0  0  0
   15.9229  -19.5820    4.2313 C   0  0  0  0  0  0  0  0  0  0  0  0
   16.2683  -18.4043    4.0198 O   0  0  0  0  0  0  0  0  0  0  0  0
   16.3106  -20.0758    5.4939 O   0  0  0  0  0  0  0  0  0  0  0  0
  2  1  1  0
  3  2  1  0
  3  4  1  1
  5  7  1  0
  5  3  1  0
  6  5  2  0
  7  8  1  0
  9  8  1  0
 10 11  1  0
 10  9  1  0
 11  7  1  0
 11 12  1  6
 13 12  2  0
 15 14  1  0
 15 16  2  0
 17 15  1  0
 18 17  1  0
 19 18  1  0
 20 19  1  0
 21 22  1  0
 21 20  1  1
 22 12  1  0
 23 21  1  0
 24 23  2  0
 25 23  1  0
M  END
$$$$
