SPR.pdb
     RDKit          3D

 25 25  0  0  1  0  0  0  0  0999 V2000
   15.6704  -22.3898   -8.9204 O   0  0  0  0  0  0  0  0  0  0  0  0
   15.0407  -23.3600   -9.6831 C   0  0  0  0  0  0  0  0  0  0  0  0
   15.5713  -24.7535   -9.3252 C   0  0  2  0  0  0  0  0  0  0  0  0
   15.0005  -25.6693  -10.2684 N   0  0  0  0  0  0  0  0  0  0  0  0
   15.3189  -25.0658   -7.9132 C   0  0  0  0  0  0  0  0  0  0  0  0
   14.1062  -25.3563   -7.6200 O   0  0  0  0  0  0  0  0  0  0  0  0
   16.2562  -25.0779   -6.8700 N   0  0  0  0  0  0  0  0  0  0  0  0
   17.6883  -24.8489   -6.9082 C   0  0  0  0  0  0  0  0  0  0  0  0
   18.2827  -25.4580   -5.6657 C   0  0  0  0  0  0  0  0  0  0  0  0
   17.1200  -26.1872   -5.0409 C   0  0  0  0  0  0  0  0  0  0  0  0
   15.9598  -25.3351   -5.4724 C   0  0  1  0  0  0  0  0  0  0  0  0
   15.8703  -24.0595   -4.7002 C   0  0  0  0  0  0  0  0  0  0  0  0
   16.4027  -22.9986   -5.0965 O   0  0  0  0  0  0  0  0  0  0  0  0
   11.4702  -19.3259   -7.7243 N   0  0  0  0  0  0  0  0  0  0  0  0
   10.7624  -19.1543   -6.4850 C   0  0  0  0  0  0  0  0  0  0  0  0
    9.9328  -18.1978   -6.3770 N   0  0  0  0  0  0  0  0  0  0  0  0
   11.0555  -20.0820   -5.4728 N   0  0  0  0  0  0  0  0  0  0  0  0
   12.3214  -20.8420   -5.5585 C   0  0  0  0  0  0  0  0  0  0  0  0
   12.3141  -21.7729   -4.3925 C   0  0  0  0  0  0  0  0  0  0  0  0
   13.3554  -22.7698   -4.2187 C   0  0  0  0  0  0  0  0  0  0  0  0
   14.3099  -22.8348   -3.1094 C   0  0  2  0  0  0  0  0  0  0  0  0
   15.1645  -24.0301   -3.4790 N   0  0  0  0  0  0  0  0  0  0  0  0
   13.8637  -23.0423   -1.7394 C   0  0  0  0  0  0  0  0  0  0  0  0
   13.5519  -22.1141   -0.9698 O   0  0  0  0  0  0  0  0  0  0  0  0
   13.7471  -24.3258   -1.1674 O   0  0  0  0  0  0  0  0  0  0  0  0
  2  1  1  0
  3  2  1  0
  3  4  1  6
  5  7  1  0
  5  3  1  0
  6  5  2  0
  7  8  1  0
  9  8  1  0
 10 11  1  0
 10  9  1  0
 11  7  1  0
 11 12  1  1
 13 12  2  0
 15 14  1  0
 15 16  2  0
 17 15  1  0
 18 17  1  0
 19 18  1  0
 20 19  1  0
 21 22  1  0
 21 20  1  6
 22 12  1  0
 23 21  1  0
 24 23  2  0
 25 23  1  0
M  END
$$$$
