GRM.pdb
     RDKit          3D

 24 23  0  0  1  0  0  0  0  0999 V2000
   27.1184  -20.3840  -19.1671 N   0  0  0  0  0  0  0  0  0  0  0  0
   27.0886  -18.9535  -19.0464 C   0  0  0  0  0  0  0  0  0  0  0  0
   25.9357  -18.5558  -18.2112 C   0  0  0  0  0  0  0  0  0  0  0  0
   24.7766  -18.7555  -18.6406 O   0  0  0  0  0  0  0  0  0  0  0  0
   25.8009  -20.7804  -11.4935 N   0  0  0  0  0  0  0  0  0  0  0  0
   27.1607  -20.7021  -11.8394 C   0  0  0  0  0  0  0  0  0  0  0  0
   27.9709  -21.7148  -11.6703 N   0  0  0  0  0  0  0  0  0  0  0  0
   27.7212  -19.5203  -12.3894 N   0  0  0  0  0  0  0  0  0  0  0  0
   26.7814  -18.4059  -12.7413 C   0  0  0  0  0  0  0  0  0  0  0  0
   26.2518  -18.6321  -14.1143 C   0  0  0  0  0  0  0  0  0  0  0  0
   25.4209  -17.6138  -14.7306 C   0  0  0  0  0  0  0  0  0  0  0  0
   24.8793  -17.6408  -16.0891 C   0  0  2  0  0  0  0  0  0  0  0  0
   26.0871  -17.9568  -16.9421 N   0  0  0  0  0  0  0  0  0  0  0  0
   24.3927  -16.3716  -16.6897 C   0  0  0  0  0  0  0  0  0  0  0  0
   25.1489  -15.3940  -16.8586 O   0  0  0  0  0  0  0  0  0  0  0  0
   28.9647  -21.6522  -11.9512 C   0  0  0  0  0  0  0  0  0  0  0  0
   22.9371  -14.3822  -22.2325 S   0  0  0  0  0  0  0  0  0  0  0  0
   21.4953  -13.6889  -21.3983 C   0  0  0  0  0  0  0  0  0  0  0  0
   21.8185  -13.6440  -19.6355 C   0  0  0  0  0  0  0  0  0  0  0  0
   22.3341  -14.8756  -19.0099 C   0  0  1  0  0  0  0  0  0  0  0  0
   22.6132  -14.8053  -17.5653 N   0  0  0  0  0  0  0  0  0  0  0  0
   23.0456  -16.1730  -17.1133 C   0  0  0  0  0  0  0  0  0  0  0  0
   21.4736  -14.3851  -16.7536 O   0  0  0  0  0  0  0  0  0  0  0  0
   20.9909  -13.0949  -16.6967 O   0  0  0  0  0  0  0  0  0  0  0  0
  1  2  1  0
  3  2  1  0
  3 13  1  0
  4  3  2  0
  5  6  1  0
  6  8  1  0
  7  6  2  0
  8  9  1  0
  9 10  1  0
 10 11  1  0
 12 11  1  1
 12 13  1  0
 14 12  1  0
 14 21  1  0
 15 14  2  0
 17 16  1  0
 18 19  1  0
 18 17  1  0
 20 21  1  0
 20 19  1  6
 22 20  1  0
 23 22  1  0
 24 22  2  0
M  END
$$$$
