GRM.pdb
     RDKit          3D

 24 23  0  0  1  0  0  0  0  0999 V2000
   29.6223  -22.4245  -18.1745 N   0  0  0  0  0  0  0  0  0  0  0  0
   28.2863  -22.3527  -17.6531 C   0  0  0  0  0  0  0  0  0  0  0  0
   28.1977  -21.2409  -16.6830 C   0  0  0  0  0  0  0  0  0  0  0  0
   28.8331  -20.1857  -16.9084 O   0  0  0  0  0  0  0  0  0  0  0  0
   21.5060  -19.3525  -16.2393 N   0  0  0  0  0  0  0  0  0  0  0  0
   22.1654  -18.1123  -16.1943 C   0  0  0  0  0  0  0  0  0  0  0  0
   21.5801  -17.0409  -15.7252 N   0  0  0  0  0  0  0  0  0  0  0  0
   23.4988  -17.9619  -16.6554 N   0  0  0  0  0  0  0  0  0  0  0  0
   24.1448  -19.1479  -17.3074 C   0  0  0  0  0  0  0  0  0  0  0  0
   24.8801  -19.9293  -16.2752 C   0  0  0  0  0  0  0  0  0  0  0  0
   26.1152  -19.3969  -15.7291 C   0  0  0  0  0  0  0  0  0  0  0  0
   27.0011  -20.0640  -14.7753 C   0  0  2  0  0  0  0  0  0  0  0  0
   27.4224  -21.3188  -15.5062 N   0  0  0  0  0  0  0  0  0  0  0  0
   26.4197  -20.6099  -13.5214 C   0  0  0  0  0  0  0  0  0  0  0  0
   25.7827  -21.6823  -13.5066 O   0  0  0  0  0  0  0  0  0  0  0  0
   22.0988  -16.1507  -15.6312 C   0  0  0  0  0  0  0  0  0  0  0  0
   25.7712  -20.2464   -5.6359 S   0  0  0  0  0  0  0  0  0  0  0  0
   26.4934  -19.4724   -7.0970 C   0  0  0  0  0  0  0  0  0  0  0  0
   25.9257  -20.3521   -8.5523 C   0  0  0  0  0  0  0  0  0  0  0  0
   26.4963  -19.9512   -9.8514 C   0  0  1  0  0  0  0  0  0  0  0  0
   25.9262  -20.6034  -11.0428 N   0  0  0  0  0  0  0  0  0  0  0  0
   26.5410  -19.9625  -12.2565 C   0  0  0  0  0  0  0  0  0  0  0  0
   24.4728  -20.4989  -11.1466 O   0  0  0  0  0  0  0  0  0  0  0  0
   23.5845  -21.3706  -10.5534 O   0  0  0  0  0  0  0  0  0  0  0  0
  1  2  1  0
  3  2  1  0
  3 13  1  0
  4  3  2  0
  5  6  1  0
  6  8  1  0
  7  6  2  0
  8  9  1  0
  9 10  1  0
 10 11  1  0
 12 11  1  6
 12 13  1  0
 14 12  1  0
 14 21  1  0
 15 14  2  0
 17 16  1  0
 18 19  1  0
 18 17  1  0
 20 21  1  0
 20 19  1  1
 22 20  1  0
 23 22  1  0
 24 22  2  0
M  END
$$$$
