GRM.pdb
     RDKit          3D

 24 23  0  0  1  0  0  0  0  0999 V2000
   19.6567  -14.9729  -16.8641 N   0  0  0  0  0  0  0  0  0  0  0  0
   18.5000  -14.4265  -16.2119 C   0  0  0  0  0  0  0  0  0  0  0  0
   18.5513  -12.9508  -16.2778 C   0  0  0  0  0  0  0  0  0  0  0  0
   19.3615  -12.4052  -17.0611 O   0  0  0  0  0  0  0  0  0  0  0  0
   12.1202   -6.9991  -15.6636 N   0  0  0  0  0  0  0  0  0  0  0  0
   13.3491   -6.3176  -15.6507 C   0  0  0  0  0  0  0  0  0  0  0  0
   13.4542   -5.0846  -16.0743 N   0  0  0  0  0  0  0  0  0  0  0  0
   14.5363   -6.9338  -15.1772 N   0  0  0  0  0  0  0  0  0  0  0  0
   14.7143   -8.3975  -15.4510 C   0  0  0  0  0  0  0  0  0  0  0  0
   15.9994   -8.8512  -14.8515 C   0  0  0  0  0  0  0  0  0  0  0  0
   16.4434  -10.2152  -15.0742 C   0  0  0  0  0  0  0  0  0  0  0  0
   17.7008  -10.6278  -15.6974 C   0  0  2  0  0  0  0  0  0  0  0  0
   17.7203  -12.1254  -15.4900 N   0  0  0  0  0  0  0  0  0  0  0  0
   18.9807  -10.2062  -15.0710 C   0  0  0  0  0  0  0  0  0  0  0  0
   19.2927  -10.5586  -13.9158 O   0  0  0  0  0  0  0  0  0  0  0  0
   14.3711   -4.6056  -16.0917 C   0  0  0  0  0  0  0  0  0  0  0  0
   26.4802  -10.1763  -14.6780 S   0  0  0  0  0  0  0  0  0  0  0  0
   24.9940  -10.5436  -15.6328 C   0  0  0  0  0  0  0  0  0  0  0  0
   23.6294   -9.5973  -14.9573 C   0  0  0  0  0  0  0  0  0  0  0  0
   22.2911   -9.8368  -15.5278 C   0  0  1  0  0  0  0  0  0  0  0  0
   21.1995   -8.9981  -15.0039 N   0  0  0  0  0  0  0  0  0  0  0  0
   19.9381   -9.3790  -15.7290 C   0  0  0  0  0  0  0  0  0  0  0  0
   21.4148   -7.5623  -15.1665 O   0  0  0  0  0  0  0  0  0  0  0  0
   22.1380   -6.7789  -14.2924 O   0  0  0  0  0  0  0  0  0  0  0  0
  1  2  1  0
  3  2  1  0
  3 13  1  0
  4  3  2  0
  5  6  1  0
  6  8  1  0
  7  6  2  0
  8  9  1  0
  9 10  1  0
 10 11  1  0
 12 11  1  1
 12 13  1  0
 14 12  1  0
 14 21  1  0
 15 14  2  0
 17 16  1  0
 18 19  1  0
 18 17  1  0
 20 21  1  0
 20 19  1  1
 22 20  1  0
 23 22  1  0
 24 22  2  0
M  END
$$$$
