GRM.pdb
     RDKit          3D

 24 23  0  0  1  0  0  0  0  0999 V2000
   26.5494  -17.2436  -17.4110 N   0  0  0  0  0  0  0  0  0  0  0  0
   25.6304  -17.0869  -16.3190 C   0  0  0  0  0  0  0  0  0  0  0  0
   24.7468  -18.2698  -16.2483 C   0  0  0  0  0  0  0  0  0  0  0  0
   24.9669  -19.2391  -17.0097 O   0  0  0  0  0  0  0  0  0  0  0  0
   26.6307  -21.3430  -11.1892 N   0  0  0  0  0  0  0  0  0  0  0  0
   27.1096  -21.6969  -12.4620 C   0  0  0  0  0  0  0  0  0  0  0  0
   28.3790  -21.9263  -12.6780 N   0  0  0  0  0  0  0  0  0  0  0  0
   26.2391  -21.8231  -13.5754 N   0  0  0  0  0  0  0  0  0  0  0  0
   25.6404  -20.5663  -14.1333 C   0  0  0  0  0  0  0  0  0  0  0  0
   24.4670  -20.1772  -13.3036 C   0  0  0  0  0  0  0  0  0  0  0  0
   23.1521  -20.1227  -13.9161 C   0  0  0  0  0  0  0  0  0  0  0  0
   22.8376  -19.6191  -15.2529 C   0  0  2  0  0  0  0  0  0  0  0  0
   23.6586  -18.3534  -15.3532 N   0  0  0  0  0  0  0  0  0  0  0  0
   21.4627  -19.1252  -15.5252 C   0  0  0  0  0  0  0  0  0  0  0  0
   21.0041  -18.1148  -14.9552 O   0  0  0  0  0  0  0  0  0  0  0  0
   28.7184  -22.1885  -13.6195 C   0  0  0  0  0  0  0  0  0  0  0  0
   18.8316  -17.4311  -21.0125 S   0  0  0  0  0  0  0  0  0  0  0  0
   17.4290  -18.3279  -20.3171 C   0  0  0  0  0  0  0  0  0  0  0  0
   17.6929  -18.5291  -18.5552 C   0  0  0  0  0  0  0  0  0  0  0  0
   19.0180  -19.0061  -18.1190 C   0  0  1  0  0  0  0  0  0  0  0  0
   19.2084  -19.1639  -16.6669 N   0  0  0  0  0  0  0  0  0  0  0  0
   20.5727  -19.7561  -16.4436 C   0  0  0  0  0  0  0  0  0  0  0  0
   18.2172  -20.0211  -16.0214 O   0  0  0  0  0  0  0  0  0  0  0  0
   16.9683  -19.6001  -15.6167 O   0  0  0  0  0  0  0  0  0  0  0  0
  1  2  1  0
  3  2  1  0
  3 13  1  0
  4  3  2  0
  5  6  1  0
  6  8  1  0
  7  6  2  0
  8  9  1  0
  9 10  1  0
 10 11  1  0
 12 11  1  1
 12 13  1  0
 14 12  1  0
 14 21  1  0
 15 14  2  0
 17 16  1  0
 18 19  1  0
 18 17  1  0
 20 21  1  0
 20 19  1  1
 22 20  1  0
 23 22  1  0
 24 22  2  0
M  END
$$$$
