GRM.pdb
     RDKit          3D

 24 23  0  0  1  0  0  0  0  0999 V2000
   28.0984  -19.6162  -15.4742 N   0  0  0  0  0  0  0  0  0  0  0  0
   27.6326  -20.7512  -14.7282 C   0  0  0  0  0  0  0  0  0  0  0  0
   26.8198  -20.2862  -13.5845 C   0  0  0  0  0  0  0  0  0  0  0  0
   26.7964  -19.0642  -13.3126 O   0  0  0  0  0  0  0  0  0  0  0  0
   23.3993  -19.3442  -15.7526 N   0  0  0  0  0  0  0  0  0  0  0  0
   22.0301  -19.2770  -15.4430 C   0  0  0  0  0  0  0  0  0  0  0  0
   21.1145  -19.2859  -16.3769 N   0  0  0  0  0  0  0  0  0  0  0  0
   21.5741  -19.1965  -14.1018 N   0  0  0  0  0  0  0  0  0  0  0  0
   22.5918  -19.3600  -13.0125 C   0  0  0  0  0  0  0  0  0  0  0  0
   22.9713  -20.7963  -12.9136 C   0  0  0  0  0  0  0  0  0  0  0  0
   23.9081  -21.2133  -11.8860 C   0  0  0  0  0  0  0  0  0  0  0  0
   25.2306  -20.6418  -11.6339 C   0  0  2  0  0  0  0  0  0  0  0  0
   26.0643  -21.1669  -12.7809 N   0  0  0  0  0  0  0  0  0  0  0  0
   25.9963  -21.1078  -10.4487 C   0  0  0  0  0  0  0  0  0  0  0  0
   26.3780  -22.2903  -10.3381 O   0  0  0  0  0  0  0  0  0  0  0  0
   20.1106  -19.2163  -16.1366 C   0  0  0  0  0  0  0  0  0  0  0  0
   28.6559  -17.6571   -5.3345 S   0  0  0  0  0  0  0  0  0  0  0  0
   28.9967  -19.3933   -4.9809 C   0  0  0  0  0  0  0  0  0  0  0  0
   27.8260  -20.4042   -5.8875 C   0  0  0  0  0  0  0  0  0  0  0  0
   27.4982  -19.9908   -7.2643 C   0  0  1  0  0  0  0  0  0  0  0  0
   26.5567  -20.8544   -7.9974 N   0  0  0  0  0  0  0  0  0  0  0  0
   26.3497  -20.2554   -9.3613 C   0  0  0  0  0  0  0  0  0  0  0  0
   25.2546  -21.0058   -7.3526 O   0  0  0  0  0  0  0  0  0  0  0  0
   24.9794  -21.9195   -6.3575 O   0  0  0  0  0  0  0  0  0  0  0  0
  1  2  1  0
  3  2  1  0
  3 13  1  0
  4  3  2  0
  5  6  1  0
  6  8  1  0
  7  6  2  0
  8  9  1  0
  9 10  1  0
 10 11  1  0
 12 11  1  1
 12 13  1  0
 14 12  1  0
 14 21  1  0
 15 14  2  0
 17 16  1  0
 18 19  1  0
 18 17  1  0
 20 21  1  0
 20 19  1  6
 22 20  1  0
 23 22  1  0
 24 22  2  0
M  END
$$$$
