GRM.pdb
     RDKit          3D

 24 23  0  0  1  0  0  0  0  0999 V2000
   18.0187  -11.7509  -16.1626 N   0  0  0  0  0  0  0  0  0  0  0  0
   18.5005  -10.5159  -16.7143 C   0  0  0  0  0  0  0  0  0  0  0  0
   19.5535   -9.9642  -15.8358 C   0  0  0  0  0  0  0  0  0  0  0  0
   19.2805   -9.7224  -14.6380 O   0  0  0  0  0  0  0  0  0  0  0  0
   27.7619  -12.0836  -15.7947 N   0  0  0  0  0  0  0  0  0  0  0  0
   26.4534  -12.5433  -16.0214 C   0  0  0  0  0  0  0  0  0  0  0  0
   26.1770  -13.8199  -16.0893 N   0  0  0  0  0  0  0  0  0  0  0  0
   25.3679  -11.6448  -16.1875 N   0  0  0  0  0  0  0  0  0  0  0  0
   25.6458  -10.1817  -16.0117 C   0  0  0  0  0  0  0  0  0  0  0  0
   24.4876   -9.5461  -15.3251 C   0  0  0  0  0  0  0  0  0  0  0  0
   23.1454   -9.8003  -15.8161 C   0  0  0  0  0  0  0  0  0  0  0  0
   21.9149   -9.1625  -15.3485 C   0  0  2  0  0  0  0  0  0  0  0  0
   20.8619   -9.6969  -16.2928 N   0  0  0  0  0  0  0  0  0  0  0  0
   21.7661   -7.6927  -15.5098 C   0  0  0  0  0  0  0  0  0  0  0  0
   21.7928   -7.1503  -16.6329 O   0  0  0  0  0  0  0  0  0  0  0  0
   25.2150  -14.1449  -16.2876 C   0  0  0  0  0  0  0  0  0  0  0  0
   18.0222   -1.2172  -15.2231 S   0  0  0  0  0  0  0  0  0  0  0  0
   18.0990   -3.0126  -15.0620 C   0  0  0  0  0  0  0  0  0  0  0  0
   19.8180   -3.5038  -14.9284 C   0  0  0  0  0  0  0  0  0  0  0  0
   20.1024   -4.9445  -14.7969 C   0  0  1  0  0  0  0  0  0  0  0  0
   21.5214   -5.3203  -14.6740 N   0  0  0  0  0  0  0  0  0  0  0  0
   21.5844   -6.8000  -14.4126 C   0  0  0  0  0  0  0  0  0  0  0  0
   22.2351   -4.6275  -13.6040 O   0  0  0  0  0  0  0  0  0  0  0  0
   22.6455   -5.2213  -12.4294 O   0  0  0  0  0  0  0  0  0  0  0  0
  1  2  1  0
  3  2  1  0
  3 13  1  0
  4  3  2  0
  5  6  1  0
  6  8  1  0
  7  6  2  0
  8  9  1  0
  9 10  1  0
 10 11  1  0
 12 11  1  6
 12 13  1  0
 14 12  1  0
 14 21  1  0
 15 14  2  0
 17 16  1  0
 18 19  1  0
 18 17  1  0
 20 21  1  0
 20 19  1  6
 22 20  1  0
 23 22  1  0
 24 22  2  0
M  END
$$$$
