GRM.pdb
     RDKit          3D

 24 23  0  0  1  0  0  0  0  0999 V2000
   12.7001  -22.4579   -4.0924 N   0  0  0  0  0  0  0  0  0  0  0  0
   13.9239  -22.2334   -4.8092 C   0  0  0  0  0  0  0  0  0  0  0  0
   14.6085  -23.5252   -5.0270 C   0  0  0  0  0  0  0  0  0  0  0  0
   14.2163  -24.5345   -4.3983 O   0  0  0  0  0  0  0  0  0  0  0  0
   20.0644  -25.3026  -11.7729 N   0  0  0  0  0  0  0  0  0  0  0  0
   20.0239  -26.5241  -11.0793 C   0  0  0  0  0  0  0  0  0  0  0  0
   20.7026  -27.5660  -11.4849 N   0  0  0  0  0  0  0  0  0  0  0  0
   19.2447  -26.6868   -9.9048 N   0  0  0  0  0  0  0  0  0  0  0  0
   18.5776  -25.4677   -9.3409 C   0  0  0  0  0  0  0  0  0  0  0  0
   17.8140  -25.8516   -8.1218 C   0  0  0  0  0  0  0  0  0  0  0  0
   17.0838  -24.8313   -7.3917 C   0  0  0  0  0  0  0  0  0  0  0  0
   16.3165  -25.0258   -6.1618 C   0  0  2  0  0  0  0  0  0  0  0  0
   15.6925  -23.6701   -5.9193 N   0  0  0  0  0  0  0  0  0  0  0  0
   17.0503  -25.2665   -4.8922 C   0  0  0  0  0  0  0  0  0  0  0  0
   17.8458  -24.4268   -4.4254 O   0  0  0  0  0  0  0  0  0  0  0  0
   20.7063  -28.4434  -10.9366 C   0  0  0  0  0  0  0  0  0  0  0  0
   17.5192  -28.5457    2.1797 S   0  0  0  0  0  0  0  0  0  0  0  0
   16.4838  -28.1523    0.7554 C   0  0  0  0  0  0  0  0  0  0  0  0
   17.5222  -27.4745   -0.5393 C   0  0  0  0  0  0  0  0  0  0  0  0
   16.8621  -27.0665   -1.7930 C   0  0  1  0  0  0  0  0  0  0  0  0
   17.7497  -26.6367   -2.8871 N   0  0  0  0  0  0  0  0  0  0  0  0
   16.9067  -26.4565   -4.1195 C   0  0  0  0  0  0  0  0  0  0  0  0
   18.8252  -27.5772   -3.1920 O   0  0  0  0  0  0  0  0  0  0  0  0
   18.8113  -28.4605   -4.2505 O   0  0  0  0  0  0  0  0  0  0  0  0
  1  2  1  0
  3  2  1  0
  3 13  1  0
  4  3  2  0
  5  6  1  0
  6  8  1  0
  7  6  2  0
  8  9  1  0
  9 10  1  0
 10 11  1  0
 12 11  1  6
 12 13  1  0
 14 12  1  0
 14 21  1  0
 15 14  2  0
 17 16  1  0
 18 19  1  0
 18 17  1  0
 20 21  1  0
 20 19  1  1
 22 20  1  0
 23 22  1  0
 24 22  2  0
M  END
$$$$
