GRM.pdb
     RDKit          3D

 24 23  0  0  1  0  0  0  0  0999 V2000
   26.2104  -24.7116  -16.0836 N   0  0  0  0  0  0  0  0  0  0  0  0
   26.1850  -23.9058  -14.8954 C   0  0  0  0  0  0  0  0  0  0  0  0
   25.1053  -22.9024  -15.0064 C   0  0  0  0  0  0  0  0  0  0  0  0
   24.0181  -23.2351  -15.5309 O   0  0  0  0  0  0  0  0  0  0  0  0
   18.2016  -20.9103  -13.3518 N   0  0  0  0  0  0  0  0  0  0  0  0
   18.8498  -22.1157  -13.6711 C   0  0  0  0  0  0  0  0  0  0  0  0
   18.2396  -23.0706  -14.3240 N   0  0  0  0  0  0  0  0  0  0  0  0
   20.1983  -22.3555  -13.3007 N   0  0  0  0  0  0  0  0  0  0  0  0
   20.8928  -21.3017  -12.4906 C   0  0  0  0  0  0  0  0  0  0  0  0
   21.8316  -20.5525  -13.3704 C   0  0  0  0  0  0  0  0  0  0  0  0
   23.0949  -21.1632  -13.7426 C   0  0  0  0  0  0  0  0  0  0  0  0
   24.1013  -20.5971  -14.6404 C   0  0  2  0  0  0  0  0  0  0  0  0
   25.2489  -21.5768  -14.5434 N   0  0  0  0  0  0  0  0  0  0  0  0
   24.7505  -19.3135  -14.2673 C   0  0  0  0  0  0  0  0  0  0  0  0
   25.7630  -19.2780  -13.5395 O   0  0  0  0  0  0  0  0  0  0  0  0
   18.7254  -23.9569  -14.5450 C   0  0  0  0  0  0  0  0  0  0  0  0
   28.0771  -18.5454  -18.1294 S   0  0  0  0  0  0  0  0  0  0  0  0
   28.7074  -17.1117  -17.2335 C   0  0  0  0  0  0  0  0  0  0  0  0
   27.4304  -16.5229  -16.1214 C   0  0  0  0  0  0  0  0  0  0  0  0
   26.3690  -17.4744  -15.7447 C   0  0  1  0  0  0  0  0  0  0  0  0
   25.2632  -16.9312  -14.9372 N   0  0  0  0  0  0  0  0  0  0  0  0
   24.2759  -18.0413  -14.7034 C   0  0  0  0  0  0  0  0  0  0  0  0
   24.5634  -15.8082  -15.5562 O   0  0  0  0  0  0  0  0  0  0  0  0
   24.9469  -14.4893  -15.4360 O   0  0  0  0  0  0  0  0  0  0  0  0
  1  2  1  0
  3  2  1  0
  3 13  1  0
  4  3  2  0
  5  6  1  0
  6  8  1  0
  7  6  2  0
  8  9  1  0
  9 10  1  0
 10 11  1  0
 12 11  1  1
 12 13  1  0
 14 12  1  0
 14 21  1  0
 15 14  2  0
 17 16  1  0
 18 19  1  0
 18 17  1  0
 20 21  1  0
 20 19  1  1
 22 20  1  0
 23 22  1  0
 24 22  2  0
M  END
$$$$
