YHN.pdb
     RDKit          3D

 31 32  0  0  1  0  0  0  0  0999 V2000
   34.3632  -32.1762  -17.5124 O   0  0  0  0  0  0  0  0  0  0  0  0
   33.0022  -31.8839  -17.3269 C   0  0  0  0  0  0  0  0  0  0  0  0
   32.3826  -32.3174  -16.1651 C   0  0  0  0  0  0  0  0  0  0  0  0
   31.0434  -32.0598  -15.9254 C   0  0  0  0  0  0  0  0  0  0  0  0
   30.2858  -31.3537  -16.8536 C   0  0  0  0  0  0  0  0  0  0  0  0
   28.8649  -31.1076  -16.5435 C   0  0  0  0  0  0  0  0  0  0  0  0
   28.2355  -32.4112  -16.1765 C   0  0  2  0  0  0  0  0  0  0  0  0
   28.1431  -33.2503  -17.3529 N   0  0  0  0  0  0  0  0  0  0  0  0
   26.9113  -32.2657  -15.5063 C   0  0  0  0  0  0  0  0  0  0  0  0
   26.7914  -31.6152  -14.4412 O   0  0  0  0  0  0  0  0  0  0  0  0
   30.9147  -30.9334  -17.9949 C   0  0  0  0  0  0  0  0  0  0  0  0
   32.2551  -31.1866  -18.2447 C   0  0  0  0  0  0  0  0  0  0  0  0
   25.7180  -32.8576  -16.0424 N   0  0  0  0  0  0  0  0  0  0  0  0
   24.4503  -32.7545  -15.3470 C   0  0  1  0  0  0  0  0  0  0  0  0
   23.4542  -32.1085  -16.2555 C   0  0  0  0  0  0  0  0  0  0  0  0
   23.8101  -30.7224  -16.6026 C   0  0  0  0  0  0  0  0  0  0  0  0
   24.9250  -30.0574  -16.1529 C   0  0  0  0  0  0  0  0  0  0  0  0
   24.9384  -28.8241  -16.6612 N   0  0  0  0  0  0  0  0  0  0  0  0
   23.8409  -28.7154  -17.4234 C   0  0  0  0  0  0  0  0  0  0  0  0
   23.1433  -29.8578  -17.4003 N   0  0  0  0  0  0  0  0  0  0  0  0
   23.9588  -34.0669  -14.8545 C   0  0  0  0  0  0  0  0  0  0  0  0
   24.1719  -35.1194  -15.4669 O   0  0  0  0  0  0  0  0  0  0  0  0
   24.9975  -34.8894  -10.2657 N   0  0  0  0  0  0  0  0  0  0  0  0
   24.3948  -35.6817  -11.2760 C   0  0  0  0  0  0  0  0  0  0  0  0
   25.1052  -36.5496  -11.8420 O   0  0  0  0  0  0  0  0  0  0  0  0
   22.9685  -35.4444  -11.6087 C   0  0  0  0  0  0  0  0  0  0  0  0
   22.7480  -35.3459  -13.1021 C   0  0  2  0  0  0  0  0  0  0  0  0
   23.2262  -34.1113  -13.6494 N   0  0  0  0  0  0  0  0  0  0  0  0
   21.3460  -35.6325  -13.4789 C   0  0  0  0  0  0  0  0  0  0  0  0
   20.7727  -36.8897  -13.4040 O   0  0  0  0  0  0  0  0  0  0  0  0
   20.6312  -34.6874  -13.8904 O   0  0  0  0  0  0  0  0  0  0  0  0
  2  1  1  0
  3  2  2  0
  4  3  1  0
  5  4  2  0
  5 11  1  0
  6  5  1  0
  7  6  1  0
  7  8  1  6
  9  7  1  0
  9 13  1  0
 10  9  2  0
 11 12  2  0
 12  2  1  0
 14 13  1  0
 14 21  1  0
 14 15  1  6
 16 15  1  0
 17 16  2  0
 18 19  1  0
 18 17  1  0
 19 20  2  0
 20 16  1  0
 21 28  1  0
 22 21  2  0
 23 24  1  0
 24 26  1  0
 25 24  2  0
 27 26  1  1
 27 29  1  0
 28 27  1  0
 29 31  2  0
 29 30  1  0
M  END
$$$$
