YHN.pdb
     RDKit          3D

 31 32  0  0  1  0  0  0  0  0999 V2000
   21.2387  -10.1814    5.7971 O   0  0  0  0  0  0  0  0  0  0  0  0
   20.5843  -11.4044    6.0169 C   0  0  0  0  0  0  0  0  0  0  0  0
   19.8917  -11.9849    4.9657 C   0  0  0  0  0  0  0  0  0  0  0  0
   19.2269  -13.1896    5.1210 C   0  0  0  0  0  0  0  0  0  0  0  0
   19.2412  -13.8482    6.3458 C   0  0  0  0  0  0  0  0  0  0  0  0
   18.5170  -15.1287    6.4514 C   0  0  0  0  0  0  0  0  0  0  0  0
   17.1085  -14.9055    6.0083 C   0  0  2  0  0  0  0  0  0  0  0  0
   16.5011  -13.8798    6.8301 N   0  0  0  0  0  0  0  0  0  0  0  0
   16.2849  -16.1486    5.9921 C   0  0  0  0  0  0  0  0  0  0  0  0
   15.6204  -16.4995    6.9957 O   0  0  0  0  0  0  0  0  0  0  0  0
   19.9305  -13.2598    7.3723 C   0  0  0  0  0  0  0  0  0  0  0  0
   20.5991  -12.0536    7.2273 C   0  0  0  0  0  0  0  0  0  0  0  0
   16.2118  -16.9979    4.8366 N   0  0  0  0  0  0  0  0  0  0  0  0
   15.4917  -18.2554    4.8728 C   0  0  1  0  0  0  0  0  0  0  0  0
   14.8583  -18.4858    3.5384 C   0  0  0  0  0  0  0  0  0  0  0  0
   13.6508  -17.6695    3.3289 C   0  0  0  0  0  0  0  0  0  0  0  0
   13.0494  -16.8892    4.2865 C   0  0  0  0  0  0  0  0  0  0  0  0
   11.9824  -16.2868    3.7590 N   0  0  0  0  0  0  0  0  0  0  0  0
   11.9141  -16.6858    2.4810 C   0  0  0  0  0  0  0  0  0  0  0  0
   12.9186  -17.5255    2.2013 N   0  0  0  0  0  0  0  0  0  0  0  0
   16.3551  -19.3989    5.2642 C   0  0  0  0  0  0  0  0  0  0  0  0
   17.5825  -19.3748    5.1181 O   0  0  0  0  0  0  0  0  0  0  0  0
   17.9537  -21.5211    9.2106 N   0  0  0  0  0  0  0  0  0  0  0  0
   16.6387  -21.2735    8.7405 C   0  0  0  0  0  0  0  0  0  0  0  0
   15.9947  -20.3331    9.2690 O   0  0  0  0  0  0  0  0  0  0  0  0
   16.0974  -22.1324    7.6585 C   0  0  0  0  0  0  0  0  0  0  0  0
   16.5320  -21.6547    6.2905 C   0  0  2  0  0  0  0  0  0  0  0  0
   15.7535  -20.5477    5.8203 N   0  0  0  0  0  0  0  0  0  0  0  0
   16.6024  -22.7607    5.3099 C   0  0  0  0  0  0  0  0  0  0  0  0
   17.6029  -23.7166    5.3015 O   0  0  0  0  0  0  0  0  0  0  0  0
   15.7080  -22.8425    4.4342 O   0  0  0  0  0  0  0  0  0  0  0  0
  2  1  1  0
  3  2  2  0
  4  3  1  0
  5  4  2  0
  5 11  1  0
  6  5  1  0
  7  6  1  0
  7  8  1  1
  9  7  1  0
  9 13  1  0
 10  9  2  0
 11 12  2  0
 12  2  1  0
 14 13  1  0
 14 21  1  0
 14 15  1  6
 16 15  1  0
 17 16  2  0
 18 19  1  0
 18 17  1  0
 19 20  2  0
 20 16  1  0
 21 28  1  0
 22 21  2  0
 23 24  1  0
 24 26  1  0
 25 24  2  0
 27 26  1  1
 27 29  1  0
 28 27  1  0
 29 31  2  0
 29 30  1  0
M  END
$$$$
