YHN.pdb
     RDKit          3D

 31 32  0  0  1  0  0  0  0  0999 V2000
   18.4550  -16.0601  -16.6830 O   0  0  0  0  0  0  0  0  0  0  0  0
   18.9991  -15.1382  -17.5919 C   0  0  0  0  0  0  0  0  0  0  0  0
   18.2363  -14.0412  -17.9613 C   0  0  0  0  0  0  0  0  0  0  0  0
   18.7182  -13.0980  -18.8533 C   0  0  0  0  0  0  0  0  0  0  0  0
   19.9892  -13.2330  -19.4013 C   0  0  0  0  0  0  0  0  0  0  0  0
   20.4497  -12.1966  -20.3444 C   0  0  0  0  0  0  0  0  0  0  0  0
   21.3823  -11.2853  -19.6164 C   0  0  2  0  0  0  0  0  0  0  0  0
   22.4559  -12.0609  -19.0314 N   0  0  0  0  0  0  0  0  0  0  0  0
   20.7071  -10.4335  -18.5954 C   0  0  0  0  0  0  0  0  0  0  0  0
   19.7789   -9.6530  -18.9131 O   0  0  0  0  0  0  0  0  0  0  0  0
   20.7280  -14.3226  -19.0248 C   0  0  0  0  0  0  0  0  0  0  0  0
   20.2545  -15.2729  -18.1327 C   0  0  0  0  0  0  0  0  0  0  0  0
   21.0826  -10.4647  -17.2098 N   0  0  0  0  0  0  0  0  0  0  0  0
   20.4351   -9.6076  -16.2365 C   0  0  1  0  0  0  0  0  0  0  0  0
   19.9296  -10.4528  -15.1118 C   0  0  0  0  0  0  0  0  0  0  0  0
   18.5696  -10.9661  -15.3474 C   0  0  0  0  0  0  0  0  0  0  0  0
   17.7899  -10.6644  -16.4377 C   0  0  0  0  0  0  0  0  0  0  0  0
   16.6209  -11.2985  -16.3334 N   0  0  0  0  0  0  0  0  0  0  0  0
   16.6660  -11.9923  -15.1872 C   0  0  0  0  0  0  0  0  0  0  0  0
   17.8412  -11.8031  -14.5746 N   0  0  0  0  0  0  0  0  0  0  0  0
   21.3270   -8.5282  -15.7407 C   0  0  0  0  0  0  0  0  0  0  0  0
   22.5114   -8.7354  -15.4535 O   0  0  0  0  0  0  0  0  0  0  0  0
   23.0955   -3.9820  -14.3426 N   0  0  0  0  0  0  0  0  0  0  0  0
   22.3755   -3.8124  -15.5528 C   0  0  0  0  0  0  0  0  0  0  0  0
   22.4340   -2.6916  -16.1174 O   0  0  0  0  0  0  0  0  0  0  0  0
   21.5969   -4.9587  -16.0829 C   0  0  0  0  0  0  0  0  0  0  0  0
   21.6113   -6.1359  -15.1329 C   0  0  2  0  0  0  0  0  0  0  0  0
   20.8039   -7.2260  -15.5939 N   0  0  0  0  0  0  0  0  0  0  0  0
   21.2918   -5.7360  -13.7445 C   0  0  0  0  0  0  0  0  0  0  0  0
   22.2326   -5.2652  -12.8455 O   0  0  0  0  0  0  0  0  0  0  0  0
   20.1033   -5.8263  -13.3536 O   0  0  0  0  0  0  0  0  0  0  0  0
  2  1  1  0
  3  2  2  0
  4  3  1  0
  5  4  2  0
  5 11  1  0
  6  5  1  0
  7  6  1  0
  7  8  1  1
  9  7  1  0
  9 13  1  0
 10  9  2  0
 11 12  2  0
 12  2  1  0
 14 13  1  0
 14 21  1  0
 14 15  1  1
 16 15  1  0
 17 16  2  0
 18 19  1  0
 18 17  1  0
 19 20  2  0
 20 16  1  0
 21 28  1  0
 22 21  2  0
 23 24  1  0
 24 26  1  0
 25 24  2  0
 27 26  1  6
 27 29  1  0
 28 27  1  0
 29 31  2  0
 29 30  1  0
M  END
$$$$
