YHN.pdb
     RDKit          3D

 31 32  0  0  1  0  0  0  0  0999 V2000
   26.8015  -13.5414  -17.8874 O   0  0  0  0  0  0  0  0  0  0  0  0
   25.8991  -14.5830  -17.6171 C   0  0  0  0  0  0  0  0  0  0  0  0
   25.3408  -14.6656  -16.3510 C   0  0  0  0  0  0  0  0  0  0  0  0
   24.4450  -15.6698  -16.0244 C   0  0  0  0  0  0  0  0  0  0  0  0
   24.0833  -16.6243  -16.9689 C   0  0  0  0  0  0  0  0  0  0  0  0
   23.1238  -17.6690  -16.5646 C   0  0  0  0  0  0  0  0  0  0  0  0
   23.8238  -18.6135  -15.6437 C   0  0  2  0  0  0  0  0  0  0  0  0
   24.8870  -19.2864  -16.3600 N   0  0  0  0  0  0  0  0  0  0  0  0
   22.9096  -19.5894  -14.9835 C   0  0  0  0  0  0  0  0  0  0  0  0
   22.5347  -20.6294  -15.5749 O   0  0  0  0  0  0  0  0  0  0  0  0
   24.6447  -16.5266  -18.2139 C   0  0  0  0  0  0  0  0  0  0  0  0
   25.5430  -15.5253  -18.5509 C   0  0  0  0  0  0  0  0  0  0  0  0
   22.4178  -19.3889  -13.6495 N   0  0  0  0  0  0  0  0  0  0  0  0
   21.5814  -20.3791  -13.0004 C   0  0  1  0  0  0  0  0  0  0  0  0
   22.0296  -20.5327  -11.5825 C   0  0  0  0  0  0  0  0  0  0  0  0
   23.3813  -21.1056  -11.4680 C   0  0  0  0  0  0  0  0  0  0  0  0
   24.1837  -21.4534  -12.5276 C   0  0  0  0  0  0  0  0  0  0  0  0
   25.3377  -21.9387  -12.0668 N   0  0  0  0  0  0  0  0  0  0  0  0
   25.2605  -21.8964  -10.7291 C   0  0  0  0  0  0  0  0  0  0  0  0
   24.0802  -21.3935  -10.3468 N   0  0  0  0  0  0  0  0  0  0  0  0
   20.1358  -20.0458  -13.0755 C   0  0  0  0  0  0  0  0  0  0  0  0
   19.7038  -18.9268  -12.7762 O   0  0  0  0  0  0  0  0  0  0  0  0
   18.6286  -22.4869  -16.4456 N   0  0  0  0  0  0  0  0  0  0  0  0
   17.4903  -22.1820  -15.6564 C   0  0  0  0  0  0  0  0  0  0  0  0
   16.6373  -23.0880  -15.4834 O   0  0  0  0  0  0  0  0  0  0  0  0
   17.3679  -20.8193  -15.0824 C   0  0  0  0  0  0  0  0  0  0  0  0
   17.8284  -20.7722  -13.6422 C   0  0  2  0  0  0  0  0  0  0  0  0
   19.2291  -21.0390  -13.5024 N   0  0  0  0  0  0  0  0  0  0  0  0
   16.9949  -21.6210  -12.7621 C   0  0  0  0  0  0  0  0  0  0  0  0
   15.6920  -21.3150  -12.4102 O   0  0  0  0  0  0  0  0  0  0  0  0
   17.4907  -22.6790  -12.3058 O   0  0  0  0  0  0  0  0  0  0  0  0
  2  1  1  0
  3  2  2  0
  4  3  1  0
  5  4  2  0
  5 11  1  0
  6  5  1  0
  7  6  1  0
  7  8  1  6
  9  7  1  0
  9 13  1  0
 10  9  2  0
 11 12  2  0
 12  2  1  0
 14 13  1  0
 14 21  1  0
 14 15  1  1
 16 15  1  0
 17 16  2  0
 18 19  1  0
 18 17  1  0
 19 20  2  0
 20 16  1  0
 21 28  1  0
 22 21  2  0
 23 24  1  0
 24 26  1  0
 25 24  2  0
 27 26  1  6
 27 29  1  0
 28 27  1  0
 29 31  2  0
 29 30  1  0
M  END
$$$$
