YHN.pdb
     RDKit          3D

 31 32  0  0  1  0  0  0  0  0999 V2000
   23.2170  -11.8875  -25.8222 O   0  0  0  0  0  0  0  0  0  0  0  0
   22.7318  -11.4147  -24.5920 C   0  0  0  0  0  0  0  0  0  0  0  0
   23.6423  -11.1131  -23.5911 C   0  0  0  0  0  0  0  0  0  0  0  0
   23.2248  -10.6433  -22.3573 C   0  0  0  0  0  0  0  0  0  0  0  0
   21.8712  -10.4620  -22.0948 C   0  0  0  0  0  0  0  0  0  0  0  0
   21.4859   -9.9573  -20.7635 C   0  0  0  0  0  0  0  0  0  0  0  0
   21.4373  -11.1156  -19.8222 C   0  0  2  0  0  0  0  0  0  0  0  0
   20.2603  -11.9124  -20.0984 N   0  0  0  0  0  0  0  0  0  0  0  0
   21.5016  -10.7193  -18.3860 C   0  0  0  0  0  0  0  0  0  0  0  0
   20.4577  -10.5259  -17.7191 O   0  0  0  0  0  0  0  0  0  0  0  0
   20.9868  -10.7649  -23.0953 C   0  0  0  0  0  0  0  0  0  0  0  0
   21.3945  -11.2364  -24.3341 C   0  0  0  0  0  0  0  0  0  0  0  0
   22.7509  -10.5414  -17.7010 N   0  0  0  0  0  0  0  0  0  0  0  0
   22.7967  -10.0588  -16.3349 C   0  0  1  0  0  0  0  0  0  0  0  0
   23.9112  -10.7501  -15.6173 C   0  0  0  0  0  0  0  0  0  0  0  0
   23.7149  -12.2064  -15.5221 C   0  0  0  0  0  0  0  0  0  0  0  0
   22.5635  -12.8719  -15.8668 C   0  0  0  0  0  0  0  0  0  0  0  0
   22.7295  -14.1789  -15.6575 N   0  0  0  0  0  0  0  0  0  0  0  0
   23.9746  -14.3328  -15.1850 C   0  0  0  0  0  0  0  0  0  0  0  0
   24.5884  -13.1464  -15.0959 N   0  0  0  0  0  0  0  0  0  0  0  0
   22.9372   -8.5823  -16.2534 C   0  0  0  0  0  0  0  0  0  0  0  0
   23.4770   -7.9238  -17.1497 O   0  0  0  0  0  0  0  0  0  0  0  0
   22.2341   -3.7589  -14.9520 N   0  0  0  0  0  0  0  0  0  0  0  0
   21.6613   -4.3679  -16.0977 C   0  0  0  0  0  0  0  0  0  0  0  0
   21.1311   -3.6193  -16.9561 O   0  0  0  0  0  0  0  0  0  0  0  0
   21.7175   -5.8455  -16.2201 C   0  0  0  0  0  0  0  0  0  0  0  0
   22.4097   -6.4821  -15.0352 C   0  0  2  0  0  0  0  0  0  0  0  0
   22.4380   -7.9122  -15.1165 N   0  0  0  0  0  0  0  0  0  0  0  0
   21.8711   -5.9940  -13.7462 C   0  0  0  0  0  0  0  0  0  0  0  0
   21.8594   -4.6611  -13.3746 O   0  0  0  0  0  0  0  0  0  0  0  0
   21.3968   -6.8300  -12.9402 O   0  0  0  0  0  0  0  0  0  0  0  0
  2  1  1  0
  3  2  2  0
  4  3  1  0
  5  4  2  0
  5 11  1  0
  6  5  1  0
  7  6  1  0
  7  8  1  1
  9  7  1  0
  9 13  1  0
 10  9  2  0
 11 12  2  0
 12  2  1  0
 14 13  1  0
 14 21  1  0
 14 15  1  1
 16 15  1  0
 17 16  2  0
 18 19  1  0
 18 17  1  0
 19 20  2  0
 20 16  1  0
 21 28  1  0
 22 21  2  0
 23 24  1  0
 24 26  1  0
 25 24  2  0
 27 26  1  6
 27 29  1  0
 28 27  1  0
 29 31  2  0
 29 30  1  0
M  END
$$$$
