YHN.pdb
     RDKit          3D

 31 32  0  0  1  0  0  0  0  0999 V2000
   18.9658  -14.5808  -19.3680 O   0  0  0  0  0  0  0  0  0  0  0  0
   19.3261  -15.6775  -18.5683 C   0  0  0  0  0  0  0  0  0  0  0  0
   19.0325  -16.9543  -19.0213 C   0  0  0  0  0  0  0  0  0  0  0  0
   19.3629  -18.0747  -18.2777 C   0  0  0  0  0  0  0  0  0  0  0  0
   20.0025  -17.9407  -17.0501 C   0  0  0  0  0  0  0  0  0  0  0  0
   20.3313  -19.1694  -16.3033 C   0  0  0  0  0  0  0  0  0  0  0  0
   21.8021  -19.4029  -16.4147 C   0  0  2  0  0  0  0  0  0  0  0  0
   22.1051  -19.9581  -17.7171 N   0  0  0  0  0  0  0  0  0  0  0  0
   22.3554  -20.2506  -15.3195 C   0  0  0  0  0  0  0  0  0  0  0  0
   22.1587  -21.4885  -15.2951 O   0  0  0  0  0  0  0  0  0  0  0  0
   20.2845  -16.6721  -16.6190 C   0  0  0  0  0  0  0  0  0  0  0  0
   19.9576  -15.5436  -17.3558 C   0  0  0  0  0  0  0  0  0  0  0  0
   23.1343  -19.6965  -14.2481 N   0  0  0  0  0  0  0  0  0  0  0  0
   23.6081  -20.5251  -13.1571 C   0  0  1  0  0  0  0  0  0  0  0  0
   25.0354  -20.1805  -12.8759 C   0  0  0  0  0  0  0  0  0  0  0  0
   25.9395  -20.5374  -13.9821 C   0  0  0  0  0  0  0  0  0  0  0  0
   25.5539  -21.1467  -15.1516 C   0  0  0  0  0  0  0  0  0  0  0  0
   26.6222  -21.3223  -15.9310 N   0  0  0  0  0  0  0  0  0  0  0  0
   27.6699  -20.8279  -15.2564 C   0  0  0  0  0  0  0  0  0  0  0  0
   27.2752  -20.3469  -14.0710 N   0  0  0  0  0  0  0  0  0  0  0  0
   22.7722  -20.3973  -11.9360 C   0  0  0  0  0  0  0  0  0  0  0  0
   22.1195  -19.3764  -11.6912 O   0  0  0  0  0  0  0  0  0  0  0  0
   20.2602  -21.5288   -7.6811 N   0  0  0  0  0  0  0  0  0  0  0  0
   21.0592  -22.6829   -7.8846 C   0  0  0  0  0  0  0  0  0  0  0  0
   20.9376  -23.6311   -7.0694 O   0  0  0  0  0  0  0  0  0  0  0  0
   21.9896  -22.7083   -9.0400 C   0  0  0  0  0  0  0  0  0  0  0  0
   21.9448  -21.4170   -9.8268 C   0  0  2  0  0  0  0  0  0  0  0  0
   22.7228  -21.4765  -11.0283 N   0  0  0  0  0  0  0  0  0  0  0  0
   22.2758  -20.2423   -8.9899 C   0  0  0  0  0  0  0  0  0  0  0  0
   21.3492  -19.2902   -8.6025 O   0  0  0  0  0  0  0  0  0  0  0  0
   23.4610  -20.0948   -8.6065 O   0  0  0  0  0  0  0  0  0  0  0  0
  2  1  1  0
  3  2  2  0
  4  3  1  0
  5  4  2  0
  5 11  1  0
  6  5  1  0
  7  6  1  0
  7  8  1  6
  9  7  1  0
  9 13  1  0
 10  9  2  0
 11 12  2  0
 12  2  1  0
 14 13  1  0
 14 21  1  0
 14 15  1  1
 16 15  1  0
 17 16  2  0
 18 19  1  0
 18 17  1  0
 19 20  2  0
 20 16  1  0
 21 28  1  0
 22 21  2  0
 23 24  1  0
 24 26  1  0
 25 24  2  0
 27 26  1  1
 27 29  1  0
 28 27  1  0
 29 31  2  0
 29 30  1  0
M  END
$$$$
