YHN.pdb
     RDKit          3D

 31 32  0  0  1  0  0  0  0  0999 V2000
   26.9729  -21.1521   -5.5863 O   0  0  0  0  0  0  0  0  0  0  0  0
   27.1443  -20.8007   -6.9351 C   0  0  0  0  0  0  0  0  0  0  0  0
   28.0253  -19.7771   -7.2475 C   0  0  0  0  0  0  0  0  0  0  0  0
   28.2365  -19.3857   -8.5589 C   0  0  0  0  0  0  0  0  0  0  0  0
   27.5634  -20.0177   -9.5988 C   0  0  0  0  0  0  0  0  0  0  0  0
   27.8298  -19.5593  -10.9752 C   0  0  0  0  0  0  0  0  0  0  0  0
   28.0201  -20.7628  -11.8386 C   0  0  2  0  0  0  0  0  0  0  0  0
   29.3821  -21.2373  -11.7113 N   0  0  0  0  0  0  0  0  0  0  0  0
   27.6539  -20.5358  -13.2663 C   0  0  0  0  0  0  0  0  0  0  0  0
   28.3560  -19.8088  -14.0082 O   0  0  0  0  0  0  0  0  0  0  0  0
   26.6975  -21.0264   -9.2711 C   0  0  0  0  0  0  0  0  0  0  0  0
   26.4785  -21.4257   -7.9612 C   0  0  0  0  0  0  0  0  0  0  0  0
   26.4898  -21.1334  -13.8575 N   0  0  0  0  0  0  0  0  0  0  0  0
   26.0996  -20.8303  -15.2203 C   0  0  1  0  0  0  0  0  0  0  0  0
   26.6199  -21.9048  -16.1201 C   0  0  0  0  0  0  0  0  0  0  0  0
   26.2726  -21.6857  -17.5342 C   0  0  0  0  0  0  0  0  0  0  0  0
   26.7997  -20.6999  -18.3330 C   0  0  0  0  0  0  0  0  0  0  0  0
   26.2681  -20.7892  -19.5533 N   0  0  0  0  0  0  0  0  0  0  0  0
   25.4142  -21.8221  -19.5210 C   0  0  0  0  0  0  0  0  0  0  0  0
   25.4033  -22.3790  -18.3036 N   0  0  0  0  0  0  0  0  0  0  0  0
   24.6314  -20.6641  -15.3722 C   0  0  0  0  0  0  0  0  0  0  0  0
   23.8252  -21.4423  -14.8500 O   0  0  0  0  0  0  0  0  0  0  0  0
   20.9366  -18.9472  -14.2953 N   0  0  0  0  0  0  0  0  0  0  0  0
   21.3764  -17.7732  -14.9586 C   0  0  0  0  0  0  0  0  0  0  0  0
   20.9089  -16.6725  -14.5737 O   0  0  0  0  0  0  0  0  0  0  0  0
   22.3569  -17.9068  -16.0641 C   0  0  0  0  0  0  0  0  0  0  0  0
   22.7401  -19.3503  -16.3048 C   0  0  2  0  0  0  0  0  0  0  0  0
   24.1437  -19.5833  -16.1369 N   0  0  0  0  0  0  0  0  0  0  0  0
   22.2283  -19.8548  -17.5984 C   0  0  0  0  0  0  0  0  0  0  0  0
   21.0834  -20.6217  -17.7244 O   0  0  0  0  0  0  0  0  0  0  0  0
   22.8630  -19.5755  -18.6437 O   0  0  0  0  0  0  0  0  0  0  0  0
  2  1  1  0
  3  2  2  0
  4  3  1  0
  5  4  2  0
  5 11  1  0
  6  5  1  0
  7  6  1  0
  7  8  1  6
  9  7  1  0
  9 13  1  0
 10  9  2  0
 11 12  2  0
 12  2  1  0
 14 13  1  0
 14 21  1  0
 14 15  1  6
 16 15  1  0
 17 16  2  0
 18 19  1  0
 18 17  1  0
 19 20  2  0
 20 16  1  0
 21 28  1  0
 22 21  2  0
 23 24  1  0
 24 26  1  0
 25 24  2  0
 27 26  1  6
 27 29  1  0
 28 27  1  0
 29 31  2  0
 29 30  1  0
M  END
$$$$
