YHN.pdb
     RDKit          3D

 31 32  0  0  1  0  0  0  0  0999 V2000
   40.3439  -31.2765  -22.4302 O   0  0  0  0  0  0  0  0  0  0  0  0
   39.1885  -30.6314  -21.9600 C   0  0  0  0  0  0  0  0  0  0  0  0
   38.5523  -31.1426  -20.8395 C   0  0  0  0  0  0  0  0  0  0  0  0
   37.4095  -30.5505  -20.3288 C   0  0  0  0  0  0  0  0  0  0  0  0
   36.8722  -29.4199  -20.9347 C   0  0  0  0  0  0  0  0  0  0  0  0
   35.6548  -28.8315  -20.3454 C   0  0  0  0  0  0  0  0  0  0  0  0
   36.0379  -27.5664  -19.6505 C   0  0  2  0  0  0  0  0  0  0  0  0
   36.8077  -27.8813  -18.4653 N   0  0  0  0  0  0  0  0  0  0  0  0
   34.8764  -26.6885  -19.3278 C   0  0  0  0  0  0  0  0  0  0  0  0
   34.9256  -25.8704  -18.3791 O   0  0  0  0  0  0  0  0  0  0  0  0
   37.5141  -28.9291  -22.0400 C   0  0  0  0  0  0  0  0  0  0  0  0
   38.6587  -29.5149  -22.5596 C   0  0  0  0  0  0  0  0  0  0  0  0
   33.6548  -26.7354  -20.0809 N   0  0  0  0  0  0  0  0  0  0  0  0
   32.6228  -25.7333  -19.9020 C   0  0  1  0  0  0  0  0  0  0  0  0
   33.2249  -24.3805  -20.1074 C   0  0  0  0  0  0  0  0  0  0  0  0
   32.2510  -23.2887  -19.9408 C   0  0  0  0  0  0  0  0  0  0  0  0
   31.2023  -23.2949  -19.0531 C   0  0  0  0  0  0  0  0  0  0  0  0
   30.5233  -22.1520  -19.1640 N   0  0  0  0  0  0  0  0  0  0  0  0
   31.1401  -21.4344  -20.1136 C   0  0  0  0  0  0  0  0  0  0  0  0
   32.1912  -22.1079  -20.5969 N   0  0  0  0  0  0  0  0  0  0  0  0
   31.4567  -25.9458  -20.7971 C   0  0  0  0  0  0  0  0  0  0  0  0
   31.5564  -25.8954  -22.0283 O   0  0  0  0  0  0  0  0  0  0  0  0
   25.8902  -24.6623  -21.5073 N   0  0  0  0  0  0  0  0  0  0  0  0
   27.0508  -25.2743  -22.0461 C   0  0  0  0  0  0  0  0  0  0  0  0
   26.9199  -25.9633  -23.0884 O   0  0  0  0  0  0  0  0  0  0  0  0
   28.3476  -25.0704  -21.3546 C   0  0  0  0  0  0  0  0  0  0  0  0
   29.0216  -26.3838  -21.0242 C   0  0  2  0  0  0  0  0  0  0  0  0
   30.1964  -26.2139  -20.2220 N   0  0  0  0  0  0  0  0  0  0  0  0
   29.2682  -27.2033  -22.2315 C   0  0  0  0  0  0  0  0  0  0  0  0
   28.7843  -28.4890  -22.3985 O   0  0  0  0  0  0  0  0  0  0  0  0
   29.9536  -26.7113  -23.1597 O   0  0  0  0  0  0  0  0  0  0  0  0
  2  1  1  0
  3  2  2  0
  4  3  1  0
  5  4  2  0
  5 11  1  0
  6  5  1  0
  7  6  1  0
  7  8  1  1
  9  7  1  0
  9 13  1  0
 10  9  2  0
 11 12  2  0
 12  2  1  0
 14 13  1  0
 14 21  1  0
 14 15  1  6
 16 15  1  0
 17 16  2  0
 18 19  1  0
 18 17  1  0
 19 20  2  0
 20 16  1  0
 21 28  1  0
 22 21  2  0
 23 24  1  0
 24 26  1  0
 25 24  2  0
 27 26  1  6
 27 29  1  0
 28 27  1  0
 29 31  2  0
 29 30  1  0
M  END
$$$$
