YHN.pdb
     RDKit          3D

 31 32  0  0  1  0  0  0  0  0999 V2000
   28.0448  -17.3369  -15.3575 O   0  0  0  0  0  0  0  0  0  0  0  0
   27.2920  -16.2020  -15.7006 C   0  0  0  0  0  0  0  0  0  0  0  0
   26.5324  -15.5873  -14.7175 C   0  0  0  0  0  0  0  0  0  0  0  0
   25.7696  -14.4653  -14.9947 C   0  0  0  0  0  0  0  0  0  0  0  0
   25.7505  -13.9270  -16.2768 C   0  0  0  0  0  0  0  0  0  0  0  0
   24.9211  -12.7303  -16.5126 C   0  0  0  0  0  0  0  0  0  0  0  0
   23.5302  -13.1801  -16.8180 C   0  0  2  0  0  0  0  0  0  0  0  0
   23.5451  -14.0335  -17.9876 N   0  0  0  0  0  0  0  0  0  0  0  0
   22.5619  -12.0569  -16.9760 C   0  0  0  0  0  0  0  0  0  0  0  0
   22.4907  -11.4078  -18.0462 O   0  0  0  0  0  0  0  0  0  0  0  0
   26.5070  -14.5475  -17.2347 C   0  0  0  0  0  0  0  0  0  0  0  0
   27.2739  -15.6716  -16.9675 C   0  0  0  0  0  0  0  0  0  0  0  0
   21.6706  -11.6665  -15.9201 N   0  0  0  0  0  0  0  0  0  0  0  0
   20.7345  -10.5733  -16.0929 C   0  0  1  0  0  0  0  0  0  0  0  0
   19.3634  -11.0536  -15.7406 C   0  0  0  0  0  0  0  0  0  0  0  0
   18.3363  -10.0078  -15.8812 C   0  0  0  0  0  0  0  0  0  0  0  0
   17.9049   -9.4804  -17.0743 C   0  0  0  0  0  0  0  0  0  0  0  0
   16.9702   -8.5587  -16.8372 N   0  0  0  0  0  0  0  0  0  0  0  0
   16.8161   -8.5074  -15.5064 C   0  0  0  0  0  0  0  0  0  0  0  0
   17.6370   -9.3800  -14.9090 N   0  0  0  0  0  0  0  0  0  0  0  0
   21.1045   -9.3719  -15.3016 C   0  0  0  0  0  0  0  0  0  0  0  0
   22.1537   -9.3123  -14.6505 O   0  0  0  0  0  0  0  0  0  0  0  0
   23.2829   -4.5338  -15.2364 N   0  0  0  0  0  0  0  0  0  0  0  0
   22.5693   -5.4561  -14.4291 C   0  0  0  0  0  0  0  0  0  0  0  0
   22.3458   -5.1386  -13.2343 O   0  0  0  0  0  0  0  0  0  0  0  0
   22.1290   -6.7374  -15.0338 C   0  0  0  0  0  0  0  0  0  0  0  0
   20.6486   -6.9749  -14.8328 C   0  0  2  0  0  0  0  0  0  0  0  0
   20.2297   -8.2649  -15.2945 N   0  0  0  0  0  0  0  0  0  0  0  0
   19.8271   -5.8757  -15.3866 C   0  0  0  0  0  0  0  0  0  0  0  0
   18.5049   -5.6568  -15.0421 O   0  0  0  0  0  0  0  0  0  0  0  0
   20.3524   -5.0945  -16.2156 O   0  0  0  0  0  0  0  0  0  0  0  0
  2  1  1  0
  3  2  2  0
  4  3  1  0
  5  4  2  0
  5 11  1  0
  6  5  1  0
  7  6  1  0
  7  8  1  6
  9  7  1  0
  9 13  1  0
 10  9  2  0
 11 12  2  0
 12  2  1  0
 14 13  1  0
 14 21  1  0
 14 15  1  1
 16 15  1  0
 17 16  2  0
 18 19  1  0
 18 17  1  0
 19 20  2  0
 20 16  1  0
 21 28  1  0
 22 21  2  0
 23 24  1  0
 24 26  1  0
 25 24  2  0
 27 26  1  6
 27 29  1  0
 28 27  1  0
 29 31  2  0
 29 30  1  0
M  END
$$$$
