YHN.pdb
     RDKit          3D

 31 32  0  0  1  0  0  0  0  0999 V2000
   13.4545  -15.5454  -17.1480 O   0  0  0  0  0  0  0  0  0  0  0  0
   14.6273  -14.8561  -16.7994 C   0  0  0  0  0  0  0  0  0  0  0  0
   14.8916  -13.6423  -17.4146 C   0  0  0  0  0  0  0  0  0  0  0  0
   16.0314  -12.9164  -17.1125 C   0  0  0  0  0  0  0  0  0  0  0  0
   16.9423  -13.3943  -16.1766 C   0  0  0  0  0  0  0  0  0  0  0  0
   18.1374  -12.5771  -15.8943 C   0  0  0  0  0  0  0  0  0  0  0  0
   19.1456  -12.8408  -16.9639 C   0  0  2  0  0  0  0  0  0  0  0  0
   19.6243  -14.2025  -16.8504 N   0  0  0  0  0  0  0  0  0  0  0  0
   20.2741  -11.8660  -16.9723 C   0  0  0  0  0  0  0  0  0  0  0  0
   21.1981  -11.9362  -16.1278 O   0  0  0  0  0  0  0  0  0  0  0  0
   16.6646  -14.5946  -15.5793 C   0  0  0  0  0  0  0  0  0  0  0  0
   15.5263  -15.3295  -15.8750 C   0  0  0  0  0  0  0  0  0  0  0  0
   20.3585  -10.8080  -17.9394 N   0  0  0  0  0  0  0  0  0  0  0  0
   21.4106   -9.8129  -17.8745 C   0  0  1  0  0  0  0  0  0  0  0  0
   21.7916   -9.4240  -19.2668 C   0  0  0  0  0  0  0  0  0  0  0  0
   22.5501  -10.4738  -19.9675 C   0  0  0  0  0  0  0  0  0  0  0  0
   22.9887  -11.6445  -19.3978 C   0  0  0  0  0  0  0  0  0  0  0  0
   23.6387  -12.3647  -20.3134 N   0  0  0  0  0  0  0  0  0  0  0  0
   23.6089  -11.6521  -21.4485 C   0  0  0  0  0  0  0  0  0  0  0  0
   22.9522  -10.5010  -21.2583 N   0  0  0  0  0  0  0  0  0  0  0  0
   21.0268   -8.6253  -17.0692 C   0  0  0  0  0  0  0  0  0  0  0  0
   19.9196   -8.0867  -17.1804 O   0  0  0  0  0  0  0  0  0  0  0  0
   21.0911   -4.8258  -13.7256 N   0  0  0  0  0  0  0  0  0  0  0  0
   22.0558   -5.7368  -13.2248 C   0  0  0  0  0  0  0  0  0  0  0  0
   22.5793   -5.4829  -12.1114 O   0  0  0  0  0  0  0  0  0  0  0  0
   22.3936   -6.9317  -14.0369 C   0  0  0  0  0  0  0  0  0  0  0  0
   21.6631   -6.9364  -15.3616 C   0  0  2  0  0  0  0  0  0  0  0  0
   21.9565   -8.0971  -16.1486 N   0  0  0  0  0  0  0  0  0  0  0  0
   21.8577   -5.6748  -16.1102 C   0  0  0  0  0  0  0  0  0  0  0  0
   20.9608   -4.6213  -16.0852 O   0  0  0  0  0  0  0  0  0  0  0  0
   22.8915   -5.5462  -16.8088 O   0  0  0  0  0  0  0  0  0  0  0  0
  2  1  1  0
  3  2  2  0
  4  3  1  0
  5  4  2  0
  5 11  1  0
  6  5  1  0
  7  6  1  0
  7  8  1  1
  9  7  1  0
  9 13  1  0
 10  9  2  0
 11 12  2  0
 12  2  1  0
 14 13  1  0
 14 21  1  0
 14 15  1  6
 16 15  1  0
 17 16  2  0
 18 19  1  0
 18 17  1  0
 19 20  2  0
 20 16  1  0
 21 28  1  0
 22 21  2  0
 23 24  1  0
 24 26  1  0
 25 24  2  0
 27 26  1  1
 27 29  1  0
 28 27  1  0
 29 31  2  0
 29 30  1  0
M  END
$$$$
