EPY.pdb
     RDKit          3D

 29 30  0  0  1  0  0  0  0  0999 V2000
    8.2507  -17.3509   16.9720 N   0  0  0  0  0  0  0  0  0  0  0  0
    7.5838  -17.0945   18.2798 C   0  0  1  0  0  0  0  0  0  0  0  0
    7.2685  -18.4820   18.8014 C   0  0  0  0  0  0  0  0  0  0  0  0
    6.6600  -18.5107   20.1668 C   0  0  0  0  0  0  0  0  0  0  0  0
    7.1673  -19.6596   20.9674 C   0  0  0  0  0  0  0  0  0  0  0  0
    7.1672  -19.5640   22.2139 O   0  0  0  0  0  0  0  0  0  0  0  0
    8.4942  -16.3246   19.1425 C   0  0  0  0  0  0  0  0  0  0  0  0
    9.7373  -16.6102   19.0216 O   0  0  0  0  0  0  0  0  0  0  0  0
    7.6341  -20.8176   20.3844 O   0  0  0  0  0  0  0  0  0  0  0  0
    8.1335  -15.3219   20.0659 N   0  0  0  0  0  0  0  0  0  0  0  0
    6.7943  -14.8745   20.3825 C   0  0  0  0  0  0  0  0  0  0  0  0
    6.9473  -13.4648   20.9124 C   0  0  0  0  0  0  0  0  0  0  0  0
    8.4206  -13.1980   20.8248 C   0  0  0  0  0  0  0  0  0  0  0  0
    9.0704  -14.5379   20.8631 C   0  0  1  0  0  0  0  0  0  0  0  0
    9.2397  -15.1009   22.2234 C   0  0  0  0  0  0  0  0  0  0  0  0
    8.2506  -15.4425   22.9251 O   0  0  0  0  0  0  0  0  0  0  0  0
   10.1410  -15.1944   30.6044 O   0  0  0  0  0  0  0  0  0  0  0  0
   10.1565  -15.0070   29.2105 C   0  0  0  0  0  0  0  0  0  0  0  0
   11.2720  -15.2974   28.4630 C   0  0  0  0  0  0  0  0  0  0  0  0
   11.3158  -15.1230   27.0869 C   0  0  0  0  0  0  0  0  0  0  0  0
   10.1967  -14.6398   26.4502 C   0  0  0  0  0  0  0  0  0  0  0  0
   10.1852  -14.4331   25.0037 C   0  0  0  0  0  0  0  0  0  0  0  0
   10.7204  -15.5940   24.1972 C   0  0  2  0  0  0  0  0  0  0  0  0
   10.5139  -15.2740   22.7790 N   0  0  0  0  0  0  0  0  0  0  0  0
   10.1256  -16.8826   24.5532 C   0  0  0  0  0  0  0  0  0  0  0  0
    8.8206  -17.2058   24.2254 O   0  0  0  0  0  0  0  0  0  0  0  0
    9.0713  -14.3443   27.1868 C   0  0  0  0  0  0  0  0  0  0  0  0
    9.0335  -14.5216   28.5670 C   0  0  0  0  0  0  0  0  0  0  0  0
   10.7907  -17.7499   25.1778 O   0  0  0  0  0  0  0  0  0  0  0  0
  2  1  1  6
  3  2  1  0
  3  4  1  0
  4  5  1  0
  5  9  1  0
  5  6  2  0
  7  2  1  0
  7  8  2  0
 10  7  1  0
 11 10  1  0
 12 13  1  0
 12 11  1  0
 13 14  1  0
 14 10  1  0
 15 16  2  0
 14 15  1  1
 18 17  1  0
 19 18  2  0
 20 19  1  0
 21 27  1  0
 21 20  2  0
 23 22  1  1
 22 21  1  0
 23 24  1  0
 24 15  1  0
 25 23  1  0
 26 25  1  0
 27 28  2  0
 28 18  1  0
 29 25  2  0
M  END
$$$$
