EPY.pdb
     RDKit          3D

 29 30  0  0  1  0  0  0  0  0999 V2000
    8.8514  -12.7444   18.3404 N   0  0  0  0  0  0  0  0  0  0  0  0
    9.0548  -14.2198   18.3913 C   0  0  1  0  0  0  0  0  0  0  0  0
   10.5622  -14.3755   18.4009 C   0  0  0  0  0  0  0  0  0  0  0  0
   11.2436  -13.7676   19.5847 C   0  0  0  0  0  0  0  0  0  0  0  0
   12.6698  -14.1884   19.6703 C   0  0  0  0  0  0  0  0  0  0  0  0
   13.0297  -14.8801   20.6475 O   0  0  0  0  0  0  0  0  0  0  0  0
    8.3911  -14.7569   19.5901 C   0  0  0  0  0  0  0  0  0  0  0  0
    7.9600  -13.8795   20.4181 O   0  0  0  0  0  0  0  0  0  0  0  0
   13.6007  -13.8430   18.7149 O   0  0  0  0  0  0  0  0  0  0  0  0
    8.1871  -16.1166   19.9023 N   0  0  0  0  0  0  0  0  0  0  0  0
    8.6690  -17.2602   19.1580 C   0  0  0  0  0  0  0  0  0  0  0  0
    7.7339  -18.3990   19.5046 C   0  0  0  0  0  0  0  0  0  0  0  0
    6.7332  -17.7814   20.4356 C   0  0  0  0  0  0  0  0  0  0  0  0
    7.4253  -16.6111   21.0440 C   0  0  1  0  0  0  0  0  0  0  0  0
    8.3051  -16.9438   22.1891 C   0  0  0  0  0  0  0  0  0  0  0  0
    9.5599  -16.9606   22.0755 O   0  0  0  0  0  0  0  0  0  0  0  0
    6.9080  -11.2091   28.3418 O   0  0  0  0  0  0  0  0  0  0  0  0
    7.0187  -12.1534   27.3053 C   0  0  0  0  0  0  0  0  0  0  0  0
    8.2027  -12.3426   26.6346 C   0  0  0  0  0  0  0  0  0  0  0  0
    8.3412  -13.2669   25.6088 C   0  0  0  0  0  0  0  0  0  0  0  0
    7.2479  -14.0211   25.2523 C   0  0  0  0  0  0  0  0  0  0  0  0
    7.3334  -15.0078   24.1778 C   0  0  0  0  0  0  0  0  0  0  0  0
    7.8858  -16.3505   24.5982 C   0  0  2  0  0  0  0  0  0  0  0  0
    7.7681  -17.2526   23.4455 N   0  0  0  0  0  0  0  0  0  0  0  0
    7.2412  -16.9064   25.7883 C   0  0  0  0  0  0  0  0  0  0  0  0
    5.9711  -17.4541   25.7486 O   0  0  0  0  0  0  0  0  0  0  0  0
    6.0546  -13.8423   25.9158 C   0  0  0  0  0  0  0  0  0  0  0  0
    5.9219  -12.9134   26.9443 C   0  0  0  0  0  0  0  0  0  0  0  0
    7.8290  -16.9038   26.9015 O   0  0  0  0  0  0  0  0  0  0  0  0
  2  1  1  1
  3  2  1  0
  3  4  1  0
  4  5  1  0
  5  9  1  0
  5  6  2  0
  7  2  1  0
  7  8  2  0
 10  7  1  0
 11 10  1  0
 12 13  1  0
 12 11  1  0
 13 14  1  0
 14 10  1  0
 15 16  2  0
 14 15  1  1
 18 17  1  0
 19 18  2  0
 20 19  1  0
 21 27  1  0
 21 20  2  0
 23 22  1  6
 22 21  1  0
 23 24  1  0
 24 15  1  0
 25 23  1  0
 26 25  1  0
 27 28  2  0
 28 18  1  0
 29 25  2  0
M  END
$$$$
