EPY.pdb
     RDKit          3D

 29 30  0  0  1  0  0  0  0  0999 V2000
    8.0085  -17.9839   18.2213 N   0  0  0  0  0  0  0  0  0  0  0  0
    7.2500  -16.9098   18.9226 C   0  0  1  0  0  0  0  0  0  0  0  0
    6.0681  -17.6401   19.5280 C   0  0  0  0  0  0  0  0  0  0  0  0
    6.4204  -18.8935   20.2629 C   0  0  0  0  0  0  0  0  0  0  0  0
    5.3372  -19.9107   20.1597 C   0  0  0  0  0  0  0  0  0  0  0  0
    4.9129  -20.4386   21.2105 O   0  0  0  0  0  0  0  0  0  0  0  0
    8.1279  -16.2686   19.9146 C   0  0  0  0  0  0  0  0  0  0  0  0
    9.2139  -16.8969   20.1736 O   0  0  0  0  0  0  0  0  0  0  0  0
    4.7902  -20.2876   18.9525 O   0  0  0  0  0  0  0  0  0  0  0  0
    7.8914  -15.0526   20.5879 N   0  0  0  0  0  0  0  0  0  0  0  0
    6.7033  -14.2308   20.5045 C   0  0  0  0  0  0  0  0  0  0  0  0
    7.1453  -12.8317   20.8768 C   0  0  0  0  0  0  0  0  0  0  0  0
    8.6183  -12.9663   21.1250 C   0  0  0  0  0  0  0  0  0  0  0  0
    8.8314  -14.3949   21.4890 C   0  0  1  0  0  0  0  0  0  0  0  0
    8.5494  -14.7169   22.9078 C   0  0  0  0  0  0  0  0  0  0  0  0
    7.3974  -14.5819   23.3998 O   0  0  0  0  0  0  0  0  0  0  0  0
    5.1960  -19.5628   22.4050 O   0  0  0  0  0  0  0  0  0  0  0  0
    6.2211  -18.9240   23.1257 C   0  0  0  0  0  0  0  0  0  0  0  0
    7.5085  -18.8782   22.6482 C   0  0  0  0  0  0  0  0  0  0  0  0
    8.5395  -18.2549   23.3369 C   0  0  0  0  0  0  0  0  0  0  0  0
    8.2574  -17.6610   24.5448 C   0  0  0  0  0  0  0  0  0  0  0  0
    9.3030  -16.9924   25.3161 C   0  0  0  0  0  0  0  0  0  0  0  0
    9.3262  -15.4877   25.1736 C   0  0  2  0  0  0  0  0  0  0  0  0
    9.5609  -15.1859   23.7558 N   0  0  0  0  0  0  0  0  0  0  0  0
   10.3072  -14.8291   26.0366 C   0  0  0  0  0  0  0  0  0  0  0  0
   10.1700  -14.7949   27.4131 O   0  0  0  0  0  0  0  0  0  0  0  0
    6.9715  -17.6991   25.0359 C   0  0  0  0  0  0  0  0  0  0  0  0
    5.9414  -18.3258   24.3401 C   0  0  0  0  0  0  0  0  0  0  0  0
   11.3207  -14.2646   25.5480 O   0  0  0  0  0  0  0  0  0  0  0  0
  2  1  1  1
  3  2  1  0
  3  4  1  0
  4  5  1  0
  5  9  1  0
  5  6  2  0
  7  2  1  0
  7  8  2  0
 10  7  1  0
 11 10  1  0
 12 13  1  0
 12 11  1  0
 13 14  1  0
 14 10  1  0
 15 16  2  0
 14 15  1  1
 18 17  1  0
 19 18  2  0
 20 19  1  0
 21 27  1  0
 21 20  2  0
 23 22  1  6
 22 21  1  0
 23 24  1  0
 24 15  1  0
 25 23  1  0
 26 25  1  0
 27 28  2  0
 28 18  1  0
 29 25  2  0
M  END
$$$$
