EPY.pdb
     RDKit          3D

 29 30  0  0  1  0  0  0  0  0999 V2000
    8.9651  -18.3761   21.5466 N   0  0  0  0  0  0  0  0  0  0  0  0
   10.2422  -17.7518   21.9938 C   0  0  1  0  0  0  0  0  0  0  0  0
   11.1354  -17.8446   20.7730 C   0  0  0  0  0  0  0  0  0  0  0  0
   12.4883  -17.2314   20.9431 C   0  0  0  0  0  0  0  0  0  0  0  0
   13.5517  -18.0741   20.3286 C   0  0  0  0  0  0  0  0  0  0  0  0
   13.3821  -19.3121   20.2878 O   0  0  0  0  0  0  0  0  0  0  0  0
    9.9762  -16.3735   22.4360 C   0  0  0  0  0  0  0  0  0  0  0  0
   10.9621  -15.7769   22.9958 O   0  0  0  0  0  0  0  0  0  0  0  0
   14.7092  -17.5389   19.8068 O   0  0  0  0  0  0  0  0  0  0  0  0
    8.7655  -15.6638   22.3001 N   0  0  0  0  0  0  0  0  0  0  0  0
    7.5720  -16.1067   21.6120 C   0  0  0  0  0  0  0  0  0  0  0  0
    6.8285  -14.8456   21.2271 C   0  0  0  0  0  0  0  0  0  0  0  0
    7.7084  -13.7359   21.7209 C   0  0  0  0  0  0  0  0  0  0  0  0
    8.5115  -14.3275   22.8272 C   0  0  1  0  0  0  0  0  0  0  0  0
    7.8157  -14.3756   24.1348 C   0  0  0  0  0  0  0  0  0  0  0  0
    7.0495  -15.3279   24.4411 O   0  0  0  0  0  0  0  0  0  0  0  0
   11.4270  -17.2953   29.3224 O   0  0  0  0  0  0  0  0  0  0  0  0
   10.6484  -16.2243   28.8480 C   0  0  0  0  0  0  0  0  0  0  0  0
   10.7276  -15.8074   27.5413 C   0  0  0  0  0  0  0  0  0  0  0  0
    9.9715  -14.7546   27.0456 C   0  0  0  0  0  0  0  0  0  0  0  0
    9.1105  -14.1054   27.8991 C   0  0  0  0  0  0  0  0  0  0  0  0
    8.2913  -12.9882   27.4342 C   0  0  0  0  0  0  0  0  0  0  0  0
    7.2814  -13.3483   26.3687 C   0  0  2  0  0  0  0  0  0  0  0  0
    7.9876  -13.3574   25.0813 N   0  0  0  0  0  0  0  0  0  0  0  0
    6.1151  -12.4651   26.3398 C   0  0  0  0  0  0  0  0  0  0  0  0
    5.8888  -11.5798   25.3007 O   0  0  0  0  0  0  0  0  0  0  0  0
    9.0207  -14.5124   29.2115 C   0  0  0  0  0  0  0  0  0  0  0  0
    9.7818  -15.5695   29.7029 C   0  0  0  0  0  0  0  0  0  0  0  0
    5.2693  -12.4823   27.2720 O   0  0  0  0  0  0  0  0  0  0  0  0
  2  1  1  6
  3  2  1  0
  3  4  1  0
  4  5  1  0
  5  9  1  0
  5  6  2  0
  7  2  1  0
  7  8  2  0
 10  7  1  0
 11 10  1  0
 12 13  1  0
 12 11  1  0
 13 14  1  0
 14 10  1  0
 15 16  2  0
 14 15  1  1
 18 17  1  0
 19 18  2  0
 20 19  1  0
 21 27  1  0
 21 20  2  0
 23 22  1  1
 22 21  1  0
 23 24  1  0
 24 15  1  0
 25 23  1  0
 26 25  1  0
 27 28  2  0
 28 18  1  0
 29 25  2  0
M  END
$$$$
