EPY.pdb
     RDKit          3D

 29 30  0  0  1  0  0  0  0  0999 V2000
   11.1288  -17.6159   18.1775 N   0  0  0  0  0  0  0  0  0  0  0  0
    9.7862  -17.7700   18.8056 C   0  0  1  0  0  0  0  0  0  0  0  0
    9.7763  -19.2071   19.2864 C   0  0  0  0  0  0  0  0  0  0  0  0
   10.8777  -19.5537   20.2362 C   0  0  0  0  0  0  0  0  0  0  0  0
   10.7451  -20.9485   20.7417 C   0  0  0  0  0  0  0  0  0  0  0  0
   11.6280  -21.3914   21.5080 O   0  0  0  0  0  0  0  0  0  0  0  0
    9.6415  -16.7784   19.8835 C   0  0  0  0  0  0  0  0  0  0  0  0
   10.7275  -16.2090   20.2546 O   0  0  0  0  0  0  0  0  0  0  0  0
    9.6888  -21.7625   20.3952 O   0  0  0  0  0  0  0  0  0  0  0  0
    8.4450  -16.4030   20.5280 N   0  0  0  0  0  0  0  0  0  0  0  0
    7.1109  -16.8752   20.2258 C   0  0  0  0  0  0  0  0  0  0  0  0
    6.1719  -15.7958   20.7202 C   0  0  0  0  0  0  0  0  0  0  0  0
    7.0843  -14.7356   21.2615 C   0  0  0  0  0  0  0  0  0  0  0  0
    8.3455  -15.4420   21.6210 C   0  0  1  0  0  0  0  0  0  0  0  0
    8.3197  -16.1130   22.9421 C   0  0  0  0  0  0  0  0  0  0  0  0
    8.1309  -17.3541   23.0494 O   0  0  0  0  0  0  0  0  0  0  0  0
    5.4485  -10.6721   26.7380 O   0  0  0  0  0  0  0  0  0  0  0  0
    6.3622  -11.7383   26.6566 C   0  0  0  0  0  0  0  0  0  0  0  0
    6.1537  -12.9116   27.3404 C   0  0  0  0  0  0  0  0  0  0  0  0
    7.0372  -13.9799   27.2786 C   0  0  0  0  0  0  0  0  0  0  0  0
    8.1649  -13.8553   26.5014 C   0  0  0  0  0  0  0  0  0  0  0  0
    9.1324  -14.9458   26.4002 C   0  0  0  0  0  0  0  0  0  0  0  0
    8.7564  -16.0322   25.4188 C   0  0  2  0  0  0  0  0  0  0  0  0
    8.5059  -15.3854   24.1245 N   0  0  0  0  0  0  0  0  0  0  0  0
    7.6173  -16.8446   25.8471 C   0  0  0  0  0  0  0  0  0  0  0  0
    6.3949  -16.7959   25.2005 O   0  0  0  0  0  0  0  0  0  0  0  0
    8.3870  -12.6850   25.8104 C   0  0  0  0  0  0  0  0  0  0  0  0
    7.4967  -11.6168   25.8764 C   0  0  0  0  0  0  0  0  0  0  0  0
    7.7140  -17.6239   26.8310 O   0  0  0  0  0  0  0  0  0  0  0  0
  2  1  1  1
  3  2  1  0
  3  4  1  0
  4  5  1  0
  5  9  1  0
  5  6  2  0
  7  2  1  0
  7  8  2  0
 10  7  1  0
 11 10  1  0
 12 13  1  0
 12 11  1  0
 13 14  1  0
 14 10  1  0
 15 16  2  0
 14 15  1  1
 18 17  1  0
 19 18  2  0
 20 19  1  0
 21 27  1  0
 21 20  2  0
 23 22  1  1
 22 21  1  0
 23 24  1  0
 24 15  1  0
 25 23  1  0
 26 25  1  0
 27 28  2  0
 28 18  1  0
 29 25  2  0
M  END
$$$$
