EPY.pdb
     RDKit          3D

 29 30  0  0  1  0  0  0  0  0999 V2000
    9.9791  -17.0230   17.2507 N   0  0  0  0  0  0  0  0  0  0  0  0
    8.8559  -16.8923   18.2213 C   0  0  1  0  0  0  0  0  0  0  0  0
    8.5069  -18.3268   18.5636 C   0  0  0  0  0  0  0  0  0  0  0  0
    7.0799  -18.6969   18.3150 C   0  0  0  0  0  0  0  0  0  0  0  0
    6.9338  -20.1518   18.0315 C   0  0  0  0  0  0  0  0  0  0  0  0
    7.3969  -20.9694   18.8562 O   0  0  0  0  0  0  0  0  0  0  0  0
    9.3052  -16.0954   19.3742 C   0  0  0  0  0  0  0  0  0  0  0  0
   10.5266  -16.2698   19.7191 O   0  0  0  0  0  0  0  0  0  0  0  0
    6.3095  -20.6246   16.8978 O   0  0  0  0  0  0  0  0  0  0  0  0
    8.5344  -15.1759   20.1147 N   0  0  0  0  0  0  0  0  0  0  0  0
    7.1205  -14.9077   19.9630 C   0  0  0  0  0  0  0  0  0  0  0  0
    6.9086  -13.5082   20.4994 C   0  0  0  0  0  0  0  0  0  0  0  0
    8.2810  -13.0589   20.9045 C   0  0  0  0  0  0  0  0  0  0  0  0
    9.0463  -14.3089   21.1703 C   0  0  1  0  0  0  0  0  0  0  0  0
    8.8255  -14.8913   22.5150 C   0  0  0  0  0  0  0  0  0  0  0  0
    7.8364  -15.6322   22.7601 O   0  0  0  0  0  0  0  0  0  0  0  0
    5.4724  -10.8405   26.9872 O   0  0  0  0  0  0  0  0  0  0  0  0
    6.1414  -11.9927   26.5362 C   0  0  0  0  0  0  0  0  0  0  0  0
    7.4928  -11.9832   26.2888 C   0  0  0  0  0  0  0  0  0  0  0  0
    8.1790  -13.1044   25.8439 C   0  0  0  0  0  0  0  0  0  0  0  0
    7.4751  -14.2687   25.6438 C   0  0  0  0  0  0  0  0  0  0  0  0
    8.1437  -15.4800   25.1736 C   0  0  0  0  0  0  0  0  0  0  0  0
    9.6141  -15.3095   24.8676 C   0  0  2  0  0  0  0  0  0  0  0  0
    9.7153  -14.6363   23.5665 N   0  0  0  0  0  0  0  0  0  0  0  0
   10.3695  -16.5624   24.8887 C   0  0  0  0  0  0  0  0  0  0  0  0
   10.9812  -17.0714   23.7567 O   0  0  0  0  0  0  0  0  0  0  0  0
    6.1200  -14.2929   25.8876 C   0  0  0  0  0  0  0  0  0  0  0  0
    5.4372  -13.1648   26.3340 C   0  0  0  0  0  0  0  0  0  0  0  0
   10.4883  -17.2266   25.9515 O   0  0  0  0  0  0  0  0  0  0  0  0
  2  1  1  6
  3  2  1  0
  3  4  1  0
  4  5  1  0
  5  9  1  0
  5  6  2  0
  7  2  1  0
  7  8  2  0
 10  7  1  0
 11 10  1  0
 12 13  1  0
 12 11  1  0
 13 14  1  0
 14 10  1  0
 15 16  2  0
 14 15  1  1
 18 17  1  0
 19 18  2  0
 20 19  1  0
 21 27  1  0
 21 20  2  0
 23 22  1  6
 22 21  1  0
 23 24  1  0
 24 15  1  0
 25 23  1  0
 26 25  1  0
 27 28  2  0
 28 18  1  0
 29 25  2  0
M  END
$$$$
