EPY.pdb
     RDKit          3D

 29 30  0  0  1  0  0  0  0  0999 V2000
   11.0958  -17.4838   17.9411 N   0  0  0  0  0  0  0  0  0  0  0  0
    9.6861  -17.0680   18.1873 C   0  0  1  0  0  0  0  0  0  0  0  0
    8.9110  -18.3689   18.1264 C   0  0  0  0  0  0  0  0  0  0  0  0
    7.7349  -18.3505   17.2035 C   0  0  0  0  0  0  0  0  0  0  0  0
    6.9905  -19.6401   17.2407 C   0  0  0  0  0  0  0  0  0  0  0  0
    7.6076  -20.6927   16.9686 O   0  0  0  0  0  0  0  0  0  0  0  0
    9.6051  -16.3847   19.4882 C   0  0  0  0  0  0  0  0  0  0  0  0
   10.4719  -16.7534   20.3566 O   0  0  0  0  0  0  0  0  0  0  0  0
    5.6527  -19.7120   17.5627 O   0  0  0  0  0  0  0  0  0  0  0  0
    8.6853  -15.3819   19.8575 N   0  0  0  0  0  0  0  0  0  0  0  0
    7.6830  -14.7693   19.0124 C   0  0  0  0  0  0  0  0  0  0  0  0
    7.3963  -13.4174   19.6300 C   0  0  0  0  0  0  0  0  0  0  0  0
    8.3179  -13.3510   20.8115 C   0  0  0  0  0  0  0  0  0  0  0  0
    8.5976  -14.7675   21.1777 C   0  0  1  0  0  0  0  0  0  0  0  0
    7.5521  -15.4051   22.0123 C   0  0  0  0  0  0  0  0  0  0  0  0
    6.7986  -16.3051   21.5542 O   0  0  0  0  0  0  0  0  0  0  0  0
    5.2583  -10.7296   27.4946 O   0  0  0  0  0  0  0  0  0  0  0  0
    6.1524  -11.6453   26.9112 C   0  0  0  0  0  0  0  0  0  0  0  0
    7.0174  -12.3870   27.6788 C   0  0  0  0  0  0  0  0  0  0  0  0
    7.9097  -13.2978   27.1310 C   0  0  0  0  0  0  0  0  0  0  0  0
    7.9259  -13.4613   25.7657 C   0  0  0  0  0  0  0  0  0  0  0  0
    8.8457  -14.4038   25.1323 C   0  0  0  0  0  0  0  0  0  0  0  0
    8.1763  -15.5713   24.4442 C   0  0  2  0  0  0  0  0  0  0  0  0
    7.3651  -15.0267   23.3479 N   0  0  0  0  0  0  0  0  0  0  0  0
    7.3798  -16.4072   25.3430 C   0  0  0  0  0  0  0  0  0  0  0  0
    6.0070  -16.5238   25.2151 O   0  0  0  0  0  0  0  0  0  0  0  0
    7.0645  -12.7246   24.9837 C   0  0  0  0  0  0  0  0  0  0  0  0
    6.1715  -11.8125   25.5392 C   0  0  0  0  0  0  0  0  0  0  0  0
    7.9253  -17.0554   26.2742 O   0  0  0  0  0  0  0  0  0  0  0  0
  2  1  1  1
  3  2  1  0
  3  4  1  0
  4  5  1  0
  5  9  1  0
  5  6  2  0
  7  2  1  0
  7  8  2  0
 10  7  1  0
 11 10  1  0
 12 13  1  0
 12 11  1  0
 13 14  1  0
 14 10  1  0
 15 16  2  0
 14 15  1  1
 18 17  1  0
 19 18  2  0
 20 19  1  0
 21 27  1  0
 21 20  2  0
 23 22  1  1
 22 21  1  0
 23 24  1  0
 24 15  1  0
 25 23  1  0
 26 25  1  0
 27 28  2  0
 28 18  1  0
 29 25  2  0
M  END
$$$$
