PEW.pdb
     RDKit          3D

 31 33  0  0  1  0  0  0  0  0999 V2000
   24.2429  -17.5191  -15.9437 N   0  0  0  0  0  0  0  0  0  0  0  0
   24.3437  -17.5543  -17.3902 C   0  0  0  0  0  0  0  0  0  0  0  0
   23.4773  -18.6835  -17.8719 C   0  0  0  0  0  0  0  0  0  0  0  0
   23.1599  -19.4341  -16.5953 C   0  0  0  0  0  0  0  0  0  0  0  0
   23.1078  -18.3076  -15.5882 C   0  0  1  0  0  0  0  0  0  0  0  0
   23.0614  -18.7731  -14.2064 C   0  0  0  0  0  0  0  0  0  0  0  0
   21.9324  -18.8833  -13.6456 O   0  0  0  0  0  0  0  0  0  0  0  0
   24.1855  -19.1222  -13.4117 N   0  0  0  0  0  0  0  0  0  0  0  0
   24.1928  -20.2895  -12.5444 C   0  0  1  0  0  0  0  0  0  0  0  0
   23.8401  -21.5474  -13.3028 C   0  0  0  0  0  0  0  0  0  0  0  0
   25.0576  -22.3737  -13.6364 C   0  0  0  0  0  0  0  0  0  0  0  0
   24.6384  -23.7992  -13.6673 C   0  0  0  0  0  0  0  0  0  0  0  0
   23.4631  -24.1761  -13.4382 O   0  0  0  0  0  0  0  0  0  0  0  0
   25.5229  -20.4194  -11.8567 C   0  0  0  0  0  0  0  0  0  0  0  0
   26.6088  -20.4065  -12.5067 O   0  0  0  0  0  0  0  0  0  0  0  0
   25.5781  -24.7771  -13.9622 O   0  0  0  0  0  0  0  0  0  0  0  0
   25.6004  -20.5598  -10.4663 N   0  0  0  0  0  0  0  0  0  0  0  0
   26.8591  -20.4413   -9.6957 C   0  0  1  0  0  0  0  0  0  0  0  0
   26.4084  -20.5420   -8.2619 C   0  0  0  0  0  0  0  0  0  0  0  0
   27.0249  -19.5815   -7.3292 C   0  0  0  0  0  0  0  0  0  0  0  0
   27.0198  -18.1843   -7.4503 C   0  0  0  0  0  0  0  0  0  0  0  0
   27.7035  -17.6269   -6.4417 N   0  0  0  0  0  0  0  0  0  0  0  0
   28.1561  -18.6231   -5.6614 C   0  0  0  0  0  0  0  0  0  0  0  0
   28.9054  -18.5171   -4.4851 C   0  0  0  0  0  0  0  0  0  0  0  0
   29.2446  -19.6818   -3.8344 C   0  0  0  0  0  0  0  0  0  0  0  0
   28.8424  -20.8946   -4.3532 C   0  0  0  0  0  0  0  0  0  0  0  0
   28.1062  -20.9989   -5.5102 C   0  0  0  0  0  0  0  0  0  0  0  0
   27.7573  -19.8365   -6.1774 C   0  0  0  0  0  0  0  0  0  0  0  0
   27.7306  -21.5388  -10.1089 C   0  0  0  0  0  0  0  0  0  0  0  0
   29.1227  -21.4821  -10.0631 O   0  0  0  0  0  0  0  0  0  0  0  0
   27.1971  -22.6149  -10.5437 O   0  0  0  0  0  0  0  0  0  0  0  0
  1  5  1  0
  2  1  1  0
  2  3  1  0
  3  4  1  0
  5  4  1  0
  6  7  2  0
  5  6  1  1
  8  6  1  0
  9  8  1  0
  9 10  1  6
 11 10  1  0
 12 11  1  0
 13 12  2  0
 14  9  1  0
 15 14  2  0
 16 12  1  0
 17 14  1  0
 18 29  1  0
 18 17  1  0
 19 20  1  0
 18 19  1  1
 20 21  2  0
 20 28  1  0
 21 22  1  0
 22 23  1  0
 23 24  2  0
 24 25  1  0
 26 25  2  0
 27 26  1  0
 28 27  2  0
 28 23  1  0
 29 30  1  0
 31 29  2  0
M  END
$$$$
