PEW.pdb
     RDKit          3D

 31 33  0  0  1  0  0  0  0  0999 V2000
   16.7214   -6.4401  -20.7254 N   0  0  0  0  0  0  0  0  0  0  0  0
   15.9346   -6.5292  -21.9405 C   0  0  0  0  0  0  0  0  0  0  0  0
   16.7889   -6.0173  -23.0655 C   0  0  0  0  0  0  0  0  0  0  0  0
   17.9492   -5.3678  -22.3402 C   0  0  0  0  0  0  0  0  0  0  0  0
   18.0794   -6.2562  -21.1236 C   0  0  1  0  0  0  0  0  0  0  0  0
   18.9746   -5.7129  -20.1079 C   0  0  0  0  0  0  0  0  0  0  0  0
   20.2152   -5.6782  -20.3549 O   0  0  0  0  0  0  0  0  0  0  0  0
   18.5800   -5.2082  -18.8404 N   0  0  0  0  0  0  0  0  0  0  0  0
   19.5200   -4.5789  -17.9266 C   0  0  1  0  0  0  0  0  0  0  0  0
   18.9288   -3.3470  -17.2825 C   0  0  0  0  0  0  0  0  0  0  0  0
   18.8970   -2.1691  -18.2247 C   0  0  0  0  0  0  0  0  0  0  0  0
   18.3204   -1.0167  -17.4840 C   0  0  0  0  0  0  0  0  0  0  0  0
   17.9867   -1.0731  -16.2751 O   0  0  0  0  0  0  0  0  0  0  0  0
   19.9844   -5.5674  -16.8941 C   0  0  0  0  0  0  0  0  0  0  0  0
   19.1870   -6.3942  -16.3628 O   0  0  0  0  0  0  0  0  0  0  0  0
   18.1343    0.1900  -18.1438 O   0  0  0  0  0  0  0  0  0  0  0  0
   21.3229   -5.6029  -16.4865 N   0  0  0  0  0  0  0  0  0  0  0  0
   21.8485   -6.5390  -15.4670 C   0  0  1  0  0  0  0  0  0  0  0  0
   22.6017   -7.5609  -16.2779 C   0  0  0  0  0  0  0  0  0  0  0  0
   23.3377   -8.5758  -15.5027 C   0  0  0  0  0  0  0  0  0  0  0  0
   22.8217   -9.3649  -14.4645 C   0  0  0  0  0  0  0  0  0  0  0  0
   23.7787  -10.1562  -13.9612 N   0  0  0  0  0  0  0  0  0  0  0  0
   24.9092   -9.9069  -14.6437 C   0  0  0  0  0  0  0  0  0  0  0  0
   26.1610  -10.5083  -14.4770 C   0  0  0  0  0  0  0  0  0  0  0  0
   27.1809  -10.1064  -15.3095 C   0  0  0  0  0  0  0  0  0  0  0  0
   26.9411   -9.1408  -16.2644 C   0  0  0  0  0  0  0  0  0  0  0  0
   25.7105   -8.5488  -16.4280 C   0  0  0  0  0  0  0  0  0  0  0  0
   24.6738   -8.9416  -15.5979 C   0  0  0  0  0  0  0  0  0  0  0  0
   22.7023   -5.7698  -14.5646 C   0  0  0  0  0  0  0  0  0  0  0  0
   22.9219   -6.1073  -13.2301 O   0  0  0  0  0  0  0  0  0  0  0  0
   23.2816   -4.7231  -15.0124 O   0  0  0  0  0  0  0  0  0  0  0  0
  1  5  1  0
  2  1  1  0
  2  3  1  0
  3  4  1  0
  5  4  1  0
  6  7  2  0
  5  6  1  1
  8  6  1  0
  9  8  1  0
  9 10  1  1
 11 10  1  0
 12 11  1  0
 13 12  2  0
 14  9  1  0
 15 14  2  0
 16 12  1  0
 17 14  1  0
 18 29  1  0
 18 17  1  0
 19 20  1  0
 18 19  1  6
 20 21  2  0
 20 28  1  0
 21 22  1  0
 22 23  1  0
 23 24  2  0
 24 25  1  0
 26 25  2  0
 27 26  1  0
 28 27  2  0
 28 23  1  0
 29 30  1  0
 31 29  2  0
M  END
$$$$
