PEW.pdb
     RDKit          3D

 31 33  0  0  1  0  0  0  0  0999 V2000
   27.2335  -19.2202  -14.3403 N   0  0  0  0  0  0  0  0  0  0  0  0
   28.6597  -19.0458  -14.5377 C   0  0  0  0  0  0  0  0  0  0  0  0
   29.0610  -19.9155  -15.6954 C   0  0  0  0  0  0  0  0  0  0  0  0
   27.8408  -20.7890  -15.9006 C   0  0  0  0  0  0  0  0  0  0  0  0
   26.7249  -19.8426  -15.5195 C   0  0  1  0  0  0  0  0  0  0  0  0
   25.4312  -20.5031  -15.3855 C   0  0  0  0  0  0  0  0  0  0  0  0
   24.9522  -21.0996  -16.3935 O   0  0  0  0  0  0  0  0  0  0  0  0
   24.6392  -20.5424  -14.2072 N   0  0  0  0  0  0  0  0  0  0  0  0
   23.3968  -21.2941  -14.1296 C   0  0  1  0  0  0  0  0  0  0  0  0
   23.4003  -22.2545  -12.9636 C   0  0  0  0  0  0  0  0  0  0  0  0
   24.4516  -23.3267  -13.1099 C   0  0  0  0  0  0  0  0  0  0  0  0
   23.8164  -24.4898  -13.7828 C   0  0  0  0  0  0  0  0  0  0  0  0
   24.4506  -25.5177  -14.1248 O   0  0  0  0  0  0  0  0  0  0  0  0
   22.2238  -20.3568  -14.0633 C   0  0  0  0  0  0  0  0  0  0  0  0
   22.0576  -19.5718  -13.0845 O   0  0  0  0  0  0  0  0  0  0  0  0
   22.4558  -24.4570  -14.0549 O   0  0  0  0  0  0  0  0  0  0  0  0
   21.2732  -20.3241  -15.0901 N   0  0  0  0  0  0  0  0  0  0  0  0
   20.0568  -19.4806  -15.0595 C   0  0  1  0  0  0  0  0  0  0  0  0
   19.7416  -19.2590  -16.5157 C   0  0  0  0  0  0  0  0  0  0  0  0
   18.5181  -18.4858  -16.7944 C   0  0  0  0  0  0  0  0  0  0  0  0
   18.3622  -17.0985  -16.6597 C   0  0  0  0  0  0  0  0  0  0  0  0
   17.1083  -16.7388  -16.9659 N   0  0  0  0  0  0  0  0  0  0  0  0
   16.4379  -17.8549  -17.2989 C   0  0  0  0  0  0  0  0  0  0  0  0
   15.1039  -17.9642  -17.7050 C   0  0  0  0  0  0  0  0  0  0  0  0
   14.6302  -19.2180  -18.0184 C   0  0  0  0  0  0  0  0  0  0  0  0
   15.4704  -20.3075  -17.9241 C   0  0  0  0  0  0  0  0  0  0  0  0
   16.7819  -20.2004  -17.5243 C   0  0  0  0  0  0  0  0  0  0  0  0
   17.2739  -18.9458  -17.2046 C   0  0  0  0  0  0  0  0  0  0  0  0
   19.0225  -20.2290  -14.3489 C   0  0  0  0  0  0  0  0  0  0  0  0
   18.9047  -21.6173  -14.3893 O   0  0  0  0  0  0  0  0  0  0  0  0
   18.1686  -19.5836  -13.6516 O   0  0  0  0  0  0  0  0  0  0  0  0
  1  5  1  0
  2  1  1  0
  2  3  1  0
  3  4  1  0
  5  4  1  0
  6  7  2  0
  5  6  1  1
  8  6  1  0
  9  8  1  0
  9 10  1  1
 11 10  1  0
 12 11  1  0
 13 12  2  0
 14  9  1  0
 15 14  2  0
 16 12  1  0
 17 14  1  0
 18 29  1  0
 18 17  1  0
 19 20  1  0
 18 19  1  6
 20 21  2  0
 20 28  1  0
 21 22  1  0
 22 23  1  0
 23 24  2  0
 24 25  1  0
 26 25  2  0
 27 26  1  0
 28 27  2  0
 28 23  1  0
 29 30  1  0
 31 29  2  0
M  END
$$$$
