PEW.pdb
     RDKit          3D

 31 33  0  0  1  0  0  0  0  0999 V2000
   23.8539  -18.3941  -14.2521 N   0  0  0  0  0  0  0  0  0  0  0  0
   23.1992  -17.5028  -15.1905 C   0  0  0  0  0  0  0  0  0  0  0  0
   22.9395  -18.2868  -16.4458 C   0  0  0  0  0  0  0  0  0  0  0  0
   23.7635  -19.5405  -16.2376 C   0  0  0  0  0  0  0  0  0  0  0  0
   23.6636  -19.7217  -14.7399 C   0  0  1  0  0  0  0  0  0  0  0  0
   24.5806  -20.7302  -14.2201 C   0  0  0  0  0  0  0  0  0  0  0  0
   24.3870  -21.9402  -14.5362 O   0  0  0  0  0  0  0  0  0  0  0  0
   25.6942  -20.4804  -13.3749 N   0  0  0  0  0  0  0  0  0  0  0  0
   26.5829  -21.5400  -12.9253 C   0  0  1  0  0  0  0  0  0  0  0  0
   28.0133  -21.2759  -13.3329 C   0  0  0  0  0  0  0  0  0  0  0  0
   28.1310  -20.8895  -14.7866 C   0  0  0  0  0  0  0  0  0  0  0  0
   28.1426  -19.4050  -14.8574 C   0  0  0  0  0  0  0  0  0  0  0  0
   28.8447  -18.6856  -14.1054 O   0  0  0  0  0  0  0  0  0  0  0  0
   26.4625  -21.7254  -11.4387 C   0  0  0  0  0  0  0  0  0  0  0  0
   26.9650  -22.7288  -10.8534 O   0  0  0  0  0  0  0  0  0  0  0  0
   27.3449  -18.7637  -15.7947 O   0  0  0  0  0  0  0  0  0  0  0  0
   25.7858  -20.7865  -10.6515 N   0  0  0  0  0  0  0  0  0  0  0  0
   25.4809  -20.9825   -9.2160 C   0  0  1  0  0  0  0  0  0  0  0  0
   26.0913  -19.7743   -8.5552 C   0  0  0  0  0  0  0  0  0  0  0  0
   27.4845  -19.9304   -8.0998 C   0  0  0  0  0  0  0  0  0  0  0  0
   28.5545  -20.4335   -8.8540 C   0  0  0  0  0  0  0  0  0  0  0  0
   29.6711  -20.4659   -8.1141 N   0  0  0  0  0  0  0  0  0  0  0  0
   29.3609  -19.9959   -6.8939 C   0  0  0  0  0  0  0  0  0  0  0  0
   30.2130  -19.8313   -5.7969 C   0  0  0  0  0  0  0  0  0  0  0  0
   29.6768  -19.3088   -4.6418 C   0  0  0  0  0  0  0  0  0  0  0  0
   28.3406  -18.9701   -4.6029 C   0  0  0  0  0  0  0  0  0  0  0  0
   27.5024  -19.1324   -5.6812 C   0  0  0  0  0  0  0  0  0  0  0  0
   28.0262  -19.6576   -6.8508 C   0  0  0  0  0  0  0  0  0  0  0  0
   24.0273  -21.0456   -9.0815 C   0  0  0  0  0  0  0  0  0  0  0  0
   23.3727  -21.3865   -7.8991 O   0  0  0  0  0  0  0  0  0  0  0  0
   23.3052  -20.7800  -10.1012 O   0  0  0  0  0  0  0  0  0  0  0  0
  1  5  1  0
  2  1  1  0
  2  3  1  0
  3  4  1  0
  5  4  1  0
  6  7  2  0
  5  6  1  1
  8  6  1  0
  9  8  1  0
  9 10  1  1
 11 10  1  0
 12 11  1  0
 13 12  2  0
 14  9  1  0
 15 14  2  0
 16 12  1  0
 17 14  1  0
 18 29  1  0
 18 17  1  0
 19 20  1  0
 18 19  1  1
 20 21  2  0
 20 28  1  0
 21 22  1  0
 22 23  1  0
 23 24  2  0
 24 25  1  0
 26 25  2  0
 27 26  1  0
 28 27  2  0
 28 23  1  0
 29 30  1  0
 31 29  2  0
M  END
$$$$
