PEW.pdb
     RDKit          3D

 31 33  0  0  1  0  0  0  0  0999 V2000
   28.0558  -20.0340  -16.7700 N   0  0  0  0  0  0  0  0  0  0  0  0
   28.6741  -19.5577  -17.9925 C   0  0  0  0  0  0  0  0  0  0  0  0
   29.1163  -18.1426  -17.7486 C   0  0  0  0  0  0  0  0  0  0  0  0
   28.4272  -17.7931  -16.4459 C   0  0  0  0  0  0  0  0  0  0  0  0
   28.4328  -19.1272  -15.7345 C   0  0  1  0  0  0  0  0  0  0  0  0
   27.5999  -19.1439  -14.5369 C   0  0  0  0  0  0  0  0  0  0  0  0
   27.8612  -18.3229  -13.6101 O   0  0  0  0  0  0  0  0  0  0  0  0
   26.4998  -20.0117  -14.3049 N   0  0  0  0  0  0  0  0  0  0  0  0
   25.5013  -19.7457  -13.2818 C   0  0  1  0  0  0  0  0  0  0  0  0
   24.0993  -19.9418  -13.8093 C   0  0  0  0  0  0  0  0  0  0  0  0
   23.0516  -19.6972  -12.7516 C   0  0  0  0  0  0  0  0  0  0  0  0
   21.7275  -20.0089  -13.3504 C   0  0  0  0  0  0  0  0  0  0  0  0
   21.4535  -19.8059  -14.5585 O   0  0  0  0  0  0  0  0  0  0  0  0
   25.7552  -20.5994  -12.0712 C   0  0  0  0  0  0  0  0  0  0  0  0
   25.9853  -21.8399  -12.1719 O   0  0  0  0  0  0  0  0  0  0  0  0
   20.7316  -20.5519  -12.5507 O   0  0  0  0  0  0  0  0  0  0  0  0
   25.7445  -20.0434  -10.7868 N   0  0  0  0  0  0  0  0  0  0  0  0
   25.8894  -20.8366   -9.5451 C   0  0  1  0  0  0  0  0  0  0  0  0
   27.0253  -20.1608   -8.8226 C   0  0  0  0  0  0  0  0  0  0  0  0
   27.1381  -20.4631   -7.3844 C   0  0  0  0  0  0  0  0  0  0  0  0
   26.2997  -21.3093   -6.6441 C   0  0  0  0  0  0  0  0  0  0  0  0
   26.6729  -21.3252   -5.3574 N   0  0  0  0  0  0  0  0  0  0  0  0
   27.7355  -20.5117   -5.2349 C   0  0  0  0  0  0  0  0  0  0  0  0
   28.4702  -20.2299   -4.0784 C   0  0  0  0  0  0  0  0  0  0  0  0
   29.5420  -19.3739   -4.1929 C   0  0  0  0  0  0  0  0  0  0  0  0
   29.8524  -18.8306   -5.4218 C   0  0  0  0  0  0  0  0  0  0  0  0
   29.1299  -19.1071   -6.5589 C   0  0  0  0  0  0  0  0  0  0  0  0
   28.0478  -19.9661   -6.4606 C   0  0  0  0  0  0  0  0  0  0  0  0
   24.6190  -20.7629   -8.8272 C   0  0  0  0  0  0  0  0  0  0  0  0
   24.1711  -21.7422   -7.9422 O   0  0  0  0  0  0  0  0  0  0  0  0
   23.8649  -19.7496   -9.0181 O   0  0  0  0  0  0  0  0  0  0  0  0
  1  5  1  0
  2  1  1  0
  2  3  1  0
  3  4  1  0
  5  4  1  0
  6  7  2  0
  5  6  1  1
  8  6  1  0
  9  8  1  0
  9 10  1  6
 11 10  1  0
 12 11  1  0
 13 12  2  0
 14  9  1  0
 15 14  2  0
 16 12  1  0
 17 14  1  0
 18 29  1  0
 18 17  1  0
 19 20  1  0
 18 19  1  1
 20 21  2  0
 20 28  1  0
 21 22  1  0
 22 23  1  0
 23 24  2  0
 24 25  1  0
 26 25  2  0
 27 26  1  0
 28 27  2  0
 28 23  1  0
 29 30  1  0
 31 29  2  0
M  END
$$$$
