PEW.pdb
     RDKit          3D

 31 33  0  0  1  0  0  0  0  0999 V2000
   27.9821  -21.4990  -16.4055 N   0  0  0  0  0  0  0  0  0  0  0  0
   28.6364  -21.3523  -17.6915 C   0  0  0  0  0  0  0  0  0  0  0  0
   29.0214  -19.9070  -17.8355 C   0  0  0  0  0  0  0  0  0  0  0  0
   28.2660  -19.2418  -16.7037 C   0  0  0  0  0  0  0  0  0  0  0  0
   28.2845  -20.3264  -15.6504 C   0  0  1  0  0  0  0  0  0  0  0  0
   27.4020  -20.0481  -14.5227 C   0  0  0  0  0  0  0  0  0  0  0  0
   27.5941  -18.9909  -13.8542 O   0  0  0  0  0  0  0  0  0  0  0  0
   26.3242  -20.8668  -14.0924 N   0  0  0  0  0  0  0  0  0  0  0  0
   25.3239  -20.4017  -13.1449 C   0  0  1  0  0  0  0  0  0  0  0  0
   23.9227  -20.6058  -13.6711 C   0  0  0  0  0  0  0  0  0  0  0  0
   22.8733  -20.0973  -12.7137 C   0  0  0  0  0  0  0  0  0  0  0  0
   21.5431  -20.3851  -13.3109 C   0  0  0  0  0  0  0  0  0  0  0  0
   21.2558  -21.4785  -13.8567 O   0  0  0  0  0  0  0  0  0  0  0  0
   25.5129  -21.0755  -11.8148 C   0  0  0  0  0  0  0  0  0  0  0  0
   25.5326  -22.3364  -11.7079 O   0  0  0  0  0  0  0  0  0  0  0  0
   20.5564  -19.4098  -13.2731 O   0  0  0  0  0  0  0  0  0  0  0  0
   25.6740  -20.3224  -10.6461 N   0  0  0  0  0  0  0  0  0  0  0  0
   25.8023  -20.9155   -9.2956 C   0  0  1  0  0  0  0  0  0  0  0  0
   26.6494  -19.9186   -8.5489 C   0  0  0  0  0  0  0  0  0  0  0  0
   26.7929  -20.1586   -7.1017 C   0  0  0  0  0  0  0  0  0  0  0  0
   25.9889  -20.9949   -6.3136 C   0  0  0  0  0  0  0  0  0  0  0  0
   26.3827  -20.9484   -5.0338 N   0  0  0  0  0  0  0  0  0  0  0  0
   27.4253  -20.1035   -4.9624 C   0  0  0  0  0  0  0  0  0  0  0  0
   28.1705  -19.7557   -3.8310 C   0  0  0  0  0  0  0  0  0  0  0  0
   29.2175  -18.8778   -3.9982 C   0  0  0  0  0  0  0  0  0  0  0  0
   29.4940  -18.3777   -5.2533 C   0  0  0  0  0  0  0  0  0  0  0  0
   28.7610  -18.7191   -6.3659 C   0  0  0  0  0  0  0  0  0  0  0  0
   27.7037  -19.6009   -6.2144 C   0  0  0  0  0  0  0  0  0  0  0  0
   24.4546  -21.0569   -8.7493 C   0  0  0  0  0  0  0  0  0  0  0  0
   24.1051  -21.9985   -7.7826 O   0  0  0  0  0  0  0  0  0  0  0  0
   23.5346  -20.2818   -9.1789 O   0  0  0  0  0  0  0  0  0  0  0  0
  1  5  1  0
  2  1  1  0
  2  3  1  0
  3  4  1  0
  5  4  1  0
  6  7  2  0
  5  6  1  1
  8  6  1  0
  9  8  1  0
  9 10  1  6
 11 10  1  0
 12 11  1  0
 13 12  2  0
 14  9  1  0
 15 14  2  0
 16 12  1  0
 17 14  1  0
 18 29  1  0
 18 17  1  0
 19 20  1  0
 18 19  1  1
 20 21  2  0
 20 28  1  0
 21 22  1  0
 22 23  1  0
 23 24  2  0
 24 25  1  0
 26 25  2  0
 27 26  1  0
 28 27  2  0
 28 23  1  0
 29 30  1  0
 31 29  2  0
M  END
$$$$
