PEW.pdb
     RDKit          3D

 31 33  0  0  1  0  0  0  0  0999 V2000
   23.0837  -22.0588  -17.0010 N   0  0  0  0  0  0  0  0  0  0  0  0
   22.5578  -22.3308  -18.3250 C   0  0  0  0  0  0  0  0  0  0  0  0
   23.5874  -23.1442  -19.0572 C   0  0  0  0  0  0  0  0  0  0  0  0
   24.8071  -23.0255  -18.1671 C   0  0  0  0  0  0  0  0  0  0  0  0
   24.1741  -22.9563  -16.7958 C   0  0  1  0  0  0  0  0  0  0  0  0
   25.1164  -22.5864  -15.7454 C   0  0  0  0  0  0  0  0  0  0  0  0
   25.8448  -23.4914  -15.2437 O   0  0  0  0  0  0  0  0  0  0  0  0
   25.2995  -21.2800  -15.2192 N   0  0  0  0  0  0  0  0  0  0  0  0
   26.2739  -20.9894  -14.1797 C   0  0  1  0  0  0  0  0  0  0  0  0
   27.0604  -19.7374  -14.4895 C   0  0  0  0  0  0  0  0  0  0  0  0
   28.0321  -19.9397  -15.6258 C   0  0  0  0  0  0  0  0  0  0  0  0
   28.7068  -18.6394  -15.8769 C   0  0  0  0  0  0  0  0  0  0  0  0
   28.6044  -18.0082  -16.9571 O   0  0  0  0  0  0  0  0  0  0  0  0
   25.5958  -20.8930  -12.8419 C   0  0  0  0  0  0  0  0  0  0  0  0
   24.4220  -20.4342  -12.7257 O   0  0  0  0  0  0  0  0  0  0  0  0
   29.4931  -18.0788  -14.8800 O   0  0  0  0  0  0  0  0  0  0  0  0
   26.2476  -21.3112  -11.6759 N   0  0  0  0  0  0  0  0  0  0  0  0
   25.7253  -21.0749  -10.3109 C   0  0  1  0  0  0  0  0  0  0  0  0
   26.9246  -21.3004   -9.4278 C   0  0  0  0  0  0  0  0  0  0  0  0
   26.8188  -20.7675   -8.0576 C   0  0  0  0  0  0  0  0  0  0  0  0
   25.6749  -20.2097   -7.4682 C   0  0  0  0  0  0  0  0  0  0  0  0
   25.9469  -19.7971   -6.2228 N   0  0  0  0  0  0  0  0  0  0  0  0
   27.2400  -20.0710   -5.9799 C   0  0  0  0  0  0  0  0  0  0  0  0
   27.9604  -19.8320   -4.8050 C   0  0  0  0  0  0  0  0  0  0  0  0
   29.2818  -20.2166   -4.7742 C   0  0  0  0  0  0  0  0  0  0  0  0
   29.8438  -20.8146   -5.8825 C   0  0  0  0  0  0  0  0  0  0  0  0
   29.1357  -21.0490   -7.0380 C   0  0  0  0  0  0  0  0  0  0  0  0
   27.8052  -20.6674   -7.0856 C   0  0  0  0  0  0  0  0  0  0  0  0
   25.2207  -19.7044  -10.2660 C   0  0  0  0  0  0  0  0  0  0  0  0
   25.9341  -18.6004  -10.7301 O   0  0  0  0  0  0  0  0  0  0  0  0
   24.0624  -19.4935   -9.7703 O   0  0  0  0  0  0  0  0  0  0  0  0
  1  5  1  0
  2  1  1  0
  2  3  1  0
  3  4  1  0
  5  4  1  0
  6  7  2  0
  5  6  1  1
  8  6  1  0
  9  8  1  0
  9 10  1  6
 11 10  1  0
 12 11  1  0
 13 12  2  0
 14  9  1  0
 15 14  2  0
 16 12  1  0
 17 14  1  0
 18 29  1  0
 18 17  1  0
 19 20  1  0
 18 19  1  1
 20 21  2  0
 20 28  1  0
 21 22  1  0
 22 23  1  0
 23 24  2  0
 24 25  1  0
 26 25  2  0
 27 26  1  0
 28 27  2  0
 28 23  1  0
 29 30  1  0
 31 29  2  0
M  END
$$$$
