PEW.pdb
     RDKit          3D

 31 33  0  0  1  0  0  0  0  0999 V2000
   24.4481  -14.7325  -18.8238 N   0  0  0  0  0  0  0  0  0  0  0  0
   24.9502  -15.8428  -19.6104 C   0  0  0  0  0  0  0  0  0  0  0  0
   24.8837  -15.4343  -21.0549 C   0  0  0  0  0  0  0  0  0  0  0  0
   24.0370  -14.1792  -21.0124 C   0  0  0  0  0  0  0  0  0  0  0  0
   24.4380  -13.5900  -19.6789 C   0  0  1  0  0  0  0  0  0  0  0  0
   23.5836  -12.4851  -19.2580 C   0  0  0  0  0  0  0  0  0  0  0  0
   23.7255  -11.3635  -19.8266 O   0  0  0  0  0  0  0  0  0  0  0  0
   22.5857  -12.5473  -18.2493 N   0  0  0  0  0  0  0  0  0  0  0  0
   21.6995  -11.4308  -17.9616 C   0  0  1  0  0  0  0  0  0  0  0  0
   20.2865  -11.8962  -17.6994 C   0  0  0  0  0  0  0  0  0  0  0  0
   20.2450  -13.2510  -17.0367 C   0  0  0  0  0  0  0  0  0  0  0  0
   18.8682  -13.4539  -16.5150 C   0  0  0  0  0  0  0  0  0  0  0  0
   18.3213  -12.6762  -15.6952 O   0  0  0  0  0  0  0  0  0  0  0  0
   22.2331  -10.6250  -16.8106 C   0  0  0  0  0  0  0  0  0  0  0  0
   22.6378  -11.1777  -15.7463 O   0  0  0  0  0  0  0  0  0  0  0  0
   18.1346  -14.5515  -16.9433 O   0  0  0  0  0  0  0  0  0  0  0  0
   22.2987   -9.2287  -16.8823 N   0  0  0  0  0  0  0  0  0  0  0  0
   22.8414   -8.3735  -15.8025 C   0  0  1  0  0  0  0  0  0  0  0  0
   23.8621   -7.5180  -16.5062 C   0  0  0  0  0  0  0  0  0  0  0  0
   25.0349   -8.2323  -17.0419 C   0  0  0  0  0  0  0  0  0  0  0  0
   25.5312   -8.1518  -18.3511 C   0  0  0  0  0  0  0  0  0  0  0  0
   26.5893   -8.9605  -18.4986 N   0  0  0  0  0  0  0  0  0  0  0  0
   26.8002   -9.5688  -17.3190 C   0  0  0  0  0  0  0  0  0  0  0  0
   27.8050  -10.4867  -16.9959 C   0  0  0  0  0  0  0  0  0  0  0  0
   27.8414  -10.9697  -15.7074 C   0  0  0  0  0  0  0  0  0  0  0  0
   26.9031  -10.5414  -14.7920 C   0  0  0  0  0  0  0  0  0  0  0  0
   25.9147   -9.6394  -15.1097 C   0  0  0  0  0  0  0  0  0  0  0  0
   25.8638   -9.1443  -16.4022 C   0  0  0  0  0  0  0  0  0  0  0  0
   21.7269   -7.6092  -15.2470 C   0  0  0  0  0  0  0  0  0  0  0  0
   21.8040   -6.8748  -14.0647 O   0  0  0  0  0  0  0  0  0  0  0  0
   20.6115   -7.6113  -15.8696 O   0  0  0  0  0  0  0  0  0  0  0  0
  1  5  1  0
  2  1  1  0
  2  3  1  0
  3  4  1  0
  5  4  1  0
  6  7  2  0
  5  6  1  1
  8  6  1  0
  9  8  1  0
  9 10  1  1
 11 10  1  0
 12 11  1  0
 13 12  2  0
 14  9  1  0
 15 14  2  0
 16 12  1  0
 17 14  1  0
 18 29  1  0
 18 17  1  0
 19 20  1  0
 18 19  1  6
 20 21  2  0
 20 28  1  0
 21 22  1  0
 22 23  1  0
 23 24  2  0
 24 25  1  0
 26 25  2  0
 27 26  1  0
 28 27  2  0
 28 23  1  0
 29 30  1  0
 31 29  2  0
M  END
$$$$
