PEW.pdb
     RDKit          3D

 31 33  0  0  1  0  0  0  0  0999 V2000
   28.2857  -20.8585  -14.7884 N   0  0  0  0  0  0  0  0  0  0  0  0
   28.9483  -20.5573  -16.0429 C   0  0  0  0  0  0  0  0  0  0  0  0
   29.0443  -19.0616  -16.1505 C   0  0  0  0  0  0  0  0  0  0  0  0
   28.1279  -18.5837  -15.0433 C   0  0  0  0  0  0  0  0  0  0  0  0
   28.3195  -19.6661  -14.0052 C   0  0  1  0  0  0  0  0  0  0  0  0
   27.3555  -19.5924  -12.9128 C   0  0  0  0  0  0  0  0  0  0  0  0
   27.2690  -18.5132  -12.2577 O   0  0  0  0  0  0  0  0  0  0  0  0
   26.4852  -20.6377  -12.5039 N   0  0  0  0  0  0  0  0  0  0  0  0
   25.3115  -20.3955  -11.6803 C   0  0  1  0  0  0  0  0  0  0  0  0
   24.0389  -20.7718  -12.4021 C   0  0  0  0  0  0  0  0  0  0  0  0
   22.8057  -20.4106  -11.6116 C   0  0  0  0  0  0  0  0  0  0  0  0
   21.8075  -19.8579  -12.5641 C   0  0  0  0  0  0  0  0  0  0  0  0
   21.1269  -20.5729  -13.3396 O   0  0  0  0  0  0  0  0  0  0  0  0
   25.4342  -21.1234  -10.3712 C   0  0  0  0  0  0  0  0  0  0  0  0
   25.8628  -22.3128  -10.3122 O   0  0  0  0  0  0  0  0  0  0  0  0
   21.6030  -18.4860  -12.6133 O   0  0  0  0  0  0  0  0  0  0  0  0
   25.0753  -20.5025   -9.1692 N   0  0  0  0  0  0  0  0  0  0  0  0
   25.1143  -21.1757   -7.8511 C   0  0  1  0  0  0  0  0  0  0  0  0
   25.3257  -20.0435   -6.8803 C   0  0  0  0  0  0  0  0  0  0  0  0
   26.7221  -19.6065   -6.7022 C   0  0  0  0  0  0  0  0  0  0  0  0
   27.5055  -18.9214   -7.6425 C   0  0  0  0  0  0  0  0  0  0  0  0
   28.7377  -18.7136   -7.1591 N   0  0  0  0  0  0  0  0  0  0  0  0
   28.7823  -19.2441   -5.9251 C   0  0  0  0  0  0  0  0  0  0  0  0
   29.8603  -19.2511   -5.0339 C   0  0  0  0  0  0  0  0  0  0  0  0
   29.6713  -19.8401   -3.8042 C   0  0  0  0  0  0  0  0  0  0  0  0
   28.4471  -20.3948   -3.4949 C   0  0  0  0  0  0  0  0  0  0  0  0
   27.3872  -20.3885   -4.3713 C   0  0  0  0  0  0  0  0  0  0  0  0
   27.5613  -19.8004   -5.6131 C   0  0  0  0  0  0  0  0  0  0  0  0
   23.8374  -21.8630   -7.6723 C   0  0  0  0  0  0  0  0  0  0  0  0
   23.6132  -22.8424   -6.7060 O   0  0  0  0  0  0  0  0  0  0  0  0
   22.8652  -21.5607   -8.4438 O   0  0  0  0  0  0  0  0  0  0  0  0
  1  5  1  0
  2  1  1  0
  2  3  1  0
  3  4  1  0
  5  4  1  0
  6  7  2  0
  5  6  1  1
  8  6  1  0
  9  8  1  0
  9 10  1  6
 11 10  1  0
 12 11  1  0
 13 12  2  0
 14  9  1  0
 15 14  2  0
 16 12  1  0
 17 14  1  0
 18 29  1  0
 18 17  1  0
 19 20  1  0
 18 19  1  1
 20 21  2  0
 20 28  1  0
 21 22  1  0
 22 23  1  0
 23 24  2  0
 24 25  1  0
 26 25  2  0
 27 26  1  0
 28 27  2  0
 28 23  1  0
 29 30  1  0
 31 29  2  0
M  END
$$$$
