HML.pdb
     RDKit          3D

 27 27  0  0  1  0  0  0  0  0999 V2000
   16.5089  -10.1206  -17.3532 N   0  0  0  0  0  0  0  0  0  0  0  0
   16.4855   -9.7061  -15.9858 C   0  0  1  0  0  0  0  0  0  0  0  0
   17.1149  -10.7807  -15.1187 C   0  0  0  0  0  0  0  0  0  0  0  0
   16.4075  -12.0724  -15.2706 C   0  0  0  0  0  0  0  0  0  0  0  0
   15.1063  -12.3376  -14.9709 C   0  0  0  0  0  0  0  0  0  0  0  0
   14.9087  -13.6319  -15.2734 N   0  0  0  0  0  0  0  0  0  0  0  0
   16.0513  -14.1703  -15.7508 C   0  0  0  0  0  0  0  0  0  0  0  0
   16.9744  -13.1922  -15.7440 N   0  0  0  0  0  0  0  0  0  0  0  0
   17.0976   -8.3809  -15.7538 C   0  0  0  0  0  0  0  0  0  0  0  0
   18.1877   -8.1171  -16.2899 O   0  0  0  0  0  0  0  0  0  0  0  0
   14.1166   -5.6006  -18.7480 C   0  0  0  0  0  0  0  0  0  0  0  0
   14.3844   -4.4199  -17.3757 S   0  0  0  0  0  0  0  0  0  0  0  0
   16.0222   -4.7437  -16.7047 C   0  0  0  0  0  0  0  0  0  0  0  0
   16.0019   -5.0138  -15.2366 C   0  0  0  0  0  0  0  0  0  0  0  0
   16.9527   -6.0652  -14.7857 C   0  0  2  0  0  0  0  0  0  0  0  0
   16.4678   -7.4048  -14.9316 N   0  0  0  0  0  0  0  0  0  0  0  0
   17.4760   -5.7850  -13.4171 C   0  0  0  0  0  0  0  0  0  0  0  0
   17.9852   -4.6911  -13.0681 O   0  0  0  0  0  0  0  0  0  0  0  0
   21.6739   -7.3695  -12.2428 C   0  0  0  0  0  0  0  0  0  0  0  0
   20.1807   -7.5762  -12.0500 C   0  0  1  0  0  0  0  0  0  0  0  0
   20.0635   -8.8278  -11.1887 C   0  0  0  0  0  0  0  0  0  0  0  0
   19.5435   -6.3931  -11.3792 C   0  0  0  0  0  0  0  0  0  0  0  0
   18.0797   -6.6531  -11.1686 C   0  0  2  0  0  0  0  0  0  0  0  0
   17.3959   -6.8081  -12.4473 N   0  0  0  0  0  0  0  0  0  0  0  0
   17.3755   -5.6360  -10.4076 C   0  0  0  0  0  0  0  0  0  0  0  0
   16.6329   -4.7963  -11.0304 O   0  0  0  0  0  0  0  0  0  0  0  0
   17.4201   -5.4702   -9.0423 O   0  0  0  0  0  0  0  0  0  0  0  0
  2  9  1  0
  2  3  1  0
  2  1  1  6
  3  4  1  0
  4  5  2  0
  4  8  1  0
  5  6  1  0
  6  7  1  0
  8  7  2  0
  9 10  2  0
 11 12  1  0
 13 12  1  0
 14 13  1  0
 15 14  1  1
 15 17  1  0
 16 15  1  0
 16  9  1  0
 17 24  1  0
 17 18  2  0
 20 19  1  1
 20 21  1  0
 22 20  1  0
 23 22  1  6
 24 23  1  0
 25 27  1  0
 25 23  1  0
 26 25  2  0
M  END
$$$$
