HML.pdb
     RDKit          3D

 27 27  0  0  1  0  0  0  0  0999 V2000
   27.7832  -20.8245  -14.0424 N   0  0  0  0  0  0  0  0  0  0  0  0
   27.2650  -19.9208  -13.0642 C   0  0  1  0  0  0  0  0  0  0  0  0
   26.1723  -19.0713  -13.6862 C   0  0  0  0  0  0  0  0  0  0  0  0
   26.7204  -18.1756  -14.7299 C   0  0  0  0  0  0  0  0  0  0  0  0
   27.5915  -17.1444  -14.5539 C   0  0  0  0  0  0  0  0  0  0  0  0
   27.8075  -16.6244  -15.7740 N   0  0  0  0  0  0  0  0  0  0  0  0
   27.0941  -17.3065  -16.6955 C   0  0  0  0  0  0  0  0  0  0  0  0
   26.4233  -18.2669  -16.0348 N   0  0  0  0  0  0  0  0  0  0  0  0
   26.8109  -20.5820  -11.8227 C   0  0  0  0  0  0  0  0  0  0  0  0
   26.1441  -21.6278  -11.9048 O   0  0  0  0  0  0  0  0  0  0  0  0
   28.9782  -20.0300   -5.4570 C   0  0  0  0  0  0  0  0  0  0  0  0
   27.1788  -19.7132   -5.3542 S   0  0  0  0  0  0  0  0  0  0  0  0
   26.4281  -20.4130   -6.8321 C   0  0  0  0  0  0  0  0  0  0  0  0
   27.0385  -19.8934   -8.0914 C   0  0  0  0  0  0  0  0  0  0  0  0
   26.4379  -20.4327   -9.3410 C   0  0  2  0  0  0  0  0  0  0  0  0
   27.1192  -20.0475  -10.5402 N   0  0  0  0  0  0  0  0  0  0  0  0
   24.9695  -20.1769   -9.4019 C   0  0  0  0  0  0  0  0  0  0  0  0
   24.4594  -19.0543   -9.6415 O   0  0  0  0  0  0  0  0  0  0  0  0
   22.1380  -21.8000  -13.0366 C   0  0  0  0  0  0  0  0  0  0  0  0
   22.5266  -21.0392  -11.7798 C   0  0  1  0  0  0  0  0  0  0  0  0
   21.7770  -19.7156  -11.8720 C   0  0  0  0  0  0  0  0  0  0  0  0
   22.1449  -21.7947  -10.5391 C   0  0  0  0  0  0  0  0  0  0  0  0
   22.6528  -21.0717   -9.3250 C   0  0  2  0  0  0  0  0  0  0  0  0
   24.0915  -21.2600   -9.1788 N   0  0  0  0  0  0  0  0  0  0  0  0
   22.0245  -21.4526   -8.0721 C   0  0  0  0  0  0  0  0  0  0  0  0
   22.6897  -22.1566   -7.2316 O   0  0  0  0  0  0  0  0  0  0  0  0
   20.7475  -21.1280   -7.6750 O   0  0  0  0  0  0  0  0  0  0  0  0
  2  9  1  0
  2  3  1  0
  2  1  1  6
  3  4  1  0
  4  5  2  0
  4  8  1  0
  5  6  1  0
  6  7  1  0
  8  7  2  0
  9 10  2  0
 11 12  1  0
 13 12  1  0
 14 13  1  0
 15 14  1  1
 15 17  1  0
 16 15  1  0
 16  9  1  0
 17 24  1  0
 17 18  2  0
 20 19  1  6
 20 21  1  0
 22 20  1  0
 23 22  1  6
 24 23  1  0
 25 27  1  0
 25 23  1  0
 26 25  2  0
M  END
$$$$
