HML.pdb
     RDKit          3D

 27 27  0  0  1  0  0  0  0  0999 V2000
   27.5590  -33.6478  -21.1804 N   0  0  0  0  0  0  0  0  0  0  0  0
   26.7639  -32.8511  -20.3001 C   0  0  1  0  0  0  0  0  0  0  0  0
   25.2932  -33.1036  -20.5757 C   0  0  0  0  0  0  0  0  0  0  0  0
   24.9185  -32.6505  -21.9345 C   0  0  0  0  0  0  0  0  0  0  0  0
   24.5531  -33.4295  -22.9895 C   0  0  0  0  0  0  0  0  0  0  0  0
   24.3019  -32.5882  -24.0067 N   0  0  0  0  0  0  0  0  0  0  0  0
   24.5025  -31.3139  -23.6074 C   0  0  0  0  0  0  0  0  0  0  0  0
   24.8851  -31.3659  -22.3192 N   0  0  0  0  0  0  0  0  0  0  0  0
   27.0962  -33.0291  -18.8709 C   0  0  0  0  0  0  0  0  0  0  0  0
   27.4078  -34.1600  -18.4598 O   0  0  0  0  0  0  0  0  0  0  0  0
   31.8564  -31.2901  -17.2387 C   0  0  0  0  0  0  0  0  0  0  0  0
   30.0720  -31.6962  -17.2276 S   0  0  0  0  0  0  0  0  0  0  0  0
   29.3123  -30.7284  -15.9147 C   0  0  0  0  0  0  0  0  0  0  0  0
   27.8251  -30.8554  -15.8899 C   0  0  0  0  0  0  0  0  0  0  0  0
   27.2953  -32.0774  -16.5524 C   0  0  2  0  0  0  0  0  0  0  0  0
   27.0659  -31.9369  -17.9590 N   0  0  0  0  0  0  0  0  0  0  0  0
   26.1158  -32.6309  -15.8260 C   0  0  0  0  0  0  0  0  0  0  0  0
   24.9749  -32.7648  -16.3341 O   0  0  0  0  0  0  0  0  0  0  0  0
   22.9040  -35.5414  -16.1652 C   0  0  0  0  0  0  0  0  0  0  0  0
   23.4124  -34.4058  -15.2927 C   0  0  1  0  0  0  0  0  0  0  0  0
   22.2489  -34.0662  -14.3691 C   0  0  0  0  0  0  0  0  0  0  0  0
   24.6267  -34.8151  -14.5092 C   0  0  0  0  0  0  0  0  0  0  0  0
   25.1714  -33.6343  -13.7584 C   0  0  2  0  0  0  0  0  0  0  0  0
   26.2850  -33.0332  -14.4832 N   0  0  0  0  0  0  0  0  0  0  0  0
   25.6208  -33.9165  -12.4063 C   0  0  0  0  0  0  0  0  0  0  0  0
   24.7506  -34.2022  -11.5088 O   0  0  0  0  0  0  0  0  0  0  0  0
   26.9254  -33.9107  -11.9688 O   0  0  0  0  0  0  0  0  0  0  0  0
  2  9  1  0
  2  3  1  0
  2  1  1  6
  3  4  1  0
  4  5  2  0
  4  8  1  0
  5  6  1  0
  6  7  1  0
  8  7  2  0
  9 10  2  0
 11 12  1  0
 13 12  1  0
 14 13  1  0
 15 14  1  1
 15 17  1  0
 16 15  1  0
 16  9  1  0
 17 24  1  0
 17 18  2  0
 20 19  1  6
 20 21  1  0
 22 20  1  0
 23 22  1  6
 24 23  1  0
 25 27  1  0
 25 23  1  0
 26 25  2  0
M  END
$$$$
