HML.pdb
     RDKit          3D

 27 27  0  0  1  0  0  0  0  0999 V2000
   27.6789  -19.3508  -16.7157 N   0  0  0  0  0  0  0  0  0  0  0  0
   26.9873  -18.6394  -15.6873 C   0  0  1  0  0  0  0  0  0  0  0  0
   26.1937  -17.5017  -16.3024 C   0  0  0  0  0  0  0  0  0  0  0  0
   27.0866  -16.5243  -16.9653 C   0  0  0  0  0  0  0  0  0  0  0  0
   27.8783  -15.5942  -16.3641 C   0  0  0  0  0  0  0  0  0  0  0  0
   28.5066  -14.9401  -17.3557 N   0  0  0  0  0  0  0  0  0  0  0  0
   28.1238  -15.4415  -18.5496 C   0  0  0  0  0  0  0  0  0  0  0  0
   27.2421  -16.4243  -18.2940 N   0  0  0  0  0  0  0  0  0  0  0  0
   26.1450  -19.4997  -14.8300 C   0  0  0  0  0  0  0  0  0  0  0  0
   25.4670  -20.3984  -15.3571 O   0  0  0  0  0  0  0  0  0  0  0  0
   24.2364  -21.9440   -7.5510 C   0  0  0  0  0  0  0  0  0  0  0  0
   25.3135  -20.8084   -8.4991 S   0  0  0  0  0  0  0  0  0  0  0  0
   24.8392  -20.9427  -10.2296 C   0  0  0  0  0  0  0  0  0  0  0  0
   25.6544  -20.0664  -11.1217 C   0  0  0  0  0  0  0  0  0  0  0  0
   25.2585  -20.0999  -12.5552 C   0  0  2  0  0  0  0  0  0  0  0  0
   26.0934  -19.3205  -13.4191 N   0  0  0  0  0  0  0  0  0  0  0  0
   23.8069  -19.8056  -12.7332 C   0  0  0  0  0  0  0  0  0  0  0  0
   23.3215  -18.6475  -12.7625 O   0  0  0  0  0  0  0  0  0  0  0  0
   20.9179  -22.3293  -16.4167 C   0  0  0  0  0  0  0  0  0  0  0  0
   21.4062  -21.3057  -15.4052 C   0  0  1  0  0  0  0  0  0  0  0  0
   20.8800  -19.9682  -15.9116 C   0  0  0  0  0  0  0  0  0  0  0  0
   20.8915  -21.6056  -14.0265 C   0  0  0  0  0  0  0  0  0  0  0  0
   21.4883  -20.6449  -13.0389 C   0  0  2  0  0  0  0  0  0  0  0  0
   22.9168  -20.8918  -12.8802 N   0  0  0  0  0  0  0  0  0  0  0  0
   20.8841  -20.6627  -11.7181 C   0  0  0  0  0  0  0  0  0  0  0  0
   21.3679  -21.4439  -10.8236 O   0  0  0  0  0  0  0  0  0  0  0  0
   19.8111  -19.9050  -11.3082 O   0  0  0  0  0  0  0  0  0  0  0  0
  2  9  1  0
  2  3  1  0
  2  1  1  6
  3  4  1  0
  4  5  2  0
  4  8  1  0
  5  6  1  0
  6  7  1  0
  8  7  2  0
  9 10  2  0
 11 12  1  0
 13 12  1  0
 14 13  1  0
 15 14  1  1
 15 17  1  0
 16 15  1  0
 16  9  1  0
 17 24  1  0
 17 18  2  0
 20 19  1  6
 20 21  1  0
 22 20  1  0
 23 22  1  6
 24 23  1  0
 25 27  1  0
 25 23  1  0
 26 25  2  0
M  END
$$$$
