HML.pdb
     RDKit          3D

 27 27  0  0  1  0  0  0  0  0999 V2000
   17.1664  -10.5311  -15.4547 N   0  0  0  0  0  0  0  0  0  0  0  0
   17.9374   -9.7863  -16.3996 C   0  0  1  0  0  0  0  0  0  0  0  0
   17.0106   -8.9619  -17.2739 C   0  0  0  0  0  0  0  0  0  0  0  0
   16.2379   -9.8247  -18.1962 C   0  0  0  0  0  0  0  0  0  0  0  0
   14.9716  -10.2917  -18.0184 C   0  0  0  0  0  0  0  0  0  0  0  0
   14.6868  -11.0253  -19.1076 N   0  0  0  0  0  0  0  0  0  0  0  0
   15.7420  -11.0229  -19.9502 C   0  0  0  0  0  0  0  0  0  0  0  0
   16.6986  -10.2742  -19.3731 N   0  0  0  0  0  0  0  0  0  0  0  0
   18.9971   -8.9593  -15.7850 C   0  0  0  0  0  0  0  0  0  0  0  0
   18.8156   -8.4934  -14.6469 O   0  0  0  0  0  0  0  0  0  0  0  0
   24.8300  -10.5566  -15.3224 C   0  0  0  0  0  0  0  0  0  0  0  0
   25.2463   -8.7821  -15.1588 S   0  0  0  0  0  0  0  0  0  0  0  0
   23.7000   -7.8636  -15.2144 C   0  0  0  0  0  0  0  0  0  0  0  0
   22.5815   -8.6511  -15.8121 C   0  0  0  0  0  0  0  0  0  0  0  0
   21.2859   -7.9249  -15.8948 C   0  0  2  0  0  0  0  0  0  0  0  0
   20.2158   -8.6854  -16.4670 N   0  0  0  0  0  0  0  0  0  0  0  0
   21.4453   -6.5833  -16.5273 C   0  0  0  0  0  0  0  0  0  0  0  0
   21.7023   -6.4041  -17.7436 O   0  0  0  0  0  0  0  0  0  0  0  0
   18.4566   -2.2802  -16.5845 C   0  0  0  0  0  0  0  0  0  0  0  0
   18.9754   -3.7059  -16.4974 C   0  0  1  0  0  0  0  0  0  0  0  0
   17.8657   -4.5667  -17.0890 C   0  0  0  0  0  0  0  0  0  0  0  0
   20.2580   -3.8723  -17.2609 C   0  0  0  0  0  0  0  0  0  0  0  0
   21.3929   -4.1090  -16.3065 C   0  0  2  0  0  0  0  0  0  0  0  0
   21.2979   -5.4383  -15.7143 N   0  0  0  0  0  0  0  0  0  0  0  0
   21.5002   -3.1462  -15.2243 C   0  0  0  0  0  0  0  0  0  0  0  0
   21.3543   -3.5501  -14.0160 O   0  0  0  0  0  0  0  0  0  0  0  0
   21.7507   -1.8000  -15.3600 O   0  0  0  0  0  0  0  0  0  0  0  0
  2  9  1  0
  2  3  1  0
  2  1  1  1
  3  4  1  0
  4  5  2  0
  4  8  1  0
  5  6  1  0
  6  7  1  0
  8  7  2  0
  9 10  2  0
 11 12  1  0
 13 12  1  0
 14 13  1  0
 15 14  1  6
 15 17  1  0
 16 15  1  0
 16  9  1  0
 17 24  1  0
 17 18  2  0
 20 19  1  6
 20 21  1  0
 22 20  1  0
 23 22  1  1
 24 23  1  0
 25 27  1  0
 25 23  1  0
 26 25  2  0
M  END
$$$$
