HML.pdb
     RDKit          3D

 27 27  0  0  1  0  0  0  0  0999 V2000
   21.4235  -19.7802  -15.0694 N   0  0  0  0  0  0  0  0  0  0  0  0
   21.1314  -18.7302  -15.9937 C   0  0  1  0  0  0  0  0  0  0  0  0
   19.6853  -18.8358  -16.4416 C   0  0  0  0  0  0  0  0  0  0  0  0
   19.4523  -20.0818  -17.2066 C   0  0  0  0  0  0  0  0  0  0  0  0
   19.0185  -21.2767  -16.7196 C   0  0  0  0  0  0  0  0  0  0  0  0
   18.9526  -22.1086  -17.7729 N   0  0  0  0  0  0  0  0  0  0  0  0
   19.3336  -21.4592  -18.8939 C   0  0  0  0  0  0  0  0  0  0  0  0
   19.6415  -20.2019  -18.5292 N   0  0  0  0  0  0  0  0  0  0  0  0
   21.4545  -17.3807  -15.4849 C   0  0  0  0  0  0  0  0  0  0  0  0
   21.2632  -17.1267  -14.2831 O   0  0  0  0  0  0  0  0  0  0  0  0
   26.8039  -15.4203  -16.7604 C   0  0  0  0  0  0  0  0  0  0  0  0
   26.3955  -15.4198  -14.9764 S   0  0  0  0  0  0  0  0  0  0  0  0
   24.6126  -15.6181  -14.8368 C   0  0  0  0  0  0  0  0  0  0  0  0
   23.8638  -14.8654  -15.8861 C   0  0  0  0  0  0  0  0  0  0  0  0
   22.3919  -15.0804  -15.8732 C   0  0  2  0  0  0  0  0  0  0  0  0
   21.9772  -16.3695  -16.3391 N   0  0  0  0  0  0  0  0  0  0  0  0
   21.6655  -13.9621  -16.5417 C   0  0  0  0  0  0  0  0  0  0  0  0
   21.5062  -13.8687  -17.7842 O   0  0  0  0  0  0  0  0  0  0  0  0
   16.9538  -11.7275  -14.9431 C   0  0  0  0  0  0  0  0  0  0  0  0
   18.1550  -12.1871  -15.7526 C   0  0  1  0  0  0  0  0  0  0  0  0
   17.6918  -12.1470  -17.2038 C   0  0  0  0  0  0  0  0  0  0  0  0
   19.3405  -11.2908  -15.5354 C   0  0  0  0  0  0  0  0  0  0  0  0
   20.5025  -11.7744  -16.3543 C   0  0  2  0  0  0  0  0  0  0  0  0
   21.1185  -12.9415  -15.7337 N   0  0  0  0  0  0  0  0  0  0  0  0
   21.5458  -10.7908  -16.5862 C   0  0  0  0  0  0  0  0  0  0  0  0
   22.5768  -10.7864  -15.8236 O   0  0  0  0  0  0  0  0  0  0  0  0
   21.5480   -9.8294  -17.5707 O   0  0  0  0  0  0  0  0  0  0  0  0
  2  9  1  0
  2  3  1  0
  2  1  1  1
  3  4  1  0
  4  5  2  0
  4  8  1  0
  5  6  1  0
  6  7  1  0
  8  7  2  0
  9 10  2  0
 11 12  1  0
 13 12  1  0
 14 13  1  0
 15 14  1  6
 15 17  1  0
 16 15  1  0
 16  9  1  0
 17 24  1  0
 17 18  2  0
 20 19  1  1
 20 21  1  0
 22 20  1  0
 23 22  1  1
 24 23  1  0
 25 27  1  0
 25 23  1  0
 26 25  2  0
M  END
$$$$
