HML.pdb
     RDKit          3D

 27 27  0  0  1  0  0  0  0  0999 V2000
   21.1925  -22.3315  -18.8534 N   0  0  0  0  0  0  0  0  0  0  0  0
   20.7048  -21.7445  -17.6453 C   0  0  1  0  0  0  0  0  0  0  0  0
   19.8889  -22.7677  -16.8770 C   0  0  0  0  0  0  0  0  0  0  0  0
   18.6240  -23.0800  -17.5803 C   0  0  0  0  0  0  0  0  0  0  0  0
   18.2813  -24.2569  -18.1724 C   0  0  0  0  0  0  0  0  0  0  0  0
   17.0484  -24.0776  -18.6760 N   0  0  0  0  0  0  0  0  0  0  0  0
   16.6231  -22.8238  -18.4103 C   0  0  0  0  0  0  0  0  0  0  0  0
   17.6102  -22.2144  -17.7299 N   0  0  0  0  0  0  0  0  0  0  0  0
   21.7613  -21.1392  -16.8075 C   0  0  0  0  0  0  0  0  0  0  0  0
   22.8660  -21.7036  -16.7276 O   0  0  0  0  0  0  0  0  0  0  0  0
   26.3908  -17.1660  -14.5243 C   0  0  0  0  0  0  0  0  0  0  0  0
   24.8390  -16.7305  -15.3911 S   0  0  0  0  0  0  0  0  0  0  0  0
   23.4761  -17.2002  -14.3145 C   0  0  0  0  0  0  0  0  0  0  0  0
   22.3590  -17.8613  -15.0517 C   0  0  0  0  0  0  0  0  0  0  0  0
   22.5200  -19.3285  -15.2371 C   0  0  2  0  0  0  0  0  0  0  0  0
   21.5406  -19.9288  -16.0922 N   0  0  0  0  0  0  0  0  0  0  0  0
   22.6609  -20.0368  -13.9318 C   0  0  0  0  0  0  0  0  0  0  0  0
   21.7183  -20.6218  -13.3425 O   0  0  0  0  0  0  0  0  0  0  0  0
   27.9128  -20.7634  -12.2104 C   0  0  0  0  0  0  0  0  0  0  0  0
   26.4657  -20.9254  -12.6450 C   0  0  1  0  0  0  0  0  0  0  0  0
   26.3319  -22.3931  -13.0328 C   0  0  0  0  0  0  0  0  0  0  0  0
   25.5154  -20.5667  -11.5387 C   0  0  0  0  0  0  0  0  0  0  0  0
   24.0990  -20.7032  -12.0183 C   0  0  2  0  0  0  0  0  0  0  0  0
   23.9307  -20.0568  -13.3147 N   0  0  0  0  0  0  0  0  0  0  0  0
   23.0894  -20.1701  -11.1206 C   0  0  0  0  0  0  0  0  0  0  0  0
   22.4870  -19.0832  -11.4375 O   0  0  0  0  0  0  0  0  0  0  0  0
   22.6948  -20.7248   -9.9247 O   0  0  0  0  0  0  0  0  0  0  0  0
  2  9  1  0
  2  3  1  0
  2  1  1  6
  3  4  1  0
  4  5  2  0
  4  8  1  0
  5  6  1  0
  6  7  1  0
  8  7  2  0
  9 10  2  0
 11 12  1  0
 13 12  1  0
 14 13  1  0
 15 14  1  1
 15 17  1  0
 16 15  1  0
 16  9  1  0
 17 24  1  0
 17 18  2  0
 20 19  1  1
 20 21  1  0
 22 20  1  0
 23 22  1  1
 24 23  1  0
 25 27  1  0
 25 23  1  0
 26 25  2  0
M  END
$$$$
