WEP.pdb
     RDKit          3D

 31 33  0  0  1  0  0  0  0  0999 V2000
    5.5099  -18.2206   21.8277 N   0  0  0  0  0  0  0  0  0  0  0  0
    6.4209  -17.2244   22.2942 C   0  0  1  0  0  0  0  0  0  0  0  0
    5.9741  -15.8199   21.8680 C   0  0  0  0  0  0  0  0  0  0  0  0
    6.6994  -15.3396   20.6841 C   0  0  0  0  0  0  0  0  0  0  0  0
    6.8028  -15.9917   19.4535 C   0  0  0  0  0  0  0  0  0  0  0  0
    7.5123  -15.2206   18.6206 N   0  0  0  0  0  0  0  0  0  0  0  0
    7.8824  -14.0853   19.2533 C   0  0  0  0  0  0  0  0  0  0  0  0
    8.6099  -12.9787   18.8742 C   0  0  0  0  0  0  0  0  0  0  0  0
    8.8618  -11.9378   19.7165 C   0  0  0  0  0  0  0  0  0  0  0  0
    8.3575  -12.0220   20.9889 C   0  0  0  0  0  0  0  0  0  0  0  0
    7.6192  -13.1044   21.4315 C   0  0  0  0  0  0  0  0  0  0  0  0
    7.3726  -14.1575   20.5527 C   0  0  0  0  0  0  0  0  0  0  0  0
    6.6166  -17.2528   23.7660 C   0  0  0  0  0  0  0  0  0  0  0  0
    5.7150  -16.7520   24.5083 O   0  0  0  0  0  0  0  0  0  0  0  0
    7.7352  -17.8003   24.4273 N   0  0  0  0  0  0  0  0  0  0  0  0
    7.9301  -17.6478   25.8473 C   0  0  1  0  0  0  0  0  0  0  0  0
    7.8572  -19.0325   26.4373 C   0  0  0  0  0  0  0  0  0  0  0  0
    7.9929  -19.1061   27.9142 C   0  0  0  0  0  0  0  0  0  0  0  0
    8.7385  -20.2601   28.4290 C   0  0  0  0  0  0  0  0  0  0  0  0
    9.6482  -20.0228   29.2662 O   0  0  0  0  0  0  0  0  0  0  0  0
    9.1083  -16.8741   26.2454 C   0  0  0  0  0  0  0  0  0  0  0  0
   10.2190  -17.3122   25.7908 O   0  0  0  0  0  0  0  0  0  0  0  0
    8.5446  -21.5835   28.0885 O   0  0  0  0  0  0  0  0  0  0  0  0
    9.1203  -15.7121   27.0685 N   0  0  0  0  0  0  0  0  0  0  0  0
    8.0251  -14.9922   27.6491 C   0  0  0  0  0  0  0  0  0  0  0  0
    8.6818  -14.1472   28.7166 C   0  0  0  0  0  0  0  0  0  0  0  0
    9.9331  -13.6942   27.9865 C   0  0  0  0  0  0  0  0  0  0  0  0
   10.3809  -15.0503   27.4349 C   0  0  1  0  0  0  0  0  0  0  0  0
   11.0517  -15.8430   28.4950 C   0  0  0  0  0  0  0  0  0  0  0  0
   10.5384  -16.8494   29.0415 O   0  0  0  0  0  0  0  0  0  0  0  0
   12.3167  -15.4788   28.9262 O   0  0  0  0  0  0  0  0  0  0  0  0
  2  1  1  1
  2  3  1  0
  2 13  1  0
  3  4  1  0
  4  5  2  0
  5  6  1  0
  7  6  1  0
  8  7  2  0
  9  8  1  0
 10 11  1  0
 10  9  2  0
 11 12  2  0
 12  4  1  0
 12  7  1  0
 13 15  1  0
 13 14  2  0
 15 16  1  0
 16 17  1  1
 17 18  1  0
 18 19  1  0
 19 23  1  0
 20 19  2  0
 21 16  1  0
 21 22  2  0
 24 21  1  0
 25 24  1  0
 26 27  1  0
 26 25  1  0
 27 28  1  0
 28 24  1  0
 28 29  1  1
 29 31  1  0
 30 29  2  0
M  END
$$$$
