WEP.pdb
     RDKit          3D

 31 33  0  0  1  0  0  0  0  0999 V2000
    6.2322  -17.4133   24.7566 N   0  0  0  0  0  0  0  0  0  0  0  0
    7.4772  -16.7591   24.5079 C   0  0  1  0  0  0  0  0  0  0  0  0
    7.9724  -16.0146   25.7547 C   0  0  0  0  0  0  0  0  0  0  0  0
    7.1312  -14.8555   26.0824 C   0  0  0  0  0  0  0  0  0  0  0  0
    5.8589  -14.8897   26.6569 C   0  0  0  0  0  0  0  0  0  0  0  0
    5.4364  -13.6318   26.8329 N   0  0  0  0  0  0  0  0  0  0  0  0
    6.3797  -12.7682   26.3961 C   0  0  0  0  0  0  0  0  0  0  0  0
    6.4583  -11.3941   26.3392 C   0  0  0  0  0  0  0  0  0  0  0  0
    7.5405  -10.7377   25.8348 C   0  0  0  0  0  0  0  0  0  0  0  0
    8.5805  -11.5023   25.3719 C   0  0  0  0  0  0  0  0  0  0  0  0
    8.5643  -12.8848   25.4013 C   0  0  0  0  0  0  0  0  0  0  0  0
    7.4476  -13.5355   25.9225 C   0  0  0  0  0  0  0  0  0  0  0  0
    8.5389  -17.6819   24.0321 C   0  0  0  0  0  0  0  0  0  0  0  0
    8.6029  -18.8462   24.5375 O   0  0  0  0  0  0  0  0  0  0  0  0
    9.5004  -17.3766   23.0468 N   0  0  0  0  0  0  0  0  0  0  0  0
   10.7354  -18.1114   22.9347 C   0  0  1  0  0  0  0  0  0  0  0  0
   11.4833  -17.5102   21.7728 C   0  0  0  0  0  0  0  0  0  0  0  0
   12.7479  -18.1954   21.4032 C   0  0  0  0  0  0  0  0  0  0  0  0
   13.4773  -17.6183   20.2685 C   0  0  0  0  0  0  0  0  0  0  0  0
   14.0338  -16.5048   20.4564 O   0  0  0  0  0  0  0  0  0  0  0  0
   11.5154  -18.2311   24.1686 C   0  0  0  0  0  0  0  0  0  0  0  0
   11.8883  -17.1212   24.6798 O   0  0  0  0  0  0  0  0  0  0  0  0
   13.6166  -18.1724   19.0121 O   0  0  0  0  0  0  0  0  0  0  0  0
   11.8805  -19.4404   24.8261 N   0  0  0  0  0  0  0  0  0  0  0  0
   11.7166  -20.7986   24.3980 C   0  0  0  0  0  0  0  0  0  0  0  0
   12.6511  -21.5706   25.3012 C   0  0  0  0  0  0  0  0  0  0  0  0
   12.3976  -20.8769   26.6272 C   0  0  0  0  0  0  0  0  0  0  0  0
   12.5128  -19.4258   26.1532 C   0  0  1  0  0  0  0  0  0  0  0  0
   13.9387  -19.0429   26.0041 C   0  0  0  0  0  0  0  0  0  0  0  0
   14.5114  -18.9101   24.8953 O   0  0  0  0  0  0  0  0  0  0  0  0
   14.7074  -18.8100   27.1326 O   0  0  0  0  0  0  0  0  0  0  0  0
  2  1  1  1
  2  3  1  0
  2 13  1  0
  3  4  1  0
  4  5  2  0
  5  6  1  0
  7  6  1  0
  8  7  2  0
  9  8  1  0
 10 11  1  0
 10  9  2  0
 11 12  2  0
 12  4  1  0
 12  7  1  0
 13 15  1  0
 13 14  2  0
 15 16  1  0
 16 17  1  6
 17 18  1  0
 18 19  1  0
 19 23  1  0
 20 19  2  0
 21 16  1  0
 21 22  2  0
 24 21  1  0
 25 24  1  0
 26 27  1  0
 26 25  1  0
 27 28  1  0
 28 24  1  0
 28 29  1  6
 29 31  1  0
 30 29  2  0
M  END
$$$$
