WEP.pdb
     RDKit          3D

 31 33  0  0  1  0  0  0  0  0999 V2000
    5.9652  -18.3050   25.2919 N   0  0  0  0  0  0  0  0  0  0  0  0
    6.5191  -17.0650   24.8498 C   0  0  1  0  0  0  0  0  0  0  0  0
    7.2949  -16.3700   25.9763 C   0  0  0  0  0  0  0  0  0  0  0  0
    6.7474  -15.0444   26.2946 C   0  0  0  0  0  0  0  0  0  0  0  0
    5.4451  -14.7634   26.7132 C   0  0  0  0  0  0  0  0  0  0  0  0
    5.3438  -13.4477   26.9375 N   0  0  0  0  0  0  0  0  0  0  0  0
    6.5282  -12.8487   26.6826 C   0  0  0  0  0  0  0  0  0  0  0  0
    6.9672  -11.5444   26.7437 C   0  0  0  0  0  0  0  0  0  0  0  0
    8.2397  -11.1789   26.4217 C   0  0  0  0  0  0  0  0  0  0  0  0
    9.0978  -12.1718   26.0237 C   0  0  0  0  0  0  0  0  0  0  0  0
    8.7197  -13.4996   25.9419 C   0  0  0  0  0  0  0  0  0  0  0  0
    7.4136  -13.8512   26.2771 C   0  0  0  0  0  0  0  0  0  0  0  0
    7.3988  -17.2070   23.6618 C   0  0  0  0  0  0  0  0  0  0  0  0
    8.2064  -18.1871   23.6178 O   0  0  0  0  0  0  0  0  0  0  0  0
    7.4159  -16.3352   22.5536 N   0  0  0  0  0  0  0  0  0  0  0  0
    8.3817  -16.4718   21.4924 C   0  0  1  0  0  0  0  0  0  0  0  0
    7.9980  -15.4671   20.4368 C   0  0  0  0  0  0  0  0  0  0  0  0
    8.9183  -15.3775   19.2749 C   0  0  0  0  0  0  0  0  0  0  0  0
    8.6620  -16.3249   18.1843 C   0  0  0  0  0  0  0  0  0  0  0  0
    7.4573  -16.5439   17.8917 O   0  0  0  0  0  0  0  0  0  0  0  0
    9.7864  -16.4208   21.9040 C   0  0  0  0  0  0  0  0  0  0  0  0
   10.1143  -15.3826   22.5726 O   0  0  0  0  0  0  0  0  0  0  0  0
    9.6089  -17.0030   17.4437 O   0  0  0  0  0  0  0  0  0  0  0  0
   10.7850  -17.3989   21.6321 N   0  0  0  0  0  0  0  0  0  0  0  0
   10.6663  -18.6682   20.9765 C   0  0  0  0  0  0  0  0  0  0  0  0
   12.0942  -19.0250   20.6322 C   0  0  0  0  0  0  0  0  0  0  0  0
   12.8063  -18.5895   21.9000 C   0  0  0  0  0  0  0  0  0  0  0  0
   12.1806  -17.2004   22.0496 C   0  0  1  0  0  0  0  0  0  0  0  0
   12.8292  -16.2393   21.1235 C   0  0  0  0  0  0  0  0  0  0  0  0
   12.3218  -15.8693   20.0369 O   0  0  0  0  0  0  0  0  0  0  0  0
   14.0633  -15.7006   21.4486 O   0  0  0  0  0  0  0  0  0  0  0  0
  2  1  1  1
  2  3  1  0
  2 13  1  0
  3  4  1  0
  4  5  2  0
  5  6  1  0
  7  6  1  0
  8  7  2  0
  9  8  1  0
 10 11  1  0
 10  9  2  0
 11 12  2  0
 12  4  1  0
 12  7  1  0
 13 15  1  0
 13 14  2  0
 15 16  1  0
 16 17  1  6
 17 18  1  0
 18 19  1  0
 19 23  1  0
 20 19  2  0
 21 16  1  0
 21 22  2  0
 24 21  1  0
 25 24  1  0
 26 27  1  0
 26 25  1  0
 27 28  1  0
 28 24  1  0
 28 29  1  6
 29 31  1  0
 30 29  2  0
M  END
$$$$
