WEP.pdb
     RDKit          3D

 31 33  0  0  1  0  0  0  0  0999 V2000
    6.2282  -17.5654   24.9426 N   0  0  0  0  0  0  0  0  0  0  0  0
    7.3851  -16.8498   24.5074 C   0  0  1  0  0  0  0  0  0  0  0  0
    7.9192  -15.9314   25.6143 C   0  0  0  0  0  0  0  0  0  0  0  0
    7.0305  -14.7893   25.8679 C   0  0  0  0  0  0  0  0  0  0  0  0
    5.7093  -14.8497   26.3161 C   0  0  0  0  0  0  0  0  0  0  0  0
    5.2503  -13.6006   26.4600 N   0  0  0  0  0  0  0  0  0  0  0  0
    6.2165  -12.7176   26.1236 C   0  0  0  0  0  0  0  0  0  0  0  0
    6.2767  -11.3420   26.0853 C   0  0  0  0  0  0  0  0  0  0  0  0
    7.3913  -10.6633   25.6935 C   0  0  0  0  0  0  0  0  0  0  0  0
    8.4842  -11.4064   25.3277 C   0  0  0  0  0  0  0  0  0  0  0  0
    8.4888  -12.7893   25.3445 C   0  0  0  0  0  0  0  0  0  0  0  0
    7.3383  -13.4629   25.7499 C   0  0  0  0  0  0  0  0  0  0  0  0
    8.4783  -17.7363   24.0337 C   0  0  0  0  0  0  0  0  0  0  0  0
    8.6895  -18.8248   24.6544 O   0  0  0  0  0  0  0  0  0  0  0  0
    9.3182  -17.4742   22.9318 N   0  0  0  0  0  0  0  0  0  0  0  0
   10.5962  -18.1225   22.7775 C   0  0  1  0  0  0  0  0  0  0  0  0
   11.1135  -17.7240   21.4194 C   0  0  0  0  0  0  0  0  0  0  0  0
   12.4038  -18.3414   21.0203 C   0  0  0  0  0  0  0  0  0  0  0  0
   12.8223  -18.1038   19.6343 C   0  0  0  0  0  0  0  0  0  0  0  0
   13.6660  -17.1892   19.4432 O   0  0  0  0  0  0  0  0  0  0  0  0
   11.5442  -17.9234   23.8761 C   0  0  0  0  0  0  0  0  0  0  0  0
   11.9713  -16.7266   24.0086 O   0  0  0  0  0  0  0  0  0  0  0  0
   12.3846  -18.7819   18.5147 O   0  0  0  0  0  0  0  0  0  0  0  0
   12.0140  -18.9181   24.7805 N   0  0  0  0  0  0  0  0  0  0  0  0
   11.6613  -20.3040   24.8781 C   0  0  0  0  0  0  0  0  0  0  0  0
   12.7699  -20.8940   25.7195 C   0  0  0  0  0  0  0  0  0  0  0  0
   12.9413  -19.8047   26.7626 C   0  0  0  0  0  0  0  0  0  0  0  0
   12.9966  -18.5956   25.8253 C   0  0  1  0  0  0  0  0  0  0  0  0
   14.3404  -18.4834   25.2058 C   0  0  0  0  0  0  0  0  0  0  0  0
   15.3470  -18.0315   25.8037 O   0  0  0  0  0  0  0  0  0  0  0  0
   14.5277  -18.8939   23.8961 O   0  0  0  0  0  0  0  0  0  0  0  0
  2  1  1  1
  2  3  1  0
  2 13  1  0
  3  4  1  0
  4  5  2  0
  5  6  1  0
  7  6  1  0
  8  7  2  0
  9  8  1  0
 10 11  1  0
 10  9  2  0
 11 12  2  0
 12  4  1  0
 12  7  1  0
 13 15  1  0
 13 14  2  0
 15 16  1  0
 16 17  1  6
 17 18  1  0
 18 19  1  0
 19 23  1  0
 20 19  2  0
 21 16  1  0
 21 22  2  0
 24 21  1  0
 25 24  1  0
 26 27  1  0
 26 25  1  0
 27 28  1  0
 28 24  1  0
 28 29  1  6
 29 31  1  0
 30 29  2  0
M  END
$$$$
