WEP.pdb
     RDKit          3D

 31 33  0  0  1  0  0  0  0  0999 V2000
    7.7677  -18.5146   20.9310 N   0  0  0  0  0  0  0  0  0  0  0  0
    7.7504  -17.1184   21.2313 C   0  0  1  0  0  0  0  0  0  0  0  0
    6.7276  -16.3758   20.3616 C   0  0  0  0  0  0  0  0  0  0  0  0
    7.2740  -15.1352   19.7951 C   0  0  0  0  0  0  0  0  0  0  0  0
    7.8206  -14.9759   18.5200 C   0  0  0  0  0  0  0  0  0  0  0  0
    8.1734  -13.6941   18.3644 N   0  0  0  0  0  0  0  0  0  0  0  0
    7.8820  -13.0009   19.4874 C   0  0  0  0  0  0  0  0  0  0  0  0
    8.0371  -11.6837   19.8594 C   0  0  0  0  0  0  0  0  0  0  0  0
    7.6624  -11.2139   21.0823 C   0  0  0  0  0  0  0  0  0  0  0  0
    7.1103  -12.1121   21.9591 C   0  0  0  0  0  0  0  0  0  0  0  0
    6.9268  -13.4468   21.6470 C   0  0  0  0  0  0  0  0  0  0  0  0
    7.3162  -13.9056   20.3901 C   0  0  0  0  0  0  0  0  0  0  0  0
    7.4798  -16.8306   22.6629 C   0  0  0  0  0  0  0  0  0  0  0  0
    6.9367  -15.7229   22.9676 O   0  0  0  0  0  0  0  0  0  0  0  0
    7.7748  -17.6962   23.7363 N   0  0  0  0  0  0  0  0  0  0  0  0
    7.6045  -17.2917   25.1093 C   0  0  1  0  0  0  0  0  0  0  0  0
    7.3473  -18.5519   25.8945 C   0  0  0  0  0  0  0  0  0  0  0  0
    7.2144  -18.3743   27.3629 C   0  0  0  0  0  0  0  0  0  0  0  0
    7.0673  -19.6079   28.1433 C   0  0  0  0  0  0  0  0  0  0  0  0
    6.7113  -19.4828   29.3443 O   0  0  0  0  0  0  0  0  0  0  0  0
    8.6618  -16.4366   25.6534 C   0  0  0  0  0  0  0  0  0  0  0  0
    9.8441  -16.9097   25.5494 O   0  0  0  0  0  0  0  0  0  0  0  0
    7.2799  -20.8958   27.6948 O   0  0  0  0  0  0  0  0  0  0  0  0
    8.4896  -15.1634   26.2676 N   0  0  0  0  0  0  0  0  0  0  0  0
    7.3269  -14.3271   26.3264 C   0  0  0  0  0  0  0  0  0  0  0  0
    7.6473  -13.3510   27.4353 C   0  0  0  0  0  0  0  0  0  0  0  0
    9.1065  -13.0571   27.1382 C   0  0  0  0  0  0  0  0  0  0  0  0
    9.5997  -14.4957   26.9627 C   0  0  1  0  0  0  0  0  0  0  0  0
    9.7972  -15.1389   28.2854 C   0  0  0  0  0  0  0  0  0  0  0  0
    9.0423  -16.0293   28.7461 O   0  0  0  0  0  0  0  0  0  0  0  0
   10.8668  -14.7588   29.0794 O   0  0  0  0  0  0  0  0  0  0  0  0
  2  1  1  1
  2  3  1  0
  2 13  1  0
  3  4  1  0
  4  5  2  0
  5  6  1  0
  7  6  1  0
  8  7  2  0
  9  8  1  0
 10 11  1  0
 10  9  2  0
 11 12  2  0
 12  4  1  0
 12  7  1  0
 13 15  1  0
 13 14  2  0
 15 16  1  0
 16 17  1  1
 17 18  1  0
 18 19  1  0
 19 23  1  0
 20 19  2  0
 21 16  1  0
 21 22  2  0
 24 21  1  0
 25 24  1  0
 26 27  1  0
 26 25  1  0
 27 28  1  0
 28 24  1  0
 28 29  1  1
 29 31  1  0
 30 29  2  0
M  END
$$$$
