WEP.pdb
     RDKit          3D

 31 33  0  0  1  0  0  0  0  0999 V2000
    5.6834  -18.6958   20.9753 N   0  0  0  0  0  0  0  0  0  0  0  0
    6.3405  -17.4786   21.3312 C   0  0  1  0  0  0  0  0  0  0  0  0
    5.7026  -16.2756   20.6242 C   0  0  0  0  0  0  0  0  0  0  0  0
    6.6922  -15.4644   19.9024 C   0  0  0  0  0  0  0  0  0  0  0  0
    7.2798  -15.7723   18.6735 C   0  0  0  0  0  0  0  0  0  0  0  0
    8.0994  -14.7712   18.3300 N   0  0  0  0  0  0  0  0  0  0  0  0
    8.0766  -13.8147   19.2844 C   0  0  0  0  0  0  0  0  0  0  0  0
    8.7180  -12.6049   19.4343 C   0  0  0  0  0  0  0  0  0  0  0  0
    8.5311  -11.8005   20.5180 C   0  0  0  0  0  0  0  0  0  0  0  0
    7.6621  -12.2386   21.4842 C   0  0  0  0  0  0  0  0  0  0  0  0
    6.9867  -13.4420   21.3936 C   0  0  0  0  0  0  0  0  0  0  0  0
    7.1921  -14.2485   20.2759 C   0  0  0  0  0  0  0  0  0  0  0  0
    6.3645  -17.2325   22.7955 C   0  0  0  0  0  0  0  0  0  0  0  0
    5.2671  -16.9909   23.3888 O   0  0  0  0  0  0  0  0  0  0  0  0
    7.5200  -17.2466   23.6037 N   0  0  0  0  0  0  0  0  0  0  0  0
    7.4604  -16.9936   25.0215 C   0  0  1  0  0  0  0  0  0  0  0  0
    7.8073  -18.2937   25.7000 C   0  0  0  0  0  0  0  0  0  0  0  0
    7.7679  -18.2706   27.1843 C   0  0  0  0  0  0  0  0  0  0  0  0
    8.2088  -19.5000   27.8527 C   0  0  0  0  0  0  0  0  0  0  0  0
    9.3484  -19.9380   27.5453 O   0  0  0  0  0  0  0  0  0  0  0  0
    8.2244  -15.8354   25.4909 C   0  0  0  0  0  0  0  0  0  0  0  0
    9.4705  -15.8627   25.2104 O   0  0  0  0  0  0  0  0  0  0  0  0
    7.5004  -20.2283   28.7868 O   0  0  0  0  0  0  0  0  0  0  0  0
    7.7124  -14.7173   26.2089 N   0  0  0  0  0  0  0  0  0  0  0  0
    6.3734  -14.4449   26.6422 C   0  0  0  0  0  0  0  0  0  0  0  0
    6.5496  -13.3584   27.6783 C   0  0  0  0  0  0  0  0  0  0  0  0
    7.6039  -12.4976   27.0065 C   0  0  0  0  0  0  0  0  0  0  0  0
    8.5848  -13.6037   26.6091 C   0  0  1  0  0  0  0  0  0  0  0  0
    9.3940  -14.0218   27.7806 C   0  0  0  0  0  0  0  0  0  0  0  0
   10.2603  -13.2940   28.3237 O   0  0  0  0  0  0  0  0  0  0  0  0
    9.2053  -15.2792   28.3304 O   0  0  0  0  0  0  0  0  0  0  0  0
  2  1  1  1
  2  3  1  0
  2 13  1  0
  3  4  1  0
  4  5  2  0
  5  6  1  0
  7  6  1  0
  8  7  2  0
  9  8  1  0
 10 11  1  0
 10  9  2  0
 11 12  2  0
 12  4  1  0
 12  7  1  0
 13 15  1  0
 13 14  2  0
 15 16  1  0
 16 17  1  1
 17 18  1  0
 18 19  1  0
 19 23  1  0
 20 19  2  0
 21 16  1  0
 21 22  2  0
 24 21  1  0
 25 24  1  0
 26 27  1  0
 26 25  1  0
 27 28  1  0
 28 24  1  0
 28 29  1  1
 29 31  1  0
 30 29  2  0
M  END
$$$$
