WEP.pdb
     RDKit          3D

 31 33  0  0  1  0  0  0  0  0999 V2000
    5.6762  -16.8746   21.8213 N   0  0  0  0  0  0  0  0  0  0  0  0
    6.8935  -16.4219   22.4154 C   0  0  1  0  0  0  0  0  0  0  0  0
    6.9799  -14.8901   22.4066 C   0  0  0  0  0  0  0  0  0  0  0  0
    7.2789  -14.3564   21.0708 C   0  0  0  0  0  0  0  0  0  0  0  0
    6.3497  -14.0292   20.0811 C   0  0  0  0  0  0  0  0  0  0  0  0
    7.0080  -13.5411   19.0227 N   0  0  0  0  0  0  0  0  0  0  0  0
    8.3357  -13.5342   19.2744 C   0  0  0  0  0  0  0  0  0  0  0  0
    9.4400  -13.1494   18.5464 C   0  0  0  0  0  0  0  0  0  0  0  0
   10.7111  -13.2481   19.0271 C   0  0  0  0  0  0  0  0  0  0  0  0
   10.8679  -13.7549   20.2917 C   0  0  0  0  0  0  0  0  0  0  0  0
    9.8011  -14.1583   21.0740 C   0  0  0  0  0  0  0  0  0  0  0  0
    8.5095  -14.0474   20.5628 C   0  0  0  0  0  0  0  0  0  0  0  0
    7.0884  -16.9175   23.8017 C   0  0  0  0  0  0  0  0  0  0  0  0
    6.2227  -16.6159   24.6818 O   0  0  0  0  0  0  0  0  0  0  0  0
    8.1689  -17.7121   24.2370 N   0  0  0  0  0  0  0  0  0  0  0  0
    8.5941  -17.7306   25.6141 C   0  0  1  0  0  0  0  0  0  0  0  0
    8.8487  -19.1748   25.9608 C   0  0  0  0  0  0  0  0  0  0  0  0
    9.3274  -19.4254   27.3440 C   0  0  0  0  0  0  0  0  0  0  0  0
    8.3088  -19.8760   28.2990 C   0  0  0  0  0  0  0  0  0  0  0  0
    8.6958  -20.6272   29.2322 O   0  0  0  0  0  0  0  0  0  0  0  0
    9.6890  -16.8180   25.9512 C   0  0  0  0  0  0  0  0  0  0  0  0
   10.7791  -17.0280   25.3187 O   0  0  0  0  0  0  0  0  0  0  0  0
    6.9654  -19.5600   28.2796 O   0  0  0  0  0  0  0  0  0  0  0  0
    9.6428  -15.7505   26.8926 N   0  0  0  0  0  0  0  0  0  0  0  0
    8.5367  -15.2537   27.6572 C   0  0  0  0  0  0  0  0  0  0  0  0
    9.1952  -14.4296   28.7399 C   0  0  0  0  0  0  0  0  0  0  0  0
   10.2831  -13.7345   27.9417 C   0  0  0  0  0  0  0  0  0  0  0  0
   10.8390  -14.9533   27.2007 C   0  0  1  0  0  0  0  0  0  0  0  0
   11.7263  -15.7398   28.0930 C   0  0  0  0  0  0  0  0  0  0  0  0
   12.8622  -15.3538   28.4614 O   0  0  0  0  0  0  0  0  0  0  0  0
   11.3054  -16.9724   28.5647 O   0  0  0  0  0  0  0  0  0  0  0  0
  2  1  1  1
  2  3  1  0
  2 13  1  0
  3  4  1  0
  4  5  2  0
  5  6  1  0
  7  6  1  0
  8  7  2  0
  9  8  1  0
 10 11  1  0
 10  9  2  0
 11 12  2  0
 12  4  1  0
 12  7  1  0
 13 15  1  0
 13 14  2  0
 15 16  1  0
 16 17  1  6
 17 18  1  0
 18 19  1  0
 19 23  1  0
 20 19  2  0
 21 16  1  0
 21 22  2  0
 24 21  1  0
 25 24  1  0
 26 27  1  0
 26 25  1  0
 27 28  1  0
 28 24  1  0
 28 29  1  1
 29 31  1  0
 30 29  2  0
M  END
$$$$
