WEP.pdb
     RDKit          3D

 31 33  0  0  1  0  0  0  0  0999 V2000
    9.0739  -15.5621   20.7663 N   0  0  0  0  0  0  0  0  0  0  0  0
    8.9451  -15.2108   22.1446 C   0  0  1  0  0  0  0  0  0  0  0  0
    7.5147  -15.4473   22.6468 C   0  0  0  0  0  0  0  0  0  0  0  0
    6.9171  -14.2332   23.2188 C   0  0  0  0  0  0  0  0  0  0  0  0
    6.0297  -13.3650   22.5794 C   0  0  0  0  0  0  0  0  0  0  0  0
    5.6835  -12.3995   23.4395 N   0  0  0  0  0  0  0  0  0  0  0  0
    6.3084  -12.5957   24.6216 C   0  0  0  0  0  0  0  0  0  0  0  0
    6.3127  -11.9160   25.8198 C   0  0  0  0  0  0  0  0  0  0  0  0
    7.0500  -12.3177   26.8928 C   0  0  0  0  0  0  0  0  0  0  0  0
    7.8100  -13.4497   26.7456 C   0  0  0  0  0  0  0  0  0  0  0  0
    7.8491  -14.1775   25.5702 C   0  0  0  0  0  0  0  0  0  0  0  0
    7.0861  -13.7490   24.4857 C   0  0  0  0  0  0  0  0  0  0  0  0
    9.9005  -15.9311   23.0243 C   0  0  0  0  0  0  0  0  0  0  0  0
   10.7890  -16.6626   22.4856 O   0  0  0  0  0  0  0  0  0  0  0  0
    9.9122  -15.8718   24.4331 N   0  0  0  0  0  0  0  0  0  0  0  0
   10.8938  -16.5790   25.2167 C   0  0  1  0  0  0  0  0  0  0  0  0
   10.7803  -16.0457   26.6216 C   0  0  0  0  0  0  0  0  0  0  0  0
   11.6263  -16.7269   27.6342 C   0  0  0  0  0  0  0  0  0  0  0  0
   11.5153  -16.2161   29.0051 C   0  0  0  0  0  0  0  0  0  0  0  0
   11.3410  -17.0662   29.9171 O   0  0  0  0  0  0  0  0  0  0  0  0
   10.8557  -18.0394   25.1115 C   0  0  0  0  0  0  0  0  0  0  0  0
    9.7228  -18.5688   25.3731 O   0  0  0  0  0  0  0  0  0  0  0  0
   11.5825  -14.8950   29.3990 O   0  0  0  0  0  0  0  0  0  0  0  0
   11.9389  -18.8915   24.7527 N   0  0  0  0  0  0  0  0  0  0  0  0
   13.2729  -18.5537   24.3515 C   0  0  0  0  0  0  0  0  0  0  0  0
   14.0319  -19.8507   24.5149 C   0  0  0  0  0  0  0  0  0  0  0  0
   13.0180  -20.8403   23.9703 C   0  0  0  0  0  0  0  0  0  0  0  0
   11.7863  -20.3536   24.7382 C   0  0  1  0  0  0  0  0  0  0  0  0
   11.8162  -20.8557   26.1342 C   0  0  0  0  0  0  0  0  0  0  0  0
   12.0582  -20.1307   27.1296 O   0  0  0  0  0  0  0  0  0  0  0  0
   11.5652  -22.1944   26.3865 O   0  0  0  0  0  0  0  0  0  0  0  0
  2  1  1  6
  2  3  1  0
  2 13  1  0
  3  4  1  0
  4  5  2  0
  5  6  1  0
  7  6  1  0
  8  7  2  0
  9  8  1  0
 10 11  1  0
 10  9  2  0
 11 12  2  0
 12  4  1  0
 12  7  1  0
 13 15  1  0
 13 14  2  0
 15 16  1  0
 16 17  1  1
 17 18  1  0
 18 19  1  0
 19 23  1  0
 20 19  2  0
 21 16  1  0
 21 22  2  0
 24 21  1  0
 25 24  1  0
 26 27  1  0
 26 25  1  0
 27 28  1  0
 28 24  1  0
 28 29  1  1
 29 31  1  0
 30 29  2  0
M  END
$$$$
