WEP.pdb
     RDKit          3D

 31 33  0  0  1  0  0  0  0  0999 V2000
    6.8973  -16.8714   23.5991 N   0  0  0  0  0  0  0  0  0  0  0  0
    8.2372  -16.3911   23.4814 C   0  0  1  0  0  0  0  0  0  0  0  0
    8.6359  -15.5523   24.7027 C   0  0  0  0  0  0  0  0  0  0  0  0
    7.5032  -14.7954   25.2527 C   0  0  0  0  0  0  0  0  0  0  0  0
    6.2923  -15.3251   25.7036 C   0  0  0  0  0  0  0  0  0  0  0  0
    5.5335  -14.3229   26.1637 N   0  0  0  0  0  0  0  0  0  0  0  0
    6.1956  -13.1520   26.0334 C   0  0  0  0  0  0  0  0  0  0  0  0
    5.8848  -11.8446   26.3358 C   0  0  0  0  0  0  0  0  0  0  0  0
    6.7384  -10.8097   26.0976 C   0  0  0  0  0  0  0  0  0  0  0  0
    7.9510  -11.1116   25.5328 C   0  0  0  0  0  0  0  0  0  0  0  0
    8.3240  -12.4027   25.2063 C   0  0  0  0  0  0  0  0  0  0  0  0
    7.4357  -13.4461   25.4596 C   0  0  0  0  0  0  0  0  0  0  0  0
    9.2326  -17.4751   23.2831 C   0  0  0  0  0  0  0  0  0  0  0  0
    8.8847  -18.6719   23.5309 O   0  0  0  0  0  0  0  0  0  0  0  0
   10.5559  -17.2915   22.8319 N   0  0  0  0  0  0  0  0  0  0  0  0
   11.6334  -18.1452   23.2655 C   0  0  1  0  0  0  0  0  0  0  0  0
   12.8581  -17.7017   22.5076 C   0  0  0  0  0  0  0  0  0  0  0  0
   12.7778  -17.8320   21.0305 C   0  0  0  0  0  0  0  0  0  0  0  0
   13.3928  -16.7451   20.2605 C   0  0  0  0  0  0  0  0  0  0  0  0
   13.1219  -16.6935   19.0321 O   0  0  0  0  0  0  0  0  0  0  0  0
   11.8151  -18.2490   24.7151 C   0  0  0  0  0  0  0  0  0  0  0  0
   12.1137  -17.1532   25.3003 O   0  0  0  0  0  0  0  0  0  0  0  0
   14.2407  -15.7702   20.7458 O   0  0  0  0  0  0  0  0  0  0  0  0
   11.6901  -19.4291   25.5023 N   0  0  0  0  0  0  0  0  0  0  0  0
   11.4538  -20.7816   25.0901 C   0  0  0  0  0  0  0  0  0  0  0  0
   11.8369  -21.5951   26.3052 C   0  0  0  0  0  0  0  0  0  0  0  0
   11.2435  -20.7431   27.4125 C   0  0  0  0  0  0  0  0  0  0  0  0
   11.7830  -19.3809   26.9687 C   0  0  1  0  0  0  0  0  0  0  0  0
   13.2080  -19.2383   27.3574 C   0  0  0  0  0  0  0  0  0  0  0  0
   14.1625  -19.3254   26.5473 O   0  0  0  0  0  0  0  0  0  0  0  0
   13.5362  -18.9928   28.6806 O   0  0  0  0  0  0  0  0  0  0  0  0
  2  1  1  1
  2  3  1  0
  2 13  1  0
  3  4  1  0
  4  5  2  0
  5  6  1  0
  7  6  1  0
  8  7  2  0
  9  8  1  0
 10 11  1  0
 10  9  2  0
 11 12  2  0
 12  4  1  0
 12  7  1  0
 13 15  1  0
 13 14  2  0
 15 16  1  0
 16 17  1  6
 17 18  1  0
 18 19  1  0
 19 23  1  0
 20 19  2  0
 21 16  1  0
 21 22  2  0
 24 21  1  0
 25 24  1  0
 26 27  1  0
 26 25  1  0
 27 28  1  0
 28 24  1  0
 28 29  1  6
 29 31  1  0
 30 29  2  0
M  END
$$$$
