WEP.pdb
     RDKit          3D

 31 33  0  0  1  0  0  0  0  0999 V2000
    9.7034  -16.2969   25.6480 N   0  0  0  0  0  0  0  0  0  0  0  0
    9.2381  -16.3623   24.2993 C   0  0  1  0  0  0  0  0  0  0  0  0
    7.7843  -15.8842   24.1895 C   0  0  0  0  0  0  0  0  0  0  0  0
    7.2842  -15.3262   25.4532 C   0  0  0  0  0  0  0  0  0  0  0  0
    6.7726  -16.0477   26.5338 C   0  0  0  0  0  0  0  0  0  0  0  0
    6.4572  -15.1877   27.5098 N   0  0  0  0  0  0  0  0  0  0  0  0
    6.7398  -13.9263   27.1156 C   0  0  0  0  0  0  0  0  0  0  0  0
    6.6104  -12.6916   27.7125 C   0  0  0  0  0  0  0  0  0  0  0  0
    6.9680  -11.5320   27.0929 C   0  0  0  0  0  0  0  0  0  0  0  0
    7.4752  -11.6280   25.8225 C   0  0  0  0  0  0  0  0  0  0  0  0
    7.6312  -12.8364   25.1681 C   0  0  0  0  0  0  0  0  0  0  0  0
    7.2600  -14.0101   25.8211 C   0  0  0  0  0  0  0  0  0  0  0  0
   10.0820  -15.5921   23.3506 C   0  0  0  0  0  0  0  0  0  0  0  0
   10.4332  -14.4132   23.6694 O   0  0  0  0  0  0  0  0  0  0  0  0
   10.5407  -16.0631   22.1032 N   0  0  0  0  0  0  0  0  0  0  0  0
   10.6598  -15.1951   20.9586 C   0  0  1  0  0  0  0  0  0  0  0  0
   11.9935  -15.5036   20.3285 C   0  0  0  0  0  0  0  0  0  0  0  0
   13.1554  -14.7804   20.9047 C   0  0  0  0  0  0  0  0  0  0  0  0
   14.4397  -14.9971   20.2293 C   0  0  0  0  0  0  0  0  0  0  0  0
   14.6744  -14.2926   19.2127 O   0  0  0  0  0  0  0  0  0  0  0  0
    9.5264  -15.2108   20.0311 C   0  0  0  0  0  0  0  0  0  0  0  0
    9.0052  -16.3610   19.8370 O   0  0  0  0  0  0  0  0  0  0  0  0
   15.4203  -15.8968   20.5950 O   0  0  0  0  0  0  0  0  0  0  0  0
    8.9732  -14.0890   19.3502 N   0  0  0  0  0  0  0  0  0  0  0  0
    9.2975  -12.6977   19.4680 C   0  0  0  0  0  0  0  0  0  0  0  0
    8.6890  -12.0850   18.2274 C   0  0  0  0  0  0  0  0  0  0  0  0
    7.3662  -12.8270   18.1672 C   0  0  0  0  0  0  0  0  0  0  0  0
    7.8918  -14.2508   18.3675 C   0  0  1  0  0  0  0  0  0  0  0  0
    8.4642  -14.7728   17.1019 C   0  0  0  0  0  0  0  0  0  0  0  0
    7.7692  -15.1833   16.1408 O   0  0  0  0  0  0  0  0  0  0  0  0
    9.8391  -14.8210   16.9400 O   0  0  0  0  0  0  0  0  0  0  0  0
  2  1  1  1
  2  3  1  0
  2 13  1  0
  3  4  1  0
  4  5  2  0
  5  6  1  0
  7  6  1  0
  8  7  2  0
  9  8  1  0
 10 11  1  0
 10  9  2  0
 11 12  2  0
 12  4  1  0
 12  7  1  0
 13 15  1  0
 13 14  2  0
 15 16  1  0
 16 17  1  6
 17 18  1  0
 18 19  1  0
 19 23  1  0
 20 19  2  0
 21 16  1  0
 21 22  2  0
 24 21  1  0
 25 24  1  0
 26 27  1  0
 26 25  1  0
 27 28  1  0
 28 24  1  0
 28 29  1  6
 29 31  1  0
 30 29  2  0
M  END
$$$$
