WEP.pdb
     RDKit          3D

 31 33  0  0  1  0  0  0  0  0999 V2000
    6.8128  -17.6121   24.0073 N   0  0  0  0  0  0  0  0  0  0  0  0
    7.9374  -16.7465   23.8467 C   0  0  1  0  0  0  0  0  0  0  0  0
    8.2903  -16.0439   25.1643 C   0  0  0  0  0  0  0  0  0  0  0  0
    7.2099  -15.1664   25.6346 C   0  0  0  0  0  0  0  0  0  0  0  0
    6.0216  -15.5691   26.2477 C   0  0  0  0  0  0  0  0  0  0  0  0
    5.3129  -14.4779   26.5621 N   0  0  0  0  0  0  0  0  0  0  0  0
    5.9863  -13.3704   26.1796 C   0  0  0  0  0  0  0  0  0  0  0  0
    5.7198  -12.0211   26.2561 C   0  0  0  0  0  0  0  0  0  0  0  0
    6.5748  -11.0725   25.7811 C   0  0  0  0  0  0  0  0  0  0  0  0
    7.7422  -11.5080   25.2083 C   0  0  0  0  0  0  0  0  0  0  0  0
    8.0694  -12.8474   25.1013 C   0  0  0  0  0  0  0  0  0  0  0  0
    7.1807  -13.8006   25.5949 C   0  0  0  0  0  0  0  0  0  0  0  0
    9.1407  -17.4408   23.3220 C   0  0  0  0  0  0  0  0  0  0  0  0
    9.4751  -18.5519   23.8402 O   0  0  0  0  0  0  0  0  0  0  0  0
    9.9606  -16.9691   22.2762 N   0  0  0  0  0  0  0  0  0  0  0  0
   11.2595  -17.5357   22.0124 C   0  0  1  0  0  0  0  0  0  0  0  0
   11.6309  -17.1138   20.6142 C   0  0  0  0  0  0  0  0  0  0  0  0
   10.9535  -17.8564   19.5212 C   0  0  0  0  0  0  0  0  0  0  0  0
   11.2895  -17.4307   18.1579 C   0  0  0  0  0  0  0  0  0  0  0  0
   10.4948  -16.6301   17.5992 O   0  0  0  0  0  0  0  0  0  0  0  0
   12.2841  -17.2694   23.0246 C   0  0  0  0  0  0  0  0  0  0  0  0
   12.4489  -16.0356   23.3124 O   0  0  0  0  0  0  0  0  0  0  0  0
   12.3911  -17.8190   17.4225 O   0  0  0  0  0  0  0  0  0  0  0  0
   13.0853  -18.2377   23.6943 N   0  0  0  0  0  0  0  0  0  0  0  0
   13.0986  -19.6646   23.5581 C   0  0  0  0  0  0  0  0  0  0  0  0
   14.4075  -20.0699   24.1963 C   0  0  0  0  0  0  0  0  0  0  0  0
   14.4242  -19.1564   25.4084 C   0  0  0  0  0  0  0  0  0  0  0  0
   14.0717  -17.8407   24.7095 C   0  0  1  0  0  0  0  0  0  0  0  0
   15.2659  -17.2813   24.0291 C   0  0  0  0  0  0  0  0  0  0  0  0
   16.1985  -16.6947   24.6301 O   0  0  0  0  0  0  0  0  0  0  0  0
   15.3891  -17.3984   22.6543 O   0  0  0  0  0  0  0  0  0  0  0  0
  2  1  1  1
  2  3  1  0
  2 13  1  0
  3  4  1  0
  4  5  2  0
  5  6  1  0
  7  6  1  0
  8  7  2  0
  9  8  1  0
 10 11  1  0
 10  9  2  0
 11 12  2  0
 12  4  1  0
 12  7  1  0
 13 15  1  0
 13 14  2  0
 15 16  1  0
 16 17  1  6
 17 18  1  0
 18 19  1  0
 19 23  1  0
 20 19  2  0
 21 16  1  0
 21 22  2  0
 24 21  1  0
 25 24  1  0
 26 27  1  0
 26 25  1  0
 27 28  1  0
 28 24  1  0
 28 29  1  6
 29 31  1  0
 30 29  2  0
M  END
$$$$
