QKM.pdb
     RDKit          3D

 27 26  0  0  1  0  0  0  0  0999 V2000
   28.4467  -17.1495  -17.9603 N   0  0  0  0  0  0  0  0  0  0  0  0
   28.3826  -15.7762  -17.6522 C   0  0  0  0  0  0  0  0  0  0  0  0
   29.3655  -15.0415  -17.8704 O   0  0  0  0  0  0  0  0  0  0  0  0
   27.1475  -15.2163  -17.0716 C   0  0  0  0  0  0  0  0  0  0  0  0
   26.0425  -16.2651  -16.9948 C   0  0  0  0  0  0  0  0  0  0  0  0
   26.0048  -16.8766  -15.6141 C   0  0  2  0  0  0  0  0  0  0  0  0
   27.3029  -16.9285  -15.0043 N   0  0  0  0  0  0  0  0  0  0  0  0
   25.4812  -18.2611  -15.6891 C   0  0  0  0  0  0  0  0  0  0  0  0
   24.3068  -18.5163  -16.1083 O   0  0  0  0  0  0  0  0  0  0  0  0
   26.2603  -19.3730  -15.2981 N   0  0  0  0  0  0  0  0  0  0  0  0
   25.7364  -20.7179  -15.3450 C   0  0  1  0  0  0  0  0  0  0  0  0
   26.8804  -21.6180  -15.7882 C   0  0  0  0  0  0  0  0  0  0  0  0
   27.4499  -21.1504  -17.1074 C   0  0  0  0  0  0  0  0  0  0  0  0
   28.6115  -22.0449  -17.4582 C   0  0  0  0  0  0  0  0  0  0  0  0
   29.1712  -21.6396  -18.8096 C   0  0  0  0  0  0  0  0  0  0  0  0
   30.2975  -22.5169  -19.1065 N   0  0  0  0  0  0  0  0  0  0  0  0
   25.1831  -21.1494  -14.0435 C   0  0  0  0  0  0  0  0  0  0  0  0
   25.9896  -21.5974  -13.1920 O   0  0  0  0  0  0  0  0  0  0  0  0
   26.2674  -20.0261   -9.2256 C   0  0  0  0  0  0  0  0  0  0  0  0
   24.9825  -21.1424   -8.6748 S   0  0  0  0  0  0  0  0  0  0  0  0
   23.7416  -21.4486   -9.9406 C   0  0  0  0  0  0  0  0  0  0  0  0
   24.2251  -21.2507  -11.3214 C   0  0  0  0  0  0  0  0  0  0  0  0
   23.2646  -21.4895  -12.4034 C   0  0  2  0  0  0  0  0  0  0  0  0
   23.8245  -21.0901  -13.7031 N   0  0  0  0  0  0  0  0  0  0  0  0
   21.9214  -20.9723  -12.3512 C   0  0  0  0  0  0  0  0  0  0  0  0
   20.8614  -21.3656  -11.5566 O   0  0  0  0  0  0  0  0  0  0  0  0
   21.6125  -20.0035  -13.1472 O   0  0  0  0  0  0  0  0  0  0  0  0
  2  3  2  0
  2  1  1  0
  4  2  1  0
  5  4  1  0
  6  5  1  0
  6  7  1  6
  8  6  1  0
  8  9  2  0
 10  8  1  0
 11 10  1  0
 11 12  1  1
 13 14  1  0
 13 12  1  0
 15 14  1  0
 16 15  1  0
 17 11  1  0
 18 17  2  0
 19 20  1  0
 20 21  1  0
 22 21  1  0
 23 22  1  1
 23 24  1  0
 24 17  1  0
 25 26  1  0
 25 23  1  0
 27 25  2  0
M  END
$$$$
