QKM.pdb
     RDKit          3D

 27 26  0  0  1  0  0  0  0  0999 V2000
   28.1528  -11.4825  -15.9226 N   0  0  0  0  0  0  0  0  0  0  0  0
   27.7923  -12.8443  -15.9434 C   0  0  0  0  0  0  0  0  0  0  0  0
   28.6445  -13.7189  -15.6935 O   0  0  0  0  0  0  0  0  0  0  0  0
   26.4035  -13.2260  -16.2622 C   0  0  0  0  0  0  0  0  0  0  0  0
   25.4984  -12.0023  -16.3629 C   0  0  0  0  0  0  0  0  0  0  0  0
   24.0936  -12.4260  -16.7212 C   0  0  2  0  0  0  0  0  0  0  0  0
   24.0461  -13.1858  -17.9378 N   0  0  0  0  0  0  0  0  0  0  0  0
   23.2349  -11.2308  -16.8971 C   0  0  0  0  0  0  0  0  0  0  0  0
   23.2529  -10.5386  -17.9651 O   0  0  0  0  0  0  0  0  0  0  0  0
   22.3492  -10.7961  -15.8858 N   0  0  0  0  0  0  0  0  0  0  0  0
   21.4507   -9.6847  -16.0935 C   0  0  1  0  0  0  0  0  0  0  0  0
   20.1205  -10.0742  -15.4657 C   0  0  0  0  0  0  0  0  0  0  0  0
   19.3870  -11.0671  -16.3372 C   0  0  0  0  0  0  0  0  0  0  0  0
   18.0457  -11.3412  -15.7062 C   0  0  0  0  0  0  0  0  0  0  0  0
   17.3197  -12.4078  -16.5056 C   0  0  0  0  0  0  0  0  0  0  0  0
   16.0960  -12.7463  -15.7884 N   0  0  0  0  0  0  0  0  0  0  0  0
   21.9723   -8.4272  -15.5166 C   0  0  0  0  0  0  0  0  0  0  0  0
   22.6092   -8.5062  -14.4375 O   0  0  0  0  0  0  0  0  0  0  0  0
   24.6308   -1.2044  -17.3670 C   0  0  0  0  0  0  0  0  0  0  0  0
   23.9043   -2.7745  -17.8226 S   0  0  0  0  0  0  0  0  0  0  0  0
   23.4253   -3.7566  -16.3936 C   0  0  0  0  0  0  0  0  0  0  0  0
   22.8184   -5.0593  -16.7316 C   0  0  0  0  0  0  0  0  0  0  0  0
   22.4326   -5.9241  -15.6118 C   0  0  2  0  0  0  0  0  0  0  0  0
   21.8017   -7.1615  -16.0946 N   0  0  0  0  0  0  0  0  0  0  0  0
   21.6216   -5.4389  -14.5250 C   0  0  0  0  0  0  0  0  0  0  0  0
   20.2562   -5.5402  -14.3377 O   0  0  0  0  0  0  0  0  0  0  0  0
   22.2089   -4.8059  -13.5647 O   0  0  0  0  0  0  0  0  0  0  0  0
  2  3  2  0
  2  1  1  0
  4  2  1  0
  5  4  1  0
  6  5  1  0
  6  7  1  6
  8  6  1  0
  8  9  2  0
 10  8  1  0
 11 10  1  0
 11 12  1  1
 13 14  1  0
 13 12  1  0
 15 14  1  0
 16 15  1  0
 17 11  1  0
 18 17  2  0
 19 20  1  0
 20 21  1  0
 22 21  1  0
 23 22  1  6
 23 24  1  0
 24 17  1  0
 25 26  1  0
 25 23  1  0
 27 25  2  0
M  END
$$$$
