QKM.pdb
     RDKit          3D

 27 26  0  0  1  0  0  0  0  0999 V2000
   26.3045  -21.7170  -18.7800 N   0  0  0  0  0  0  0  0  0  0  0  0
   27.5964  -21.2709  -18.4379 C   0  0  0  0  0  0  0  0  0  0  0  0
   28.4697  -21.1541  -19.3195 O   0  0  0  0  0  0  0  0  0  0  0  0
   27.9065  -20.9442  -17.0331 C   0  0  0  0  0  0  0  0  0  0  0  0
   26.6729  -21.0741  -16.1454 C   0  0  0  0  0  0  0  0  0  0  0  0
   26.9327  -22.0718  -15.0415 C   0  0  2  0  0  0  0  0  0  0  0  0
   27.0076  -23.4192  -15.5298 N   0  0  0  0  0  0  0  0  0  0  0  0
   25.8429  -22.0108  -14.0388 C   0  0  0  0  0  0  0  0  0  0  0  0
   24.6984  -22.5241  -14.2547 O   0  0  0  0  0  0  0  0  0  0  0  0
   26.0180  -21.3781  -12.7878 N   0  0  0  0  0  0  0  0  0  0  0  0
   24.9177  -21.1999  -11.8696 C   0  0  1  0  0  0  0  0  0  0  0  0
   25.4766  -20.4804  -10.6510 C   0  0  0  0  0  0  0  0  0  0  0  0
   24.3639  -20.0652   -9.7167 C   0  0  0  0  0  0  0  0  0  0  0  0
   23.9952  -21.2571   -8.8705 C   0  0  0  0  0  0  0  0  0  0  0  0
   22.8236  -20.8978   -7.9749 C   0  0  0  0  0  0  0  0  0  0  0  0
   22.4751  -22.0833   -7.2005 N   0  0  0  0  0  0  0  0  0  0  0  0
   23.7989  -20.4465  -12.4753 C   0  0  0  0  0  0  0  0  0  0  0  0
   24.0386  -19.2837  -12.8838 O   0  0  0  0  0  0  0  0  0  0  0  0
   22.3679  -18.1944  -17.4627 C   0  0  0  0  0  0  0  0  0  0  0  0
   20.8597  -19.1077  -17.1593 S   0  0  0  0  0  0  0  0  0  0  0  0
   20.5179  -19.3174  -15.4057 C   0  0  0  0  0  0  0  0  0  0  0  0
   21.5828  -20.0194  -14.6621 C   0  0  0  0  0  0  0  0  0  0  0  0
   21.3758  -20.2077  -13.2226 C   0  0  2  0  0  0  0  0  0  0  0  0
   22.4968  -20.9451  -12.6210 N   0  0  0  0  0  0  0  0  0  0  0  0
   20.1660  -20.7901  -12.7015 C   0  0  0  0  0  0  0  0  0  0  0  0
   18.8768  -20.2925  -12.7170 O   0  0  0  0  0  0  0  0  0  0  0  0
   20.2469  -21.9411  -12.1217 O   0  0  0  0  0  0  0  0  0  0  0  0
  2  3  2  0
  2  1  1  0
  4  2  1  0
  5  4  1  0
  6  5  1  0
  6  7  1  6
  8  6  1  0
  8  9  2  0
 10  8  1  0
 11 10  1  0
 11 12  1  1
 13 14  1  0
 13 12  1  0
 15 14  1  0
 16 15  1  0
 17 11  1  0
 18 17  2  0
 19 20  1  0
 20 21  1  0
 22 21  1  0
 23 22  1  6
 23 24  1  0
 24 17  1  0
 25 26  1  0
 25 23  1  0
 27 25  2  0
M  END
$$$$
