QKM.pdb
     RDKit          3D

 27 26  0  0  1  0  0  0  0  0999 V2000
   21.7332  -26.7143  -16.6649 N   0  0  0  0  0  0  0  0  0  0  0  0
   22.4454  -27.3225  -15.6124 C   0  0  0  0  0  0  0  0  0  0  0  0
   22.2790  -28.5325  -15.3642 O   0  0  0  0  0  0  0  0  0  0  0  0
   23.3863  -26.5191  -14.8090 C   0  0  0  0  0  0  0  0  0  0  0  0
   23.4410  -25.0742  -15.2948 C   0  0  0  0  0  0  0  0  0  0  0  0
   24.7821  -24.7923  -15.9299 C   0  0  2  0  0  0  0  0  0  0  0  0
   25.5952  -25.9703  -16.0342 N   0  0  0  0  0  0  0  0  0  0  0  0
   25.5247  -23.7967  -15.1212 C   0  0  0  0  0  0  0  0  0  0  0  0
   26.4365  -24.1385  -14.3016 O   0  0  0  0  0  0  0  0  0  0  0  0
   25.2585  -22.4125  -15.2181 N   0  0  0  0  0  0  0  0  0  0  0  0
   25.9585  -21.4486  -14.4018 C   0  0  1  0  0  0  0  0  0  0  0  0
   25.7834  -20.0955  -15.0752 C   0  0  0  0  0  0  0  0  0  0  0  0
   26.5151  -19.0174  -14.3098 C   0  0  0  0  0  0  0  0  0  0  0  0
   26.3303  -17.7147  -15.0456 C   0  0  0  0  0  0  0  0  0  0  0  0
   27.0369  -16.6035  -14.2908 C   0  0  0  0  0  0  0  0  0  0  0  0
   26.7543  -15.3487  -14.9778 N   0  0  0  0  0  0  0  0  0  0  0  0
   25.4613  -21.4272  -13.0095 C   0  0  0  0  0  0  0  0  0  0  0  0
   24.2502  -21.7012  -12.8235 O   0  0  0  0  0  0  0  0  0  0  0  0
   27.3006  -19.6636   -5.4220 C   0  0  0  0  0  0  0  0  0  0  0  0
   27.7453  -19.7253   -7.1538 S   0  0  0  0  0  0  0  0  0  0  0  0
   26.4344  -20.4038   -8.1818 C   0  0  0  0  0  0  0  0  0  0  0  0
   26.8035  -20.5680   -9.6018 C   0  0  0  0  0  0  0  0  0  0  0  0
   25.7629  -21.0674  -10.5062 C   0  0  2  0  0  0  0  0  0  0  0  0
   26.2512  -21.1222  -11.8922 N   0  0  0  0  0  0  0  0  0  0  0  0
   24.4501  -20.4766  -10.5495 C   0  0  0  0  0  0  0  0  0  0  0  0
   23.9956  -19.4054  -11.2949 O   0  0  0  0  0  0  0  0  0  0  0  0
   23.5314  -20.9828   -9.7963 O   0  0  0  0  0  0  0  0  0  0  0  0
  2  3  2  0
  2  1  1  0
  4  2  1  0
  5  4  1  0
  6  5  1  0
  6  7  1  1
  8  6  1  0
  8  9  2  0
 10  8  1  0
 11 10  1  0
 11 12  1  6
 13 14  1  0
 13 12  1  0
 15 14  1  0
 16 15  1  0
 17 11  1  0
 18 17  2  0
 19 20  1  0
 20 21  1  0
 22 21  1  0
 23 22  1  1
 23 24  1  0
 24 17  1  0
 25 26  1  0
 25 23  1  0
 27 25  2  0
M  END
$$$$
