QKM.pdb
     RDKit          3D

 27 26  0  0  1  0  0  0  0  0999 V2000
   19.5665  -19.7658  -16.6096 N   0  0  0  0  0  0  0  0  0  0  0  0
   19.9466  -19.3806  -17.9104 C   0  0  0  0  0  0  0  0  0  0  0  0
   19.1165  -18.8440  -18.6696 O   0  0  0  0  0  0  0  0  0  0  0  0
   21.3299  -19.6164  -18.3655 C   0  0  0  0  0  0  0  0  0  0  0  0
   22.1294  -20.4051  -17.3332 C   0  0  0  0  0  0  0  0  0  0  0  0
   22.5533  -19.4968  -16.2032 C   0  0  2  0  0  0  0  0  0  0  0  0
   22.8366  -18.1633  -16.6516 N   0  0  0  0  0  0  0  0  0  0  0  0
   23.7767  -20.0300  -15.5585 C   0  0  0  0  0  0  0  0  0  0  0  0
   23.8781  -21.2497  -15.2090 O   0  0  0  0  0  0  0  0  0  0  0  0
   24.8974  -19.2101  -15.2976 N   0  0  0  0  0  0  0  0  0  0  0  0
   26.0816  -19.7298  -14.6548 C   0  0  1  0  0  0  0  0  0  0  0  0
   27.2730  -19.2063  -15.4434 C   0  0  0  0  0  0  0  0  0  0  0  0
   27.2926  -19.7919  -16.8363 C   0  0  0  0  0  0  0  0  0  0  0  0
   28.4714  -19.2076  -17.5722 C   0  0  0  0  0  0  0  0  0  0  0  0
   28.4604  -19.6931  -19.0102 C   0  0  0  0  0  0  0  0  0  0  0  0
   29.5786  -19.0624  -19.7019 N   0  0  0  0  0  0  0  0  0  0  0  0
   26.1633  -19.3397  -13.2310 C   0  0  0  0  0  0  0  0  0  0  0  0
   26.0665  -18.1177  -12.9595 O   0  0  0  0  0  0  0  0  0  0  0  0
   20.2784  -19.1758   -9.5916 C   0  0  0  0  0  0  0  0  0  0  0  0
   21.3784  -19.7635  -10.8742 S   0  0  0  0  0  0  0  0  0  0  0  0
   23.0864  -19.8806  -10.3219 C   0  0  0  0  0  0  0  0  0  0  0  0
   24.0486  -20.1970  -11.3959 C   0  0  0  0  0  0  0  0  0  0  0  0
   25.4533  -20.3546  -11.0055 C   0  0  2  0  0  0  0  0  0  0  0  0
   26.3405  -20.2419  -12.1727 N   0  0  0  0  0  0  0  0  0  0  0  0
   25.9051  -21.4922  -10.2465 C   0  0  0  0  0  0  0  0  0  0  0  0
   26.4962  -22.6609  -10.6875 O   0  0  0  0  0  0  0  0  0  0  0  0
   25.7525  -21.4661   -8.9644 O   0  0  0  0  0  0  0  0  0  0  0  0
  2  3  2  0
  2  1  1  0
  4  2  1  0
  5  4  1  0
  6  5  1  0
  6  7  1  6
  8  6  1  0
  8  9  2  0
 10  8  1  0
 11 10  1  0
 11 12  1  6
 13 14  1  0
 13 12  1  0
 15 14  1  0
 16 15  1  0
 17 11  1  0
 18 17  2  0
 19 20  1  0
 20 21  1  0
 22 21  1  0
 23 22  1  6
 23 24  1  0
 24 17  1  0
 25 26  1  0
 25 23  1  0
 27 25  2  0
M  END
$$$$
