QKM.pdb
     RDKit          3D

 27 26  0  0  1  0  0  0  0  0999 V2000
   16.2187  -15.6841  -19.3557 N   0  0  0  0  0  0  0  0  0  0  0  0
   17.1119  -14.7887  -19.9765 C   0  0  0  0  0  0  0  0  0  0  0  0
   17.0802  -14.6328  -21.2127 O   0  0  0  0  0  0  0  0  0  0  0  0
   18.0817  -14.0396  -19.1552 C   0  0  0  0  0  0  0  0  0  0  0  0
   17.9770  -14.4218  -17.6822 C   0  0  0  0  0  0  0  0  0  0  0  0
   19.0466  -13.7118  -16.8863 C   0  0  2  0  0  0  0  0  0  0  0  0
   19.0372  -14.0884  -15.5015 N   0  0  0  0  0  0  0  0  0  0  0  0
   18.8421  -12.2458  -16.9608 C   0  0  0  0  0  0  0  0  0  0  0  0
   19.0949  -11.5823  -18.0173 O   0  0  0  0  0  0  0  0  0  0  0  0
   18.3547  -11.5060  -15.8602 N   0  0  0  0  0  0  0  0  0  0  0  0
   18.2396  -10.0672  -15.9071 C   0  0  1  0  0  0  0  0  0  0  0  0
   17.1381   -9.6842  -14.9298 C   0  0  0  0  0  0  0  0  0  0  0  0
   17.5806   -9.9199  -13.5043 C   0  0  0  0  0  0  0  0  0  0  0  0
   16.4297   -9.5735  -12.5944 C   0  0  0  0  0  0  0  0  0  0  0  0
   16.8542   -9.7605  -11.1493 C   0  0  0  0  0  0  0  0  0  0  0  0
   15.7072   -9.4491  -10.3043 N   0  0  0  0  0  0  0  0  0  0  0  0
   19.5130   -9.3923  -15.5767 C   0  0  0  0  0  0  0  0  0  0  0  0
   20.3140  -10.0031  -14.8273 O   0  0  0  0  0  0  0  0  0  0  0  0
   25.8074   -6.2261  -18.5684 C   0  0  0  0  0  0  0  0  0  0  0  0
   24.1659   -6.9312  -18.6625 S   0  0  0  0  0  0  0  0  0  0  0  0
   23.3073   -6.9006  -17.0821 C   0  0  0  0  0  0  0  0  0  0  0  0
   21.9462   -7.4708  -17.1226 C   0  0  0  0  0  0  0  0  0  0  0  0
   21.2023   -7.5073  -15.8594 C   0  0  2  0  0  0  0  0  0  0  0  0
   19.8796   -8.1225  -16.0443 N   0  0  0  0  0  0  0  0  0  0  0  0
   21.0042   -6.3238  -15.0630 C   0  0  0  0  0  0  0  0  0  0  0  0
   21.8453   -5.7424  -14.1333 O   0  0  0  0  0  0  0  0  0  0  0  0
   19.8925   -5.6805  -15.1975 O   0  0  0  0  0  0  0  0  0  0  0  0
  2  3  2  0
  2  1  1  0
  4  2  1  0
  5  4  1  0
  6  5  1  0
  6  7  1  1
  8  6  1  0
  8  9  2  0
 10  8  1  0
 11 10  1  0
 11 12  1  1
 13 14  1  0
 13 12  1  0
 15 14  1  0
 16 15  1  0
 17 11  1  0
 18 17  2  0
 19 20  1  0
 20 21  1  0
 22 21  1  0
 23 22  1  6
 23 24  1  0
 24 17  1  0
 25 26  1  0
 25 23  1  0
 27 25  2  0
M  END
$$$$
