QKM.pdb
     RDKit          3D

 27 26  0  0  1  0  0  0  0  0999 V2000
   21.1650  -17.9141  -16.8046 N   0  0  0  0  0  0  0  0  0  0  0  0
   22.3343  -18.6745  -17.0035 C   0  0  0  0  0  0  0  0  0  0  0  0
   23.2356  -18.2485  -17.7516 O   0  0  0  0  0  0  0  0  0  0  0  0
   22.4832  -19.9743  -16.3219 C   0  0  0  0  0  0  0  0  0  0  0  0
   21.2604  -20.3004  -15.4704 C   0  0  0  0  0  0  0  0  0  0  0  0
   20.4277  -21.3638  -16.1466 C   0  0  2  0  0  0  0  0  0  0  0  0
   19.8509  -20.9046  -17.3779 N   0  0  0  0  0  0  0  0  0  0  0  0
   19.3213  -21.7826  -15.2538 C   0  0  0  0  0  0  0  0  0  0  0  0
   18.4952  -20.9464  -14.7656 O   0  0  0  0  0  0  0  0  0  0  0  0
   19.1253  -23.1355  -14.8968 N   0  0  0  0  0  0  0  0  0  0  0  0
   18.0950  -23.5304  -13.9652 C   0  0  1  0  0  0  0  0  0  0  0  0
   17.4103  -24.7514  -14.5615 C   0  0  0  0  0  0  0  0  0  0  0  0
   16.2869  -25.2252  -13.6687 C   0  0  0  0  0  0  0  0  0  0  0  0
   15.6742  -26.4500  -14.2988 C   0  0  0  0  0  0  0  0  0  0  0  0
   14.5355  -26.9498  -13.4288 C   0  0  0  0  0  0  0  0  0  0  0  0
   13.8897  -28.0530  -14.1306 N   0  0  0  0  0  0  0  0  0  0  0  0
   18.6367  -23.8186  -12.6199 C   0  0  0  0  0  0  0  0  0  0  0  0
   19.5521  -24.6737  -12.5358 O   0  0  0  0  0  0  0  0  0  0  0  0
   22.5162  -20.7838   -6.9236 C   0  0  0  0  0  0  0  0  0  0  0  0
   21.4901  -20.6632   -8.3841 S   0  0  0  0  0  0  0  0  0  0  0  0
   20.3751  -22.0632   -8.5647 C   0  0  0  0  0  0  0  0  0  0  0  0
   19.6753  -22.1148   -9.8636 C   0  0  0  0  0  0  0  0  0  0  0  0
   18.8643  -23.3060  -10.1355 C   0  0  2  0  0  0  0  0  0  0  0  0
   18.1955  -23.2016  -11.4409 N   0  0  0  0  0  0  0  0  0  0  0  0
   17.8788  -23.7809   -9.1987 C   0  0  0  0  0  0  0  0  0  0  0  0
   18.0381  -24.6086   -8.1037 O   0  0  0  0  0  0  0  0  0  0  0  0
   16.6529  -23.4115   -9.3676 O   0  0  0  0  0  0  0  0  0  0  0  0
  2  3  2  0
  2  1  1  0
  4  2  1  0
  5  4  1  0
  6  5  1  0
  6  7  1  6
  8  6  1  0
  8  9  2  0
 10  8  1  0
 11 10  1  0
 11 12  1  6
 13 14  1  0
 13 12  1  0
 15 14  1  0
 16 15  1  0
 17 11  1  0
 18 17  2  0
 19 20  1  0
 20 21  1  0
 22 21  1  0
 23 22  1  1
 23 24  1  0
 24 17  1  0
 25 26  1  0
 25 23  1  0
 27 25  2  0
M  END
$$$$
