QKM.pdb
     RDKit          3D

 27 26  0  0  1  0  0  0  0  0999 V2000
   24.7958  -27.4401  -16.6050 N   0  0  0  0  0  0  0  0  0  0  0  0
   26.0771  -26.8929  -16.3955 C   0  0  0  0  0  0  0  0  0  0  0  0
   27.0593  -27.6451  -16.2436 O   0  0  0  0  0  0  0  0  0  0  0  0
   26.2468  -25.4280  -16.3574 C   0  0  0  0  0  0  0  0  0  0  0  0
   24.9211  -24.7074  -16.5810 C   0  0  0  0  0  0  0  0  0  0  0  0
   25.1327  -23.4947  -17.4562 C   0  0  2  0  0  0  0  0  0  0  0  0
   26.4893  -23.0278  -17.4235 N   0  0  0  0  0  0  0  0  0  0  0  0
   24.2588  -22.3865  -17.0035 C   0  0  0  0  0  0  0  0  0  0  0  0
   22.9915  -22.4989  -16.9665 O   0  0  0  0  0  0  0  0  0  0  0  0
   24.7881  -21.1441  -16.5884 N   0  0  0  0  0  0  0  0  0  0  0  0
   23.9355  -20.0778  -16.1177 C   0  0  1  0  0  0  0  0  0  0  0  0
   24.4776  -19.6499  -14.7619 C   0  0  0  0  0  0  0  0  0  0  0  0
   24.0513  -20.6195  -13.6842 C   0  0  0  0  0  0  0  0  0  0  0  0
   24.6967  -20.1932  -12.3902 C   0  0  0  0  0  0  0  0  0  0  0  0
   24.3690  -21.2029  -11.3055 C   0  0  0  0  0  0  0  0  0  0  0  0
   25.0823  -20.8058  -10.0972 N   0  0  0  0  0  0  0  0  0  0  0  0
   23.8861  -18.9414  -17.0624 C   0  0  0  0  0  0  0  0  0  0  0  0
   24.9781  -18.5159  -17.5130 O   0  0  0  0  0  0  0  0  0  0  0  0
   19.6166  -15.0986  -22.5021 C   0  0  0  0  0  0  0  0  0  0  0  0
   19.7404  -16.3396  -21.2195 S   0  0  0  0  0  0  0  0  0  0  0  0
   21.2362  -16.1709  -20.2346 C   0  0  0  0  0  0  0  0  0  0  0  0
   21.4537  -17.2697  -19.2729 C   0  0  0  0  0  0  0  0  0  0  0  0
   22.6423  -17.1807  -18.4187 C   0  0  2  0  0  0  0  0  0  0  0  0
   22.7055  -18.3138  -17.4836 N   0  0  0  0  0  0  0  0  0  0  0  0
   22.9405  -15.9948  -17.6577 C   0  0  0  0  0  0  0  0  0  0  0  0
   22.5003  -15.6268  -16.4005 O   0  0  0  0  0  0  0  0  0  0  0  0
   23.7242  -15.1151  -18.1865 O   0  0  0  0  0  0  0  0  0  0  0  0
  2  3  2  0
  2  1  1  0
  4  2  1  0
  5  4  1  0
  6  5  1  0
  6  7  1  1
  8  6  1  0
  8  9  2  0
 10  8  1  0
 11 10  1  0
 11 12  1  1
 13 14  1  0
 13 12  1  0
 15 14  1  0
 16 15  1  0
 17 11  1  0
 18 17  2  0
 19 20  1  0
 20 21  1  0
 22 21  1  0
 23 22  1  1
 23 24  1  0
 24 17  1  0
 25 26  1  0
 25 23  1  0
 27 25  2  0
M  END
$$$$
