SVR.pdb
     RDKit          3D

 25 24  0  0  1  0  0  0  0  0999 V2000
   21.4407   -3.9334  -13.0703 O   0  0  0  0  0  0  0  0  0  0  0  0
   21.0230   -5.1707  -13.6034 C   0  0  0  0  0  0  0  0  0  0  0  0
   21.7451   -5.4193  -14.9173 C   0  0  2  0  0  0  0  0  0  0  0  0
   21.2679   -4.4331  -15.8630 N   0  0  0  0  0  0  0  0  0  0  0  0
   21.4298   -6.8057  -15.3504 C   0  0  0  0  0  0  0  0  0  0  0  0
   20.4206   -6.9736  -16.0539 O   0  0  0  0  0  0  0  0  0  0  0  0
   22.7429  -11.6427  -15.5589 C   0  0  0  0  0  0  0  0  0  0  0  0
   23.1140  -10.2142  -15.2675 C   0  0  1  0  0  0  0  0  0  0  0  0
   24.2837   -9.7382  -16.0803 C   0  0  0  0  0  0  0  0  0  0  0  0
   21.9154   -9.2902  -15.3528 C   0  0  2  0  0  0  0  0  0  0  0  0
   22.2113   -7.9379  -15.0073 N   0  0  0  0  0  0  0  0  0  0  0  0
   20.8232   -9.8061  -14.4872 C   0  0  0  0  0  0  0  0  0  0  0  0
   20.9792   -9.9155  -13.2231 O   0  0  0  0  0  0  0  0  0  0  0  0
   14.7202   -5.9729  -11.3639 N   0  0  0  0  0  0  0  0  0  0  0  0
   15.8854   -6.5712  -10.8252 C   0  0  0  0  0  0  0  0  0  0  0  0
   16.4438   -6.0168   -9.8112 N   0  0  0  0  0  0  0  0  0  0  0  0
   16.4463   -7.7592  -11.3734 N   0  0  0  0  0  0  0  0  0  0  0  0
   15.7493   -8.5045  -12.3955 C   0  0  0  0  0  0  0  0  0  0  0  0
   16.4985   -9.6913  -12.8982 C   0  0  0  0  0  0  0  0  0  0  0  0
   17.7495   -9.4934  -13.6525 C   0  0  0  0  0  0  0  0  0  0  0  0
   18.4592  -10.6778  -14.1991 C   0  0  2  0  0  0  0  0  0  0  0  0
   19.5750  -10.1910  -15.0469 N   0  0  0  0  0  0  0  0  0  0  0  0
   17.6118  -11.5350  -15.0235 C   0  0  0  0  0  0  0  0  0  0  0  0
   16.6937  -12.4157  -14.4921 O   0  0  0  0  0  0  0  0  0  0  0  0
   17.6780  -11.5184  -16.3012 O   0  0  0  0  0  0  0  0  0  0  0  0
  1  2  1  0
  2  3  1  0
  3  4  1  6
  3  5  1  0
  5 11  1  0
  5  6  2  0
  8  7  1  6
  9  8  1  0
 10  8  1  0
 10 12  1  0
 10 11  1  1
 12 13  2  0
 15 17  1  0
 15 14  1  0
 16 15  2  0
 18 17  1  0
 19 18  1  0
 19 20  1  0
 21 20  1  6
 21 23  1  0
 22 21  1  0
 22 12  1  0
 23 25  2  0
 23 24  1  0
M  END
$$$$
