SVR.pdb
     RDKit          3D

 25 24  0  0  1  0  0  0  0  0999 V2000
   19.1492  -24.3342   -5.8325 O   0  0  0  0  0  0  0  0  0  0  0  0
   19.2675  -24.4614   -7.2323 C   0  0  0  0  0  0  0  0  0  0  0  0
   18.0384  -25.1707   -7.7763 C   0  0  2  0  0  0  0  0  0  0  0  0
   18.0594  -26.5228   -7.2606 N   0  0  0  0  0  0  0  0  0  0  0  0
   18.1184  -25.1384   -9.2601 C   0  0  0  0  0  0  0  0  0  0  0  0
   18.5875  -26.1350   -9.8332 O   0  0  0  0  0  0  0  0  0  0  0  0
   16.2729  -23.5565  -13.5148 C   0  0  0  0  0  0  0  0  0  0  0  0
   16.2538  -23.8587  -12.0412 C   0  0  1  0  0  0  0  0  0  0  0  0
   15.3528  -25.0089  -11.6935 C   0  0  0  0  0  0  0  0  0  0  0  0
   17.6526  -24.0077  -11.4767 C   0  0  2  0  0  0  0  0  0  0  0  0
   17.6922  -24.0414  -10.0508 N   0  0  0  0  0  0  0  0  0  0  0  0
   18.5155  -22.9079  -11.9809 C   0  0  0  0  0  0  0  0  0  0  0  0
   18.2758  -21.6894  -11.6774 O   0  0  0  0  0  0  0  0  0  0  0  0
   26.1079  -23.9086  -16.4049 N   0  0  0  0  0  0  0  0  0  0  0  0
   25.2774  -24.4366  -15.3864 C   0  0  0  0  0  0  0  0  0  0  0  0
   25.5738  -25.5823  -14.8891 N   0  0  0  0  0  0  0  0  0  0  0  0
   24.1354  -23.7365  -14.9050 N   0  0  0  0  0  0  0  0  0  0  0  0
   23.7519  -22.4651  -15.4729 C   0  0  0  0  0  0  0  0  0  0  0  0
   22.5430  -21.8599  -14.8446 C   0  0  0  0  0  0  0  0  0  0  0  0
   21.6100  -22.7180  -14.0919 C   0  0  0  0  0  0  0  0  0  0  0  0
   20.4303  -22.1004  -13.4344 C   0  0  2  0  0  0  0  0  0  0  0  0
   19.6316  -23.1864  -12.8151 N   0  0  0  0  0  0  0  0  0  0  0  0
   19.5612  -21.3768  -14.3583 C   0  0  0  0  0  0  0  0  0  0  0  0
   18.7273  -22.0103  -15.2550 O   0  0  0  0  0  0  0  0  0  0  0  0
   19.5279  -20.0981  -14.3894 O   0  0  0  0  0  0  0  0  0  0  0  0
  1  2  1  0
  2  3  1  0
  3  4  1  1
  3  5  1  0
  5 11  1  0
  5  6  2  0
  8  7  1  6
  9  8  1  0
 10  8  1  0
 10 12  1  0
 10 11  1  1
 12 13  2  0
 15 17  1  0
 15 14  1  0
 16 15  2  0
 18 17  1  0
 19 18  1  0
 19 20  1  0
 21 20  1  6
 21 23  1  0
 22 21  1  0
 22 12  1  0
 23 25  2  0
 23 24  1  0
M  END
$$$$
