SVR.pdb
     RDKit          3D

 25 24  0  0  1  0  0  0  0  0999 V2000
   27.9900  -23.2158  -16.0325 O   0  0  0  0  0  0  0  0  0  0  0  0
   27.0216  -22.5380  -15.2629 C   0  0  0  0  0  0  0  0  0  0  0  0
   26.6552  -21.2349  -15.9539 C   0  0  2  0  0  0  0  0  0  0  0  0
   27.8466  -20.4139  -15.9820 N   0  0  0  0  0  0  0  0  0  0  0  0
   25.5601  -20.6024  -15.1730 C   0  0  0  0  0  0  0  0  0  0  0  0
   25.8786  -19.8964  -14.2026 O   0  0  0  0  0  0  0  0  0  0  0  0
   23.5530  -17.8173  -15.5889 C   0  0  0  0  0  0  0  0  0  0  0  0
   22.5403  -18.9250  -15.4850 C   0  0  1  0  0  0  0  0  0  0  0  0
   21.9011  -19.2561  -16.8031 C   0  0  0  0  0  0  0  0  0  0  0  0
   23.1031  -20.1404  -14.7753 C   0  0  2  0  0  0  0  0  0  0  0  0
   24.1832  -20.7594  -15.4725 N   0  0  0  0  0  0  0  0  0  0  0  0
   22.0191  -21.1296  -14.5410 C   0  0  0  0  0  0  0  0  0  0  0  0
   21.7001  -21.9832  -15.4376 O   0  0  0  0  0  0  0  0  0  0  0  0
   16.8216  -24.8501   -8.2261 N   0  0  0  0  0  0  0  0  0  0  0  0
   18.2209  -25.0674   -8.2469 C   0  0  0  0  0  0  0  0  0  0  0  0
   18.6839  -26.1223   -7.6808 N   0  0  0  0  0  0  0  0  0  0  0  0
   19.1171  -24.1559   -8.8733 N   0  0  0  0  0  0  0  0  0  0  0  0
   18.6215  -23.0044   -9.5906 C   0  0  0  0  0  0  0  0  0  0  0  0
   18.9176  -23.0260  -11.0515 C   0  0  0  0  0  0  0  0  0  0  0  0
   20.0219  -22.2049  -11.5802 C   0  0  0  0  0  0  0  0  0  0  0  0
   20.2330  -22.1364  -13.0486 C   0  0  2  0  0  0  0  0  0  0  0  0
   21.3095  -21.1497  -13.3100 N   0  0  0  0  0  0  0  0  0  0  0  0
   19.0476  -21.7118  -13.7880 C   0  0  0  0  0  0  0  0  0  0  0  0
   18.1464  -22.6007  -14.3346 O   0  0  0  0  0  0  0  0  0  0  0  0
   18.7780  -20.4750  -13.9750 O   0  0  0  0  0  0  0  0  0  0  0  0
  1  2  1  0
  2  3  1  0
  3  4  1  1
  3  5  1  0
  5 11  1  0
  5  6  2  0
  8  7  1  6
  9  8  1  0
 10  8  1  0
 10 12  1  0
 10 11  1  6
 12 13  2  0
 15 17  1  0
 15 14  1  0
 16 15  2  0
 18 17  1  0
 19 18  1  0
 19 20  1  0
 21 20  1  1
 21 23  1  0
 22 21  1  0
 22 12  1  0
 23 25  2  0
 23 24  1  0
M  END
$$$$
