SVR.pdb
     RDKit          3D

 25 24  0  0  1  0  0  0  0  0999 V2000
   28.0615  -20.9299  -21.2824 O   0  0  0  0  0  0  0  0  0  0  0  0
   27.7596  -20.5561  -19.9563 C   0  0  0  0  0  0  0  0  0  0  0  0
   28.9003  -19.7205  -19.3995 C   0  0  2  0  0  0  0  0  0  0  0  0
   30.0340  -20.6031  -19.2253 N   0  0  0  0  0  0  0  0  0  0  0  0
   28.4449  -19.1366  -18.1108 C   0  0  0  0  0  0  0  0  0  0  0  0
   28.7893  -19.7105  -17.0651 O   0  0  0  0  0  0  0  0  0  0  0  0
   25.8437  -15.6563  -18.0091 C   0  0  0  0  0  0  0  0  0  0  0  0
   26.9114  -15.8624  -16.9695 C   0  0  1  0  0  0  0  0  0  0  0  0
   26.6020  -15.1733  -15.6714 C   0  0  0  0  0  0  0  0  0  0  0  0
   27.2567  -17.3282  -16.7968 C   0  0  2  0  0  0  0  0  0  0  0  0
   27.6454  -17.9699  -18.0104 N   0  0  0  0  0  0  0  0  0  0  0  0
   26.1047  -18.0458  -16.1916 C   0  0  0  0  0  0  0  0  0  0  0  0
   25.0781  -18.3519  -16.8892 O   0  0  0  0  0  0  0  0  0  0  0  0
   23.8726  -20.9092   -8.9634 N   0  0  0  0  0  0  0  0  0  0  0  0
   22.6759  -21.2221   -9.6530 C   0  0  0  0  0  0  0  0  0  0  0  0
   21.5857  -21.3011   -8.9801 N   0  0  0  0  0  0  0  0  0  0  0  0
   22.6515  -21.4480  -11.0582 N   0  0  0  0  0  0  0  0  0  0  0  0
   23.7898  -21.1144  -11.8822 C   0  0  0  0  0  0  0  0  0  0  0  0
   24.1852  -19.6784  -11.8178 C   0  0  0  0  0  0  0  0  0  0  0  0
   25.2366  -19.1743  -12.7198 C   0  0  0  0  0  0  0  0  0  0  0  0
   24.9432  -19.0425  -14.1696 C   0  0  2  0  0  0  0  0  0  0  0  0
   26.1178  -18.4098  -14.8181 N   0  0  0  0  0  0  0  0  0  0  0  0
   23.7748  -18.2140  -14.4542 C   0  0  0  0  0  0  0  0  0  0  0  0
   22.5333  -18.7414  -14.7402 O   0  0  0  0  0  0  0  0  0  0  0  0
   23.8403  -16.9362  -14.4573 O   0  0  0  0  0  0  0  0  0  0  0  0
  1  2  1  0
  2  3  1  0
  3  4  1  1
  3  5  1  0
  5 11  1  0
  5  6  2  0
  8  7  1  6
  9  8  1  0
 10  8  1  0
 10 12  1  0
 10 11  1  6
 12 13  2  0
 15 17  1  0
 15 14  1  0
 16 15  2  0
 18 17  1  0
 19 18  1  0
 19 20  1  0
 21 20  1  1
 21 23  1  0
 22 21  1  0
 22 12  1  0
 23 25  2  0
 23 24  1  0
M  END
$$$$
