SVR.pdb
     RDKit          3D

 25 24  0  0  1  0  0  0  0  0999 V2000
   25.3475  -26.4039  -17.7028 O   0  0  0  0  0  0  0  0  0  0  0  0
   26.6922  -26.0768  -17.9756 C   0  0  0  0  0  0  0  0  0  0  0  0
   27.3728  -25.6415  -16.6884 C   0  0  2  0  0  0  0  0  0  0  0  0
   27.4471  -26.8027  -15.8279 N   0  0  0  0  0  0  0  0  0  0  0  0
   26.5538  -24.5552  -16.0899 C   0  0  0  0  0  0  0  0  0  0  0  0
   26.1075  -24.7347  -14.9453 O   0  0  0  0  0  0  0  0  0  0  0  0
   25.2353  -19.7339  -16.2089 C   0  0  0  0  0  0  0  0  0  0  0  0
   26.0323  -20.8829  -16.7636 C   0  0  1  0  0  0  0  0  0  0  0  0
   27.5147  -20.6515  -16.6944 C   0  0  0  0  0  0  0  0  0  0  0  0
   25.6088  -22.2077  -16.1609 C   0  0  2  0  0  0  0  0  0  0  0  0
   26.2564  -23.3352  -16.7484 N   0  0  0  0  0  0  0  0  0  0  0  0
   24.1343  -22.3581  -16.2691 C   0  0  0  0  0  0  0  0  0  0  0  0
   23.5720  -22.5482  -17.4013 O   0  0  0  0  0  0  0  0  0  0  0  0
   19.0522  -25.3370   -9.9567 N   0  0  0  0  0  0  0  0  0  0  0  0
   19.7733  -25.9269  -11.0232 C   0  0  0  0  0  0  0  0  0  0  0  0
   20.1705  -27.1407  -10.8945 N   0  0  0  0  0  0  0  0  0  0  0  0
   20.0649  -25.2161  -12.2215 N   0  0  0  0  0  0  0  0  0  0  0  0
   19.4371  -23.9457  -12.5009 C   0  0  0  0  0  0  0  0  0  0  0  0
   19.9196  -23.2926  -13.7511 C   0  0  0  0  0  0  0  0  0  0  0  0
   21.3639  -23.0660  -13.9405 C   0  0  0  0  0  0  0  0  0  0  0  0
   21.8375  -22.4307  -15.1965 C   0  0  2  0  0  0  0  0  0  0  0  0
   23.3123  -22.2941  -15.1117 N   0  0  0  0  0  0  0  0  0  0  0  0
   21.2773  -21.1014  -15.4237 C   0  0  0  0  0  0  0  0  0  0  0  0
   21.8390  -19.9528  -14.9077 O   0  0  0  0  0  0  0  0  0  0  0  0
   20.2183  -20.9274  -16.1204 O   0  0  0  0  0  0  0  0  0  0  0  0
  1  2  1  0
  2  3  1  0
  3  4  1  1
  3  5  1  0
  5 11  1  0
  5  6  2  0
  8  7  1  1
  9  8  1  0
 10  8  1  0
 10 12  1  0
 10 11  1  6
 12 13  2  0
 15 17  1  0
 15 14  1  0
 16 15  2  0
 18 17  1  0
 19 18  1  0
 19 20  1  0
 21 20  1  1
 21 23  1  0
 22 21  1  0
 22 12  1  0
 23 25  2  0
 23 24  1  0
M  END
$$$$
