SVR.pdb
     RDKit          3D

 25 24  0  0  1  0  0  0  0  0999 V2000
   28.4122  -17.7935  -15.4257 O   0  0  0  0  0  0  0  0  0  0  0  0
   27.4925  -18.7712  -14.9922 C   0  0  0  0  0  0  0  0  0  0  0  0
   28.2503  -19.9234  -14.3537 C   0  0  2  0  0  0  0  0  0  0  0  0
   29.0170  -20.5655  -15.3998 N   0  0  0  0  0  0  0  0  0  0  0  0
   27.2499  -20.8427  -13.7510 C   0  0  0  0  0  0  0  0  0  0  0  0
   26.9198  -21.8440  -14.4067 O   0  0  0  0  0  0  0  0  0  0  0  0
   26.6032  -21.5570   -9.6899 C   0  0  0  0  0  0  0  0  0  0  0  0
   25.3622  -21.1916  -10.4578 C   0  0  1  0  0  0  0  0  0  0  0  0
   24.8253  -19.8384  -10.0885 C   0  0  0  0  0  0  0  0  0  0  0  0
   25.5490  -21.3695  -11.9515 C   0  0  2  0  0  0  0  0  0  0  0  0
   26.6565  -20.6410  -12.4792 N   0  0  0  0  0  0  0  0  0  0  0  0
   24.3029  -20.9802  -12.6615 C   0  0  0  0  0  0  0  0  0  0  0  0
   24.1348  -19.7889  -13.0938 O   0  0  0  0  0  0  0  0  0  0  0  0
   17.1632  -24.4226  -14.8400 N   0  0  0  0  0  0  0  0  0  0  0  0
   17.3707  -23.9181  -16.1470 C   0  0  0  0  0  0  0  0  0  0  0  0
   16.3437  -23.6618  -16.8731 N   0  0  0  0  0  0  0  0  0  0  0  0
   18.6748  -23.6901  -16.6699 N   0  0  0  0  0  0  0  0  0  0  0  0
   19.8485  -23.9222  -15.8608 C   0  0  0  0  0  0  0  0  0  0  0  0
   20.2895  -22.7335  -15.0766 C   0  0  0  0  0  0  0  0  0  0  0  0
   21.5718  -22.7782  -14.3507 C   0  0  0  0  0  0  0  0  0  0  0  0
   22.0289  -21.5714  -13.6158 C   0  0  2  0  0  0  0  0  0  0  0  0
   23.2655  -21.9270  -12.8774 N   0  0  0  0  0  0  0  0  0  0  0  0
   21.0554  -21.0767  -12.6462 C   0  0  0  0  0  0  0  0  0  0  0  0
   20.0138  -20.2411  -12.9892 O   0  0  0  0  0  0  0  0  0  0  0  0
   21.1183  -21.3928  -11.4079 O   0  0  0  0  0  0  0  0  0  0  0  0
  1  2  1  0
  2  3  1  0
  3  4  1  6
  3  5  1  0
  5 11  1  0
  5  6  2  0
  8  7  1  1
  9  8  1  0
 10  8  1  0
 10 12  1  0
 10 11  1  6
 12 13  2  0
 15 17  1  0
 15 14  1  0
 16 15  2  0
 18 17  1  0
 19 18  1  0
 19 20  1  0
 21 20  1  1
 21 23  1  0
 22 21  1  0
 22 12  1  0
 23 25  2  0
 23 24  1  0
M  END
$$$$
