SVR.pdb
     RDKit          3D

 25 24  0  0  1  0  0  0  0  0999 V2000
   33.5555  -25.2011  -13.4339 O   0  0  0  0  0  0  0  0  0  0  0  0
   32.6869  -24.6229  -14.3830 C   0  0  0  0  0  0  0  0  0  0  0  0
   32.7662  -25.4111  -15.6800 C   0  0  2  0  0  0  0  0  0  0  0  0
   34.1084  -25.2527  -16.1974 N   0  0  0  0  0  0  0  0  0  0  0  0
   31.7426  -24.8602  -16.6062 C   0  0  0  0  0  0  0  0  0  0  0  0
   32.1082  -23.9974  -17.4207 O   0  0  0  0  0  0  0  0  0  0  0  0
   29.9805  -26.5696  -19.3702 C   0  0  0  0  0  0  0  0  0  0  0  0
   28.9237  -26.0754  -18.4203 C   0  0  1  0  0  0  0  0  0  0  0  0
   28.3261  -27.1748  -17.5898 C   0  0  0  0  0  0  0  0  0  0  0  0
   29.4115  -24.9031  -17.5924 C   0  0  2  0  0  0  0  0  0  0  0  0
   30.3830  -25.2623  -16.6111 N   0  0  0  0  0  0  0  0  0  0  0  0
   28.2552  -24.2362  -16.9392 C   0  0  0  0  0  0  0  0  0  0  0  0
   27.5949  -24.8190  -16.0126 O   0  0  0  0  0  0  0  0  0  0  0  0
   22.8743  -21.2177  -12.6574 N   0  0  0  0  0  0  0  0  0  0  0  0
   22.8353  -20.1526  -13.5899 C   0  0  0  0  0  0  0  0  0  0  0  0
   21.7176  -19.5526  -13.7855 N   0  0  0  0  0  0  0  0  0  0  0  0
   23.9915  -19.7346  -14.3072 N   0  0  0  0  0  0  0  0  0  0  0  0
   24.9991  -20.6883  -14.7092 C   0  0  0  0  0  0  0  0  0  0  0  0
   26.1005  -20.1000  -15.5237 C   0  0  0  0  0  0  0  0  0  0  0  0
   27.1061  -20.9888  -16.1336 C   0  0  0  0  0  0  0  0  0  0  0  0
   26.6653  -22.2707  -16.7399 C   0  0  2  0  0  0  0  0  0  0  0  0
   27.8555  -22.9300  -17.3308 N   0  0  0  0  0  0  0  0  0  0  0  0
   25.6743  -22.1032  -17.7994 C   0  0  0  0  0  0  0  0  0  0  0  0
   24.3263  -22.3190  -17.6062 O   0  0  0  0  0  0  0  0  0  0  0  0
   26.0072  -21.7456  -18.9819 O   0  0  0  0  0  0  0  0  0  0  0  0
  1  2  1  0
  2  3  1  0
  3  4  1  6
  3  5  1  0
  5 11  1  0
  5  6  2  0
  8  7  1  1
  9  8  1  0
 10  8  1  0
 10 12  1  0
 10 11  1  1
 12 13  2  0
 15 17  1  0
 15 14  1  0
 16 15  2  0
 18 17  1  0
 19 18  1  0
 19 20  1  0
 21 20  1  6
 21 23  1  0
 22 21  1  0
 22 12  1  0
 23 25  2  0
 23 24  1  0
M  END
$$$$
