QGM.pdb
     RDKit          3D

 22 21  0  0  1  0  0  0  0  0999 V2000
   23.2282  -14.5763  -21.0519 N   0  0  0  0  0  0  0  0  0  0  0  0
   23.6212  -15.5856  -20.1206 C   0  0  0  0  0  0  0  0  0  0  0  0
   23.3574  -16.7811  -20.3993 O   0  0  0  0  0  0  0  0  0  0  0  0
   24.3136  -15.2643  -18.8745 C   0  0  0  0  0  0  0  0  0  0  0  0
   24.5589  -13.7872  -18.7744 C   0  0  0  0  0  0  0  0  0  0  0  0
   23.9115  -13.2653  -17.5196 C   0  0  2  0  0  0  0  0  0  0  0  0
   22.4738  -13.4219  -17.6957 N   0  0  0  0  0  0  0  0  0  0  0  0
   24.2662  -11.8111  -17.4089 C   0  0  0  0  0  0  0  0  0  0  0  0
   23.7894  -10.9838  -18.2230 O   0  0  0  0  0  0  0  0  0  0  0  0
   25.1318  -11.3486  -16.4006 N   0  0  0  0  0  0  0  0  0  0  0  0
   25.1309   -9.9453  -16.0368 C   0  0  0  0  0  0  0  0  0  0  0  0
   26.4273   -9.3607  -16.4403 C   0  0  0  0  0  0  0  0  0  0  0  0
   26.7719   -8.1711  -16.1817 O   0  0  0  0  0  0  0  0  0  0  0  0
   31.6744  -12.9687  -16.6183 C   0  0  0  0  0  0  0  0  0  0  0  0
   32.0369  -11.9312  -18.0473 S   0  0  0  0  0  0  0  0  0  0  0  0
   30.9333  -10.4919  -18.1421 C   0  0  0  0  0  0  0  0  0  0  0  0
   29.5867  -10.8663  -17.5598 C   0  0  0  0  0  0  0  0  0  0  0  0
   28.6018   -9.7346  -17.6683 C   0  0  2  0  0  0  0  0  0  0  0  0
   27.3331  -10.1844  -17.1581 N   0  0  0  0  0  0  0  0  0  0  0  0
   28.3983   -9.2807  -19.0502 C   0  0  0  0  0  0  0  0  0  0  0  0
   27.5172   -9.8340  -19.7523 O   0  0  0  0  0  0  0  0  0  0  0  0
   29.1356   -8.2613  -19.6297 O   0  0  0  0  0  0  0  0  0  0  0  0
  1  2  1  0
  2  3  2  0
  4  2  1  0
  4  5  1  0
  6  5  1  0
  6  8  1  0
  6  7  1  6
  8  9  2  0
 10  8  1  0
 10 11  1  0
 11 12  1  0
 12 19  1  0
 13 12  2  0
 15 14  1  0
 15 16  1  0
 17 16  1  0
 18 20  1  0
 18 17  1  6
 19 18  1  0
 20 22  1  0
 21 20  2  0
M  END
$$$$
