QGM.pdb
     RDKit          3D

 22 21  0  0  1  0  0  0  0  0999 V2000
   17.3607  -15.1922  -15.9877 N   0  0  0  0  0  0  0  0  0  0  0  0
   17.6954  -15.1462  -17.3757 C   0  0  0  0  0  0  0  0  0  0  0  0
   17.4696  -16.1666  -18.0716 O   0  0  0  0  0  0  0  0  0  0  0  0
   18.2813  -13.9587  -17.9936 C   0  0  0  0  0  0  0  0  0  0  0  0
   18.4594  -12.8696  -16.9765 C   0  0  0  0  0  0  0  0  0  0  0  0
   19.2020  -11.7231  -17.6089 C   0  0  2  0  0  0  0  0  0  0  0  0
   20.4514  -12.2681  -18.1232 N   0  0  0  0  0  0  0  0  0  0  0  0
   19.4787  -10.7220  -16.5254 C   0  0  0  0  0  0  0  0  0  0  0  0
   18.5288  -10.1271  -15.9612 O   0  0  0  0  0  0  0  0  0  0  0  0
   20.7954  -10.4318  -16.1227 N   0  0  0  0  0  0  0  0  0  0  0  0
   21.0277   -9.5318  -15.0101 C   0  0  0  0  0  0  0  0  0  0  0  0
   21.9209   -8.4472  -15.4696 C   0  0  0  0  0  0  0  0  0  0  0  0
   22.5014   -8.4446  -16.5937 O   0  0  0  0  0  0  0  0  0  0  0  0
   20.5321   -2.1017  -18.3952 C   0  0  0  0  0  0  0  0  0  0  0  0
   20.2896   -3.7425  -17.6890 S   0  0  0  0  0  0  0  0  0  0  0  0
   21.5789   -4.1618  -16.4806 C   0  0  0  0  0  0  0  0  0  0  0  0
   21.3898   -5.5976  -16.0388 C   0  0  0  0  0  0  0  0  0  0  0  0
   22.4351   -6.0126  -15.0400 C   0  0  2  0  0  0  0  0  0  0  0  0
   22.1364   -7.3492  -14.5967 N   0  0  0  0  0  0  0  0  0  0  0  0
   22.4771   -5.1427  -13.8574 C   0  0  0  0  0  0  0  0  0  0  0  0
   21.8032   -5.4536  -12.8451 O   0  0  0  0  0  0  0  0  0  0  0  0
   23.2298   -3.9815  -13.7966 O   0  0  0  0  0  0  0  0  0  0  0  0
  1  2  1  0
  2  3  2  0
  4  2  1  0
  4  5  1  0
  6  5  1  0
  6  8  1  0
  6  7  1  1
  8  9  2  0
 10  8  1  0
 10 11  1  0
 11 12  1  0
 12 19  1  0
 13 12  2  0
 15 14  1  0
 15 16  1  0
 17 16  1  0
 18 20  1  0
 18 17  1  6
 19 18  1  0
 20 22  1  0
 21 20  2  0
M  END
$$$$
