QGM.pdb
     RDKit          3D

 22 21  0  0  1  0  0  0  0  0999 V2000
   17.0319  -13.4647  -15.3779 N   0  0  0  0  0  0  0  0  0  0  0  0
   15.7455  -14.0443  -15.1548 C   0  0  0  0  0  0  0  0  0  0  0  0
   15.6955  -15.2182  -14.7122 O   0  0  0  0  0  0  0  0  0  0  0  0
   14.5084  -13.3139  -15.4224 C   0  0  0  0  0  0  0  0  0  0  0  0
   14.8105  -11.9502  -15.9714 C   0  0  0  0  0  0  0  0  0  0  0  0
   14.9904  -10.9886  -14.8273 C   0  0  2  0  0  0  0  0  0  0  0  0
   13.6545  -10.5995  -14.3953 N   0  0  0  0  0  0  0  0  0  0  0  0
   15.7314   -9.7974  -15.3610 C   0  0  0  0  0  0  0  0  0  0  0  0
   15.2899   -9.1774  -16.3586 O   0  0  0  0  0  0  0  0  0  0  0  0
   16.9246   -9.3547  -14.7608 N   0  0  0  0  0  0  0  0  0  0  0  0
   17.6931   -8.2931  -15.3806 C   0  0  0  0  0  0  0  0  0  0  0  0
   18.8275   -7.9624  -14.4924 C   0  0  0  0  0  0  0  0  0  0  0  0
   18.9335   -8.3814  -13.3033 O   0  0  0  0  0  0  0  0  0  0  0  0
   24.8291  -10.6127  -13.6428 C   0  0  0  0  0  0  0  0  0  0  0  0
   23.2734  -10.1192  -14.4083 S   0  0  0  0  0  0  0  0  0  0  0  0
   23.3487   -8.4333  -15.0795 C   0  0  0  0  0  0  0  0  0  0  0  0
   21.9777   -8.0476  -15.5934 C   0  0  0  0  0  0  0  0  0  0  0  0
   21.2321   -7.1988  -14.6004 C   0  0  2  0  0  0  0  0  0  0  0  0
   19.8530   -7.1271  -15.0071 N   0  0  0  0  0  0  0  0  0  0  0  0
   21.7498   -5.8271  -14.5140 C   0  0  0  0  0  0  0  0  0  0  0  0
   21.3556   -4.9710  -15.3429 O   0  0  0  0  0  0  0  0  0  0  0  0
   22.6623   -5.4202  -13.5545 O   0  0  0  0  0  0  0  0  0  0  0  0
  1  2  1  0
  2  3  2  0
  4  2  1  0
  4  5  1  0
  6  5  1  0
  6  8  1  0
  6  7  1  6
  8  9  2  0
 10  8  1  0
 10 11  1  0
 11 12  1  0
 12 19  1  0
 13 12  2  0
 15 14  1  0
 15 16  1  0
 17 16  1  0
 18 20  1  0
 18 17  1  6
 19 18  1  0
 20 22  1  0
 21 20  2  0
M  END
$$$$
