QGM.pdb
     RDKit          3D

 22 21  0  0  1  0  0  0  0  0999 V2000
   25.6058  -20.0840  -19.1055 N   0  0  0  0  0  0  0  0  0  0  0  0
   25.8481  -21.4912  -19.1438 C   0  0  0  0  0  0  0  0  0  0  0  0
   25.9620  -22.0405  -20.2671 O   0  0  0  0  0  0  0  0  0  0  0  0
   25.9674  -22.2914  -17.9268 C   0  0  0  0  0  0  0  0  0  0  0  0
   25.8040  -21.4274  -16.7107 C   0  0  0  0  0  0  0  0  0  0  0  0
   27.1647  -21.0379  -16.1980 C   0  0  2  0  0  0  0  0  0  0  0  0
   27.8637  -22.2775  -15.8862 N   0  0  0  0  0  0  0  0  0  0  0  0
   26.9546  -20.2316  -14.9497 C   0  0  0  0  0  0  0  0  0  0  0  0
   26.2159  -19.2175  -14.9729 O   0  0  0  0  0  0  0  0  0  0  0  0
   27.5746  -20.5914  -13.7388 N   0  0  0  0  0  0  0  0  0  0  0  0
   27.3371  -19.8039  -12.5450 C   0  0  0  0  0  0  0  0  0  0  0  0
   26.6298  -20.6524  -11.5627 C   0  0  0  0  0  0  0  0  0  0  0  0
   25.8883  -21.6266  -11.8817 O   0  0  0  0  0  0  0  0  0  0  0  0
   27.6398  -20.1806   -4.5568 C   0  0  0  0  0  0  0  0  0  0  0  0
   28.0798  -19.2199   -6.0174 S   0  0  0  0  0  0  0  0  0  0  0  0
   26.9013  -19.4680   -7.3768 C   0  0  0  0  0  0  0  0  0  0  0  0
   27.0128  -20.8953   -7.8693 C   0  0  0  0  0  0  0  0  0  0  0  0
   26.2031  -21.1160   -9.1174 C   0  0  2  0  0  0  0  0  0  0  0  0
   26.7947  -20.3532  -10.1853 N   0  0  0  0  0  0  0  0  0  0  0  0
   24.8046  -20.6893   -8.9779 C   0  0  0  0  0  0  0  0  0  0  0  0
   24.4239  -19.6422   -9.5560 O   0  0  0  0  0  0  0  0  0  0  0  0
   23.8694  -21.3884   -8.2328 O   0  0  0  0  0  0  0  0  0  0  0  0
  1  2  1  0
  2  3  2  0
  4  2  1  0
  4  5  1  0
  6  5  1  0
  6  8  1  0
  6  7  1  1
  8  9  2  0
 10  8  1  0
 10 11  1  0
 11 12  1  0
 12 19  1  0
 13 12  2  0
 15 14  1  0
 15 16  1  0
 17 16  1  0
 18 20  1  0
 18 17  1  1
 19 18  1  0
 20 22  1  0
 21 20  2  0
M  END
$$$$
