QGM.pdb
     RDKit          3D

 22 21  0  0  1  0  0  0  0  0999 V2000
   19.7503  -19.8393  -14.3417 N   0  0  0  0  0  0  0  0  0  0  0  0
   19.9044  -20.2770  -15.6927 C   0  0  0  0  0  0  0  0  0  0  0  0
   18.9790  -20.9551  -16.2030 O   0  0  0  0  0  0  0  0  0  0  0  0
   21.0921  -19.9565  -16.4815 C   0  0  0  0  0  0  0  0  0  0  0  0
   22.0108  -19.0569  -15.7076 C   0  0  0  0  0  0  0  0  0  0  0  0
   23.1913  -19.8570  -15.2256 C   0  0  2  0  0  0  0  0  0  0  0  0
   22.8532  -21.2602  -15.4237 N   0  0  0  0  0  0  0  0  0  0  0  0
   23.3585  -19.5643  -13.7631 C   0  0  0  0  0  0  0  0  0  0  0  0
   23.7215  -18.4233  -13.3875 O   0  0  0  0  0  0  0  0  0  0  0  0
   23.1143  -20.5523  -12.7913 N   0  0  0  0  0  0  0  0  0  0  0  0
   23.3192  -20.2502  -11.3883 C   0  0  0  0  0  0  0  0  0  0  0  0
   24.7679  -20.3271  -11.1041 C   0  0  0  0  0  0  0  0  0  0  0  0
   25.6415  -20.5974  -11.9783 O   0  0  0  0  0  0  0  0  0  0  0  0
   29.6910  -19.3551   -4.8900 C   0  0  0  0  0  0  0  0  0  0  0  0
   28.0380  -19.3260   -5.6084 S   0  0  0  0  0  0  0  0  0  0  0  0
   28.0523  -19.7695   -7.3696 C   0  0  0  0  0  0  0  0  0  0  0  0
   26.6321  -19.7451   -7.8938 C   0  0  0  0  0  0  0  0  0  0  0  0
   26.5769  -20.0732   -9.3607 C   0  0  2  0  0  0  0  0  0  0  0  0
   25.1979  -20.0833   -9.7737 N   0  0  0  0  0  0  0  0  0  0  0  0
   27.1535  -21.3863   -9.6777 C   0  0  0  0  0  0  0  0  0  0  0  0
   26.4415  -22.4128   -9.5552 O   0  0  0  0  0  0  0  0  0  0  0  0
   28.4582  -21.5570  -10.1105 O   0  0  0  0  0  0  0  0  0  0  0  0
  1  2  1  0
  2  3  2  0
  4  2  1  0
  4  5  1  0
  6  5  1  0
  6  8  1  0
  6  7  1  1
  8  9  2  0
 10  8  1  0
 10 11  1  0
 11 12  1  0
 12 19  1  0
 13 12  2  0
 15 14  1  0
 15 16  1  0
 17 16  1  0
 18 20  1  0
 18 17  1  1
 19 18  1  0
 20 22  1  0
 21 20  2  0
M  END
$$$$
