QGM.pdb
     RDKit          3D

 22 21  0  0  1  0  0  0  0  0999 V2000
   15.8302  -14.8908  -17.5480 N   0  0  0  0  0  0  0  0  0  0  0  0
   16.4573  -15.1529  -16.2916 C   0  0  0  0  0  0  0  0  0  0  0  0
   16.5935  -16.3499  -15.9379 O   0  0  0  0  0  0  0  0  0  0  0  0
   16.9381  -14.0787  -15.4253 C   0  0  0  0  0  0  0  0  0  0  0  0
   17.4418  -12.9270  -16.2452 C   0  0  0  0  0  0  0  0  0  0  0  0
   17.8806  -11.8215  -15.3225 C   0  0  2  0  0  0  0  0  0  0  0  0
   16.6774  -11.3164  -14.6747 N   0  0  0  0  0  0  0  0  0  0  0  0
   18.5002  -10.7522  -16.1742 C   0  0  0  0  0  0  0  0  0  0  0  0
   18.0219  -10.4930  -17.3049 O   0  0  0  0  0  0  0  0  0  0  0  0
   19.6190  -10.0247  -15.7280 N   0  0  0  0  0  0  0  0  0  0  0  0
   20.1227   -8.9190  -16.5190 C   0  0  0  0  0  0  0  0  0  0  0  0
   21.1315   -8.1961  -15.7161 C   0  0  0  0  0  0  0  0  0  0  0  0
   21.4229   -8.4939  -14.5215 O   0  0  0  0  0  0  0  0  0  0  0  0
   27.1725   -3.2010  -17.0017 C   0  0  0  0  0  0  0  0  0  0  0  0
   25.6587   -4.0064  -17.5579 S   0  0  0  0  0  0  0  0  0  0  0  0
   24.8143   -4.8780  -16.2067 C   0  0  0  0  0  0  0  0  0  0  0  0
   23.5991   -5.5885  -16.7642 C   0  0  0  0  0  0  0  0  0  0  0  0
   22.8813   -6.3754  -15.7022 C   0  0  2  0  0  0  0  0  0  0  0  0
   21.8087   -7.1070  -16.3240 N   0  0  0  0  0  0  0  0  0  0  0  0
   22.3013   -5.5276  -14.6524 C   0  0  0  0  0  0  0  0  0  0  0  0
   21.2062   -4.9525  -14.8660 O   0  0  0  0  0  0  0  0  0  0  0  0
   22.9047   -5.3246  -13.4223 O   0  0  0  0  0  0  0  0  0  0  0  0
  1  2  1  0
  2  3  2  0
  4  2  1  0
  4  5  1  0
  6  5  1  0
  6  8  1  0
  6  7  1  6
  8  9  2  0
 10  8  1  0
 10 11  1  0
 11 12  1  0
 12 19  1  0
 13 12  2  0
 15 14  1  0
 15 16  1  0
 17 16  1  0
 18 20  1  0
 18 17  1  6
 19 18  1  0
 20 22  1  0
 21 20  2  0
M  END
$$$$
