QGM.pdb
     RDKit          3D

 22 21  0  0  1  0  0  0  0  0999 V2000
   14.6026  -10.0652   -9.7947 N   0  0  0  0  0  0  0  0  0  0  0  0
   13.6219   -9.2221   -9.1883 C   0  0  0  0  0  0  0  0  0  0  0  0
   12.4507   -9.6617   -9.0804 O   0  0  0  0  0  0  0  0  0  0  0  0
   13.9455   -7.8845   -8.6968 C   0  0  0  0  0  0  0  0  0  0  0  0
   15.4250   -7.6424   -8.7650 C   0  0  0  0  0  0  0  0  0  0  0  0
   15.6872   -6.4428   -9.6356 C   0  0  2  0  0  0  0  0  0  0  0  0
   15.1244   -6.7462  -10.9447 N   0  0  0  0  0  0  0  0  0  0  0  0
   17.1763   -6.2831   -9.7345 C   0  0  0  0  0  0  0  0  0  0  0  0
   17.8432   -5.9629   -8.7210 O   0  0  0  0  0  0  0  0  0  0  0  0
   17.8500   -6.4869  -10.9530 N   0  0  0  0  0  0  0  0  0  0  0  0
   19.2908   -6.3382  -11.0142 C   0  0  0  0  0  0  0  0  0  0  0  0
   19.7259   -6.6040  -12.4018 C   0  0  0  0  0  0  0  0  0  0  0  0
   19.5023   -5.8208  -13.3699 O   0  0  0  0  0  0  0  0  0  0  0  0
   25.2566  -11.0461  -15.9464 C   0  0  0  0  0  0  0  0  0  0  0  0
   24.3519  -10.5099  -14.4823 S   0  0  0  0  0  0  0  0  0  0  0  0
   22.9437   -9.4432  -14.9040 C   0  0  0  0  0  0  0  0  0  0  0  0
   22.2520   -9.0152  -13.6269 C   0  0  0  0  0  0  0  0  0  0  0  0
   21.0818   -8.1124  -13.9060 C   0  0  2  0  0  0  0  0  0  0  0  0
   20.4339   -7.8072  -12.6573 N   0  0  0  0  0  0  0  0  0  0  0  0
   20.0849   -8.7225  -14.7955 C   0  0  0  0  0  0  0  0  0  0  0  0
   19.2206   -9.4919  -14.3092 O   0  0  0  0  0  0  0  0  0  0  0  0
   20.0454   -8.4924  -16.1608 O   0  0  0  0  0  0  0  0  0  0  0  0
  1  2  1  0
  2  3  2  0
  4  2  1  0
  4  5  1  0
  6  5  1  0
  6  8  1  0
  6  7  1  6
  8  9  2  0
 10  8  1  0
 10 11  1  0
 11 12  1  0
 12 19  1  0
 13 12  2  0
 15 14  1  0
 15 16  1  0
 17 16  1  0
 18 20  1  0
 18 17  1  1
 19 18  1  0
 20 22  1  0
 21 20  2  0
M  END
$$$$
