QGM.pdb
     RDKit          3D

 22 21  0  0  1  0  0  0  0  0999 V2000
   26.0951  -16.3962  -17.7711 N   0  0  0  0  0  0  0  0  0  0  0  0
   25.8908  -17.5369  -18.6062 C   0  0  0  0  0  0  0  0  0  0  0  0
   25.7998  -17.3531  -19.8450 O   0  0  0  0  0  0  0  0  0  0  0  0
   25.7900  -18.8892  -18.0616 C   0  0  0  0  0  0  0  0  0  0  0  0
   26.0085  -18.8763  -16.5769 C   0  0  0  0  0  0  0  0  0  0  0  0
   26.9628  -19.9815  -16.2109 C   0  0  2  0  0  0  0  0  0  0  0  0
   26.2717  -21.2356  -16.4798 N   0  0  0  0  0  0  0  0  0  0  0  0
   27.2510  -19.8513  -14.7437 C   0  0  0  0  0  0  0  0  0  0  0  0
   26.9651  -18.7899  -14.1384 O   0  0  0  0  0  0  0  0  0  0  0  0
   27.8419  -20.9052  -14.0225 N   0  0  0  0  0  0  0  0  0  0  0  0
   28.1495  -20.7335  -12.6162 C   0  0  0  0  0  0  0  0  0  0  0  0
   26.9655  -21.1394  -11.8296 C   0  0  0  0  0  0  0  0  0  0  0  0
   26.1539  -22.0383  -12.1955 O   0  0  0  0  0  0  0  0  0  0  0  0
   28.9008  -19.6041   -5.4182 C   0  0  0  0  0  0  0  0  0  0  0  0
   27.3919  -19.2375   -6.3340 S   0  0  0  0  0  0  0  0  0  0  0  0
   27.1264  -20.4003   -7.7036 C   0  0  0  0  0  0  0  0  0  0  0  0
   25.8466  -20.0288   -8.4222 C   0  0  0  0  0  0  0  0  0  0  0  0
   25.6689  -20.8254   -9.6856 C   0  0  2  0  0  0  0  0  0  0  0  0
   26.7302  -20.4803  -10.5949 N   0  0  0  0  0  0  0  0  0  0  0  0
   24.3915  -20.5570  -10.3590 C   0  0  0  0  0  0  0  0  0  0  0  0
   24.3603  -19.7340  -11.3062 O   0  0  0  0  0  0  0  0  0  0  0  0
   23.2023  -21.1707  -10.0013 O   0  0  0  0  0  0  0  0  0  0  0  0
  1  2  1  0
  2  3  2  0
  4  2  1  0
  4  5  1  0
  6  5  1  0
  6  8  1  0
  6  7  1  1
  8  9  2  0
 10  8  1  0
 10 11  1  0
 11 12  1  0
 12 19  1  0
 13 12  2  0
 15 14  1  0
 15 16  1  0
 17 16  1  0
 18 20  1  0
 18 17  1  1
 19 18  1  0
 20 22  1  0
 21 20  2  0
M  END
$$$$
