QGM.pdb
     RDKit          3D

 22 21  0  0  1  0  0  0  0  0999 V2000
   25.3742  -25.3555  -14.8482 N   0  0  0  0  0  0  0  0  0  0  0  0
   25.3122  -25.3320  -16.2751 C   0  0  0  0  0  0  0  0  0  0  0  0
   25.2695  -26.4301  -16.8825 O   0  0  0  0  0  0  0  0  0  0  0  0
   25.2947  -24.0811  -17.0304 C   0  0  0  0  0  0  0  0  0  0  0  0
   25.2320  -22.9053  -16.1000 C   0  0  0  0  0  0  0  0  0  0  0  0
   23.8080  -22.4255  -16.0095 C   0  0  2  0  0  0  0  0  0  0  0  0
   23.6591  -21.3708  -17.0034 N   0  0  0  0  0  0  0  0  0  0  0  0
   23.6139  -21.8696  -14.6289 C   0  0  0  0  0  0  0  0  0  0  0  0
   23.6981  -20.6334  -14.4311 O   0  0  0  0  0  0  0  0  0  0  0  0
   23.3363  -22.7136  -13.5377 N   0  0  0  0  0  0  0  0  0  0  0  0
   24.3221  -22.8841  -12.4885 C   0  0  0  0  0  0  0  0  0  0  0  0
   24.3703  -21.6405  -11.6909 C   0  0  0  0  0  0  0  0  0  0  0  0
   23.7843  -20.5698  -12.0237 O   0  0  0  0  0  0  0  0  0  0  0  0
   28.5073  -18.7766   -5.5176 C   0  0  0  0  0  0  0  0  0  0  0  0
   27.6451  -20.1339   -6.3325 S   0  0  0  0  0  0  0  0  0  0  0  0
   27.2420  -19.7458   -8.0603 C   0  0  0  0  0  0  0  0  0  0  0  0
   26.4259  -20.8812   -8.6412 C   0  0  0  0  0  0  0  0  0  0  0  0
   25.9072  -20.5459  -10.0127 C   0  0  2  0  0  0  0  0  0  0  0  0
   25.1177  -21.6534  -10.4844 N   0  0  0  0  0  0  0  0  0  0  0  0
   26.9779  -20.3056  -10.9889 C   0  0  0  0  0  0  0  0  0  0  0  0
   27.4881  -21.2822  -11.5901 O   0  0  0  0  0  0  0  0  0  0  0  0
   27.4627  -19.0427  -11.2869 O   0  0  0  0  0  0  0  0  0  0  0  0
  1  2  1  0
  2  3  2  0
  4  2  1  0
  4  5  1  0
  6  5  1  0
  6  8  1  0
  6  7  1  6
  8  9  2  0
 10  8  1  0
 10 11  1  0
 11 12  1  0
 12 19  1  0
 13 12  2  0
 15 14  1  0
 15 16  1  0
 17 16  1  0
 18 20  1  0
 18 17  1  1
 19 18  1  0
 20 22  1  0
 21 20  2  0
M  END
$$$$
