GHH.pdb
     RDKit          3D

 25 26  0  0  1  0  0  0  0  0999 V2000
   21.8268  -11.9606  -18.8665 N   0  0  0  0  0  0  0  0  0  0  0  0
   21.1152  -12.7512  -17.8968 C   0  0  0  0  0  0  0  0  0  0  0  0
   20.0149  -11.9378  -17.3255 C   0  0  0  0  0  0  0  0  0  0  0  0
   19.2022  -11.3060  -18.0642 O   0  0  0  0  0  0  0  0  0  0  0  0
   19.8688  -11.8650  -15.9344 N   0  0  0  0  0  0  0  0  0  0  0  0
   18.7061  -11.0529  -15.4143 C   0  0  1  0  0  0  0  0  0  0  0  0
   18.0937  -11.9283  -14.3581 C   0  0  0  0  0  0  0  0  0  0  0  0
   17.1508  -12.9566  -14.7702 C   0  0  0  0  0  0  0  0  0  0  0  0
   16.7029  -13.1804  -16.0911 C   0  0  0  0  0  0  0  0  0  0  0  0
   15.8531  -14.2060  -16.0401 N   0  0  0  0  0  0  0  0  0  0  0  0
   15.7361  -14.6401  -14.7873 C   0  0  0  0  0  0  0  0  0  0  0  0
   16.5224  -13.8748  -14.0532 N   0  0  0  0  0  0  0  0  0  0  0  0
   19.3726   -9.8372  -14.9186 C   0  0  0  0  0  0  0  0  0  0  0  0
   19.7407   -9.7883  -13.6921 O   0  0  0  0  0  0  0  0  0  0  0  0
   19.6378   -8.7224  -15.7115 N   0  0  0  0  0  0  0  0  0  0  0  0
   20.3718   -7.5471  -15.2222 C   0  0  1  0  0  0  0  0  0  0  0  0
   21.3734   -7.2147  -16.2768 C   0  0  0  0  0  0  0  0  0  0  0  0
   22.3343   -8.3343  -16.4047 C   0  0  0  0  0  0  0  0  0  0  0  0
   22.8529   -9.0952  -15.3600 C   0  0  0  0  0  0  0  0  0  0  0  0
   23.6791  -10.0000  -15.9112 N   0  0  0  0  0  0  0  0  0  0  0  0
   23.6895   -9.8279  -17.2403 C   0  0  0  0  0  0  0  0  0  0  0  0
   22.8666   -8.8098  -17.5338 N   0  0  0  0  0  0  0  0  0  0  0  0
   19.4552   -6.4612  -14.8624 C   0  0  0  0  0  0  0  0  0  0  0  0
   18.2441   -6.4693  -15.2259 O   0  0  0  0  0  0  0  0  0  0  0  0
   19.8803   -5.3848  -14.1096 O   0  0  0  0  0  0  0  0  0  0  0  0
  2  1  1  0
  3  2  1  0
  4  3  2  0
  5  3  1  0
  6 13  1  0
  6  5  1  0
  6  7  1  1
  8 12  1  0
  8  7  1  0
  9  8  2  0
 10  9  1  0
 10 11  1  0
 11 12  2  0
 13 15  1  0
 14 13  2  0
 15 16  1  0
 16 17  1  6
 16 23  1  0
 18 17  1  0
 19 18  2  0
 20 19  1  0
 21 20  1  0
 21 22  2  0
 22 18  1  0
 23 24  2  0
 23 25  1  0
M  END
$$$$
