GHH.pdb
     RDKit          3D

 25 26  0  0  1  0  0  0  0  0999 V2000
   26.2437  -12.2008  -20.4594 N   0  0  0  0  0  0  0  0  0  0  0  0
   25.1049  -11.3309  -20.3238 C   0  0  0  0  0  0  0  0  0  0  0  0
   24.7666  -11.2002  -18.8860 C   0  0  0  0  0  0  0  0  0  0  0  0
   24.1879  -12.1318  -18.2517 O   0  0  0  0  0  0  0  0  0  0  0  0
   25.0944  -10.0177  -18.2107 N   0  0  0  0  0  0  0  0  0  0  0  0
   24.7086   -9.9382  -16.7523 C   0  0  1  0  0  0  0  0  0  0  0  0
   26.0079   -9.6756  -16.0455 C   0  0  0  0  0  0  0  0  0  0  0  0
   26.9605  -10.7675  -15.9160 C   0  0  0  0  0  0  0  0  0  0  0  0
   28.2660  -10.7886  -16.4553 C   0  0  0  0  0  0  0  0  0  0  0  0
   28.8039  -11.9593  -16.1136 N   0  0  0  0  0  0  0  0  0  0  0  0
   27.9335  -12.6714  -15.4016 C   0  0  0  0  0  0  0  0  0  0  0  0
   26.8433  -11.9336  -15.3008 N   0  0  0  0  0  0  0  0  0  0  0  0
   23.7486   -8.8218  -16.7448 C   0  0  0  0  0  0  0  0  0  0  0  0
   24.0392   -7.7500  -17.3843 O   0  0  0  0  0  0  0  0  0  0  0  0
   22.5236   -8.8595  -16.0816 N   0  0  0  0  0  0  0  0  0  0  0  0
   21.5578   -7.7525  -16.1185 C   0  0  1  0  0  0  0  0  0  0  0  0
   20.2073   -8.3823  -16.1895 C   0  0  0  0  0  0  0  0  0  0  0  0
   19.9365   -8.7956  -17.5856 C   0  0  0  0  0  0  0  0  0  0  0  0
   20.7921   -8.6305  -18.6719 C   0  0  0  0  0  0  0  0  0  0  0  0
   20.1634   -9.1427  -19.7431 N   0  0  0  0  0  0  0  0  0  0  0  0
   18.9668   -9.6117  -19.3631 C   0  0  0  0  0  0  0  0  0  0  0  0
   18.8356   -9.3963  -18.0455 N   0  0  0  0  0  0  0  0  0  0  0  0
   21.7630   -6.8319  -14.9963 C   0  0  0  0  0  0  0  0  0  0  0  0
   22.1386   -7.2446  -13.8616 O   0  0  0  0  0  0  0  0  0  0  0  0
   21.5539   -5.4744  -15.1360 O   0  0  0  0  0  0  0  0  0  0  0  0
  2  1  1  0
  3  2  1  0
  4  3  2  0
  5  3  1  0
  6 13  1  0
  6  5  1  0
  6  7  1  1
  8 12  1  0
  8  7  1  0
  9  8  2  0
 10  9  1  0
 10 11  1  0
 11 12  2  0
 13 15  1  0
 14 13  2  0
 15 16  1  0
 16 17  1  1
 16 23  1  0
 18 17  1  0
 19 18  2  0
 20 19  1  0
 21 20  1  0
 21 22  2  0
 22 18  1  0
 23 24  2  0
 23 25  1  0
M  END
$$$$
