GHH.pdb
     RDKit          3D

 25 26  0  0  1  0  0  0  0  0999 V2000
   23.8479  -13.1401  -21.7813 N   0  0  0  0  0  0  0  0  0  0  0  0
   24.4274  -12.0209  -21.0860 C   0  0  0  0  0  0  0  0  0  0  0  0
   23.6960  -11.8129  -19.8131 C   0  0  0  0  0  0  0  0  0  0  0  0
   22.6401  -12.4575  -19.5398 O   0  0  0  0  0  0  0  0  0  0  0  0
   24.1835  -10.8807  -18.8882 N   0  0  0  0  0  0  0  0  0  0  0  0
   23.3595  -10.6662  -17.6405 C   0  0  1  0  0  0  0  0  0  0  0  0
   24.2800  -11.0666  -16.5227 C   0  0  0  0  0  0  0  0  0  0  0  0
   24.4780  -12.4839  -16.2610 C   0  0  0  0  0  0  0  0  0  0  0  0
   23.9376  -13.5443  -17.0220 C   0  0  0  0  0  0  0  0  0  0  0  0
   24.3537  -14.6760  -16.4538 N   0  0  0  0  0  0  0  0  0  0  0  0
   25.1134  -14.4031  -15.3954 C   0  0  0  0  0  0  0  0  0  0  0  0
   25.1687  -13.0870  -15.3064 N   0  0  0  0  0  0  0  0  0  0  0  0
   23.0470   -9.2293  -17.7171 C   0  0  0  0  0  0  0  0  0  0  0  0
   23.9843   -8.4057  -18.0091 O   0  0  0  0  0  0  0  0  0  0  0  0
   21.7768   -8.7011  -17.4950 N   0  0  0  0  0  0  0  0  0  0  0  0
   21.4778   -7.2655  -17.5906 C   0  0  1  0  0  0  0  0  0  0  0  0
   20.1337   -7.1633  -18.2299 C   0  0  0  0  0  0  0  0  0  0  0  0
   19.7783   -5.7343  -18.3881 C   0  0  0  0  0  0  0  0  0  0  0  0
   20.1865   -4.8957  -19.4221 C   0  0  0  0  0  0  0  0  0  0  0  0
   19.6404   -3.6914  -19.1843 N   0  0  0  0  0  0  0  0  0  0  0  0
   18.9196   -3.7548  -18.0563 C   0  0  0  0  0  0  0  0  0  0  0  0
   19.0085   -5.0043  -17.5762 N   0  0  0  0  0  0  0  0  0  0  0  0
   21.6038   -6.6094  -16.2858 C   0  0  0  0  0  0  0  0  0  0  0  0
   21.4036   -7.2376  -15.2068 O   0  0  0  0  0  0  0  0  0  0  0  0
   21.9478   -5.2761  -16.1847 O   0  0  0  0  0  0  0  0  0  0  0  0
  2  1  1  0
  3  2  1  0
  4  3  2  0
  5  3  1  0
  6 13  1  0
  6  5  1  0
  6  7  1  1
  8 12  1  0
  8  7  1  0
  9  8  2  0
 10  9  1  0
 10 11  1  0
 11 12  2  0
 13 15  1  0
 14 13  2  0
 15 16  1  0
 16 17  1  1
 16 23  1  0
 18 17  1  0
 19 18  2  0
 20 19  1  0
 21 20  1  0
 21 22  2  0
 22 18  1  0
 23 24  2  0
 23 25  1  0
M  END
$$$$
