GHH.pdb
     RDKit          3D

 25 26  0  0  1  0  0  0  0  0999 V2000
   22.0665   -4.0005  -20.0140 N   0  0  0  0  0  0  0  0  0  0  0  0
   22.4872   -2.8570  -19.2475 C   0  0  0  0  0  0  0  0  0  0  0  0
   22.4487   -3.2022  -17.8060 C   0  0  0  0  0  0  0  0  0  0  0  0
   23.5053   -3.2713  -17.1103 O   0  0  0  0  0  0  0  0  0  0  0  0
   21.2139   -3.4587  -17.1965 N   0  0  0  0  0  0  0  0  0  0  0  0
   21.2301   -3.7105  -15.7071 C   0  0  1  0  0  0  0  0  0  0  0  0
   20.0432   -2.9447  -15.1953 C   0  0  0  0  0  0  0  0  0  0  0  0
   20.2289   -1.5549  -14.8075 C   0  0  0  0  0  0  0  0  0  0  0  0
   21.4721   -0.8977  -14.6721 C   0  0  0  0  0  0  0  0  0  0  0  0
   21.2061    0.3555  -14.3040 N   0  0  0  0  0  0  0  0  0  0  0  0
   19.8908    0.5312  -14.1992 C   0  0  0  0  0  0  0  0  0  0  0  0
   19.3351   -0.6265  -14.5058 N   0  0  0  0  0  0  0  0  0  0  0  0
   21.1132   -5.1766  -15.6381 C   0  0  0  0  0  0  0  0  0  0  0  0
   20.2845   -5.7698  -16.4150 O   0  0  0  0  0  0  0  0  0  0  0  0
   21.8619   -5.9723  -14.7731 N   0  0  0  0  0  0  0  0  0  0  0  0
   21.7421   -7.4362  -14.7248 C   0  0  1  0  0  0  0  0  0  0  0  0
   23.0225   -7.9754  -15.2684 C   0  0  0  0  0  0  0  0  0  0  0  0
   22.9813   -9.4554  -15.2310 C   0  0  0  0  0  0  0  0  0  0  0  0
   21.8721  -10.2534  -15.4994 C   0  0  0  0  0  0  0  0  0  0  0  0
   22.2674  -11.5294  -15.3556 N   0  0  0  0  0  0  0  0  0  0  0  0
   23.5629  -11.5481  -15.0128 C   0  0  0  0  0  0  0  0  0  0  0  0
   23.9915  -10.2791  -14.9387 N   0  0  0  0  0  0  0  0  0  0  0  0
   21.3889   -7.8954  -13.3783 C   0  0  0  0  0  0  0  0  0  0  0  0
   21.7988   -7.2931  -12.3447 O   0  0  0  0  0  0  0  0  0  0  0  0
   20.5919   -9.0063  -13.1863 O   0  0  0  0  0  0  0  0  0  0  0  0
  2  1  1  0
  3  2  1  0
  4  3  2  0
  5  3  1  0
  6 13  1  0
  6  5  1  0
  6  7  1  1
  8 12  1  0
  8  7  1  0
  9  8  2  0
 10  9  1  0
 10 11  1  0
 11 12  2  0
 13 15  1  0
 14 13  2  0
 15 16  1  0
 16 17  1  1
 16 23  1  0
 18 17  1  0
 19 18  2  0
 20 19  1  0
 21 20  1  0
 21 22  2  0
 22 18  1  0
 23 24  2  0
 23 25  1  0
M  END
$$$$
