GHH.pdb
     RDKit          3D

 25 26  0  0  1  0  0  0  0  0999 V2000
   19.9702  -29.3040  -13.9486 N   0  0  0  0  0  0  0  0  0  0  0  0
   20.0020  -29.3757  -12.5113 C   0  0  0  0  0  0  0  0  0  0  0  0
   20.8279  -30.5380  -12.1046 C   0  0  0  0  0  0  0  0  0  0  0  0
   21.2769  -31.3644  -12.9536 O   0  0  0  0  0  0  0  0  0  0  0  0
   21.1202  -30.7286  -10.7481 N   0  0  0  0  0  0  0  0  0  0  0  0
   21.9658  -31.9301  -10.3970 C   0  0  1  0  0  0  0  0  0  0  0  0
   23.3240  -31.5916  -10.9426 C   0  0  0  0  0  0  0  0  0  0  0  0
   24.4047  -32.5475  -10.7559 C   0  0  0  0  0  0  0  0  0  0  0  0
   24.3206  -33.7509  -10.0209 C   0  0  0  0  0  0  0  0  0  0  0  0
   25.5185  -34.3308  -10.0949 N   0  0  0  0  0  0  0  0  0  0  0  0
   26.3448  -33.5809  -10.8207 C   0  0  0  0  0  0  0  0  0  0  0  0
   25.6510  -32.5240  -11.2008 N   0  0  0  0  0  0  0  0  0  0  0  0
   21.8653  -31.9630   -8.9284 C   0  0  0  0  0  0  0  0  0  0  0  0
   21.8452  -30.8558   -8.2835 O   0  0  0  0  0  0  0  0  0  0  0  0
   21.7835  -33.1386   -8.1848 N   0  0  0  0  0  0  0  0  0  0  0  0
   21.6282  -33.1536   -6.7236 C   0  0  1  0  0  0  0  0  0  0  0  0
   20.5092  -34.0972   -6.4350 C   0  0  0  0  0  0  0  0  0  0  0  0
   19.2254  -33.3612   -6.4940 C   0  0  0  0  0  0  0  0  0  0  0  0
   19.0660  -32.0098   -6.7897 C   0  0  0  0  0  0  0  0  0  0  0  0
   17.7481  -31.7537   -6.7387 N   0  0  0  0  0  0  0  0  0  0  0  0
   17.0966  -32.8825   -6.4264 C   0  0  0  0  0  0  0  0  0  0  0  0
   18.0046  -33.8589   -6.2786 N   0  0  0  0  0  0  0  0  0  0  0  0
   22.8973  -33.4626   -6.0584 C   0  0  0  0  0  0  0  0  0  0  0  0
   23.8788  -33.9424   -6.6950 O   0  0  0  0  0  0  0  0  0  0  0  0
   23.0704  -33.2402   -4.7068 O   0  0  0  0  0  0  0  0  0  0  0  0
  2  1  1  0
  3  2  1  0
  4  3  2  0
  5  3  1  0
  6 13  1  0
  6  5  1  0
  6  7  1  1
  8 12  1  0
  8  7  1  0
  9  8  2  0
 10  9  1  0
 10 11  1  0
 11 12  2  0
 13 15  1  0
 14 13  2  0
 15 16  1  0
 16 17  1  6
 16 23  1  0
 18 17  1  0
 19 18  2  0
 20 19  1  0
 21 20  1  0
 21 22  2  0
 22 18  1  0
 23 24  2  0
 23 25  1  0
M  END
$$$$
