GHH.pdb
     RDKit          3D

 25 26  0  0  1  0  0  0  0  0999 V2000
   25.7974  -23.7114  -16.4255 N   0  0  0  0  0  0  0  0  0  0  0  0
   25.1087  -22.4492  -16.3593 C   0  0  0  0  0  0  0  0  0  0  0  0
   23.9931  -22.5590  -15.3888 C   0  0  0  0  0  0  0  0  0  0  0  0
   23.6660  -23.6697  -14.8744 O   0  0  0  0  0  0  0  0  0  0  0  0
   23.2818  -21.4068  -15.0305 N   0  0  0  0  0  0  0  0  0  0  0  0
   22.2136  -21.5679  -13.9746 C   0  0  1  0  0  0  0  0  0  0  0  0
   22.6577  -20.6576  -12.8651 C   0  0  0  0  0  0  0  0  0  0  0  0
   23.7467  -21.0929  -12.0043 C   0  0  0  0  0  0  0  0  0  0  0  0
   24.4413  -22.3182  -12.1125 C   0  0  0  0  0  0  0  0  0  0  0  0
   25.3556  -22.3285  -11.1427 N   0  0  0  0  0  0  0  0  0  0  0  0
   25.2850  -21.2023  -10.4366 C   0  0  0  0  0  0  0  0  0  0  0  0
   24.3156  -20.4857  -10.9750 N   0  0  0  0  0  0  0  0  0  0  0  0
   21.0001  -21.1434  -14.6924 C   0  0  0  0  0  0  0  0  0  0  0  0
   21.0654  -20.1318  -15.4763 O   0  0  0  0  0  0  0  0  0  0  0  0
   19.7685  -21.7847  -14.5762 N   0  0  0  0  0  0  0  0  0  0  0  0
   18.5829  -21.3897  -15.3495 C   0  0  1  0  0  0  0  0  0  0  0  0
   17.9016  -22.6578  -15.7413 C   0  0  0  0  0  0  0  0  0  0  0  0
   16.7555  -22.3410  -16.6241 C   0  0  0  0  0  0  0  0  0  0  0  0
   16.4933  -21.1101  -17.2202 C   0  0  0  0  0  0  0  0  0  0  0  0
   15.3659  -21.2573  -17.9360 N   0  0  0  0  0  0  0  0  0  0  0  0
   14.9282  -22.5173  -17.8054 C   0  0  0  0  0  0  0  0  0  0  0  0
   15.7811  -23.1724  -17.0035 N   0  0  0  0  0  0  0  0  0  0  0  0
   17.7557  -20.4374  -14.6029 C   0  0  0  0  0  0  0  0  0  0  0  0
   17.6002  -20.5343  -13.3517 O   0  0  0  0  0  0  0  0  0  0  0  0
   17.1130  -19.3942  -15.2392 O   0  0  0  0  0  0  0  0  0  0  0  0
  2  1  1  0
  3  2  1  0
  4  3  2  0
  5  3  1  0
  6 13  1  0
  6  5  1  0
  6  7  1  1
  8 12  1  0
  8  7  1  0
  9  8  2  0
 10  9  1  0
 10 11  1  0
 11 12  2  0
 13 15  1  0
 14 13  2  0
 15 16  1  0
 16 17  1  1
 16 23  1  0
 18 17  1  0
 19 18  2  0
 20 19  1  0
 21 20  1  0
 21 22  2  0
 22 18  1  0
 23 24  2  0
 23 25  1  0
M  END
$$$$
