QGW.pdb
     RDKit          3D

 28 29  0  0  1  0  0  0  0  0999 V2000
   22.6006  -18.0395  -14.4793 N   0  0  0  0  0  0  0  0  0  0  0  0
   22.8703  -17.1567  -15.5669 C   0  0  0  0  0  0  0  0  0  0  0  0
   21.9283  -16.5340  -16.1181 O   0  0  0  0  0  0  0  0  0  0  0  0
   24.2598  -16.9760  -16.0390 C   0  0  0  0  0  0  0  0  0  0  0  0
   25.3061  -17.7143  -15.3032 C   0  0  0  0  0  0  0  0  0  0  0  0
   26.7130  -17.5653  -15.7637 C   0  0  2  0  0  0  0  0  0  0  0  0
   26.9906  -17.8628  -17.1163 N   0  0  0  0  0  0  0  0  0  0  0  0
   27.6649  -18.1846  -14.7841 C   0  0  0  0  0  0  0  0  0  0  0  0
   27.6755  -17.6935  -13.6301 O   0  0  0  0  0  0  0  0  0  0  0  0
   28.5296  -19.2566  -15.0649 N   0  0  0  0  0  0  0  0  0  0  0  0
   28.0798  -20.6071  -15.3228 C   0  0  0  0  0  0  0  0  0  0  0  0
   27.7722  -21.3397  -14.0635 C   0  0  0  0  0  0  0  0  0  0  0  0
   28.1298  -22.5363  -13.9190 O   0  0  0  0  0  0  0  0  0  0  0  0
   27.0711  -20.6879  -13.0169 N   0  0  0  0  0  0  0  0  0  0  0  0
   26.3711  -21.4203  -11.9623 C   0  0  1  0  0  0  0  0  0  0  0  0
   27.3259  -21.5008  -10.8089 C   0  0  0  0  0  0  0  0  0  0  0  0
   26.9355  -20.8566   -9.5642 C   0  0  0  0  0  0  0  0  0  0  0  0
   25.6460  -20.3460   -9.3482 C   0  0  0  0  0  0  0  0  0  0  0  0
   25.6040  -19.7853   -8.1323 N   0  0  0  0  0  0  0  0  0  0  0  0
   26.7917  -19.8934   -7.5243 C   0  0  0  0  0  0  0  0  0  0  0  0
   27.2542  -19.4977   -6.2741 C   0  0  0  0  0  0  0  0  0  0  0  0
   28.5498  -19.7589   -5.8848 C   0  0  0  0  0  0  0  0  0  0  0  0
   29.3625  -20.4250   -6.7821 C   0  0  0  0  0  0  0  0  0  0  0  0
   28.9192  -20.8221   -8.0227 C   0  0  0  0  0  0  0  0  0  0  0  0
   27.6128  -20.5557   -8.4103 C   0  0  0  0  0  0  0  0  0  0  0  0
   25.1130  -20.8086  -11.5860 C   0  0  0  0  0  0  0  0  0  0  0  0
   24.0891  -21.6481  -11.0989 O   0  0  0  0  0  0  0  0  0  0  0  0
   24.8641  -19.5998  -11.6587 O   0  0  0  0  0  0  0  0  0  0  0  0
  2  1  1  0
  3  2  2  0
  4  2  1  0
  5  4  1  0
  6  5  1  0
  6  7  1  6
  8  6  1  0
  8  9  2  0
 10  8  1  0
 11 10  1  0
 11 12  1  0
 12 14  1  0
 13 12  2  0
 14 15  1  0
 15 26  1  0
 16 17  1  0
 15 16  1  1
 17 18  2  0
 19 18  1  0
 20 19  1  0
 21 20  2  0
 22 21  1  0
 23 22  2  0
 23 24  1  0
 24 25  2  0
 25 20  1  0
 25 17  1  0
 26 28  2  0
 26 27  1  0
M  END
$$$$
