QGW.pdb
     RDKit          3D

 28 29  0  0  1  0  0  0  0  0999 V2000
   22.9791  -22.2300  -15.5216 N   0  0  0  0  0  0  0  0  0  0  0  0
   21.6268  -22.1061  -15.0847 C   0  0  0  0  0  0  0  0  0  0  0  0
   20.7542  -22.9036  -15.5107 O   0  0  0  0  0  0  0  0  0  0  0  0
   21.2585  -21.0401  -14.1285 C   0  0  0  0  0  0  0  0  0  0  0  0
   22.3547  -20.1672  -13.6619 C   0  0  0  0  0  0  0  0  0  0  0  0
   22.5374  -18.8587  -14.3463 C   0  0  2  0  0  0  0  0  0  0  0  0
   22.1392  -18.7697  -15.6984 N   0  0  0  0  0  0  0  0  0  0  0  0
   23.8957  -18.2908  -14.0606 C   0  0  0  0  0  0  0  0  0  0  0  0
   24.2245  -18.2117  -12.8528 O   0  0  0  0  0  0  0  0  0  0  0  0
   24.8081  -17.8491  -15.0344 N   0  0  0  0  0  0  0  0  0  0  0  0
   26.1283  -17.3424  -14.7292 C   0  0  0  0  0  0  0  0  0  0  0  0
   27.0643  -18.4322  -14.3378 C   0  0  0  0  0  0  0  0  0  0  0  0
   28.3073  -18.2692  -14.4331 O   0  0  0  0  0  0  0  0  0  0  0  0
   26.5555  -19.6645  -13.8538 N   0  0  0  0  0  0  0  0  0  0  0  0
   27.3692  -20.8772  -13.7780 C   0  0  1  0  0  0  0  0  0  0  0  0
   28.0891  -20.8125  -12.4642 C   0  0  0  0  0  0  0  0  0  0  0  0
   27.2826  -20.7073  -11.2579 C   0  0  0  0  0  0  0  0  0  0  0  0
   25.8805  -20.7695  -11.2771 C   0  0  0  0  0  0  0  0  0  0  0  0
   25.4260  -20.6067  -10.0274 N   0  0  0  0  0  0  0  0  0  0  0  0
   26.4450  -20.4404   -9.1754 C   0  0  0  0  0  0  0  0  0  0  0  0
   26.5066  -20.2539   -7.7988 C   0  0  0  0  0  0  0  0  0  0  0  0
   27.7188  -20.1277   -7.1564 C   0  0  0  0  0  0  0  0  0  0  0  0
   28.8606  -20.1939   -7.9318 C   0  0  0  0  0  0  0  0  0  0  0  0
   28.8154  -20.3774   -9.2948 C   0  0  0  0  0  0  0  0  0  0  0  0
   27.5910  -20.5031   -9.9373 C   0  0  0  0  0  0  0  0  0  0  0  0
   26.5911  -22.0916  -13.9133 C   0  0  0  0  0  0  0  0  0  0  0  0
   27.2858  -23.3176  -13.9847 O   0  0  0  0  0  0  0  0  0  0  0  0
   25.3571  -22.1388  -13.9716 O   0  0  0  0  0  0  0  0  0  0  0  0
  2  1  1  0
  3  2  2  0
  4  2  1  0
  5  4  1  0
  6  5  1  0
  6  7  1  6
  8  6  1  0
  8  9  2  0
 10  8  1  0
 11 10  1  0
 11 12  1  0
 12 14  1  0
 13 12  2  0
 14 15  1  0
 15 26  1  0
 16 17  1  0
 15 16  1  1
 17 18  2  0
 19 18  1  0
 20 19  1  0
 21 20  2  0
 22 21  1  0
 23 22  2  0
 23 24  1  0
 24 25  2  0
 25 20  1  0
 25 17  1  0
 26 28  2  0
 26 27  1  0
M  END
$$$$
