QGW.pdb
     RDKit          3D

 28 29  0  0  1  0  0  0  0  0999 V2000
   23.3167  -16.0688  -15.0745 N   0  0  0  0  0  0  0  0  0  0  0  0
   23.5705  -16.0615  -16.4783 C   0  0  0  0  0  0  0  0  0  0  0  0
   22.6958  -15.6328  -17.2719 O   0  0  0  0  0  0  0  0  0  0  0  0
   24.8652  -16.5564  -16.9931 C   0  0  0  0  0  0  0  0  0  0  0  0
   25.8258  -17.0548  -15.9882 C   0  0  0  0  0  0  0  0  0  0  0  0
   26.3063  -18.4565  -16.1245 C   0  0  2  0  0  0  0  0  0  0  0  0
   25.3320  -19.4784  -16.1604 N   0  0  0  0  0  0  0  0  0  0  0  0
   27.4509  -18.7226  -15.1926 C   0  0  0  0  0  0  0  0  0  0  0  0
   28.3881  -17.8892  -15.2082 O   0  0  0  0  0  0  0  0  0  0  0  0
   27.5440  -19.8206  -14.3201 N   0  0  0  0  0  0  0  0  0  0  0  0
   27.8269  -19.7033  -12.9063 C   0  0  0  0  0  0  0  0  0  0  0  0
   27.0438  -20.6804  -12.1006 C   0  0  0  0  0  0  0  0  0  0  0  0
   26.3605  -21.5707  -12.6673 O   0  0  0  0  0  0  0  0  0  0  0  0
   27.0655  -20.6108  -10.6842 N   0  0  0  0  0  0  0  0  0  0  0  0
   26.1939  -21.4291   -9.8420 C   0  0  1  0  0  0  0  0  0  0  0  0
   26.9824  -21.7366   -8.6041 C   0  0  0  0  0  0  0  0  0  0  0  0
   27.3747  -20.6187   -7.7596 C   0  0  0  0  0  0  0  0  0  0  0  0
   27.0278  -19.2906   -8.0526 C   0  0  0  0  0  0  0  0  0  0  0  0
   27.5598  -18.4913   -7.1182 N   0  0  0  0  0  0  0  0  0  0  0  0
   28.2412  -19.2106   -6.2181 C   0  0  0  0  0  0  0  0  0  0  0  0
   28.9475  -18.8667   -5.0708 C   0  0  0  0  0  0  0  0  0  0  0  0
   29.5518  -19.8331   -4.2967 C   0  0  0  0  0  0  0  0  0  0  0  0
   29.4269  -21.1470   -4.7058 C   0  0  0  0  0  0  0  0  0  0  0  0
   28.7319  -21.5025   -5.8389 C   0  0  0  0  0  0  0  0  0  0  0  0
   28.1255  -20.5245   -6.6158 C   0  0  0  0  0  0  0  0  0  0  0  0
   24.9321  -20.7858   -9.5380 C   0  0  0  0  0  0  0  0  0  0  0  0
   24.7200  -19.4804  -10.0296 O   0  0  0  0  0  0  0  0  0  0  0  0
   24.0196  -21.2942   -8.8767 O   0  0  0  0  0  0  0  0  0  0  0  0
  2  1  1  0
  3  2  2  0
  4  2  1  0
  5  4  1  0
  6  5  1  0
  6  7  1  1
  8  6  1  0
  8  9  2  0
 10  8  1  0
 11 10  1  0
 11 12  1  0
 12 14  1  0
 13 12  2  0
 14 15  1  0
 15 26  1  0
 16 17  1  0
 15 16  1  1
 17 18  2  0
 19 18  1  0
 20 19  1  0
 21 20  2  0
 22 21  1  0
 23 22  2  0
 23 24  1  0
 24 25  2  0
 25 20  1  0
 25 17  1  0
 26 28  2  0
 26 27  1  0
M  END
$$$$
