QGW.pdb
     RDKit          3D

 28 29  0  0  1  0  0  0  0  0999 V2000
   26.0174  -14.9468  -17.7172 N   0  0  0  0  0  0  0  0  0  0  0  0
   25.2546  -14.2802  -16.7128 C   0  0  0  0  0  0  0  0  0  0  0  0
   24.3001  -13.5326  -17.0428 O   0  0  0  0  0  0  0  0  0  0  0  0
   25.5896  -14.4750  -15.2860 C   0  0  0  0  0  0  0  0  0  0  0  0
   26.6778  -15.4286  -14.9898 C   0  0  0  0  0  0  0  0  0  0  0  0
   26.4513  -16.8620  -15.3180 C   0  0  2  0  0  0  0  0  0  0  0  0
   25.3915  -17.5219  -14.6575 N   0  0  0  0  0  0  0  0  0  0  0  0
   27.7455  -17.6199  -15.3258 C   0  0  0  0  0  0  0  0  0  0  0  0
   28.6318  -17.2021  -16.1086 O   0  0  0  0  0  0  0  0  0  0  0  0
   28.0279  -18.7448  -14.5317 N   0  0  0  0  0  0  0  0  0  0  0  0
   28.3602  -20.0462  -15.0691 C   0  0  0  0  0  0  0  0  0  0  0  0
   27.7996  -21.1487  -14.2400 C   0  0  0  0  0  0  0  0  0  0  0  0
   27.9927  -22.3487  -14.5612 O   0  0  0  0  0  0  0  0  0  0  0  0
   27.0419  -20.8484  -13.0792 N   0  0  0  0  0  0  0  0  0  0  0  0
   25.9239  -21.6782  -12.6321 C   0  0  1  0  0  0  0  0  0  0  0  0
   26.3298  -22.2400  -11.3023 C   0  0  0  0  0  0  0  0  0  0  0  0
   26.4400  -21.3148  -10.1849 C   0  0  0  0  0  0  0  0  0  0  0  0
   25.4434  -20.3748   -9.8794 C   0  0  0  0  0  0  0  0  0  0  0  0
   25.8456  -19.6484   -8.8280 N   0  0  0  0  0  0  0  0  0  0  0  0
   27.0534  -20.0507   -8.4141 C   0  0  0  0  0  0  0  0  0  0  0  0
   27.8828  -19.6412   -7.3759 C   0  0  0  0  0  0  0  0  0  0  0  0
   29.0959  -20.2563   -7.1559 C   0  0  0  0  0  0  0  0  0  0  0  0
   29.4497  -21.2884   -8.0037 C   0  0  0  0  0  0  0  0  0  0  0  0
   28.6399  -21.7043   -9.0355 C   0  0  0  0  0  0  0  0  0  0  0  0
   27.4188  -21.0804   -9.2533 C   0  0  0  0  0  0  0  0  0  0  0  0
   24.6728  -20.9518  -12.5573 C   0  0  0  0  0  0  0  0  0  0  0  0
   24.7055  -19.5559  -12.7601 O   0  0  0  0  0  0  0  0  0  0  0  0
   23.5705  -21.4624  -12.3280 O   0  0  0  0  0  0  0  0  0  0  0  0
  2  1  1  0
  3  2  2  0
  4  2  1  0
  5  4  1  0
  6  5  1  0
  6  7  1  1
  8  6  1  0
  8  9  2  0
 10  8  1  0
 11 10  1  0
 11 12  1  0
 12 14  1  0
 13 12  2  0
 14 15  1  0
 15 26  1  0
 16 17  1  0
 15 16  1  1
 17 18  2  0
 19 18  1  0
 20 19  1  0
 21 20  2  0
 22 21  1  0
 23 22  2  0
 23 24  1  0
 24 25  2  0
 25 20  1  0
 25 17  1  0
 26 28  2  0
 26 27  1  0
M  END
$$$$
