QGW.pdb
     RDKit          3D

 28 29  0  0  1  0  0  0  0  0999 V2000
   25.6712  -14.5961  -17.6344 N   0  0  0  0  0  0  0  0  0  0  0  0
   25.6689  -13.9130  -16.3820 C   0  0  0  0  0  0  0  0  0  0  0  0
   25.0059  -12.8543  -16.2459 O   0  0  0  0  0  0  0  0  0  0  0  0
   26.4457  -14.4567  -15.2475 C   0  0  0  0  0  0  0  0  0  0  0  0
   27.2225  -15.6850  -15.5103 C   0  0  0  0  0  0  0  0  0  0  0  0
   26.4854  -16.9771  -15.5428 C   0  0  2  0  0  0  0  0  0  0  0  0
   25.2903  -17.0643  -14.7951 N   0  0  0  0  0  0  0  0  0  0  0  0
   27.4226  -18.1324  -15.3519 C   0  0  0  0  0  0  0  0  0  0  0  0
   28.4233  -18.1694  -16.1070 O   0  0  0  0  0  0  0  0  0  0  0  0
   27.2596  -19.1569  -14.4035 N   0  0  0  0  0  0  0  0  0  0  0  0
   28.1416  -20.2983  -14.2923 C   0  0  0  0  0  0  0  0  0  0  0  0
   27.8524  -21.1067  -13.0758 C   0  0  0  0  0  0  0  0  0  0  0  0
   28.4904  -22.1658  -12.8483 O   0  0  0  0  0  0  0  0  0  0  0  0
   26.8514  -20.6835  -12.1643 N   0  0  0  0  0  0  0  0  0  0  0  0
   26.0077  -21.6244  -11.4285 C   0  0  1  0  0  0  0  0  0  0  0  0
   26.7089  -21.8812  -10.1281 C   0  0  0  0  0  0  0  0  0  0  0  0
   26.7584  -20.7939   -9.1627 C   0  0  0  0  0  0  0  0  0  0  0  0
   25.7870  -19.7821   -9.1117 C   0  0  0  0  0  0  0  0  0  0  0  0
   26.1229  -18.9118   -8.1502 N   0  0  0  0  0  0  0  0  0  0  0  0
   27.2627  -19.2858   -7.5561 C   0  0  0  0  0  0  0  0  0  0  0  0
   28.0081  -18.7455   -6.5140 C   0  0  0  0  0  0  0  0  0  0  0  0
   29.1608  -19.3605   -6.0768 C   0  0  0  0  0  0  0  0  0  0  0  0
   29.5410  -20.5269   -6.7126 C   0  0  0  0  0  0  0  0  0  0  0  0
   28.8141  -21.0731   -7.7455 C   0  0  0  0  0  0  0  0  0  0  0  0
   27.6536  -20.4487   -8.1827 C   0  0  0  0  0  0  0  0  0  0  0  0
   24.6564  -21.1407  -11.2322 C   0  0  0  0  0  0  0  0  0  0  0  0
   23.7209  -22.0145  -10.6389 O   0  0  0  0  0  0  0  0  0  0  0  0
   24.2554  -20.0142  -11.5461 O   0  0  0  0  0  0  0  0  0  0  0  0
  2  1  1  0
  3  2  2  0
  4  2  1  0
  5  4  1  0
  6  5  1  0
  6  7  1  1
  8  6  1  0
  8  9  2  0
 10  8  1  0
 11 10  1  0
 11 12  1  0
 12 14  1  0
 13 12  2  0
 14 15  1  0
 15 26  1  0
 16 17  1  0
 15 16  1  1
 17 18  2  0
 19 18  1  0
 20 19  1  0
 21 20  2  0
 22 21  1  0
 23 22  2  0
 23 24  1  0
 24 25  2  0
 25 20  1  0
 25 17  1  0
 26 28  2  0
 26 27  1  0
M  END
$$$$
