QGW.pdb
     RDKit          3D

 28 29  0  0  1  0  0  0  0  0999 V2000
   27.0481  -19.7491  -19.5144 N   0  0  0  0  0  0  0  0  0  0  0  0
   26.3483  -18.5361  -19.7864 C   0  0  0  0  0  0  0  0  0  0  0  0
   25.8595  -18.3358  -20.9264 O   0  0  0  0  0  0  0  0  0  0  0  0
   26.1988  -17.5202  -18.7225 C   0  0  0  0  0  0  0  0  0  0  0  0
   26.7586  -17.8648  -17.4001 C   0  0  0  0  0  0  0  0  0  0  0  0
   25.9178  -18.6813  -16.4833 C   0  0  2  0  0  0  0  0  0  0  0  0
   24.5473  -18.3525  -16.3903 N   0  0  0  0  0  0  0  0  0  0  0  0
   26.6004  -18.8755  -15.1621 C   0  0  0  0  0  0  0  0  0  0  0  0
   27.6865  -19.5025  -15.1823 O   0  0  0  0  0  0  0  0  0  0  0  0
   26.1161  -18.4126  -13.9265 N   0  0  0  0  0  0  0  0  0  0  0  0
   26.8212  -18.5751  -12.6738 C   0  0  0  0  0  0  0  0  0  0  0  0
   26.2974  -19.7257  -11.8872 C   0  0  0  0  0  0  0  0  0  0  0  0
   25.3367  -20.4101  -12.3223 O   0  0  0  0  0  0  0  0  0  0  0  0
   26.8824  -20.0559  -10.6380 N   0  0  0  0  0  0  0  0  0  0  0  0
   26.4472  -21.2039   -9.8435 C   0  0  1  0  0  0  0  0  0  0  0  0
   27.5208  -21.4324   -8.8218 C   0  0  0  0  0  0  0  0  0  0  0  0
   27.6392  -20.4661   -7.7406 C   0  0  0  0  0  0  0  0  0  0  0  0
   26.9882  -19.2228   -7.7620 C   0  0  0  0  0  0  0  0  0  0  0  0
   27.3177  -18.5461   -6.6537 N   0  0  0  0  0  0  0  0  0  0  0  0
   28.1508  -19.2674   -5.8937 C   0  0  0  0  0  0  0  0  0  0  0  0
   28.7574  -19.0287   -4.6655 C   0  0  0  0  0  0  0  0  0  0  0  0
   29.5737  -19.9745   -4.0848 C   0  0  0  0  0  0  0  0  0  0  0  0
   29.7621  -21.1600   -4.7693 C   0  0  0  0  0  0  0  0  0  0  0  0
   29.1691  -21.4102   -5.9855 C   0  0  0  0  0  0  0  0  0  0  0  0
   28.3480  -20.4532   -6.5666 C   0  0  0  0  0  0  0  0  0  0  0  0
   25.1474  -21.0117   -9.2337 C   0  0  0  0  0  0  0  0  0  0  0  0
   24.5332  -19.7488   -9.3701 O   0  0  0  0  0  0  0  0  0  0  0  0
   24.5292  -21.8734   -8.5984 O   0  0  0  0  0  0  0  0  0  0  0  0
  2  1  1  0
  3  2  2  0
  4  2  1  0
  5  4  1  0
  6  5  1  0
  6  7  1  1
  8  6  1  0
  8  9  2  0
 10  8  1  0
 11 10  1  0
 11 12  1  0
 12 14  1  0
 13 12  2  0
 14 15  1  0
 15 26  1  0
 16 17  1  0
 15 16  1  1
 17 18  2  0
 19 18  1  0
 20 19  1  0
 21 20  2  0
 22 21  1  0
 23 22  2  0
 23 24  1  0
 24 25  2  0
 25 20  1  0
 25 17  1  0
 26 28  2  0
 26 27  1  0
M  END
$$$$
