QGW.pdb
     RDKit          3D

 28 29  0  0  1  0  0  0  0  0999 V2000
   31.6026  -23.5341  -17.4931 N   0  0  0  0  0  0  0  0  0  0  0  0
   30.7975  -22.5823  -18.1867 C   0  0  0  0  0  0  0  0  0  0  0  0
   31.3362  -21.7442  -18.9524 O   0  0  0  0  0  0  0  0  0  0  0  0
   29.3304  -22.5887  -18.0032 C   0  0  0  0  0  0  0  0  0  0  0  0
   28.7563  -21.4550  -17.2507 C   0  0  0  0  0  0  0  0  0  0  0  0
   28.9614  -21.4267  -15.7772 C   0  0  2  0  0  0  0  0  0  0  0  0
   29.1104  -22.6661  -15.1165 N   0  0  0  0  0  0  0  0  0  0  0  0
   27.9957  -20.4855  -15.1208 C   0  0  0  0  0  0  0  0  0  0  0  0
   27.9571  -19.3180  -15.5773 O   0  0  0  0  0  0  0  0  0  0  0  0
   27.1475  -20.8153  -14.0496 N   0  0  0  0  0  0  0  0  0  0  0  0
   25.9540  -20.0717  -13.7098 C   0  0  0  0  0  0  0  0  0  0  0  0
   25.6566  -20.1353  -12.2522 C   0  0  0  0  0  0  0  0  0  0  0  0
   24.6345  -19.5712  -11.7854 O   0  0  0  0  0  0  0  0  0  0  0  0
   26.5289  -20.8356  -11.3802 N   0  0  0  0  0  0  0  0  0  0  0  0
   26.0779  -21.4214  -10.1184 C   0  0  1  0  0  0  0  0  0  0  0  0
   27.2977  -21.5336   -9.2536 C   0  0  0  0  0  0  0  0  0  0  0  0
   27.4447  -20.5765   -8.1677 C   0  0  0  0  0  0  0  0  0  0  0  0
   26.7115  -19.3811   -8.1081 C   0  0  0  0  0  0  0  0  0  0  0  0
   27.0903  -18.6986   -7.0193 N   0  0  0  0  0  0  0  0  0  0  0  0
   28.0338  -19.3709   -6.3486 C   0  0  0  0  0  0  0  0  0  0  0  0
   28.7281  -19.1077   -5.1730 C   0  0  0  0  0  0  0  0  0  0  0  0
   29.6545  -20.0027   -4.6840 C   0  0  0  0  0  0  0  0  0  0  0  0
   29.8620  -21.1627   -5.4055 C   0  0  0  0  0  0  0  0  0  0  0  0
   29.1830  -21.4366   -6.5707 C   0  0  0  0  0  0  0  0  0  0  0  0
   28.2512  -20.5308   -7.0594 C   0  0  0  0  0  0  0  0  0  0  0  0
   25.0270  -20.6549   -9.4809 C   0  0  0  0  0  0  0  0  0  0  0  0
   24.1328  -21.3386   -8.6302 O   0  0  0  0  0  0  0  0  0  0  0  0
   24.8505  -19.4397   -9.6245 O   0  0  0  0  0  0  0  0  0  0  0  0
  2  1  1  0
  3  2  2  0
  4  2  1  0
  5  4  1  0
  6  5  1  0
  6  7  1  1
  8  6  1  0
  8  9  2  0
 10  8  1  0
 11 10  1  0
 11 12  1  0
 12 14  1  0
 13 12  2  0
 14 15  1  0
 15 26  1  0
 16 17  1  0
 15 16  1  1
 17 18  2  0
 19 18  1  0
 20 19  1  0
 21 20  2  0
 22 21  1  0
 23 22  2  0
 23 24  1  0
 24 25  2  0
 25 20  1  0
 25 17  1  0
 26 28  2  0
 26 27  1  0
M  END
$$$$
