QGW.pdb
     RDKit          3D

 28 29  0  0  1  0  0  0  0  0999 V2000
   25.1827  -21.2334  -19.0483 N   0  0  0  0  0  0  0  0  0  0  0  0
   24.8547  -21.7426  -17.7567 C   0  0  0  0  0  0  0  0  0  0  0  0
   24.2586  -22.8435  -17.6491 O   0  0  0  0  0  0  0  0  0  0  0  0
   25.2213  -20.9726  -16.5489 C   0  0  0  0  0  0  0  0  0  0  0  0
   25.9395  -19.7016  -16.7716 C   0  0  0  0  0  0  0  0  0  0  0  0
   27.3658  -19.6294  -16.3538 C   0  0  2  0  0  0  0  0  0  0  0  0
   28.2867  -20.4553  -17.0355 N   0  0  0  0  0  0  0  0  0  0  0  0
   27.4879  -19.6652  -14.8595 C   0  0  0  0  0  0  0  0  0  0  0  0
   26.7524  -18.8753  -14.2207 O   0  0  0  0  0  0  0  0  0  0  0  0
   28.3534  -20.5066  -14.1394 N   0  0  0  0  0  0  0  0  0  0  0  0
   28.5015  -20.4675  -12.7008 C   0  0  0  0  0  0  0  0  0  0  0  0
   27.3002  -21.0052  -12.0044 C   0  0  0  0  0  0  0  0  0  0  0  0
   26.4138  -21.6223  -12.6479 O   0  0  0  0  0  0  0  0  0  0  0  0
   27.1499  -20.8224  -10.6060 N   0  0  0  0  0  0  0  0  0  0  0  0
   26.0127  -21.3589   -9.8593 C   0  0  1  0  0  0  0  0  0  0  0  0
   26.5390  -21.7155   -8.5012 C   0  0  0  0  0  0  0  0  0  0  0  0
   27.0920  -20.6424   -7.6892 C   0  0  0  0  0  0  0  0  0  0  0  0
   26.8833  -19.2860   -7.9837 C   0  0  0  0  0  0  0  0  0  0  0  0
   27.5433  -18.5445   -7.0840 N   0  0  0  0  0  0  0  0  0  0  0  0
   28.1796  -19.3288   -6.2055 C   0  0  0  0  0  0  0  0  0  0  0  0
   28.9710  -19.0577   -5.0948 C   0  0  0  0  0  0  0  0  0  0  0  0
   29.4974  -20.0799   -4.3357 C   0  0  0  0  0  0  0  0  0  0  0  0
   29.2076  -21.3746   -4.7220 C   0  0  0  0  0  0  0  0  0  0  0  0
   28.4267  -21.6584   -5.8188 C   0  0  0  0  0  0  0  0  0  0  0  0
   27.8994  -20.6244   -6.5808 C   0  0  0  0  0  0  0  0  0  0  0  0
   24.8970  -20.4379   -9.7862 C   0  0  0  0  0  0  0  0  0  0  0  0
   23.6573  -20.9357   -9.3322 O   0  0  0  0  0  0  0  0  0  0  0  0
   24.9458  -19.2412  -10.0927 O   0  0  0  0  0  0  0  0  0  0  0  0
  2  1  1  0
  3  2  2  0
  4  2  1  0
  5  4  1  0
  6  5  1  0
  6  7  1  6
  8  6  1  0
  8  9  2  0
 10  8  1  0
 11 10  1  0
 11 12  1  0
 12 14  1  0
 13 12  2  0
 14 15  1  0
 15 26  1  0
 16 17  1  0
 15 16  1  1
 17 18  2  0
 19 18  1  0
 20 19  1  0
 21 20  2  0
 22 21  1  0
 23 22  2  0
 23 24  1  0
 24 25  2  0
 25 20  1  0
 25 17  1  0
 26 28  2  0
 26 27  1  0
M  END
$$$$
