QGW.pdb
     RDKit          3D

 28 29  0  0  1  0  0  0  0  0999 V2000
   17.8388  -10.7258  -23.7629 N   0  0  0  0  0  0  0  0  0  0  0  0
   16.6729  -10.9309  -22.9669 C   0  0  0  0  0  0  0  0  0  0  0  0
   15.8565  -11.8363  -23.2714 O   0  0  0  0  0  0  0  0  0  0  0  0
   16.4320  -10.0776  -21.7837 C   0  0  0  0  0  0  0  0  0  0  0  0
   17.4228   -9.0128  -21.5276 C   0  0  0  0  0  0  0  0  0  0  0  0
   18.2911   -9.1486  -20.3269 C   0  0  2  0  0  0  0  0  0  0  0  0
   17.7263   -9.7477  -19.1792 N   0  0  0  0  0  0  0  0  0  0  0  0
   19.0367   -7.8752  -20.0591 C   0  0  0  0  0  0  0  0  0  0  0  0
   19.5984   -7.3401  -21.0445 O   0  0  0  0  0  0  0  0  0  0  0  0
   19.1475   -7.2523  -18.8039 N   0  0  0  0  0  0  0  0  0  0  0  0
   19.7780   -5.9670  -18.5963 C   0  0  0  0  0  0  0  0  0  0  0  0
   19.7186   -5.5436  -17.1700 C   0  0  0  0  0  0  0  0  0  0  0  0
   18.6776   -5.7348  -16.4916 O   0  0  0  0  0  0  0  0  0  0  0  0
   20.8412   -4.9198  -16.5679 N   0  0  0  0  0  0  0  0  0  0  0  0
   20.8204   -4.4166  -15.1950 C   0  0  1  0  0  0  0  0  0  0  0  0
   22.0595   -4.9486  -14.5392 C   0  0  0  0  0  0  0  0  0  0  0  0
   22.1510   -6.3864  -14.3370 C   0  0  0  0  0  0  0  0  0  0  0  0
   22.9919   -7.2068  -15.1052 C   0  0  0  0  0  0  0  0  0  0  0  0
   22.8301   -8.4769  -14.7112 N   0  0  0  0  0  0  0  0  0  0  0  0
   21.9298   -8.5507  -13.7232 C   0  0  0  0  0  0  0  0  0  0  0  0
   21.4302   -9.6114  -12.9756 C   0  0  0  0  0  0  0  0  0  0  0  0
   20.5017   -9.3987  -11.9802 C   0  0  0  0  0  0  0  0  0  0  0  0
   20.0918   -8.0978  -11.7588 C   0  0  0  0  0  0  0  0  0  0  0  0
   20.5766   -7.0384  -12.4908 C   0  0  0  0  0  0  0  0  0  0  0  0
   21.5117   -7.2584  -13.4933 C   0  0  0  0  0  0  0  0  0  0  0  0
   20.7428   -2.9719  -15.1216 C   0  0  0  0  0  0  0  0  0  0  0  0
   20.8831   -2.2404  -16.3199 O   0  0  0  0  0  0  0  0  0  0  0  0
   20.5620   -2.3247  -14.0840 O   0  0  0  0  0  0  0  0  0  0  0  0
  2  1  1  0
  3  2  2  0
  4  2  1  0
  5  4  1  0
  6  5  1  0
  6  7  1  1
  8  6  1  0
  8  9  2  0
 10  8  1  0
 11 10  1  0
 11 12  1  0
 12 14  1  0
 13 12  2  0
 14 15  1  0
 15 26  1  0
 16 17  1  0
 15 16  1  6
 17 18  2  0
 19 18  1  0
 20 19  1  0
 21 20  2  0
 22 21  1  0
 23 22  2  0
 23 24  1  0
 24 25  2  0
 25 20  1  0
 25 17  1  0
 26 28  2  0
 26 27  1  0
M  END
$$$$
