QGW.pdb
     RDKit          3D

 28 29  0  0  1  0  0  0  0  0999 V2000
   23.2974  -17.7392  -17.1534 N   0  0  0  0  0  0  0  0  0  0  0  0
   24.1526  -18.5432  -17.9641 C   0  0  0  0  0  0  0  0  0  0  0  0
   24.8762  -18.0046  -18.8389 O   0  0  0  0  0  0  0  0  0  0  0  0
   24.1857  -20.0084  -17.7686 C   0  0  0  0  0  0  0  0  0  0  0  0
   24.7878  -20.4908  -16.5094 C   0  0  0  0  0  0  0  0  0  0  0  0
   26.2610  -20.3563  -16.3497 C   0  0  2  0  0  0  0  0  0  0  0  0
   27.0753  -21.3233  -16.9794 N   0  0  0  0  0  0  0  0  0  0  0  0
   26.6209  -20.0772  -14.9208 C   0  0  0  0  0  0  0  0  0  0  0  0
   25.9729  -19.1678  -14.3498 O   0  0  0  0  0  0  0  0  0  0  0  0
   27.6156  -20.7514  -14.1915 N   0  0  0  0  0  0  0  0  0  0  0  0
   27.9087  -20.4905  -12.7991 C   0  0  0  0  0  0  0  0  0  0  0  0
   26.8811  -21.0783  -11.8960 C   0  0  0  0  0  0  0  0  0  0  0  0
   25.8964  -21.6995  -12.3705 O   0  0  0  0  0  0  0  0  0  0  0  0
   27.0091  -20.9392  -10.4903 N   0  0  0  0  0  0  0  0  0  0  0  0
   26.0656  -21.5426   -9.5499 C   0  0  1  0  0  0  0  0  0  0  0  0
   26.8203  -21.7303   -8.2678 C   0  0  0  0  0  0  0  0  0  0  0  0
   27.1437  -20.5404   -7.4956 C   0  0  0  0  0  0  0  0  0  0  0  0
   26.7054  -19.2582   -7.8615 C   0  0  0  0  0  0  0  0  0  0  0  0
   27.1906  -18.3711   -6.9826 N   0  0  0  0  0  0  0  0  0  0  0  0
   27.9269  -18.9885   -6.0506 C   0  0  0  0  0  0  0  0  0  0  0  0
   28.6186  -18.5305   -4.9346 C   0  0  0  0  0  0  0  0  0  0  0  0
   29.2935  -19.4066   -4.1130 C   0  0  0  0  0  0  0  0  0  0  0  0
   29.2540  -20.7479   -4.4426 C   0  0  0  0  0  0  0  0  0  0  0  0
   28.5745  -21.2158   -5.5438 C   0  0  0  0  0  0  0  0  0  0  0  0
   27.8966  -20.3285   -6.3690 C   0  0  0  0  0  0  0  0  0  0  0  0
   24.8657  -20.7524   -9.3649 C   0  0  0  0  0  0  0  0  0  0  0  0
   23.7752  -21.3518   -8.6999 O   0  0  0  0  0  0  0  0  0  0  0  0
   24.7208  -19.5855   -9.7465 O   0  0  0  0  0  0  0  0  0  0  0  0
  2  1  1  0
  3  2  2  0
  4  2  1  0
  5  4  1  0
  6  5  1  0
  6  7  1  1
  8  6  1  0
  8  9  2  0
 10  8  1  0
 11 10  1  0
 11 12  1  0
 12 14  1  0
 13 12  2  0
 14 15  1  0
 15 26  1  0
 16 17  1  0
 15 16  1  1
 17 18  2  0
 19 18  1  0
 20 19  1  0
 21 20  2  0
 22 21  1  0
 23 22  2  0
 23 24  1  0
 24 25  2  0
 25 20  1  0
 25 17  1  0
 26 28  2  0
 26 27  1  0
M  END
$$$$
