KDT.pdb
     RDKit          3D

 25 24  0  0  1  0  0  0  0  0999 V2000
   19.1717  -23.7485  -11.8861 N   0  0  0  0  0  0  0  0  0  0  0  0
   18.8008  -22.7871  -12.8965 C   0  0  1  0  0  0  0  0  0  0  0  0
   17.4264  -22.2294  -12.6721 C   0  0  0  0  0  0  0  0  0  0  0  0
   16.3920  -22.8799  -13.5603 C   0  0  0  0  0  0  0  0  0  0  0  0
   16.0882  -24.2893  -13.1408 C   0  0  0  0  0  0  0  0  0  0  0  0
   15.1020  -24.9737  -14.0567 C   0  0  0  0  0  0  0  0  0  0  0  0
   14.9074  -26.3529  -13.6534 N   0  0  0  0  0  0  0  0  0  0  0  0
   19.8307  -21.7211  -12.9881 C   0  0  0  0  0  0  0  0  0  0  0  0
   20.4387  -21.3239  -11.9633 O   0  0  0  0  0  0  0  0  0  0  0  0
   20.1281  -21.1530  -14.2267 N   0  0  0  0  0  0  0  0  0  0  0  0
   21.2410  -20.1368  -14.3860 C   0  0  1  0  0  0  0  0  0  0  0  0
   22.2367  -20.9148  -15.1870 C   0  0  0  0  0  0  0  0  0  0  0  0
   23.3545  -20.2088  -15.7769 C   0  0  0  0  0  0  0  0  0  0  0  0
   23.6512  -20.1633  -16.9755 O   0  0  0  0  0  0  0  0  0  0  0  0
   20.5848  -19.0291  -15.0730 C   0  0  0  0  0  0  0  0  0  0  0  0
   19.8467  -19.2766  -16.0796 O   0  0  0  0  0  0  0  0  0  0  0  0
   24.2201  -19.4837  -14.9191 O   0  0  0  0  0  0  0  0  0  0  0  0
   18.1201  -16.5221  -13.9688 C   0  0  0  0  0  0  0  0  0  0  0  0
   19.2947  -15.7707  -14.5234 C   0  0  1  0  0  0  0  0  0  0  0  0
   20.1293  -15.3856  -13.4777 O   0  0  0  0  0  0  0  0  0  0  0  0
   20.0637  -16.6320  -15.5106 C   0  0  2  0  0  0  0  0  0  0  0  0
   20.6996  -17.6910  -14.7048 N   0  0  0  0  0  0  0  0  0  0  0  0
   21.1232  -15.8669  -16.1975 C   0  0  0  0  0  0  0  0  0  0  0  0
   22.3369  -16.0787  -16.0110 O   0  0  0  0  0  0  0  0  0  0  0  0
   20.7964  -14.8593  -17.0976 O   0  0  0  0  0  0  0  0  0  0  0  0
  2  1  1  1
  3  2  1  0
  4  3  1  0
  5  6  1  0
  5  4  1  0
  6  7  1  0
  8  9  2  0
  8  2  1  0
 10  8  1  0
 11 10  1  0
 12 13  1  0
 11 12  1  6
 13 17  1  0
 14 13  2  0
 15 16  2  0
 15 11  1  0
 19 21  1  0
 19 18  1  1
 20 19  1  0
 21 22  1  1
 22 15  1  0
 23 21  1  0
 24 23  2  0
 25 23  1  0
M  END
$$$$
