KDT.pdb
     RDKit          3D

 25 24  0  0  1  0  0  0  0  0999 V2000
   16.6696  -12.3505  -15.5630 N   0  0  0  0  0  0  0  0  0  0  0  0
   16.8178  -10.9614  -15.9253 C   0  0  1  0  0  0  0  0  0  0  0  0
   15.6199  -10.1438  -15.5419 C   0  0  0  0  0  0  0  0  0  0  0  0
   14.3470  -10.6643  -16.1670 C   0  0  0  0  0  0  0  0  0  0  0  0
   13.5008  -11.4229  -15.1858 C   0  0  0  0  0  0  0  0  0  0  0  0
   12.1477  -11.7950  -15.7434 C   0  0  0  0  0  0  0  0  0  0  0  0
   11.3263  -12.4065  -14.7168 N   0  0  0  0  0  0  0  0  0  0  0  0
   18.0753  -10.4168  -15.3528 C   0  0  0  0  0  0  0  0  0  0  0  0
   18.4948  -10.8059  -14.2347 O   0  0  0  0  0  0  0  0  0  0  0  0
   18.8009   -9.4617  -16.0645 N   0  0  0  0  0  0  0  0  0  0  0  0
   20.1815   -9.0220  -15.6202 C   0  0  1  0  0  0  0  0  0  0  0  0
   20.8758   -8.8606  -16.9355 C   0  0  0  0  0  0  0  0  0  0  0  0
   22.2262   -8.3389  -16.9464 C   0  0  0  0  0  0  0  0  0  0  0  0
   22.9105   -8.0374  -15.9629 O   0  0  0  0  0  0  0  0  0  0  0  0
   19.9168   -7.7950  -14.8758 C   0  0  0  0  0  0  0  0  0  0  0  0
   19.1253   -6.9304  -15.3710 O   0  0  0  0  0  0  0  0  0  0  0  0
   22.8602   -8.1402  -18.1992 O   0  0  0  0  0  0  0  0  0  0  0  0
   18.3099   -7.0458  -11.7619 C   0  0  0  0  0  0  0  0  0  0  0  0
   19.6750   -6.4331  -11.6476 C   0  0  1  0  0  0  0  0  0  0  0  0
   20.5081   -7.2955  -10.9401 O   0  0  0  0  0  0  0  0  0  0  0  0
   20.2575   -6.1625  -13.0244 C   0  0  2  0  0  0  0  0  0  0  0  0
   20.4697   -7.4880  -13.6351 N   0  0  0  0  0  0  0  0  0  0  0  0
   21.5593   -5.4708  -12.9433 C   0  0  0  0  0  0  0  0  0  0  0  0
   21.6786   -4.3054  -12.5185 O   0  0  0  0  0  0  0  0  0  0  0  0
   22.7254   -6.1102  -13.3476 O   0  0  0  0  0  0  0  0  0  0  0  0
  2  1  1  1
  3  2  1  0
  4  3  1  0
  5  6  1  0
  5  4  1  0
  6  7  1  0
  8  9  2  0
  8  2  1  0
 10  8  1  0
 11 10  1  0
 12 13  1  0
 11 12  1  6
 13 17  1  0
 14 13  2  0
 15 16  2  0
 15 11  1  0
 19 21  1  0
 19 18  1  6
 20 19  1  0
 21 22  1  1
 22 15  1  0
 23 21  1  0
 24 23  2  0
 25 23  1  0
M  END
$$$$
