KDT.pdb
     RDKit          3D

 25 24  0  0  1  0  0  0  0  0999 V2000
   25.1399  -16.3824  -15.4835 N   0  0  0  0  0  0  0  0  0  0  0  0
   24.1140  -15.7429  -16.2717 C   0  0  1  0  0  0  0  0  0  0  0  0
   24.6480  -15.1958  -17.5624 C   0  0  0  0  0  0  0  0  0  0  0  0
   26.1159  -15.4997  -17.7499 C   0  0  0  0  0  0  0  0  0  0  0  0
   26.6522  -14.9405  -19.0360 C   0  0  0  0  0  0  0  0  0  0  0  0
   28.0536  -15.4127  -19.3411 C   0  0  0  0  0  0  0  0  0  0  0  0
   28.5070  -14.8720  -20.6079 N   0  0  0  0  0  0  0  0  0  0  0  0
   22.9790  -16.6766  -16.4851 C   0  0  0  0  0  0  0  0  0  0  0  0
   22.0093  -16.3545  -17.2154 O   0  0  0  0  0  0  0  0  0  0  0  0
   22.9885  -17.9273  -15.8677 N   0  0  0  0  0  0  0  0  0  0  0  0
   21.9052  -18.9523  -16.1368 C   0  0  1  0  0  0  0  0  0  0  0  0
   22.6672  -20.2311  -15.9878 C   0  0  0  0  0  0  0  0  0  0  0  0
   23.3854  -20.7470  -17.1340 C   0  0  0  0  0  0  0  0  0  0  0  0
   24.1097  -21.7476  -17.1640 O   0  0  0  0  0  0  0  0  0  0  0  0
   20.9139  -18.6682  -15.1042 C   0  0  0  0  0  0  0  0  0  0  0  0
   21.3103  -18.3737  -13.9314 O   0  0  0  0  0  0  0  0  0  0  0  0
   23.2685  -20.0568  -18.3673 O   0  0  0  0  0  0  0  0  0  0  0  0
   18.5446  -15.9714  -14.9190 C   0  0  0  0  0  0  0  0  0  0  0  0
   17.7392  -17.2244  -14.7366 C   0  0  1  0  0  0  0  0  0  0  0  0
   17.1791  -17.5925  -15.9569 O   0  0  0  0  0  0  0  0  0  0  0  0
   18.6116  -18.3493  -14.2059 C   0  0  2  0  0  0  0  0  0  0  0  0
   19.5359  -18.6889  -15.3039 N   0  0  0  0  0  0  0  0  0  0  0  0
   17.8182  -19.5494  -13.8741 C   0  0  0  0  0  0  0  0  0  0  0  0
   17.8770  -20.6018  -14.5388 O   0  0  0  0  0  0  0  0  0  0  0  0
   16.9573  -19.5476  -12.7828 O   0  0  0  0  0  0  0  0  0  0  0  0
  2  1  1  6
  3  2  1  0
  4  3  1  0
  5  6  1  0
  5  4  1  0
  6  7  1  0
  8  9  2  0
  8  2  1  0
 10  8  1  0
 11 10  1  0
 12 13  1  0
 11 12  1  1
 13 17  1  0
 14 13  2  0
 15 16  2  0
 15 11  1  0
 19 21  1  0
 19 18  1  6
 20 19  1  0
 21 22  1  6
 22 15  1  0
 23 21  1  0
 24 23  2  0
 25 23  1  0
M  END
$$$$
