KDT.pdb
     RDKit          3D

 25 24  0  0  1  0  0  0  0  0999 V2000
   18.5577  -14.5703  -15.5605 N   0  0  0  0  0  0  0  0  0  0  0  0
   18.4812  -14.2742  -16.9709 C   0  0  1  0  0  0  0  0  0  0  0  0
   17.4419  -15.1006  -17.6689 C   0  0  0  0  0  0  0  0  0  0  0  0
   17.6718  -16.5826  -17.4880 C   0  0  0  0  0  0  0  0  0  0  0  0
   18.2795  -16.9047  -16.1533 C   0  0  0  0  0  0  0  0  0  0  0  0
   18.4053  -18.3896  -15.9096 C   0  0  0  0  0  0  0  0  0  0  0  0
   18.9843  -18.6426  -14.6045 N   0  0  0  0  0  0  0  0  0  0  0  0
   18.2707  -12.8184  -17.1753 C   0  0  0  0  0  0  0  0  0  0  0  0
   18.1588  -12.3404  -18.3314 O   0  0  0  0  0  0  0  0  0  0  0  0
   18.1959  -11.9698  -16.0709 N   0  0  0  0  0  0  0  0  0  0  0  0
   18.0254  -10.4726  -16.2317 C   0  0  1  0  0  0  0  0  0  0  0  0
   16.6352  -10.2780  -15.7143 C   0  0  0  0  0  0  0  0  0  0  0  0
   16.2007   -8.9373  -15.3833 C   0  0  0  0  0  0  0  0  0  0  0  0
   15.6881   -8.5669  -14.3218 O   0  0  0  0  0  0  0  0  0  0  0  0
   19.1012   -9.9248  -15.4119 C   0  0  0  0  0  0  0  0  0  0  0  0
   19.1850  -10.2713  -14.1903 O   0  0  0  0  0  0  0  0  0  0  0  0
   16.3650   -7.9179  -16.3553 O   0  0  0  0  0  0  0  0  0  0  0  0
   22.7011  -10.3202  -15.4925 C   0  0  0  0  0  0  0  0  0  0  0  0
   22.4324   -8.8470  -15.5892 C   0  0  1  0  0  0  0  0  0  0  0  0
   22.4338   -8.4665  -16.9284 O   0  0  0  0  0  0  0  0  0  0  0  0
   21.0959   -8.5035  -14.9537 C   0  0  2  0  0  0  0  0  0  0  0  0
   20.0702   -9.0358  -15.8700 N   0  0  0  0  0  0  0  0  0  0  0  0
   20.9042   -7.0445  -14.8334 C   0  0  0  0  0  0  0  0  0  0  0  0
   20.1024   -6.4088  -15.5446 O   0  0  0  0  0  0  0  0  0  0  0  0
   21.6286   -6.3113  -13.9008 O   0  0  0  0  0  0  0  0  0  0  0  0
  2  1  1  1
  3  2  1  0
  4  3  1  0
  5  6  1  0
  5  4  1  0
  6  7  1  0
  8  9  2  0
  8  2  1  0
 10  8  1  0
 11 10  1  0
 12 13  1  0
 11 12  1  1
 13 17  1  0
 14 13  2  0
 15 16  2  0
 15 11  1  0
 19 21  1  0
 19 18  1  6
 20 19  1  0
 21 22  1  6
 22 15  1  0
 23 21  1  0
 24 23  2  0
 25 23  1  0
M  END
$$$$
