EYN.pdb
     RDKit          3D

 30 30  0  0  1  0  0  0  0  0999 V2000
    8.1305  -14.3116   19.3936 N   0  0  0  0  0  0  0  0  0  0  0  0
    7.7333  -15.1932   20.4592 C   0  0  1  0  0  0  0  0  0  0  0  0
    7.9305  -16.6020   19.9703 C   0  0  0  0  0  0  0  0  0  0  0  0
    7.3760  -16.8759   18.6134 C   0  0  0  0  0  0  0  0  0  0  0  0
    7.4433  -18.3407   18.3715 C   0  0  0  0  0  0  0  0  0  0  0  0
    6.6428  -19.1504   18.9190 O   0  0  0  0  0  0  0  0  0  0  0  0
    8.5366  -14.8813   21.6747 C   0  0  0  0  0  0  0  0  0  0  0  0
    9.7910  -14.7045   21.6011 O   0  0  0  0  0  0  0  0  0  0  0  0
    8.3937  -18.8973   17.5277 O   0  0  0  0  0  0  0  0  0  0  0  0
   10.6817  -14.6827   30.2526 O   0  0  0  0  0  0  0  0  0  0  0  0
    9.9561  -14.6560   29.0485 C   0  0  0  0  0  0  0  0  0  0  0  0
    9.2796  -15.7652   28.5761 C   0  0  0  0  0  0  0  0  0  0  0  0
    8.5644  -15.7550   27.3988 C   0  0  0  0  0  0  0  0  0  0  0  0
    8.5232  -14.5985   26.6683 C   0  0  0  0  0  0  0  0  0  0  0  0
    7.7715  -14.5442   25.4085 C   0  0  0  0  0  0  0  0  0  0  0  0
    8.6419  -14.8184   24.2028 C   0  0  2  0  0  0  0  0  0  0  0  0
    7.9298  -14.7706   22.9572 N   0  0  0  0  0  0  0  0  0  0  0  0
    9.3195  -16.1241   24.4208 C   0  0  0  0  0  0  0  0  0  0  0  0
    8.6862  -17.2106   24.4336 O   0  0  0  0  0  0  0  0  0  0  0  0
    9.1820  -13.4810   27.1071 C   0  0  0  0  0  0  0  0  0  0  0  0
    9.8815  -13.5202   28.2753 C   0  0  0  0  0  0  0  0  0  0  0  0
   11.4808  -18.0171   22.0636 N   0  0  0  0  0  0  0  0  0  0  0  0
   12.6922  -17.7575   22.7574 C   0  0  0  0  0  0  0  0  0  0  0  0
   13.7336  -17.7578   22.0162 O   0  0  0  0  0  0  0  0  0  0  0  0
   12.7738  -17.5019   24.2078 C   0  0  0  0  0  0  0  0  0  0  0  0
   11.4013  -17.5250   24.7926 C   0  0  2  0  0  0  0  0  0  0  0  0
   10.7217  -16.2360   24.6292 N   0  0  0  0  0  0  0  0  0  0  0  0
   11.5075  -17.7216   26.2518 C   0  0  0  0  0  0  0  0  0  0  0  0
   11.3381  -18.9587   26.8134 O   0  0  0  0  0  0  0  0  0  0  0  0
   11.7550  -16.7546   26.9974 O   0  0  0  0  0  0  0  0  0  0  0  0
  2  1  1  6
  2  3  1  0
  3  4  1  0
  4  5  1  0
  5  9  1  0
  6  5  2  0
  7  8  2  0
  7  2  1  0
 10 11  1  0
 11 21  2  0
 12 11  1  0
 12 13  2  0
 13 14  1  0
 14 20  2  0
 14 15  1  0
 16 15  1  1
 16 18  1  0
 16 17  1  0
 17  7  1  0
 18 27  1  0
 19 18  2  0
 21 20  1  0
 23 22  1  0
 23 24  2  0
 25 23  1  0
 26 27  1  0
 26 25  1  6
 28 26  1  0
 29 28  1  0
 30 28  2  0
M  END
$$$$
