EYN.pdb
     RDKit          3D

 30 30  0  0  1  0  0  0  0  0999 V2000
   10.7298  -16.8386   19.2942 N   0  0  0  0  0  0  0  0  0  0  0  0
    9.7091  -17.1536   20.2583 C   0  0  1  0  0  0  0  0  0  0  0  0
    9.9642  -18.5568   20.7366 C   0  0  0  0  0  0  0  0  0  0  0  0
    9.9242  -19.5976   19.6695 C   0  0  0  0  0  0  0  0  0  0  0  0
   10.1901  -20.9176   20.2984 C   0  0  0  0  0  0  0  0  0  0  0  0
    9.4243  -21.9086   20.1321 O   0  0  0  0  0  0  0  0  0  0  0  0
    9.7497  -16.1480   21.3571 C   0  0  0  0  0  0  0  0  0  0  0  0
   10.8430  -15.8454   21.9257 O   0  0  0  0  0  0  0  0  0  0  0  0
   11.2988  -21.1306   21.1050 O   0  0  0  0  0  0  0  0  0  0  0  0
    6.8449  -11.1971   28.0618 O   0  0  0  0  0  0  0  0  0  0  0  0
    6.8881  -11.9678   26.8866 C   0  0  0  0  0  0  0  0  0  0  0  0
    5.7400  -12.4334   26.2732 C   0  0  0  0  0  0  0  0  0  0  0  0
    5.7657  -13.1892   25.1218 C   0  0  0  0  0  0  0  0  0  0  0  0
    6.9784  -13.4906   24.5639 C   0  0  0  0  0  0  0  0  0  0  0  0
    7.0506  -14.2926   23.3364 C   0  0  0  0  0  0  0  0  0  0  0  0
    8.4452  -14.8095   23.0638 C   0  0  2  0  0  0  0  0  0  0  0  0
    8.5694  -15.4926   21.8073 N   0  0  0  0  0  0  0  0  0  0  0  0
    8.8463  -15.6601   24.2158 C   0  0  0  0  0  0  0  0  0  0  0  0
    8.7479  -15.2627   25.4049 O   0  0  0  0  0  0  0  0  0  0  0  0
    8.1356  -13.0454   25.1455 C   0  0  0  0  0  0  0  0  0  0  0  0
    8.0798  -12.2996   26.2840 C   0  0  0  0  0  0  0  0  0  0  0  0
   10.4322  -19.5510   27.2489 N   0  0  0  0  0  0  0  0  0  0  0  0
   10.2273  -20.0772   25.9460 C   0  0  0  0  0  0  0  0  0  0  0  0
   10.4265  -21.3362   25.8496 O   0  0  0  0  0  0  0  0  0  0  0  0
    9.8163  -19.2668   24.7841 C   0  0  0  0  0  0  0  0  0  0  0  0
    9.7167  -17.8345   25.1899 C   0  0  2  0  0  0  0  0  0  0  0  0
    9.3664  -16.9739   24.0557 N   0  0  0  0  0  0  0  0  0  0  0  0
   11.0472  -17.3693   25.6292 C   0  0  0  0  0  0  0  0  0  0  0  0
   11.4805  -17.5741   26.9117 O   0  0  0  0  0  0  0  0  0  0  0  0
   11.7992  -16.7790   24.8304 O   0  0  0  0  0  0  0  0  0  0  0  0
  2  1  1  6
  2  3  1  0
  3  4  1  0
  4  5  1  0
  5  9  1  0
  6  5  2  0
  7  8  2  0
  7  2  1  0
 10 11  1  0
 11 21  2  0
 12 11  1  0
 12 13  2  0
 13 14  1  0
 14 20  2  0
 14 15  1  0
 16 15  1  1
 16 18  1  0
 16 17  1  0
 17  7  1  0
 18 27  1  0
 19 18  2  0
 21 20  1  0
 23 22  1  0
 23 24  2  0
 25 23  1  0
 26 27  1  0
 26 25  1  6
 28 26  1  0
 29 28  1  0
 30 28  2  0
M  END
$$$$
