EYN.pdb
     RDKit          3D

 30 30  0  0  1  0  0  0  0  0999 V2000
    9.5488  -16.4170   18.6324 N   0  0  0  0  0  0  0  0  0  0  0  0
    9.8636  -17.2163   19.7868 C   0  0  1  0  0  0  0  0  0  0  0  0
   11.2133  -17.8355   19.5468 C   0  0  0  0  0  0  0  0  0  0  0  0
   11.2429  -18.8746   18.4777 C   0  0  0  0  0  0  0  0  0  0  0  0
   12.2683  -19.8866   18.8423 C   0  0  0  0  0  0  0  0  0  0  0  0
   12.0488  -21.1278   18.7567 O   0  0  0  0  0  0  0  0  0  0  0  0
    9.8267  -16.3540   21.0014 C   0  0  0  0  0  0  0  0  0  0  0  0
   10.8761  -15.7835   21.4296 O   0  0  0  0  0  0  0  0  0  0  0  0
   13.5261  -19.5183   19.2980 O   0  0  0  0  0  0  0  0  0  0  0  0
    6.8483  -11.6427   27.8473 O   0  0  0  0  0  0  0  0  0  0  0  0
    6.9297  -12.4030   26.6673 C   0  0  0  0  0  0  0  0  0  0  0  0
    7.6511  -11.9751   25.5683 C   0  0  0  0  0  0  0  0  0  0  0  0
    7.7406  -12.7083   24.4056 C   0  0  0  0  0  0  0  0  0  0  0  0
    7.0880  -13.9092   24.3374 C   0  0  0  0  0  0  0  0  0  0  0  0
    7.1583  -14.7227   23.1174 C   0  0  0  0  0  0  0  0  0  0  0  0
    8.5149  -15.3622   22.9254 C   0  0  2  0  0  0  0  0  0  0  0  0
    8.6188  -16.1391   21.7227 N   0  0  0  0  0  0  0  0  0  0  0  0
    8.8171  -16.1583   24.1446 C   0  0  0  0  0  0  0  0  0  0  0  0
    8.1228  -17.1511   24.4823 O   0  0  0  0  0  0  0  0  0  0  0  0
    6.3642  -14.3633   25.4077 C   0  0  0  0  0  0  0  0  0  0  0  0
    6.2934  -13.6169   26.5450 C   0  0  0  0  0  0  0  0  0  0  0  0
   12.1488  -18.6618   24.4638 N   0  0  0  0  0  0  0  0  0  0  0  0
   12.3168  -17.3362   24.9444 C   0  0  0  0  0  0  0  0  0  0  0  0
   12.9814  -16.5735   24.1630 O   0  0  0  0  0  0  0  0  0  0  0  0
   11.7791  -16.8500   26.2290 C   0  0  0  0  0  0  0  0  0  0  0  0
   10.2963  -16.7193   26.1274 C   0  0  2  0  0  0  0  0  0  0  0  0
    9.9046  -15.8555   25.0092 N   0  0  0  0  0  0  0  0  0  0  0  0
    9.7935  -16.0362   27.3357 C   0  0  0  0  0  0  0  0  0  0  0  0
    9.7785  -14.6699   27.4216 O   0  0  0  0  0  0  0  0  0  0  0  0
    9.3726  -16.7013   28.3014 O   0  0  0  0  0  0  0  0  0  0  0  0
  2  1  1  6
  2  3  1  0
  3  4  1  0
  4  5  1  0
  5  9  1  0
  6  5  2  0
  7  8  2  0
  7  2  1  0
 10 11  1  0
 11 21  2  0
 12 11  1  0
 12 13  2  0
 13 14  1  0
 14 20  2  0
 14 15  1  0
 16 15  1  1
 16 18  1  0
 16 17  1  0
 17  7  1  0
 18 27  1  0
 19 18  2  0
 21 20  1  0
 23 22  1  0
 23 24  2  0
 25 23  1  0
 26 27  1  0
 26 25  1  1
 28 26  1  0
 29 28  1  0
 30 28  2  0
M  END
$$$$
