EYN.pdb
     RDKit          3D

 30 30  0  0  1  0  0  0  0  0999 V2000
   10.3924  -16.7889   18.2858 N   0  0  0  0  0  0  0  0  0  0  0  0
    9.6019  -17.3823   19.3315 C   0  0  1  0  0  0  0  0  0  0  0  0
   10.1490  -18.7619   19.5769 C   0  0  0  0  0  0  0  0  0  0  0  0
   10.5811  -19.4902   18.3494 C   0  0  0  0  0  0  0  0  0  0  0  0
   11.0817  -20.8291   18.7562 C   0  0  0  0  0  0  0  0  0  0  0  0
   10.3153  -21.8264   18.8745 O   0  0  0  0  0  0  0  0  0  0  0  0
    9.6579  -16.5110   20.5389 C   0  0  0  0  0  0  0  0  0  0  0  0
   10.7660  -16.0825   20.9844 O   0  0  0  0  0  0  0  0  0  0  0  0
   12.4236  -21.0537   19.0284 O   0  0  0  0  0  0  0  0  0  0  0  0
    7.2704  -11.7519   27.5646 O   0  0  0  0  0  0  0  0  0  0  0  0
    7.2258  -12.5330   26.3963 C   0  0  0  0  0  0  0  0  0  0  0  0
    6.6372  -13.7838   26.3733 C   0  0  0  0  0  0  0  0  0  0  0  0
    6.5854  -14.5609   25.2371 C   0  0  0  0  0  0  0  0  0  0  0  0
    7.1398  -14.0732   24.0849 C   0  0  0  0  0  0  0  0  0  0  0  0
    7.1052  -14.8684   22.8514 C   0  0  0  0  0  0  0  0  0  0  0  0
    8.4580  -15.4419   22.4943 C   0  0  2  0  0  0  0  0  0  0  0  0
    8.4762  -16.1288   21.2338 N   0  0  0  0  0  0  0  0  0  0  0  0
    8.8942  -16.3091   23.6208 C   0  0  0  0  0  0  0  0  0  0  0  0
    8.3581  -17.4231   23.8518 O   0  0  0  0  0  0  0  0  0  0  0  0
    7.7309  -12.8379   24.0724 C   0  0  0  0  0  0  0  0  0  0  0  0
    7.7675  -12.0913   25.2111 C   0  0  0  0  0  0  0  0  0  0  0  0
   12.2398  -19.2661   25.3043 N   0  0  0  0  0  0  0  0  0  0  0  0
   12.6311  -18.0274   25.8777 C   0  0  0  0  0  0  0  0  0  0  0  0
   13.5761  -18.1188   26.7336 O   0  0  0  0  0  0  0  0  0  0  0  0
   12.0211  -16.7294   25.5331 C   0  0  0  0  0  0  0  0  0  0  0  0
   10.5383  -16.8815   25.4658 C   0  0  2  0  0  0  0  0  0  0  0  0
    9.9409  -15.9427   24.5110 N   0  0  0  0  0  0  0  0  0  0  0  0
    9.9613  -16.5179   26.7751 C   0  0  0  0  0  0  0  0  0  0  0  0
    9.6841  -17.4730   27.7160 O   0  0  0  0  0  0  0  0  0  0  0  0
    9.7173  -15.3258   27.0424 O   0  0  0  0  0  0  0  0  0  0  0  0
  2  1  1  6
  2  3  1  0
  3  4  1  0
  4  5  1  0
  5  9  1  0
  6  5  2  0
  7  8  2  0
  7  2  1  0
 10 11  1  0
 11 21  2  0
 12 11  1  0
 12 13  2  0
 13 14  1  0
 14 20  2  0
 14 15  1  0
 16 15  1  1
 16 18  1  0
 16 17  1  0
 17  7  1  0
 18 27  1  0
 19 18  2  0
 21 20  1  0
 23 22  1  0
 23 24  2  0
 25 23  1  0
 26 27  1  0
 26 25  1  1
 28 26  1  0
 29 28  1  0
 30 28  2  0
M  END
$$$$
