EYN.pdb
     RDKit          3D

 30 30  0  0  1  0  0  0  0  0999 V2000
    8.3223  -16.1922   17.7019 N   0  0  0  0  0  0  0  0  0  0  0  0
    8.0376  -17.0044   18.8551 C   0  0  1  0  0  0  0  0  0  0  0  0
    8.7929  -18.2948   18.6900 C   0  0  0  0  0  0  0  0  0  0  0  0
    8.1866  -19.4669   19.3845 C   0  0  0  0  0  0  0  0  0  0  0  0
    9.0259  -20.6599   19.1002 C   0  0  0  0  0  0  0  0  0  0  0  0
    9.3458  -20.9928   17.9242 O   0  0  0  0  0  0  0  0  0  0  0  0
    8.4242  -16.2572   20.0849 C   0  0  0  0  0  0  0  0  0  0  0  0
    9.6222  -15.8839   20.2729 O   0  0  0  0  0  0  0  0  0  0  0  0
    9.5039  -21.4739   20.1172 O   0  0  0  0  0  0  0  0  0  0  0  0
    7.8480  -11.9170   27.7577 O   0  0  0  0  0  0  0  0  0  0  0  0
    7.5212  -12.6194   26.5844 C   0  0  0  0  0  0  0  0  0  0  0  0
    6.9801  -13.8911   26.6185 C   0  0  0  0  0  0  0  0  0  0  0  0
    6.6545  -14.5921   25.4782 C   0  0  0  0  0  0  0  0  0  0  0  0
    6.8767  -14.0038   24.2627 C   0  0  0  0  0  0  0  0  0  0  0  0
    6.5429  -14.7156   23.0229 C   0  0  0  0  0  0  0  0  0  0  0  0
    7.7686  -15.2344   22.3053 C   0  0  2  0  0  0  0  0  0  0  0  0
    7.4686  -15.9359   21.0893 N   0  0  0  0  0  0  0  0  0  0  0  0
    8.5383  -16.0672   23.2673 C   0  0  0  0  0  0  0  0  0  0  0  0
    8.1476  -17.2084   23.6234 O   0  0  0  0  0  0  0  0  0  0  0  0
    7.4114  -12.7450   24.1925 C   0  0  0  0  0  0  0  0  0  0  0  0
    7.7237  -12.0753   25.3368 C   0  0  0  0  0  0  0  0  0  0  0  0
   12.7494  -18.4118   25.1334 N   0  0  0  0  0  0  0  0  0  0  0  0
   12.9975  -17.0140   25.1041 C   0  0  0  0  0  0  0  0  0  0  0  0
   14.0900  -16.6615   25.6664 O   0  0  0  0  0  0  0  0  0  0  0  0
   12.0931  -16.0284   24.4825 C   0  0  0  0  0  0  0  0  0  0  0  0
   10.6964  -16.5524   24.5090 C   0  0  2  0  0  0  0  0  0  0  0  0
    9.7618  -15.6353   23.8492 N   0  0  0  0  0  0  0  0  0  0  0  0
   10.2399  -16.6239   25.9111 C   0  0  0  0  0  0  0  0  0  0  0  0
   10.4900  -17.7279   26.6813 O   0  0  0  0  0  0  0  0  0  0  0  0
    9.6155  -15.6712   26.4155 O   0  0  0  0  0  0  0  0  0  0  0  0
  2  1  1  6
  2  3  1  0
  3  4  1  0
  4  5  1  0
  5  9  1  0
  6  5  2  0
  7  8  2  0
  7  2  1  0
 10 11  1  0
 11 21  2  0
 12 11  1  0
 12 13  2  0
 13 14  1  0
 14 20  2  0
 14 15  1  0
 16 15  1  1
 16 18  1  0
 16 17  1  0
 17  7  1  0
 18 27  1  0
 19 18  2  0
 21 20  1  0
 23 22  1  0
 23 24  2  0
 25 23  1  0
 26 27  1  0
 26 25  1  1
 28 26  1  0
 29 28  1  0
 30 28  2  0
M  END
$$$$
