HAD.pdb
     RDKit          3D

 24 24  0  0  1  0  0  0  0  0999 V2000
   10.0513  -14.3648   18.8486 N   0  0  0  0  0  0  0  0  0  0  0  0
    9.1521  -13.3609   19.3829 C   0  0  1  0  0  0  0  0  0  0  0  0
    7.8263  -13.4765   18.6321 C   0  0  0  0  0  0  0  0  0  0  0  0
    8.0582  -13.6417   17.1655 C   0  0  0  0  0  0  0  0  0  0  0  0
    9.2934  -13.7926   16.5760 C   0  0  0  0  0  0  0  0  0  0  0  0
    9.0905  -13.9111   15.2543 N   0  0  0  0  0  0  0  0  0  0  0  0
    7.7750  -13.8398   14.9963 C   0  0  0  0  0  0  0  0  0  0  0  0
    7.1529  -13.6746   16.1767 N   0  0  0  0  0  0  0  0  0  0  0  0
    8.8464  -13.5921   20.8136 C   0  0  0  0  0  0  0  0  0  0  0  0
    8.0316  -12.8423   21.3734 O   0  0  0  0  0  0  0  0  0  0  0  0
    7.7273  -14.7752   23.3315 C   0  0  0  0  0  0  0  0  0  0  0  0
    9.1750  -14.8250   22.9747 C   0  0  2  0  0  0  0  0  0  0  0  0
    9.4375  -14.6288   21.5813 N   0  0  0  0  0  0  0  0  0  0  0  0
    9.7495  -16.0941   23.4940 C   0  0  0  0  0  0  0  0  0  0  0  0
    9.5169  -16.4855   24.6650 O   0  0  0  0  0  0  0  0  0  0  0  0
   10.5897  -16.9183   22.6794 N   0  0  0  0  0  0  0  0  0  0  0  0
   12.0135  -16.9064   22.7307 C   0  0  1  0  0  0  0  0  0  0  0  0
   12.6412  -15.6810   22.0979 C   0  0  0  0  0  0  0  0  0  0  0  0
   14.1098  -15.7493   22.0572 C   0  0  0  0  0  0  0  0  0  0  0  0
   14.7114  -16.7022   22.5822 O   0  0  0  0  0  0  0  0  0  0  0  0
   12.4537  -16.9964   24.1394 C   0  0  0  0  0  0  0  0  0  0  0  0
   12.0648  -16.0253   25.0406 O   0  0  0  0  0  0  0  0  0  0  0  0
   14.8224  -14.7509   21.4333 O   0  0  0  0  0  0  0  0  0  0  0  0
   13.1766  -17.9408   24.5354 O   0  0  0  0  0  0  0  0  0  0  0  0
  2  1  1  6
  3  2  1  0
  3  4  1  0
  4  8  1  0
  5  4  2  0
  5  6  1  0
  6  7  1  0
  8  7  2  0
  9 10  2  0
  9  2  1  0
 12 11  1  6
 12 13  1  0
 12 14  1  0
 13  9  1  0
 14 16  1  0
 15 14  2  0
 16 17  1  0
 17 21  1  0
 17 18  1  1
 19 18  1  0
 20 19  2  0
 21 24  2  0
 21 22  1  0
 23 19  1  0
M  END
$$$$
