HAD.pdb
     RDKit          3D

 24 24  0  0  1  0  0  0  0  0999 V2000
   11.9966  -14.3099   19.5519 N   0  0  0  0  0  0  0  0  0  0  0  0
   10.6101  -14.2141   19.9647 C   0  0  1  0  0  0  0  0  0  0  0  0
    9.8413  -15.3429   19.2794 C   0  0  0  0  0  0  0  0  0  0  0  0
    9.1008  -14.8340   18.0859 C   0  0  0  0  0  0  0  0  0  0  0  0
    9.1251  -13.5311   17.6411 C   0  0  0  0  0  0  0  0  0  0  0  0
    8.3416  -13.4687   16.5528 N   0  0  0  0  0  0  0  0  0  0  0  0
    7.8289  -14.6837   16.3013 C   0  0  0  0  0  0  0  0  0  0  0  0
    8.3022  -15.5120   17.2487 N   0  0  0  0  0  0  0  0  0  0  0  0
   10.4477  -14.4196   21.4225 C   0  0  0  0  0  0  0  0  0  0  0  0
   11.4622  -14.6175   22.1089 O   0  0  0  0  0  0  0  0  0  0  0  0
    7.6822  -14.1144   23.9903 C   0  0  0  0  0  0  0  0  0  0  0  0
    9.0413  -14.4855   23.5001 C   0  0  2  0  0  0  0  0  0  0  0  0
    9.1897  -14.4023   22.0788 N   0  0  0  0  0  0  0  0  0  0  0  0
    9.3903  -15.8276   24.0361 C   0  0  0  0  0  0  0  0  0  0  0  0
    9.3491  -16.0699   25.2682 O   0  0  0  0  0  0  0  0  0  0  0  0
    9.7866  -16.8949   23.1685 N   0  0  0  0  0  0  0  0  0  0  0  0
   10.1608  -18.1940   23.6183 C   0  0  1  0  0  0  0  0  0  0  0  0
   11.0851  -18.9303   22.6699 C   0  0  0  0  0  0  0  0  0  0  0  0
   10.4552  -19.2253   21.3740 C   0  0  0  0  0  0  0  0  0  0  0  0
   11.1536  -19.4642   20.3735 O   0  0  0  0  0  0  0  0  0  0  0  0
   10.8174  -18.0851   24.9386 C   0  0  0  0  0  0  0  0  0  0  0  0
   11.6309  -17.0030   25.2103 O   0  0  0  0  0  0  0  0  0  0  0  0
    9.0832  -19.2367   21.2689 O   0  0  0  0  0  0  0  0  0  0  0  0
   10.6505  -18.9589   25.8217 O   0  0  0  0  0  0  0  0  0  0  0  0
  2  1  1  1
  3  2  1  0
  3  4  1  0
  4  8  1  0
  5  4  2  0
  5  6  1  0
  6  7  1  0
  8  7  2  0
  9 10  2  0
  9  2  1  0
 12 11  1  6
 12 13  1  0
 12 14  1  0
 13  9  1  0
 14 16  1  0
 15 14  2  0
 16 17  1  0
 17 21  1  0
 17 18  1  6
 19 18  1  0
 20 19  2  0
 21 24  2  0
 21 22  1  0
 23 19  1  0
M  END
$$$$
