HAD.pdb
     RDKit          3D

 24 24  0  0  1  0  0  0  0  0999 V2000
   11.8949  -15.0348   16.9905 N   0  0  0  0  0  0  0  0  0  0  0  0
   10.5293  -14.6102   17.2283 C   0  0  1  0  0  0  0  0  0  0  0  0
    9.6195  -15.8150   16.9932 C   0  0  0  0  0  0  0  0  0  0  0  0
    8.9998  -15.7566   15.6351 C   0  0  0  0  0  0  0  0  0  0  0  0
    9.2538  -14.7829   14.6953 C   0  0  0  0  0  0  0  0  0  0  0  0
    8.5139  -15.0731   13.6134 N   0  0  0  0  0  0  0  0  0  0  0  0
    7.8074  -16.1915   13.8423 C   0  0  0  0  0  0  0  0  0  0  0  0
    8.1144  -16.6007   15.0857 N   0  0  0  0  0  0  0  0  0  0  0  0
   10.3138  -14.1884   18.6318 C   0  0  0  0  0  0  0  0  0  0  0  0
   11.2035  -14.4241   19.4638 O   0  0  0  0  0  0  0  0  0  0  0  0
    7.6747  -12.3333   20.6386 C   0  0  0  0  0  0  0  0  0  0  0  0
    8.9722  -13.0333   20.4106 C   0  0  2  0  0  0  0  0  0  0  0  0
    9.1403  -13.5268   19.0775 N   0  0  0  0  0  0  0  0  0  0  0  0
    9.1271  -14.0950   21.4396 C   0  0  0  0  0  0  0  0  0  0  0  0
    9.1277  -13.8213   22.6658 O   0  0  0  0  0  0  0  0  0  0  0  0
    9.2814  -15.4698   21.0723 N   0  0  0  0  0  0  0  0  0  0  0  0
    9.4095  -16.5377   22.0068 C   0  0  1  0  0  0  0  0  0  0  0  0
    9.0826  -17.9007   21.4313 C   0  0  0  0  0  0  0  0  0  0  0  0
    9.2426  -18.9865   22.4104 C   0  0  0  0  0  0  0  0  0  0  0  0
    8.5804  -18.9890   23.4626 O   0  0  0  0  0  0  0  0  0  0  0  0
   10.7891  -16.5607   22.5383 C   0  0  0  0  0  0  0  0  0  0  0  0
   10.9953  -16.6198   23.9023 O   0  0  0  0  0  0  0  0  0  0  0  0
   10.1317  -20.0063   22.1594 O   0  0  0  0  0  0  0  0  0  0  0  0
   11.7812  -16.5276   21.7728 O   0  0  0  0  0  0  0  0  0  0  0  0
  2  1  1  1
  3  2  1  0
  3  4  1  0
  4  8  1  0
  5  4  2  0
  5  6  1  0
  6  7  1  0
  8  7  2  0
  9 10  2  0
  9  2  1  0
 12 11  1  6
 12 13  1  0
 12 14  1  0
 13  9  1  0
 14 16  1  0
 15 14  2  0
 16 17  1  0
 17 21  1  0
 17 18  1  6
 19 18  1  0
 20 19  2  0
 21 24  2  0
 21 22  1  0
 23 19  1  0
M  END
$$$$
