HAD.pdb
     RDKit          3D

 24 24  0  0  1  0  0  0  0  0999 V2000
    9.5603  -12.6132   18.5990 N   0  0  0  0  0  0  0  0  0  0  0  0
    8.8046  -13.6905   19.2074 C   0  0  1  0  0  0  0  0  0  0  0  0
    9.1634  -14.9824   18.4747 C   0  0  0  0  0  0  0  0  0  0  0  0
    8.5672  -15.0003   17.1050 C   0  0  0  0  0  0  0  0  0  0  0  0
    7.9527  -13.9269   16.5000 C   0  0  0  0  0  0  0  0  0  0  0  0
    7.5505  -14.3328   15.2852 N   0  0  0  0  0  0  0  0  0  0  0  0
    7.8908  -15.6194   15.1089 C   0  0  0  0  0  0  0  0  0  0  0  0
    8.5136  -16.0170   16.2322 N   0  0  0  0  0  0  0  0  0  0  0  0
    9.1731  -13.8964   20.6272 C   0  0  0  0  0  0  0  0  0  0  0  0
   10.3749  -13.9999   20.9177 O   0  0  0  0  0  0  0  0  0  0  0  0
    7.4677  -13.9566   24.0092 C   0  0  0  0  0  0  0  0  0  0  0  0
    8.5766  -14.2116   23.0445 C   0  0  2  0  0  0  0  0  0  0  0  0
    8.2220  -13.9819   21.6768 N   0  0  0  0  0  0  0  0  0  0  0  0
    9.1048  -15.5815   23.2783 C   0  0  0  0  0  0  0  0  0  0  0  0
    8.5723  -16.5868   22.7450 O   0  0  0  0  0  0  0  0  0  0  0  0
   10.2403  -15.8072   24.1200 N   0  0  0  0  0  0  0  0  0  0  0  0
   10.8066  -17.0901   24.3721 C   0  0  1  0  0  0  0  0  0  0  0  0
   12.3141  -17.0777   24.5232 C   0  0  0  0  0  0  0  0  0  0  0  0
   13.0026  -16.5624   23.3301 C   0  0  0  0  0  0  0  0  0  0  0  0
   12.6905  -16.9688   22.1974 O   0  0  0  0  0  0  0  0  0  0  0  0
   10.2070  -17.6578   25.5987 C   0  0  0  0  0  0  0  0  0  0  0  0
   10.5237  -18.9461   25.9814 O   0  0  0  0  0  0  0  0  0  0  0  0
   13.9992  -15.6237   23.4693 O   0  0  0  0  0  0  0  0  0  0  0  0
    9.4128  -16.9908   26.3028 O   0  0  0  0  0  0  0  0  0  0  0  0
  2  1  1  6
  3  2  1  0
  3  4  1  0
  4  8  1  0
  5  4  2  0
  5  6  1  0
  6  7  1  0
  8  7  2  0
  9 10  2  0
  9  2  1  0
 12 11  1  1
 12 13  1  0
 12 14  1  0
 13  9  1  0
 14 16  1  0
 15 14  2  0
 16 17  1  0
 17 21  1  0
 17 18  1  1
 19 18  1  0
 20 19  2  0
 21 24  2  0
 21 22  1  0
 23 19  1  0
M  END
$$$$
