HAD.pdb
     RDKit          3D

 24 24  0  0  1  0  0  0  0  0999 V2000
   10.6242  -16.8154   20.4592 N   0  0  0  0  0  0  0  0  0  0  0  0
    9.8459  -15.6890   20.9360 C   0  0  1  0  0  0  0  0  0  0  0  0
    8.4204  -15.8525   20.4109 C   0  0  0  0  0  0  0  0  0  0  0  0
    8.0806  -14.7634   19.4465 C   0  0  0  0  0  0  0  0  0  0  0  0
    8.9091  -13.7126   19.1220 C   0  0  0  0  0  0  0  0  0  0  0  0
    8.2548  -12.9521   18.2300 N   0  0  0  0  0  0  0  0  0  0  0  0
    7.0487  -13.4886   17.9852 C   0  0  0  0  0  0  0  0  0  0  0  0
    6.9543  -14.5990   18.7374 N   0  0  0  0  0  0  0  0  0  0  0  0
    9.7492  -15.6649   22.4138 C   0  0  0  0  0  0  0  0  0  0  0  0
   10.4788  -16.4267   23.0671 O   0  0  0  0  0  0  0  0  0  0  0  0
    7.7219  -13.8698   25.0780 C   0  0  0  0  0  0  0  0  0  0  0  0
    8.7747  -14.7874   24.5536 C   0  0  2  0  0  0  0  0  0  0  0  0
    8.8638  -14.8143   23.1252 N   0  0  0  0  0  0  0  0  0  0  0  0
    8.5651  -16.1369   25.1413 C   0  0  0  0  0  0  0  0  0  0  0  0
    7.5819  -16.8468   24.8131 O   0  0  0  0  0  0  0  0  0  0  0  0
    9.4759  -16.6786   26.1035 N   0  0  0  0  0  0  0  0  0  0  0  0
    9.4735  -18.0381   26.5300 C   0  0  1  0  0  0  0  0  0  0  0  0
    9.7408  -19.0317   25.4177 C   0  0  0  0  0  0  0  0  0  0  0  0
    9.8921  -20.4099   25.9084 C   0  0  0  0  0  0  0  0  0  0  0  0
    8.9281  -21.0068   26.4184 O   0  0  0  0  0  0  0  0  0  0  0  0
   10.4886  -18.2209   27.5894 C   0  0  0  0  0  0  0  0  0  0  0  0
   11.4031  -17.2172   27.8405 O   0  0  0  0  0  0  0  0  0  0  0  0
   11.1096  -21.0424   25.8019 O   0  0  0  0  0  0  0  0  0  0  0  0
   10.5373  -19.2734   28.2684 O   0  0  0  0  0  0  0  0  0  0  0  0
  2  1  1  1
  3  2  1  0
  3  4  1  0
  4  8  1  0
  5  4  2  0
  5  6  1  0
  6  7  1  0
  8  7  2  0
  9 10  2  0
  9  2  1  0
 12 11  1  6
 12 13  1  0
 12 14  1  0
 13  9  1  0
 14 16  1  0
 15 14  2  0
 16 17  1  0
 17 21  1  0
 17 18  1  6
 19 18  1  0
 20 19  2  0
 21 24  2  0
 21 22  1  0
 23 19  1  0
M  END
$$$$
