HAD.pdb
     RDKit          3D

 24 24  0  0  1  0  0  0  0  0999 V2000
   11.1701  -21.8717   27.4738 N   0  0  0  0  0  0  0  0  0  0  0  0
   10.0150  -22.7228   27.6813 C   0  0  1  0  0  0  0  0  0  0  0  0
    9.9892  -23.7553   26.5552 C   0  0  0  0  0  0  0  0  0  0  0  0
   10.9469  -23.3834   25.4707 C   0  0  0  0  0  0  0  0  0  0  0  0
   10.6127  -22.6896   24.3292 C   0  0  0  0  0  0  0  0  0  0  0  0
   11.7353  -22.5508   23.6062 N   0  0  0  0  0  0  0  0  0  0  0  0
   12.7580  -23.1318   24.2533 C   0  0  0  0  0  0  0  0  0  0  0  0
   12.2613  -23.6387   25.3953 N   0  0  0  0  0  0  0  0  0  0  0  0
   10.1053  -23.4849   28.9482 C   0  0  0  0  0  0  0  0  0  0  0  0
    9.1531  -24.2120   29.2707 O   0  0  0  0  0  0  0  0  0  0  0  0
   11.4595  -25.6829   30.7487 C   0  0  0  0  0  0  0  0  0  0  0  0
   11.3442  -24.2177   31.0041 C   0  0  2  0  0  0  0  0  0  0  0  0
   11.2265  -23.4278   29.8161 N   0  0  0  0  0  0  0  0  0  0  0  0
   12.4799  -23.7942   31.8649 C   0  0  0  0  0  0  0  0  0  0  0  0
   12.7612  -24.4083   32.9243 O   0  0  0  0  0  0  0  0  0  0  0  0
   13.2963  -22.6703   31.5194 N   0  0  0  0  0  0  0  0  0  0  0  0
   14.4087  -22.2231   32.2892 C   0  0  1  0  0  0  0  0  0  0  0  0
   15.4040  -21.3917   31.5057 C   0  0  0  0  0  0  0  0  0  0  0  0
   16.0952  -22.1637   30.4619 C   0  0  0  0  0  0  0  0  0  0  0  0
   15.8879  -23.3834   30.3385 O   0  0  0  0  0  0  0  0  0  0  0  0
   13.9220  -21.4301   33.4383 C   0  0  0  0  0  0  0  0  0  0  0  0
   12.5951  -21.0523   33.4953 O   0  0  0  0  0  0  0  0  0  0  0  0
   16.9773  -21.5309   29.6163 O   0  0  0  0  0  0  0  0  0  0  0  0
   14.6924  -21.0913   34.3673 O   0  0  0  0  0  0  0  0  0  0  0  0
  2  1  1  6
  3  2  1  0
  3  4  1  0
  4  8  1  0
  5  4  2  0
  5  6  1  0
  6  7  1  0
  8  7  2  0
  9 10  2  0
  9  2  1  0
 12 11  1  6
 12 13  1  0
 12 14  1  0
 13  9  1  0
 14 16  1  0
 15 14  2  0
 16 17  1  0
 17 21  1  0
 17 18  1  6
 19 18  1  0
 20 19  2  0
 21 24  2  0
 21 22  1  0
 23 19  1  0
M  END
$$$$
