HAD.pdb
     RDKit          3D

 24 24  0  0  1  0  0  0  0  0999 V2000
35873.023423151.8418 8694.1387 N   0  0  0  0  0  0  0  0  0  0  0  0
35874.156223152.7383 8693.9375 C   0  0  1  0  0  0  0  0  0  0  0  0
35873.832023153.6270 8692.7334 C   0  0  0  0  0  0  0  0  0  0  0  0
35874.168023155.0488 8693.0371 C   0  0  0  0  0  0  0  0  0  0  0  0
35875.382823155.6348 8692.8574 C   0  0  0  0  0  0  0  0  0  0  0  0
35875.277323156.9180 8693.2324 N   0  0  0  0  0  0  0  0  0  0  0  0
35874.015623157.1621 8693.6270 C   0  0  0  0  0  0  0  0  0  0  0  0
35873.343823156.0137 8693.4990 N   0  0  0  0  0  0  0  0  0  0  0  0
35874.355523153.6426 8695.0918 C   0  0  0  0  0  0  0  0  0  0  0  0
35873.445323154.4277 8695.3916 O   0  0  0  0  0  0  0  0  0  0  0  0
35875.031223152.4004 8697.9141 C   0  0  0  0  0  0  0  0  0  0  0  0
35875.550823153.6660 8697.3047 C   0  0  2  0  0  0  0  0  0  0  0  0
35875.543023153.6641 8695.8711 N   0  0  0  0  0  0  0  0  0  0  0  0
35876.867223153.9727 8697.8789 C   0  0  0  0  0  0  0  0  0  0  0  0
35877.003923154.8145 8698.8027 O   0  0  0  0  0  0  0  0  0  0  0  0
35878.058623153.3184 8697.3984 N   0  0  0  0  0  0  0  0  0  0  0  0
35878.800823153.7500 8696.2598 C   0  0  1  0  0  0  0  0  0  0  0  0
35879.277323152.6152 8695.3730 C   0  0  0  0  0  0  0  0  0  0  0  0
35879.187523152.9434 8693.9453 C   0  0  0  0  0  0  0  0  0  0  0  0
35879.968823152.4023 8693.1318 O   0  0  0  0  0  0  0  0  0  0  0  0
35877.964823154.6719 8695.4531 C   0  0  0  0  0  0  0  0  0  0  0  0
35878.058623154.6465 8694.0771 O   0  0  0  0  0  0  0  0  0  0  0  0
35878.242223153.8301 8693.4980 O   0  0  0  0  0  0  0  0  0  0  0  0
35877.183623155.4902 8695.9961 O   0  0  0  0  0  0  0  0  0  0  0  0
  2  1  1  1
  3  2  1  0
  3  4  1  0
  4  8  1  0
  5  4  2  0
  5  6  1  0
  6  7  1  0
  8  7  2  0
  9 10  2  0
  9  2  1  0
 12 11  1  1
 12 13  1  0
 12 14  1  0
 13  9  1  0
 14 16  1  0
 15 14  2  0
 16 17  1  0
 17 21  1  0
 17 18  1  6
 19 18  1  0
 20 19  2  0
 21 24  2  0
 21 22  1  0
 23 19  1  0
M  END
$$$$
