HAD.pdb
     RDKit          3D

 24 24  0  0  1  0  0  0  0  0999 V2000
    7.0689  -17.3245   19.4861 N   0  0  0  0  0  0  0  0  0  0  0  0
    8.2711  -17.1338   20.2736 C   0  0  1  0  0  0  0  0  0  0  0  0
    8.0231  -15.9653   21.2263 C   0  0  0  0  0  0  0  0  0  0  0  0
    7.9918  -14.6700   20.4826 C   0  0  0  0  0  0  0  0  0  0  0  0
    8.1762  -14.5375   19.1245 C   0  0  0  0  0  0  0  0  0  0  0  0
    8.0769  -13.2301   18.8363 N   0  0  0  0  0  0  0  0  0  0  0  0
    7.8375  -12.5413   19.9634 C   0  0  0  0  0  0  0  0  0  0  0  0
    7.7876  -13.4359   20.9659 N   0  0  0  0  0  0  0  0  0  0  0  0
    8.5739  -18.3102   21.1211 C   0  0  0  0  0  0  0  0  0  0  0  0
    7.6985  -18.7202   21.8990 O   0  0  0  0  0  0  0  0  0  0  0  0
   10.7321  -21.2693   21.1324 C   0  0  0  0  0  0  0  0  0  0  0  0
   10.0974  -20.1510   21.8886 C   0  0  2  0  0  0  0  0  0  0  0  0
    9.8158  -18.9960   21.0913 N   0  0  0  0  0  0  0  0  0  0  0  0
   10.9399  -19.8393   23.0732 C   0  0  0  0  0  0  0  0  0  0  0  0
   11.3176  -20.7415   23.8618 O   0  0  0  0  0  0  0  0  0  0  0  0
   11.3530  -18.4993   23.3602 N   0  0  0  0  0  0  0  0  0  0  0  0
   12.1884  -18.1373   24.4562 C   0  0  1  0  0  0  0  0  0  0  0  0
   12.8658  -16.7916   24.2945 C   0  0  0  0  0  0  0  0  0  0  0  0
   13.7234  -16.7245   23.1015 C   0  0  0  0  0  0  0  0  0  0  0  0
   13.6276  -15.7712   22.3092 O   0  0  0  0  0  0  0  0  0  0  0  0
   11.3877  -18.1241   25.6991 C   0  0  0  0  0  0  0  0  0  0  0  0
   12.0233  -18.0241   26.9208 O   0  0  0  0  0  0  0  0  0  0  0  0
   14.6379  -17.7243   22.8613 O   0  0  0  0  0  0  0  0  0  0  0  0
   10.1370  -18.2022   25.6675 O   0  0  0  0  0  0  0  0  0  0  0  0
  2  1  1  1
  3  2  1  0
  3  4  1  0
  4  8  1  0
  5  4  2  0
  5  6  1  0
  6  7  1  0
  8  7  2  0
  9 10  2  0
  9  2  1  0
 12 11  1  6
 12 13  1  0
 12 14  1  0
 13  9  1  0
 14 16  1  0
 15 14  2  0
 16 17  1  0
 17 21  1  0
 17 18  1  6
 19 18  1  0
 20 19  2  0
 21 24  2  0
 21 22  1  0
 23 19  1  0
M  END
$$$$
