HAD.pdb
     RDKit          3D

 24 24  0  0  1  0  0  0  0  0999 V2000
    8.8563  -17.4985   18.2727 N   0  0  0  0  0  0  0  0  0  0  0  0
    8.5689  -17.0873   19.6329 C   0  0  1  0  0  0  0  0  0  0  0  0
    7.3013  -16.2347   19.6035 C   0  0  0  0  0  0  0  0  0  0  0  0
    7.4942  -15.0243   18.7494 C   0  0  0  0  0  0  0  0  0  0  0  0
    8.6411  -14.7320   18.0458 C   0  0  0  0  0  0  0  0  0  0  0  0
    8.4291  -13.5710   17.4059 N   0  0  0  0  0  0  0  0  0  0  0  0
    7.1928  -13.1274   17.6835 C   0  0  0  0  0  0  0  0  0  0  0  0
    6.6299  -14.0276   18.5084 N   0  0  0  0  0  0  0  0  0  0  0  0
    8.2784  -18.2420   20.5139 C   0  0  0  0  0  0  0  0  0  0  0  0
    8.0724  -18.0300   21.7189 O   0  0  0  0  0  0  0  0  0  0  0  0
    7.4680  -21.8990   20.3250 C   0  0  0  0  0  0  0  0  0  0  0  0
    8.1471  -20.7142   20.9256 C   0  0  2  0  0  0  0  0  0  0  0  0
    8.2228  -19.5826   20.0522 N   0  0  0  0  0  0  0  0  0  0  0  0
    9.4784  -21.1365   21.4349 C   0  0  0  0  0  0  0  0  0  0  0  0
    9.5922  -22.0612   22.2778 O   0  0  0  0  0  0  0  0  0  0  0  0
   10.6815  -20.5054   20.9841 N   0  0  0  0  0  0  0  0  0  0  0  0
   11.9832  -20.8306   21.4636 C   0  0  1  0  0  0  0  0  0  0  0  0
   13.0963  -20.5071   20.4878 C   0  0  0  0  0  0  0  0  0  0  0  0
   14.4316  -20.8080   21.0258 C   0  0  0  0  0  0  0  0  0  0  0  0
   14.5811  -21.6992   21.8797 O   0  0  0  0  0  0  0  0  0  0  0  0
   12.2327  -20.1102   22.7305 C   0  0  0  0  0  0  0  0  0  0  0  0
   12.8265  -20.7712   23.7873 O   0  0  0  0  0  0  0  0  0  0  0  0
   15.5228  -20.0976   20.5804 O   0  0  0  0  0  0  0  0  0  0  0  0
   11.9149  -18.9053   22.8666 O   0  0  0  0  0  0  0  0  0  0  0  0
  2  1  1  6
  3  2  1  0
  3  4  1  0
  4  8  1  0
  5  4  2  0
  5  6  1  0
  6  7  1  0
  8  7  2  0
  9 10  2  0
  9  2  1  0
 12 11  1  6
 12 13  1  0
 12 14  1  0
 13  9  1  0
 14 16  1  0
 15 14  2  0
 16 17  1  0
 17 21  1  0
 17 18  1  6
 19 18  1  0
 20 19  2  0
 21 24  2  0
 21 22  1  0
 23 19  1  0
M  END
$$$$
