HAD.pdb
     RDKit          3D

 24 24  0  0  1  0  0  0  0  0999 V2000
    7.0254  -16.9139   19.6230 N   0  0  0  0  0  0  0  0  0  0  0  0
    8.0732  -17.4674   18.7878 C   0  0  1  0  0  0  0  0  0  0  0  0
    9.1346  -16.3854   18.5941 C   0  0  0  0  0  0  0  0  0  0  0  0
    8.6017  -15.2591   17.7699 C   0  0  0  0  0  0  0  0  0  0  0  0
    7.3145  -15.1767   17.2880 C   0  0  0  0  0  0  0  0  0  0  0  0
    7.2213  -14.0280   16.5996 N   0  0  0  0  0  0  0  0  0  0  0  0
    8.4020  -13.3900   16.6334 C   0  0  0  0  0  0  0  0  0  0  0  0
    9.2400  -14.1554   17.3542 N   0  0  0  0  0  0  0  0  0  0  0  0
    8.7539  -18.6129   19.4346 C   0  0  0  0  0  0  0  0  0  0  0  0
    8.9916  -18.5502   20.6507 O   0  0  0  0  0  0  0  0  0  0  0  0
    9.5400  -22.2027   18.7254 C   0  0  0  0  0  0  0  0  0  0  0  0
    9.8242  -20.8816   19.3575 C   0  0  2  0  0  0  0  0  0  0  0  0
    9.1504  -19.7824   18.7356 N   0  0  0  0  0  0  0  0  0  0  0  0
   11.2973  -20.6911   19.4195 C   0  0  0  0  0  0  0  0  0  0  0  0
   12.0367  -21.5076   20.0239 O   0  0  0  0  0  0  0  0  0  0  0  0
   11.9293  -19.5701   18.7930 N   0  0  0  0  0  0  0  0  0  0  0  0
   13.3398  -19.3774   18.7335 C   0  0  1  0  0  0  0  0  0  0  0  0
   13.8116  -18.6741   17.4770 C   0  0  0  0  0  0  0  0  0  0  0  0
   13.5541  -19.4533   16.2565 C   0  0  0  0  0  0  0  0  0  0  0  0
   13.6804  -20.6902   16.2599 O   0  0  0  0  0  0  0  0  0  0  0  0
   13.7779  -18.5985   19.9114 C   0  0  0  0  0  0  0  0  0  0  0  0
   12.8347  -18.0544   20.7605 O   0  0  0  0  0  0  0  0  0  0  0  0
   13.1707  -18.8081   15.1031 O   0  0  0  0  0  0  0  0  0  0  0  0
   14.9941  -18.4204   20.1573 O   0  0  0  0  0  0  0  0  0  0  0  0
  2  1  1  1
  3  2  1  0
  3  4  1  0
  4  8  1  0
  5  4  2  0
  5  6  1  0
  6  7  1  0
  8  7  2  0
  9 10  2  0
  9  2  1  0
 12 11  1  6
 12 13  1  0
 12 14  1  0
 13  9  1  0
 14 16  1  0
 15 14  2  0
 16 17  1  0
 17 21  1  0
 17 18  1  6
 19 18  1  0
 20 19  2  0
 21 24  2  0
 21 22  1  0
 23 19  1  0
M  END
$$$$
