AFY.pdb
     RDKit          3D

 29 30  0  0  1  0  0  0  0  0999 V2000
   36.5187  -34.7249  -17.7358 C   0  0  0  0  0  0  0  0  0  0  0  0
   37.6178  -34.8028  -16.6891 C   0  0  2  0  0  0  0  0  0  0  0  0
   38.6272  -35.7594  -17.0911 N   0  0  0  0  0  0  0  0  0  0  0  0
   37.0704  -35.1794  -15.3786 C   0  0  0  0  0  0  0  0  0  0  0  0
   36.8796  -36.4197  -15.1469 O   0  0  0  0  0  0  0  0  0  0  0  0
   36.7432  -34.2313  -14.3569 N   0  0  0  0  0  0  0  0  0  0  0  0
   36.2395  -34.6496  -13.0641 C   0  0  1  0  0  0  0  0  0  0  0  0
   37.0401  -34.0970  -11.9274 C   0  0  0  0  0  0  0  0  0  0  0  0
   38.3356  -34.7838  -11.8411 C   0  0  0  0  0  0  0  0  0  0  0  0
   39.3881  -34.3792  -12.6130 C   0  0  0  0  0  0  0  0  0  0  0  0
   40.5863  -35.0587  -12.4944 C   0  0  0  0  0  0  0  0  0  0  0  0
   40.7145  -36.1147  -11.6217 C   0  0  0  0  0  0  0  0  0  0  0  0
   39.6400  -36.5143  -10.8455 C   0  0  0  0  0  0  0  0  0  0  0  0
   38.4383  -35.8459  -10.9529 C   0  0  0  0  0  0  0  0  0  0  0  0
   34.8092  -34.2214  -12.9456 C   0  0  0  0  0  0  0  0  0  0  0  0
   34.5182  -33.0109  -12.7741 O   0  0  0  0  0  0  0  0  0  0  0  0
   26.1176  -33.6102  -13.9436 O   0  0  0  0  0  0  0  0  0  0  0  0
   27.4904  -33.8886  -14.0169 C   0  0  0  0  0  0  0  0  0  0  0  0
   27.9614  -35.1864  -13.9241 C   0  0  0  0  0  0  0  0  0  0  0  0
   29.3129  -35.4384  -13.9985 C   0  0  0  0  0  0  0  0  0  0  0  0
   30.2573  -34.4190  -14.1678 C   0  0  0  0  0  0  0  0  0  0  0  0
   31.6946  -34.6920  -14.2362 C   0  0  0  0  0  0  0  0  0  0  0  0
   32.3368  -34.7689  -12.8703 C   0  0  2  0  0  0  0  0  0  0  0  0
   33.7370  -35.1414  -13.0196 N   0  0  0  0  0  0  0  0  0  0  0  0
   31.7031  -35.7522  -11.9738 C   0  0  0  0  0  0  0  0  0  0  0  0
   32.2406  -37.0134  -11.7952 O   0  0  0  0  0  0  0  0  0  0  0  0
   29.7754  -33.1186  -14.2597 C   0  0  0  0  0  0  0  0  0  0  0  0
   28.4186  -32.8841  -14.1834 C   0  0  0  0  0  0  0  0  0  0  0  0
   30.6571  -35.4617  -11.3529 O   0  0  0  0  0  0  0  0  0  0  0  0
  2  1  1  6
  2  3  1  0
  4  2  1  0
  5  4  2  0
  6  4  1  0
  7  6  1  0
  7  8  1  1
  9 14  1  0
  9  8  1  0
 10  9  2  0
 11 12  2  0
 11 10  1  0
 12 13  1  0
 13 14  2  0
 15 24  1  0
 15  7  1  0
 16 15  2  0
 18 17  1  0
 19 18  2  0
 20 19  1  0
 21 20  2  0
 21 27  1  0
 23 22  1  6
 22 21  1  0
 23 25  1  0
 23 24  1  0
 25 26  1  0
 27 28  2  0
 28 18  1  0
 29 25  2  0
M  END
$$$$
