AFY.pdb
     RDKit          3D

 29 30  0  0  1  0  0  0  0  0999 V2000
   24.8838   -8.5401  -20.9185 C   0  0  0  0  0  0  0  0  0  0  0  0
   25.1331   -7.2023  -20.2420 C   0  0  2  0  0  0  0  0  0  0  0  0
   26.5547   -6.9673  -20.1024 N   0  0  0  0  0  0  0  0  0  0  0  0
   24.4894   -7.1521  -18.9222 C   0  0  0  0  0  0  0  0  0  0  0  0
   25.0693   -7.7471  -17.9536 O   0  0  0  0  0  0  0  0  0  0  0  0
   23.2537   -6.4741  -18.6710 N   0  0  0  0  0  0  0  0  0  0  0  0
   22.7334   -6.3136  -17.3280 C   0  0  1  0  0  0  0  0  0  0  0  0
   22.5460   -4.8781  -16.9503 C   0  0  0  0  0  0  0  0  0  0  0  0
   23.8488   -4.2062  -16.8567 C   0  0  0  0  0  0  0  0  0  0  0  0
   24.2849   -3.3947  -17.8659 C   0  0  0  0  0  0  0  0  0  0  0  0
   25.5185   -2.7855  -17.7295 C   0  0  0  0  0  0  0  0  0  0  0  0
   26.2861   -2.9916  -16.6064 C   0  0  0  0  0  0  0  0  0  0  0  0
   25.8322   -3.8164  -15.5912 C   0  0  0  0  0  0  0  0  0  0  0  0
   24.6034   -4.4310  -15.7133 C   0  0  0  0  0  0  0  0  0  0  0  0
   21.4326   -7.0490  -17.2270 C   0  0  0  0  0  0  0  0  0  0  0  0
   20.5685   -6.9438  -18.1335 O   0  0  0  0  0  0  0  0  0  0  0  0
   15.5711  -13.3598  -15.3279 O   0  0  0  0  0  0  0  0  0  0  0  0
   16.7116  -12.5487  -15.4231 C   0  0  0  0  0  0  0  0  0  0  0  0
   17.3073  -12.2957  -16.6461 C   0  0  0  0  0  0  0  0  0  0  0  0
   18.4262  -11.4966  -16.7179 C   0  0  0  0  0  0  0  0  0  0  0  0
   19.0047  -10.9132  -15.5844 C   0  0  0  0  0  0  0  0  0  0  0  0
   20.2010  -10.0722  -15.6657 C   0  0  0  0  0  0  0  0  0  0  0  0
   19.8789   -8.6357  -16.0075 C   0  0  2  0  0  0  0  0  0  0  0  0
   21.1196   -7.8820  -16.1271 N   0  0  0  0  0  0  0  0  0  0  0  0
   19.0392   -7.9627  -15.0006 C   0  0  0  0  0  0  0  0  0  0  0  0
   17.6671   -7.8784  -15.1488 O   0  0  0  0  0  0  0  0  0  0  0  0
   18.4000  -11.1729  -14.3603 C   0  0  0  0  0  0  0  0  0  0  0  0
   17.2798  -11.9754  -14.3065 C   0  0  0  0  0  0  0  0  0  0  0  0
   19.5569   -7.4495  -13.9844 O   0  0  0  0  0  0  0  0  0  0  0  0
  2  1  1  1
  2  3  1  0
  4  2  1  0
  5  4  2  0
  6  4  1  0
  7  6  1  0
  7  8  1  6
  9 14  1  0
  9  8  1  0
 10  9  2  0
 11 12  2  0
 11 10  1  0
 12 13  1  0
 13 14  2  0
 15 24  1  0
 15  7  1  0
 16 15  2  0
 18 17  1  0
 19 18  2  0
 20 19  1  0
 21 20  2  0
 21 27  1  0
 23 22  1  1
 22 21  1  0
 23 25  1  0
 23 24  1  0
 25 26  1  0
 27 28  2  0
 28 18  1  0
 29 25  2  0
M  END
$$$$
