AFY.pdb
     RDKit          3D

 29 30  0  0  1  0  0  0  0  0999 V2000
   26.9821  -20.9213  -18.2641 C   0  0  0  0  0  0  0  0  0  0  0  0
   27.6206  -21.8523  -17.2466 C   0  0  2  0  0  0  0  0  0  0  0  0
   27.6648  -23.2045  -17.7615 N   0  0  0  0  0  0  0  0  0  0  0  0
   26.8829  -21.8284  -15.9761 C   0  0  0  0  0  0  0  0  0  0  0  0
   25.8422  -22.5605  -15.8777 O   0  0  0  0  0  0  0  0  0  0  0  0
   27.2707  -21.0310  -14.8521 N   0  0  0  0  0  0  0  0  0  0  0  0
   26.5209  -21.0483  -13.6121 C   0  0  1  0  0  0  0  0  0  0  0  0
   27.3039  -20.5080  -12.4575 C   0  0  0  0  0  0  0  0  0  0  0  0
   26.4535  -20.4305  -11.2624 C   0  0  0  0  0  0  0  0  0  0  0  0
   25.8150  -19.2663  -10.9397 C   0  0  0  0  0  0  0  0  0  0  0  0
   25.0260  -19.2453   -9.8045 C   0  0  0  0  0  0  0  0  0  0  0  0
   24.8881  -20.3678   -9.0211 C   0  0  0  0  0  0  0  0  0  0  0  0
   25.5407  -21.5410   -9.3596 C   0  0  0  0  0  0  0  0  0  0  0  0
   26.3313  -21.5771  -10.4893 C   0  0  0  0  0  0  0  0  0  0  0  0
   25.2642  -20.2558  -13.8009 C   0  0  0  0  0  0  0  0  0  0  0  0
   25.2948  -19.1398  -14.3780 O   0  0  0  0  0  0  0  0  0  0  0  0
   17.5699  -18.0389  -16.9183 O   0  0  0  0  0  0  0  0  0  0  0  0
   18.7934  -18.5736  -16.4884 C   0  0  0  0  0  0  0  0  0  0  0  0
   18.8765  -19.3233  -15.3283 C   0  0  0  0  0  0  0  0  0  0  0  0
   20.0871  -19.8393  -14.9239 C   0  0  0  0  0  0  0  0  0  0  0  0
   21.2679  -19.6368  -15.6482 C   0  0  0  0  0  0  0  0  0  0  0  0
   22.5548  -20.1798  -15.2077 C   0  0  0  0  0  0  0  0  0  0  0  0
   22.7372  -20.0989  -13.7096 C   0  0  2  0  0  0  0  0  0  0  0  0
   24.0057  -20.7163  -13.3473 N   0  0  0  0  0  0  0  0  0  0  0  0
   21.6734  -20.7765  -12.9473 C   0  0  0  0  0  0  0  0  0  0  0  0
   21.5427  -22.1528  -12.9630 O   0  0  0  0  0  0  0  0  0  0  0  0
   21.1753  -18.8825  -16.8118 C   0  0  0  0  0  0  0  0  0  0  0  0
   19.9547  -18.3732  -17.2024 C   0  0  0  0  0  0  0  0  0  0  0  0
   20.8608  -20.1129  -12.2664 O   0  0  0  0  0  0  0  0  0  0  0  0
  2  1  1  6
  2  3  1  0
  4  2  1  0
  5  4  2  0
  6  4  1  0
  7  6  1  0
  7  8  1  1
  9 14  1  0
  9  8  1  0
 10  9  2  0
 11 12  2  0
 11 10  1  0
 12 13  1  0
 13 14  2  0
 15 24  1  0
 15  7  1  0
 16 15  2  0
 18 17  1  0
 19 18  2  0
 20 19  1  0
 21 20  2  0
 21 27  1  0
 23 22  1  6
 22 21  1  0
 23 25  1  0
 23 24  1  0
 25 26  1  0
 27 28  2  0
 28 18  1  0
 29 25  2  0
M  END
$$$$
