AFY.pdb
     RDKit          3D

 29 30  0  0  1  0  0  0  0  0999 V2000
   43.1851   -5.2913   -5.4637 C   0  0  0  0  0  0  0  0  0  0  0  0
   41.6703   -5.3621   -5.5653 C   0  0  2  0  0  0  0  0  0  0  0  0
   41.0654   -5.0204   -4.2953 N   0  0  0  0  0  0  0  0  0  0  0  0
   41.2328   -6.7022   -5.9793 C   0  0  0  0  0  0  0  0  0  0  0  0
   41.1600   -7.6083   -5.0835 O   0  0  0  0  0  0  0  0  0  0  0  0
   40.8869   -7.0393   -7.3271 N   0  0  0  0  0  0  0  0  0  0  0  0
   40.4000   -8.3576   -7.6805 C   0  0  1  0  0  0  0  0  0  0  0  0
   39.0743   -8.3158   -8.3726 C   0  0  0  0  0  0  0  0  0  0  0  0
   37.9957   -8.1540   -7.3888 C   0  0  0  0  0  0  0  0  0  0  0  0
   37.6951   -9.1622   -6.5168 C   0  0  0  0  0  0  0  0  0  0  0  0
   36.6710   -8.9602   -5.6102 C   0  0  0  0  0  0  0  0  0  0  0  0
   35.9734   -7.7745   -5.5875 C   0  0  0  0  0  0  0  0  0  0  0  0
   36.2882   -6.7611   -6.4767 C   0  0  0  0  0  0  0  0  0  0  0  0
   37.3075   -6.9483   -7.3870 C   0  0  0  0  0  0  0  0  0  0  0  0
   41.4177   -9.0266   -8.5522 C   0  0  0  0  0  0  0  0  0  0  0  0
   42.1825   -8.3437   -9.2789 O   0  0  0  0  0  0  0  0  0  0  0  0
   46.4595   -9.9732   -4.2994 O   0  0  0  0  0  0  0  0  0  0  0  0
   45.6563  -10.5152   -5.3137 C   0  0  0  0  0  0  0  0  0  0  0  0
   44.3932  -11.0080   -5.0371 C   0  0  0  0  0  0  0  0  0  0  0  0
   43.6206  -11.5358   -6.0471 C   0  0  0  0  0  0  0  0  0  0  0  0
   44.0627  -11.5993   -7.3740 C   0  0  0  0  0  0  0  0  0  0  0  0
   43.2403  -12.1711   -8.4425 C   0  0  0  0  0  0  0  0  0  0  0  0
   42.6242  -11.1142   -9.3299 C   0  0  2  0  0  0  0  0  0  0  0  0
   41.5645  -10.4330   -8.5988 N   0  0  0  0  0  0  0  0  0  0  0  0
   42.0399  -11.6521  -10.5714 C   0  0  0  0  0  0  0  0  0  0  0  0
   42.8314  -12.2272  -11.5483 O   0  0  0  0  0  0  0  0  0  0  0  0
   45.3325  -11.1023   -7.6425 C   0  0  0  0  0  0  0  0  0  0  0  0
   46.0929  -10.5771   -6.6190 C   0  0  0  0  0  0  0  0  0  0  0  0
   40.8058  -11.5969  -10.7667 O   0  0  0  0  0  0  0  0  0  0  0  0
  2  1  1  1
  2  3  1  0
  4  2  1  0
  5  4  2  0
  6  4  1  0
  7  6  1  0
  7  8  1  6
  9 14  1  0
  9  8  1  0
 10  9  2  0
 11 12  2  0
 11 10  1  0
 12 13  1  0
 13 14  2  0
 15 24  1  0
 15  7  1  0
 16 15  2  0
 18 17  1  0
 19 18  2  0
 20 19  1  0
 21 20  2  0
 21 27  1  0
 23 22  1  1
 22 21  1  0
 23 25  1  0
 23 24  1  0
 25 26  1  0
 27 28  2  0
 28 18  1  0
 29 25  2  0
M  END
$$$$
