AFY.pdb
     RDKit          3D

 29 30  0  0  1  0  0  0  0  0999 V2000
   14.4602   -7.0582  -16.9369 C   0  0  0  0  0  0  0  0  0  0  0  0
   15.7939   -7.7597  -17.1342 C   0  0  2  0  0  0  0  0  0  0  0  0
   15.5939   -9.0553  -17.7483 N   0  0  0  0  0  0  0  0  0  0  0  0
   16.4984   -7.9199  -15.8548 C   0  0  0  0  0  0  0  0  0  0  0  0
   16.2183   -8.9424  -15.1445 O   0  0  0  0  0  0  0  0  0  0  0  0
   17.4757   -6.9930  -15.3695 N   0  0  0  0  0  0  0  0  0  0  0  0
   18.2832   -7.2812  -14.2011 C   0  0  1  0  0  0  0  0  0  0  0  0
   19.7109   -6.8675  -14.3710 C   0  0  0  0  0  0  0  0  0  0  0  0
   20.4993   -7.2820  -13.2031 C   0  0  0  0  0  0  0  0  0  0  0  0
   20.7868   -6.3903  -12.2083 C   0  0  0  0  0  0  0  0  0  0  0  0
   21.5323   -6.8302  -11.1302 C   0  0  0  0  0  0  0  0  0  0  0  0
   21.9727   -8.1319  -11.0618 C   0  0  0  0  0  0  0  0  0  0  0  0
   21.6742   -9.0250  -12.0767 C   0  0  0  0  0  0  0  0  0  0  0  0
   20.9313   -8.6006  -13.1586 C   0  0  0  0  0  0  0  0  0  0  0  0
   17.6806   -6.5866  -13.0189 C   0  0  0  0  0  0  0  0  0  0  0  0
   17.2261   -5.4201  -13.1282 O   0  0  0  0  0  0  0  0  0  0  0  0
   11.6184   -9.7026   -9.2911 O   0  0  0  0  0  0  0  0  0  0  0  0
   12.9189   -9.1795   -9.3432 C   0  0  0  0  0  0  0  0  0  0  0  0
   13.8615   -9.6961  -10.2145 C   0  0  0  0  0  0  0  0  0  0  0  0
   15.1326   -9.1683  -10.2502 C   0  0  0  0  0  0  0  0  0  0  0  0
   15.5271   -8.1072   -9.4265 C   0  0  0  0  0  0  0  0  0  0  0  0
   16.8837   -7.5564   -9.4617 C   0  0  0  0  0  0  0  0  0  0  0  0
   17.0678   -6.5360  -10.5612 C   0  0  2  0  0  0  0  0  0  0  0  0
   17.5956   -7.1985  -11.7462 N   0  0  0  0  0  0  0  0  0  0  0  0
   17.9931   -5.4452  -10.2063 C   0  0  0  0  0  0  0  0  0  0  0  0
   17.6406   -4.4734   -9.2882 O   0  0  0  0  0  0  0  0  0  0  0  0
   14.5740   -7.5947   -8.5544 C   0  0  0  0  0  0  0  0  0  0  0  0
   13.3055   -8.1352   -8.5317 C   0  0  0  0  0  0  0  0  0  0  0  0
   19.1247   -5.3771  -10.7346 O   0  0  0  0  0  0  0  0  0  0  0  0
  2  1  1  1
  2  3  1  0
  4  2  1  0
  5  4  2  0
  6  4  1  0
  7  6  1  0
  7  8  1  6
  9 14  1  0
  9  8  1  0
 10  9  2  0
 11 12  2  0
 11 10  1  0
 12 13  1  0
 13 14  2  0
 15 24  1  0
 15  7  1  0
 16 15  2  0
 18 17  1  0
 19 18  2  0
 20 19  1  0
 21 20  2  0
 21 27  1  0
 23 22  1  1
 22 21  1  0
 23 25  1  0
 23 24  1  0
 25 26  1  0
 27 28  2  0
 28 18  1  0
 29 25  2  0
M  END
$$$$
