AFY.pdb
     RDKit          3D

 29 30  0  0  1  0  0  0  0  0999 V2000
   23.6224  -11.7416  -18.6630 C   0  0  0  0  0  0  0  0  0  0  0  0
   23.0447  -10.4211  -19.1449 C   0  0  2  0  0  0  0  0  0  0  0  0
   23.8535   -9.8807  -20.2170 N   0  0  0  0  0  0  0  0  0  0  0  0
   22.9640   -9.4497  -18.0455 C   0  0  0  0  0  0  0  0  0  0  0  0
   22.2402   -9.7493  -17.0379 O   0  0  0  0  0  0  0  0  0  0  0  0
   23.6514   -8.1939  -18.0486 N   0  0  0  0  0  0  0  0  0  0  0  0
   23.5949   -7.2929  -16.9149 C   0  0  1  0  0  0  0  0  0  0  0  0
   24.9474   -6.9902  -16.3514 C   0  0  0  0  0  0  0  0  0  0  0  0
   25.6463   -8.2382  -16.0172 C   0  0  0  0  0  0  0  0  0  0  0  0
   25.2330   -9.0041  -14.9637 C   0  0  0  0  0  0  0  0  0  0  0  0
   25.9246  -10.1697  -14.6906 C   0  0  0  0  0  0  0  0  0  0  0  0
   27.0006  -10.5477  -15.4602 C   0  0  0  0  0  0  0  0  0  0  0  0
   27.4088   -9.7623  -16.5248 C   0  0  0  0  0  0  0  0  0  0  0  0
   26.7286   -8.5967  -16.8093 C   0  0  0  0  0  0  0  0  0  0  0  0
   22.9174   -6.0274  -17.3418 C   0  0  0  0  0  0  0  0  0  0  0  0
   23.3973   -5.3290  -18.2700 O   0  0  0  0  0  0  0  0  0  0  0  0
   15.8173   -8.0460  -18.3620 O   0  0  0  0  0  0  0  0  0  0  0  0
   16.9416   -7.2083  -18.4044 C   0  0  0  0  0  0  0  0  0  0  0  0
   16.8354   -5.8568  -18.1272 C   0  0  0  0  0  0  0  0  0  0  0  0
   17.9513   -5.0517  -18.1741 C   0  0  0  0  0  0  0  0  0  0  0  0
   19.2202   -5.5473  -18.4969 C   0  0  0  0  0  0  0  0  0  0  0  0
   20.4020   -4.6842  -18.5551 C   0  0  0  0  0  0  0  0  0  0  0  0
   20.9816   -4.4001  -17.1886 C   0  0  2  0  0  0  0  0  0  0  0  0
   21.7269   -5.5655  -16.7326 N   0  0  0  0  0  0  0  0  0  0  0  0
   19.9646   -4.0895  -16.1683 C   0  0  0  0  0  0  0  0  0  0  0  0
   19.2981   -2.8781  -16.1629 O   0  0  0  0  0  0  0  0  0  0  0  0
   19.3175   -6.9057  -18.7741 C   0  0  0  0  0  0  0  0  0  0  0  0
   18.1897   -7.6977  -18.7224 C   0  0  0  0  0  0  0  0  0  0  0  0
   19.6835   -4.9231  -15.2793 O   0  0  0  0  0  0  0  0  0  0  0  0
  2  1  1  1
  2  3  1  0
  4  2  1  0
  5  4  2  0
  6  4  1  0
  7  6  1  0
  7  8  1  6
  9 14  1  0
  9  8  1  0
 10  9  2  0
 11 12  2  0
 11 10  1  0
 12 13  1  0
 13 14  2  0
 15 24  1  0
 15  7  1  0
 16 15  2  0
 18 17  1  0
 19 18  2  0
 20 19  1  0
 21 20  2  0
 21 27  1  0
 23 22  1  6
 22 21  1  0
 23 25  1  0
 23 24  1  0
 25 26  1  0
 27 28  2  0
 28 18  1  0
 29 25  2  0
M  END
$$$$
