AFY.pdb
     RDKit          3D

 29 30  0  0  1  0  0  0  0  0999 V2000
   17.9312  -33.3834   -6.4934 C   0  0  0  0  0  0  0  0  0  0  0  0
   18.6798  -33.4275   -7.8153 C   0  0  2  0  0  0  0  0  0  0  0  0
   18.1146  -34.4426   -8.6788 N   0  0  0  0  0  0  0  0  0  0  0  0
   20.1085  -33.6960   -7.6021 C   0  0  0  0  0  0  0  0  0  0  0  0
   20.4862  -34.9143   -7.5624 O   0  0  0  0  0  0  0  0  0  0  0  0
   21.0901  -32.6667   -7.4381 N   0  0  0  0  0  0  0  0  0  0  0  0
   22.4938  -32.9765   -7.2546 C   0  0  1  0  0  0  0  0  0  0  0  0
   23.3930  -31.8805   -7.7326 C   0  0  0  0  0  0  0  0  0  0  0  0
   24.7921  -32.3273   -7.7061 C   0  0  0  0  0  0  0  0  0  0  0  0
   25.4359  -32.5213   -6.5166 C   0  0  0  0  0  0  0  0  0  0  0  0
   26.7525  -32.9423   -6.5458 C   0  0  0  0  0  0  0  0  0  0  0  0
   27.3966  -33.1598   -7.7419 C   0  0  0  0  0  0  0  0  0  0  0  0
   26.7324  -32.9594   -8.9400 C   0  0  0  0  0  0  0  0  0  0  0  0
   25.4187  -32.5395   -8.9266 C   0  0  0  0  0  0  0  0  0  0  0  0
   22.7385  -33.2500   -5.8026 C   0  0  0  0  0  0  0  0  0  0  0  0
   22.2434  -32.5036   -4.9209 O   0  0  0  0  0  0  0  0  0  0  0  0
   27.4754  -39.5196   -5.9240 O   0  0  0  0  0  0  0  0  0  0  0  0
   26.4814  -38.6893   -5.3852 C   0  0  0  0  0  0  0  0  0  0  0  0
   26.6051  -38.1616   -4.1121 C   0  0  0  0  0  0  0  0  0  0  0  0
   25.6181  -37.3487   -3.6017 C   0  0  0  0  0  0  0  0  0  0  0  0
   24.4663  -37.0220   -4.3274 C   0  0  0  0  0  0  0  0  0  0  0  0
   23.4148  -36.1648   -3.7755 C   0  0  0  0  0  0  0  0  0  0  0  0
   23.7081  -34.6938   -3.9604 C   0  0  2  0  0  0  0  0  0  0  0  0
   23.5237  -34.3410   -5.3615 N   0  0  0  0  0  0  0  0  0  0  0  0
   25.0789  -34.3117   -3.5772 C   0  0  0  0  0  0  0  0  0  0  0  0
   26.0470  -34.0555   -4.5304 O   0  0  0  0  0  0  0  0  0  0  0  0
   24.3503  -37.5566   -5.6050 C   0  0  0  0  0  0  0  0  0  0  0  0
   25.3483  -38.3689   -6.1007 C   0  0  0  0  0  0  0  0  0  0  0  0
   25.3953  -34.2122   -2.3713 O   0  0  0  0  0  0  0  0  0  0  0  0
  2  1  1  1
  2  3  1  0
  4  2  1  0
  5  4  2  0
  6  4  1  0
  7  6  1  0
  7  8  1  1
  9 14  1  0
  9  8  1  0
 10  9  2  0
 11 12  2  0
 11 10  1  0
 12 13  1  0
 13 14  2  0
 15 24  1  0
 15  7  1  0
 16 15  2  0
 18 17  1  0
 19 18  2  0
 20 19  1  0
 21 20  2  0
 21 27  1  0
 23 22  1  6
 22 21  1  0
 23 25  1  0
 23 24  1  0
 25 26  1  0
 27 28  2  0
 28 18  1  0
 29 25  2  0
M  END
$$$$
