AFY.pdb
     RDKit          3D

 29 30  0  0  1  0  0  0  0  0999 V2000
   22.7359  -12.3945  -20.0798 C   0  0  0  0  0  0  0  0  0  0  0  0
   23.9897  -12.1204  -19.2657 C   0  0  2  0  0  0  0  0  0  0  0  0
   24.5319  -13.3582  -18.7467 N   0  0  0  0  0  0  0  0  0  0  0  0
   23.7061  -11.1989  -18.1570 C   0  0  0  0  0  0  0  0  0  0  0  0
   23.0480  -11.6499  -17.1610 O   0  0  0  0  0  0  0  0  0  0  0  0
   24.1282   -9.8310  -18.1389 N   0  0  0  0  0  0  0  0  0  0  0  0
   23.8871   -8.9755  -16.9943 C   0  0  1  0  0  0  0  0  0  0  0  0
   25.1138   -8.2397  -16.5562 C   0  0  0  0  0  0  0  0  0  0  0  0
   26.1673   -9.1921  -16.1814 C   0  0  0  0  0  0  0  0  0  0  0  0
   26.0706   -9.9141  -15.0253 C   0  0  0  0  0  0  0  0  0  0  0  0
   27.0888  -10.7974  -14.7179 C   0  0  0  0  0  0  0  0  0  0  0  0
   28.1708  -10.9447  -15.5549 C   0  0  0  0  0  0  0  0  0  0  0  0
   28.2563  -10.2069  -16.7232 C   0  0  0  0  0  0  0  0  0  0  0  0
   27.2480   -9.3218  -17.0432 C   0  0  0  0  0  0  0  0  0  0  0  0
   22.7989   -8.0066  -17.3409 C   0  0  0  0  0  0  0  0  0  0  0  0
   22.8407   -7.3591  -18.4172 O   0  0  0  0  0  0  0  0  0  0  0  0
   14.9205   -3.8628  -17.0056 O   0  0  0  0  0  0  0  0  0  0  0  0
   16.0155   -4.7116  -16.7861 C   0  0  0  0  0  0  0  0  0  0  0  0
   16.4601   -5.5730  -17.7735 C   0  0  0  0  0  0  0  0  0  0  0  0
   17.5368   -6.3980  -17.5378 C   0  0  0  0  0  0  0  0  0  0  0  0
   18.2208   -6.4075  -16.3164 C   0  0  0  0  0  0  0  0  0  0  0  0
   19.3594   -7.2945  -16.0679 C   0  0  0  0  0  0  0  0  0  0  0  0
   20.6071   -6.8569  -16.7998 C   0  0  2  0  0  0  0  0  0  0  0  0
   21.6922   -7.7777  -16.4897 N   0  0  0  0  0  0  0  0  0  0  0  0
   21.0548   -5.4985  -16.4445 C   0  0  0  0  0  0  0  0  0  0  0  0
   20.6453   -4.3941  -17.1685 O   0  0  0  0  0  0  0  0  0  0  0  0
   17.7673   -5.5393  -15.3303 C   0  0  0  0  0  0  0  0  0  0  0  0
   16.6875   -4.7197  -15.5832 C   0  0  0  0  0  0  0  0  0  0  0  0
   21.8215   -5.3178  -15.4731 O   0  0  0  0  0  0  0  0  0  0  0  0
  2  1  1  1
  2  3  1  0
  4  2  1  0
  5  4  2  0
  6  4  1  0
  7  6  1  0
  7  8  1  6
  9 14  1  0
  9  8  1  0
 10  9  2  0
 11 12  2  0
 11 10  1  0
 12 13  1  0
 13 14  2  0
 15 24  1  0
 15  7  1  0
 16 15  2  0
 18 17  1  0
 19 18  2  0
 20 19  1  0
 21 20  2  0
 21 27  1  0
 23 22  1  1
 22 21  1  0
 23 25  1  0
 23 24  1  0
 25 26  1  0
 27 28  2  0
 28 18  1  0
 29 25  2  0
M  END
$$$$
