AFY.pdb
     RDKit          3D

 29 30  0  0  1  0  0  0  0  0999 V2000
   28.3423  -23.3249  -17.6023 C   0  0  0  0  0  0  0  0  0  0  0  0
   27.6196  -22.0425  -17.2244 C   0  0  2  0  0  0  0  0  0  0  0  0
   28.5144  -20.9101  -17.3360 N   0  0  0  0  0  0  0  0  0  0  0  0
   27.0871  -22.1220  -15.8573 C   0  0  0  0  0  0  0  0  0  0  0  0
   26.2142  -23.0193  -15.6092 O   0  0  0  0  0  0  0  0  0  0  0  0
   27.4957  -21.2496  -14.7982 N   0  0  0  0  0  0  0  0  0  0  0  0
   26.7981  -21.2158  -13.5285 C   0  0  1  0  0  0  0  0  0  0  0  0
   27.6122  -20.5909  -12.4400 C   0  0  0  0  0  0  0  0  0  0  0  0
   26.8546  -20.5861  -11.1816 C   0  0  0  0  0  0  0  0  0  0  0  0
   26.6549  -21.7462  -10.4877 C   0  0  0  0  0  0  0  0  0  0  0  0
   25.9351  -21.6883   -9.3088 C   0  0  0  0  0  0  0  0  0  0  0  0
   25.4332  -20.4933   -8.8473 C   0  0  0  0  0  0  0  0  0  0  0  0
   25.6428  -19.3252   -9.5603 C   0  0  0  0  0  0  0  0  0  0  0  0
   26.3592  -19.3674  -10.7382 C   0  0  0  0  0  0  0  0  0  0  0  0
   25.5129  -20.4679  -13.7075 C   0  0  0  0  0  0  0  0  0  0  0  0
   25.5150  -19.2964  -14.1623 O   0  0  0  0  0  0  0  0  0  0  0  0
   17.4372  -18.2102  -16.0137 O   0  0  0  0  0  0  0  0  0  0  0  0
   18.6924  -18.7819  -15.7586 C   0  0  0  0  0  0  0  0  0  0  0  0
   19.8336  -18.0015  -15.7004 C   0  0  0  0  0  0  0  0  0  0  0  0
   21.0562  -18.5824  -15.4486 C   0  0  0  0  0  0  0  0  0  0  0  0
   21.2040  -19.9593  -15.2435 C   0  0  0  0  0  0  0  0  0  0  0  0
   22.5087  -20.5730  -14.9860 C   0  0  0  0  0  0  0  0  0  0  0  0
   22.9859  -20.3501  -13.5695 C   0  0  2  0  0  0  0  0  0  0  0  0
   24.2582  -21.0333  -13.3794 N   0  0  0  0  0  0  0  0  0  0  0  0
   22.0506  -20.8485  -12.5454 C   0  0  0  0  0  0  0  0  0  0  0  0
   21.1457  -20.0057  -11.9269 O   0  0  0  0  0  0  0  0  0  0  0  0
   20.0527  -20.7354  -15.3040 C   0  0  0  0  0  0  0  0  0  0  0  0
   18.8362  -20.1374  -15.5571 C   0  0  0  0  0  0  0  0  0  0  0  0
   22.0587  -22.0541  -12.2129 O   0  0  0  0  0  0  0  0  0  0  0  0
  2  1  1  1
  2  3  1  0
  4  2  1  0
  5  4  2  0
  6  4  1  0
  7  6  1  0
  7  8  1  1
  9 14  1  0
  9  8  1  0
 10  9  2  0
 11 12  2  0
 11 10  1  0
 12 13  1  0
 13 14  2  0
 15 24  1  0
 15  7  1  0
 16 15  2  0
 18 17  1  0
 19 18  2  0
 20 19  1  0
 21 20  2  0
 21 27  1  0
 23 22  1  6
 22 21  1  0
 23 25  1  0
 23 24  1  0
 25 26  1  0
 27 28  2  0
 28 18  1  0
 29 25  2  0
M  END
$$$$
