AFY.pdb
     RDKit          3D

 29 30  0  0  1  0  0  0  0  0999 V2000
   27.0417  -21.0350  -17.4840 C   0  0  0  0  0  0  0  0  0  0  0  0
   27.9798  -21.4145  -16.3502 C   0  0  2  0  0  0  0  0  0  0  0  0
   28.7100  -22.6190  -16.6843 N   0  0  0  0  0  0  0  0  0  0  0  0
   27.2376  -21.6148  -15.0980 C   0  0  0  0  0  0  0  0  0  0  0  0
   26.7283  -22.7654  -14.8850 O   0  0  0  0  0  0  0  0  0  0  0  0
   27.0590  -20.5913  -14.1130 N   0  0  0  0  0  0  0  0  0  0  0  0
   26.2884  -20.8218  -12.9075 C   0  0  1  0  0  0  0  0  0  0  0  0
   26.7456  -19.9767  -11.7608 C   0  0  0  0  0  0  0  0  0  0  0  0
   27.9736  -20.5352  -11.1797 C   0  0  0  0  0  0  0  0  0  0  0  0
   29.1262  -20.5871  -11.9119 C   0  0  0  0  0  0  0  0  0  0  0  0
   30.2549  -21.1222  -11.3191 C   0  0  0  0  0  0  0  0  0  0  0  0
   30.2173  -21.5898  -10.0257 C   0  0  0  0  0  0  0  0  0  0  0  0
   29.0428  -21.5311   -9.2950 C   0  0  0  0  0  0  0  0  0  0  0  0
   27.9087  -21.0000   -9.8732 C   0  0  0  0  0  0  0  0  0  0  0  0
   24.8447  -20.5550  -13.2033 C   0  0  0  0  0  0  0  0  0  0  0  0
   24.4880  -19.4574  -13.7010 O   0  0  0  0  0  0  0  0  0  0  0  0
   16.2306  -22.1597  -14.7401 O   0  0  0  0  0  0  0  0  0  0  0  0
   17.5898  -22.2697  -14.4114 C   0  0  0  0  0  0  0  0  0  0  0  0
   18.5744  -21.9640  -15.3344 C   0  0  0  0  0  0  0  0  0  0  0  0
   19.9029  -22.0785  -14.9916 C   0  0  0  0  0  0  0  0  0  0  0  0
   20.3159  -22.5000  -13.7221 C   0  0  0  0  0  0  0  0  0  0  0  0
   21.7307  -22.6296  -13.3663 C   0  0  0  0  0  0  0  0  0  0  0  0
   22.4209  -21.2917  -13.2327 C   0  0  2  0  0  0  0  0  0  0  0  0
   23.8317  -21.5074  -12.9419 N   0  0  0  0  0  0  0  0  0  0  0  0
   21.8655  -20.4446  -12.1622 C   0  0  0  0  0  0  0  0  0  0  0  0
   20.8755  -19.5149  -12.4216 O   0  0  0  0  0  0  0  0  0  0  0  0
   19.3204  -22.8051  -12.8015 C   0  0  0  0  0  0  0  0  0  0  0  0
   17.9946  -22.6848  -13.1614 C   0  0  0  0  0  0  0  0  0  0  0  0
   22.2841  -20.5510  -10.9885 O   0  0  0  0  0  0  0  0  0  0  0  0
  2  1  1  6
  2  3  1  0
  4  2  1  0
  5  4  2  0
  6  4  1  0
  7  6  1  0
  7  8  1  1
  9 14  1  0
  9  8  1  0
 10  9  2  0
 11 12  2  0
 11 10  1  0
 12 13  1  0
 13 14  2  0
 15 24  1  0
 15  7  1  0
 16 15  2  0
 18 17  1  0
 19 18  2  0
 20 19  1  0
 21 20  2  0
 21 27  1  0
 23 22  1  1
 22 21  1  0
 23 25  1  0
 23 24  1  0
 25 26  1  0
 27 28  2  0
 28 18  1  0
 29 25  2  0
M  END
$$$$
