QHM.pdb
     RDKit          3D

 28 28  0  0  1  0  0  0  0  0999 V2000
   10.8285  -13.0918   18.5722 N   0  0  0  0  0  0  0  0  0  0  0  0
    9.6969  -12.8009   17.7472 C   0  0  0  0  0  0  0  0  0  0  0  0
    9.9185  -12.6549   16.5210 O   0  0  0  0  0  0  0  0  0  0  0  0
    8.3791  -12.6984   18.3903 C   0  0  0  0  0  0  0  0  0  0  0  0
    8.2665  -13.4969   19.6538 C   0  0  0  0  0  0  0  0  0  0  0  0
    8.4306  -14.9572   19.4079 C   0  0  2  0  0  0  0  0  0  0  0  0
    7.2864  -15.3809   18.5944 N   0  0  0  0  0  0  0  0  0  0  0  0
    8.4487  -15.7508   20.6657 C   0  0  0  0  0  0  0  0  0  0  0  0
    7.4187  -15.9123   21.3838 O   0  0  0  0  0  0  0  0  0  0  0  0
    9.6421  -16.3495   21.0869 N   0  0  0  0  0  0  0  0  0  0  0  0
    9.7948  -17.0690   22.3338 C   0  0  1  0  0  0  0  0  0  0  0  0
   10.8312  -18.1471   22.2637 C   0  0  0  0  0  0  0  0  0  0  0  0
   10.4661  -19.2587   21.3514 C   0  0  0  0  0  0  0  0  0  0  0  0
    9.3093  -19.9960   21.2481 C   0  0  0  0  0  0  0  0  0  0  0  0
    9.5095  -20.8837   20.2609 N   0  0  0  0  0  0  0  0  0  0  0  0
   10.7214  -20.7525   19.7344 C   0  0  0  0  0  0  0  0  0  0  0  0
   11.2986  -19.7485   20.4157 N   0  0  0  0  0  0  0  0  0  0  0  0
   10.0012  -16.1211   23.4750 C   0  0  0  0  0  0  0  0  0  0  0  0
   10.9826  -15.3360   23.5116 O   0  0  0  0  0  0  0  0  0  0  0  0
    5.7652  -11.3133   27.4411 C   0  0  0  0  0  0  0  0  0  0  0  0
    7.0074  -11.5941   26.1383 S   0  0  0  0  0  0  0  0  0  0  0  0
    8.0367  -12.9819   26.4766 C   0  0  0  0  0  0  0  0  0  0  0  0
    8.2733  -14.0303   25.4982 C   0  0  0  0  0  0  0  0  0  0  0  0
    9.3338  -15.0334   25.6553 C   0  0  2  0  0  0  0  0  0  0  0  0
    9.1130  -16.0576   24.5630 N   0  0  0  0  0  0  0  0  0  0  0  0
    9.1891  -15.8883   26.8892 C   0  0  0  0  0  0  0  0  0  0  0  0
    8.4929  -16.9719   26.7727 O   0  0  0  0  0  0  0  0  0  0  0  0
    9.7024  -15.6524   28.1137 O   0  0  0  0  0  0  0  0  0  0  0  0
  1  2  1  0
  2  3  2  0
  4  5  1  0
  4  2  1  0
  5  6  1  0
  6  7  1  6
  8  6  1  0
  8  9  2  0
 10  8  1  0
 11 10  1  0
 11 12  1  6
 13 14  2  0
 13 12  1  0
 15 14  1  0
 16 17  2  0
 16 15  1  0
 17 13  1  0
 18 11  1  0
 19 18  2  0
 21 20  1  0
 22 21  1  0
 24 23  1  1
 23 22  1  0
 24 25  1  0
 25 18  1  0
 26 24  1  0
 27 26  2  0
 28 26  1  0
M  END
$$$$
