QHM.pdb
     RDKit          3D

 28 28  0  0  1  0  0  0  0  0999 V2000
   10.5210  -12.7711   18.4699 N   0  0  0  0  0  0  0  0  0  0  0  0
    9.2934  -12.9842   17.7674 C   0  0  0  0  0  0  0  0  0  0  0  0
    9.3826  -13.2103   16.5366 O   0  0  0  0  0  0  0  0  0  0  0  0
    8.0391  -12.9246   18.5314 C   0  0  0  0  0  0  0  0  0  0  0  0
    8.0966  -13.6634   19.8343 C   0  0  0  0  0  0  0  0  0  0  0  0
    8.4798  -15.0914   19.6500 C   0  0  2  0  0  0  0  0  0  0  0  0
    7.4309  -15.7092   18.8324 N   0  0  0  0  0  0  0  0  0  0  0  0
    8.5834  -15.8270   20.9386 C   0  0  0  0  0  0  0  0  0  0  0  0
    7.5813  -16.0436   21.6814 O   0  0  0  0  0  0  0  0  0  0  0  0
    9.8291  -16.3056   21.3619 N   0  0  0  0  0  0  0  0  0  0  0  0
   10.0422  -17.0439   22.5888 C   0  0  1  0  0  0  0  0  0  0  0  0
   11.1730  -18.0204   22.4946 C   0  0  0  0  0  0  0  0  0  0  0  0
   10.8758  -19.1861   21.6262 C   0  0  0  0  0  0  0  0  0  0  0  0
    9.6808  -19.6707   21.1470 C   0  0  0  0  0  0  0  0  0  0  0  0
    9.9760  -20.7546   20.4116 N   0  0  0  0  0  0  0  0  0  0  0  0
   11.2837  -20.9843   20.3968 C   0  0  0  0  0  0  0  0  0  0  0  0
   11.8246  -20.0108   21.1486 N   0  0  0  0  0  0  0  0  0  0  0  0
   10.1568  -16.1146   23.7578 C   0  0  0  0  0  0  0  0  0  0  0  0
   10.9337  -15.1261   23.7414 O   0  0  0  0  0  0  0  0  0  0  0  0
    5.0557  -12.2527   27.3270 C   0  0  0  0  0  0  0  0  0  0  0  0
    6.6998  -12.1942   26.5442 S   0  0  0  0  0  0  0  0  0  0  0  0
    7.6852  -13.5984   26.9407 C   0  0  0  0  0  0  0  0  0  0  0  0
    8.1304  -14.5447   25.9314 C   0  0  0  0  0  0  0  0  0  0  0  0
    9.4253  -15.2324   26.0092 C   0  0  2  0  0  0  0  0  0  0  0  0
    9.4053  -16.2956   24.9322 N   0  0  0  0  0  0  0  0  0  0  0  0
    9.5964  -16.0760   27.2476 C   0  0  0  0  0  0  0  0  0  0  0  0
    9.1535  -17.2899   27.1952 O   0  0  0  0  0  0  0  0  0  0  0  0
   10.1595  -15.7094   28.4168 O   0  0  0  0  0  0  0  0  0  0  0  0
  1  2  1  0
  2  3  2  0
  4  5  1  0
  4  2  1  0
  5  6  1  0
  6  7  1  6
  8  6  1  0
  8  9  2  0
 10  8  1  0
 11 10  1  0
 11 12  1  6
 13 14  2  0
 13 12  1  0
 15 14  1  0
 16 17  2  0
 16 15  1  0
 17 13  1  0
 18 11  1  0
 19 18  2  0
 21 20  1  0
 22 21  1  0
 24 23  1  1
 23 22  1  0
 24 25  1  0
 25 18  1  0
 26 24  1  0
 27 26  2  0
 28 26  1  0
M  END
$$$$
