QHM.pdb
     RDKit          3D

 28 28  0  0  1  0  0  0  0  0999 V2000
    8.5723  -12.1913   18.5574 N   0  0  0  0  0  0  0  0  0  0  0  0
    8.2263  -13.1348   17.5395 C   0  0  0  0  0  0  0  0  0  0  0  0
    8.1142  -12.6867   16.3731 O   0  0  0  0  0  0  0  0  0  0  0  0
    8.0332  -14.5379   17.9326 C   0  0  0  0  0  0  0  0  0  0  0  0
    8.1621  -14.7689   19.4080 C   0  0  0  0  0  0  0  0  0  0  0  0
    9.0895  -15.8930   19.7183 C   0  0  2  0  0  0  0  0  0  0  0  0
    8.7582  -16.9826   18.7944 N   0  0  0  0  0  0  0  0  0  0  0  0
    8.9464  -16.3841   21.1149 C   0  0  0  0  0  0  0  0  0  0  0  0
    7.8724  -16.2600   21.7736 O   0  0  0  0  0  0  0  0  0  0  0  0
   10.0309  -17.0103   21.7408 N   0  0  0  0  0  0  0  0  0  0  0  0
    9.9961  -17.5430   23.0865 C   0  0  1  0  0  0  0  0  0  0  0  0
   10.9661  -18.6637   23.2969 C   0  0  0  0  0  0  0  0  0  0  0  0
   10.5408  -19.9386   22.6683 C   0  0  0  0  0  0  0  0  0  0  0  0
    9.3934  -20.2664   21.9840 C   0  0  0  0  0  0  0  0  0  0  0  0
    9.5136  -21.5570   21.6336 N   0  0  0  0  0  0  0  0  0  0  0  0
   10.6662  -22.0643   22.0546 C   0  0  0  0  0  0  0  0  0  0  0  0
   11.2878  -21.0566   22.6898 N   0  0  0  0  0  0  0  0  0  0  0  0
   10.1283  -16.4463   24.0981 C   0  0  0  0  0  0  0  0  0  0  0  0
   11.0101  -15.5561   23.9950 O   0  0  0  0  0  0  0  0  0  0  0  0
    5.2933  -12.1737   26.7625 C   0  0  0  0  0  0  0  0  0  0  0  0
    7.0976  -12.0183   26.9621 S   0  0  0  0  0  0  0  0  0  0  0  0
    7.8704  -13.5580   27.3252 C   0  0  0  0  0  0  0  0  0  0  0  0
    8.1671  -14.5399   26.2955 C   0  0  0  0  0  0  0  0  0  0  0  0
    9.4619  -15.2265   26.2076 C   0  0  2  0  0  0  0  0  0  0  0  0
    9.2773  -16.3526   25.2133 N   0  0  0  0  0  0  0  0  0  0  0  0
    9.8326  -15.9945   27.4514 C   0  0  0  0  0  0  0  0  0  0  0  0
    9.4961  -17.2425   27.4914 O   0  0  0  0  0  0  0  0  0  0  0  0
   10.4774  -15.5280   28.5402 O   0  0  0  0  0  0  0  0  0  0  0  0
  1  2  1  0
  2  3  2  0
  4  5  1  0
  4  2  1  0
  5  6  1  0
  6  7  1  6
  8  6  1  0
  8  9  2  0
 10  8  1  0
 11 10  1  0
 11 12  1  6
 13 14  2  0
 13 12  1  0
 15 14  1  0
 16 17  2  0
 16 15  1  0
 17 13  1  0
 18 11  1  0
 19 18  2  0
 21 20  1  0
 22 21  1  0
 24 23  1  1
 23 22  1  0
 24 25  1  0
 25 18  1  0
 26 24  1  0
 27 26  2  0
 28 26  1  0
M  END
$$$$
