QHM.pdb
     RDKit          3D

 28 28  0  0  1  0  0  0  0  0999 V2000
    8.8583  -13.1313   16.2605 N   0  0  0  0  0  0  0  0  0  0  0  0
    7.9494  -14.2348   16.2174 C   0  0  0  0  0  0  0  0  0  0  0  0
    7.8357  -14.8262   15.1168 O   0  0  0  0  0  0  0  0  0  0  0  0
    7.2295  -14.5876   17.4495 C   0  0  0  0  0  0  0  0  0  0  0  0
    7.3307  -13.5443   18.5209 C   0  0  0  0  0  0  0  0  0  0  0  0
    8.5188  -13.7550   19.3951 C   0  0  2  0  0  0  0  0  0  0  0  0
    9.5244  -14.4476   18.5831 N   0  0  0  0  0  0  0  0  0  0  0  0
    8.2096  -14.5839   20.5907 C   0  0  0  0  0  0  0  0  0  0  0  0
    7.2278  -14.3411   21.3522 O   0  0  0  0  0  0  0  0  0  0  0  0
    9.0251  -15.6787   20.9012 N   0  0  0  0  0  0  0  0  0  0  0  0
    8.7809  -16.5885   22.0004 C   0  0  1  0  0  0  0  0  0  0  0  0
    9.3769  -17.9442   21.7808 C   0  0  0  0  0  0  0  0  0  0  0  0
    8.5930  -18.7897   20.8470 C   0  0  0  0  0  0  0  0  0  0  0  0
    7.3670  -18.5830   20.2583 C   0  0  0  0  0  0  0  0  0  0  0  0
    7.1174  -19.6668   19.5060 N   0  0  0  0  0  0  0  0  0  0  0  0
    8.1103  -20.5451   19.5834 C   0  0  0  0  0  0  0  0  0  0  0  0
    9.0113  -19.9915   20.4123 N   0  0  0  0  0  0  0  0  0  0  0  0
    9.1801  -15.9692   23.3045 C   0  0  0  0  0  0  0  0  0  0  0  0
   10.2729  -15.3624   23.4398 O   0  0  0  0  0  0  0  0  0  0  0  0
    6.7453  -10.3965   26.8238 C   0  0  0  0  0  0  0  0  0  0  0  0
    6.3488  -12.1698   26.6906 S   0  0  0  0  0  0  0  0  0  0  0  0
    7.7679  -13.1535   26.3470 C   0  0  0  0  0  0  0  0  0  0  0  0
    7.7009  -14.6011   26.2350 C   0  0  0  0  0  0  0  0  0  0  0  0
    8.8236  -15.4085   25.7418 C   0  0  2  0  0  0  0  0  0  0  0  0
    8.3584  -16.0322   24.4435 N   0  0  0  0  0  0  0  0  0  0  0  0
    9.1040  -16.6368   26.5706 C   0  0  0  0  0  0  0  0  0  0  0  0
    9.7859  -16.4679   27.6563 O   0  0  0  0  0  0  0  0  0  0  0  0
    8.7266  -17.9049   26.3090 O   0  0  0  0  0  0  0  0  0  0  0  0
  1  2  1  0
  2  3  2  0
  4  5  1  0
  4  2  1  0
  5  6  1  0
  6  7  1  6
  8  6  1  0
  8  9  2  0
 10  8  1  0
 11 10  1  0
 11 12  1  6
 13 14  2  0
 13 12  1  0
 15 14  1  0
 16 17  2  0
 16 15  1  0
 17 13  1  0
 18 11  1  0
 19 18  2  0
 21 20  1  0
 22 21  1  0
 24 23  1  1
 23 22  1  0
 24 25  1  0
 25 18  1  0
 26 24  1  0
 27 26  2  0
 28 26  1  0
M  END
$$$$
