QHM.pdb
     RDKit          3D

 28 28  0  0  1  0  0  0  0  0999 V2000
   14.0979  -14.0521   20.0030 N   0  0  0  0  0  0  0  0  0  0  0  0
   14.1922  -14.9401   18.8856 C   0  0  0  0  0  0  0  0  0  0  0  0
   15.3357  -15.1100   18.3983 O   0  0  0  0  0  0  0  0  0  0  0  0
   12.9593  -15.5779   18.4020 C   0  0  0  0  0  0  0  0  0  0  0  0
   11.7343  -15.1628   19.1594 C   0  0  0  0  0  0  0  0  0  0  0  0
   10.5496  -15.9932   18.8033 C   0  0  2  0  0  0  0  0  0  0  0  0
    9.8583  -15.2988   17.7123 N   0  0  0  0  0  0  0  0  0  0  0  0
    9.6070  -16.1630   19.9412 C   0  0  0  0  0  0  0  0  0  0  0  0
    8.6974  -15.3223   20.2032 O   0  0  0  0  0  0  0  0  0  0  0  0
    9.7150  -17.2901   20.7647 N   0  0  0  0  0  0  0  0  0  0  0  0
    8.8907  -17.5270   21.9309 C   0  0  1  0  0  0  0  0  0  0  0  0
    8.9406  -18.9466   22.4037 C   0  0  0  0  0  0  0  0  0  0  0  0
    8.1013  -19.2001   23.6006 C   0  0  0  0  0  0  0  0  0  0  0  0
    7.2786  -18.3625   24.3175 C   0  0  0  0  0  0  0  0  0  0  0  0
    6.7594  -19.0982   25.3134 N   0  0  0  0  0  0  0  0  0  0  0  0
    7.2035  -20.3488   25.2696 C   0  0  0  0  0  0  0  0  0  0  0  0
    8.0285  -20.3966   24.2101 N   0  0  0  0  0  0  0  0  0  0  0  0
    9.1927  -16.5318   23.0089 C   0  0  0  0  0  0  0  0  0  0  0  0
   10.3607  -16.1131   23.2121 O   0  0  0  0  0  0  0  0  0  0  0  0
    5.8318  -11.0353   27.7126 C   0  0  0  0  0  0  0  0  0  0  0  0
    5.6611  -12.3019   26.4142 S   0  0  0  0  0  0  0  0  0  0  0  0
    7.1699  -13.1535   26.1011 C   0  0  0  0  0  0  0  0  0  0  0  0
    7.2801  -14.1925   25.0908 C   0  0  0  0  0  0  0  0  0  0  0  0
    8.5307  -14.9186   24.8368 C   0  0  2  0  0  0  0  0  0  0  0  0
    8.1912  -16.0135   23.8486 N   0  0  0  0  0  0  0  0  0  0  0  0
    9.0174  -15.7282   26.0123 C   0  0  0  0  0  0  0  0  0  0  0  0
    9.7098  -15.1029   26.9078 O   0  0  0  0  0  0  0  0  0  0  0  0
    8.8168  -17.0420   26.2410 O   0  0  0  0  0  0  0  0  0  0  0  0
  1  2  1  0
  2  3  2  0
  4  5  1  0
  4  2  1  0
  5  6  1  0
  6  7  1  6
  8  6  1  0
  8  9  2  0
 10  8  1  0
 11 10  1  0
 11 12  1  1
 13 14  2  0
 13 12  1  0
 15 14  1  0
 16 17  2  0
 16 15  1  0
 17 13  1  0
 18 11  1  0
 19 18  2  0
 21 20  1  0
 22 21  1  0
 24 23  1  1
 23 22  1  0
 24 25  1  0
 25 18  1  0
 26 24  1  0
 27 26  2  0
 28 26  1  0
M  END
$$$$
