QHM.pdb
     RDKit          3D

 28 28  0  0  1  0  0  0  0  0999 V2000
    8.7499  -14.0534   16.1387 N   0  0  0  0  0  0  0  0  0  0  0  0
    7.9239  -13.5927   17.2116 C   0  0  0  0  0  0  0  0  0  0  0  0
    7.4628  -12.4307   17.1064 O   0  0  0  0  0  0  0  0  0  0  0  0
    7.6804  -14.5043   18.3388 C   0  0  0  0  0  0  0  0  0  0  0  0
    8.4317  -15.7972   18.2355 C   0  0  0  0  0  0  0  0  0  0  0  0
    9.3695  -15.9907   19.3770 C   0  0  2  0  0  0  0  0  0  0  0  0
   10.1239  -17.2178   19.1020 N   0  0  0  0  0  0  0  0  0  0  0  0
    8.6642  -16.1392   20.6781 C   0  0  0  0  0  0  0  0  0  0  0  0
    7.9747  -15.2084   21.1889 O   0  0  0  0  0  0  0  0  0  0  0  0
    8.7553  -17.3480   21.3785 N   0  0  0  0  0  0  0  0  0  0  0  0
    8.1116  -17.6012   22.6502 C   0  0  1  0  0  0  0  0  0  0  0  0
    8.3147  -19.0013   23.1398 C   0  0  0  0  0  0  0  0  0  0  0  0
    7.6810  -19.2646   24.4553 C   0  0  0  0  0  0  0  0  0  0  0  0
    6.8787  -18.4720   25.2431 C   0  0  0  0  0  0  0  0  0  0  0  0
    6.5848  -19.1940   26.3364 N   0  0  0  0  0  0  0  0  0  0  0  0
    7.1521  -20.3936   26.2874 C   0  0  0  0  0  0  0  0  0  0  0  0
    7.8234  -20.4226   25.1238 N   0  0  0  0  0  0  0  0  0  0  0  0
    8.4915  -16.5596   23.6574 C   0  0  0  0  0  0  0  0  0  0  0  0
    9.6857  -16.2002   23.8166 O   0  0  0  0  0  0  0  0  0  0  0  0
    6.9288  -10.0241   26.2737 C   0  0  0  0  0  0  0  0  0  0  0  0
    5.8450  -11.4879   26.3221 S   0  0  0  0  0  0  0  0  0  0  0  0
    6.7268  -12.9674   26.6871 C   0  0  0  0  0  0  0  0  0  0  0  0
    6.7283  -14.1118   25.7912 C   0  0  0  0  0  0  0  0  0  0  0  0
    7.9612  -14.8027   25.3934 C   0  0  2  0  0  0  0  0  0  0  0  0
    7.5379  -15.9296   24.4760 N   0  0  0  0  0  0  0  0  0  0  0  0
    8.6203  -15.5701   26.5119 C   0  0  0  0  0  0  0  0  0  0  0  0
    8.1418  -16.7412   26.7802 O   0  0  0  0  0  0  0  0  0  0  0  0
    9.6586  -15.1741   27.2759 O   0  0  0  0  0  0  0  0  0  0  0  0
  1  2  1  0
  2  3  2  0
  4  5  1  0
  4  2  1  0
  5  6  1  0
  6  7  1  6
  8  6  1  0
  8  9  2  0
 10  8  1  0
 11 10  1  0
 11 12  1  1
 13 14  2  0
 13 12  1  0
 15 14  1  0
 16 17  2  0
 16 15  1  0
 17 13  1  0
 18 11  1  0
 19 18  2  0
 21 20  1  0
 22 21  1  0
 24 23  1  1
 23 22  1  0
 24 25  1  0
 25 18  1  0
 26 24  1  0
 27 26  2  0
 28 26  1  0
M  END
$$$$
