QHM.pdb
     RDKit          3D

 28 28  0  0  1  0  0  0  0  0999 V2000
    6.9165  -15.2370   15.8284 N   0  0  0  0  0  0  0  0  0  0  0  0
    7.8953  -14.1961   15.8925 C   0  0  0  0  0  0  0  0  0  0  0  0
    8.7740  -14.1955   14.9970 O   0  0  0  0  0  0  0  0  0  0  0  0
    7.7969  -13.2194   16.9866 C   0  0  0  0  0  0  0  0  0  0  0  0
    7.5970  -13.8473   18.3328 C   0  0  0  0  0  0  0  0  0  0  0  0
    8.8154  -13.7432   19.1840 C   0  0  2  0  0  0  0  0  0  0  0  0
    9.9554  -14.1123   18.3387 N   0  0  0  0  0  0  0  0  0  0  0  0
    8.7717  -14.6533   20.3596 C   0  0  0  0  0  0  0  0  0  0  0  0
    7.8194  -14.6429   21.1938 O   0  0  0  0  0  0  0  0  0  0  0  0
    9.8153  -15.5632   20.5672 N   0  0  0  0  0  0  0  0  0  0  0  0
    9.8449  -16.5355   21.6393 C   0  0  1  0  0  0  0  0  0  0  0  0
   10.8510  -17.6215   21.4161 C   0  0  0  0  0  0  0  0  0  0  0  0
   10.4373  -18.6073   20.3873 C   0  0  0  0  0  0  0  0  0  0  0  0
    9.2623  -18.7349   19.6833 C   0  0  0  0  0  0  0  0  0  0  0  0
    9.4111  -19.8027   18.8830 N   0  0  0  0  0  0  0  0  0  0  0  0
   10.6075  -20.3573   19.0384 C   0  0  0  0  0  0  0  0  0  0  0  0
   11.2279  -19.6107   19.9674 N   0  0  0  0  0  0  0  0  0  0  0  0
    9.9864  -15.8599   22.9686 C   0  0  0  0  0  0  0  0  0  0  0  0
   11.0059  -15.1843   23.2603 O   0  0  0  0  0  0  0  0  0  0  0  0
    6.8288  -11.3511   28.3131 C   0  0  0  0  0  0  0  0  0  0  0  0
    6.5066  -12.5964   27.0229 S   0  0  0  0  0  0  0  0  0  0  0  0
    7.8751  -13.6749   26.7707 C   0  0  0  0  0  0  0  0  0  0  0  0
    8.0813  -14.3890   25.5217 C   0  0  0  0  0  0  0  0  0  0  0  0
    9.2165  -15.2953   25.3075 C   0  0  2  0  0  0  0  0  0  0  0  0
    8.9917  -15.9438   23.9585 N   0  0  0  0  0  0  0  0  0  0  0  0
    9.2160  -16.5008   26.2135 C   0  0  0  0  0  0  0  0  0  0  0  0
    8.6058  -17.5567   25.7833 O   0  0  0  0  0  0  0  0  0  0  0  0
    9.7799  -16.6082   27.4339 O   0  0  0  0  0  0  0  0  0  0  0  0
  1  2  1  0
  2  3  2  0
  4  5  1  0
  4  2  1  0
  5  6  1  0
  6  7  1  6
  8  6  1  0
  8  9  2  0
 10  8  1  0
 11 10  1  0
 11 12  1  6
 13 14  2  0
 13 12  1  0
 15 14  1  0
 16 17  2  0
 16 15  1  0
 17 13  1  0
 18 11  1  0
 19 18  2  0
 21 20  1  0
 22 21  1  0
 24 23  1  1
 23 22  1  0
 24 25  1  0
 25 18  1  0
 26 24  1  0
 27 26  2  0
 28 26  1  0
M  END
$$$$
