QHM.pdb
     RDKit          3D

 28 28  0  0  1  0  0  0  0  0999 V2000
   16.6105  -15.8372   18.4499 N   0  0  0  0  0  0  0  0  0  0  0  0
   15.4339  -15.1823   17.9676 C   0  0  0  0  0  0  0  0  0  0  0  0
   15.6050  -14.1058   17.3464 O   0  0  0  0  0  0  0  0  0  0  0  0
   14.1327  -15.8130   18.2317 C   0  0  0  0  0  0  0  0  0  0  0  0
   13.1943  -14.9438   19.0132 C   0  0  0  0  0  0  0  0  0  0  0  0
   12.5104  -15.6977   20.1013 C   0  0  2  0  0  0  0  0  0  0  0  0
   11.8422  -16.8401   19.4698 N   0  0  0  0  0  0  0  0  0  0  0  0
   11.4945  -14.8780   20.8142 C   0  0  0  0  0  0  0  0  0  0  0  0
   11.7845  -13.7962   21.4043 O   0  0  0  0  0  0  0  0  0  0  0  0
   10.1612  -15.3040   20.8438 N   0  0  0  0  0  0  0  0  0  0  0  0
    9.1227  -14.6709   21.6288 C   0  0  1  0  0  0  0  0  0  0  0  0
    7.8211  -14.5616   20.8971 C   0  0  0  0  0  0  0  0  0  0  0  0
    7.9256  -13.8255   19.6131 C   0  0  0  0  0  0  0  0  0  0  0  0
    8.6459  -12.7035   19.2743 C   0  0  0  0  0  0  0  0  0  0  0  0
    8.3762  -12.4526   17.9831 N   0  0  0  0  0  0  0  0  0  0  0  0
    7.5301  -13.3469   17.4858 C   0  0  0  0  0  0  0  0  0  0  0  0
    7.2616  -14.1856   18.5006 N   0  0  0  0  0  0  0  0  0  0  0  0
    8.9956  -15.3235   22.9711 C   0  0  0  0  0  0  0  0  0  0  0  0
    8.5188  -16.4797   23.1002 O   0  0  0  0  0  0  0  0  0  0  0  0
    5.2169  -11.5997   27.4665 C   0  0  0  0  0  0  0  0  0  0  0  0
    6.6450  -12.4802   26.7561 S   0  0  0  0  0  0  0  0  0  0  0  0
    6.1668  -13.7066   25.5868 C   0  0  0  0  0  0  0  0  0  0  0  0
    7.1363  -14.5355   24.8902 C   0  0  0  0  0  0  0  0  0  0  0  0
    8.5086  -14.7251   25.3766 C   0  0  2  0  0  0  0  0  0  0  0  0
    9.4006  -14.6819   24.1546 N   0  0  0  0  0  0  0  0  0  0  0  0
    8.7883  -16.1145   25.8920 C   0  0  0  0  0  0  0  0  0  0  0  0
    8.9095  -16.2510   27.1723 O   0  0  0  0  0  0  0  0  0  0  0  0
    8.9317  -17.2431   25.1679 O   0  0  0  0  0  0  0  0  0  0  0  0
  1  2  1  0
  2  3  2  0
  4  5  1  0
  4  2  1  0
  5  6  1  0
  6  7  1  6
  8  6  1  0
  8  9  2  0
 10  8  1  0
 11 10  1  0
 11 12  1  6
 13 14  2  0
 13 12  1  0
 15 14  1  0
 16 17  2  0
 16 15  1  0
 17 13  1  0
 18 11  1  0
 19 18  2  0
 21 20  1  0
 22 21  1  0
 24 23  1  6
 23 22  1  0
 24 25  1  0
 25 18  1  0
 26 24  1  0
 27 26  2  0
 28 26  1  0
M  END
$$$$
