PID.pdb
     RDKit          3D

 24 24  0  0  1  0  0  0  0  0999 V2000
   24.2958  -12.7794  -15.2330 N   0  0  0  0  0  0  0  0  0  0  0  0
   25.4533  -13.6584  -15.4591 C   0  0  0  0  0  0  0  0  0  0  0  0
   25.5693  -13.8318  -16.9596 C   0  0  0  0  0  0  0  0  0  0  0  0
   24.3985  -12.9958  -17.4953 C   0  0  0  0  0  0  0  0  0  0  0  0
   24.3345  -11.9400  -16.3926 C   0  0  1  0  0  0  0  0  0  0  0  0
   23.2046  -11.0367  -16.5389 C   0  0  0  0  0  0  0  0  0  0  0  0
   23.2531  -10.2094  -17.5123 O   0  0  0  0  0  0  0  0  0  0  0  0
   18.8209  -12.8604  -16.9699 C   0  0  0  0  0  0  0  0  0  0  0  0
   19.5975  -11.5892  -17.2721 C   0  0  0  0  0  0  0  0  0  0  0  0
   19.6667  -10.7000  -16.0745 C   0  0  2  0  0  0  0  0  0  0  0  0
   18.4762   -9.8115  -15.9224 C   0  0  0  0  0  0  0  0  0  0  0  0
   20.9921   -9.9901  -15.9814 C   0  0  2  0  0  0  0  0  0  0  0  0
   22.0586  -10.9717  -15.7245 N   0  0  0  0  0  0  0  0  0  0  0  0
   21.0269   -8.9014  -15.0030 C   0  0  0  0  0  0  0  0  0  0  0  0
   20.9094   -9.0813  -13.7681 O   0  0  0  0  0  0  0  0  0  0  0  0
   21.2012   -7.5718  -15.4545 N   0  0  0  0  0  0  0  0  0  0  0  0
   21.2470   -6.4166  -14.5274 C   0  0  1  0  0  0  0  0  0  0  0  0
   22.2776   -5.4813  -15.0743 C   0  0  0  0  0  0  0  0  0  0  0  0
   22.4634   -4.2316  -14.3450 C   0  0  0  0  0  0  0  0  0  0  0  0
   23.0480   -3.2365  -14.7806 O   0  0  0  0  0  0  0  0  0  0  0  0
   19.9069   -5.8304  -14.4148 C   0  0  0  0  0  0  0  0  0  0  0  0
   19.2086   -5.6983  -15.4527 O   0  0  0  0  0  0  0  0  0  0  0  0
   21.9342   -4.1544  -13.0422 O   0  0  0  0  0  0  0  0  0  0  0  0
   19.3730   -5.4164  -13.2228 O   0  0  0  0  0  0  0  0  0  0  0  0
  1  2  1  0
  1  5  1  0
  2  3  1  0
  4  3  1  0
  5  4  1  0
  5  6  1  6
  6 13  1  0
  7  6  2  0
  8  9  1  0
  9 10  1  0
 10 11  1  6
 10 12  1  0
 12 13  1  1
 14 12  1  0
 14 16  1  0
 15 14  2  0
 17 16  1  0
 17 21  1  0
 17 18  1  6
 19 18  1  0
 20 19  2  0
 21 22  2  0
 21 24  1  0
 23 19  1  0
M  END
$$$$
