PID.pdb
     RDKit          3D

 24 24  0  0  1  0  0  0  0  0999 V2000
   43.6592  -10.6706   -6.8477 N   0  0  0  0  0  0  0  0  0  0  0  0
   44.9404  -11.3155   -6.5220 C   0  0  0  0  0  0  0  0  0  0  0  0
   45.1277  -12.4260   -7.5352 C   0  0  0  0  0  0  0  0  0  0  0  0
   43.8635  -12.3214   -8.3998 C   0  0  0  0  0  0  0  0  0  0  0  0
   43.6097  -10.8201   -8.2712 C   0  0  1  0  0  0  0  0  0  0  0  0
   42.3637  -10.4015   -8.8929 C   0  0  0  0  0  0  0  0  0  0  0  0
   42.3396  -10.3768  -10.1708 O   0  0  0  0  0  0  0  0  0  0  0  0
   37.6342  -11.3351   -6.1902 C   0  0  0  0  0  0  0  0  0  0  0  0
   38.6984  -10.4719   -6.8479 C   0  0  0  0  0  0  0  0  0  0  0  0
   38.8893  -10.8464   -8.2807 C   0  0  2  0  0  0  0  0  0  0  0  0
   39.1150  -12.3077   -8.4896 C   0  0  0  0  0  0  0  0  0  0  0  0
   39.8945   -9.9552   -8.9622 C   0  0  2  0  0  0  0  0  0  0  0  0
   41.1764  -10.0188   -8.2413 N   0  0  0  0  0  0  0  0  0  0  0  0
   39.4531   -8.5703   -9.1375 C   0  0  0  0  0  0  0  0  0  0  0  0
   38.3917   -8.2549   -9.7251 O   0  0  0  0  0  0  0  0  0  0  0  0
   40.2511   -7.5203   -8.6248 N   0  0  0  0  0  0  0  0  0  0  0  0
   39.7085   -6.1683   -8.3539 C   0  0  1  0  0  0  0  0  0  0  0  0
   38.6252   -6.3474   -7.3388 C   0  0  0  0  0  0  0  0  0  0  0  0
   37.6224   -5.2898   -7.2752 C   0  0  0  0  0  0  0  0  0  0  0  0
   37.8674   -4.0813   -7.2415 O   0  0  0  0  0  0  0  0  0  0  0  0
   40.7966   -5.2861   -7.9181 C   0  0  0  0  0  0  0  0  0  0  0  0
   41.5991   -5.6939   -7.0394 O   0  0  0  0  0  0  0  0  0  0  0  0
   36.2689   -5.6780   -7.2504 O   0  0  0  0  0  0  0  0  0  0  0  0
   40.9843   -4.0278   -8.4269 O   0  0  0  0  0  0  0  0  0  0  0  0
  1  2  1  0
  1  5  1  0
  2  3  1  0
  4  3  1  0
  5  4  1  0
  5  6  1  1
  6 13  1  0
  7  6  2  0
  8  9  1  0
  9 10  1  0
 10 11  1  1
 10 12  1  0
 12 13  1  1
 14 12  1  0
 14 16  1  0
 15 14  2  0
 17 16  1  0
 17 21  1  0
 17 18  1  1
 19 18  1  0
 20 19  2  0
 21 22  2  0
 21 24  1  0
 23 19  1  0
M  END
$$$$
