PID.pdb
     RDKit          3D

 24 24  0  0  1  0  0  0  0  0999 V2000
   20.2614  -12.6496  -17.5886 N   0  0  0  0  0  0  0  0  0  0  0  0
   19.1982  -13.6370  -17.8294 C   0  0  0  0  0  0  0  0  0  0  0  0
   18.6734  -14.0385  -16.4662 C   0  0  0  0  0  0  0  0  0  0  0  0
   19.5336  -13.2050  -15.5060 C   0  0  0  0  0  0  0  0  0  0  0  0
   19.7913  -11.9960  -16.4042 C   0  0  1  0  0  0  0  0  0  0  0  0
   20.7176  -11.0416  -15.8167 C   0  0  0  0  0  0  0  0  0  0  0  0
   20.3146  -10.4152  -14.7777 O   0  0  0  0  0  0  0  0  0  0  0  0
   24.6868  -12.4264  -16.1451 C   0  0  0  0  0  0  0  0  0  0  0  0
   24.6408  -11.2978  -15.1279 C   0  0  0  0  0  0  0  0  0  0  0  0
   24.2822  -10.0007  -15.7750 C   0  0  2  0  0  0  0  0  0  0  0  0
   25.2022   -8.8809  -15.4151 C   0  0  0  0  0  0  0  0  0  0  0  0
   22.8185   -9.6825  -15.6158 C   0  0  2  0  0  0  0  0  0  0  0  0
   22.0141  -10.7296  -16.2666 N   0  0  0  0  0  0  0  0  0  0  0  0
   22.4352   -8.3502  -16.0865 C   0  0  0  0  0  0  0  0  0  0  0  0
   22.3195   -8.0552  -17.2993 O   0  0  0  0  0  0  0  0  0  0  0  0
   22.1778   -7.3303  -15.1401 N   0  0  0  0  0  0  0  0  0  0  0  0
   21.8146   -5.9497  -15.5375 C   0  0  1  0  0  0  0  0  0  0  0  0
   20.3489   -5.8106  -15.2765 C   0  0  0  0  0  0  0  0  0  0  0  0
   19.7720   -4.4955  -15.5333 C   0  0  0  0  0  0  0  0  0  0  0  0
   19.9936   -3.8067  -16.5324 O   0  0  0  0  0  0  0  0  0  0  0  0
   22.6473   -4.9957  -14.7967 C   0  0  0  0  0  0  0  0  0  0  0  0
   23.0514   -5.3027  -13.6457 O   0  0  0  0  0  0  0  0  0  0  0  0
   18.8938   -3.9707  -14.5655 O   0  0  0  0  0  0  0  0  0  0  0  0
   23.0107   -3.7752  -15.3022 O   0  0  0  0  0  0  0  0  0  0  0  0
  1  2  1  0
  1  5  1  0
  2  3  1  0
  4  3  1  0
  5  4  1  0
  5  6  1  1
  6 13  1  0
  7  6  2  0
  8  9  1  0
  9 10  1  0
 10 11  1  1
 10 12  1  0
 12 13  1  6
 14 12  1  0
 14 16  1  0
 15 14  2  0
 17 16  1  0
 17 21  1  0
 17 18  1  1
 19 18  1  0
 20 19  2  0
 21 22  2  0
 21 24  1  0
 23 19  1  0
M  END
$$$$
