PID.pdb
     RDKit          3D

 24 24  0  0  1  0  0  0  0  0999 V2000
   20.4100  -11.1495  -19.7862 N   0  0  0  0  0  0  0  0  0  0  0  0
   19.4823  -11.7938  -20.7283 C   0  0  0  0  0  0  0  0  0  0  0  0
   18.5367  -12.6296  -19.8902 C   0  0  0  0  0  0  0  0  0  0  0  0
   19.0354  -12.3845  -18.4592 C   0  0  0  0  0  0  0  0  0  0  0  0
   19.5782  -10.9670  -18.6347 C   0  0  1  0  0  0  0  0  0  0  0  0
   20.2626  -10.4723  -17.4510 C   0  0  0  0  0  0  0  0  0  0  0  0
   19.5369  -10.2336  -16.4260 O   0  0  0  0  0  0  0  0  0  0  0  0
   24.6112  -12.6010  -15.5455 C   0  0  0  0  0  0  0  0  0  0  0  0
   23.2863  -11.8811  -15.7369 C   0  0  0  0  0  0  0  0  0  0  0  0
   23.4672  -10.3991  -15.7104 C   0  0  2  0  0  0  0  0  0  0  0  0
   24.1426   -9.9033  -14.4743 C   0  0  0  0  0  0  0  0  0  0  0  0
   22.1938   -9.6743  -16.0601 C   0  0  2  0  0  0  0  0  0  0  0  0
   21.6408  -10.2261  -17.3078 N   0  0  0  0  0  0  0  0  0  0  0  0
   22.3293   -8.2186  -16.1386 C   0  0  0  0  0  0  0  0  0  0  0  0
   23.0761   -7.6398  -16.9625 O   0  0  0  0  0  0  0  0  0  0  0  0
   21.5880   -7.4064  -15.2482 N   0  0  0  0  0  0  0  0  0  0  0  0
   21.6675   -5.9268  -15.2676 C   0  0  1  0  0  0  0  0  0  0  0  0
   20.3427   -5.4426  -15.7640 C   0  0  0  0  0  0  0  0  0  0  0  0
   20.1451   -3.9972  -15.7636 C   0  0  0  0  0  0  0  0  0  0  0  0
   21.0481   -3.1580  -15.8085 O   0  0  0  0  0  0  0  0  0  0  0  0
   22.0183   -5.4413  -13.9283 C   0  0  0  0  0  0  0  0  0  0  0  0
   21.9055   -6.2203  -12.9471 O   0  0  0  0  0  0  0  0  0  0  0  0
   18.8205   -3.5223  -15.7078 O   0  0  0  0  0  0  0  0  0  0  0  0
   22.4679   -4.1688  -13.6916 O   0  0  0  0  0  0  0  0  0  0  0  0
  1  2  1  0
  1  5  1  0
  2  3  1  0
  4  3  1  0
  5  4  1  0
  5  6  1  1
  6 13  1  0
  7  6  2  0
  8  9  1  0
  9 10  1  0
 10 11  1  1
 10 12  1  0
 12 13  1  6
 14 12  1  0
 14 16  1  0
 15 14  2  0
 17 16  1  0
 17 21  1  0
 17 18  1  1
 19 18  1  0
 20 19  2  0
 21 22  2  0
 21 24  1  0
 23 19  1  0
M  END
$$$$
