PID.pdb
     RDKit          3D

 24 24  0  0  1  0  0  0  0  0999 V2000
   23.4049  -13.4554  -19.3708 N   0  0  0  0  0  0  0  0  0  0  0  0
   22.6324  -14.4094  -20.1809 C   0  0  0  0  0  0  0  0  0  0  0  0
   21.9352  -15.3322  -19.2024 C   0  0  0  0  0  0  0  0  0  0  0  0
   22.3992  -14.8027  -17.8382 C   0  0  0  0  0  0  0  0  0  0  0  0
   22.5844  -13.3307  -18.2036 C   0  0  1  0  0  0  0  0  0  0  0  0
   23.1626  -12.5478  -17.1233 C   0  0  0  0  0  0  0  0  0  0  0  0
   22.7219  -12.7803  -15.9461 O   0  0  0  0  0  0  0  0  0  0  0  0
   28.3368  -11.9035  -16.8191 C   0  0  0  0  0  0  0  0  0  0  0  0
   26.8683  -12.0819  -16.4697 C   0  0  0  0  0  0  0  0  0  0  0  0
   26.2135  -10.7678  -16.1977 C   0  0  2  0  0  0  0  0  0  0  0  0
   26.8818   -9.9811  -15.1186 C   0  0  0  0  0  0  0  0  0  0  0  0
   24.7226  -10.9092  -16.0359 C   0  0  2  0  0  0  0  0  0  0  0  0
   24.1578  -11.5584  -17.2302 N   0  0  0  0  0  0  0  0  0  0  0  0
   24.0263   -9.6571  -15.7338 C   0  0  0  0  0  0  0  0  0  0  0  0
   24.2658   -8.9638  -14.7173 O   0  0  0  0  0  0  0  0  0  0  0  0
   23.0293   -9.1890  -16.6221 N   0  0  0  0  0  0  0  0  0  0  0  0
   22.2620   -7.9460  -16.3729 C   0  0  1  0  0  0  0  0  0  0  0  0
   22.0997   -7.2805  -17.7021 C   0  0  0  0  0  0  0  0  0  0  0  0
   21.2303   -6.1094  -17.7328 C   0  0  0  0  0  0  0  0  0  0  0  0
   20.0281   -6.1258  -18.0088 O   0  0  0  0  0  0  0  0  0  0  0  0
   20.9953   -8.2807  -15.7128 C   0  0  0  0  0  0  0  0  0  0  0  0
   20.4783   -9.4088  -15.9191 O   0  0  0  0  0  0  0  0  0  0  0  0
   21.8077   -4.8628  -17.4235 O   0  0  0  0  0  0  0  0  0  0  0  0
   20.3418   -7.4169  -14.8737 O   0  0  0  0  0  0  0  0  0  0  0  0
  1  2  1  0
  1  5  1  0
  2  3  1  0
  4  3  1  0
  5  4  1  0
  5  6  1  1
  6 13  1  0
  7  6  2  0
  8  9  1  0
  9 10  1  0
 10 11  1  1
 10 12  1  0
 12 13  1  6
 14 12  1  0
 14 16  1  0
 15 14  2  0
 17 16  1  0
 17 21  1  0
 17 18  1  6
 19 18  1  0
 20 19  2  0
 21 22  2  0
 21 24  1  0
 23 19  1  0
M  END
$$$$
