PID.pdb
     RDKit          3D

 24 24  0  0  1  0  0  0  0  0999 V2000
   21.7566  -12.3330  -19.1331 N   0  0  0  0  0  0  0  0  0  0  0  0
   20.9107  -13.3013  -19.8475 C   0  0  0  0  0  0  0  0  0  0  0  0
   20.6909  -14.4586  -18.8950 C   0  0  0  0  0  0  0  0  0  0  0  0
   21.4795  -14.0342  -17.6482 C   0  0  0  0  0  0  0  0  0  0  0  0
   21.3336  -12.5187  -17.7775 C   0  0  1  0  0  0  0  0  0  0  0  0
   22.1053  -11.7889  -16.7845 C   0  0  0  0  0  0  0  0  0  0  0  0
   21.6682  -11.8169  -15.5835 O   0  0  0  0  0  0  0  0  0  0  0  0
   27.3045  -12.2662  -16.6603 C   0  0  0  0  0  0  0  0  0  0  0  0
   25.8266  -12.0862  -16.3540 C   0  0  0  0  0  0  0  0  0  0  0  0
   25.5016  -10.6548  -16.0797 C   0  0  2  0  0  0  0  0  0  0  0  0
   26.3622  -10.0396  -15.0258 C   0  0  0  0  0  0  0  0  0  0  0  0
   24.0232  -10.4458  -15.8796 C   0  0  2  0  0  0  0  0  0  0  0  0
   23.2850  -11.0522  -16.9996 N   0  0  0  0  0  0  0  0  0  0  0  0
   23.6319   -9.0490  -15.6812 C   0  0  0  0  0  0  0  0  0  0  0  0
   24.0474   -8.3459  -14.7302 O   0  0  0  0  0  0  0  0  0  0  0  0
   22.7406   -8.4439  -16.5985 N   0  0  0  0  0  0  0  0  0  0  0  0
   22.2200   -7.0690  -16.4126 C   0  0  1  0  0  0  0  0  0  0  0  0
   21.7173   -6.6271  -17.7498 C   0  0  0  0  0  0  0  0  0  0  0  0
   20.9809   -5.3680  -17.7759 C   0  0  0  0  0  0  0  0  0  0  0  0
   21.2628   -4.3678  -17.1112 O   0  0  0  0  0  0  0  0  0  0  0  0
   21.1971   -7.0747  -15.3610 C   0  0  0  0  0  0  0  0  0  0  0  0
   20.4020   -8.0466  -15.2873 O   0  0  0  0  0  0  0  0  0  0  0  0
   19.8610   -5.2875  -18.6259 O   0  0  0  0  0  0  0  0  0  0  0  0
   21.0646   -6.0638  -14.4455 O   0  0  0  0  0  0  0  0  0  0  0  0
  1  2  1  0
  1  5  1  0
  2  3  1  0
  4  3  1  0
  5  4  1  0
  5  6  1  1
  6 13  1  0
  7  6  2  0
  8  9  1  0
  9 10  1  0
 10 11  1  1
 10 12  1  0
 12 13  1  6
 14 12  1  0
 14 16  1  0
 15 14  2  0
 17 16  1  0
 17 21  1  0
 17 18  1  6
 19 18  1  0
 20 19  2  0
 21 22  2  0
 21 24  1  0
 23 19  1  0
M  END
$$$$
