WIV.pdb
     RDKit          3D

 30 31  0  0  1  0  0  0  0  0999 V2000
    5.6924  -17.8887   24.4802 N   0  0  0  0  0  0  0  0  0  0  0  0
    6.4317  -16.6443   24.2790 C   0  0  1  0  0  0  0  0  0  0  0  0
    7.1996  -16.2665   25.5421 C   0  0  0  0  0  0  0  0  0  0  0  0
    6.5921  -15.0673   26.1740 C   0  0  0  0  0  0  0  0  0  0  0  0
    5.3037  -14.9883   26.7124 C   0  0  0  0  0  0  0  0  0  0  0  0
    5.1206  -13.7492   27.1888 N   0  0  0  0  0  0  0  0  0  0  0  0
    6.2084  -12.9824   27.0055 C   0  0  0  0  0  0  0  0  0  0  0  0
    6.4945  -11.6671   27.3197 C   0  0  0  0  0  0  0  0  0  0  0  0
    7.7323  -11.1599   26.9920 C   0  0  0  0  0  0  0  0  0  0  0  0
    8.6475  -11.9689   26.3644 C   0  0  0  0  0  0  0  0  0  0  0  0
    8.3519  -13.2769   26.0564 C   0  0  0  0  0  0  0  0  0  0  0  0
    7.1284  -13.8120   26.3693 C   0  0  0  0  0  0  0  0  0  0  0  0
    7.3835  -16.7680   23.1474 C   0  0  0  0  0  0  0  0  0  0  0  0
    7.8949  -17.8629   22.9029 O   0  0  0  0  0  0  0  0  0  0  0  0
    7.1734  -12.4353   19.8826 C   0  0  0  0  0  0  0  0  0  0  0  0
    7.2395  -13.9068   20.1402 C   0  0  0  0  0  0  0  0  0  0  0  0
    8.6406  -14.3749   20.4680 C   0  0  2  0  0  0  0  0  0  0  0  0
    9.5015  -14.4679   19.2293 C   0  0  0  0  0  0  0  0  0  0  0  0
    8.6351  -15.6546   21.2645 C   0  0  2  0  0  0  0  0  0  0  0  0
    7.7034  -15.6380   22.3531 N   0  0  0  0  0  0  0  0  0  0  0  0
   10.0140  -15.9972   21.6729 C   0  0  0  0  0  0  0  0  0  0  0  0
   10.6146  -15.2223   22.4490 O   0  0  0  0  0  0  0  0  0  0  0  0
   11.2849  -19.2768   23.1006 C   0  0  0  0  0  0  0  0  0  0  0  0
   12.1733  -18.9458   21.9170 C   0  0  1  0  0  0  0  0  0  0  0  0
   11.6343  -19.7033   20.7125 C   0  0  0  0  0  0  0  0  0  0  0  0
   12.0600  -17.4670   21.6314 C   0  0  2  0  0  0  0  0  0  0  0  0
   10.6990  -17.1529   21.2378 N   0  0  0  0  0  0  0  0  0  0  0  0
   13.0004  -17.0329   20.5847 C   0  0  0  0  0  0  0  0  0  0  0  0
   14.3417  -16.8901   20.8561 O   0  0  0  0  0  0  0  0  0  0  0  0
   12.5822  -16.7906   19.4378 O   0  0  0  0  0  0  0  0  0  0  0  0
  2 13  1  0
  2  1  1  1
  3  2  1  0
  4  5  2  0
  4  3  1  0
  6  5  1  0
  7 12  2  0
  7  6  1  0
  8  7  1  0
  9 10  1  0
  9  8  2  0
 10 11  2  0
 11 12  1  0
 12  4  1  0
 13 14  2  0
 16 15  1  0
 16 17  1  0
 17 18  1  6
 19 17  1  0
 19 20  1  1
 20 13  1  0
 21 19  1  0
 22 21  2  0
 24 23  1  1
 24 26  1  0
 24 25  1  0
 26 27  1  6
 27 21  1  0
 28 26  1  0
 28 29  1  0
 30 28  2  0
M  END
$$$$
