WIV.pdb
     RDKit          3D

 30 31  0  0  1  0  0  0  0  0999 V2000
    5.5247  -17.9634   24.4089 N   0  0  0  0  0  0  0  0  0  0  0  0
    6.3264  -16.7559   24.2219 C   0  0  1  0  0  0  0  0  0  0  0  0
    7.1022  -16.4251   25.4933 C   0  0  0  0  0  0  0  0  0  0  0  0
    6.6253  -15.1405   26.0672 C   0  0  0  0  0  0  0  0  0  0  0  0
    5.3327  -14.8809   26.5338 C   0  0  0  0  0  0  0  0  0  0  0  0
    5.2891  -13.6161   26.9744 N   0  0  0  0  0  0  0  0  0  0  0  0
    6.4757  -13.0018   26.8345 C   0  0  0  0  0  0  0  0  0  0  0  0
    6.9150  -11.7265   27.1369 C   0  0  0  0  0  0  0  0  0  0  0  0
    8.2235  -11.3929   26.8661 C   0  0  0  0  0  0  0  0  0  0  0  0
    9.0557  -12.3303   26.3051 C   0  0  0  0  0  0  0  0  0  0  0  0
    8.6077  -13.5969   26.0082 C   0  0  0  0  0  0  0  0  0  0  0  0
    7.3106  -13.9604   26.2656 C   0  0  0  0  0  0  0  0  0  0  0  0
    7.2797  -16.9192   23.0966 C   0  0  0  0  0  0  0  0  0  0  0  0
    7.7751  -18.0269   22.8783 O   0  0  0  0  0  0  0  0  0  0  0  0
    7.0536  -12.7205   19.7501 C   0  0  0  0  0  0  0  0  0  0  0  0
    7.1696  -14.1963   19.9605 C   0  0  0  0  0  0  0  0  0  0  0  0
    8.5685  -14.6167   20.3557 C   0  0  2  0  0  0  0  0  0  0  0  0
    9.4752  -14.7372   19.1527 C   0  0  0  0  0  0  0  0  0  0  0  0
    8.5639  -15.8639   21.2023 C   0  0  2  0  0  0  0  0  0  0  0  0
    7.6191  -15.8122   22.2785 N   0  0  0  0  0  0  0  0  0  0  0  0
    9.9405  -16.1782   21.6399 C   0  0  0  0  0  0  0  0  0  0  0  0
   10.5013  -15.4015   22.4435 O   0  0  0  0  0  0  0  0  0  0  0  0
   11.1785  -19.6520   22.7698 C   0  0  0  0  0  0  0  0  0  0  0  0
   12.1715  -19.1191   21.7550 C   0  0  1  0  0  0  0  0  0  0  0  0
   11.8124  -19.7180   20.4032 C   0  0  0  0  0  0  0  0  0  0  0  0
   12.0061  -17.6206   21.6639 C   0  0  2  0  0  0  0  0  0  0  0  0
   10.6658  -17.3085   21.2036 N   0  0  0  0  0  0  0  0  0  0  0  0
   13.0020  -17.0083   20.7684 C   0  0  0  0  0  0  0  0  0  0  0  0
   14.2939  -16.7943   21.1909 O   0  0  0  0  0  0  0  0  0  0  0  0
   12.6766  -16.6782   19.6135 O   0  0  0  0  0  0  0  0  0  0  0  0
  2 13  1  0
  2  1  1  1
  3  2  1  0
  4  5  2  0
  4  3  1  0
  6  5  1  0
  7 12  2  0
  7  6  1  0
  8  7  1  0
  9 10  1  0
  9  8  2  0
 10 11  2  0
 11 12  1  0
 12  4  1  0
 13 14  2  0
 16 15  1  0
 16 17  1  0
 17 18  1  6
 19 17  1  0
 19 20  1  1
 20 13  1  0
 21 19  1  0
 22 21  2  0
 24 23  1  1
 24 26  1  0
 24 25  1  0
 26 27  1  6
 27 21  1  0
 28 26  1  0
 28 29  1  0
 30 28  2  0
M  END
$$$$
