WIV.pdb
     RDKit          3D

 30 31  0  0  1  0  0  0  0  0999 V2000
    6.7912  -19.3069   26.9138 N   0  0  0  0  0  0  0  0  0  0  0  0
    7.5614  -18.0655   26.9496 C   0  0  1  0  0  0  0  0  0  0  0  0
    9.0239  -18.3510   27.2773 C   0  0  0  0  0  0  0  0  0  0  0  0
    9.4363  -17.5963   28.4886 C   0  0  0  0  0  0  0  0  0  0  0  0
    9.6595  -18.1409   29.7573 C   0  0  0  0  0  0  0  0  0  0  0  0
   10.0161  -17.1494   30.5853 N   0  0  0  0  0  0  0  0  0  0  0  0
   10.0482  -15.9641   29.9538 C   0  0  0  0  0  0  0  0  0  0  0  0
   10.3511  -14.6829   30.3751 C   0  0  0  0  0  0  0  0  0  0  0  0
   10.2908  -13.6522   29.4637 C   0  0  0  0  0  0  0  0  0  0  0  0
    9.9330  -13.9207   28.1652 C   0  0  0  0  0  0  0  0  0  0  0  0
    9.6335  -15.2001   27.7569 C   0  0  0  0  0  0  0  0  0  0  0  0
    9.6842  -16.2482   28.6399 C   0  0  0  0  0  0  0  0  0  0  0  0
    7.4822  -17.3526   25.6506 C   0  0  0  0  0  0  0  0  0  0  0  0
    7.3566  -18.0019   24.6100 O   0  0  0  0  0  0  0  0  0  0  0  0
    6.1890  -12.0270   25.9261 C   0  0  0  0  0  0  0  0  0  0  0  0
    6.1879  -13.3692   25.2670 C   0  0  0  0  0  0  0  0  0  0  0  0
    7.5119  -13.6930   24.6100 C   0  0  2  0  0  0  0  0  0  0  0  0
    7.7126  -12.8995   23.3395 C   0  0  0  0  0  0  0  0  0  0  0  0
    7.6887  -15.1749   24.3991 C   0  0  2  0  0  0  0  0  0  0  0  0
    7.5502  -15.9372   25.6046 N   0  0  0  0  0  0  0  0  0  0  0  0
    8.9549  -15.4318   23.6805 C   0  0  0  0  0  0  0  0  0  0  0  0
    9.9980  -14.8831   24.0982 O   0  0  0  0  0  0  0  0  0  0  0  0
   11.5523  -18.4128   20.7691 C   0  0  0  0  0  0  0  0  0  0  0  0
   10.2755  -18.0860   21.5194 C   0  0  1  0  0  0  0  0  0  0  0  0
   10.2464  -18.9480   22.7729 C   0  0  0  0  0  0  0  0  0  0  0  0
   10.3276  -16.6381   21.9459 C   0  0  2  0  0  0  0  0  0  0  0  0
    9.0596  -16.2638   22.5443 N   0  0  0  0  0  0  0  0  0  0  0  0
   10.6378  -15.7413   20.8198 C   0  0  0  0  0  0  0  0  0  0  0  0
   11.9366  -15.3843   20.5391 O   0  0  0  0  0  0  0  0  0  0  0  0
    9.7174  -15.2975   20.1095 O   0  0  0  0  0  0  0  0  0  0  0  0
  2 13  1  0
  2  1  1  6
  3  2  1  0
  4  5  2  0
  4  3  1  0
  6  5  1  0
  7 12  2  0
  7  6  1  0
  8  7  1  0
  9 10  1  0
  9  8  2  0
 10 11  2  0
 11 12  1  0
 12  4  1  0
 13 14  2  0
 16 15  1  0
 16 17  1  0
 17 18  1  6
 19 17  1  0
 19 20  1  1
 20 13  1  0
 21 19  1  0
 22 21  2  0
 24 23  1  6
 24 26  1  0
 24 25  1  0
 26 27  1  6
 27 21  1  0
 28 26  1  0
 28 29  1  0
 30 28  2  0
M  END
$$$$
