WIV.pdb
     RDKit          3D

 30 31  0  0  1  0  0  0  0  0999 V2000
    6.6741  -18.0097   21.4941 N   0  0  0  0  0  0  0  0  0  0  0  0
    6.4376  -17.5551   22.8628 C   0  0  1  0  0  0  0  0  0  0  0  0
    6.6127  -18.7067   23.8481 C   0  0  0  0  0  0  0  0  0  0  0  0
    5.5327  -19.7099   23.6638 C   0  0  0  0  0  0  0  0  0  0  0  0
    4.2795  -19.4694   23.0915 C   0  0  0  0  0  0  0  0  0  0  0  0
    3.5846  -20.6152   23.1002 N   0  0  0  0  0  0  0  0  0  0  0  0
    4.2921  -21.6193   23.6445 C   0  0  0  0  0  0  0  0  0  0  0  0
    4.0096  -22.9536   23.8695 C   0  0  0  0  0  0  0  0  0  0  0  0
    4.9684  -23.7449   24.4623 C   0  0  0  0  0  0  0  0  0  0  0  0
    6.1755  -23.1921   24.8136 C   0  0  0  0  0  0  0  0  0  0  0  0
    6.4459  -21.8625   24.5848 C   0  0  0  0  0  0  0  0  0  0  0  0
    5.5125  -21.0480   23.9965 C   0  0  0  0  0  0  0  0  0  0  0  0
    7.3660  -16.4560   23.2261 C   0  0  0  0  0  0  0  0  0  0  0  0
    8.4940  -16.4267   22.7293 O   0  0  0  0  0  0  0  0  0  0  0  0
    7.5586  -11.4127   26.9496 C   0  0  0  0  0  0  0  0  0  0  0  0
    8.2022  -12.5925   26.2942 C   0  0  0  0  0  0  0  0  0  0  0  0
    7.2042  -13.4665   25.5662 C   0  0  2  0  0  0  0  0  0  0  0  0
    6.0509  -13.8596   26.4603 C   0  0  0  0  0  0  0  0  0  0  0  0
    7.8646  -14.6568   24.9189 C   0  0  2  0  0  0  0  0  0  0  0  0
    6.9611  -15.4475   24.1366 N   0  0  0  0  0  0  0  0  0  0  0  0
    8.6019  -15.4360   25.9361 C   0  0  0  0  0  0  0  0  0  0  0  0
    7.9477  -16.0225   26.8258 O   0  0  0  0  0  0  0  0  0  0  0  0
   11.5986  -17.5369   24.7803 C   0  0  0  0  0  0  0  0  0  0  0  0
   11.9699  -16.9643   26.1345 C   0  0  1  0  0  0  0  0  0  0  0  0
   12.8516  -15.7480   25.8925 C   0  0  0  0  0  0  0  0  0  0  0  0
   10.7072  -16.5002   26.8211 C   0  0  2  0  0  0  0  0  0  0  0  0
   10.0083  -15.5597   25.9650 N   0  0  0  0  0  0  0  0  0  0  0  0
   10.9847  -15.8818   28.1285 C   0  0  0  0  0  0  0  0  0  0  0  0
   10.7160  -14.5508   28.3508 O   0  0  0  0  0  0  0  0  0  0  0  0
   11.4683  -16.5670   29.0479 O   0  0  0  0  0  0  0  0  0  0  0  0
  2 13  1  0
  2  1  1  6
  3  2  1  0
  4  5  2  0
  4  3  1  0
  6  5  1  0
  7 12  2  0
  7  6  1  0
  8  7  1  0
  9 10  1  0
  9  8  2  0
 10 11  2  0
 11 12  1  0
 12  4  1  0
 13 14  2  0
 16 15  1  0
 16 17  1  0
 17 18  1  1
 19 17  1  0
 19 20  1  1
 20 13  1  0
 21 19  1  0
 22 21  2  0
 24 23  1  6
 24 26  1  0
 24 25  1  0
 26 27  1  6
 27 21  1  0
 28 26  1  0
 28 29  1  0
 30 28  2  0
M  END
$$$$
