WIV.pdb
     RDKit          3D

 30 31  0  0  1  0  0  0  0  0999 V2000
    5.8781  -18.2369   24.9521 N   0  0  0  0  0  0  0  0  0  0  0  0
    6.4514  -16.9244   24.6615 C   0  0  1  0  0  0  0  0  0  0  0  0
    7.1926  -16.3814   25.8795 C   0  0  0  0  0  0  0  0  0  0  0  0
    6.5832  -15.1017   26.3240 C   0  0  0  0  0  0  0  0  0  0  0  0
    5.2517  -14.9186   26.7107 C   0  0  0  0  0  0  0  0  0  0  0  0
    5.0819  -13.6315   27.0431 N   0  0  0  0  0  0  0  0  0  0  0  0
    6.2194  -12.9302   26.9049 C   0  0  0  0  0  0  0  0  0  0  0  0
    6.5363  -11.6020   27.1200 C   0  0  0  0  0  0  0  0  0  0  0  0
    7.8249  -11.1792   26.8801 C   0  0  0  0  0  0  0  0  0  0  0  0
    8.7588  -12.0825   26.4353 C   0  0  0  0  0  0  0  0  0  0  0  0
    8.4322  -13.4024   26.2246 C   0  0  0  0  0  0  0  0  0  0  0  0
    7.1580  -13.8550   26.4541 C   0  0  0  0  0  0  0  0  0  0  0  0
    7.3869  -16.9953   23.5119 C   0  0  0  0  0  0  0  0  0  0  0  0
    8.1199  -17.9788   23.3872 O   0  0  0  0  0  0  0  0  0  0  0  0
    8.1594  -12.2977   20.1010 C   0  0  0  0  0  0  0  0  0  0  0  0
    8.4429  -13.4043   21.0658 C   0  0  0  0  0  0  0  0  0  0  0  0
    8.0837  -14.7646   20.5088 C   0  0  2  0  0  0  0  0  0  0  0  0
    6.6581  -14.8034   20.0085 C   0  0  0  0  0  0  0  0  0  0  0  0
    8.3822  -15.8710   21.4879 C   0  0  2  0  0  0  0  0  0  0  0  0
    7.4389  -15.9420   22.5643 N   0  0  0  0  0  0  0  0  0  0  0  0
    9.7868  -15.7762   21.9391 C   0  0  0  0  0  0  0  0  0  0  0  0
   10.0759  -14.9264   22.8097 O   0  0  0  0  0  0  0  0  0  0  0  0
   11.9744  -19.1212   21.9137 C   0  0  0  0  0  0  0  0  0  0  0  0
   12.2401  -17.9603   22.8526 C   0  0  1  0  0  0  0  0  0  0  0  0
   13.6699  -18.0946   23.3553 C   0  0  0  0  0  0  0  0  0  0  0  0
   12.1371  -16.6749   22.0663 C   0  0  2  0  0  0  0  0  0  0  0  0
   10.8286  -16.5911   21.4446 N   0  0  0  0  0  0  0  0  0  0  0  0
   13.1897  -16.5680   21.0420 C   0  0  0  0  0  0  0  0  0  0  0  0
   12.8773  -16.6056   19.7025 O   0  0  0  0  0  0  0  0  0  0  0  0
   14.3789  -16.4420   21.3865 O   0  0  0  0  0  0  0  0  0  0  0  0
  2 13  1  0
  2  1  1  1
  3  2  1  0
  4  5  2  0
  4  3  1  0
  6  5  1  0
  7 12  2  0
  7  6  1  0
  8  7  1  0
  9 10  1  0
  9  8  2  0
 10 11  2  0
 11 12  1  0
 12  4  1  0
 13 14  2  0
 16 15  1  0
 16 17  1  0
 17 18  1  1
 19 17  1  0
 19 20  1  1
 20 13  1  0
 21 19  1  0
 22 21  2  0
 24 23  1  6
 24 26  1  0
 24 25  1  0
 26 27  1  6
 27 21  1  0
 28 26  1  0
 28 29  1  0
 30 28  2  0
M  END
$$$$
