WIV.pdb
     RDKit          3D

 30 31  0  0  1  0  0  0  0  0999 V2000
    5.4595  -17.8737   23.4078 N   0  0  0  0  0  0  0  0  0  0  0  0
    6.3498  -16.9587   22.6964 C   0  0  1  0  0  0  0  0  0  0  0  0
    5.5691  -16.1364   21.6755 C   0  0  0  0  0  0  0  0  0  0  0  0
    6.4974  -15.5224   20.6917 C   0  0  0  0  0  0  0  0  0  0  0  0
    6.9337  -16.1091   19.4994 C   0  0  0  0  0  0  0  0  0  0  0  0
    7.7591  -15.2512   18.8842 N   0  0  0  0  0  0  0  0  0  0  0  0
    7.9089  -14.1168   19.5883 C   0  0  0  0  0  0  0  0  0  0  0  0
    8.6407  -12.9648   19.3694 C   0  0  0  0  0  0  0  0  0  0  0  0
    8.5842  -11.9542   20.3033 C   0  0  0  0  0  0  0  0  0  0  0  0
    7.8062  -12.1147   21.4236 C   0  0  0  0  0  0  0  0  0  0  0  0
    7.0817  -13.2659   21.6313 C   0  0  0  0  0  0  0  0  0  0  0  0
    7.1167  -14.2906   20.7204 C   0  0  0  0  0  0  0  0  0  0  0  0
    7.0354  -16.0420   23.6405 C   0  0  0  0  0  0  0  0  0  0  0  0
    6.9674  -14.8243   23.4595 O   0  0  0  0  0  0  0  0  0  0  0  0
    6.5949  -12.5203   25.7500 C   0  0  0  0  0  0  0  0  0  0  0  0
    7.2968  -13.6970   25.1513 C   0  0  0  0  0  0  0  0  0  0  0  0
    7.9257  -14.5905   26.1982 C   0  0  2  0  0  0  0  0  0  0  0  0
    8.8268  -13.8110   27.1279 C   0  0  0  0  0  0  0  0  0  0  0  0
    8.6204  -15.7777   25.5820 C   0  0  2  0  0  0  0  0  0  0  0  0
    7.7629  -16.5600   24.7416 N   0  0  0  0  0  0  0  0  0  0  0  0
    9.2946  -16.5666   26.6348 C   0  0  0  0  0  0  0  0  0  0  0  0
    8.6528  -16.8476   27.6706 O   0  0  0  0  0  0  0  0  0  0  0  0
   11.2920  -19.3694   25.1128 C   0  0  0  0  0  0  0  0  0  0  0  0
   12.0500  -18.9728   26.3650 C   0  0  1  0  0  0  0  0  0  0  0  0
   13.1878  -18.0555   25.9415 C   0  0  0  0  0  0  0  0  0  0  0  0
   11.1205  -18.1866   27.2590 C   0  0  2  0  0  0  0  0  0  0  0  0
   10.6270  -17.0252   26.5425 N   0  0  0  0  0  0  0  0  0  0  0  0
   11.7790  -17.7664   28.5073 C   0  0  0  0  0  0  0  0  0  0  0  0
   12.2105  -18.6962   29.4252 O   0  0  0  0  0  0  0  0  0  0  0  0
   11.9502  -16.5560   28.7405 O   0  0  0  0  0  0  0  0  0  0  0  0
  2 13  1  0
  2  1  1  1
  3  2  1  0
  4  5  2  0
  4  3  1  0
  6  5  1  0
  7 12  2  0
  7  6  1  0
  8  7  1  0
  9 10  1  0
  9  8  2  0
 10 11  2  0
 11 12  1  0
 12  4  1  0
 13 14  2  0
 16 15  1  0
 16 17  1  0
 17 18  1  6
 19 17  1  0
 19 20  1  1
 20 13  1  0
 21 19  1  0
 22 21  2  0
 24 23  1  6
 24 26  1  0
 24 25  1  0
 26 27  1  6
 27 21  1  0
 28 26  1  0
 28 29  1  0
 30 28  2  0
M  END
$$$$
