WIV.pdb
     RDKit          3D

 30 31  0  0  1  0  0  0  0  0999 V2000
    5.7495  -17.6640   25.0234 N   0  0  0  0  0  0  0  0  0  0  0  0
    6.3481  -16.4697   24.4308 C   0  0  1  0  0  0  0  0  0  0  0  0
    7.5973  -16.0565   25.2032 C   0  0  0  0  0  0  0  0  0  0  0  0
    7.2339  -15.1481   26.3210 C   0  0  0  0  0  0  0  0  0  0  0  0
    7.1068  -15.5125   27.6653 C   0  0  0  0  0  0  0  0  0  0  0  0
    6.7682  -14.4227   28.3678 N   0  0  0  0  0  0  0  0  0  0  0  0
    6.6580  -13.3401   27.5800 C   0  0  0  0  0  0  0  0  0  0  0  0
    6.3381  -12.0201   27.8365 C   0  0  0  0  0  0  0  0  0  0  0  0
    6.3078  -11.1279   26.7877 C   0  0  0  0  0  0  0  0  0  0  0  0
    6.5945  -11.5691   25.5191 C   0  0  0  0  0  0  0  0  0  0  0  0
    6.9117  -12.8856   25.2753 C   0  0  0  0  0  0  0  0  0  0  0  0
    6.9505  -13.7987   26.2979 C   0  0  0  0  0  0  0  0  0  0  0  0
    6.7073  -16.7035   23.0103 C   0  0  0  0  0  0  0  0  0  0  0  0
    5.8303  -17.0381   22.2109 O   0  0  0  0  0  0  0  0  0  0  0  0
    7.7516  -12.4116   19.8577 C   0  0  0  0  0  0  0  0  0  0  0  0
    8.2152  -13.8309   19.9387 C   0  0  0  0  0  0  0  0  0  0  0  0
    7.9311  -14.4569   21.2868 C   0  0  2  0  0  0  0  0  0  0  0  0
    8.4490  -13.6007   22.4193 C   0  0  0  0  0  0  0  0  0  0  0  0
    8.4276  -15.8780   21.3639 C   0  0  2  0  0  0  0  0  0  0  0  0
    8.0469  -16.5441   22.5742 N   0  0  0  0  0  0  0  0  0  0  0  0
    9.8819  -15.9162   21.1014 C   0  0  0  0  0  0  0  0  0  0  0  0
   10.3048  -15.4424   20.0242 O   0  0  0  0  0  0  0  0  0  0  0  0
   14.4640  -17.0770   22.6141 C   0  0  0  0  0  0  0  0  0  0  0  0
   12.9728  -17.1459   22.8813 C   0  0  1  0  0  0  0  0  0  0  0  0
   12.6843  -16.2804   24.0990 C   0  0  0  0  0  0  0  0  0  0  0  0
   12.2460  -16.5504   21.6987 C   0  0  2  0  0  0  0  0  0  0  0  0
   10.8290  -16.4582   21.9978 N   0  0  0  0  0  0  0  0  0  0  0  0
   12.4519  -17.3367   20.4707 C   0  0  0  0  0  0  0  0  0  0  0  0
   13.3706  -16.9418   19.5257 O   0  0  0  0  0  0  0  0  0  0  0  0
   11.7892  -18.3726   20.2800 O   0  0  0  0  0  0  0  0  0  0  0  0
  2 13  1  0
  2  1  1  1
  3  2  1  0
  4  5  2  0
  4  3  1  0
  6  5  1  0
  7 12  2  0
  7  6  1  0
  8  7  1  0
  9 10  1  0
  9  8  2  0
 10 11  2  0
 11 12  1  0
 12  4  1  0
 13 14  2  0
 16 15  1  0
 16 17  1  0
 17 18  1  1
 19 17  1  0
 19 20  1  1
 20 13  1  0
 21 19  1  0
 22 21  2  0
 24 23  1  6
 24 26  1  0
 24 25  1  0
 26 27  1  1
 27 21  1  0
 28 26  1  0
 28 29  1  0
 30 28  2  0
M  END
$$$$
