WIV.pdb
     RDKit          3D

 30 31  0  0  1  0  0  0  0  0999 V2000
    6.1385  -18.7223   24.7857 N   0  0  0  0  0  0  0  0  0  0  0  0
    6.5801  -17.3358   24.6508 C   0  0  1  0  0  0  0  0  0  0  0  0
    7.1658  -16.8293   25.9654 C   0  0  0  0  0  0  0  0  0  0  0  0
    6.6149  -15.4887   26.2911 C   0  0  0  0  0  0  0  0  0  0  0  0
    5.2599  -15.1706   26.4287 C   0  0  0  0  0  0  0  0  0  0  0  0
    5.1602  -13.8674   26.7243 N   0  0  0  0  0  0  0  0  0  0  0  0
    6.3673  -13.2820   26.7955 C   0  0  0  0  0  0  0  0  0  0  0  0
    6.7692  -11.9870   27.0644 C   0  0  0  0  0  0  0  0  0  0  0  0
    8.1152  -11.6953   27.0632 C   0  0  0  0  0  0  0  0  0  0  0  0
    9.0207  -12.6927   26.7962 C   0  0  0  0  0  0  0  0  0  0  0  0
    8.6094  -13.9784   26.5298 C   0  0  0  0  0  0  0  0  0  0  0  0
    7.2765  -14.3013   26.5235 C   0  0  0  0  0  0  0  0  0  0  0  0
    7.5981  -17.2036   23.5794 C   0  0  0  0  0  0  0  0  0  0  0  0
    8.3689  -18.1400   23.3572 O   0  0  0  0  0  0  0  0  0  0  0  0
    8.1906  -12.1249   20.7490 C   0  0  0  0  0  0  0  0  0  0  0  0
    8.5495  -13.3171   21.5771 C   0  0  0  0  0  0  0  0  0  0  0  0
    8.2503  -14.6226   20.8729 C   0  0  2  0  0  0  0  0  0  0  0  0
    6.8284  -14.6679   20.3628 C   0  0  0  0  0  0  0  0  0  0  0  0
    8.5953  -15.8155   21.7273 C   0  0  2  0  0  0  0  0  0  0  0  0
    7.6854  -16.0115   22.8169 N   0  0  0  0  0  0  0  0  0  0  0  0
   10.0108  -15.7396   22.1467 C   0  0  0  0  0  0  0  0  0  0  0  0
   10.8883  -15.6303   21.2626 O   0  0  0  0  0  0  0  0  0  0  0  0
   11.1230  -14.4755   25.8392 C   0  0  0  0  0  0  0  0  0  0  0  0
   11.9323  -15.6767   25.3897 C   0  0  1  0  0  0  0  0  0  0  0  0
   11.2918  -16.9154   25.9984 C   0  0  0  0  0  0  0  0  0  0  0  0
   11.8325  -15.7865   23.8866 C   0  0  2  0  0  0  0  0  0  0  0  0
   10.4358  -15.7833   23.4927 N   0  0  0  0  0  0  0  0  0  0  0  0
   12.4976  -16.9970   23.3758 C   0  0  0  0  0  0  0  0  0  0  0  0
   13.8608  -17.1508   23.4807 O   0  0  0  0  0  0  0  0  0  0  0  0
   11.8228  -17.8959   22.8414 O   0  0  0  0  0  0  0  0  0  0  0  0
  2 13  1  0
  2  1  1  1
  3  2  1  0
  4  5  2  0
  4  3  1  0
  6  5  1  0
  7 12  2  0
  7  6  1  0
  8  7  1  0
  9 10  1  0
  9  8  2  0
 10 11  2  0
 11 12  1  0
 12  4  1  0
 13 14  2  0
 16 15  1  0
 16 17  1  0
 17 18  1  1
 19 17  1  0
 19 20  1  1
 20 13  1  0
 21 19  1  0
 22 21  2  0
 24 23  1  1
 24 26  1  0
 24 25  1  0
 26 27  1  1
 27 21  1  0
 28 26  1  0
 28 29  1  0
 30 28  2  0
M  END
$$$$
