WIV.pdb
     RDKit          3D

 30 31  0  0  1  0  0  0  0  0999 V2000
    5.7579  -18.6295   24.6420 N   0  0  0  0  0  0  0  0  0  0  0  0
    6.2181  -17.2426   24.6207 C   0  0  1  0  0  0  0  0  0  0  0  0
    6.4426  -16.7302   26.0402 C   0  0  0  0  0  0  0  0  0  0  0  0
    5.9190  -15.3467   26.1763 C   0  0  0  0  0  0  0  0  0  0  0  0
    4.5763  -14.9658   26.0863 C   0  0  0  0  0  0  0  0  0  0  0  0
    4.5012  -13.6395   26.2625 N   0  0  0  0  0  0  0  0  0  0  0  0
    5.7134  -13.0976   26.4670 C   0  0  0  0  0  0  0  0  0  0  0  0
    6.1373  -11.8013   26.6920 C   0  0  0  0  0  0  0  0  0  0  0  0
    7.4823  -11.5632   26.8681 C   0  0  0  0  0  0  0  0  0  0  0  0
    8.3651  -12.6139   26.8162 C   0  0  0  0  0  0  0  0  0  0  0  0
    7.9320  -13.9004   26.5915 C   0  0  0  0  0  0  0  0  0  0  0  0
    6.5994  -14.1707   26.4122 C   0  0  0  0  0  0  0  0  0  0  0  0
    7.4790  -17.1122   23.8494 C   0  0  0  0  0  0  0  0  0  0  0  0
    8.2396  -18.0788   23.7640 O   0  0  0  0  0  0  0  0  0  0  0  0
    7.7769  -13.0150   20.1102 C   0  0  0  0  0  0  0  0  0  0  0  0
    7.8823  -14.3129   20.8452 C   0  0  0  0  0  0  0  0  0  0  0  0
    9.0759  -14.3571   21.7741 C   0  0  2  0  0  0  0  0  0  0  0  0
   10.3736  -14.1626   21.0242 C   0  0  0  0  0  0  0  0  0  0  0  0
    9.0819  -15.6012   22.6250 C   0  0  2  0  0  0  0  0  0  0  0  0
    7.8078  -15.8875   23.2153 N   0  0  0  0  0  0  0  0  0  0  0  0
   10.1851  -15.5324   23.6066 C   0  0  0  0  0  0  0  0  0  0  0  0
   11.3611  -15.5404   23.1815 O   0  0  0  0  0  0  0  0  0  0  0  0
   11.6810  -14.9487   28.3034 C   0  0  0  0  0  0  0  0  0  0  0  0
   10.5234  -15.0898   27.3339 C   0  0  1  0  0  0  0  0  0  0  0  0
    9.7778  -13.7636   27.3132 C   0  0  0  0  0  0  0  0  0  0  0  0
   11.0826  -15.3361   25.9527 C   0  0  2  0  0  0  0  0  0  0  0  0
    9.9917  -15.4578   25.0034 N   0  0  0  0  0  0  0  0  0  0  0  0
   11.9282  -16.5408   25.9058 C   0  0  0  0  0  0  0  0  0  0  0  0
   11.3674  -17.7973   25.9087 O   0  0  0  0  0  0  0  0  0  0  0  0
   13.1668  -16.4271   25.8629 O   0  0  0  0  0  0  0  0  0  0  0  0
  2 13  1  0
  2  1  1  1
  3  2  1  0
  4  5  2  0
  4  3  1  0
  6  5  1  0
  7 12  2  0
  7  6  1  0
  8  7  1  0
  9 10  1  0
  9  8  2  0
 10 11  2  0
 11 12  1  0
 12  4  1  0
 13 14  2  0
 16 15  1  0
 16 17  1  0
 17 18  1  6
 19 17  1  0
 19 20  1  1
 20 13  1  0
 21 19  1  0
 22 21  2  0
 24 23  1  1
 24 26  1  0
 24 25  1  0
 26 27  1  6
 27 21  1  0
 28 26  1  0
 28 29  1  0
 30 28  2  0
M  END
$$$$
