WIV.pdb
     RDKit          3D

 30 31  0  0  1  0  0  0  0  0999 V2000
    6.0331  -17.6284   25.0619 N   0  0  0  0  0  0  0  0  0  0  0  0
    6.7492  -16.4535   24.5696 C   0  0  1  0  0  0  0  0  0  0  0  0
    7.7402  -15.9522   25.6158 C   0  0  0  0  0  0  0  0  0  0  0  0
    7.1355  -14.8537   26.4122 C   0  0  0  0  0  0  0  0  0  0  0  0
    6.1427  -14.9981   27.3866 C   0  0  0  0  0  0  0  0  0  0  0  0
    5.8575  -13.7858   27.8814 N   0  0  0  0  0  0  0  0  0  0  0  0
    6.5979  -12.8271   27.3006 C   0  0  0  0  0  0  0  0  0  0  0  0
    6.6619  -11.4568   27.4707 C   0  0  0  0  0  0  0  0  0  0  0  0
    7.5472  -10.7326   26.7036 C   0  0  0  0  0  0  0  0  0  0  0  0
    8.3408  -11.3860   25.7928 C   0  0  0  0  0  0  0  0  0  0  0  0
    8.2688  -12.7506   25.6318 C   0  0  0  0  0  0  0  0  0  0  0  0
    7.3977  -13.5002   26.3803 C   0  0  0  0  0  0  0  0  0  0  0  0
    7.4783  -16.7619   23.3146 C   0  0  0  0  0  0  0  0  0  0  0  0
    8.0810  -17.8326   23.2116 O   0  0  0  0  0  0  0  0  0  0  0  0
    8.2665  -12.4710   19.4313 C   0  0  0  0  0  0  0  0  0  0  0  0
    8.5860  -13.5255   20.4420 C   0  0  0  0  0  0  0  0  0  0  0  0
    8.0493  -14.8850   20.0502 C   0  0  2  0  0  0  0  0  0  0  0  0
    6.5836  -14.8222   19.6871 C   0  0  0  0  0  0  0  0  0  0  0  0
    8.3403  -15.9289   21.0978 C   0  0  2  0  0  0  0  0  0  0  0  0
    7.4829  -15.8347   22.2421 N   0  0  0  0  0  0  0  0  0  0  0  0
    9.7794  -15.9130   21.4356 C   0  0  0  0  0  0  0  0  0  0  0  0
   10.2551  -14.8846   21.9645 O   0  0  0  0  0  0  0  0  0  0  0  0
   11.7316  -17.7249   23.7770 C   0  0  0  0  0  0  0  0  0  0  0  0
   12.4379  -18.0215   22.4682 C   0  0  1  0  0  0  0  0  0  0  0  0
   11.8986  -19.3448   21.9453 C   0  0  0  0  0  0  0  0  0  0  0  0
   12.0788  -16.9422   21.4745 C   0  0  2  0  0  0  0  0  0  0  0  0
   10.6555  -16.9944   21.1963 N   0  0  0  0  0  0  0  0  0  0  0  0
   12.8423  -17.0686   20.2216 C   0  0  0  0  0  0  0  0  0  0  0  0
   14.1998  -16.8455   20.1969 O   0  0  0  0  0  0  0  0  0  0  0  0
   12.2574  -17.3812   19.1685 O   0  0  0  0  0  0  0  0  0  0  0  0
  2 13  1  0
  2  1  1  1
  3  2  1  0
  4  5  2  0
  4  3  1  0
  6  5  1  0
  7 12  2  0
  7  6  1  0
  8  7  1  0
  9 10  1  0
  9  8  2  0
 10 11  2  0
 11 12  1  0
 12  4  1  0
 13 14  2  0
 16 15  1  0
 16 17  1  0
 17 18  1  1
 19 17  1  0
 19 20  1  1
 20 13  1  0
 21 19  1  0
 22 21  2  0
 24 23  1  1
 24 26  1  0
 24 25  1  0
 26 27  1  6
 27 21  1  0
 28 26  1  0
 28 29  1  0
 30 28  2  0
M  END
$$$$
