WIV.pdb
     RDKit          3D

 30 31  0  0  1  0  0  0  0  0999 V2000
    9.2690  -15.7982   25.2975 N   0  0  0  0  0  0  0  0  0  0  0  0
    8.3170  -16.8543   24.9597 C   0  0  1  0  0  0  0  0  0  0  0  0
    7.1091  -16.8052   25.8905 C   0  0  0  0  0  0  0  0  0  0  0  0
    6.7020  -15.3970   26.1309 C   0  0  0  0  0  0  0  0  0  0  0  0
    5.4049  -14.8873   26.0139 C   0  0  0  0  0  0  0  0  0  0  0  0
    5.4366  -13.5807   26.3100 N   0  0  0  0  0  0  0  0  0  0  0  0
    6.6784  -13.1734   26.6211 C   0  0  0  0  0  0  0  0  0  0  0  0
    7.2011  -11.9470   26.9864 C   0  0  0  0  0  0  0  0  0  0  0  0
    8.5500  -11.8507   27.2472 C   0  0  0  0  0  0  0  0  0  0  0  0
    9.3389  -12.9696   27.1386 C   0  0  0  0  0  0  0  0  0  0  0  0
    8.8079  -14.1855   26.7742 C   0  0  0  0  0  0  0  0  0  0  0  0
    7.4687  -14.3145   26.5078 C   0  0  0  0  0  0  0  0  0  0  0  0
    7.8565  -16.7261   23.5550 C   0  0  0  0  0  0  0  0  0  0  0  0
    7.0389  -17.5342   23.1093 O   0  0  0  0  0  0  0  0  0  0  0  0
    6.9375  -12.3891   20.5125 C   0  0  0  0  0  0  0  0  0  0  0  0
    7.1361  -13.7135   21.1777 C   0  0  0  0  0  0  0  0  0  0  0  0
    8.2908  -14.4917   20.5856 C   0  0  2  0  0  0  0  0  0  0  0  0
    8.1279  -14.6835   19.0954 C   0  0  0  0  0  0  0  0  0  0  0  0
    8.5262  -15.7910   21.3125 C   0  0  2  0  0  0  0  0  0  0  0  0
    8.3515  -15.6840   22.7308 N   0  0  0  0  0  0  0  0  0  0  0  0
    9.8348  -16.3555   20.9199 C   0  0  0  0  0  0  0  0  0  0  0  0
    9.9787  -16.7642   19.7469 O   0  0  0  0  0  0  0  0  0  0  0  0
   13.0828  -14.7156   21.9338 C   0  0  0  0  0  0  0  0  0  0  0  0
   13.3226  -16.2024   22.1123 C   0  0  1  0  0  0  0  0  0  0  0  0
   13.1905  -16.5137   23.5959 C   0  0  0  0  0  0  0  0  0  0  0  0
   12.2393  -16.9544   21.3761 C   0  0  2  0  0  0  0  0  0  0  0  0
   10.9393  -16.4624   21.7933 N   0  0  0  0  0  0  0  0  0  0  0  0
   12.3244  -18.4071   21.6014 C   0  0  0  0  0  0  0  0  0  0  0  0
   11.3444  -19.0712   22.3026 O   0  0  0  0  0  0  0  0  0  0  0  0
   13.2931  -19.0477   21.1541 O   0  0  0  0  0  0  0  0  0  0  0  0
  2 13  1  0
  2  1  1  1
  3  2  1  0
  4  5  2  0
  4  3  1  0
  6  5  1  0
  7 12  2  0
  7  6  1  0
  8  7  1  0
  9 10  1  0
  9  8  2  0
 10 11  2  0
 11 12  1  0
 12  4  1  0
 13 14  2  0
 16 15  1  0
 16 17  1  0
 17 18  1  6
 19 17  1  0
 19 20  1  1
 20 13  1  0
 21 19  1  0
 22 21  2  0
 24 23  1  1
 24 26  1  0
 24 25  1  0
 26 27  1  1
 27 21  1  0
 28 26  1  0
 28 29  1  0
 30 28  2  0
M  END
$$$$
