WIV.pdb
     RDKit          3D

 30 31  0  0  1  0  0  0  0  0999 V2000
    5.5180  -18.1843   24.6153 N   0  0  0  0  0  0  0  0  0  0  0  0
    6.1771  -16.8831   24.5250 C   0  0  1  0  0  0  0  0  0  0  0  0
    6.6706  -16.4355   25.8976 C   0  0  0  0  0  0  0  0  0  0  0  0
    6.0575  -15.1333   26.2650 C   0  0  0  0  0  0  0  0  0  0  0  0
    4.7020  -14.9104   26.5276 C   0  0  0  0  0  0  0  0  0  0  0  0
    4.5370  -13.6137   26.8226 N   0  0  0  0  0  0  0  0  0  0  0  0
    5.7002  -12.9431   26.7759 C   0  0  0  0  0  0  0  0  0  0  0  0
    6.0312  -11.6194   26.9971 C   0  0  0  0  0  0  0  0  0  0  0  0
    7.3467  -11.2329   26.8670 C   0  0  0  0  0  0  0  0  0  0  0  0
    8.2926  -12.1670   26.5224 C   0  0  0  0  0  0  0  0  0  0  0  0
    7.9518  -13.4821   26.3045 C   0  0  0  0  0  0  0  0  0  0  0  0
    6.6508  -13.8989   26.4260 C   0  0  0  0  0  0  0  0  0  0  0  0
    7.3246  -16.9321   23.5855 C   0  0  0  0  0  0  0  0  0  0  0  0
    7.8550  -18.0161   23.3331 O   0  0  0  0  0  0  0  0  0  0  0  0
    7.7519  -13.0204   19.7538 C   0  0  0  0  0  0  0  0  0  0  0  0
    7.7986  -14.3071   20.5142 C   0  0  0  0  0  0  0  0  0  0  0  0
    9.0734  -14.4607   21.3149 C   0  0  2  0  0  0  0  0  0  0  0  0
   10.2944  -14.4621   20.4242 C   0  0  0  0  0  0  0  0  0  0  0  0
    9.0240  -15.6585   22.2285 C   0  0  2  0  0  0  0  0  0  0  0  0
    7.8083  -15.7437   22.9825 N   0  0  0  0  0  0  0  0  0  0  0  0
   10.2418  -15.7017   23.0653 C   0  0  0  0  0  0  0  0  0  0  0  0
   11.3540  -15.7467   22.4955 O   0  0  0  0  0  0  0  0  0  0  0  0
   10.2275  -13.9165   26.5522 C   0  0  0  0  0  0  0  0  0  0  0  0
   11.0842  -15.1617   26.6749 C   0  0  1  0  0  0  0  0  0  0  0  0
   10.2423  -16.2332   27.3520 C   0  0  0  0  0  0  0  0  0  0  0  0
   11.4304  -15.6440   25.2861 C   0  0  2  0  0  0  0  0  0  0  0  0
   10.2266  -15.6952   24.4774 N   0  0  0  0  0  0  0  0  0  0  0  0
   12.0807  -16.9651   25.3062 C   0  0  0  0  0  0  0  0  0  0  0  0
   13.3195  -17.1332   25.8809 O   0  0  0  0  0  0  0  0  0  0  0  0
   11.5071  -17.9458   24.7984 O   0  0  0  0  0  0  0  0  0  0  0  0
  2 13  1  0
  2  1  1  1
  3  2  1  0
  4  5  2  0
  4  3  1  0
  6  5  1  0
  7 12  2  0
  7  6  1  0
  8  7  1  0
  9 10  1  0
  9  8  2  0
 10 11  2  0
 11 12  1  0
 12  4  1  0
 13 14  2  0
 16 15  1  0
 16 17  1  0
 17 18  1  6
 19 17  1  0
 19 20  1  1
 20 13  1  0
 21 19  1  0
 22 21  2  0
 24 23  1  6
 24 26  1  0
 24 25  1  0
 26 27  1  6
 27 21  1  0
 28 26  1  0
 28 29  1  0
 30 28  2  0
M  END
$$$$
