CAI.pdb
     RDKit          3D

 20 19  0  0  1  0  0  0  0  0999 V2000
    6.2169  -18.3824   19.2810 N   0  0  0  0  0  0  0  0  0  0  0  0
    7.2620  -17.8186   20.0751 C   0  0  1  0  0  0  0  0  0  0  0  0
    7.6917  -16.5145   19.4188 C   0  0  0  0  0  0  0  0  0  0  0  0
    8.9852  -15.6849   20.3555 S   0  0  0  0  0  0  0  0  0  0  0  0
    6.7277  -17.4786   21.4274 C   0  0  0  0  0  0  0  0  0  0  0  0
    5.7018  -16.7639   21.5887 O   0  0  0  0  0  0  0  0  0  0  0  0
    6.8294  -18.8506   24.8403 C   0  0  0  0  0  0  0  0  0  0  0  0
    6.8984  -17.6335   23.9464 C   0  0  2  0  0  0  0  0  0  0  0  0
    7.3582  -17.9504   22.6170 N   0  0  0  0  0  0  0  0  0  0  0  0
    7.7562  -16.5697   24.5195 C   0  0  0  0  0  0  0  0  0  0  0  0
    8.9686  -16.4252   24.1546 O   0  0  0  0  0  0  0  0  0  0  0  0
    5.5930  -11.9138   26.3907 C   0  0  0  0  0  0  0  0  0  0  0  0
    6.5249  -12.9149   25.7556 C   0  0  0  0  0  0  0  0  0  0  0  0
    7.4134  -13.5576   26.7767 C   0  0  2  0  0  0  0  0  0  0  0  0
    8.2937  -12.5198   27.4296 C   0  0  0  0  0  0  0  0  0  0  0  0
    8.1765  -14.6746   26.1575 C   0  0  2  0  0  0  0  0  0  0  0  0
    7.3001  -15.6490   25.4999 N   0  0  0  0  0  0  0  0  0  0  0  0
    9.1523  -15.3410   27.0260 C   0  0  0  0  0  0  0  0  0  0  0  0
   10.3063  -14.8066   27.1630 O   0  0  0  0  0  0  0  0  0  0  0  0
    8.9485  -16.5082   27.7240 O   0  0  0  0  0  0  0  0  0  0  0  0
  2  1  1  6
  3  4  1  0
  3  2  1  0
  5  2  1  0
  6  5  2  0
  8  9  1  0
  8  7  1  1
  9  5  1  0
 10  8  1  0
 11 10  2  0
 12 13  1  0
 13 14  1  0
 14 15  1  6
 14 16  1  0
 16 18  1  0
 16 17  1  1
 17 10  1  0
 18 20  1  0
 19 18  2  0
M  END
$$$$
