CAI.pdb
     RDKit          3D

 20 19  0  0  1  0  0  0  0  0999 V2000
    6.5211  -18.0671   18.8777 N   0  0  0  0  0  0  0  0  0  0  0  0
    7.4293  -17.3790   19.7394 C   0  0  1  0  0  0  0  0  0  0  0  0
    7.7110  -16.0161   19.1237 C   0  0  0  0  0  0  0  0  0  0  0  0
    8.7243  -14.9891   20.1996 S   0  0  0  0  0  0  0  0  0  0  0  0
    6.7746  -17.1413   21.0603 C   0  0  0  0  0  0  0  0  0  0  0  0
    5.6139  -16.6602   21.1625 O   0  0  0  0  0  0  0  0  0  0  0  0
    6.5916  -18.4834   24.3471 C   0  0  0  0  0  0  0  0  0  0  0  0
    6.8669  -17.2059   23.5873 C   0  0  2  0  0  0  0  0  0  0  0  0
    7.4370  -17.4499   22.2856 N   0  0  0  0  0  0  0  0  0  0  0  0
    7.7506  -16.2877   24.3435 C   0  0  0  0  0  0  0  0  0  0  0  0
    9.0133  -16.2887   24.1712 O   0  0  0  0  0  0  0  0  0  0  0  0
    5.5175  -11.7325   26.5093 C   0  0  0  0  0  0  0  0  0  0  0  0
    6.4259  -12.6986   25.7914 C   0  0  0  0  0  0  0  0  0  0  0  0
    7.3644  -13.3754   26.7434 C   0  0  2  0  0  0  0  0  0  0  0  0
    8.2384  -12.3538   27.4293 C   0  0  0  0  0  0  0  0  0  0  0  0
    8.1354  -14.4319   26.0344 C   0  0  2  0  0  0  0  0  0  0  0  0
    7.2658  -15.3555   25.2990 N   0  0  0  0  0  0  0  0  0  0  0  0
    9.1168  -15.1602   26.8451 C   0  0  0  0  0  0  0  0  0  0  0  0
    8.7339  -16.2166   27.4561 O   0  0  0  0  0  0  0  0  0  0  0  0
   10.4366  -14.8153   27.0190 O   0  0  0  0  0  0  0  0  0  0  0  0
  2  1  1  6
  3  4  1  0
  3  2  1  0
  5  2  1  0
  6  5  2  0
  8  9  1  0
  8  7  1  1
  9  5  1  0
 10  8  1  0
 11 10  2  0
 12 13  1  0
 13 14  1  0
 14 15  1  6
 14 16  1  0
 16 18  1  0
 16 17  1  1
 17 10  1  0
 18 20  1  0
 19 18  2  0
M  END
$$$$
