CAI.pdb
     RDKit          3D

 20 19  0  0  1  0  0  0  0  0999 V2000
    6.2731  -17.8271   18.9148 N   0  0  0  0  0  0  0  0  0  0  0  0
    7.3344  -17.3930   19.7668 C   0  0  1  0  0  0  0  0  0  0  0  0
    7.8940  -16.1009   19.1894 C   0  0  0  0  0  0  0  0  0  0  0  0
    9.2448  -15.4496   20.1845 S   0  0  0  0  0  0  0  0  0  0  0  0
    6.7851  -17.0727   21.1179 C   0  0  0  0  0  0  0  0  0  0  0  0
    5.7580  -16.3597   21.2784 O   0  0  0  0  0  0  0  0  0  0  0  0
    6.6758  -18.6721   24.3750 C   0  0  0  0  0  0  0  0  0  0  0  0
    6.8582  -17.3701   23.6288 C   0  0  2  0  0  0  0  0  0  0  0  0
    7.4019  -17.5629   22.3073 N   0  0  0  0  0  0  0  0  0  0  0  0
    7.7125  -16.4160   24.3744 C   0  0  0  0  0  0  0  0  0  0  0  0
    8.9641  -16.3300   24.1508 O   0  0  0  0  0  0  0  0  0  0  0  0
    5.5083  -11.8316   26.3354 C   0  0  0  0  0  0  0  0  0  0  0  0
    6.4354  -12.8481   25.7179 C   0  0  0  0  0  0  0  0  0  0  0  0
    7.2813  -13.5176   26.7577 C   0  0  2  0  0  0  0  0  0  0  0  0
    8.1440  -12.4997   27.4632 C   0  0  0  0  0  0  0  0  0  0  0  0
    8.0592  -14.6278   26.1444 C   0  0  2  0  0  0  0  0  0  0  0  0
    7.2099  -15.5425   25.3750 N   0  0  0  0  0  0  0  0  0  0  0  0
    8.9459  -15.3642   27.0510 C   0  0  0  0  0  0  0  0  0  0  0  0
   10.1349  -14.9258   27.2247 O   0  0  0  0  0  0  0  0  0  0  0  0
    8.6220  -16.5038   27.7494 O   0  0  0  0  0  0  0  0  0  0  0  0
  2  1  1  6
  3  4  1  0
  3  2  1  0
  5  2  1  0
  6  5  2  0
  8  9  1  0
  8  7  1  1
  9  5  1  0
 10  8  1  0
 11 10  2  0
 12 13  1  0
 13 14  1  0
 14 15  1  6
 14 16  1  0
 16 18  1  0
 16 17  1  1
 17 10  1  0
 18 20  1  0
 19 18  2  0
M  END
$$$$
