CAI.pdb
     RDKit          3D

 20 19  0  0  1  0  0  0  0  0999 V2000
    7.1734  -15.3882   18.2717 N   0  0  0  0  0  0  0  0  0  0  0  0
    8.0214  -14.7744   19.2438 C   0  0  1  0  0  0  0  0  0  0  0  0
    7.7410  -13.2787   19.2261 C   0  0  0  0  0  0  0  0  0  0  0  0
    8.8484  -12.4004   18.1120 S   0  0  0  0  0  0  0  0  0  0  0  0
    7.6605  -15.2764   20.6031 C   0  0  0  0  0  0  0  0  0  0  0  0
    6.4908  -15.1934   21.0657 O   0  0  0  0  0  0  0  0  0  0  0  0
    8.8325  -17.9120   22.8223 C   0  0  0  0  0  0  0  0  0  0  0  0
    8.3149  -16.4953   22.7207 C   0  0  2  0  0  0  0  0  0  0  0  0
    8.6318  -15.8814   21.4551 N   0  0  0  0  0  0  0  0  0  0  0  0
    8.8190  -15.6382   23.8194 C   0  0  0  0  0  0  0  0  0  0  0  0
    9.9570  -15.0691   23.7495 O   0  0  0  0  0  0  0  0  0  0  0  0
    5.8070  -12.0313   26.1212 C   0  0  0  0  0  0  0  0  0  0  0  0
    6.9469  -12.8689   25.5985 C   0  0  0  0  0  0  0  0  0  0  0  0
    7.5739  -13.6799   26.6913 C   0  0  2  0  0  0  0  0  0  0  0  0
    8.1065  -12.7732   27.7741 C   0  0  0  0  0  0  0  0  0  0  0  0
    8.6045  -14.5902   26.1231 C   0  0  2  0  0  0  0  0  0  0  0  0
    8.0854  -15.3915   25.0102 N   0  0  0  0  0  0  0  0  0  0  0  0
    9.3209  -15.4279   27.0903 C   0  0  0  0  0  0  0  0  0  0  0  0
   10.3132  -14.9181   27.7160 O   0  0  0  0  0  0  0  0  0  0  0  0
    9.0278  -16.7352   27.4004 O   0  0  0  0  0  0  0  0  0  0  0  0
  2  1  1  6
  3  4  1  0
  3  2  1  0
  5  2  1  0
  6  5  2  0
  8  9  1  0
  8  7  1  6
  9  5  1  0
 10  8  1  0
 11 10  2  0
 12 13  1  0
 13 14  1  0
 14 15  1  1
 14 16  1  0
 16 18  1  0
 16 17  1  6
 17 10  1  0
 18 20  1  0
 19 18  2  0
M  END
$$$$
