CAI.pdb
     RDKit          3D

 20 19  0  0  1  0  0  0  0  0999 V2000
    6.4518  -18.2605   18.9759 N   0  0  0  0  0  0  0  0  0  0  0  0
    7.4945  -17.7260   19.7931 C   0  0  1  0  0  0  0  0  0  0  0  0
    8.0128  -16.4643   19.1180 C   0  0  0  0  0  0  0  0  0  0  0  0
    9.2848  -15.6517   20.0980 S   0  0  0  0  0  0  0  0  0  0  0  0
    6.9293  -17.3207   21.1145 C   0  0  0  0  0  0  0  0  0  0  0  0
    5.9190  -16.5737   21.2171 O   0  0  0  0  0  0  0  0  0  0  0  0
    6.8395  -18.5843   24.5554 C   0  0  0  0  0  0  0  0  0  0  0  0
    7.0133  -17.3926   23.6416 C   0  0  2  0  0  0  0  0  0  0  0  0
    7.5106  -17.7632   22.3399 N   0  0  0  0  0  0  0  0  0  0  0  0
    7.9035  -16.3647   24.2304 C   0  0  0  0  0  0  0  0  0  0  0  0
    9.1447  -16.3184   23.9453 O   0  0  0  0  0  0  0  0  0  0  0  0
    6.0720  -11.7168   27.1835 C   0  0  0  0  0  0  0  0  0  0  0  0
    6.5678  -13.1028   26.8564 C   0  0  0  0  0  0  0  0  0  0  0  0
    7.7235  -13.0582   25.9037 C   0  0  2  0  0  0  0  0  0  0  0  0
    7.2854  -12.4840   24.5784 C   0  0  0  0  0  0  0  0  0  0  0  0
    8.3411  -14.4068   25.7881 C   0  0  2  0  0  0  0  0  0  0  0  0
    7.4488  -15.3728   25.1394 N   0  0  0  0  0  0  0  0  0  0  0  0
    8.9106  -14.9572   27.0223 C   0  0  0  0  0  0  0  0  0  0  0  0
    9.8642  -14.3188   27.5872 O   0  0  0  0  0  0  0  0  0  0  0  0
    8.5148  -16.1158   27.6484 O   0  0  0  0  0  0  0  0  0  0  0  0
  2  1  1  6
  3  4  1  0
  3  2  1  0
  5  2  1  0
  6  5  2  0
  8  9  1  0
  8  7  1  1
  9  5  1  0
 10  8  1  0
 11 10  2  0
 12 13  1  0
 13 14  1  0
 14 15  1  6
 14 16  1  0
 16 18  1  0
 16 17  1  1
 17 10  1  0
 18 20  1  0
 19 18  2  0
M  END
$$$$
