CAI.pdb
     RDKit          3D

 20 19  0  0  1  0  0  0  0  0999 V2000
    7.3038  -14.7957   18.2464 N   0  0  0  0  0  0  0  0  0  0  0  0
    8.2483  -14.3642   19.2273 C   0  0  1  0  0  0  0  0  0  0  0  0
    8.0815  -12.8616   19.4028 C   0  0  0  0  0  0  0  0  0  0  0  0
    8.8821  -11.9377   18.0821 S   0  0  0  0  0  0  0  0  0  0  0  0
    7.9262  -15.0014   20.5388 C   0  0  0  0  0  0  0  0  0  0  0  0
    6.7889  -14.9082   21.0744 O   0  0  0  0  0  0  0  0  0  0  0  0
    9.2693  -17.8080   22.5567 C   0  0  0  0  0  0  0  0  0  0  0  0
    8.6258  -16.4414   22.4972 C   0  0  2  0  0  0  0  0  0  0  0  0
    8.8999  -15.7557   21.2588 N   0  0  0  0  0  0  0  0  0  0  0  0
    9.0369  -15.5825   23.6327 C   0  0  0  0  0  0  0  0  0  0  0  0
   10.1318  -14.9310   23.6106 O   0  0  0  0  0  0  0  0  0  0  0  0
    5.6713  -12.6276   27.1188 C   0  0  0  0  0  0  0  0  0  0  0  0
    6.4875  -13.8257   26.7037 C   0  0  0  0  0  0  0  0  0  0  0  0
    7.8148  -13.4141   26.1432 C   0  0  2  0  0  0  0  0  0  0  0  0
    7.6211  -12.6060   24.8832 C   0  0  0  0  0  0  0  0  0  0  0  0
    8.6798  -14.6093   25.9514 C   0  0  2  0  0  0  0  0  0  0  0  0
    8.2561  -15.4242   24.8084 N   0  0  0  0  0  0  0  0  0  0  0  0
    8.8981  -15.4382   27.1413 C   0  0  0  0  0  0  0  0  0  0  0  0
    9.4720  -14.9066   28.1533 O   0  0  0  0  0  0  0  0  0  0  0  0
    8.5404  -16.7584   27.2832 O   0  0  0  0  0  0  0  0  0  0  0  0
  2  1  1  6
  3  4  1  0
  3  2  1  0
  5  2  1  0
  6  5  2  0
  8  9  1  0
  8  7  1  6
  9  5  1  0
 10  8  1  0
 11 10  2  0
 12 13  1  0
 13 14  1  0
 14 15  1  6
 14 16  1  0
 16 18  1  0
 16 17  1  6
 17 10  1  0
 18 20  1  0
 19 18  2  0
M  END
$$$$
