CAI.pdb
     RDKit          3D

 20 19  0  0  1  0  0  0  0  0999 V2000
    7.8002  -13.4767   18.2996 N   0  0  0  0  0  0  0  0  0  0  0  0
    8.7077  -14.4386   18.8398 C   0  0  1  0  0  0  0  0  0  0  0  0
   10.0712  -13.7735   18.9608 C   0  0  0  0  0  0  0  0  0  0  0  0
   10.0274  -12.3446   20.0540 S   0  0  0  0  0  0  0  0  0  0  0  0
    8.2724  -14.8099   20.2191 C   0  0  0  0  0  0  0  0  0  0  0  0
    7.4929  -14.0891   20.8989 O   0  0  0  0  0  0  0  0  0  0  0  0
    8.5798  -17.9565   22.3366 C   0  0  0  0  0  0  0  0  0  0  0  0
    8.1842  -16.5200   22.0808 C   0  0  2  0  0  0  0  0  0  0  0  0
    8.7216  -16.0116   20.8432 N   0  0  0  0  0  0  0  0  0  0  0  0
    8.5860  -15.6257   23.1920 C   0  0  0  0  0  0  0  0  0  0  0  0
    9.6826  -14.9774   23.1598 O   0  0  0  0  0  0  0  0  0  0  0  0
    6.6124  -11.5053   27.0978 C   0  0  0  0  0  0  0  0  0  0  0  0
    7.6307  -12.5790   26.8079 C   0  0  0  0  0  0  0  0  0  0  0  0
    7.1296  -13.5416   25.7748 C   0  0  2  0  0  0  0  0  0  0  0  0
    5.8334  -14.1671   26.2295 C   0  0  0  0  0  0  0  0  0  0  0  0
    8.1856  -14.5389   25.4525 C   0  0  2  0  0  0  0  0  0  0  0  0
    7.7939  -15.4278   24.3541 N   0  0  0  0  0  0  0  0  0  0  0  0
    8.7133  -15.3012   26.5887 C   0  0  0  0  0  0  0  0  0  0  0  0
    9.3570  -14.6697   27.4958 O   0  0  0  0  0  0  0  0  0  0  0  0
    8.5835  -16.6564   26.7827 O   0  0  0  0  0  0  0  0  0  0  0  0
  2  1  1  1
  3  4  1  0
  3  2  1  0
  5  2  1  0
  6  5  2  0
  8  9  1  0
  8  7  1  1
  9  5  1  0
 10  8  1  0
 11 10  2  0
 12 13  1  0
 13 14  1  0
 14 15  1  1
 14 16  1  0
 16 18  1  0
 16 17  1  6
 17 10  1  0
 18 20  1  0
 19 18  2  0
M  END
$$$$
