CAI.pdb
     RDKit          3D

 20 19  0  0  1  0  0  0  0  0999 V2000
    7.9031  -15.9894   17.6362 N   0  0  0  0  0  0  0  0  0  0  0  0
    8.3303  -15.1606   18.7185 C   0  0  1  0  0  0  0  0  0  0  0  0
    8.0242  -13.7170   18.3465 C   0  0  0  0  0  0  0  0  0  0  0  0
    8.3774  -12.5848   19.7002 S   0  0  0  0  0  0  0  0  0  0  0  0
    7.5283  -15.4836   19.9360 C   0  0  0  0  0  0  0  0  0  0  0  0
    6.2677  -15.4883   19.9332 O   0  0  0  0  0  0  0  0  0  0  0  0
    7.2085  -17.6428   22.5046 C   0  0  0  0  0  0  0  0  0  0  0  0
    7.4300  -16.1532   22.3733 C   0  0  2  0  0  0  0  0  0  0  0  0
    8.1552  -15.8065   21.1762 N   0  0  0  0  0  0  0  0  0  0  0  0
    8.1314  -15.5887   23.5502 C   0  0  0  0  0  0  0  0  0  0  0  0
    9.4033  -15.5908   23.6299 O   0  0  0  0  0  0  0  0  0  0  0  0
    5.7601  -11.6074   26.3816 C   0  0  0  0  0  0  0  0  0  0  0  0
    6.6957  -12.5454   25.6614 C   0  0  0  0  0  0  0  0  0  0  0  0
    7.3141  -13.5308   26.6058 C   0  0  2  0  0  0  0  0  0  0  0  0
    8.0815  -12.8076   27.6857 C   0  0  0  0  0  0  0  0  0  0  0  0
    8.1393  -14.5117   25.8505 C   0  0  2  0  0  0  0  0  0  0  0  0
    7.4516  -15.0140   24.6568 N   0  0  0  0  0  0  0  0  0  0  0  0
    8.7056  -15.6116   26.6380 C   0  0  0  0  0  0  0  0  0  0  0  0
    8.0303  -16.6928   26.7421 O   0  0  0  0  0  0  0  0  0  0  0  0
    9.9160  -15.5986   27.2906 O   0  0  0  0  0  0  0  0  0  0  0  0
  2  1  1  6
  3  4  1  0
  3  2  1  0
  5  2  1  0
  6  5  2  0
  8  9  1  0
  8  7  1  1
  9  5  1  0
 10  8  1  0
 11 10  2  0
 12 13  1  0
 13 14  1  0
 14 15  1  1
 14 16  1  0
 16 18  1  0
 16 17  1  6
 17 10  1  0
 18 20  1  0
 19 18  2  0
M  END
$$$$
