WRL.pdb
     RDKit          3D

 34 35  0  0  1  0  0  0  0  0999 V2000
   26.1937  -19.7188  -12.1102 N   0  0  0  0  0  0  0  0  0  0  0  0
   26.0821  -21.1532  -12.0371 C   0  0  1  0  0  0  0  0  0  0  0  0
   25.6175  -21.5913  -10.6997 C   0  0  0  0  0  0  0  0  0  0  0  0
   26.4143  -21.0761   -9.5754 C   0  0  0  0  0  0  0  0  0  0  0  0
   25.9511  -20.3717   -8.4589 C   0  0  0  0  0  0  0  0  0  0  0  0
   26.9750  -20.1285   -7.6578 N   0  0  0  0  0  0  0  0  0  0  0  0
   28.1238  -20.6289   -8.1683 C   0  0  0  0  0  0  0  0  0  0  0  0
   29.4284  -20.6327   -7.7481 C   0  0  0  0  0  0  0  0  0  0  0  0
   30.4201  -21.2245   -8.5124 C   0  0  0  0  0  0  0  0  0  0  0  0
   30.0709  -21.8055   -9.6914 C   0  0  0  0  0  0  0  0  0  0  0  0
   28.7794  -21.8096  -10.1178 C   0  0  0  0  0  0  0  0  0  0  0  0
   27.7569  -21.2228   -9.3747 C   0  0  0  0  0  0  0  0  0  0  0  0
   25.1946  -21.6023  -13.1428 C   0  0  0  0  0  0  0  0  0  0  0  0
   24.0791  -21.0386  -13.3479 O   0  0  0  0  0  0  0  0  0  0  0  0
   29.7689  -25.5379  -15.9002 N   0  0  0  0  0  0  0  0  0  0  0  0
   28.6759  -26.3453  -16.3492 C   0  0  0  0  0  0  0  0  0  0  0  0
   28.5926  -27.5850  -16.0375 N   0  0  0  0  0  0  0  0  0  0  0  0
   27.6443  -25.8094  -17.1601 N   0  0  0  0  0  0  0  0  0  0  0  0
   27.4923  -24.4019  -17.3398 C   0  0  0  0  0  0  0  0  0  0  0  0
   26.9337  -23.6784  -16.1464 C   0  0  0  0  0  0  0  0  0  0  0  0
   25.4202  -23.8689  -16.1691 C   0  0  0  0  0  0  0  0  0  0  0  0
   24.7382  -23.1035  -15.0965 C   0  0  2  0  0  0  0  0  0  0  0  0
   25.5696  -22.6849  -14.0016 N   0  0  0  0  0  0  0  0  0  0  0  0
   23.5128  -23.8282  -14.6605 C   0  0  0  0  0  0  0  0  0  0  0  0
   23.5920  -24.7627  -13.8548 O   0  0  0  0  0  0  0  0  0  0  0  0
   27.7780  -28.1429  -16.3699 C   0  0  0  0  0  0  0  0  0  0  0  0
   19.3927  -22.8603  -17.1857 C   0  0  1  0  0  0  0  0  0  0  0  0
   19.9689  -22.1205  -16.0199 C   0  0  0  0  0  0  0  0  0  0  0  0
   19.1149  -20.8673  -15.7933 C   0  0  0  0  0  0  0  0  0  0  0  0
   19.9911  -22.9050  -14.7528 C   0  0  1  0  0  0  0  0  0  0  0  0
   21.0053  -23.9923  -14.6728 N   0  0  0  0  0  0  0  0  0  0  0  0
   22.2554  -23.4394  -15.1733 C   0  0  0  0  0  0  0  0  0  0  0  0
   20.6355  -25.1503  -15.5008 O   0  0  0  0  0  0  0  0  0  0  0  0
   19.6270  -25.8414  -15.1632 O   0  0  0  0  0  0  0  0  0  0  0  0
  2  1  1  1
  2  3  1  0
  4  5  2  0
  4  3  1  0
  6  5  1  0
  7 12  2  0
  7  6  1  0
  8  7  1  0
  9 10  1  0
  9  8  2  0
 10 11  2  0
 11 12  1  0
 12  4  1  0
 13 23  1  0
 13  2  1  0
 14 13  2  0
 16 15  1  0
 17 16  2  0
 18 16  1  0
 19 20  1  0
 19 18  1  0
 20 21  1  0
 22 21  1  6
 22 24  1  0
 22 23  1  0
 24 31  1  0
 25 24  2  0
 27 26  1  6
 27 28  1  0
 29 27  1  0
 30 32  1  0
 30 29  1  1
 31 30  1  0
 32 34  1  0
 33 32  2  0
M  END
$$$$
