WRL.pdb
     RDKit          3D

 34 35  0  0  1  0  0  0  0  0999 V2000
   27.3652  -20.8647  -15.5367 N   0  0  0  0  0  0  0  0  0  0  0  0
   26.5803  -21.2114  -14.3795 C   0  0  1  0  0  0  0  0  0  0  0  0
   26.5686  -20.1120  -13.3857 C   0  0  0  0  0  0  0  0  0  0  0  0
   27.8960  -19.7286  -12.8807 C   0  0  0  0  0  0  0  0  0  0  0  0
   28.6501  -18.6068  -13.2415 C   0  0  0  0  0  0  0  0  0  0  0  0
   29.7645  -18.5995  -12.5290 N   0  0  0  0  0  0  0  0  0  0  0  0
   29.8177  -19.6637  -11.6952 C   0  0  0  0  0  0  0  0  0  0  0  0
   30.7382  -20.1124  -10.7843 C   0  0  0  0  0  0  0  0  0  0  0  0
   30.5214  -21.2784  -10.0693 C   0  0  0  0  0  0  0  0  0  0  0  0
   29.3712  -21.9701  -10.2893 C   0  0  0  0  0  0  0  0  0  0  0  0
   28.4497  -21.5337  -11.1893 C   0  0  0  0  0  0  0  0  0  0  0  0
   28.6359  -20.3657  -11.9262 C   0  0  0  0  0  0  0  0  0  0  0  0
   25.2212  -21.5968  -14.8444 C   0  0  0  0  0  0  0  0  0  0  0  0
   24.5958  -20.8814  -15.6819 O   0  0  0  0  0  0  0  0  0  0  0  0
   26.8516  -27.4228  -16.0373 N   0  0  0  0  0  0  0  0  0  0  0  0
   25.9710  -27.1719  -17.1372 C   0  0  0  0  0  0  0  0  0  0  0  0
   25.4224  -28.1328  -17.7827 N   0  0  0  0  0  0  0  0  0  0  0  0
   25.6733  -25.8524  -17.5608 N   0  0  0  0  0  0  0  0  0  0  0  0
   25.3599  -24.8218  -16.6247 C   0  0  0  0  0  0  0  0  0  0  0  0
   24.4181  -25.2399  -15.5303 C   0  0  0  0  0  0  0  0  0  0  0  0
   23.1755  -24.3618  -15.6424 C   0  0  0  0  0  0  0  0  0  0  0  0
   23.2584  -23.1534  -14.7854 C   0  0  2  0  0  0  0  0  0  0  0  0
   24.5785  -22.7798  -14.3571 N   0  0  0  0  0  0  0  0  0  0  0  0
   22.2855  -23.2626  -13.6637 C   0  0  0  0  0  0  0  0  0  0  0  0
   21.6212  -24.2940  -13.5098 O   0  0  0  0  0  0  0  0  0  0  0  0
   24.8260  -27.9193  -18.6098 C   0  0  0  0  0  0  0  0  0  0  0  0
   20.0224  -18.2763  -12.5517 C   0  0  2  0  0  0  0  0  0  0  0  0
   20.5000  -18.9600  -13.7938 C   0  0  0  0  0  0  0  0  0  0  0  0
   21.1420  -17.8978  -14.6944 C   0  0  0  0  0  0  0  0  0  0  0  0
   21.5048  -20.0331  -13.5491 C   0  0  1  0  0  0  0  0  0  0  0  0
   21.0042  -21.2553  -12.8613 N   0  0  0  0  0  0  0  0  0  0  0  0
   22.1265  -22.1780  -12.7728 C   0  0  0  0  0  0  0  0  0  0  0  0
   19.9181  -21.9025  -13.6130 O   0  0  0  0  0  0  0  0  0  0  0  0
   20.0318  -22.0129  -14.8713 O   0  0  0  0  0  0  0  0  0  0  0  0
  2  1  1  6
  2  3  1  0
  4  5  2  0
  4  3  1  0
  6  5  1  0
  7 12  2  0
  7  6  1  0
  8  7  1  0
  9 10  1  0
  9  8  2  0
 10 11  2  0
 11 12  1  0
 12  4  1  0
 13 23  1  0
 13  2  1  0
 14 13  2  0
 16 15  1  0
 17 16  2  0
 18 16  1  0
 19 20  1  0
 19 18  1  0
 20 21  1  0
 22 21  1  1
 22 24  1  0
 22 23  1  0
 24 31  1  0
 25 24  2  0
 27 26  1  6
 27 28  1  0
 29 27  1  0
 30 32  1  0
 30 29  1  1
 31 30  1  0
 32 34  1  0
 33 32  2  0
M  END
$$$$
