WRL.pdb
     RDKit          3D

 34 35  0  0  1  0  0  0  0  0999 V2000
   26.2461  -23.1039  -12.0119 N   0  0  0  0  0  0  0  0  0  0  0  0
   25.6701  -21.8893  -11.4939 C   0  0  1  0  0  0  0  0  0  0  0  0
   26.6456  -20.7739  -11.5228 C   0  0  0  0  0  0  0  0  0  0  0  0
   27.7397  -20.8915  -10.5464 C   0  0  0  0  0  0  0  0  0  0  0  0
   29.0558  -21.2981  -10.7909 C   0  0  0  0  0  0  0  0  0  0  0  0
   29.7378  -21.2250   -9.6600 N   0  0  0  0  0  0  0  0  0  0  0  0
   28.9555  -20.7898   -8.6454 C   0  0  0  0  0  0  0  0  0  0  0  0
   29.1693  -20.5613   -7.3111 C   0  0  0  0  0  0  0  0  0  0  0  0
   28.1433  -20.1214   -6.4915 C   0  0  0  0  0  0  0  0  0  0  0  0
   26.9158  -19.9182   -7.0407 C   0  0  0  0  0  0  0  0  0  0  0  0
   26.6922  -20.1398   -8.3638 C   0  0  0  0  0  0  0  0  0  0  0  0
   27.7010  -20.5833   -9.2168 C   0  0  0  0  0  0  0  0  0  0  0  0
   24.4297  -21.6042  -12.2632 C   0  0  0  0  0  0  0  0  0  0  0  0
   24.3216  -21.9606  -13.4737 O   0  0  0  0  0  0  0  0  0  0  0  0
   17.6232  -24.0537  -11.5696 N   0  0  0  0  0  0  0  0  0  0  0  0
   18.3232  -23.7554  -10.3575 C   0  0  0  0  0  0  0  0  0  0  0  0
   18.6064  -24.6730   -9.5097 N   0  0  0  0  0  0  0  0  0  0  0  0
   18.7276  -22.4339  -10.0424 N   0  0  0  0  0  0  0  0  0  0  0  0
   18.4912  -21.3484  -10.9382 C   0  0  0  0  0  0  0  0  0  0  0  0
   19.5389  -21.1803  -12.0030 C   0  0  0  0  0  0  0  0  0  0  0  0
   20.8825  -21.0296  -11.2962 C   0  0  0  0  0  0  0  0  0  0  0  0
   22.0151  -20.9345  -12.2501 C   0  0  2  0  0  0  0  0  0  0  0  0
   23.3269  -20.9156  -11.6633 N   0  0  0  0  0  0  0  0  0  0  0  0
   21.7806  -19.8137  -13.2017 C   0  0  0  0  0  0  0  0  0  0  0  0
   21.8768  -18.6407  -12.8228 O   0  0  0  0  0  0  0  0  0  0  0  0
   19.0486  -24.4136   -8.6029 C   0  0  0  0  0  0  0  0  0  0  0  0
   23.0130  -20.3663  -18.6132 C   0  0  1  0  0  0  0  0  0  0  0  0
   22.8093  -19.7158  -17.2814 C   0  0  0  0  0  0  0  0  0  0  0  0
   23.3744  -18.2927  -17.3650 C   0  0  0  0  0  0  0  0  0  0  0  0
   21.3825  -19.6269  -16.8601 C   0  0  2  0  0  0  0  0  0  0  0  0
   21.1326  -19.0551  -15.5081 N   0  0  0  0  0  0  0  0  0  0  0  0
   21.4481  -20.0995  -14.5445 C   0  0  0  0  0  0  0  0  0  0  0  0
   19.7278  -18.6572  -15.3311 O   0  0  0  0  0  0  0  0  0  0  0  0
   18.8970  -19.5249  -14.9244 O   0  0  0  0  0  0  0  0  0  0  0  0
  2  1  1  6
  2  3  1  0
  4  5  2  0
  4  3  1  0
  6  5  1  0
  7 12  2  0
  7  6  1  0
  8  7  1  0
  9 10  1  0
  9  8  2  0
 10 11  2  0
 11 12  1  0
 12  4  1  0
 13 23  1  0
 13  2  1  0
 14 13  2  0
 16 15  1  0
 17 16  2  0
 18 16  1  0
 19 20  1  0
 19 18  1  0
 20 21  1  0
 22 21  1  1
 22 24  1  0
 22 23  1  0
 24 31  1  0
 25 24  2  0
 27 26  1  1
 27 28  1  0
 29 27  1  0
 30 32  1  0
 30 29  1  1
 31 30  1  0
 32 34  1  0
 33 32  2  0
M  END
$$$$
