WRL.pdb
     RDKit          3D

 34 35  0  0  1  0  0  0  0  0999 V2000
   25.6120  -19.7295   -9.2802 N   0  0  0  0  0  0  0  0  0  0  0  0
   26.4148  -20.1957  -10.3818 C   0  0  1  0  0  0  0  0  0  0  0  0
   27.1023  -21.4659  -10.0494 C   0  0  0  0  0  0  0  0  0  0  0  0
   28.1228  -21.3526   -8.9959 C   0  0  0  0  0  0  0  0  0  0  0  0
   27.9565  -20.8412   -7.7043 C   0  0  0  0  0  0  0  0  0  0  0  0
   29.1019  -20.9571   -7.0531 N   0  0  0  0  0  0  0  0  0  0  0  0
   30.0521  -21.5218   -7.8334 C   0  0  0  0  0  0  0  0  0  0  0  0
   31.3719  -21.8395   -7.6444 C   0  0  0  0  0  0  0  0  0  0  0  0
   32.1189  -22.4099   -8.6616 C   0  0  0  0  0  0  0  0  0  0  0  0
   31.5129  -22.6507   -9.8550 C   0  0  0  0  0  0  0  0  0  0  0  0
   30.2035  -22.3414  -10.0537 C   0  0  0  0  0  0  0  0  0  0  0  0
   29.4229  -21.7660   -9.0529 C   0  0  0  0  0  0  0  0  0  0  0  0
   25.5378  -20.2988  -11.5785 C   0  0  0  0  0  0  0  0  0  0  0  0
   24.2770  -20.2659  -11.4627 O   0  0  0  0  0  0  0  0  0  0  0  0
   29.3368  -18.3975  -15.8205 N   0  0  0  0  0  0  0  0  0  0  0  0
   29.0495  -17.3955  -16.8012 C   0  0  0  0  0  0  0  0  0  0  0  0
   29.9885  -16.7765  -17.4145 N   0  0  0  0  0  0  0  0  0  0  0  0
   27.7168  -17.0432  -17.1309 N   0  0  0  0  0  0  0  0  0  0  0  0
   26.6022  -17.6474  -16.4757 C   0  0  0  0  0  0  0  0  0  0  0  0
   26.9457  -18.3759  -15.2065 C   0  0  0  0  0  0  0  0  0  0  0  0
   26.2405  -19.7278  -15.2555 C   0  0  0  0  0  0  0  0  0  0  0  0
   25.3975  -19.9690  -14.0585 C   0  0  2  0  0  0  0  0  0  0  0  0
   26.0894  -20.4439  -12.8918 N   0  0  0  0  0  0  0  0  0  0  0  0
   24.2243  -20.8078  -14.4282 C   0  0  0  0  0  0  0  0  0  0  0  0
   24.3780  -21.9921  -14.7487 O   0  0  0  0  0  0  0  0  0  0  0  0
   29.7479  -16.0982  -18.1678 C   0  0  0  0  0  0  0  0  0  0  0  0
   19.3399  -19.7834  -12.0152 C   0  0  1  0  0  0  0  0  0  0  0  0
   20.5211  -20.4619  -12.6341 C   0  0  0  0  0  0  0  0  0  0  0  0
   20.4412  -21.9523  -12.2824 C   0  0  0  0  0  0  0  0  0  0  0  0
   20.5862  -20.3357  -14.1177 C   0  0  2  0  0  0  0  0  0  0  0  0
   21.7436  -20.9970  -14.7815 N   0  0  0  0  0  0  0  0  0  0  0  0
   22.9305  -20.2412  -14.4091 C   0  0  0  0  0  0  0  0  0  0  0  0
   21.6162  -20.9857  -16.2468 O   0  0  0  0  0  0  0  0  0  0  0  0
   20.6994  -21.6793  -16.7824 O   0  0  0  0  0  0  0  0  0  0  0  0
  2  1  1  1
  2  3  1  0
  4  5  2  0
  4  3  1  0
  6  5  1  0
  7 12  2  0
  7  6  1  0
  8  7  1  0
  9 10  1  0
  9  8  2  0
 10 11  2  0
 11 12  1  0
 12  4  1  0
 13 23  1  0
 13  2  1  0
 14 13  2  0
 16 15  1  0
 17 16  2  0
 18 16  1  0
 19 20  1  0
 19 18  1  0
 20 21  1  0
 22 21  1  6
 22 24  1  0
 22 23  1  0
 24 31  1  0
 25 24  2  0
 27 26  1  1
 27 28  1  0
 29 27  1  0
 30 32  1  0
 30 29  1  1
 31 30  1  0
 32 34  1  0
 33 32  2  0
M  END
$$$$
