WRL.pdb
     RDKit          3D

 34 35  0  0  1  0  0  0  0  0999 V2000
   28.3144  -20.1566   -9.9585 N   0  0  0  0  0  0  0  0  0  0  0  0
   26.9771  -20.5695   -9.6173 C   0  0  1  0  0  0  0  0  0  0  0  0
   26.3659  -19.6541   -8.6248 C   0  0  0  0  0  0  0  0  0  0  0  0
   27.2187  -19.3504   -7.4652 C   0  0  0  0  0  0  0  0  0  0  0  0
   27.7094  -18.0992   -7.0767 C   0  0  0  0  0  0  0  0  0  0  0  0
   28.3979  -18.2443   -5.9567 N   0  0  0  0  0  0  0  0  0  0  0  0
   28.4085  -19.5360   -5.5541 C   0  0  0  0  0  0  0  0  0  0  0  0
   28.9754  -20.1971   -4.4958 C   0  0  0  0  0  0  0  0  0  0  0  0
   28.8256  -21.5661   -4.3496 C   0  0  0  0  0  0  0  0  0  0  0  0
   28.1002  -22.2425   -5.2801 C   0  0  0  0  0  0  0  0  0  0  0  0
   27.5315  -21.5971   -6.3334 C   0  0  0  0  0  0  0  0  0  0  0  0
   27.6627  -20.2212   -6.5118 C   0  0  0  0  0  0  0  0  0  0  0  0
   26.1937  -20.6771  -10.8768 C   0  0  0  0  0  0  0  0  0  0  0  0
   26.0255  -19.6679  -11.6236 O   0  0  0  0  0  0  0  0  0  0  0  0
   27.0842  -24.8433  -15.5557 N   0  0  0  0  0  0  0  0  0  0  0  0
   25.7900  -25.3548  -15.8898 C   0  0  0  0  0  0  0  0  0  0  0  0
   25.6078  -26.6006  -16.1261 N   0  0  0  0  0  0  0  0  0  0  0  0
   24.6587  -24.5055  -15.9778 N   0  0  0  0  0  0  0  0  0  0  0  0
   24.5820  -23.2870  -15.2388 C   0  0  0  0  0  0  0  0  0  0  0  0
   23.5411  -23.2810  -14.1543 C   0  0  0  0  0  0  0  0  0  0  0  0
   24.2780  -23.3301  -12.8194 C   0  0  0  0  0  0  0  0  0  0  0  0
   24.5883  -21.9772  -12.2952 C   0  0  2  0  0  0  0  0  0  0  0  0
   25.6029  -21.9178  -11.2791 N   0  0  0  0  0  0  0  0  0  0  0  0
   23.3284  -21.2844  -11.9090 C   0  0  0  0  0  0  0  0  0  0  0  0
   23.2835  -20.5918  -10.8857 O   0  0  0  0  0  0  0  0  0  0  0  0
   24.6721  -26.9298  -16.4448 C   0  0  0  0  0  0  0  0  0  0  0  0
   20.0371  -18.1504  -14.7612 C   0  0  2  0  0  0  0  0  0  0  0  0
   21.0912  -17.9765  -13.7139 C   0  0  0  0  0  0  0  0  0  0  0  0
   20.3901  -17.6005  -12.4031 C   0  0  0  0  0  0  0  0  0  0  0  0
   21.9130  -19.1957  -13.4702 C   0  0  2  0  0  0  0  0  0  0  0  0
   21.2000  -20.3578  -12.8714 N   0  0  0  0  0  0  0  0  0  0  0  0
   22.1815  -21.4223  -12.7219 C   0  0  0  0  0  0  0  0  0  0  0  0
   20.1099  -20.8374  -13.7345 O   0  0  0  0  0  0  0  0  0  0  0  0
   20.4056  -21.4932  -14.7791 O   0  0  0  0  0  0  0  0  0  0  0  0
  2  1  1  6
  2  3  1  0
  4  5  2  0
  4  3  1  0
  6  5  1  0
  7 12  2  0
  7  6  1  0
  8  7  1  0
  9 10  1  0
  9  8  2  0
 10 11  2  0
 11 12  1  0
 12  4  1  0
 13 23  1  0
 13  2  1  0
 14 13  2  0
 16 15  1  0
 17 16  2  0
 18 16  1  0
 19 20  1  0
 19 18  1  0
 20 21  1  0
 22 21  1  1
 22 24  1  0
 22 23  1  0
 24 31  1  0
 25 24  2  0
 27 26  1  6
 27 28  1  0
 29 27  1  0
 30 32  1  0
 30 29  1  1
 31 30  1  0
 32 34  1  0
 33 32  2  0
M  END
$$$$
