WRL.pdb
     RDKit          3D

 34 35  0  0  1  0  0  0  0  0999 V2000
   28.3758  -21.0218  -10.6091 N   0  0  0  0  0  0  0  0  0  0  0  0
   27.0656  -20.9796  -10.0115 C   0  0  1  0  0  0  0  0  0  0  0  0
   26.9089  -19.7936   -9.1367 C   0  0  0  0  0  0  0  0  0  0  0  0
   27.9261  -19.6726   -8.0809 C   0  0  0  0  0  0  0  0  0  0  0  0
   29.3064  -19.5151   -8.2457 C   0  0  0  0  0  0  0  0  0  0  0  0
   29.8643  -19.3995   -7.0521 N   0  0  0  0  0  0  0  0  0  0  0  0
   28.9361  -19.4720   -6.0703 C   0  0  0  0  0  0  0  0  0  0  0  0
   28.9942  -19.4235   -4.7019 C   0  0  0  0  0  0  0  0  0  0  0  0
   27.8467  -19.5467   -3.9364 C   0  0  0  0  0  0  0  0  0  0  0  0
   26.6569  -19.7152   -4.5732 C   0  0  0  0  0  0  0  0  0  0  0  0
   26.5866  -19.7631   -5.9306 C   0  0  0  0  0  0  0  0  0  0  0  0
   27.7209  -19.6435   -6.7312 C   0  0  0  0  0  0  0  0  0  0  0  0
   26.0594  -21.0393  -11.1050 C   0  0  0  0  0  0  0  0  0  0  0  0
   25.7684  -20.0046  -11.7751 O   0  0  0  0  0  0  0  0  0  0  0  0
   23.9800  -23.9551  -17.6324 N   0  0  0  0  0  0  0  0  0  0  0  0
   24.8639  -24.8432  -16.9409 C   0  0  0  0  0  0  0  0  0  0  0  0
   25.9904  -25.1865  -17.4449 N   0  0  0  0  0  0  0  0  0  0  0  0
   24.5286  -25.3829  -15.6739 N   0  0  0  0  0  0  0  0  0  0  0  0
   23.3495  -24.9778  -14.9793 C   0  0  0  0  0  0  0  0  0  0  0  0
   23.4106  -23.5897  -14.4057 C   0  0  0  0  0  0  0  0  0  0  0  0
   24.3557  -23.6356  -13.2090 C   0  0  0  0  0  0  0  0  0  0  0  0
   24.4278  -22.3365  -12.4957 C   0  0  2  0  0  0  0  0  0  0  0  0
   25.3873  -22.2615  -11.4284 N   0  0  0  0  0  0  0  0  0  0  0  0
   23.0613  -21.9077  -12.0890 C   0  0  0  0  0  0  0  0  0  0  0  0
   22.7680  -21.8051  -10.8923 O   0  0  0  0  0  0  0  0  0  0  0  0
   26.5539  -25.9296  -16.9807 C   0  0  0  0  0  0  0  0  0  0  0  0
   21.0722  -17.1302  -13.9790 C   0  0  2  0  0  0  0  0  0  0  0  0
   21.2804  -17.9771  -12.7633 C   0  0  0  0  0  0  0  0  0  0  0  0
   19.9002  -18.3149  -12.1870 C   0  0  0  0  0  0  0  0  0  0  0  0
   22.0003  -19.2549  -13.0287 C   0  0  2  0  0  0  0  0  0  0  0  0
   21.1783  -20.4950  -12.9685 N   0  0  0  0  0  0  0  0  0  0  0  0
   22.0994  -21.6164  -13.0816 C   0  0  0  0  0  0  0  0  0  0  0  0
   20.2093  -20.5658  -14.0727 O   0  0  0  0  0  0  0  0  0  0  0  0
   20.6399  -20.7802  -15.2462 O   0  0  0  0  0  0  0  0  0  0  0  0
  2  1  1  6
  2  3  1  0
  4  5  2  0
  4  3  1  0
  6  5  1  0
  7 12  2  0
  7  6  1  0
  8  7  1  0
  9 10  1  0
  9  8  2  0
 10 11  2  0
 11 12  1  0
 12  4  1  0
 13 23  1  0
 13  2  1  0
 14 13  2  0
 16 15  1  0
 17 16  2  0
 18 16  1  0
 19 20  1  0
 19 18  1  0
 20 21  1  0
 22 21  1  1
 22 24  1  0
 22 23  1  0
 24 31  1  0
 25 24  2  0
 27 26  1  1
 27 28  1  0
 29 27  1  0
 30 32  1  0
 30 29  1  1
 31 30  1  0
 32 34  1  0
 33 32  2  0
M  END
$$$$
