WRL.pdb
     RDKit          3D

 34 35  0  0  1  0  0  0  0  0999 V2000
   26.3625  -18.5880   -9.6438 N   0  0  0  0  0  0  0  0  0  0  0  0
   26.7291  -19.9658   -9.8505 C   0  0  1  0  0  0  0  0  0  0  0  0
   26.2809  -20.8186   -8.7242 C   0  0  0  0  0  0  0  0  0  0  0  0
   26.7953  -20.4135   -7.4068 C   0  0  0  0  0  0  0  0  0  0  0  0
   26.0574  -19.9437   -6.3150 C   0  0  0  0  0  0  0  0  0  0  0  0
   26.8848  -19.7324   -5.3050 N   0  0  0  0  0  0  0  0  0  0  0  0
   28.1592  -20.0314   -5.6472 C   0  0  0  0  0  0  0  0  0  0  0  0
   29.3588  -19.9752   -4.9868 C   0  0  0  0  0  0  0  0  0  0  0  0
   30.5363  -20.3390   -5.6185 C   0  0  0  0  0  0  0  0  0  0  0  0
   30.4767  -20.7566   -6.9115 C   0  0  0  0  0  0  0  0  0  0  0  0
   29.2920  -20.8184   -7.5765 C   0  0  0  0  0  0  0  0  0  0  0  0
   28.0889  -20.4591   -6.9720 C   0  0  0  0  0  0  0  0  0  0  0  0
   26.1821  -20.3949  -11.1652 C   0  0  0  0  0  0  0  0  0  0  0  0
   25.0079  -20.0732  -11.5147 O   0  0  0  0  0  0  0  0  0  0  0  0
   25.8580  -24.2723  -17.9470 N   0  0  0  0  0  0  0  0  0  0  0  0
   26.8296  -25.0544  -17.2452 C   0  0  0  0  0  0  0  0  0  0  0  0
   26.7595  -26.3332  -17.2168 N   0  0  0  0  0  0  0  0  0  0  0  0
   27.9052  -24.4480  -16.5494 N   0  0  0  0  0  0  0  0  0  0  0  0
   28.0473  -23.0293  -16.4868 C   0  0  0  0  0  0  0  0  0  0  0  0
   26.9713  -22.3296  -15.7043 C   0  0  0  0  0  0  0  0  0  0  0  0
   27.4620  -22.2126  -14.2645 C   0  0  0  0  0  0  0  0  0  0  0  0
   26.4999  -21.4893  -13.3968 C   0  0  2  0  0  0  0  0  0  0  0  0
   26.9604  -21.1863  -12.0696 N   0  0  0  0  0  0  0  0  0  0  0  0
   25.1820  -22.1817  -13.4180 C   0  0  0  0  0  0  0  0  0  0  0  0
   25.0498  -23.2916  -12.8895 O   0  0  0  0  0  0  0  0  0  0  0  0
   27.4218  -26.8691  -16.6173 C   0  0  0  0  0  0  0  0  0  0  0  0
   20.1617  -22.5595  -12.1258 C   0  0  2  0  0  0  0  0  0  0  0  0
   20.4253  -21.5687  -13.2154 C   0  0  0  0  0  0  0  0  0  0  0  0
   19.6038  -20.3102  -12.9114 C   0  0  0  0  0  0  0  0  0  0  0  0
   21.8563  -21.1720  -13.3432 C   0  0  1  0  0  0  0  0  0  0  0  0
   22.7466  -22.1440  -14.0359 N   0  0  0  0  0  0  0  0  0  0  0  0
   24.0799  -21.5603  -14.0461 C   0  0  0  0  0  0  0  0  0  0  0  0
   22.3242  -22.3827  -15.4244 O   0  0  0  0  0  0  0  0  0  0  0  0
   21.6221  -23.4079  -15.6783 O   0  0  0  0  0  0  0  0  0  0  0  0
  2  1  1  1
  2  3  1  0
  4  5  2  0
  4  3  1  0
  6  5  1  0
  7 12  2  0
  7  6  1  0
  8  7  1  0
  9 10  1  0
  9  8  2  0
 10 11  2  0
 11 12  1  0
 12  4  1  0
 13 23  1  0
 13  2  1  0
 14 13  2  0
 16 15  1  0
 17 16  2  0
 18 16  1  0
 19 20  1  0
 19 18  1  0
 20 21  1  0
 22 21  1  1
 22 24  1  0
 22 23  1  0
 24 31  1  0
 25 24  2  0
 27 26  1  6
 27 28  1  0
 29 27  1  0
 30 32  1  0
 30 29  1  1
 31 30  1  0
 32 34  1  0
 33 32  2  0
M  END
$$$$
