LGH.pdb
     RDKit          3D

 23 23  0  0  1  0  0  0  0  0999 V2000
    5.5981  -12.2797   25.5705 C   0  0  0  0  0  0  0  0  0  0  0  0
    6.5643  -13.2073   26.3551 C   0  0  2  0  0  0  0  0  0  0  0  0
    7.0151  -12.4647   27.5964 C   0  0  0  0  0  0  0  0  0  0  0  0
    7.7156  -13.5358   25.4904 C   0  0  0  0  0  0  0  0  0  0  0  0
    7.4585  -14.5006   24.3809 C   0  0  2  0  0  0  0  0  0  0  0  0
    6.6073  -15.5892   24.7332 N   0  0  0  0  0  0  0  0  0  0  0  0
    8.7848  -15.0120   23.8799 C   0  0  0  0  0  0  0  0  0  0  0  0
    9.6694  -14.1182   23.6752 O   0  0  0  0  0  0  0  0  0  0  0  0
    9.0419  -16.3648   23.6527 N   0  0  0  0  0  0  0  0  0  0  0  0
   10.3411  -16.7867   23.0993 C   0  0  0  0  0  0  0  0  0  0  0  0
   11.2140  -17.2244   24.2326 C   0  0  0  0  0  0  0  0  0  0  0  0
   12.4441  -17.4488   24.0954 O   0  0  0  0  0  0  0  0  0  0  0  0
   10.6102  -17.3868   25.5049 N   0  0  0  0  0  0  0  0  0  0  0  0
   11.4728  -17.8306   26.6225 C   0  0  1  0  0  0  0  0  0  0  0  0
   10.7978  -17.3148   27.8544 C   0  0  0  0  0  0  0  0  0  0  0  0
   10.7055  -15.8650   28.0011 C   0  0  0  0  0  0  0  0  0  0  0  0
   11.0621  -14.7902   27.2524 C   0  0  0  0  0  0  0  0  0  0  0  0
   10.6651  -13.6564   27.8841 N   0  0  0  0  0  0  0  0  0  0  0  0
   10.0624  -14.0312   29.0219 C   0  0  0  0  0  0  0  0  0  0  0  0
   10.0744  -15.3456   29.1130 N   0  0  0  0  0  0  0  0  0  0  0  0
   11.3990  -19.3251   26.6531 C   0  0  0  0  0  0  0  0  0  0  0  0
   12.1393  -20.0713   27.5663 O   0  0  0  0  0  0  0  0  0  0  0  0
   10.6822  -19.9521   25.8735 O   0  0  0  0  0  0  0  0  0  0  0  0
  2  1  1  6
  2  3  1  0
  4  2  1  0
  5  7  1  0
  5  4  1  0
  5  6  1  1
  7  8  2  0
  9 10  1  0
  9  7  1  0
 10 11  1  0
 11 13  1  0
 11 12  2  0
 13 14  1  0
 14 15  1  1
 14 21  1  0
 16 17  2  0
 16 15  1  0
 18 17  1  0
 19 20  2  0
 19 18  1  0
 20 16  1  0
 21 22  1  0
 23 21  2  0
M  END
$$$$
