LGH.pdb
     RDKit          3D

 23 23  0  0  1  0  0  0  0  0999 V2000
    9.7207  -13.5710   19.9347 C   0  0  0  0  0  0  0  0  0  0  0  0
    8.1784  -13.5773   19.7595 C   0  0  2  0  0  0  0  0  0  0  0  0
    7.7146  -12.1373   19.6780 C   0  0  0  0  0  0  0  0  0  0  0  0
    7.5707  -14.2619   20.9185 C   0  0  0  0  0  0  0  0  0  0  0  0
    7.9506  -15.6912   21.1193 C   0  0  2  0  0  0  0  0  0  0  0  0
    7.2082  -16.3600   22.1368 N   0  0  0  0  0  0  0  0  0  0  0  0
    9.4262  -15.7523   21.4199 C   0  0  0  0  0  0  0  0  0  0  0  0
   10.1925  -15.5844   20.4160 O   0  0  0  0  0  0  0  0  0  0  0  0
    9.9330  -15.9745   22.7012 N   0  0  0  0  0  0  0  0  0  0  0  0
   11.3818  -16.1575   22.9006 C   0  0  0  0  0  0  0  0  0  0  0  0
   11.6335  -16.3497   24.3627 C   0  0  0  0  0  0  0  0  0  0  0  0
   12.7591  -16.6733   24.8215 O   0  0  0  0  0  0  0  0  0  0  0  0
   10.5455  -16.1541   25.2501 N   0  0  0  0  0  0  0  0  0  0  0  0
   10.1308  -17.2993   26.0907 C   0  0  1  0  0  0  0  0  0  0  0  0
    8.9656  -17.9007   25.3696 C   0  0  0  0  0  0  0  0  0  0  0  0
    7.8001  -17.0452   25.1656 C   0  0  0  0  0  0  0  0  0  0  0  0
    7.4455  -15.7866   25.5302 C   0  0  0  0  0  0  0  0  0  0  0  0
    6.2352  -15.4914   24.9916 N   0  0  0  0  0  0  0  0  0  0  0  0
    5.8432  -16.5672   24.2934 C   0  0  0  0  0  0  0  0  0  0  0  0
    6.7619  -17.5075   24.3826 N   0  0  0  0  0  0  0  0  0  0  0  0
   11.2530  -18.2888   26.0503 C   0  0  0  0  0  0  0  0  0  0  0  0
   11.5654  -19.0797   27.1528 O   0  0  0  0  0  0  0  0  0  0  0  0
   11.9426  -18.4419   25.0424 O   0  0  0  0  0  0  0  0  0  0  0  0
  2  1  1  1
  2  3  1  0
  4  2  1  0
  5  7  1  0
  5  4  1  0
  5  6  1  1
  7  8  2  0
  9 10  1  0
  9  7  1  0
 10 11  1  0
 11 13  1  0
 11 12  2  0
 13 14  1  0
 14 15  1  6
 14 21  1  0
 16 17  2  0
 16 15  1  0
 18 17  1  0
 19 20  2  0
 19 18  1  0
 20 16  1  0
 21 22  1  0
 23 21  2  0
M  END
$$$$
