LGH.pdb
     RDKit          3D

 23 23  0  0  1  0  0  0  0  0999 V2000
    8.1245  -12.8661   27.6181 C   0  0  0  0  0  0  0  0  0  0  0  0
    7.1340  -13.0000   26.4305 C   0  0  2  0  0  0  0  0  0  0  0  0
    6.3857  -11.6891   26.3001 C   0  0  0  0  0  0  0  0  0  0  0  0
    6.2036  -14.1124   26.7099 C   0  0  0  0  0  0  0  0  0  0  0  0
    6.8015  -15.4786   26.7700 C   0  0  2  0  0  0  0  0  0  0  0  0
    8.2045  -15.4963   27.0250 N   0  0  0  0  0  0  0  0  0  0  0  0
    6.4941  -16.1885   25.4765 C   0  0  0  0  0  0  0  0  0  0  0  0
    5.3177  -16.0055   25.0227 O   0  0  0  0  0  0  0  0  0  0  0  0
    7.4211  -16.9914   24.8104 N   0  0  0  0  0  0  0  0  0  0  0  0
    7.0309  -17.7062   23.5820 C   0  0  0  0  0  0  0  0  0  0  0  0
    8.0590  -17.4291   22.5312 C   0  0  0  0  0  0  0  0  0  0  0  0
    8.1486  -18.1042   21.4736 O   0  0  0  0  0  0  0  0  0  0  0  0
    8.9592  -16.3575   22.7563 N   0  0  0  0  0  0  0  0  0  0  0  0
   10.1359  -16.2506   21.8651 C   0  0  1  0  0  0  0  0  0  0  0  0
   10.0729  -14.8607   21.3140 C   0  0  0  0  0  0  0  0  0  0  0  0
    8.9018  -14.5191   20.5116 C   0  0  0  0  0  0  0  0  0  0  0  0
    7.7871  -15.1730   20.0959 C   0  0  0  0  0  0  0  0  0  0  0  0
    6.9976  -14.3119   19.4051 N   0  0  0  0  0  0  0  0  0  0  0  0
    7.6241  -13.1263   19.3954 C   0  0  0  0  0  0  0  0  0  0  0  0
    8.7631  -13.2259   20.0504 N   0  0  0  0  0  0  0  0  0  0  0  0
   11.3461  -16.3401   22.7411 C   0  0  0  0  0  0  0  0  0  0  0  0
   12.6326  -16.3138   22.2091 O   0  0  0  0  0  0  0  0  0  0  0  0
   11.2518  -16.4403   23.9642 O   0  0  0  0  0  0  0  0  0  0  0  0
  2  1  1  1
  2  3  1  0
  4  2  1  0
  5  7  1  0
  5  4  1  0
  5  6  1  6
  7  8  2  0
  9 10  1  0
  9  7  1  0
 10 11  1  0
 11 13  1  0
 11 12  2  0
 13 14  1  0
 14 15  1  1
 14 21  1  0
 16 17  2  0
 16 15  1  0
 18 17  1  0
 19 20  2  0
 19 18  1  0
 20 16  1  0
 21 22  1  0
 23 21  2  0
M  END
$$$$
