LGH.pdb
     RDKit          3D

 23 23  0  0  1  0  0  0  0  0999 V2000
    9.0060  -12.3089   19.1647 C   0  0  0  0  0  0  0  0  0  0  0  0
    8.0061  -13.4922   19.0676 C   0  0  2  0  0  0  0  0  0  0  0  0
    6.6537  -12.9269   18.6846 C   0  0  0  0  0  0  0  0  0  0  0  0
    7.9421  -14.1698   20.3783 C   0  0  0  0  0  0  0  0  0  0  0  0
    9.2321  -14.6879   20.9215 C   0  0  2  0  0  0  0  0  0  0  0  0
    9.9055  -15.6063   20.0631 N   0  0  0  0  0  0  0  0  0  0  0  0
    8.9618  -15.3230   22.2613 C   0  0  0  0  0  0  0  0  0  0  0  0
    8.2380  -14.6351   23.0525 O   0  0  0  0  0  0  0  0  0  0  0  0
    9.4604  -16.5751   22.6241 N   0  0  0  0  0  0  0  0  0  0  0  0
    9.1426  -17.1412   23.9473 C   0  0  0  0  0  0  0  0  0  0  0  0
    9.8510  -16.3314   24.9866 C   0  0  0  0  0  0  0  0  0  0  0  0
   10.9489  -15.7573   24.7689 O   0  0  0  0  0  0  0  0  0  0  0  0
    9.2429  -16.2191   26.2622 N   0  0  0  0  0  0  0  0  0  0  0  0
    9.9293  -15.3920   27.2795 C   0  0  1  0  0  0  0  0  0  0  0  0
    8.8342  -14.6231   27.9494 C   0  0  0  0  0  0  0  0  0  0  0  0
    8.1286  -13.6340   27.1394 C   0  0  0  0  0  0  0  0  0  0  0  0
    8.3889  -12.9564   25.9923 C   0  0  0  0  0  0  0  0  0  0  0  0
    7.3136  -12.1924   25.6729 N   0  0  0  0  0  0  0  0  0  0  0  0
    6.3890  -12.3993   26.6220 C   0  0  0  0  0  0  0  0  0  0  0  0
    6.8534  -13.2568   27.5081 N   0  0  0  0  0  0  0  0  0  0  0  0
   10.5032  -16.3397   28.2857 C   0  0  0  0  0  0  0  0  0  0  0  0
   10.3291  -17.7164   28.1701 O   0  0  0  0  0  0  0  0  0  0  0  0
   11.1506  -15.9401   29.2532 O   0  0  0  0  0  0  0  0  0  0  0  0
  2  1  1  1
  2  3  1  0
  4  2  1  0
  5  7  1  0
  5  4  1  0
  5  6  1  6
  7  8  2  0
  9 10  1  0
  9  7  1  0
 10 11  1  0
 11 13  1  0
 11 12  2  0
 13 14  1  0
 14 15  1  1
 14 21  1  0
 16 17  2  0
 16 15  1  0
 18 17  1  0
 19 20  2  0
 19 18  1  0
 20 16  1  0
 21 22  1  0
 23 21  2  0
M  END
$$$$
