LGH.pdb
     RDKit          3D

 23 23  0  0  1  0  0  0  0  0999 V2000
    6.6245  -13.0914   19.1317 C   0  0  0  0  0  0  0  0  0  0  0  0
    7.7957  -13.3805   20.1087 C   0  0  2  0  0  0  0  0  0  0  0  0
    8.5955  -12.1033   20.2653 C   0  0  0  0  0  0  0  0  0  0  0  0
    8.6311  -14.4595   19.5440 C   0  0  0  0  0  0  0  0  0  0  0  0
    8.0297  -15.8254   19.5283 C   0  0  2  0  0  0  0  0  0  0  0  0
    7.1270  -16.0833   20.6019 N   0  0  0  0  0  0  0  0  0  0  0  0
    9.1477  -16.8362   19.5282 C   0  0  0  0  0  0  0  0  0  0  0  0
   10.0079  -16.6946   18.5991 O   0  0  0  0  0  0  0  0  0  0  0  0
    9.2485  -17.8592   20.4722 N   0  0  0  0  0  0  0  0  0  0  0  0
   10.2740  -18.9066   20.3192 C   0  0  0  0  0  0  0  0  0  0  0  0
   11.4987  -18.4764   21.0628 C   0  0  0  0  0  0  0  0  0  0  0  0
   12.5465  -19.1711   21.1059 O   0  0  0  0  0  0  0  0  0  0  0  0
   11.4555  -17.2316   21.7397 N   0  0  0  0  0  0  0  0  0  0  0  0
   12.6595  -16.8184   22.4944 C   0  0  1  0  0  0  0  0  0  0  0  0
   12.9741  -15.4451   21.9901 C   0  0  0  0  0  0  0  0  0  0  0  0
   13.5052  -15.3435   20.6337 C   0  0  0  0  0  0  0  0  0  0  0  0
   13.8567  -16.2235   19.6618 C   0  0  0  0  0  0  0  0  0  0  0  0
   14.2419  -15.5358   18.5568 N   0  0  0  0  0  0  0  0  0  0  0  0
   14.1269  -14.2314   18.8462 C   0  0  0  0  0  0  0  0  0  0  0  0
   13.6884  -14.0924   20.0809 N   0  0  0  0  0  0  0  0  0  0  0  0
   12.2453  -16.6949   23.9273 C   0  0  0  0  0  0  0  0  0  0  0  0
   13.1686  -16.4068   24.9291 O   0  0  0  0  0  0  0  0  0  0  0  0
   11.0742  -16.8428   24.2758 O   0  0  0  0  0  0  0  0  0  0  0  0
  2  1  1  6
  2  3  1  0
  4  2  1  0
  5  7  1  0
  5  4  1  0
  5  6  1  1
  7  8  2  0
  9 10  1  0
  9  7  1  0
 10 11  1  0
 11 13  1  0
 11 12  2  0
 13 14  1  0
 14 15  1  6
 14 21  1  0
 16 17  2  0
 16 15  1  0
 18 17  1  0
 19 20  2  0
 19 18  1  0
 20 16  1  0
 21 22  1  0
 23 21  2  0
M  END
$$$$
