LGH.pdb
     RDKit          3D

 23 23  0  0  1  0  0  0  0  0999 V2000
    7.0556  -13.3340   21.5142 C   0  0  0  0  0  0  0  0  0  0  0  0
    8.1191  -13.5256   20.3999 C   0  0  2  0  0  0  0  0  0  0  0  0
    8.0194  -12.3454   19.4551 C   0  0  0  0  0  0  0  0  0  0  0  0
    7.8437  -14.7921   19.6920 C   0  0  0  0  0  0  0  0  0  0  0  0
    8.1053  -16.0488   20.4536 C   0  0  2  0  0  0  0  0  0  0  0  0
    7.1263  -16.3502   21.4458 N   0  0  0  0  0  0  0  0  0  0  0  0
    9.4730  -15.9487   21.0789 C   0  0  0  0  0  0  0  0  0  0  0  0
   10.4494  -16.1410   20.2834 O   0  0  0  0  0  0  0  0  0  0  0  0
    9.6725  -15.6649   22.4307 N   0  0  0  0  0  0  0  0  0  0  0  0
   11.0405  -15.5479   22.9665 C   0  0  0  0  0  0  0  0  0  0  0  0
   11.0256  -15.9971   24.3934 C   0  0  0  0  0  0  0  0  0  0  0  0
   12.0567  -16.0061   25.1137 O   0  0  0  0  0  0  0  0  0  0  0  0
    9.7883  -16.4262   24.9363 N   0  0  0  0  0  0  0  0  0  0  0  0
    9.6197  -16.3503   26.4047 C   0  0  1  0  0  0  0  0  0  0  0  0
    8.1824  -15.9861   26.6061 C   0  0  0  0  0  0  0  0  0  0  0  0
    7.7995  -14.6098   26.3037 C   0  0  0  0  0  0  0  0  0  0  0  0
    8.4591  -13.4704   25.9727 C   0  0  0  0  0  0  0  0  0  0  0  0
    7.5558  -12.4835   25.7444 N   0  0  0  0  0  0  0  0  0  0  0  0
    6.3387  -13.0139   25.9332 C   0  0  0  0  0  0  0  0  0  0  0  0
    6.4594  -14.2826   26.2675 N   0  0  0  0  0  0  0  0  0  0  0  0
    9.8173  -17.7375   26.9307 C   0  0  0  0  0  0  0  0  0  0  0  0
    9.8463  -17.9997   28.2979 O   0  0  0  0  0  0  0  0  0  0  0  0
    9.9617  -18.6994   26.1765 O   0  0  0  0  0  0  0  0  0  0  0  0
  2  1  1  1
  2  3  1  0
  4  2  1  0
  5  7  1  0
  5  4  1  0
  5  6  1  1
  7  8  2  0
  9 10  1  0
  9  7  1  0
 10 11  1  0
 11 13  1  0
 11 12  2  0
 13 14  1  0
 14 15  1  6
 14 21  1  0
 16 17  2  0
 16 15  1  0
 18 17  1  0
 19 20  2  0
 19 18  1  0
 20 16  1  0
 21 22  1  0
 23 21  2  0
M  END
$$$$
