LGH.pdb
     RDKit          3D

 23 23  0  0  1  0  0  0  0  0999 V2000
    8.3561  -12.5054   19.7042 C   0  0  0  0  0  0  0  0  0  0  0  0
    7.7245  -13.8997   19.9621 C   0  0  2  0  0  0  0  0  0  0  0  0
    6.2463  -13.6981   20.2263 C   0  0  0  0  0  0  0  0  0  0  0  0
    8.3892  -14.5148   21.1287 C   0  0  0  0  0  0  0  0  0  0  0  0
    9.8503  -14.7876   20.9927 C   0  0  2  0  0  0  0  0  0  0  0  0
   10.2021  -15.5470   19.8380 N   0  0  0  0  0  0  0  0  0  0  0  0
   10.3211  -15.4850   22.2432 C   0  0  0  0  0  0  0  0  0  0  0  0
   10.9172  -16.5951   22.0544 O   0  0  0  0  0  0  0  0  0  0  0  0
   10.1271  -14.9643   23.5235 N   0  0  0  0  0  0  0  0  0  0  0  0
   10.9633  -15.4300   24.6443 C   0  0  0  0  0  0  0  0  0  0  0  0
   10.4503  -16.7626   25.0904 C   0  0  0  0  0  0  0  0  0  0  0  0
    9.2251  -17.0466   25.1115 O   0  0  0  0  0  0  0  0  0  0  0  0
   11.4007  -17.7304   25.5021 N   0  0  0  0  0  0  0  0  0  0  0  0
   10.8903  -19.0393   25.9675 C   0  0  1  0  0  0  0  0  0  0  0  0
   11.9401  -20.0253   25.5615 C   0  0  0  0  0  0  0  0  0  0  0  0
   12.0959  -20.2752   24.1313 C   0  0  0  0  0  0  0  0  0  0  0  0
   11.4512  -19.8835   23.0028 C   0  0  0  0  0  0  0  0  0  0  0  0
   12.0930  -20.3967   21.9226 N   0  0  0  0  0  0  0  0  0  0  0  0
   13.1346  -21.1041   22.3842 C   0  0  0  0  0  0  0  0  0  0  0  0
   13.1566  -21.0457   23.7003 N   0  0  0  0  0  0  0  0  0  0  0  0
   10.8698  -18.9838   27.4630 C   0  0  0  0  0  0  0  0  0  0  0  0
   10.3546  -20.0308   28.2227 O   0  0  0  0  0  0  0  0  0  0  0  0
   11.3070  -18.0120   28.0790 O   0  0  0  0  0  0  0  0  0  0  0  0
  2  1  1  1
  2  3  1  0
  4  2  1  0
  5  7  1  0
  5  4  1  0
  5  6  1  6
  7  8  2  0
  9 10  1  0
  9  7  1  0
 10 11  1  0
 11 13  1  0
 11 12  2  0
 13 14  1  0
 14 15  1  1
 14 21  1  0
 16 17  2  0
 16 15  1  0
 18 17  1  0
 19 20  2  0
 19 18  1  0
 20 16  1  0
 21 22  1  0
 23 21  2  0
M  END
$$$$
