LGH.pdb
     RDKit          3D

 23 23  0  0  1  0  0  0  0  0999 V2000
    6.8575  -14.7263   20.4358 C   0  0  0  0  0  0  0  0  0  0  0  0
    8.1925  -13.9376   20.5096 C   0  0  2  0  0  0  0  0  0  0  0  0
    7.8580  -12.4601   20.5316 C   0  0  0  0  0  0  0  0  0  0  0  0
    9.0106  -14.2752   19.3273 C   0  0  0  0  0  0  0  0  0  0  0  0
    9.5226  -15.6751   19.2521 C   0  0  2  0  0  0  0  0  0  0  0  0
    8.7084  -16.6361   19.9209 N   0  0  0  0  0  0  0  0  0  0  0  0
   10.9242  -15.6981   19.8059 C   0  0  0  0  0  0  0  0  0  0  0  0
   11.7102  -14.8146   19.3318 O   0  0  0  0  0  0  0  0  0  0  0  0
   11.3461  -16.6144   20.7704 N   0  0  0  0  0  0  0  0  0  0  0  0
   12.6947  -16.5033   21.3544 C   0  0  0  0  0  0  0  0  0  0  0  0
   12.5956  -16.7826   22.8207 C   0  0  0  0  0  0  0  0  0  0  0  0
   13.5581  -16.6100   23.6119 O   0  0  0  0  0  0  0  0  0  0  0  0
   11.3573  -17.2609   23.3182 N   0  0  0  0  0  0  0  0  0  0  0  0
   11.2487  -17.4995   24.7747 C   0  0  1  0  0  0  0  0  0  0  0  0
    9.7856  -17.3954   25.0711 C   0  0  0  0  0  0  0  0  0  0  0  0
    9.1507  -16.1036   24.8259 C   0  0  0  0  0  0  0  0  0  0  0  0
    9.5848  -14.8381   24.5959 C   0  0  0  0  0  0  0  0  0  0  0  0
    8.5143  -14.0338   24.3742 N   0  0  0  0  0  0  0  0  0  0  0  0
    7.4195  -14.8029   24.4659 C   0  0  0  0  0  0  0  0  0  0  0  0
    7.7750  -16.0428   24.7347 N   0  0  0  0  0  0  0  0  0  0  0  0
   11.6621  -18.9188   25.0081 C   0  0  0  0  0  0  0  0  0  0  0  0
   12.0417  -19.7482   23.9560 O   0  0  0  0  0  0  0  0  0  0  0  0
   11.6826  -19.4080   26.1374 O   0  0  0  0  0  0  0  0  0  0  0  0
  2  1  1  6
  2  3  1  0
  4  2  1  0
  5  7  1  0
  5  4  1  0
  5  6  1  1
  7  8  2  0
  9 10  1  0
  9  7  1  0
 10 11  1  0
 11 13  1  0
 11 12  2  0
 13 14  1  0
 14 15  1  6
 14 21  1  0
 16 17  2  0
 16 15  1  0
 18 17  1  0
 19 20  2  0
 19 18  1  0
 20 16  1  0
 21 22  1  0
 23 21  2  0
M  END
$$$$
