TYS.pdb
     RDKit          3D

 26 26  0  0  1  0  0  0  0  0999 V2000
   22.2893  -17.0741  -20.2863 C   0  0  0  0  0  0  0  0  0  0  0  0
   22.0110  -18.0444  -19.1605 C   0  0  1  0  0  0  0  0  0  0  0  0
   21.9050  -19.3183  -19.7529 O   0  0  0  0  0  0  0  0  0  0  0  0
   23.2373  -18.0951  -18.2748 C   0  0  2  0  0  0  0  0  0  0  0  0
   24.4308  -18.4555  -18.9732 N   0  0  0  0  0  0  0  0  0  0  0  0
   23.0505  -18.9950  -17.1109 C   0  0  0  0  0  0  0  0  0  0  0  0
   23.3104  -20.2267  -17.1795 O   0  0  0  0  0  0  0  0  0  0  0  0
   21.7051  -21.2843   -8.6609 O   0  0  0  0  0  0  0  0  0  0  0  0
   21.9297  -20.5924   -9.8434 C   0  0  0  0  0  0  0  0  0  0  0  0
   21.0237  -19.6498  -10.2800 C   0  0  0  0  0  0  0  0  0  0  0  0
   21.2266  -18.9510  -11.4511 C   0  0  0  0  0  0  0  0  0  0  0  0
   22.3479  -19.1606  -12.2454 C   0  0  0  0  0  0  0  0  0  0  0  0
   22.5510  -18.3981  -13.5055 C   0  0  0  0  0  0  0  0  0  0  0  0
   22.2792  -19.2784  -14.7230 C   0  0  2  0  0  0  0  0  0  0  0  0
   22.5754  -18.4847  -15.8985 N   0  0  0  0  0  0  0  0  0  0  0  0
   20.8233  -19.5706  -14.7410 C   0  0  0  0  0  0  0  0  0  0  0  0
   19.9643  -18.6726  -14.9448 O   0  0  0  0  0  0  0  0  0  0  0  0
   23.2420  -20.1076  -11.7912 C   0  0  0  0  0  0  0  0  0  0  0  0
   23.0459  -20.8102  -10.6214 C   0  0  0  0  0  0  0  0  0  0  0  0
   19.3694  -23.4769  -14.3611 O   0  0  0  0  0  0  0  0  0  0  0  0
   18.7587  -22.5660  -15.2325 C   0  0  0  0  0  0  0  0  0  0  0  0
   18.9047  -21.1935  -14.5841 C   0  0  2  0  0  0  0  0  0  0  0  0
   20.3175  -20.8942  -14.5267 N   0  0  0  0  0  0  0  0  0  0  0  0
   18.2738  -21.1519  -13.2423 C   0  0  0  0  0  0  0  0  0  0  0  0
   19.0748  -21.0733  -12.1126 O   0  0  0  0  0  0  0  0  0  0  0  0
   17.0290  -21.1845  -13.0667 O   0  0  0  0  0  0  0  0  0  0  0  0
  2  4  1  0
  2  1  1  6
  3  2  1  0
  4  5  1  6
  6  7  2  0
  6  4  1  0
  8  9  1  0
  9 19  2  0
  9 10  1  0
 10 11  2  0
 11 12  1  0
 12 13  1  0
 14 13  1  1
 14 16  1  0
 14 15  1  0
 15  6  1  0
 16 23  1  0
 17 16  2  0
 18 12  2  0
 19 18  1  0
 21 20  1  0
 22 21  1  1
 23 22  1  0
 24 25  1  0
 24 22  1  0
 26 24  2  0
M  END
$$$$
