TYS.pdb
     RDKit          3D

 26 26  0  0  1  0  0  0  0  0999 V2000
   17.5345  -10.0974  -19.2583 C   0  0  0  0  0  0  0  0  0  0  0  0
   18.0474   -9.3146  -18.0708 C   0  0  1  0  0  0  0  0  0  0  0  0
   16.9134   -8.9439  -17.3213 O   0  0  0  0  0  0  0  0  0  0  0  0
   18.8378  -10.2619  -17.1940 C   0  0  2  0  0  0  0  0  0  0  0  0
   18.0886  -11.4002  -16.7639 N   0  0  0  0  0  0  0  0  0  0  0  0
   19.4235   -9.5773  -16.0159 C   0  0  0  0  0  0  0  0  0  0  0  0
   19.0169   -9.8113  -14.8458 O   0  0  0  0  0  0  0  0  0  0  0  0
   23.8723  -13.7896  -14.9302 O   0  0  0  0  0  0  0  0  0  0  0  0
   23.5726  -12.4360  -15.0047 C   0  0  0  0  0  0  0  0  0  0  0  0
   23.5287  -11.8001  -16.2269 C   0  0  0  0  0  0  0  0  0  0  0  0
   23.2332  -10.4569  -16.3244 C   0  0  0  0  0  0  0  0  0  0  0  0
   22.9664   -9.6813  -15.2021 C   0  0  0  0  0  0  0  0  0  0  0  0
   22.6495   -8.2340  -15.3253 C   0  0  0  0  0  0  0  0  0  0  0  0
   21.1592   -7.9837  -15.1076 C   0  0  2  0  0  0  0  0  0  0  0  0
   20.4531   -8.6459  -16.1857 N   0  0  0  0  0  0  0  0  0  0  0  0
   20.9295   -6.5242  -15.2583 C   0  0  0  0  0  0  0  0  0  0  0  0
   21.4626   -5.6813  -14.4893 O   0  0  0  0  0  0  0  0  0  0  0  0
   23.0154  -10.3362  -13.9892 C   0  0  0  0  0  0  0  0  0  0  0  0
   23.3101  -11.6788  -13.8839 C   0  0  0  0  0  0  0  0  0  0  0  0
   18.7551   -5.0885  -18.4228 O   0  0  0  0  0  0  0  0  0  0  0  0
   19.6907   -4.2215  -17.8442 C   0  0  0  0  0  0  0  0  0  0  0  0
   19.7565   -4.5914  -16.3662 C   0  0  2  0  0  0  0  0  0  0  0  0
   20.0864   -5.9965  -16.2899 N   0  0  0  0  0  0  0  0  0  0  0  0
   18.4856   -4.2810  -15.6671 C   0  0  0  0  0  0  0  0  0  0  0  0
   18.1436   -2.9585  -15.4261 O   0  0  0  0  0  0  0  0  0  0  0  0
   17.6843   -5.1661  -15.2723 O   0  0  0  0  0  0  0  0  0  0  0  0
  2  4  1  0
  2  1  1  6
  3  2  1  0
  4  5  1  1
  6  7  2  0
  6  4  1  0
  8  9  1  0
  9 19  2  0
  9 10  1  0
 10 11  2  0
 11 12  1  0
 12 13  1  0
 14 13  1  6
 14 16  1  0
 14 15  1  0
 15  6  1  0
 16 23  1  0
 17 16  2  0
 18 12  2  0
 19 18  1  0
 21 20  1  0
 22 21  1  6
 23 22  1  0
 24 25  1  0
 24 22  1  0
 26 24  2  0
M  END
$$$$
