TYS.pdb
     RDKit          3D

 26 26  0  0  1  0  0  0  0  0999 V2000
   26.2050  -22.4640  -18.3472 C   0  0  0  0  0  0  0  0  0  0  0  0
   26.4737  -23.9472  -18.2297 C   0  0  1  0  0  0  0  0  0  0  0  0
   27.6205  -24.2046  -19.0067 O   0  0  0  0  0  0  0  0  0  0  0  0
   26.8648  -24.2381  -16.7967 C   0  0  2  0  0  0  0  0  0  0  0  0
   27.2213  -25.6030  -16.5686 N   0  0  0  0  0  0  0  0  0  0  0  0
   25.8112  -23.8314  -15.8353 C   0  0  0  0  0  0  0  0  0  0  0  0
   24.8640  -24.6041  -15.5270 O   0  0  0  0  0  0  0  0  0  0  0  0
   22.8167  -20.3525   -8.4748 O   0  0  0  0  0  0  0  0  0  0  0  0
   23.5166  -20.5376   -9.6595 C   0  0  0  0  0  0  0  0  0  0  0  0
   22.9882  -20.0990  -10.8547 C   0  0  0  0  0  0  0  0  0  0  0  0
   23.6657  -20.2723  -12.0429 C   0  0  0  0  0  0  0  0  0  0  0  0
   24.9078  -20.8941  -12.0951 C   0  0  0  0  0  0  0  0  0  0  0  0
   25.6247  -21.0728  -13.3852 C   0  0  0  0  0  0  0  0  0  0  0  0
   24.8900  -22.0662  -14.2820 C   0  0  2  0  0  0  0  0  0  0  0  0
   25.8513  -22.5640  -15.2451 N   0  0  0  0  0  0  0  0  0  0  0  0
   23.8616  -21.3046  -15.0356 C   0  0  0  0  0  0  0  0  0  0  0  0
   24.1674  -20.3832  -15.8377 O   0  0  0  0  0  0  0  0  0  0  0  0
   25.4190  -21.3255  -10.8888 C   0  0  0  0  0  0  0  0  0  0  0  0
   24.7474  -21.1558   -9.6968 C   0  0  0  0  0  0  0  0  0  0  0  0
   20.1234  -22.7787  -15.5375 O   0  0  0  0  0  0  0  0  0  0  0  0
   20.6825  -21.8833  -16.4581 C   0  0  0  0  0  0  0  0  0  0  0  0
   21.4579  -20.8582  -15.6374 C   0  0  2  0  0  0  0  0  0  0  0  0
   22.4627  -21.5790  -14.8893 N   0  0  0  0  0  0  0  0  0  0  0  0
   20.5620  -20.0751  -14.7518 C   0  0  0  0  0  0  0  0  0  0  0  0
   19.5513  -19.3060  -15.3096 O   0  0  0  0  0  0  0  0  0  0  0  0
   20.6684  -20.0685  -13.4987 O   0  0  0  0  0  0  0  0  0  0  0  0
  2  4  1  0
  2  1  1  1
  3  2  1  0
  4  5  1  6
  6  7  2  0
  6  4  1  0
  8  9  1  0
  9 19  2  0
  9 10  1  0
 10 11  2  0
 11 12  1  0
 12 13  1  0
 14 13  1  1
 14 16  1  0
 14 15  1  0
 15  6  1  0
 16 23  1  0
 17 16  2  0
 18 12  2  0
 19 18  1  0
 21 20  1  0
 22 21  1  1
 23 22  1  0
 24 25  1  0
 24 22  1  0
 26 24  2  0
M  END
$$$$
