TYS.pdb
     RDKit          3D

 26 26  0  0  1  0  0  0  0  0999 V2000
   17.2407  -12.7024  -18.5424 C   0  0  0  0  0  0  0  0  0  0  0  0
   18.4524  -13.3197  -17.8817 C   0  0  1  0  0  0  0  0  0  0  0  0
   18.6868  -14.5401  -18.5456 O   0  0  0  0  0  0  0  0  0  0  0  0
   19.6472  -12.4415  -18.1852 C   0  0  2  0  0  0  0  0  0  0  0  0
   20.8994  -13.0522  -17.8675 N   0  0  0  0  0  0  0  0  0  0  0  0
   19.5544  -11.1199  -17.5185 C   0  0  0  0  0  0  0  0  0  0  0  0
   18.4891  -10.4460  -17.5326 O   0  0  0  0  0  0  0  0  0  0  0  0
   22.7267   -4.0262  -13.1754 O   0  0  0  0  0  0  0  0  0  0  0  0
   22.5534   -5.2890  -13.7258 C   0  0  0  0  0  0  0  0  0  0  0  0
   23.1037   -5.5941  -14.9523 C   0  0  0  0  0  0  0  0  0  0  0  0
   22.9443   -6.8414  -15.5176 C   0  0  0  0  0  0  0  0  0  0  0  0
   22.2252   -7.8477  -14.8833 C   0  0  0  0  0  0  0  0  0  0  0  0
   22.0630   -9.1874  -15.5072 C   0  0  0  0  0  0  0  0  0  0  0  0
   20.6825   -9.3266  -16.1443 C   0  0  2  0  0  0  0  0  0  0  0  0
   20.6645  -10.5906  -16.8524 N   0  0  0  0  0  0  0  0  0  0  0  0
   20.5528   -8.2491  -17.1580 C   0  0  0  0  0  0  0  0  0  0  0  0
   21.2625   -8.2216  -18.1980 O   0  0  0  0  0  0  0  0  0  0  0  0
   21.6828   -7.5225  -13.6575 C   0  0  0  0  0  0  0  0  0  0  0  0
   21.8379   -6.2775  -13.0859 C   0  0  0  0  0  0  0  0  0  0  0  0
   17.2708   -6.3922  -18.1665 O   0  0  0  0  0  0  0  0  0  0  0  0
   18.4532   -6.3183  -18.9137 C   0  0  0  0  0  0  0  0  0  0  0  0
   19.5734   -6.0558  -17.9128 C   0  0  2  0  0  0  0  0  0  0  0  0
   19.6103   -7.1804  -17.0056 N   0  0  0  0  0  0  0  0  0  0  0  0
   19.3780   -4.7715  -17.1968 C   0  0  0  0  0  0  0  0  0  0  0  0
   19.1123   -4.7817  -15.8353 O   0  0  0  0  0  0  0  0  0  0  0  0
   19.4406   -3.6514  -17.7648 O   0  0  0  0  0  0  0  0  0  0  0  0
  2  4  1  0
  2  1  1  6
  3  2  1  0
  4  5  1  1
  6  7  2  0
  6  4  1  0
  8  9  1  0
  9 19  2  0
  9 10  1  0
 10 11  2  0
 11 12  1  0
 12 13  1  0
 14 13  1  6
 14 16  1  0
 14 15  1  0
 15  6  1  0
 16 23  1  0
 17 16  2  0
 18 12  2  0
 19 18  1  0
 21 20  1  0
 22 21  1  6
 23 22  1  0
 24 25  1  0
 24 22  1  0
 26 24  2  0
M  END
$$$$
