TYS.pdb
     RDKit          3D

 26 26  0  0  1  0  0  0  0  0999 V2000
   26.0037   -9.8250  -14.9790 C   0  0  0  0  0  0  0  0  0  0  0  0
   25.9884  -10.7815  -16.1499 C   0  0  1  0  0  0  0  0  0  0  0  0
   26.9907  -11.7377  -15.8931 O   0  0  0  0  0  0  0  0  0  0  0  0
   24.6749  -11.5331  -16.1207 C   0  0  2  0  0  0  0  0  0  0  0  0
   24.6125  -12.6089  -17.0592 N   0  0  0  0  0  0  0  0  0  0  0  0
   23.5112  -10.6345  -16.3154 C   0  0  0  0  0  0  0  0  0  0  0  0
   23.1462  -10.2654  -17.4642 O   0  0  0  0  0  0  0  0  0  0  0  0
   17.6424  -13.9983  -17.1205 O   0  0  0  0  0  0  0  0  0  0  0  0
   18.3626  -13.0265  -16.4388 C   0  0  0  0  0  0  0  0  0  0  0  0
   18.1626  -11.6911  -16.7155 C   0  0  0  0  0  0  0  0  0  0  0  0
   18.8666  -10.7094  -16.0510 C   0  0  0  0  0  0  0  0  0  0  0  0
   19.8077  -11.0151  -15.0746 C   0  0  0  0  0  0  0  0  0  0  0  0
   20.5580   -9.9440  -14.3677 C   0  0  0  0  0  0  0  0  0  0  0  0
   21.6143   -9.3269  -15.2812 C   0  0  2  0  0  0  0  0  0  0  0  0
   22.7877  -10.1742  -15.2104 N   0  0  0  0  0  0  0  0  0  0  0  0
   21.9835   -8.0097  -14.7033 C   0  0  0  0  0  0  0  0  0  0  0  0
   22.7175   -7.9093  -13.6848 O   0  0  0  0  0  0  0  0  0  0  0  0
   19.9930  -12.3566  -14.8127 C   0  0  0  0  0  0  0  0  0  0  0  0
   19.2928  -13.3437  -15.4730 C   0  0  0  0  0  0  0  0  0  0  0  0
   23.6212   -3.8718  -15.0300 O   0  0  0  0  0  0  0  0  0  0  0  0
   23.1791   -5.0809  -15.5820 C   0  0  0  0  0  0  0  0  0  0  0  0
   21.9520   -5.4931  -14.7760 C   0  0  2  0  0  0  0  0  0  0  0  0
   21.5227   -6.7795  -15.2759 N   0  0  0  0  0  0  0  0  0  0  0  0
   20.8746   -4.4772  -14.8608 C   0  0  0  0  0  0  0  0  0  0  0  0
   19.7541   -4.7325  -15.6378 O   0  0  0  0  0  0  0  0  0  0  0  0
   20.9197   -3.3752  -14.2565 O   0  0  0  0  0  0  0  0  0  0  0  0
  2  4  1  0
  2  1  1  1
  3  2  1  0
  4  5  1  6
  6  7  2  0
  6  4  1  0
  8  9  1  0
  9 19  2  0
  9 10  1  0
 10 11  2  0
 11 12  1  0
 12 13  1  0
 14 13  1  1
 14 16  1  0
 14 15  1  0
 15  6  1  0
 16 23  1  0
 17 16  2  0
 18 12  2  0
 19 18  1  0
 21 20  1  0
 22 21  1  6
 23 22  1  0
 24 25  1  0
 24 22  1  0
 26 24  2  0
M  END
$$$$
