TYS.pdb
     RDKit          3D

 26 26  0  0  1  0  0  0  0  0999 V2000
   23.6519  -20.5086  -19.4737 C   0  0  0  0  0  0  0  0  0  0  0  0
   23.8813  -20.1758  -18.0167 C   0  0  1  0  0  0  0  0  0  0  0  0
   24.8198  -19.1253  -17.9935 O   0  0  0  0  0  0  0  0  0  0  0  0
   22.5957  -19.6013  -17.4617 C   0  0  2  0  0  0  0  0  0  0  0  0
   22.1496  -18.4314  -18.1506 N   0  0  0  0  0  0  0  0  0  0  0  0
   22.6903  -19.3179  -16.0090 C   0  0  0  0  0  0  0  0  0  0  0  0
   23.0344  -18.1844  -15.5779 O   0  0  0  0  0  0  0  0  0  0  0  0
   17.2071  -16.4530  -14.0446 O   0  0  0  0  0  0  0  0  0  0  0  0
   18.1512  -17.4410  -13.7993 C   0  0  0  0  0  0  0  0  0  0  0  0
   18.2272  -18.5481  -14.6169 C   0  0  0  0  0  0  0  0  0  0  0  0
   19.1568  -19.5412  -14.3919 C   0  0  0  0  0  0  0  0  0  0  0  0
   20.0585  -19.4762  -13.3359 C   0  0  0  0  0  0  0  0  0  0  0  0
   21.0545  -20.5561  -13.1078 C   0  0  0  0  0  0  0  0  0  0  0  0
   22.4271  -20.1504  -13.6394 C   0  0  2  0  0  0  0  0  0  0  0  0
   22.3947  -20.3191  -15.0781 N   0  0  0  0  0  0  0  0  0  0  0  0
   23.4140  -21.1211  -13.1016 C   0  0  0  0  0  0  0  0  0  0  0  0
   23.2265  -22.3651  -13.1589 O   0  0  0  0  0  0  0  0  0  0  0  0
   19.9660  -18.3608  -12.5298 C   0  0  0  0  0  0  0  0  0  0  0  0
   19.0392  -17.3639  -12.7486 C   0  0  0  0  0  0  0  0  0  0  0  0
   27.1861  -20.2585  -12.8711 O   0  0  0  0  0  0  0  0  0  0  0  0
   26.8329  -21.6063  -12.7282 C   0  0  0  0  0  0  0  0  0  0  0  0
   25.5609  -21.6260  -11.8872 C   0  0  2  0  0  0  0  0  0  0  0  0
   24.6354  -20.6920  -12.4872 N   0  0  0  0  0  0  0  0  0  0  0  0
   25.8382  -21.2978  -10.4674 C   0  0  0  0  0  0  0  0  0  0  0  0
   26.6600  -22.1300   -9.7216 O   0  0  0  0  0  0  0  0  0  0  0  0
   25.3612  -20.2879   -9.8895 O   0  0  0  0  0  0  0  0  0  0  0  0
  2  4  1  0
  2  1  1  6
  3  2  1  0
  4  5  1  6
  6  7  2  0
  6  4  1  0
  8  9  1  0
  9 19  2  0
  9 10  1  0
 10 11  2  0
 11 12  1  0
 12 13  1  0
 14 13  1  1
 14 16  1  0
 14 15  1  0
 15  6  1  0
 16 23  1  0
 17 16  2  0
 18 12  2  0
 19 18  1  0
 21 20  1  0
 22 21  1  6
 23 22  1  0
 24 25  1  0
 24 22  1  0
 26 24  2  0
M  END
$$$$
