YPN.pdb
     RDKit          3D

 28 29  0  0  1  0  0  0  0  0999 V2000
   10.7155  -17.1299   27.2468 O   0  0  0  0  0  0  0  0  0  0  0  0
    9.8742  -16.5034   26.3479 C   0  0  0  0  0  0  0  0  0  0  0  0
   10.4277  -15.8905   25.2380 C   0  0  0  0  0  0  0  0  0  0  0  0
    9.6265  -15.2601   24.3258 C   0  0  0  0  0  0  0  0  0  0  0  0
    8.2660  -15.2501   24.5371 C   0  0  0  0  0  0  0  0  0  0  0  0
    7.4109  -14.5648   23.5431 C   0  0  0  0  0  0  0  0  0  0  0  0
    6.7237  -15.5526   22.6156 C   0  0  2  0  0  0  0  0  0  0  0  0
    6.4045  -16.7776   23.2597 N   0  0  0  0  0  0  0  0  0  0  0  0
    7.5457  -15.6909   21.4066 C   0  0  0  0  0  0  0  0  0  0  0  0
    7.7559  -16.8833   21.0192 O   0  0  0  0  0  0  0  0  0  0  0  0
    7.6818  -15.8506   25.6315 C   0  0  0  0  0  0  0  0  0  0  0  0
    8.5072  -16.4846   26.5456 C   0  0  0  0  0  0  0  0  0  0  0  0
    8.1076  -14.6444   20.6563 N   0  0  0  0  0  0  0  0  0  0  0  0
    8.1085  -13.2378   21.1205 C   0  0  0  0  0  0  0  0  0  0  0  0
    7.5918  -12.5501   19.8669 C   0  0  0  0  0  0  0  0  0  0  0  0
    8.3200  -13.2827   18.7778 C   0  0  0  0  0  0  0  0  0  0  0  0
    8.7842  -14.6049   19.3792 C   0  0  1  0  0  0  0  0  0  0  0  0
   10.2477  -14.6034   19.6519 C   0  0  0  0  0  0  0  0  0  0  0  0
   10.7075  -14.4112   20.8061 O   0  0  0  0  0  0  0  0  0  0  0  0
   15.1914  -14.0913   20.4432 N   0  0  0  0  0  0  0  0  0  0  0  0
   14.2436  -15.1147   20.7022 C   0  0  0  0  0  0  0  0  0  0  0  0
   14.5757  -16.1940   21.2485 O   0  0  0  0  0  0  0  0  0  0  0  0
   12.8467  -14.9000   20.3203 C   0  0  0  0  0  0  0  0  0  0  0  0
   12.6272  -14.8855   18.8234 C   0  0  2  0  0  0  0  0  0  0  0  0
   11.1942  -14.8244   18.5913 N   0  0  0  0  0  0  0  0  0  0  0  0
   13.1841  -16.2013   18.3363 C   0  0  0  0  0  0  0  0  0  0  0  0
   12.6015  -17.3539   18.8366 O   0  0  0  0  0  0  0  0  0  0  0  0
   14.1187  -16.2394   17.5270 O   0  0  0  0  0  0  0  0  0  0  0  0
  2  1  1  0
  3  2  2  0
  4  3  1  0
  5  4  2  0
  5 11  1  0
  6  5  1  0
  7  6  1  0
  7  8  1  1
  9 13  1  0
  9  7  1  0
 10  9  2  0
 11 12  2  0
 12  2  1  0
 13 17  1  0
 14 13  1  0
 14 15  1  0
 16 17  1  0
 16 15  1  0
 18 25  1  0
 17 18  1  1
 19 18  2  0
 21 20  1  0
 21 22  2  0
 23 21  1  0
 24 23  1  1
 24 25  1  0
 26 27  1  0
 26 24  1  0
 28 26  2  0
M  END
$$$$
