YPN.pdb
     RDKit          3D

 28 29  0  0  1  0  0  0  0  0999 V2000
    7.9259  -18.9150   19.4547 O   0  0  0  0  0  0  0  0  0  0  0  0
    7.5654  -17.6465   19.8660 C   0  0  0  0  0  0  0  0  0  0  0  0
    6.7302  -17.5167   20.9611 C   0  0  0  0  0  0  0  0  0  0  0  0
    6.3515  -16.2769   21.3977 C   0  0  0  0  0  0  0  0  0  0  0  0
    6.8180  -15.1691   20.7262 C   0  0  0  0  0  0  0  0  0  0  0  0
    6.4008  -13.8342   21.2086 C   0  0  0  0  0  0  0  0  0  0  0  0
    7.5947  -12.9318   21.4699 C   0  0  2  0  0  0  0  0  0  0  0  0
    8.4413  -12.8018   20.3368 N   0  0  0  0  0  0  0  0  0  0  0  0
    8.2667  -13.4051   22.6869 C   0  0  0  0  0  0  0  0  0  0  0  0
    9.4687  -13.7903   22.5357 O   0  0  0  0  0  0  0  0  0  0  0  0
    7.6510  -15.2623   19.6322 C   0  0  0  0  0  0  0  0  0  0  0  0
    8.0250  -16.5252   19.2029 C   0  0  0  0  0  0  0  0  0  0  0  0
    7.7105  -13.4678   23.9756 N   0  0  0  0  0  0  0  0  0  0  0  0
    6.2831  -13.1792   24.2459 C   0  0  0  0  0  0  0  0  0  0  0  0
    6.4290  -12.2226   25.4186 C   0  0  0  0  0  0  0  0  0  0  0  0
    7.5267  -12.8626   26.2178 C   0  0  0  0  0  0  0  0  0  0  0  0
    8.2641  -13.8012   25.2689 C   0  0  1  0  0  0  0  0  0  0  0  0
    7.9355  -15.2280   25.5381 C   0  0  0  0  0  0  0  0  0  0  0  0
    6.9905  -15.8135   24.9511 O   0  0  0  0  0  0  0  0  0  0  0  0
   11.3380  -18.9828   25.1815 N   0  0  0  0  0  0  0  0  0  0  0  0
   11.5545  -17.6433   24.7673 C   0  0  0  0  0  0  0  0  0  0  0  0
   12.5393  -17.3267   24.0577 O   0  0  0  0  0  0  0  0  0  0  0  0
   10.6027  -16.6109   25.1814 C   0  0  0  0  0  0  0  0  0  0  0  0
    9.5188  -17.1260   26.1027 C   0  0  2  0  0  0  0  0  0  0  0  0
    8.6974  -15.9918   26.4898 N   0  0  0  0  0  0  0  0  0  0  0  0
   10.2555  -17.6760   27.2999 C   0  0  0  0  0  0  0  0  0  0  0  0
   11.0264  -16.7845   28.0274 O   0  0  0  0  0  0  0  0  0  0  0  0
   10.1692  -18.8702   27.6103 O   0  0  0  0  0  0  0  0  0  0  0  0
  2  1  1  0
  3  2  2  0
  4  3  1  0
  5  4  2  0
  5 11  1  0
  6  5  1  0
  7  6  1  0
  7  8  1  6
  9 13  1  0
  9  7  1  0
 10  9  2  0
 11 12  2  0
 12  2  1  0
 13 17  1  0
 14 13  1  0
 14 15  1  0
 16 17  1  0
 16 15  1  0
 18 25  1  0
 17 18  1  1
 19 18  2  0
 21 20  1  0
 21 22  2  0
 23 21  1  0
 24 23  1  6
 24 25  1  0
 26 27  1  0
 26 24  1  0
 28 26  2  0
M  END
$$$$
