YPN.pdb
     RDKit          3D

 28 29  0  0  1  0  0  0  0  0999 V2000
    7.5734  -14.0640   14.3749 O   0  0  0  0  0  0  0  0  0  0  0  0
    7.8321  -14.4302   15.6815 C   0  0  0  0  0  0  0  0  0  0  0  0
    8.3822  -13.4922   16.5366 C   0  0  0  0  0  0  0  0  0  0  0  0
    8.6524  -13.8181   17.8374 C   0  0  0  0  0  0  0  0  0  0  0  0
    8.3658  -15.0925   18.2723 C   0  0  0  0  0  0  0  0  0  0  0  0
    8.6629  -15.4320   19.6813 C   0  0  0  0  0  0  0  0  0  0  0  0
    9.7835  -14.5735   20.2428 C   0  0  2  0  0  0  0  0  0  0  0  0
   10.9667  -14.6366   19.4596 N   0  0  0  0  0  0  0  0  0  0  0  0
    9.9639  -14.9264   21.6568 C   0  0  0  0  0  0  0  0  0  0  0  0
   11.0921  -15.4295   21.9573 O   0  0  0  0  0  0  0  0  0  0  0  0
    7.8177  -16.0511   17.4475 C   0  0  0  0  0  0  0  0  0  0  0  0
    7.5502  -15.7049   16.1331 C   0  0  0  0  0  0  0  0  0  0  0  0
    9.0204  -14.7603   22.6845 N   0  0  0  0  0  0  0  0  0  0  0  0
    7.6154  -14.3694   22.4253 C   0  0  0  0  0  0  0  0  0  0  0  0
    7.4664  -13.2473   23.4402 C   0  0  0  0  0  0  0  0  0  0  0  0
    8.1845  -13.8013   24.6362 C   0  0  0  0  0  0  0  0  0  0  0  0
    9.0960  -14.9097   24.1205 C   0  0  1  0  0  0  0  0  0  0  0  0
    8.5661  -16.2601   24.4550 C   0  0  0  0  0  0  0  0  0  0  0  0
    7.6578  -16.8033   23.7764 O   0  0  0  0  0  0  0  0  0  0  0  0
   12.5208  -19.9452   23.9781 N   0  0  0  0  0  0  0  0  0  0  0  0
   11.1264  -19.7730   24.1748 C   0  0  0  0  0  0  0  0  0  0  0  0
   10.3348  -20.7459   24.1501 O   0  0  0  0  0  0  0  0  0  0  0  0
   10.6052  -18.4255   24.4116 C   0  0  0  0  0  0  0  0  0  0  0  0
    9.5267  -18.3748   25.4713 C   0  0  2  0  0  0  0  0  0  0  0  0
    9.0821  -16.9958   25.5784 N   0  0  0  0  0  0  0  0  0  0  0  0
   10.2124  -18.8077   26.7446 C   0  0  0  0  0  0  0  0  0  0  0  0
   11.3336  -18.0914   27.1292 O   0  0  0  0  0  0  0  0  0  0  0  0
    9.7856  -19.7602   27.4084 O   0  0  0  0  0  0  0  0  0  0  0  0
  2  1  1  0
  3  2  2  0
  4  3  1  0
  5  4  2  0
  5 11  1  0
  6  5  1  0
  7  6  1  0
  7  8  1  6
  9 13  1  0
  9  7  1  0
 10  9  2  0
 11 12  2  0
 12  2  1  0
 13 17  1  0
 14 13  1  0
 14 15  1  0
 16 17  1  0
 16 15  1  0
 18 25  1  0
 17 18  1  6
 19 18  2  0
 21 20  1  0
 21 22  2  0
 23 21  1  0
 24 23  1  6
 24 25  1  0
 26 27  1  0
 26 24  1  0
 28 26  2  0
M  END
$$$$
