YPN.pdb
     RDKit          3D

 28 29  0  0  1  0  0  0  0  0999 V2000
    5.5936  -10.9298   28.4093 O   0  0  0  0  0  0  0  0  0  0  0  0
    6.1466  -11.8345   27.5239 C   0  0  0  0  0  0  0  0  0  0  0  0
    7.1109  -12.7114   27.9876 C   0  0  0  0  0  0  0  0  0  0  0  0
    7.6813  -13.6215   27.1405 C   0  0  0  0  0  0  0  0  0  0  0  0
    7.2759  -13.6439   25.8249 C   0  0  0  0  0  0  0  0  0  0  0  0
    7.9008  -14.6329   24.9193 C   0  0  0  0  0  0  0  0  0  0  0  0
    6.8888  -15.6418   24.4034 C   0  0  2  0  0  0  0  0  0  0  0  0
    6.5588  -16.6294   25.3694 N   0  0  0  0  0  0  0  0  0  0  0  0
    7.3842  -16.1730   23.1271 C   0  0  0  0  0  0  0  0  0  0  0  0
    7.3671  -17.4393   23.0160 O   0  0  0  0  0  0  0  0  0  0  0  0
    6.3183  -12.7851   25.3301 C   0  0  0  0  0  0  0  0  0  0  0  0
    5.7505  -11.8696   26.2010 C   0  0  0  0  0  0  0  0  0  0  0  0
    7.8644  -15.4216   22.0415 N   0  0  0  0  0  0  0  0  0  0  0  0
    7.9365  -13.9423   22.0618 C   0  0  0  0  0  0  0  0  0  0  0  0
    7.2819  -13.6319   20.7252 C   0  0  0  0  0  0  0  0  0  0  0  0
    7.8669  -14.6860   19.8309 C   0  0  0  0  0  0  0  0  0  0  0  0
    8.3845  -15.7920   20.7443 C   0  0  1  0  0  0  0  0  0  0  0  0
    9.8700  -15.7777   20.8408 C   0  0  0  0  0  0  0  0  0  0  0  0
   10.4741  -15.0518   21.6707 O   0  0  0  0  0  0  0  0  0  0  0  0
   12.0306  -20.1255   23.0630 N   0  0  0  0  0  0  0  0  0  0  0  0
   12.3639  -19.2015   22.0393 C   0  0  0  0  0  0  0  0  0  0  0  0
   13.5373  -19.0932   21.6093 O   0  0  0  0  0  0  0  0  0  0  0  0
   11.3089  -18.3573   21.4757 C   0  0  0  0  0  0  0  0  0  0  0  0
   11.8162  -17.3573   20.4601 C   0  0  2  0  0  0  0  0  0  0  0  0
   10.6715  -16.6036   19.9778 N   0  0  0  0  0  0  0  0  0  0  0  0
   12.4016  -18.1949   19.3490 C   0  0  0  0  0  0  0  0  0  0  0  0
   11.5535  -19.0971   18.7287 O   0  0  0  0  0  0  0  0  0  0  0  0
   13.5862  -18.0746   19.0141 O   0  0  0  0  0  0  0  0  0  0  0  0
  2  1  1  0
  3  2  2  0
  4  3  1  0
  5  4  2  0
  5 11  1  0
  6  5  1  0
  7  6  1  0
  7  8  1  1
  9 13  1  0
  9  7  1  0
 10  9  2  0
 11 12  2  0
 12  2  1  0
 13 17  1  0
 14 13  1  0
 14 15  1  0
 16 17  1  0
 16 15  1  0
 18 25  1  0
 17 18  1  1
 19 18  2  0
 21 20  1  0
 21 22  2  0
 23 21  1  0
 24 23  1  1
 24 25  1  0
 26 27  1  0
 26 24  1  0
 28 26  2  0
M  END
$$$$
