YPN.pdb
     RDKit          3D

 28 29  0  0  1  0  0  0  0  0999 V2000
    5.3732  -10.8351   28.3579 O   0  0  0  0  0  0  0  0  0  0  0  0
    5.9773  -11.6922   27.4586 C   0  0  0  0  0  0  0  0  0  0  0  0
    7.1533  -12.3199   27.8283 C   0  0  0  0  0  0  0  0  0  0  0  0
    7.7805  -13.1755   26.9646 C   0  0  0  0  0  0  0  0  0  0  0  0
    7.2176  -13.3954   25.7275 C   0  0  0  0  0  0  0  0  0  0  0  0
    7.9060  -14.3228   24.8029 C   0  0  0  0  0  0  0  0  0  0  0  0
    6.9809  -15.4277   24.3219 C   0  0  2  0  0  0  0  0  0  0  0  0
    6.6327  -16.3387   25.3544 N   0  0  0  0  0  0  0  0  0  0  0  0
    7.5874  -16.0465   23.1362 C   0  0  0  0  0  0  0  0  0  0  0  0
    7.6438  -17.3164   23.1481 O   0  0  0  0  0  0  0  0  0  0  0  0
    6.0476  -12.7868   25.3272 C   0  0  0  0  0  0  0  0  0  0  0  0
    5.4251  -11.9233   26.2137 C   0  0  0  0  0  0  0  0  0  0  0  0
    8.0992  -15.3735   22.0141 N   0  0  0  0  0  0  0  0  0  0  0  0
    8.2108  -13.8980   21.9482 C   0  0  0  0  0  0  0  0  0  0  0  0
    7.5790  -13.6501   20.5877 C   0  0  0  0  0  0  0  0  0  0  0  0
    8.1448  -14.7704   19.7642 C   0  0  0  0  0  0  0  0  0  0  0  0
    8.6227  -15.8336   20.7474 C   0  0  1  0  0  0  0  0  0  0  0  0
   10.1069  -15.8527   20.8610 C   0  0  0  0  0  0  0  0  0  0  0  0
   10.7131  -15.1988   21.7473 O   0  0  0  0  0  0  0  0  0  0  0  0
   11.6129  -21.0865   21.3990 N   0  0  0  0  0  0  0  0  0  0  0  0
   11.9912  -19.7463   21.6703 C   0  0  0  0  0  0  0  0  0  0  0  0
   13.0393  -19.4756   22.3043 O   0  0  0  0  0  0  0  0  0  0  0  0
   11.1340  -18.6582   21.1963 C   0  0  0  0  0  0  0  0  0  0  0  0
   11.8786  -17.6073   20.4026 C   0  0  2  0  0  0  0  0  0  0  0  0
   10.9049  -16.6288   19.9497 N   0  0  0  0  0  0  0  0  0  0  0  0
   12.4643  -18.3510   19.2268 C   0  0  0  0  0  0  0  0  0  0  0  0
   13.8166  -18.1768   18.9836 O   0  0  0  0  0  0  0  0  0  0  0  0
   11.7613  -19.0811   18.5177 O   0  0  0  0  0  0  0  0  0  0  0  0
  2  1  1  0
  3  2  2  0
  4  3  1  0
  5  4  2  0
  5 11  1  0
  6  5  1  0
  7  6  1  0
  7  8  1  1
  9 13  1  0
  9  7  1  0
 10  9  2  0
 11 12  2  0
 12  2  1  0
 13 17  1  0
 14 13  1  0
 14 15  1  0
 16 17  1  0
 16 15  1  0
 18 25  1  0
 17 18  1  1
 19 18  2  0
 21 20  1  0
 21 22  2  0
 23 21  1  0
 24 23  1  1
 24 25  1  0
 26 27  1  0
 26 24  1  0
 28 26  2  0
M  END
$$$$
