YPN.pdb
     RDKit          3D

 28 29  0  0  1  0  0  0  0  0999 V2000
    9.5712  -23.1111   19.2261 O   0  0  0  0  0  0  0  0  0  0  0  0
    9.0444  -21.8342   19.2401 C   0  0  0  0  0  0  0  0  0  0  0  0
    7.7997  -21.6366   19.8106 C   0  0  0  0  0  0  0  0  0  0  0  0
    7.2455  -20.3863   19.8430 C   0  0  0  0  0  0  0  0  0  0  0  0
    7.9509  -19.3368   19.2983 C   0  0  0  0  0  0  0  0  0  0  0  0
    7.3402  -17.9900   19.3398 C   0  0  0  0  0  0  0  0  0  0  0  0
    8.2260  -16.9497   18.6756 C   0  0  2  0  0  0  0  0  0  0  0  0
    8.8378  -17.4297   17.4870 N   0  0  0  0  0  0  0  0  0  0  0  0
    9.1625  -16.4371   19.6839 C   0  0  0  0  0  0  0  0  0  0  0  0
   10.3945  -16.5221   19.3823 O   0  0  0  0  0  0  0  0  0  0  0  0
    9.1926  -19.4983   18.7224 C   0  0  0  0  0  0  0  0  0  0  0  0
    9.7396  -20.7708   18.6977 C   0  0  0  0  0  0  0  0  0  0  0  0
    8.8244  -15.8728   20.9253 N   0  0  0  0  0  0  0  0  0  0  0  0
    7.4376  -15.8559   21.4454 C   0  0  0  0  0  0  0  0  0  0  0  0
    7.3320  -14.3960   21.8567 C   0  0  0  0  0  0  0  0  0  0  0  0
    8.6749  -14.1414   22.4770 C   0  0  0  0  0  0  0  0  0  0  0  0
    9.6066  -15.2315   21.9583 C   0  0  1  0  0  0  0  0  0  0  0  0
    9.8912  -16.2559   23.0003 C   0  0  0  0  0  0  0  0  0  0  0  0
    9.0461  -17.1303   23.3195 O   0  0  0  0  0  0  0  0  0  0  0  0
   14.3959  -16.4012   22.8497 N   0  0  0  0  0  0  0  0  0  0  0  0
   13.6832  -17.5059   23.3829 C   0  0  0  0  0  0  0  0  0  0  0  0
   13.5967  -18.5927   22.7623 O   0  0  0  0  0  0  0  0  0  0  0  0
   13.0355  -17.3679   24.6886 C   0  0  0  0  0  0  0  0  0  0  0  0
   11.5250  -17.3351   24.6109 C   0  0  2  0  0  0  0  0  0  0  0  0
   11.1568  -16.2788   23.6837 N   0  0  0  0  0  0  0  0  0  0  0  0
   11.0714  -16.9908   26.0089 C   0  0  0  0  0  0  0  0  0  0  0  0
   11.2950  -17.9390   26.9934 O   0  0  0  0  0  0  0  0  0  0  0  0
   10.5255  -15.9086   26.2555 O   0  0  0  0  0  0  0  0  0  0  0  0
  2  1  1  0
  3  2  2  0
  4  3  1  0
  5  4  2  0
  5 11  1  0
  6  5  1  0
  7  6  1  0
  7  8  1  6
  9 13  1  0
  9  7  1  0
 10  9  2  0
 11 12  2  0
 12  2  1  0
 13 17  1  0
 14 13  1  0
 14 15  1  0
 16 17  1  0
 16 15  1  0
 18 25  1  0
 17 18  1  1
 19 18  2  0
 21 20  1  0
 21 22  2  0
 23 21  1  0
 24 23  1  1
 24 25  1  0
 26 27  1  0
 26 24  1  0
 28 26  2  0
M  END
$$$$
