KYP.pdb
     RDKit          3D

 29 30  0  0  1  0  0  0  0  0999 V2000
   20.5739  -21.9795  -13.4443 N   0  0  0  0  0  0  0  0  0  0  0  0
   20.9815  -20.7191  -14.0144 C   0  0  1  0  0  0  0  0  0  0  0  0
   19.9748  -19.6169  -13.7199 C   0  0  0  0  0  0  0  0  0  0  0  0
   18.9602  -19.4927  -14.8128 C   0  0  0  0  0  0  0  0  0  0  0  0
   19.3846  -20.0232  -16.1291 C   0  0  0  0  0  0  0  0  0  0  0  0
   18.4068  -19.8740  -17.2541 C   0  0  0  0  0  0  0  0  0  0  0  0
   19.0446  -19.3612  -18.4183 N   0  0  0  0  0  0  0  0  0  0  0  0
   22.2997  -20.3244  -13.4923 C   0  0  0  0  0  0  0  0  0  0  0  0
   22.6667  -19.1147  -13.4010 O   0  0  0  0  0  0  0  0  0  0  0  0
   28.0287  -19.7250   -7.2276 O   0  0  0  0  0  0  0  0  0  0  0  0
   27.2754  -20.2492   -8.2695 C   0  0  0  0  0  0  0  0  0  0  0  0
   25.9141  -20.0852   -8.2846 C   0  0  0  0  0  0  0  0  0  0  0  0
   25.1740  -20.6104   -9.3245 C   0  0  0  0  0  0  0  0  0  0  0  0
   25.7252  -21.3127  -10.3867 C   0  0  0  0  0  0  0  0  0  0  0  0
   24.9435  -21.8618  -11.4932 C   0  0  0  0  0  0  0  0  0  0  0  0
   24.5940  -20.9299  -12.6129 C   0  0  2  0  0  0  0  0  0  0  0  0
   23.2131  -21.2984  -13.0692 N   0  0  0  0  0  0  0  0  0  0  0  0
   25.4339  -20.9510  -13.7948 C   0  0  0  0  0  0  0  0  0  0  0  0
   24.9707  -21.6125  -14.8114 O   0  0  0  0  0  0  0  0  0  0  0  0
   27.1182  -21.4531  -10.3255 C   0  0  0  0  0  0  0  0  0  0  0  0
   27.8791  -20.9409   -9.3024 C   0  0  0  0  0  0  0  0  0  0  0  0
   26.6800  -20.3588  -14.0254 N   0  0  0  0  0  0  0  0  0  0  0  0
   27.5347  -19.7307  -13.0439 C   0  0  0  0  0  0  0  0  0  0  0  0
   27.8348  -18.4100  -13.7436 C   0  0  0  0  0  0  0  0  0  0  0  0
   27.7581  -18.7074  -15.2230 C   0  0  0  0  0  0  0  0  0  0  0  0
   27.3981  -20.1732  -15.2667 C   0  0  1  0  0  0  0  0  0  0  0  0
   28.5669  -21.0430  -15.4390 C   0  0  0  0  0  0  0  0  0  0  0  0
   28.9241  -21.7410  -14.4646 O   0  0  0  0  0  0  0  0  0  0  0  0
   29.3188  -21.1635  -16.5952 O   0  0  0  0  0  0  0  0  0  0  0  0
  2  1  1  1
  2  3  1  0
  3  4  1  0
  4  5  1  0
  6  7  1  0
  6  5  1  0
  8  2  1  0
  8  9  2  0
 10 11  1  0
 11 21  2  0
 12 11  1  0
 12 13  2  0
 13 14  1  0
 14 20  2  0
 14 15  1  0
 16 15  1  1
 16 17  1  0
 17  8  1  0
 18 16  1  0
 19 18  2  0
 21 20  1  0
 22 18  1  0
 22 26  1  0
 23 24  1  0
 23 22  1  0
 24 25  1  0
 26 25  1  0
 27 29  1  0
 26 27  1  1
 28 27  2  0
M  END
$$$$
