KYP.pdb
     RDKit          3D

 29 30  0  0  1  0  0  0  0  0999 V2000
   25.3819  -21.1939  -14.7583 N   0  0  0  0  0  0  0  0  0  0  0  0
   26.6380  -21.4868  -14.1131 C   0  0  1  0  0  0  0  0  0  0  0  0
   27.8006  -21.4287  -15.0928 C   0  0  0  0  0  0  0  0  0  0  0  0
   28.1599  -22.7896  -15.6007 C   0  0  0  0  0  0  0  0  0  0  0  0
   27.1845  -23.8581  -15.2828 C   0  0  0  0  0  0  0  0  0  0  0  0
   27.5141  -25.2312  -15.7828 C   0  0  0  0  0  0  0  0  0  0  0  0
   26.4943  -26.1593  -15.4311 N   0  0  0  0  0  0  0  0  0  0  0  0
   26.8815  -20.5383  -13.0143 C   0  0  0  0  0  0  0  0  0  0  0  0
   27.4828  -19.4352  -13.1816 O   0  0  0  0  0  0  0  0  0  0  0  0
   20.3519  -21.7407  -10.5965 O   0  0  0  0  0  0  0  0  0  0  0  0
   21.5698  -21.0740  -10.5989 C   0  0  0  0  0  0  0  0  0  0  0  0
   22.2734  -20.9308  -11.7671 C   0  0  0  0  0  0  0  0  0  0  0  0
   23.4833  -20.2668  -11.7590 C   0  0  0  0  0  0  0  0  0  0  0  0
   24.0550  -19.7175  -10.6202 C   0  0  0  0  0  0  0  0  0  0  0  0
   25.3320  -19.0062  -10.6118 C   0  0  0  0  0  0  0  0  0  0  0  0
   26.5783  -19.8375  -10.6017 C   0  0  2  0  0  0  0  0  0  0  0  0
   26.4451  -20.8329  -11.7163 N   0  0  0  0  0  0  0  0  0  0  0  0
   26.8693  -20.6018   -9.4042 C   0  0  0  0  0  0  0  0  0  0  0  0
   26.7475  -21.8903   -9.5068 O   0  0  0  0  0  0  0  0  0  0  0  0
   23.2980  -19.8900   -9.4534 C   0  0  0  0  0  0  0  0  0  0  0  0
   22.0913  -20.5467   -9.4328 C   0  0  0  0  0  0  0  0  0  0  0  0
   27.2739  -20.1710   -8.1364 N   0  0  0  0  0  0  0  0  0  0  0  0
   27.5369  -18.8100   -7.7279 C   0  0  0  0  0  0  0  0  0  0  0  0
   28.9001  -18.9784   -7.0666 C   0  0  0  0  0  0  0  0  0  0  0  0
   28.9231  -20.3937   -6.5382 C   0  0  0  0  0  0  0  0  0  0  0  0
   27.5794  -20.9438   -6.9530 C   0  0  1  0  0  0  0  0  0  0  0  0
   26.5753  -20.8615   -5.8866 C   0  0  0  0  0  0  0  0  0  0  0  0
   25.6134  -20.0789   -6.0493 O   0  0  0  0  0  0  0  0  0  0  0  0
   26.5952  -21.5799   -4.7033 O   0  0  0  0  0  0  0  0  0  0  0  0
  2  1  1  6
  2  3  1  0
  3  4  1  0
  4  5  1  0
  6  7  1  0
  6  5  1  0
  8  2  1  0
  8  9  2  0
 10 11  1  0
 11 21  2  0
 12 11  1  0
 12 13  2  0
 13 14  1  0
 14 20  2  0
 14 15  1  0
 16 15  1  1
 16 17  1  0
 17  8  1  0
 18 16  1  0
 19 18  2  0
 21 20  1  0
 22 18  1  0
 22 26  1  0
 23 24  1  0
 23 22  1  0
 24 25  1  0
 26 25  1  0
 27 29  1  0
 26 27  1  1
 28 27  2  0
M  END
$$$$
