KYP.pdb
     RDKit          3D

 29 30  0  0  1  0  0  0  0  0999 V2000
   22.5133  -26.5435  -17.3668 N   0  0  0  0  0  0  0  0  0  0  0  0
   23.8256  -26.1947  -16.8807 C   0  0  1  0  0  0  0  0  0  0  0  0
   24.8300  -26.0654  -18.0162 C   0  0  0  0  0  0  0  0  0  0  0  0
   25.5747  -27.3440  -18.2396 C   0  0  0  0  0  0  0  0  0  0  0  0
   26.6920  -27.5943  -17.2997 C   0  0  0  0  0  0  0  0  0  0  0  0
   27.5070  -28.8266  -17.5471 C   0  0  0  0  0  0  0  0  0  0  0  0
   28.5214  -28.9726  -16.5597 N   0  0  0  0  0  0  0  0  0  0  0  0
   23.7735  -24.9285  -16.1323 C   0  0  0  0  0  0  0  0  0  0  0  0
   23.1015  -23.9278  -16.5242 O   0  0  0  0  0  0  0  0  0  0  0  0
   25.1524  -19.3335   -9.2414 O   0  0  0  0  0  0  0  0  0  0  0  0
   25.0706  -20.4184  -10.1039 C   0  0  0  0  0  0  0  0  0  0  0  0
   23.8470  -20.9309  -10.4507 C   0  0  0  0  0  0  0  0  0  0  0  0
   23.7762  -22.0099  -11.3084 C   0  0  0  0  0  0  0  0  0  0  0  0
   24.8871  -22.6308  -11.8613 C   0  0  0  0  0  0  0  0  0  0  0  0
   24.8133  -23.7680  -12.7769 C   0  0  0  0  0  0  0  0  0  0  0  0
   24.5621  -23.4672  -14.2228 C   0  0  2  0  0  0  0  0  0  0  0  0
   24.4831  -24.7864  -14.9331 N   0  0  0  0  0  0  0  0  0  0  0  0
   25.5542  -22.6812  -14.9302 C   0  0  0  0  0  0  0  0  0  0  0  0
   26.4836  -23.3518  -15.5402 O   0  0  0  0  0  0  0  0  0  0  0  0
   26.1128  -22.0706  -11.4768 C   0  0  0  0  0  0  0  0  0  0  0  0
   26.2123  -20.9974  -10.6247 C   0  0  0  0  0  0  0  0  0  0  0  0
   25.6717  -21.2945  -15.0717 N   0  0  0  0  0  0  0  0  0  0  0  0
   24.8720  -20.2865  -14.4138 C   0  0  0  0  0  0  0  0  0  0  0  0
   24.4768  -19.4248  -15.6076 C   0  0  0  0  0  0  0  0  0  0  0  0
   25.6022  -19.5718  -16.6050 C   0  0  0  0  0  0  0  0  0  0  0  0
   26.5531  -20.5249  -15.9213 C   0  0  1  0  0  0  0  0  0  0  0  0
   27.6424  -19.8380  -15.2186 C   0  0  0  0  0  0  0  0  0  0  0  0
   27.5258  -19.6677  -13.9850 O   0  0  0  0  0  0  0  0  0  0  0  0
   28.8014  -19.3560  -15.8029 O   0  0  0  0  0  0  0  0  0  0  0  0
  2  1  1  6
  2  3  1  0
  3  4  1  0
  4  5  1  0
  6  7  1  0
  6  5  1  0
  8  2  1  0
  8  9  2  0
 10 11  1  0
 11 21  2  0
 12 11  1  0
 12 13  2  0
 13 14  1  0
 14 20  2  0
 14 15  1  0
 16 15  1  1
 16 17  1  0
 17  8  1  0
 18 16  1  0
 19 18  2  0
 21 20  1  0
 22 18  1  0
 22 26  1  0
 23 24  1  0
 23 22  1  0
 24 25  1  0
 26 25  1  0
 27 29  1  0
 26 27  1  1
 28 27  2  0
M  END
$$$$
