KYP.pdb
     RDKit          3D

 29 30  0  0  1  0  0  0  0  0999 V2000
   23.5661  -23.1237  -18.6958 N   0  0  0  0  0  0  0  0  0  0  0  0
   24.3630  -23.4392  -17.5359 C   0  0  1  0  0  0  0  0  0  0  0  0
   25.8077  -23.7361  -17.9098 C   0  0  0  0  0  0  0  0  0  0  0  0
   26.0594  -25.2082  -18.0050 C   0  0  0  0  0  0  0  0  0  0  0  0
   24.9332  -26.0687  -17.5743 C   0  0  0  0  0  0  0  0  0  0  0  0
   25.2983  -27.3810  -16.9510 C   0  0  0  0  0  0  0  0  0  0  0  0
   26.6489  -27.7236  -17.2403 N   0  0  0  0  0  0  0  0  0  0  0  0
   24.3297  -22.3253  -16.5745 C   0  0  0  0  0  0  0  0  0  0  0  0
   24.6261  -21.1351  -16.8939 O   0  0  0  0  0  0  0  0  0  0  0  0
   19.2428  -18.4983  -17.7708 O   0  0  0  0  0  0  0  0  0  0  0  0
   20.0204  -19.1688  -16.8362 C   0  0  0  0  0  0  0  0  0  0  0  0
   20.7646  -18.4624  -15.9265 C   0  0  0  0  0  0  0  0  0  0  0  0
   21.5346  -19.1382  -15.0017 C   0  0  0  0  0  0  0  0  0  0  0  0
   21.6115  -20.5214  -14.9242 C   0  0  0  0  0  0  0  0  0  0  0  0
   22.4197  -21.2384  -13.9395 C   0  0  0  0  0  0  0  0  0  0  0  0
   23.8723  -21.4272  -14.2533 C   0  0  2  0  0  0  0  0  0  0  0  0
   23.9600  -22.5517  -15.2426 N   0  0  0  0  0  0  0  0  0  0  0  0
   24.7587  -21.7752  -13.1598 C   0  0  0  0  0  0  0  0  0  0  0  0
   24.7963  -23.0315  -12.8344 O   0  0  0  0  0  0  0  0  0  0  0  0
   20.8336  -21.1971  -15.8741 C   0  0  0  0  0  0  0  0  0  0  0  0
   20.0584  -20.5499  -16.8059 C   0  0  0  0  0  0  0  0  0  0  0  0
   25.6001  -20.9658  -12.3893 N   0  0  0  0  0  0  0  0  0  0  0  0
   25.9295  -19.5801  -12.6334 C   0  0  0  0  0  0  0  0  0  0  0  0
   27.4492  -19.6342  -12.5263 C   0  0  0  0  0  0  0  0  0  0  0  0
   27.7491  -20.7675  -11.5730 C   0  0  0  0  0  0  0  0  0  0  0  0
   26.3803  -21.2970  -11.2178 C   0  0  1  0  0  0  0  0  0  0  0  0
   25.8653  -20.7481   -9.9585 C   0  0  0  0  0  0  0  0  0  0  0  0
   26.3898  -21.1401   -8.8929 O   0  0  0  0  0  0  0  0  0  0  0  0
   24.8405  -19.8248   -9.8407 O   0  0  0  0  0  0  0  0  0  0  0  0
  2  1  1  6
  2  3  1  0
  3  4  1  0
  4  5  1  0
  6  7  1  0
  6  5  1  0
  8  2  1  0
  8  9  2  0
 10 11  1  0
 11 21  2  0
 12 11  1  0
 12 13  2  0
 13 14  1  0
 14 20  2  0
 14 15  1  0
 16 15  1  1
 16 17  1  0
 17  8  1  0
 18 16  1  0
 19 18  2  0
 21 20  1  0
 22 18  1  0
 22 26  1  0
 23 24  1  0
 23 22  1  0
 24 25  1  0
 26 25  1  0
 27 29  1  0
 26 27  1  1
 28 27  2  0
M  END
$$$$
