KYP.pdb
     RDKit          3D

 29 30  0  0  1  0  0  0  0  0999 V2000
   21.7019  -14.9736  -17.6308 N   0  0  0  0  0  0  0  0  0  0  0  0
   22.7980  -15.8020  -18.0693 C   0  0  1  0  0  0  0  0  0  0  0  0
   23.7374  -15.0467  -18.9978 C   0  0  0  0  0  0  0  0  0  0  0  0
   23.1642  -14.9182  -20.3741 C   0  0  0  0  0  0  0  0  0  0  0  0
   22.6915  -16.1845  -20.9800 C   0  0  0  0  0  0  0  0  0  0  0  0
   22.1281  -16.0907  -22.3648 C   0  0  0  0  0  0  0  0  0  0  0  0
   21.5966  -17.3425  -22.7840 N   0  0  0  0  0  0  0  0  0  0  0  0
   23.5572  -16.3002  -16.9111 C   0  0  0  0  0  0  0  0  0  0  0  0
   24.6023  -15.7279  -16.4790 O   0  0  0  0  0  0  0  0  0  0  0  0
   25.2112  -21.6494   -9.8525 O   0  0  0  0  0  0  0  0  0  0  0  0
   24.6749  -20.9215  -10.9062 C   0  0  0  0  0  0  0  0  0  0  0  0
   24.5268  -21.5030  -12.1391 C   0  0  0  0  0  0  0  0  0  0  0  0
   23.9929  -20.7708  -13.1802 C   0  0  0  0  0  0  0  0  0  0  0  0
   23.5832  -19.4502  -13.0649 C   0  0  0  0  0  0  0  0  0  0  0  0
   23.0095  -18.6764  -14.1645 C   0  0  0  0  0  0  0  0  0  0  0  0
   23.9654  -18.0610  -15.1400 C   0  0  2  0  0  0  0  0  0  0  0  0
   23.1377  -17.4519  -16.2332 N   0  0  0  0  0  0  0  0  0  0  0  0
   24.9212  -18.9359  -15.7908 C   0  0  0  0  0  0  0  0  0  0  0  0
   24.5605  -19.4196  -16.9403 O   0  0  0  0  0  0  0  0  0  0  0  0
   23.7548  -18.9018  -11.7867 C   0  0  0  0  0  0  0  0  0  0  0  0
   24.2836  -19.6074  -10.7330 C   0  0  0  0  0  0  0  0  0  0  0  0
   26.1937  -19.3455  -15.3789 N   0  0  0  0  0  0  0  0  0  0  0  0
   26.8525  -19.0068  -14.1380 C   0  0  0  0  0  0  0  0  0  0  0  0
   28.2067  -18.5426  -14.6618 C   0  0  0  0  0  0  0  0  0  0  0  0
   28.4302  -19.3085  -15.9449 C   0  0  0  0  0  0  0  0  0  0  0  0
   27.1780  -20.1419  -16.0773 C   0  0  1  0  0  0  0  0  0  0  0  0
   27.3439  -21.5064  -15.5644 C   0  0  0  0  0  0  0  0  0  0  0  0
   26.7157  -21.8218  -14.5300 O   0  0  0  0  0  0  0  0  0  0  0  0
   28.1410  -22.4882  -16.1278 O   0  0  0  0  0  0  0  0  0  0  0  0
  2  1  1  1
  2  3  1  0
  3  4  1  0
  4  5  1  0
  6  7  1  0
  6  5  1  0
  8  2  1  0
  8  9  2  0
 10 11  1  0
 11 21  2  0
 12 11  1  0
 12 13  2  0
 13 14  1  0
 14 20  2  0
 14 15  1  0
 16 15  1  1
 16 17  1  0
 17  8  1  0
 18 16  1  0
 19 18  2  0
 21 20  1  0
 22 18  1  0
 22 26  1  0
 23 24  1  0
 23 22  1  0
 24 25  1  0
 26 25  1  0
 27 29  1  0
 26 27  1  1
 28 27  2  0
M  END
$$$$
