KYP.pdb
     RDKit          3D

 29 30  0  0  1  0  0  0  0  0999 V2000
   23.5682  -26.3584  -16.3158 N   0  0  0  0  0  0  0  0  0  0  0  0
   24.7581  -25.6365  -15.9378 C   0  0  1  0  0  0  0  0  0  0  0  0
   25.5071  -25.1110  -17.1534 C   0  0  0  0  0  0  0  0  0  0  0  0
   26.3196  -26.1854  -17.8052 C   0  0  0  0  0  0  0  0  0  0  0  0
   27.4535  -26.6940  -16.9989 C   0  0  0  0  0  0  0  0  0  0  0  0
   28.3237  -27.7252  -17.6495 C   0  0  0  0  0  0  0  0  0  0  0  0
   29.3827  -28.1173  -16.7835 N   0  0  0  0  0  0  0  0  0  0  0  0
   24.4137  -24.5099  -15.0556 C   0  0  0  0  0  0  0  0  0  0  0  0
   23.2787  -23.9461  -15.0752 O   0  0  0  0  0  0  0  0  0  0  0  0
   25.8107  -18.3989   -8.5807 O   0  0  0  0  0  0  0  0  0  0  0  0
   25.8824  -19.4533   -9.4812 C   0  0  0  0  0  0  0  0  0  0  0  0
   26.4543  -19.2678  -10.7135 C   0  0  0  0  0  0  0  0  0  0  0  0
   26.5205  -20.3221  -11.6018 C   0  0  0  0  0  0  0  0  0  0  0  0
   26.0358  -21.5932  -11.3288 C   0  0  0  0  0  0  0  0  0  0  0  0
   26.1132  -22.7130  -12.2653 C   0  0  0  0  0  0  0  0  0  0  0  0
   25.1019  -22.7526  -13.3698 C   0  0  2  0  0  0  0  0  0  0  0  0
   25.3536  -24.0130  -14.1438 N   0  0  0  0  0  0  0  0  0  0  0  0
   25.1155  -21.6708  -14.3354 C   0  0  0  0  0  0  0  0  0  0  0  0
   25.8911  -21.8345  -15.3637 O   0  0  0  0  0  0  0  0  0  0  0  0
   25.4615  -21.7317  -10.0579 C   0  0  0  0  0  0  0  0  0  0  0  0
   25.3823  -20.6995   -9.1545 C   0  0  0  0  0  0  0  0  0  0  0  0
   24.4119  -20.4619  -14.3442 N   0  0  0  0  0  0  0  0  0  0  0  0
   23.5962  -19.9275  -13.2777 C   0  0  0  0  0  0  0  0  0  0  0  0
   22.3264  -19.5824  -14.0474 C   0  0  0  0  0  0  0  0  0  0  0  0
   22.7767  -19.2730  -15.4561 C   0  0  0  0  0  0  0  0  0  0  0  0
   24.2708  -19.4838  -15.3998 C   0  0  1  0  0  0  0  0  0  0  0  0
   25.0153  -18.2374  -15.1891 C   0  0  0  0  0  0  0  0  0  0  0  0
   25.5087  -18.0360  -14.0576 O   0  0  0  0  0  0  0  0  0  0  0  0
   25.2246  -17.2526  -16.1395 O   0  0  0  0  0  0  0  0  0  0  0  0
  2  1  1  6
  2  3  1  0
  3  4  1  0
  4  5  1  0
  6  7  1  0
  6  5  1  0
  8  2  1  0
  8  9  2  0
 10 11  1  0
 11 21  2  0
 12 11  1  0
 12 13  2  0
 13 14  1  0
 14 20  2  0
 14 15  1  0
 16 15  1  1
 16 17  1  0
 17  8  1  0
 18 16  1  0
 19 18  2  0
 21 20  1  0
 22 18  1  0
 22 26  1  0
 23 24  1  0
 23 22  1  0
 24 25  1  0
 26 25  1  0
 27 29  1  0
 26 27  1  1
 28 27  2  0
M  END
$$$$
