KYP.pdb
     RDKit          3D

 29 30  0  0  1  0  0  0  0  0999 V2000
   19.9287  -18.1450  -18.2500 N   0  0  0  0  0  0  0  0  0  0  0  0
   21.0518  -19.0275  -18.4493 C   0  0  1  0  0  0  0  0  0  0  0  0
   21.3793  -19.1966  -19.9255 C   0  0  0  0  0  0  0  0  0  0  0  0
   21.1042  -20.5912  -20.3933 C   0  0  0  0  0  0  0  0  0  0  0  0
   21.7292  -21.6620  -19.5828 C   0  0  0  0  0  0  0  0  0  0  0  0
   21.5769  -23.0609  -20.0962 C   0  0  0  0  0  0  0  0  0  0  0  0
   22.1374  -24.0009  -19.1865 N   0  0  0  0  0  0  0  0  0  0  0  0
   22.2374  -18.5130  -17.7451 C   0  0  0  0  0  0  0  0  0  0  0  0
   22.7334  -17.3710  -17.9820 O   0  0  0  0  0  0  0  0  0  0  0  0
   20.4049  -22.0509  -11.9226 O   0  0  0  0  0  0  0  0  0  0  0  0
   21.2560  -21.1915  -12.6043 C   0  0  0  0  0  0  0  0  0  0  0  0
   22.6044  -21.4384  -12.6333 C   0  0  0  0  0  0  0  0  0  0  0  0
   23.4422  -20.5778  -13.3133 C   0  0  0  0  0  0  0  0  0  0  0  0
   23.0046  -19.4481  -13.9897 C   0  0  0  0  0  0  0  0  0  0  0  0
   23.8898  -18.5407  -14.7178 C   0  0  0  0  0  0  0  0  0  0  0  0
   24.1723  -18.8653  -16.1527 C   0  0  2  0  0  0  0  0  0  0  0  0
   22.8705  -19.2894  -16.7662 N   0  0  0  0  0  0  0  0  0  0  0  0
   25.1197  -19.9275  -16.4299 C   0  0  0  0  0  0  0  0  0  0  0  0
   24.6338  -20.9922  -16.9919 O   0  0  0  0  0  0  0  0  0  0  0  0
   21.6200  -19.2398  -13.9307 C   0  0  0  0  0  0  0  0  0  0  0  0
   20.7633  -20.0798  -13.2610 C   0  0  0  0  0  0  0  0  0  0  0  0
   26.4969  -19.9910  -16.1934 N   0  0  0  0  0  0  0  0  0  0  0  0
   27.2854  -19.0619  -15.4166 C   0  0  0  0  0  0  0  0  0  0  0  0
   28.4225  -18.7812  -16.3924 C   0  0  0  0  0  0  0  0  0  0  0  0
   28.5588  -20.0325  -17.2281 C   0  0  0  0  0  0  0  0  0  0  0  0
   27.4755  -20.9344  -16.6866 C   0  0  1  0  0  0  0  0  0  0  0  0
   27.9724  -21.8865  -15.6872 C   0  0  0  0  0  0  0  0  0  0  0  0
   27.5930  -21.7426  -14.5041 O   0  0  0  0  0  0  0  0  0  0  0  0
   28.8323  -22.9424  -15.9371 O   0  0  0  0  0  0  0  0  0  0  0  0
  2  1  1  6
  2  3  1  0
  3  4  1  0
  4  5  1  0
  6  7  1  0
  6  5  1  0
  8  2  1  0
  8  9  2  0
 10 11  1  0
 11 21  2  0
 12 11  1  0
 12 13  2  0
 13 14  1  0
 14 20  2  0
 14 15  1  0
 16 15  1  1
 16 17  1  0
 17  8  1  0
 18 16  1  0
 19 18  2  0
 21 20  1  0
 22 18  1  0
 22 26  1  0
 23 24  1  0
 23 22  1  0
 24 25  1  0
 26 25  1  0
 27 29  1  0
 26 27  1  1
 28 27  2  0
M  END
$$$$
