HDS.pdb
     RDKit          3D

 25 25  0  0  1  0  0  0  0  0999 V2000
   20.0313  -12.9816  -18.5497 N   0  0  0  0  0  0  0  0  0  0  0  0
   19.7316  -12.0968  -17.4675 C   0  0  1  0  0  0  0  0  0  0  0  0
   20.2212  -12.6905  -16.1656 C   0  0  0  0  0  0  0  0  0  0  0  0
   19.3756  -13.8902  -15.8837 C   0  0  0  0  0  0  0  0  0  0  0  0
   19.6959  -15.2252  -16.0146 C   0  0  0  0  0  0  0  0  0  0  0  0
   18.6519  -15.9600  -15.6564 N   0  0  0  0  0  0  0  0  0  0  0  0
   17.6494  -15.1483  -15.2920 C   0  0  0  0  0  0  0  0  0  0  0  0
   18.0904  -13.8942  -15.4306 N   0  0  0  0  0  0  0  0  0  0  0  0
   20.2861  -10.7423  -17.7020 C   0  0  0  0  0  0  0  0  0  0  0  0
   21.4620  -10.6578  -18.1385 O   0  0  0  0  0  0  0  0  0  0  0  0
   19.5711   -9.5527  -17.4637 N   0  0  0  0  0  0  0  0  0  0  0  0
   20.1015   -8.2307  -17.6485 C   0  0  1  0  0  0  0  0  0  0  0  0
   19.2248   -7.3929  -18.5273 C   0  0  0  0  0  0  0  0  0  0  0  0
   19.7715   -6.0485  -18.8168 C   0  0  0  0  0  0  0  0  0  0  0  0
   20.8917   -5.8318  -19.3374 O   0  0  0  0  0  0  0  0  0  0  0  0
   20.2793   -7.5053  -16.3638 C   0  0  0  0  0  0  0  0  0  0  0  0
   19.4185   -7.7063  -15.4687 O   0  0  0  0  0  0  0  0  0  0  0  0
   18.9920   -4.9501  -18.4904 O   0  0  0  0  0  0  0  0  0  0  0  0
   22.9174   -4.4213  -13.6162 O   0  0  0  0  0  0  0  0  0  0  0  0
   22.7641   -5.0576  -14.8456 C   0  0  0  0  0  0  0  0  0  0  0  0
   21.5321   -5.9353  -14.8412 C   0  0  2  0  0  0  0  0  0  0  0  0
   21.3546   -6.6156  -16.1094 N   0  0  0  0  0  0  0  0  0  0  0  0
   20.3601   -5.0800  -14.5880 C   0  0  0  0  0  0  0  0  0  0  0  0
   19.8092   -4.9906  -13.3306 O   0  0  0  0  0  0  0  0  0  0  0  0
   19.8622   -4.4280  -15.5315 O   0  0  0  0  0  0  0  0  0  0  0  0
  2  1  1  6
  3  2  1  0
  4  3  1  0
  5  4  2  0
  6  7  1  0
  6  5  1  0
  7  8  2  0
  8  4  1  0
  9 10  2  0
  9  2  1  0
 11  9  1  0
 12 16  1  0
 12 11  1  0
 12 13  1  6
 14 13  1  0
 14 15  2  0
 16 22  1  0
 17 16  2  0
 18 14  1  0
 20 19  1  0
 21 20  1  6
 21 23  1  0
 22 21  1  0
 23 25  2  0
 23 24  1  0
M  END
$$$$
