HDS.pdb
     RDKit          3D

 25 25  0  0  1  0  0  0  0  0999 V2000
   27.1340  -36.0185   -7.1913 N   0  0  0  0  0  0  0  0  0  0  0  0
   27.7806  -35.2636   -6.1639 C   0  0  1  0  0  0  0  0  0  0  0  0
   27.0599  -33.9500   -5.9583 C   0  0  0  0  0  0  0  0  0  0  0  0
   27.2835  -33.1285   -7.1866 C   0  0  0  0  0  0  0  0  0  0  0  0
   28.4376  -32.5060   -7.6134 C   0  0  0  0  0  0  0  0  0  0  0  0
   28.1971  -31.8812   -8.7579 N   0  0  0  0  0  0  0  0  0  0  0  0
   26.9155  -32.0730   -9.1006 C   0  0  0  0  0  0  0  0  0  0  0  0
   26.3638  -32.8294   -8.1467 N   0  0  0  0  0  0  0  0  0  0  0  0
   27.8895  -36.0388   -4.9052 C   0  0  0  0  0  0  0  0  0  0  0  0
   26.9274  -36.7843   -4.5908 O   0  0  0  0  0  0  0  0  0  0  0  0
   29.0057  -35.9855   -4.0482 N   0  0  0  0  0  0  0  0  0  0  0  0
   29.1264  -36.7183   -2.8186 C   0  0  1  0  0  0  0  0  0  0  0  0
   30.5519  -36.8378   -2.3753 C   0  0  0  0  0  0  0  0  0  0  0  0
   31.3798  -37.7089   -3.2390 C   0  0  0  0  0  0  0  0  0  0  0  0
   31.0035  -38.8076   -3.7126 O   0  0  0  0  0  0  0  0  0  0  0  0
   28.3585  -36.0963   -1.7090 C   0  0  0  0  0  0  0  0  0  0  0  0
   28.2123  -34.8473   -1.7432 O   0  0  0  0  0  0  0  0  0  0  0  0
   32.6618  -37.2822   -3.5475 O   0  0  0  0  0  0  0  0  0  0  0  0
   25.5081  -36.6544    2.2259 O   0  0  0  0  0  0  0  0  0  0  0  0
   26.3585  -37.2600    1.3041 C   0  0  0  0  0  0  0  0  0  0  0  0
   27.0043  -36.2221    0.4131 C   0  0  2  0  0  0  0  0  0  0  0  0
   27.7955  -36.8347   -0.6363 N   0  0  0  0  0  0  0  0  0  0  0  0
   27.8817  -35.3833    1.2471 C   0  0  0  0  0  0  0  0  0  0  0  0
   29.2482  -35.4171    1.0913 O   0  0  0  0  0  0  0  0  0  0  0  0
   27.3737  -34.6316    2.1074 O   0  0  0  0  0  0  0  0  0  0  0  0
  2  1  1  6
  3  2  1  0
  4  3  1  0
  5  4  2  0
  6  7  1  0
  6  5  1  0
  7  8  2  0
  8  4  1  0
  9 10  2  0
  9  2  1  0
 11  9  1  0
 12 16  1  0
 12 11  1  0
 12 13  1  1
 14 13  1  0
 14 15  2  0
 16 22  1  0
 17 16  2  0
 18 14  1  0
 20 19  1  0
 21 20  1  1
 21 23  1  0
 22 21  1  0
 23 25  2  0
 23 24  1  0
M  END
$$$$
