HDS.pdb
     RDKit          3D

 25 25  0  0  1  0  0  0  0  0999 V2000
   17.6963  -11.6981  -17.6911 N   0  0  0  0  0  0  0  0  0  0  0  0
   18.5661  -11.1935  -16.6749 C   0  0  1  0  0  0  0  0  0  0  0  0
   19.8302  -12.0219  -16.6207 C   0  0  0  0  0  0  0  0  0  0  0  0
   19.4497  -13.3721  -16.1049 C   0  0  0  0  0  0  0  0  0  0  0  0
   18.2439  -13.7912  -15.5832 C   0  0  0  0  0  0  0  0  0  0  0  0
   18.3371  -15.0701  -15.2455 N   0  0  0  0  0  0  0  0  0  0  0  0
   19.5713  -15.5091  -15.5294 C   0  0  0  0  0  0  0  0  0  0  0  0
   20.2439  -14.4781  -16.0503 N   0  0  0  0  0  0  0  0  0  0  0  0
   18.8554   -9.7532  -16.8717 C   0  0  0  0  0  0  0  0  0  0  0  0
   19.3450   -9.3989  -17.9740 O   0  0  0  0  0  0  0  0  0  0  0  0
   18.6129   -8.7667  -15.8965 N   0  0  0  0  0  0  0  0  0  0  0  0
   18.9156   -7.3713  -16.0541 C   0  0  1  0  0  0  0  0  0  0  0  0
   17.8093   -6.4975  -15.5487 C   0  0  0  0  0  0  0  0  0  0  0  0
   16.5658   -6.5787  -16.3469 C   0  0  0  0  0  0  0  0  0  0  0  0
   16.4931   -6.3508  -17.5780 O   0  0  0  0  0  0  0  0  0  0  0  0
   20.1619   -6.9772  -15.3475 C   0  0  0  0  0  0  0  0  0  0  0  0
   20.3303   -7.4315  -14.1865 O   0  0  0  0  0  0  0  0  0  0  0  0
   15.3979   -6.9313  -15.6892 O   0  0  0  0  0  0  0  0  0  0  0  0
   24.4638   -4.6355  -15.4242 O   0  0  0  0  0  0  0  0  0  0  0  0
   23.2632   -4.9000  -16.0786 C   0  0  0  0  0  0  0  0  0  0  0  0
   22.3649   -5.7596  -15.2170 C   0  0  2  0  0  0  0  0  0  0  0  0
   21.1482   -6.1290  -15.9138 N   0  0  0  0  0  0  0  0  0  0  0  0
   22.0121   -4.9902  -14.0117 C   0  0  0  0  0  0  0  0  0  0  0  0
   22.6421   -5.2283  -12.8120 O   0  0  0  0  0  0  0  0  0  0  0  0
   21.1276   -4.1096  -14.0840 O   0  0  0  0  0  0  0  0  0  0  0  0
  2  1  1  6
  3  2  1  0
  4  3  1  0
  5  4  2  0
  6  7  1  0
  6  5  1  0
  7  8  2  0
  8  4  1  0
  9 10  2  0
  9  2  1  0
 11  9  1  0
 12 16  1  0
 12 11  1  0
 12 13  1  1
 14 13  1  0
 14 15  2  0
 16 22  1  0
 17 16  2  0
 18 14  1  0
 20 19  1  0
 21 20  1  6
 21 23  1  0
 22 21  1  0
 23 25  2  0
 23 24  1  0
M  END
$$$$
