HDS.pdb
     RDKit          3D

 25 25  0  0  1  0  0  0  0  0999 V2000
   22.2704  -17.4964  -17.7112 N   0  0  0  0  0  0  0  0  0  0  0  0
   23.2154  -18.1408  -16.8535 C   0  0  1  0  0  0  0  0  0  0  0  0
   24.1922  -17.1238  -16.3067 C   0  0  0  0  0  0  0  0  0  0  0  0
   24.8558  -16.4766  -17.4791 C   0  0  0  0  0  0  0  0  0  0  0  0
   25.1717  -15.1480  -17.6705 C   0  0  0  0  0  0  0  0  0  0  0  0
   25.7545  -15.0054  -18.8529 N   0  0  0  0  0  0  0  0  0  0  0  0
   25.8332  -16.2031  -19.4496 C   0  0  0  0  0  0  0  0  0  0  0  0
   25.2878  -17.0933  -18.6150 N   0  0  0  0  0  0  0  0  0  0  0  0
   22.5413  -18.8985  -15.7725 C   0  0  0  0  0  0  0  0  0  0  0  0
   23.2382  -19.6917  -15.0901 O   0  0  0  0  0  0  0  0  0  0  0  0
   21.1710  -18.7786  -15.4708 N   0  0  0  0  0  0  0  0  0  0  0  0
   20.4972  -19.5066  -14.4320 C   0  0  1  0  0  0  0  0  0  0  0  0
   20.4795  -18.7510  -13.1391 C   0  0  0  0  0  0  0  0  0  0  0  0
   20.5231  -19.6134  -11.9373 C   0  0  0  0  0  0  0  0  0  0  0  0
   20.6963  -20.8554  -11.9573 O   0  0  0  0  0  0  0  0  0  0  0  0
   19.0907  -19.8303  -14.7857 C   0  0  0  0  0  0  0  0  0  0  0  0
   18.4517  -18.9672  -15.4409 O   0  0  0  0  0  0  0  0  0  0  0  0
   20.3614  -19.0076  -10.7012 O   0  0  0  0  0  0  0  0  0  0  0  0
   15.4541  -23.0973  -14.9441 O   0  0  0  0  0  0  0  0  0  0  0  0
   16.7793  -22.8271  -14.6116 C   0  0  0  0  0  0  0  0  0  0  0  0
   17.0852  -21.3569  -14.7935 C   0  0  2  0  0  0  0  0  0  0  0  0
   18.4521  -21.0445  -14.4242 N   0  0  0  0  0  0  0  0  0  0  0  0
   16.1689  -20.5878  -13.9343 C   0  0  0  0  0  0  0  0  0  0  0  0
   15.0440  -19.9920  -14.4561 O   0  0  0  0  0  0  0  0  0  0  0  0
   16.4205  -20.4774  -12.7146 O   0  0  0  0  0  0  0  0  0  0  0  0
  2  1  1  1
  3  2  1  0
  4  3  1  0
  5  4  2  0
  6  7  1  0
  6  5  1  0
  7  8  2  0
  8  4  1  0
  9 10  2  0
  9  2  1  0
 11  9  1  0
 12 16  1  0
 12 11  1  0
 12 13  1  1
 14 13  1  0
 14 15  2  0
 16 22  1  0
 17 16  2  0
 18 14  1  0
 20 19  1  0
 21 20  1  1
 21 23  1  0
 22 21  1  0
 23 25  2  0
 23 24  1  0
M  END
$$$$
