HDS.pdb
     RDKit          3D

 25 25  0  0  1  0  0  0  0  0999 V2000
   20.7977  -10.8616  -19.3429 N   0  0  0  0  0  0  0  0  0  0  0  0
   21.6708  -11.1859  -18.2584 C   0  0  1  0  0  0  0  0  0  0  0  0
   22.6551  -12.2499  -18.6896 C   0  0  0  0  0  0  0  0  0  0  0  0
   21.8597  -13.4560  -19.0723 C   0  0  0  0  0  0  0  0  0  0  0  0
   21.5735  -13.9405  -20.3313 C   0  0  0  0  0  0  0  0  0  0  0  0
   20.8365  -15.0370  -20.2182 N   0  0  0  0  0  0  0  0  0  0  0  0
   20.6269  -15.2917  -18.9190 C   0  0  0  0  0  0  0  0  0  0  0  0
   21.2481  -14.3320  -18.2264 N   0  0  0  0  0  0  0  0  0  0  0  0
   22.3533   -9.9810  -17.7299 C   0  0  0  0  0  0  0  0  0  0  0  0
   23.1911  -10.1396  -16.8061 O   0  0  0  0  0  0  0  0  0  0  0  0
   22.1154   -8.6765  -18.2039 N   0  0  0  0  0  0  0  0  0  0  0  0
   22.7486   -7.4935  -17.6911 C   0  0  1  0  0  0  0  0  0  0  0  0
   23.3289   -6.6499  -18.7840 C   0  0  0  0  0  0  0  0  0  0  0  0
   24.4999   -7.2566  -19.4554 C   0  0  0  0  0  0  0  0  0  0  0  0
   25.5529   -7.6080  -18.8718 O   0  0  0  0  0  0  0  0  0  0  0  0
   21.8141   -6.6420  -16.9104 C   0  0  0  0  0  0  0  0  0  0  0  0
   20.7253   -6.3336  -17.4599 O   0  0  0  0  0  0  0  0  0  0  0  0
   24.4299   -7.4510  -20.8258 O   0  0  0  0  0  0  0  0  0  0  0  0
   22.5429   -5.4016  -12.8877 O   0  0  0  0  0  0  0  0  0  0  0  0
   21.2580   -5.6787  -13.3483 C   0  0  0  0  0  0  0  0  0  0  0  0
   21.1482   -5.3870  -14.8285 C   0  0  2  0  0  0  0  0  0  0  0  0
   22.0912   -6.1724  -15.6006 N   0  0  0  0  0  0  0  0  0  0  0  0
   21.4320   -3.9569  -15.0366 C   0  0  0  0  0  0  0  0  0  0  0  0
   20.5580   -2.9913  -14.5933 O   0  0  0  0  0  0  0  0  0  0  0  0
   22.4827   -3.6200  -15.6247 O   0  0  0  0  0  0  0  0  0  0  0  0
  2  1  1  6
  3  2  1  0
  4  3  1  0
  5  4  2  0
  6  7  1  0
  6  5  1  0
  7  8  2  0
  8  4  1  0
  9 10  2  0
  9  2  1  0
 11  9  1  0
 12 16  1  0
 12 11  1  0
 12 13  1  6
 14 13  1  0
 14 15  2  0
 16 22  1  0
 17 16  2  0
 18 14  1  0
 20 19  1  0
 21 20  1  1
 21 23  1  0
 22 21  1  0
 23 25  2  0
 23 24  1  0
M  END
$$$$
