HDS.pdb
     RDKit          3D

 25 25  0  0  1  0  0  0  0  0999 V2000
   14.9687  -12.2801  -11.3994 N   0  0  0  0  0  0  0  0  0  0  0  0
   14.3056  -11.0343  -11.1710 C   0  0  1  0  0  0  0  0  0  0  0  0
   13.3562  -11.1629  -10.0008 C   0  0  0  0  0  0  0  0  0  0  0  0
   12.2096  -12.0070  -10.4552 C   0  0  0  0  0  0  0  0  0  0  0  0
   11.8473  -12.3565  -11.7391 C   0  0  0  0  0  0  0  0  0  0  0  0
   10.7639  -13.1195  -11.6928 N   0  0  0  0  0  0  0  0  0  0  0  0
   10.3989  -13.2847  -10.4137 C   0  0  0  0  0  0  0  0  0  0  0  0
   11.2766  -12.6094   -9.6654 N   0  0  0  0  0  0  0  0  0  0  0  0
   15.2743   -9.9289  -10.9798 C   0  0  0  0  0  0  0  0  0  0  0  0
   16.1314  -10.0516  -10.0684 O   0  0  0  0  0  0  0  0  0  0  0  0
   15.2860   -8.7560  -11.7592 N   0  0  0  0  0  0  0  0  0  0  0  0
   16.1735   -7.6460  -11.5502 C   0  0  1  0  0  0  0  0  0  0  0  0
   16.7530   -7.1422  -12.8360 C   0  0  0  0  0  0  0  0  0  0  0  0
   17.7072   -6.0235  -12.6685 C   0  0  0  0  0  0  0  0  0  0  0  0
   17.5777   -4.8918  -13.1933 O   0  0  0  0  0  0  0  0  0  0  0  0
   15.5043   -6.5027  -10.8771 C   0  0  0  0  0  0  0  0  0  0  0  0
   14.3983   -6.1295  -11.3462 O   0  0  0  0  0  0  0  0  0  0  0  0
   18.8236   -6.2398  -11.8763 O   0  0  0  0  0  0  0  0  0  0  0  0
   15.2984   -3.3863   -7.1200 O   0  0  0  0  0  0  0  0  0  0  0  0
   16.0177   -4.3851   -7.7717 C   0  0  0  0  0  0  0  0  0  0  0  0
   15.3841   -4.7141   -9.1053 C   0  0  2  0  0  0  0  0  0  0  0  0
   16.0475   -5.8290   -9.7529 N   0  0  0  0  0  0  0  0  0  0  0  0
   15.4900   -3.5260   -9.9692 C   0  0  0  0  0  0  0  0  0  0  0  0
   14.4069   -2.7029  -10.1744 O   0  0  0  0  0  0  0  0  0  0  0  0
   16.5809   -3.2656  -10.5218 O   0  0  0  0  0  0  0  0  0  0  0  0
  2  1  1  1
  3  2  1  0
  4  3  1  0
  5  4  2  0
  6  7  1  0
  6  5  1  0
  7  8  2  0
  8  4  1  0
  9 10  2  0
  9  2  1  0
 11  9  1  0
 12 16  1  0
 12 11  1  0
 12 13  1  6
 14 13  1  0
 14 15  2  0
 16 22  1  0
 17 16  2  0
 18 14  1  0
 20 19  1  0
 21 20  1  1
 21 23  1  0
 22 21  1  0
 23 25  2  0
 23 24  1  0
M  END
$$$$
