HDS.pdb
     RDKit          3D

 25 25  0  0  1  0  0  0  0  0999 V2000
   26.6116  -18.2855  -18.6362 N   0  0  0  0  0  0  0  0  0  0  0  0
   27.2870  -18.7026  -17.4472 C   0  0  1  0  0  0  0  0  0  0  0  0
   28.3880  -17.7225  -17.1093 C   0  0  0  0  0  0  0  0  0  0  0  0
   29.3976  -17.7986  -18.2087 C   0  0  0  0  0  0  0  0  0  0  0  0
   29.4170  -18.6281  -19.3102 C   0  0  0  0  0  0  0  0  0  0  0  0
   30.4958  -18.3640  -20.0345 N   0  0  0  0  0  0  0  0  0  0  0  0
   31.1910  -17.3825  -19.4429 C   0  0  0  0  0  0  0  0  0  0  0  0
   30.5234  -17.0414  -18.3364 N   0  0  0  0  0  0  0  0  0  0  0  0
   26.3422  -18.8850  -16.3198 C   0  0  0  0  0  0  0  0  0  0  0  0
   25.9848  -17.8617  -15.6830 O   0  0  0  0  0  0  0  0  0  0  0  0
   25.8266  -20.1350  -15.9262 N   0  0  0  0  0  0  0  0  0  0  0  0
   24.8726  -20.3284  -14.8699 C   0  0  1  0  0  0  0  0  0  0  0  0
   23.6890  -21.1262  -15.3230 C   0  0  0  0  0  0  0  0  0  0  0  0
   22.5247  -20.3033  -15.7197 C   0  0  0  0  0  0  0  0  0  0  0  0
   22.4953  -19.0498  -15.6915 O   0  0  0  0  0  0  0  0  0  0  0  0
   25.4604  -21.0200  -13.6933 C   0  0  0  0  0  0  0  0  0  0  0  0
   25.8904  -22.1887  -13.8717 O   0  0  0  0  0  0  0  0  0  0  0  0
   21.3853  -20.9626  -16.1534 O   0  0  0  0  0  0  0  0  0  0  0  0
   28.2612  -20.4828  -11.6659 O   0  0  0  0  0  0  0  0  0  0  0  0
   27.2862  -20.5744  -10.6756 C   0  0  0  0  0  0  0  0  0  0  0  0
   26.0095  -21.1597  -11.2374 C   0  0  2  0  0  0  0  0  0  0  0  0
   25.5552  -20.4314  -12.4059 N   0  0  0  0  0  0  0  0  0  0  0  0
   24.9728  -21.0862  -10.1938 C   0  0  0  0  0  0  0  0  0  0  0  0
   23.7787  -20.4443  -10.4281 O   0  0  0  0  0  0  0  0  0  0  0  0
   25.1849  -21.6155   -9.0812 O   0  0  0  0  0  0  0  0  0  0  0  0
  2  1  1  6
  3  2  1  0
  4  3  1  0
  5  4  2  0
  6  7  1  0
  6  5  1  0
  7  8  2  0
  8  4  1  0
  9 10  2  0
  9  2  1  0
 11  9  1  0
 12 16  1  0
 12 11  1  0
 12 13  1  6
 14 13  1  0
 14 15  2  0
 16 22  1  0
 17 16  2  0
 18 14  1  0
 20 19  1  0
 21 20  1  1
 21 23  1  0
 22 21  1  0
 23 25  2  0
 23 24  1  0
M  END
$$$$
