RHV.pdb
     RDKit          3D

 29 29  0  0  1  0  0  0  0  0999 V2000
   26.7846  -18.9433  -16.6142 N   0  0  0  0  0  0  0  0  0  0  0  0
   26.7617  -18.7635  -15.2061 C   0  0  0  0  0  0  0  0  0  0  0  0
   26.6072  -19.7906  -14.4547 N   0  0  0  0  0  0  0  0  0  0  0  0
   26.9084  -17.4632  -14.6656 N   0  0  0  0  0  0  0  0  0  0  0  0
   26.9373  -16.3062  -15.4907 C   0  0  0  0  0  0  0  0  0  0  0  0
   25.6723  -15.8520  -16.1058 C   0  0  0  0  0  0  0  0  0  0  0  0
   25.7459  -14.7202  -17.0621 C   0  0  0  0  0  0  0  0  0  0  0  0
   25.7137  -13.3511  -16.4441 C   0  0  2  0  0  0  0  0  0  0  0  0
   25.9340  -13.4614  -15.0013 N   0  0  0  0  0  0  0  0  0  0  0  0
   24.3820  -12.6972  -16.6932 C   0  0  0  0  0  0  0  0  0  0  0  0
   23.9845  -12.5831  -17.8739 O   0  0  0  0  0  0  0  0  0  0  0  0
   26.6043  -19.8122  -13.4314 N   0  0  0  0  0  0  0  0  0  0  0  0
   23.6130  -12.2273  -15.5749 C   0  0  2  0  0  0  0  0  0  0  0  0
   22.2811  -11.6889  -15.7587 C   0  0  0  0  0  0  0  0  0  0  0  0
   21.2048  -12.4806  -15.1185 C   0  0  0  0  0  0  0  0  0  0  0  0
   20.7604  -13.6679  -15.8645 C   0  0  0  0  0  0  0  0  0  0  0  0
   21.1674  -14.1469  -17.0802 N   0  0  0  0  0  0  0  0  0  0  0  0
   20.4440  -15.2641  -17.3266 C   0  0  0  0  0  0  0  0  0  0  0  0
   19.6200  -15.4587  -16.2897 N   0  0  0  0  0  0  0  0  0  0  0  0
   19.7986  -14.4884  -15.3799 C   0  0  0  0  0  0  0  0  0  0  0  0
   22.2251  -10.2664  -15.3033 O   0  0  0  0  0  0  0  0  0  0  0  0
   22.8757   -9.9433  -14.2819 C   0  0  0  0  0  0  0  0  0  0  0  0
   20.2508   -7.2781  -17.7278 C   0  0  2  0  0  0  0  0  0  0  0  0
   21.5250   -7.1253  -16.9355 C   0  0  0  0  0  0  0  0  0  0  0  0
   21.6476   -5.6653  -16.5352 C   0  0  1  0  0  0  0  0  0  0  0  0
   21.5407   -7.9360  -15.6795 N   0  0  0  0  0  0  0  0  0  0  0  0
   21.4435   -9.3350  -16.0368 C   0  0  0  0  0  0  0  0  0  0  0  0
   20.4945   -7.6126  -14.7103 O   0  0  0  0  0  0  0  0  0  0  0  0
   19.4259   -8.2664  -14.5727 O   0  0  0  0  0  0  0  0  0  0  0  0
  1  2  1  0
  2  3  2  0
  4  5  1  0
  4  2  1  0
  6  5  1  0
  7  6  1  0
  8 10  1  0
  8  7  1  0
  8  9  1  1
 10 11  2  0
 12 13  1  0
 12 10  1  0
 13 14  1  6
 14 15  1  0
 15 16  2  0
 16 17  1  0
 18 17  1  0
 19 15  1  0
 19 18  2  0
 20 13  1  0
 21 20  2  0
 23 22  1  6
 23 24  1  0
 23 25  1  0
 25 27  1  0
 25 26  1  6
 26 20  1  0
 27 29  1  0
 28 27  2  0
M  END
$$$$
