RHV.pdb
     RDKit          3D

 29 29  0  0  1  0  0  0  0  0999 V2000
   26.2694  -20.8702   -8.9424 N   0  0  0  0  0  0  0  0  0  0  0  0
   25.2521  -21.0733   -9.9115 C   0  0  0  0  0  0  0  0  0  0  0  0
   24.0266  -21.0420   -9.5365 N   0  0  0  0  0  0  0  0  0  0  0  0
   25.6100  -21.3048  -11.2616 N   0  0  0  0  0  0  0  0  0  0  0  0
   26.9445  -21.1422  -11.7230 C   0  0  0  0  0  0  0  0  0  0  0  0
   27.3578  -19.8123  -12.2185 C   0  0  0  0  0  0  0  0  0  0  0  0
   26.9451  -19.4376  -13.5934 C   0  0  0  0  0  0  0  0  0  0  0  0
   26.5118  -20.5783  -14.4699 C   0  0  2  0  0  0  0  0  0  0  0  0
   27.5954  -20.9254  -15.3906 N   0  0  0  0  0  0  0  0  0  0  0  0
   25.2926  -20.1937  -15.2626 C   0  0  0  0  0  0  0  0  0  0  0  0
   25.4493  -19.7545  -16.4235 O   0  0  0  0  0  0  0  0  0  0  0  0
   23.2010  -21.2427  -10.1072 N   0  0  0  0  0  0  0  0  0  0  0  0
   23.9945  -20.3417  -14.6661 C   0  0  2  0  0  0  0  0  0  0  0  0
   22.7894  -20.0935  -15.4301 C   0  0  0  0  0  0  0  0  0  0  0  0
   21.7238  -21.1057  -15.2423 C   0  0  0  0  0  0  0  0  0  0  0  0
   20.5287  -20.9327  -16.0822 C   0  0  0  0  0  0  0  0  0  0  0  0
   20.3879  -21.0168  -17.4410 N   0  0  0  0  0  0  0  0  0  0  0  0
   19.0873  -20.7664  -17.7194 C   0  0  0  0  0  0  0  0  0  0  0  0
   18.4549  -20.5363  -16.5622 N   0  0  0  0  0  0  0  0  0  0  0  0
   19.3231  -20.6337  -15.5435 C   0  0  0  0  0  0  0  0  0  0  0  0
   22.2642  -18.7230  -15.1474 O   0  0  0  0  0  0  0  0  0  0  0  0
   22.2203  -18.3376  -13.9556 C   0  0  0  0  0  0  0  0  0  0  0  0
   23.5051  -15.5762  -16.4244 C   0  0  2  0  0  0  0  0  0  0  0  0
   22.0227  -15.5769  -16.7024 C   0  0  0  0  0  0  0  0  0  0  0  0
   21.8293  -15.8918  -18.1755 C   0  0  2  0  0  0  0  0  0  0  0  0
   21.2757  -16.6106  -15.9223 N   0  0  0  0  0  0  0  0  0  0  0  0
   21.8363  -17.9089  -16.2293 C   0  0  0  0  0  0  0  0  0  0  0  0
   19.8310  -16.6443  -16.1472 O   0  0  0  0  0  0  0  0  0  0  0  0
   19.2774  -17.2049  -17.1308 O   0  0  0  0  0  0  0  0  0  0  0  0
  1  2  1  0
  2  3  2  0
  4  5  1  0
  4  2  1  0
  6  5  1  0
  7  6  1  0
  8 10  1  0
  8  7  1  0
  8  9  1  6
 10 11  2  0
 12 13  1  0
 12 10  1  0
 13 14  1  6
 14 15  1  0
 15 16  2  0
 16 17  1  0
 18 17  1  0
 19 15  1  0
 19 18  2  0
 20 13  1  0
 21 20  2  0
 23 22  1  6
 23 24  1  0
 23 25  1  0
 25 27  1  0
 25 26  1  1
 26 20  1  0
 27 29  1  0
 28 27  2  0
M  END
$$$$
