RHV.pdb
     RDKit          3D

 29 29  0  0  1  0  0  0  0  0999 V2000
   17.1754  -15.4059  -24.0581 N   0  0  0  0  0  0  0  0  0  0  0  0
   16.8743  -15.7957  -22.7266 C   0  0  0  0  0  0  0  0  0  0  0  0
   15.6618  -15.7140  -22.3183 N   0  0  0  0  0  0  0  0  0  0  0  0
   17.9118  -16.2625  -21.8840 N   0  0  0  0  0  0  0  0  0  0  0  0
   18.8814  -15.3834  -21.3296 C   0  0  0  0  0  0  0  0  0  0  0  0
   19.9715  -15.9642  -20.5176 C   0  0  0  0  0  0  0  0  0  0  0  0
   20.9714  -15.0281  -19.9476 C   0  0  0  0  0  0  0  0  0  0  0  0
   20.9114  -14.8499  -18.4570 C   0  0  2  0  0  0  0  0  0  0  0  0
   19.8688  -15.7153  -17.9035 N   0  0  0  0  0  0  0  0  0  0  0  0
   20.6003  -13.4185  -18.1146 C   0  0  0  0  0  0  0  0  0  0  0  0
   21.3642  -12.5234  -18.5393 O   0  0  0  0  0  0  0  0  0  0  0  0
   15.2980  -15.9952  -21.4038 N   0  0  0  0  0  0  0  0  0  0  0  0
   19.4432  -13.1256  -17.3158 C   0  0  1  0  0  0  0  0  0  0  0  0
   19.0785  -11.7592  -17.0033 C   0  0  0  0  0  0  0  0  0  0  0  0
   17.6237  -11.5350  -16.8344 C   0  0  0  0  0  0  0  0  0  0  0  0
   17.2245  -10.1501  -16.5409 C   0  0  0  0  0  0  0  0  0  0  0  0
   17.9927   -9.0313  -16.3638 N   0  0  0  0  0  0  0  0  0  0  0  0
   17.1456   -8.0073  -16.1071 C   0  0  0  0  0  0  0  0  0  0  0  0
   15.8971   -8.4902  -16.1273 N   0  0  0  0  0  0  0  0  0  0  0  0
   15.9236   -9.8056  -16.3923 C   0  0  0  0  0  0  0  0  0  0  0  0
   19.8242  -11.2815  -15.7993 O   0  0  0  0  0  0  0  0  0  0  0  0
   19.7153  -11.9346  -14.7351 C   0  0  0  0  0  0  0  0  0  0  0  0
   23.4839   -9.4225  -16.2339 C   0  0  2  0  0  0  0  0  0  0  0  0
   22.8705  -10.1954  -15.0932 C   0  0  0  0  0  0  0  0  0  0  0  0
   23.7136   -9.9397  -13.8560 C   0  0  1  0  0  0  0  0  0  0  0  0
   21.4721   -9.7719  -14.7768 N   0  0  0  0  0  0  0  0  0  0  0  0
   20.6255  -10.1136  -15.8996 C   0  0  0  0  0  0  0  0  0  0  0  0
   21.3021   -8.3546  -14.4590 O   0  0  0  0  0  0  0  0  0  0  0  0
   21.7188   -7.8076  -13.4030 O   0  0  0  0  0  0  0  0  0  0  0  0
  1  2  1  0
  2  3  2  0
  4  5  1  0
  4  2  1  0
  6  5  1  0
  7  6  1  0
  8 10  1  0
  8  7  1  0
  8  9  1  6
 10 11  2  0
 12 13  1  0
 12 10  1  0
 13 14  1  6
 14 15  1  0
 15 16  2  0
 16 17  1  0
 18 17  1  0
 19 15  1  0
 19 18  2  0
 20 13  1  0
 21 20  2  0
 23 22  1  6
 23 24  1  0
 23 25  1  0
 25 27  1  0
 25 26  1  6
 26 20  1  0
 27 29  1  0
 28 27  2  0
M  END
$$$$
