RHV.pdb
     RDKit          3D

 29 29  0  0  1  0  0  0  0  0999 V2000
   30.1420  -18.6260  -19.3854 N   0  0  0  0  0  0  0  0  0  0  0  0
   29.3601  -17.4423  -19.3305 C   0  0  0  0  0  0  0  0  0  0  0  0
   29.4337  -16.6078  -20.3008 N   0  0  0  0  0  0  0  0  0  0  0  0
   28.5221  -17.2102  -18.2132 N   0  0  0  0  0  0  0  0  0  0  0  0
   28.4692  -18.1105  -17.1146 C   0  0  0  0  0  0  0  0  0  0  0  0
   27.7966  -19.4126  -17.3070 C   0  0  0  0  0  0  0  0  0  0  0  0
   26.7407  -19.7860  -16.3341 C   0  0  0  0  0  0  0  0  0  0  0  0
   27.2218  -20.5007  -15.1033 C   0  0  2  0  0  0  0  0  0  0  0  0
   27.0199  -21.9414  -15.2651 N   0  0  0  0  0  0  0  0  0  0  0  0
   26.4625  -20.0270  -13.8942 C   0  0  0  0  0  0  0  0  0  0  0  0
   26.4656  -18.8044  -13.6285 O   0  0  0  0  0  0  0  0  0  0  0  0
   28.9692  -15.6983  -20.3696 N   0  0  0  0  0  0  0  0  0  0  0  0
   25.7618  -20.9866  -13.0875 C   0  0  1  0  0  0  0  0  0  0  0  0
   24.9455  -20.5659  -11.9675 C   0  0  0  0  0  0  0  0  0  0  0  0
   23.5258  -20.9814  -12.0520 C   0  0  0  0  0  0  0  0  0  0  0  0
   22.7679  -20.4259  -13.1836 C   0  0  0  0  0  0  0  0  0  0  0  0
   22.4487  -20.9881  -14.3900 N   0  0  0  0  0  0  0  0  0  0  0  0
   21.7470  -20.0618  -15.0838 C   0  0  0  0  0  0  0  0  0  0  0  0
   21.6426  -18.9669  -14.3207 N   0  0  0  0  0  0  0  0  0  0  0  0
   22.2635  -19.1699  -13.1484 C   0  0  0  0  0  0  0  0  0  0  0  0
   25.5487  -21.0252  -10.6794 O   0  0  0  0  0  0  0  0  0  0  0  0
   25.9143  -22.2205  -10.5872 C   0  0  0  0  0  0  0  0  0  0  0  0
   26.5376  -18.2739   -7.4372 C   0  0  2  0  0  0  0  0  0  0  0  0
   27.1876  -19.5770   -7.8300 C   0  0  0  0  0  0  0  0  0  0  0  0
   27.8276  -20.1673   -6.5855 C   0  0  1  0  0  0  0  0  0  0  0  0
   26.2180  -20.5862   -8.3557 N   0  0  0  0  0  0  0  0  0  0  0  0
   25.6875  -20.1000   -9.6113 C   0  0  0  0  0  0  0  0  0  0  0  0
   25.1100  -20.9180   -7.4608 O   0  0  0  0  0  0  0  0  0  0  0  0
   23.9227  -20.5288   -7.6246 O   0  0  0  0  0  0  0  0  0  0  0  0
  1  2  1  0
  2  3  2  0
  4  5  1  0
  4  2  1  0
  6  5  1  0
  7  6  1  0
  8 10  1  0
  8  7  1  0
  8  9  1  6
 10 11  2  0
 12 13  1  0
 12 10  1  0
 13 14  1  1
 14 15  1  0
 15 16  2  0
 16 17  1  0
 18 17  1  0
 19 15  1  0
 19 18  2  0
 20 13  1  0
 21 20  2  0
 23 22  1  6
 23 24  1  0
 23 25  1  0
 25 27  1  0
 25 26  1  6
 26 20  1  0
 27 29  1  0
 28 27  2  0
M  END
$$$$
