RHV.pdb
     RDKit          3D

 29 29  0  0  1  0  0  0  0  0999 V2000
   17.4685  -24.2168   -8.8261 N   0  0  0  0  0  0  0  0  0  0  0  0
   17.5834  -24.5986  -10.1886 C   0  0  0  0  0  0  0  0  0  0  0  0
   16.8254  -25.5312  -10.6348 N   0  0  0  0  0  0  0  0  0  0  0  0
   18.5261  -23.9464  -11.0194 N   0  0  0  0  0  0  0  0  0  0  0  0
   19.3589  -22.9020  -10.5339 C   0  0  0  0  0  0  0  0  0  0  0  0
   19.3982  -21.6298  -11.2855 C   0  0  0  0  0  0  0  0  0  0  0  0
   20.7288  -21.1266  -11.7067 C   0  0  0  0  0  0  0  0  0  0  0  0
   20.8812  -20.8602  -13.1774 C   0  0  2  0  0  0  0  0  0  0  0  0
   20.4616  -22.0411  -13.9336 N   0  0  0  0  0  0  0  0  0  0  0  0
   22.3154  -20.5462  -13.5051 C   0  0  0  0  0  0  0  0  0  0  0  0
   22.8651  -19.5865  -12.9203 O   0  0  0  0  0  0  0  0  0  0  0  0
   16.7973  -25.9007  -11.5889 N   0  0  0  0  0  0  0  0  0  0  0  0
   23.0050  -21.3528  -14.4729 C   0  0  1  0  0  0  0  0  0  0  0  0
   24.3842  -21.0827  -14.8228 C   0  0  0  0  0  0  0  0  0  0  0  0
   25.0747  -22.2009  -15.5069 C   0  0  0  0  0  0  0  0  0  0  0  0
   26.5094  -22.0005  -15.7616 C   0  0  0  0  0  0  0  0  0  0  0  0
   27.4438  -21.3097  -15.0385 N   0  0  0  0  0  0  0  0  0  0  0  0
   28.6181  -21.4213  -15.7021 C   0  0  0  0  0  0  0  0  0  0  0  0
   28.4037  -22.1592  -16.7983 N   0  0  0  0  0  0  0  0  0  0  0  0
   27.1137  -22.5253  -16.8536 C   0  0  0  0  0  0  0  0  0  0  0  0
   24.4818  -19.8324  -15.6360 O   0  0  0  0  0  0  0  0  0  0  0  0
   23.5320  -19.5459  -16.4018 C   0  0  0  0  0  0  0  0  0  0  0  0
   26.8102  -15.5616  -16.3964 C   0  0  2  0  0  0  0  0  0  0  0  0
   26.5609  -16.8170  -15.5986 C   0  0  0  0  0  0  0  0  0  0  0  0
   25.8279  -16.4194  -14.3292 C   0  0  1  0  0  0  0  0  0  0  0  0
   25.7063  -17.8126  -16.3152 N   0  0  0  0  0  0  0  0  0  0  0  0
   25.6376  -19.0164  -15.5149 C   0  0  0  0  0  0  0  0  0  0  0  0
   26.1435  -18.1574  -17.6674 O   0  0  0  0  0  0  0  0  0  0  0  0
   26.9729  -19.0673  -17.9362 O   0  0  0  0  0  0  0  0  0  0  0  0
  1  2  1  0
  2  3  2  0
  4  5  1  0
  4  2  1  0
  6  5  1  0
  7  6  1  0
  8 10  1  0
  8  7  1  0
  8  9  1  6
 10 11  2  0
 12 13  1  0
 12 10  1  0
 13 14  1  1
 14 15  1  0
 15 16  2  0
 16 17  1  0
 18 17  1  0
 19 15  1  0
 19 18  2  0
 20 13  1  0
 21 20  2  0
 23 22  1  1
 23 24  1  0
 23 25  1  0
 25 27  1  0
 25 26  1  1
 26 20  1  0
 27 29  1  0
 28 27  2  0
M  END
$$$$
