RHV.pdb
     RDKit          3D

 29 29  0  0  1  0  0  0  0  0999 V2000
   12.1390  -25.2165    2.5603 N   0  0  0  0  0  0  0  0  0  0  0  0
   11.9140  -24.9461    1.1849 C   0  0  0  0  0  0  0  0  0  0  0  0
   10.8372  -25.3769    0.6387 N   0  0  0  0  0  0  0  0  0  0  0  0
   12.8769  -24.2123    0.4509 N   0  0  0  0  0  0  0  0  0  0  0  0
   13.9207  -23.4918    1.0925 C   0  0  0  0  0  0  0  0  0  0  0  0
   13.5542  -22.4813    2.1071 C   0  0  0  0  0  0  0  0  0  0  0  0
   14.6579  -21.7203    2.7424 C   0  0  0  0  0  0  0  0  0  0  0  0
   14.5393  -20.2247    2.6622 C   0  0  2  0  0  0  0  0  0  0  0  0
   14.4312  -19.8180    1.2603 N   0  0  0  0  0  0  0  0  0  0  0  0
   15.7477  -19.5717    3.2755 C   0  0  0  0  0  0  0  0  0  0  0  0
   16.7653  -19.4123    2.5653 O   0  0  0  0  0  0  0  0  0  0  0  0
   10.5162  -25.2003   -0.3170 N   0  0  0  0  0  0  0  0  0  0  0  0
   15.6963  -19.1538    4.6486 C   0  0  1  0  0  0  0  0  0  0  0  0
   16.7802  -18.3963    5.2393 C   0  0  0  0  0  0  0  0  0  0  0  0
   16.3664  -17.1201    5.8681 C   0  0  0  0  0  0  0  0  0  0  0  0
   16.4768  -15.9269    5.0150 C   0  0  0  0  0  0  0  0  0  0  0  0
   16.9754  -15.7942    3.7473 N   0  0  0  0  0  0  0  0  0  0  0  0
   16.8583  -14.4882    3.4118 C   0  0  0  0  0  0  0  0  0  0  0  0
   16.3042  -13.8447    4.4467 N   0  0  0  0  0  0  0  0  0  0  0  0
   16.0619  -14.7111    5.4426 C   0  0  0  0  0  0  0  0  0  0  0  0
   17.5355  -19.2392    6.2156 O   0  0  0  0  0  0  0  0  0  0  0  0
   16.8976  -20.0759    6.8965 C   0  0  0  0  0  0  0  0  0  0  0  0
   21.8162  -19.2540    6.1998 C   0  0  2  0  0  0  0  0  0  0  0  0
   20.9107  -20.3797    6.6328 C   0  0  0  0  0  0  0  0  0  0  0  0
   21.6632  -21.2092    7.6587 C   0  0  1  0  0  0  0  0  0  0  0  0
   19.6481  -19.9073    7.2791 N   0  0  0  0  0  0  0  0  0  0  0  0
   18.9396  -19.0663    6.3383 C   0  0  0  0  0  0  0  0  0  0  0  0
   19.8200  -19.1831    8.5379 O   0  0  0  0  0  0  0  0  0  0  0  0
   19.9910  -19.7347    9.6580 O   0  0  0  0  0  0  0  0  0  0  0  0
  1  2  1  0
  2  3  2  0
  4  5  1  0
  4  2  1  0
  6  5  1  0
  7  6  1  0
  8 10  1  0
  8  7  1  0
  8  9  1  6
 10 11  2  0
 12 13  1  0
 12 10  1  0
 13 14  1  6
 14 15  1  0
 15 16  2  0
 16 17  1  0
 18 17  1  0
 19 15  1  0
 19 18  2  0
 20 13  1  0
 21 20  2  0
 23 22  1  6
 23 24  1  0
 23 25  1  0
 25 27  1  0
 25 26  1  6
 26 20  1  0
 27 29  1  0
 28 27  2  0
M  END
$$$$
