VHD.pdb
     RDKit          3D

 26 26  0  0  1  0  0  0  0  0999 V2000
   14.9486  -19.0725    5.1388 C   0  0  0  0  0  0  0  0  0  0  0  0
   15.6268  -19.6860    3.9469 C   0  0  1  0  0  0  0  0  0  0  0  0
   14.6081  -20.4618    3.1565 C   0  0  0  0  0  0  0  0  0  0  0  0
   16.2014  -18.5981    3.0708 C   0  0  2  0  0  0  0  0  0  0  0  0
   16.7464  -19.0994    1.8457 N   0  0  0  0  0  0  0  0  0  0  0  0
   17.2563  -17.8473    3.7955 C   0  0  0  0  0  0  0  0  0  0  0  0
   18.4692  -18.2069    3.7386 O   0  0  0  0  0  0  0  0  0  0  0  0
   16.9237  -16.7080    4.5685 N   0  0  0  0  0  0  0  0  0  0  0  0
   17.9746  -15.9217    5.2803 C   0  0  1  0  0  0  0  0  0  0  0  0
   17.9167  -14.5252    4.8280 C   0  0  0  0  0  0  0  0  0  0  0  0
   18.9128  -13.6157    5.4192 C   0  0  0  0  0  0  0  0  0  0  0  0
   19.8093  -13.8627    6.4520 C   0  0  0  0  0  0  0  0  0  0  0  0
   20.5061  -12.7414    6.7023 N   0  0  0  0  0  0  0  0  0  0  0  0
   20.0852  -11.7794    5.8618 C   0  0  0  0  0  0  0  0  0  0  0  0
   19.1369  -12.3046    5.1000 N   0  0  0  0  0  0  0  0  0  0  0  0
   17.8683  -16.2710    6.6697 C   0  0  0  0  0  0  0  0  0  0  0  0
   16.7095  -16.1783    7.2293 O   0  0  0  0  0  0  0  0  0  0  0  0
   18.8896  -16.7294    7.5584 N   0  0  0  0  0  0  0  0  0  0  0  0
   18.5728  -17.0390    8.9597 C   0  0  1  0  0  0  0  0  0  0  0  0
   19.2853  -18.3064    9.3737 C   0  0  0  0  0  0  0  0  0  0  0  0
   18.4376  -19.5035    9.2366 C   0  0  0  0  0  0  0  0  0  0  0  0
   17.1969  -19.3829    8.9286 O   0  0  0  0  0  0  0  0  0  0  0  0
   19.0387  -15.9152    9.7911 C   0  0  0  0  0  0  0  0  0  0  0  0
   19.7548  -15.0219    9.3049 O   0  0  0  0  0  0  0  0  0  0  0  0
   18.8613  -20.8143    9.4174 O   0  0  0  0  0  0  0  0  0  0  0  0
   18.6907  -15.8362   11.1118 O   0  0  0  0  0  0  0  0  0  0  0  0
  2  4  1  0
  2  1  1  1
  3  2  1  0
  4  5  1  6
  4  6  1  0
  6  7  2  0
  8  6  1  0
  8  9  1  0
  9 16  1  0
  9 10  1  1
 10 11  1  0
 11 12  2  0
 12 13  1  0
 14 13  1  0
 15 11  1  0
 15 14  2  0
 16 17  2  0
 18 19  1  0
 18 16  1  0
 19 23  1  0
 20 21  1  0
 19 20  1  1
 21 22  2  0
 23 24  2  0
 23 26  1  0
 25 21  1  0
M  END
$$$$
