VHD.pdb
     RDKit          3D

 26 26  0  0  1  0  0  0  0  0999 V2000
   21.2076  -10.9375  -21.6981 C   0  0  0  0  0  0  0  0  0  0  0  0
   21.9358  -11.9390  -20.8474 C   0  0  1  0  0  0  0  0  0  0  0  0
   23.0164  -12.5817  -21.6743 C   0  0  0  0  0  0  0  0  0  0  0  0
   22.5713  -11.2408  -19.6685 C   0  0  2  0  0  0  0  0  0  0  0  0
   23.4688  -12.0846  -18.9392 N   0  0  0  0  0  0  0  0  0  0  0  0
   21.5311  -10.7296  -18.7421 C   0  0  0  0  0  0  0  0  0  0  0  0
   20.6062   -9.9693  -19.1549 O   0  0  0  0  0  0  0  0  0  0  0  0
   21.5538  -11.0849  -17.3712 N   0  0  0  0  0  0  0  0  0  0  0  0
   20.5707  -10.5095  -16.4059 C   0  0  1  0  0  0  0  0  0  0  0  0
   20.0051  -11.5952  -15.5938 C   0  0  0  0  0  0  0  0  0  0  0  0
   18.7892  -12.2317  -16.1279 C   0  0  0  0  0  0  0  0  0  0  0  0
   17.9969  -11.8305  -17.1969 C   0  0  0  0  0  0  0  0  0  0  0  0
   16.9606  -12.6777  -17.3138 N   0  0  0  0  0  0  0  0  0  0  0  0
   17.0614  -13.6125  -16.3520 C   0  0  0  0  0  0  0  0  0  0  0  0
   18.1514  -13.3429  -15.6488 N   0  0  0  0  0  0  0  0  0  0  0  0
   21.2122   -9.3725  -15.8062 C   0  0  0  0  0  0  0  0  0  0  0  0
   22.3945   -9.5345  -15.3159 O   0  0  0  0  0  0  0  0  0  0  0  0
   20.7227   -8.0364  -15.6710 N   0  0  0  0  0  0  0  0  0  0  0  0
   21.5268   -7.0151  -14.9852 C   0  0  1  0  0  0  0  0  0  0  0  0
   21.2768   -5.6639  -15.6153 C   0  0  0  0  0  0  0  0  0  0  0  0
   21.9704   -4.5726  -14.9093 C   0  0  0  0  0  0  0  0  0  0  0  0
   23.1973   -4.7104  -14.5566 O   0  0  0  0  0  0  0  0  0  0  0  0
   21.1153   -6.9853  -13.5707 C   0  0  0  0  0  0  0  0  0  0  0  0
   20.0357   -7.4902  -13.2144 O   0  0  0  0  0  0  0  0  0  0  0  0
   21.4064   -3.3501  -14.5661 O   0  0  0  0  0  0  0  0  0  0  0  0
   21.9145   -6.4019  -12.6260 O   0  0  0  0  0  0  0  0  0  0  0  0
  2  4  1  0
  2  1  1  6
  3  2  1  0
  4  5  1  1
  4  6  1  0
  6  7  2  0
  8  6  1  0
  8  9  1  0
  9 16  1  0
  9 10  1  1
 10 11  1  0
 11 12  2  0
 12 13  1  0
 14 13  1  0
 15 11  1  0
 15 14  2  0
 16 17  2  0
 18 19  1  0
 18 16  1  0
 19 23  1  0
 20 21  1  0
 19 20  1  6
 21 22  2  0
 23 24  2  0
 23 26  1  0
 25 21  1  0
M  END
$$$$
