VHD.pdb
     RDKit          3D

 26 26  0  0  1  0  0  0  0  0999 V2000
   27.1776  -13.1686  -19.3579 C   0  0  0  0  0  0  0  0  0  0  0  0
   26.6719  -14.3671  -18.6061 C   0  0  1  0  0  0  0  0  0  0  0  0
   25.8774  -15.2300  -19.5488 C   0  0  0  0  0  0  0  0  0  0  0  0
   27.8386  -15.1664  -18.0761 C   0  0  2  0  0  0  0  0  0  0  0  0
   28.7551  -15.5614  -19.1024 N   0  0  0  0  0  0  0  0  0  0  0  0
   27.3609  -16.3779  -17.3648 C   0  0  0  0  0  0  0  0  0  0  0  0
   27.4104  -17.5184  -17.9129 O   0  0  0  0  0  0  0  0  0  0  0  0
   26.8379  -16.2799  -16.0523 N   0  0  0  0  0  0  0  0  0  0  0  0
   26.2206  -17.4587  -15.3748 C   0  0  1  0  0  0  0  0  0  0  0  0
   27.0343  -17.8200  -14.2063 C   0  0  0  0  0  0  0  0  0  0  0  0
   26.4891  -18.8847  -13.3472 C   0  0  0  0  0  0  0  0  0  0  0  0
   25.2403  -19.4919  -13.4036 C   0  0  0  0  0  0  0  0  0  0  0  0
   25.1439  -20.3848  -12.4041 N   0  0  0  0  0  0  0  0  0  0  0  0
   26.2931  -20.3709  -11.7055 C   0  0  0  0  0  0  0  0  0  0  0  0
   27.0907  -19.4766  -12.2706 N   0  0  0  0  0  0  0  0  0  0  0  0
   24.8183  -17.1688  -15.2587 C   0  0  0  0  0  0  0  0  0  0  0  0
   24.4631  -15.9327  -15.1564 O   0  0  0  0  0  0  0  0  0  0  0  0
   23.7145  -18.0767  -15.2454 N   0  0  0  0  0  0  0  0  0  0  0  0
   22.3351  -17.5707  -15.2161 C   0  0  1  0  0  0  0  0  0  0  0  0
   22.1102  -16.6400  -16.3859 C   0  0  0  0  0  0  0  0  0  0  0  0
   20.7361  -16.1106  -16.4326 C   0  0  0  0  0  0  0  0  0  0  0  0
   19.9889  -16.1641  -15.3897 O   0  0  0  0  0  0  0  0  0  0  0  0
   21.4243  -18.7244  -15.3194 C   0  0  0  0  0  0  0  0  0  0  0  0
   21.8737  -19.8752  -15.4644 O   0  0  0  0  0  0  0  0  0  0  0  0
   20.1338  -15.5331  -17.5435 O   0  0  0  0  0  0  0  0  0  0  0  0
   20.0690  -18.5483  -15.2573 O   0  0  0  0  0  0  0  0  0  0  0  0
  2  4  1  0
  2  1  1  6
  3  2  1  0
  4  5  1  6
  4  6  1  0
  6  7  2  0
  8  6  1  0
  8  9  1  0
  9 16  1  0
  9 10  1  1
 10 11  1  0
 11 12  2  0
 12 13  1  0
 14 13  1  0
 15 11  1  0
 15 14  2  0
 16 17  2  0
 18 19  1  0
 18 16  1  0
 19 23  1  0
 20 21  1  0
 19 20  1  6
 21 22  2  0
 23 24  2  0
 23 26  1  0
 25 21  1  0
M  END
$$$$
