VHD.pdb
     RDKit          3D

 26 26  0  0  1  0  0  0  0  0999 V2000
   23.4738  -14.3794  -17.0326 C   0  0  0  0  0  0  0  0  0  0  0  0
   22.9104  -13.1173  -17.6215 C   0  0  1  0  0  0  0  0  0  0  0  0
   21.4707  -13.3554  -17.9891 C   0  0  0  0  0  0  0  0  0  0  0  0
   22.9781  -12.0044  -16.6027 C   0  0  2  0  0  0  0  0  0  0  0  0
   22.2075  -12.2777  -15.4276 N   0  0  0  0  0  0  0  0  0  0  0  0
   22.5149  -10.7254  -17.1955 C   0  0  0  0  0  0  0  0  0  0  0  0
   23.1746  -10.1551  -18.1138 O   0  0  0  0  0  0  0  0  0  0  0  0
   21.3196  -10.1157  -16.7424 N   0  0  0  0  0  0  0  0  0  0  0  0
   20.7985   -8.8681  -17.3758 C   0  0  1  0  0  0  0  0  0  0  0  0
   19.5477   -9.1759  -18.0823 C   0  0  0  0  0  0  0  0  0  0  0  0
   18.9850   -8.0865  -18.8982 C   0  0  0  0  0  0  0  0  0  0  0  0
   19.4884   -6.8079  -19.1058 C   0  0  0  0  0  0  0  0  0  0  0  0
   18.6346   -6.1244  -19.8863 N   0  0  0  0  0  0  0  0  0  0  0  0
   17.5961   -6.9243  -20.1875 C   0  0  0  0  0  0  0  0  0  0  0  0
   17.8092   -8.0911  -19.5972 N   0  0  0  0  0  0  0  0  0  0  0  0
   20.8655   -7.8458  -16.3686 C   0  0  0  0  0  0  0  0  0  0  0  0
   21.5061   -8.1106  -15.2804 O   0  0  0  0  0  0  0  0  0  0  0  0
   20.3145   -6.5273  -16.3932 N   0  0  0  0  0  0  0  0  0  0  0  0
   20.5803   -5.5890  -15.2937 C   0  0  1  0  0  0  0  0  0  0  0  0
   22.0685   -5.3499  -15.1783 C   0  0  0  0  0  0  0  0  0  0  0  0
   22.4051   -4.3678  -14.1330 C   0  0  0  0  0  0  0  0  0  0  0  0
   22.0820   -4.5911  -12.9105 O   0  0  0  0  0  0  0  0  0  0  0  0
   19.8977   -4.3202  -15.6024 C   0  0  0  0  0  0  0  0  0  0  0  0
   19.3225   -4.1596  -16.6936 O   0  0  0  0  0  0  0  0  0  0  0  0
   23.0662   -3.1639  -14.3432 O   0  0  0  0  0  0  0  0  0  0  0  0
   19.8855   -3.2979  -14.6933 O   0  0  0  0  0  0  0  0  0  0  0  0
  2  4  1  0
  2  1  1  1
  3  2  1  0
  4  5  1  1
  4  6  1  0
  6  7  2  0
  8  6  1  0
  8  9  1  0
  9 16  1  0
  9 10  1  1
 10 11  1  0
 11 12  2  0
 12 13  1  0
 14 13  1  0
 15 11  1  0
 15 14  2  0
 16 17  2  0
 18 19  1  0
 18 16  1  0
 19 23  1  0
 20 21  1  0
 19 20  1  6
 21 22  2  0
 23 24  2  0
 23 26  1  0
 25 21  1  0
M  END
$$$$
