VHD.pdb
     RDKit          3D

 26 26  0  0  1  0  0  0  0  0999 V2000
   26.6187  -10.3518  -15.2100 C   0  0  0  0  0  0  0  0  0  0  0  0
   26.7651  -11.5673  -16.0809 C   0  0  1  0  0  0  0  0  0  0  0  0
   28.0638  -12.2494  -15.7455 C   0  0  0  0  0  0  0  0  0  0  0  0
   25.6268  -12.5243  -15.8166 C   0  0  2  0  0  0  0  0  0  0  0  0
   25.7712  -13.7669  -16.5126 N   0  0  0  0  0  0  0  0  0  0  0  0
   24.3300  -11.9093  -16.1932 C   0  0  0  0  0  0  0  0  0  0  0  0
   23.9617  -11.8526  -17.4035 O   0  0  0  0  0  0  0  0  0  0  0  0
   23.4757  -11.3713  -15.1999 N   0  0  0  0  0  0  0  0  0  0  0  0
   22.1585  -10.7657  -15.5569 C   0  0  1  0  0  0  0  0  0  0  0  0
   21.0836  -11.6738  -15.1349 C   0  0  0  0  0  0  0  0  0  0  0  0
   20.7521  -12.7586  -16.0742 C   0  0  0  0  0  0  0  0  0  0  0  0
   21.2658  -12.9953  -17.3436 C   0  0  0  0  0  0  0  0  0  0  0  0
   20.6541  -14.0705  -17.8682 N   0  0  0  0  0  0  0  0  0  0  0  0
   19.7616  -14.5335  -16.9748 C   0  0  0  0  0  0  0  0  0  0  0  0
   19.8237  -13.7494  -15.9086 N   0  0  0  0  0  0  0  0  0  0  0  0
   22.2098   -9.3993  -15.1162 C   0  0  0  0  0  0  0  0  0  0  0  0
   22.5102   -9.1732  -13.8820 O   0  0  0  0  0  0  0  0  0  0  0  0
   21.9760   -8.2066  -15.8683 N   0  0  0  0  0  0  0  0  0  0  0  0
   22.0322   -6.8915  -15.2146 C   0  0  1  0  0  0  0  0  0  0  0  0
   22.2395   -5.8151  -16.2555 C   0  0  0  0  0  0  0  0  0  0  0  0
   22.3063   -4.4652  -15.6690 C   0  0  0  0  0  0  0  0  0  0  0  0
   22.5354   -4.3182  -14.4142 O   0  0  0  0  0  0  0  0  0  0  0  0
   20.7497   -6.6711  -14.5234 C   0  0  0  0  0  0  0  0  0  0  0  0
   19.6716   -6.8961  -15.1018 O   0  0  0  0  0  0  0  0  0  0  0  0
   22.1359   -3.2757  -16.3665 O   0  0  0  0  0  0  0  0  0  0  0  0
   20.7240   -6.2153  -13.2338 O   0  0  0  0  0  0  0  0  0  0  0  0
  2  4  1  0
  2  1  1  1
  3  2  1  0
  4  5  1  6
  4  6  1  0
  6  7  2  0
  8  6  1  0
  8  9  1  0
  9 16  1  0
  9 10  1  1
 10 11  1  0
 11 12  2  0
 12 13  1  0
 14 13  1  0
 15 11  1  0
 15 14  2  0
 16 17  2  0
 18 19  1  0
 18 16  1  0
 19 23  1  0
 20 21  1  0
 19 20  1  6
 21 22  2  0
 23 24  2  0
 23 26  1  0
 25 21  1  0
M  END
$$$$
