VHD.pdb
     RDKit          3D

 26 26  0  0  1  0  0  0  0  0999 V2000
   23.4668  -10.2886  -20.0474 C   0  0  0  0  0  0  0  0  0  0  0  0
   22.5480   -9.4702  -19.1854 C   0  0  1  0  0  0  0  0  0  0  0  0
   21.6887   -8.6114  -20.0734 C   0  0  0  0  0  0  0  0  0  0  0  0
   21.6572  -10.3843  -18.3778 C   0  0  2  0  0  0  0  0  0  0  0  0
   20.8961  -11.2823  -19.1924 N   0  0  0  0  0  0  0  0  0  0  0  0
   20.7272   -9.5943  -17.5336 C   0  0  0  0  0  0  0  0  0  0  0  0
   19.6238   -9.1762  -17.9934 O   0  0  0  0  0  0  0  0  0  0  0  0
   21.0588   -9.2918  -16.1903 N   0  0  0  0  0  0  0  0  0  0  0  0
   20.1459   -8.4804  -15.3314 C   0  0  1  0  0  0  0  0  0  0  0  0
   19.6581   -9.3169  -14.2267 C   0  0  0  0  0  0  0  0  0  0  0  0
   18.6154  -10.2974  -14.5741 C   0  0  0  0  0  0  0  0  0  0  0  0
   18.0443  -10.5549  -15.8147 C   0  0  0  0  0  0  0  0  0  0  0  0
   17.1008  -11.5009  -15.6725 N   0  0  0  0  0  0  0  0  0  0  0  0
   17.0469  -11.8604  -14.3776 C   0  0  0  0  0  0  0  0  0  0  0  0
   17.9502  -11.1414  -13.7278 N   0  0  0  0  0  0  0  0  0  0  0  0
   20.8175   -7.2326  -15.0948 C   0  0  0  0  0  0  0  0  0  0  0  0
   22.1054   -7.2157  -15.1699 O   0  0  0  0  0  0  0  0  0  0  0  0
   20.2530   -5.9570  -14.7834 N   0  0  0  0  0  0  0  0  0  0  0  0
   21.1115   -4.7688  -14.6788 C   0  0  1  0  0  0  0  0  0  0  0  0
   21.7620   -4.4926  -16.0152 C   0  0  0  0  0  0  0  0  0  0  0  0
   22.5342   -3.2380  -16.0209 C   0  0  0  0  0  0  0  0  0  0  0  0
   23.4757   -3.0567  -15.1668 O   0  0  0  0  0  0  0  0  0  0  0  0
   20.2635   -3.6262  -14.2958 C   0  0  0  0  0  0  0  0  0  0  0  0
   19.0238   -3.7288  -14.2980 O   0  0  0  0  0  0  0  0  0  0  0  0
   22.3384   -2.1768  -16.8960 O   0  0  0  0  0  0  0  0  0  0  0  0
   20.8263   -2.4338  -13.9311 O   0  0  0  0  0  0  0  0  0  0  0  0
  2  4  1  0
  2  1  1  6
  3  2  1  0
  4  5  1  6
  4  6  1  0
  6  7  2  0
  8  6  1  0
  8  9  1  0
  9 16  1  0
  9 10  1  1
 10 11  1  0
 11 12  2  0
 12 13  1  0
 14 13  1  0
 15 11  1  0
 15 14  2  0
 16 17  2  0
 18 19  1  0
 18 16  1  0
 19 23  1  0
 20 21  1  0
 19 20  1  6
 21 22  2  0
 23 24  2  0
 23 26  1  0
 25 21  1  0
M  END
$$$$
