VHD.pdb
     RDKit          3D

 26 26  0  0  1  0  0  0  0  0999 V2000
   21.8884    2.5660   -2.5641 C   0  0  0  0  0  0  0  0  0  0  0  0
   23.0892    2.7126   -3.4551 C   0  0  1  0  0  0  0  0  0  0  0  0
   23.4448    4.1716   -3.5518 C   0  0  0  0  0  0  0  0  0  0  0  0
   24.2584    1.9618   -2.8631 C   0  0  2  0  0  0  0  0  0  0  0  0
   24.5468    2.3526   -1.5165 N   0  0  0  0  0  0  0  0  0  0  0  0
   25.4747    2.1536   -3.6911 C   0  0  0  0  0  0  0  0  0  0  0  0
   26.3074    3.0700   -3.4252 O   0  0  0  0  0  0  0  0  0  0  0  0
   25.7279    1.3101   -4.8003 N   0  0  0  0  0  0  0  0  0  0  0  0
   26.8884    1.5523   -5.7081 C   0  0  1  0  0  0  0  0  0  0  0  0
   27.8313    0.4321   -5.5895 C   0  0  0  0  0  0  0  0  0  0  0  0
   28.7840    0.5090   -4.4689 C   0  0  0  0  0  0  0  0  0  0  0  0
   29.0299    1.5732   -3.6097 C   0  0  0  0  0  0  0  0  0  0  0  0
   30.0098    1.2283   -2.7575 N   0  0  0  0  0  0  0  0  0  0  0  0
   30.4026   -0.0262   -3.0421 C   0  0  0  0  0  0  0  0  0  0  0  0
   29.6701   -0.4501   -4.0614 N   0  0  0  0  0  0  0  0  0  0  0  0
   26.3350    1.9433   -6.9749 C   0  0  0  0  0  0  0  0  0  0  0  0
   25.1440    1.5407   -7.2643 O   0  0  0  0  0  0  0  0  0  0  0  0
   26.9243    2.7470   -7.9996 N   0  0  0  0  0  0  0  0  0  0  0  0
   26.1423    3.1375   -9.1810 C   0  0  1  0  0  0  0  0  0  0  0  0
   24.9342    3.9369   -8.7493 C   0  0  0  0  0  0  0  0  0  0  0  0
   24.1680    4.4667   -9.8906 C   0  0  0  0  0  0  0  0  0  0  0  0
   24.2620    3.9104  -11.0441 O   0  0  0  0  0  0  0  0  0  0  0  0
   27.0025    3.9672  -10.0429 C   0  0  0  0  0  0  0  0  0  0  0  0
   28.0184    4.5175   -9.5820 O   0  0  0  0  0  0  0  0  0  0  0  0
   23.3139    5.5618   -9.8474 O   0  0  0  0  0  0  0  0  0  0  0  0
   26.6977    4.1454  -11.3646 O   0  0  0  0  0  0  0  0  0  0  0  0
  2  4  1  0
  2  1  1  1
  3  2  1  0
  4  5  1  1
  4  6  1  0
  6  7  2  0
  8  6  1  0
  8  9  1  0
  9 16  1  0
  9 10  1  6
 10 11  1  0
 11 12  2  0
 12 13  1  0
 14 13  1  0
 15 11  1  0
 15 14  2  0
 16 17  2  0
 18 19  1  0
 18 16  1  0
 19 23  1  0
 20 21  1  0
 19 20  1  1
 21 22  2  0
 23 24  2  0
 23 26  1  0
 25 21  1  0
M  END
$$$$
