RYS.pdb
     RDKit          3D

 30 30  0  0  1  0  0  0  0  0999 V2000
   15.8844  -14.7773  -17.4808 N   0  0  0  0  0  0  0  0  0  0  0  0
   15.2223  -14.9878  -16.2283 C   0  0  0  0  0  0  0  0  0  0  0  0
   14.7327  -16.1580  -16.0152 N   0  0  0  0  0  0  0  0  0  0  0  0
   15.1108  -13.9425  -15.2666 N   0  0  0  0  0  0  0  0  0  0  0  0
   15.5006  -12.6171  -15.6020 C   0  0  0  0  0  0  0  0  0  0  0  0
   16.9135  -12.4369  -15.9482 C   0  0  0  0  0  0  0  0  0  0  0  0
   17.7273  -11.3422  -15.4247 C   0  0  0  0  0  0  0  0  0  0  0  0
   17.6757   -9.9934  -16.0236 C   0  0  2  0  0  0  0  0  0  0  0  0
   17.6150   -9.8282  -17.4093 N   0  0  0  0  0  0  0  0  0  0  0  0
   18.7736   -9.1756  -15.3899 C   0  0  0  0  0  0  0  0  0  0  0  0
   18.8625   -9.2192  -14.1366 O   0  0  0  0  0  0  0  0  0  0  0  0
   14.3132  -16.4620  -15.1154 O   0  0  0  0  0  0  0  0  0  0  0  0
   23.4570  -13.6422  -15.9760 C   0  0  0  0  0  0  0  0  0  0  0  0
   23.1180  -12.2739  -15.9850 C   0  0  0  0  0  0  0  0  0  0  0  0
   22.4160  -11.7432  -17.0257 C   0  0  0  0  0  0  0  0  0  0  0  0
   22.0756  -10.4165  -17.0541 C   0  0  0  0  0  0  0  0  0  0  0  0
   22.4295   -9.5528  -16.0238 C   0  0  0  0  0  0  0  0  0  0  0  0
   22.0989   -8.1355  -15.9818 C   0  0  2  0  0  0  0  0  0  0  0  0
   20.7989   -7.7491  -15.4032 N   0  0  0  0  0  0  0  0  0  0  0  0
   19.6858   -8.3799  -16.0971 C   0  0  0  0  0  0  0  0  0  0  0  0
   20.6803   -6.2418  -15.5437 O   0  0  0  0  0  0  0  0  0  0  0  0
   20.4442   -5.6860  -16.6351 C   0  0  0  0  0  0  0  0  0  0  0  0
   23.1388  -10.1043  -14.9782 C   0  0  0  0  0  0  0  0  0  0  0  0
   23.4924  -11.4632  -14.9427 O   0  0  0  0  0  0  0  0  0  0  0  0
   18.4168   -3.8865  -14.5073 C   0  0  0  0  0  0  0  0  0  0  0  0
   19.4979   -3.5673  -13.6905 C   0  0  2  0  0  0  0  0  0  0  0  0
   20.8168   -4.0606  -14.3211 N   0  0  0  0  0  0  0  0  0  0  0  0
   20.8507   -5.4873  -14.3589 C   0  0  0  0  0  0  0  0  0  0  0  0
   21.9562   -3.4566  -13.5534 O   0  0  0  0  0  0  0  0  0  0  0  0
   22.1822   -2.2353  -13.5356 O   0  0  0  0  0  0  0  0  0  0  0  0
  2  1  1  0
  2  3  2  0
  4  2  1  0
  5  6  1  0
  5  4  1  0
  7  6  1  0
  8  7  1  0
  8  9  1  6
 10 11  2  0
 10  8  1  0
 12 13  1  0
 13 14  2  0
 14 15  1  0
 16 17  1  0
 16 15  2  0
 18 17  1  1
 18 19  1  0
 19 10  1  0
 20 18  1  0
 21 20  2  0
 22 16  1  0
 23 22  2  0
 23 13  1  0
 25 24  1  0
 26 25  1  6
 26 27  1  0
 27 20  1  0
 28 26  1  0
 28 30  1  0
 29 28  2  0
M  END
$$$$
