RYS.pdb
     RDKit          3D

 30 30  0  0  1  0  0  0  0  0999 V2000
   30.2909  -26.2839  -17.4378 N   0  0  0  0  0  0  0  0  0  0  0  0
   30.8889  -24.9903  -17.5808 C   0  0  0  0  0  0  0  0  0  0  0  0
   31.9785  -24.9219  -18.2611 N   0  0  0  0  0  0  0  0  0  0  0  0
   30.3004  -23.8348  -16.9905 N   0  0  0  0  0  0  0  0  0  0  0  0
   28.8887  -23.7427  -16.8513 C   0  0  0  0  0  0  0  0  0  0  0  0
   28.2704  -22.5380  -17.4126 C   0  0  0  0  0  0  0  0  0  0  0  0
   27.4558  -21.6192  -16.6207 C   0  0  0  0  0  0  0  0  0  0  0  0
   26.3466  -22.1089  -15.7780 C   0  0  2  0  0  0  0  0  0  0  0  0
   25.0962  -22.3897  -16.3339 N   0  0  0  0  0  0  0  0  0  0  0  0
   26.2562  -21.1999  -14.5775 C   0  0  0  0  0  0  0  0  0  0  0  0
   27.0581  -20.2325  -14.5364 O   0  0  0  0  0  0  0  0  0  0  0  0
   32.5112  -24.0463  -18.4266 O   0  0  0  0  0  0  0  0  0  0  0  0
   19.4067  -22.5939  -13.9543 C   0  0  0  0  0  0  0  0  0  0  0  0
   20.5589  -21.9041  -13.5255 C   0  0  0  0  0  0  0  0  0  0  0  0
   21.5468  -21.5925  -14.4111 C   0  0  0  0  0  0  0  0  0  0  0  0
   22.6743  -20.9221  -14.0158 C   0  0  0  0  0  0  0  0  0  0  0  0
   22.8610  -20.5289  -12.6954 C   0  0  0  0  0  0  0  0  0  0  0  0
   24.0274  -19.8099  -12.2032 C   0  0  1  0  0  0  0  0  0  0  0  0
   25.3515  -20.4267  -12.4047 N   0  0  0  0  0  0  0  0  0  0  0  0
   25.3513  -21.3629  -13.5191 C   0  0  0  0  0  0  0  0  0  0  0  0
   25.6919  -21.1755  -11.1284 O   0  0  0  0  0  0  0  0  0  0  0  0
   25.2246  -22.3019  -10.8662 C   0  0  0  0  0  0  0  0  0  0  0  0
   21.8530  -20.8508  -11.8118 C   0  0  0  0  0  0  0  0  0  0  0  0
   20.6949  -21.5390  -12.2094 O   0  0  0  0  0  0  0  0  0  0  0  0
   27.3765  -19.3870   -7.0005 C   0  0  0  0  0  0  0  0  0  0  0  0
   27.7792  -20.0208   -8.1727 C   0  0  1  0  0  0  0  0  0  0  0  0
   26.5893  -20.7511   -8.8293 N   0  0  0  0  0  0  0  0  0  0  0  0
   26.5797  -20.5253  -10.2389 C   0  0  0  0  0  0  0  0  0  0  0  0
   25.3311  -20.3038   -8.1445 O   0  0  0  0  0  0  0  0  0  0  0  0
   24.5905  -19.4213   -8.6086 O   0  0  0  0  0  0  0  0  0  0  0  0
  2  1  1  0
  2  3  2  0
  4  2  1  0
  5  6  1  0
  5  4  1  0
  7  6  1  0
  8  7  1  0
  8  9  1  6
 10 11  2  0
 10  8  1  0
 12 13  1  0
 13 14  2  0
 14 15  1  0
 16 17  1  0
 16 15  2  0
 18 17  1  6
 18 19  1  0
 19 10  1  0
 20 18  1  0
 21 20  2  0
 22 16  1  0
 23 22  2  0
 23 13  1  0
 25 24  1  0
 26 25  1  6
 26 27  1  0
 27 20  1  0
 28 26  1  0
 28 30  1  0
 29 28  2  0
M  END
$$$$
