RYS.pdb
     RDKit          3D

 30 30  0  0  1  0  0  0  0  0999 V2000
   45.2614  -11.5673   -5.2661 N   0  0  0  0  0  0  0  0  0  0  0  0
   45.8374  -11.9134   -6.5310 C   0  0  0  0  0  0  0  0  0  0  0  0
   46.9238  -12.6019   -6.5099 N   0  0  0  0  0  0  0  0  0  0  0  0
   45.2314  -11.5073   -7.7548 N   0  0  0  0  0  0  0  0  0  0  0  0
   44.0041  -10.7900   -7.7420 C   0  0  0  0  0  0  0  0  0  0  0  0
   42.8749  -11.4476   -8.4061 C   0  0  0  0  0  0  0  0  0  0  0  0
   42.2669  -10.9377   -9.6330 C   0  0  0  0  0  0  0  0  0  0  0  0
   41.2461   -9.8713   -9.5977 C   0  0  2  0  0  0  0  0  0  0  0  0
   40.4569   -9.6742   -8.4621 N   0  0  0  0  0  0  0  0  0  0  0  0
   40.4274   -9.9879  -10.8594 C   0  0  0  0  0  0  0  0  0  0  0  0
   41.0571  -10.1975  -11.9272 O   0  0  0  0  0  0  0  0  0  0  0  0
   47.4978  -12.8154   -7.3483 O   0  0  0  0  0  0  0  0  0  0  0  0
   33.7477  -10.5952  -16.7318 C   0  0  0  0  0  0  0  0  0  0  0  0
   34.5484  -10.5648  -15.5719 C   0  0  0  0  0  0  0  0  0  0  0  0
   35.3101  -11.6421  -15.2303 C   0  0  0  0  0  0  0  0  0  0  0  0
   36.0958  -11.6335  -14.1080 C   0  0  0  0  0  0  0  0  0  0  0  0
   36.1525  -10.5267  -13.2686 C   0  0  0  0  0  0  0  0  0  0  0  0
   36.9667  -10.4421  -12.0645 C   0  0  1  0  0  0  0  0  0  0  0  0
   38.3450   -9.9360  -12.2002 N   0  0  0  0  0  0  0  0  0  0  0  0
   39.0311   -9.8766  -10.9180 C   0  0  0  0  0  0  0  0  0  0  0  0
   38.2491   -8.5344  -12.7763 O   0  0  0  0  0  0  0  0  0  0  0  0
   37.8560   -7.5587  -12.1061 C   0  0  0  0  0  0  0  0  0  0  0  0
   35.3769   -9.4449  -13.6276 C   0  0  0  0  0  0  0  0  0  0  0  0
   34.5680   -9.4469  -14.7759 O   0  0  0  0  0  0  0  0  0  0  0  0
   40.7677   -7.4185  -15.6477 C   0  0  0  0  0  0  0  0  0  0  0  0
   39.8807   -6.5108  -15.0756 C   0  0  1  0  0  0  0  0  0  0  0  0
   38.5009   -7.1660  -14.8585 N   0  0  0  0  0  0  0  0  0  0  0  0
   38.6352   -8.3860  -14.1295 C   0  0  0  0  0  0  0  0  0  0  0  0
   37.8503   -7.3404  -16.1996 O   0  0  0  0  0  0  0  0  0  0  0  0
   37.4957   -6.3811  -16.9046 O   0  0  0  0  0  0  0  0  0  0  0  0
  2  1  1  0
  2  3  2  0
  4  2  1  0
  5  6  1  0
  5  4  1  0
  7  6  1  0
  8  7  1  0
  8  9  1  1
 10 11  2  0
 10  8  1  0
 12 13  1  0
 13 14  2  0
 14 15  1  0
 16 17  1  0
 16 15  2  0
 18 17  1  6
 18 19  1  0
 19 10  1  0
 20 18  1  0
 21 20  2  0
 22 16  1  0
 23 22  2  0
 23 13  1  0
 25 24  1  0
 26 25  1  1
 26 27  1  0
 27 20  1  0
 28 26  1  0
 28 30  1  0
 29 28  2  0
M  END
$$$$
