RYS.pdb
     RDKit          3D

 30 30  0  0  1  0  0  0  0  0999 V2000
   22.7129  -27.1418  -13.4183 N   0  0  0  0  0  0  0  0  0  0  0  0
   22.9658  -26.6606  -14.7434 C   0  0  0  0  0  0  0  0  0  0  0  0
   22.4151  -27.3016  -15.7132 N   0  0  0  0  0  0  0  0  0  0  0  0
   23.7942  -25.5241  -14.9713 N   0  0  0  0  0  0  0  0  0  0  0  0
   24.2678  -24.7526  -13.8752 C   0  0  0  0  0  0  0  0  0  0  0  0
   23.3380  -23.7451  -13.3563 C   0  0  0  0  0  0  0  0  0  0  0  0
   23.6110  -22.3106  -13.4053 C   0  0  0  0  0  0  0  0  0  0  0  0
   24.8420  -21.7434  -12.8195 C   0  0  2  0  0  0  0  0  0  0  0  0
   25.1225  -21.8952  -11.4595 N   0  0  0  0  0  0  0  0  0  0  0  0
   24.9391  -20.3084  -13.2747 C   0  0  0  0  0  0  0  0  0  0  0  0
   24.0891  -19.5069  -12.8103 O   0  0  0  0  0  0  0  0  0  0  0  0
   22.5445  -27.0690  -16.7168 O   0  0  0  0  0  0  0  0  0  0  0  0
   27.5710  -12.7563  -17.2810 C   0  0  0  0  0  0  0  0  0  0  0  0
   27.4759  -14.0387  -16.7031 C   0  0  0  0  0  0  0  0  0  0  0  0
   27.0943  -14.1835  -15.4028 C   0  0  0  0  0  0  0  0  0  0  0  0
   26.9948  -15.4202  -14.8218 C   0  0  0  0  0  0  0  0  0  0  0  0
   27.2772  -16.5819  -15.5315 C   0  0  0  0  0  0  0  0  0  0  0  0
   27.1884  -17.9282  -14.9844 C   0  0  1  0  0  0  0  0  0  0  0  0
   25.8548  -18.4302  -14.6054 N   0  0  0  0  0  0  0  0  0  0  0  0
   25.8997  -19.8185  -14.1707 C   0  0  0  0  0  0  0  0  0  0  0  0
   24.9737  -18.3251  -15.8377 O   0  0  0  0  0  0  0  0  0  0  0  0
   25.0760  -19.1065  -16.8045 C   0  0  0  0  0  0  0  0  0  0  0  0
   27.6614  -16.4191  -16.8455 C   0  0  0  0  0  0  0  0  0  0  0  0
   27.7669  -15.1544  -17.4475 O   0  0  0  0  0  0  0  0  0  0  0  0
   21.3082  -16.6993  -15.4416 C   0  0  0  0  0  0  0  0  0  0  0  0
   21.7034  -17.3264  -16.6199 C   0  0  1  0  0  0  0  0  0  0  0  0
   23.1721  -16.9860  -16.9478 N   0  0  0  0  0  0  0  0  0  0  0  0
   24.0154  -17.2841  -15.8351 C   0  0  0  0  0  0  0  0  0  0  0  0
   23.2342  -15.5489  -17.3757 O   0  0  0  0  0  0  0  0  0  0  0  0
   22.5999  -15.1093  -18.3490 O   0  0  0  0  0  0  0  0  0  0  0  0
  2  1  1  0
  2  3  2  0
  4  2  1  0
  5  6  1  0
  5  4  1  0
  7  6  1  0
  8  7  1  0
  8  9  1  1
 10 11  2  0
 10  8  1  0
 12 13  1  0
 13 14  2  0
 14 15  1  0
 16 17  1  0
 16 15  2  0
 18 17  1  1
 18 19  1  0
 19 10  1  0
 20 18  1  0
 21 20  2  0
 22 16  1  0
 23 22  2  0
 23 13  1  0
 25 24  1  0
 26 25  1  6
 26 27  1  0
 27 20  1  0
 28 26  1  0
 28 30  1  0
 29 28  2  0
M  END
$$$$
