RYS.pdb
     RDKit          3D

 30 30  0  0  1  0  0  0  0  0999 V2000
   52.0544  -13.1002   -6.8124 N   0  0  0  0  0  0  0  0  0  0  0  0
   51.6575  -14.3636   -6.2669 C   0  0  0  0  0  0  0  0  0  0  0  0
   52.3168  -14.7942   -5.2497 N   0  0  0  0  0  0  0  0  0  0  0  0
   50.5819  -15.1075   -6.8321 N   0  0  0  0  0  0  0  0  0  0  0  0
   49.8302  -14.5701   -7.9124 C   0  0  0  0  0  0  0  0  0  0  0  0
   49.1597  -13.2935   -7.6491 C   0  0  0  0  0  0  0  0  0  0  0  0
   47.8491  -12.9549   -8.1992 C   0  0  0  0  0  0  0  0  0  0  0  0
   46.6091  -13.5194   -7.6299 C   0  0  2  0  0  0  0  0  0  0  0  0
   46.4966  -14.8888   -7.3780 N   0  0  0  0  0  0  0  0  0  0  0  0
   45.4551  -12.9824   -8.4397 C   0  0  0  0  0  0  0  0  0  0  0  0
   45.1392  -13.6250   -9.4730 O   0  0  0  0  0  0  0  0  0  0  0  0
   52.1002  -15.6731   -4.7412 O   0  0  0  0  0  0  0  0  0  0  0  0
   42.0405   -8.5139   -3.3720 C   0  0  0  0  0  0  0  0  0  0  0  0
   42.1097   -9.2298   -4.5844 C   0  0  0  0  0  0  0  0  0  0  0  0
   41.8663   -8.6043   -5.7705 C   0  0  0  0  0  0  0  0  0  0  0  0
   41.9288   -9.2809   -6.9602 C   0  0  0  0  0  0  0  0  0  0  0  0
   42.2440  -10.6340   -7.0114 C   0  0  0  0  0  0  0  0  0  0  0  0
   42.3347  -11.4167   -8.2357 C   0  0  1  0  0  0  0  0  0  0  0  0
   43.6163  -11.4076   -8.9648 N   0  0  0  0  0  0  0  0  0  0  0  0
   44.7249  -11.8288   -8.1210 C   0  0  0  0  0  0  0  0  0  0  0  0
   43.8567   -9.9800   -9.4229 O   0  0  0  0  0  0  0  0  0  0  0  0
   44.5060   -9.1581   -8.7457 C   0  0  0  0  0  0  0  0  0  0  0  0
   42.4880  -11.2524   -5.8037 C   0  0  0  0  0  0  0  0  0  0  0  0
   42.4245  -10.5657   -4.5801 O   0  0  0  0  0  0  0  0  0  0  0  0
   42.6324   -6.9412  -13.0707 C   0  0  0  0  0  0  0  0  0  0  0  0
   42.5444   -8.2178  -12.5227 C   0  0  2  0  0  0  0  0  0  0  0  0
   43.3484   -8.2993  -11.2084 N   0  0  0  0  0  0  0  0  0  0  0  0
   43.3026   -9.6226  -10.6749 C   0  0  0  0  0  0  0  0  0  0  0  0
   42.8144   -7.2580  -10.2689 O   0  0  0  0  0  0  0  0  0  0  0  0
   41.7304   -7.3810   -9.6749 O   0  0  0  0  0  0  0  0  0  0  0  0
  2  1  1  0
  2  3  2  0
  4  2  1  0
  5  6  1  0
  5  4  1  0
  7  6  1  0
  8  7  1  0
  8  9  1  6
 10 11  2  0
 10  8  1  0
 12 13  1  0
 13 14  2  0
 14 15  1  0
 16 17  1  0
 16 15  2  0
 18 17  1  6
 18 19  1  0
 19 10  1  0
 20 18  1  0
 21 20  2  0
 22 16  1  0
 23 22  2  0
 23 13  1  0
 25 24  1  0
 26 25  1  6
 26 27  1  0
 27 20  1  0
 28 26  1  0
 28 30  1  0
 29 28  2  0
M  END
$$$$
