YFK.pdb
     RDKit          3D

 33 34  0  0  1  0  0  0  0  0999 V2000
   22.6309  -18.7501  -17.7039 O   0  0  0  0  0  0  0  0  0  0  0  0
   22.9554  -19.2180  -16.4216 C   0  0  0  0  0  0  0  0  0  0  0  0
   23.3717  -18.3595  -15.4270 C   0  0  0  0  0  0  0  0  0  0  0  0
   23.6902  -18.8201  -14.1678 C   0  0  0  0  0  0  0  0  0  0  0  0
   23.6062  -20.1783  -13.8394 C   0  0  0  0  0  0  0  0  0  0  0  0
   23.9593  -20.6642  -12.4838 C   0  0  0  0  0  0  0  0  0  0  0  0
   25.4188  -20.7718  -12.2527 C   0  0  2  0  0  0  0  0  0  0  0  0
   26.0364  -21.8066  -13.0871 N   0  0  0  0  0  0  0  0  0  0  0  0
   25.8664  -20.9752  -10.8795 C   0  0  0  0  0  0  0  0  0  0  0  0
   25.7300  -22.1608  -10.4123 O   0  0  0  0  0  0  0  0  0  0  0  0
   23.1872  -21.0124  -14.8540 C   0  0  0  0  0  0  0  0  0  0  0  0
   22.8675  -20.5583  -16.1147 C   0  0  0  0  0  0  0  0  0  0  0  0
   26.4263  -19.9698  -10.0553 N   0  0  0  0  0  0  0  0  0  0  0  0
   26.7337  -20.2590   -8.6765 C   0  0  1  0  0  0  0  0  0  0  0  0
   27.7539  -19.2827   -8.1272 C   0  0  0  0  0  0  0  0  0  0  0  0
   28.0262  -19.4793   -6.7030 C   0  0  0  0  0  0  0  0  0  0  0  0
   28.6117  -20.6287   -6.2326 C   0  0  0  0  0  0  0  0  0  0  0  0
   28.8701  -20.8247   -4.8762 C   0  0  0  0  0  0  0  0  0  0  0  0
   28.5408  -19.8567   -3.9555 C   0  0  0  0  0  0  0  0  0  0  0  0
   27.9529  -18.6994   -4.4176 C   0  0  0  0  0  0  0  0  0  0  0  0
   27.6977  -18.5113   -5.7766 C   0  0  0  0  0  0  0  0  0  0  0  0
   25.4802  -20.3106   -7.9015 C   0  0  0  0  0  0  0  0  0  0  0  0
   24.5780  -19.4352   -8.0905 O   0  0  0  0  0  0  0  0  0  0  0  0
   25.1773  -21.2984   -6.9193 N   0  0  0  0  0  0  0  0  0  0  0  0
   23.9427  -21.2512   -6.1157 C   0  0  1  0  0  0  0  0  0  0  0  0
   23.0138  -22.2715   -6.7499 C   0  0  0  0  0  0  0  0  0  0  0  0
   21.7277  -22.4645   -6.0131 C   0  0  0  0  0  0  0  0  0  0  0  0
   20.9159  -23.4846   -6.8229 C   0  0  0  0  0  0  0  0  0  0  0  0
   19.5929  -23.7662   -6.1531 C   0  0  0  0  0  0  0  0  0  0  0  0
   18.7969  -24.6741   -6.9447 N   0  0  0  0  0  0  0  0  0  0  0  0
   24.2225  -21.4976   -4.7072 C   0  0  0  0  0  0  0  0  0  0  0  0
   25.2111  -22.1982   -4.3840 O   0  0  0  0  0  0  0  0  0  0  0  0
   23.4370  -20.9865   -3.6925 O   0  0  0  0  0  0  0  0  0  0  0  0
  2  1  1  0
  3  2  2  0
  4  3  1  0
  5 11  1  0
  5  4  2  0
  6  5  1  0
  7  6  1  0
  7  8  1  6
  9  7  1  0
  9 10  2  0
 11 12  2  0
 12  2  1  0
 13  9  1  0
 14 13  1  0
 14 15  1  1
 16 15  1  0
 16 17  2  0
 17 18  1  0
 19 18  2  0
 20 19  1  0
 21 20  2  0
 21 16  1  0
 22 14  1  0
 23 22  2  0
 24 22  1  0
 25 24  1  0
 26 27  1  0
 25 26  1  6
 28 29  1  0
 28 27  1  0
 29 30  1  0
 31 25  1  0
 31 33  1  0
 32 31  2  0
M  END
$$$$
