YFK.pdb
     RDKit          3D

 33 34  0  0  1  0  0  0  0  0999 V2000
   29.1642  -15.5493  -18.7992 O   0  0  0  0  0  0  0  0  0  0  0  0
   28.3804  -16.4232  -18.0305 C   0  0  0  0  0  0  0  0  0  0  0  0
   28.0237  -17.6694  -18.4986 C   0  0  0  0  0  0  0  0  0  0  0  0
   27.2539  -18.5269  -17.7427 C   0  0  0  0  0  0  0  0  0  0  0  0
   26.7986  -18.1742  -16.4668 C   0  0  0  0  0  0  0  0  0  0  0  0
   25.9639  -19.1013  -15.6655 C   0  0  0  0  0  0  0  0  0  0  0  0
   26.6720  -19.6824  -14.5010 C   0  0  2  0  0  0  0  0  0  0  0  0
   27.8466  -20.4629  -14.9008 N   0  0  0  0  0  0  0  0  0  0  0  0
   25.8875  -20.4926  -13.5760 C   0  0  0  0  0  0  0  0  0  0  0  0
   25.7429  -21.7264  -13.8910 O   0  0  0  0  0  0  0  0  0  0  0  0
   27.1710  -16.9223  -16.0257 C   0  0  0  0  0  0  0  0  0  0  0  0
   27.9403  -16.0604  -16.7763 C   0  0  0  0  0  0  0  0  0  0  0  0
   25.2932  -20.0111  -12.3850 N   0  0  0  0  0  0  0  0  0  0  0  0
   24.5483  -20.9101  -11.5388 C   0  0  1  0  0  0  0  0  0  0  0  0
   24.6320  -20.4888  -10.0857 C   0  0  0  0  0  0  0  0  0  0  0  0
   25.9705  -20.6531   -9.5177 C   0  0  0  0  0  0  0  0  0  0  0  0
   26.8439  -21.6005   -9.9919 C   0  0  0  0  0  0  0  0  0  0  0  0
   28.1193  -21.7655   -9.4525 C   0  0  0  0  0  0  0  0  0  0  0  0
   28.5463  -20.9713   -8.4132 C   0  0  0  0  0  0  0  0  0  0  0  0
   27.6771  -20.0174   -7.9303 C   0  0  0  0  0  0  0  0  0  0  0  0
   26.4025  -19.8589   -8.4757 C   0  0  0  0  0  0  0  0  0  0  0  0
   23.1691  -21.0236  -12.0482 C   0  0  0  0  0  0  0  0  0  0  0  0
   22.5032  -19.9760  -12.3225 O   0  0  0  0  0  0  0  0  0  0  0  0
   22.4890  -22.2564  -12.2718 N   0  0  0  0  0  0  0  0  0  0  0  0
   21.0766  -22.3070  -12.6900 C   0  0  1  0  0  0  0  0  0  0  0  0
   20.7691  -23.7819  -12.8809 C   0  0  0  0  0  0  0  0  0  0  0  0
   19.3501  -24.0641  -13.2564 C   0  0  0  0  0  0  0  0  0  0  0  0
   19.2199  -25.5914  -13.3325 C   0  0  0  0  0  0  0  0  0  0  0  0
   17.8271  -25.9876  -13.7586 C   0  0  0  0  0  0  0  0  0  0  0  0
   17.7284  -27.4173  -13.9335 N   0  0  0  0  0  0  0  0  0  0  0  0
   20.2169  -21.6419  -11.7197 C   0  0  0  0  0  0  0  0  0  0  0  0
   19.1614  -21.0849  -12.1046 O   0  0  0  0  0  0  0  0  0  0  0  0
   20.5141  -21.5954  -10.3717 O   0  0  0  0  0  0  0  0  0  0  0  0
  2  1  1  0
  3  2  2  0
  4  3  1  0
  5 11  1  0
  5  4  2  0
  6  5  1  0
  7  6  1  0
  7  8  1  6
  9  7  1  0
  9 10  2  0
 11 12  2  0
 12  2  1  0
 13  9  1  0
 14 13  1  0
 14 15  1  1
 16 15  1  0
 16 17  2  0
 17 18  1  0
 19 18  2  0
 20 19  1  0
 21 20  2  0
 21 16  1  0
 22 14  1  0
 23 22  2  0
 24 22  1  0
 25 24  1  0
 26 27  1  0
 25 26  1  1
 28 29  1  0
 28 27  1  0
 29 30  1  0
 31 25  1  0
 31 33  1  0
 32 31  2  0
M  END
$$$$
