YFK.pdb
     RDKit          3D

 33 34  0  0  1  0  0  0  0  0999 V2000
   30.1648  -15.2170  -17.9916 O   0  0  0  0  0  0  0  0  0  0  0  0
   29.3199  -16.1321  -17.3456 C   0  0  0  0  0  0  0  0  0  0  0  0
   28.6595  -15.8030  -16.1815 C   0  0  0  0  0  0  0  0  0  0  0  0
   27.8299  -16.7026  -15.5478 C   0  0  0  0  0  0  0  0  0  0  0  0
   27.6186  -17.9902  -16.0547 C   0  0  0  0  0  0  0  0  0  0  0  0
   26.7303  -18.9531  -15.3604 C   0  0  0  0  0  0  0  0  0  0  0  0
   27.3780  -19.6435  -14.2206 C   0  0  2  0  0  0  0  0  0  0  0  0
   28.5023  -20.4814  -14.6478 N   0  0  0  0  0  0  0  0  0  0  0  0
   26.5249  -20.4453  -13.3507 C   0  0  0  0  0  0  0  0  0  0  0  0
   26.4231  -21.6872  -13.6506 O   0  0  0  0  0  0  0  0  0  0  0  0
   28.2922  -18.2905  -17.2196 C   0  0  0  0  0  0  0  0  0  0  0  0
   29.1228  -17.3958  -17.8579 C   0  0  0  0  0  0  0  0  0  0  0  0
   25.8224  -19.9478  -12.2271 N   0  0  0  0  0  0  0  0  0  0  0  0
   24.9605  -20.8236  -11.4725 C   0  0  1  0  0  0  0  0  0  0  0  0
   24.9413  -20.4418  -10.0063 C   0  0  0  0  0  0  0  0  0  0  0  0
   26.2630  -20.5025   -9.3811 C   0  0  0  0  0  0  0  0  0  0  0  0
   26.6090  -19.6721   -8.3438 C   0  0  0  0  0  0  0  0  0  0  0  0
   27.8681  -19.7215   -7.7462 C   0  0  0  0  0  0  0  0  0  0  0  0
   28.8150  -20.6179   -8.1854 C   0  0  0  0  0  0  0  0  0  0  0  0
   28.4774  -21.4558   -9.2259 C   0  0  0  0  0  0  0  0  0  0  0  0
   27.2152  -21.3998   -9.8184 C   0  0  0  0  0  0  0  0  0  0  0  0
   23.6261  -20.8480  -12.0998 C   0  0  0  0  0  0  0  0  0  0  0  0
   23.0629  -19.7607  -12.4414 O   0  0  0  0  0  0  0  0  0  0  0  0
   22.8818  -22.0334  -12.3701 N   0  0  0  0  0  0  0  0  0  0  0  0
   21.5250  -21.9923  -12.9443 C   0  0  1  0  0  0  0  0  0  0  0  0
   21.1502  -23.4437  -13.1882 C   0  0  0  0  0  0  0  0  0  0  0  0
   19.7664  -23.6337  -13.7202 C   0  0  0  0  0  0  0  0  0  0  0  0
   19.5400  -25.1496  -13.8008 C   0  0  0  0  0  0  0  0  0  0  0  0
   18.1698  -25.4557  -14.3549 C   0  0  0  0  0  0  0  0  0  0  0  0
   18.0065  -26.8736  -14.5729 N   0  0  0  0  0  0  0  0  0  0  0  0
   20.6044  -21.2807  -12.0674 C   0  0  0  0  0  0  0  0  0  0  0  0
   19.6659  -20.6127  -12.5632 O   0  0  0  0  0  0  0  0  0  0  0  0
   20.7177  -21.3076  -10.6911 O   0  0  0  0  0  0  0  0  0  0  0  0
  2  1  1  0
  3  2  2  0
  4  3  1  0
  5 11  1  0
  5  4  2  0
  6  5  1  0
  7  6  1  0
  7  8  1  6
  9  7  1  0
  9 10  2  0
 11 12  2  0
 12  2  1  0
 13  9  1  0
 14 13  1  0
 14 15  1  1
 16 15  1  0
 16 17  2  0
 17 18  1  0
 19 18  2  0
 20 19  1  0
 21 20  2  0
 21 16  1  0
 22 14  1  0
 23 22  2  0
 24 22  1  0
 25 24  1  0
 26 27  1  0
 25 26  1  1
 28 29  1  0
 28 27  1  0
 29 30  1  0
 31 25  1  0
 31 33  1  0
 32 31  2  0
M  END
$$$$
