YFK.pdb
     RDKit          3D

 33 34  0  0  1  0  0  0  0  0999 V2000
   25.1966  -31.9167  -10.2078 O   0  0  0  0  0  0  0  0  0  0  0  0
   25.4255  -32.4463   -8.9289 C   0  0  0  0  0  0  0  0  0  0  0  0
   26.1374  -33.6130   -8.7505 C   0  0  0  0  0  0  0  0  0  0  0  0
   26.3616  -34.1321   -7.4938 C   0  0  0  0  0  0  0  0  0  0  0  0
   25.8785  -33.5013   -6.3413 C   0  0  0  0  0  0  0  0  0  0  0  0
   26.1184  -34.0731   -4.9946 C   0  0  0  0  0  0  0  0  0  0  0  0
   27.3052  -33.5071   -4.3116 C   0  0  2  0  0  0  0  0  0  0  0  0
   28.5553  -34.1080   -4.7855 N   0  0  0  0  0  0  0  0  0  0  0  0
   27.3165  -33.5369   -2.8534 C   0  0  0  0  0  0  0  0  0  0  0  0
   28.0200  -34.4626   -2.3143 O   0  0  0  0  0  0  0  0  0  0  0  0
   25.1706  -32.3371   -6.5511 C   0  0  0  0  0  0  0  0  0  0  0  0
   24.9429  -31.8128   -7.8045 C   0  0  0  0  0  0  0  0  0  0  0  0
   26.6167  -32.6302   -2.0217 N   0  0  0  0  0  0  0  0  0  0  0  0
   26.7114  -32.7500   -0.5879 C   0  0  1  0  0  0  0  0  0  0  0  0
   26.8333  -31.3894    0.0677 C   0  0  0  0  0  0  0  0  0  0  0  0
   26.7513  -31.4474    1.5276 C   0  0  0  0  0  0  0  0  0  0  0  0
   27.7657  -31.9769    2.2864 C   0  0  0  0  0  0  0  0  0  0  0  0
   27.6924  -32.0394    3.6777 C   0  0  0  0  0  0  0  0  0  0  0  0
   26.5843  -31.5646    4.3408 C   0  0  0  0  0  0  0  0  0  0  0  0
   25.5609  -31.0310    3.5881 C   0  0  0  0  0  0  0  0  0  0  0  0
   25.6421  -30.9724    2.1963 C   0  0  0  0  0  0  0  0  0  0  0  0
   25.5764  -33.5508   -0.0928 C   0  0  0  0  0  0  0  0  0  0  0  0
   24.3847  -33.2085   -0.3737 O   0  0  0  0  0  0  0  0  0  0  0  0
   25.7031  -34.7257    0.7047 N   0  0  0  0  0  0  0  0  0  0  0  0
   24.5294  -35.4466    1.2291 C   0  0  1  0  0  0  0  0  0  0  0  0
   24.7400  -36.8966    0.8298 C   0  0  0  0  0  0  0  0  0  0  0  0
   24.8520  -37.1115   -0.6451 C   0  0  0  0  0  0  0  0  0  0  0  0
   25.1231  -38.6091   -0.8431 C   0  0  0  0  0  0  0  0  0  0  0  0
   25.2806  -38.9336   -2.3088 C   0  0  0  0  0  0  0  0  0  0  0  0
   25.6460  -40.3180   -2.4942 N   0  0  0  0  0  0  0  0  0  0  0  0
   24.3842  -35.2409    2.6642 C   0  0  0  0  0  0  0  0  0  0  0  0
   25.3706  -34.8628    3.3400 O   0  0  0  0  0  0  0  0  0  0  0  0
   23.1903  -35.4455    3.3277 O   0  0  0  0  0  0  0  0  0  0  0  0
  2  1  1  0
  3  2  2  0
  4  3  1  0
  5 11  1  0
  5  4  2  0
  6  5  1  0
  7  6  1  0
  7  8  1  6
  9  7  1  0
  9 10  2  0
 11 12  2  0
 12  2  1  0
 13  9  1  0
 14 13  1  0
 14 15  1  1
 16 15  1  0
 16 17  2  0
 17 18  1  0
 19 18  2  0
 20 19  1  0
 21 20  2  0
 21 16  1  0
 22 14  1  0
 23 22  2  0
 24 22  1  0
 25 24  1  0
 26 27  1  0
 25 26  1  1
 28 29  1  0
 28 27  1  0
 29 30  1  0
 31 25  1  0
 31 33  1  0
 32 31  2  0
M  END
$$$$
