YFK.pdb
     RDKit          3D

 33 34  0  0  1  0  0  0  0  0999 V2000
   15.9925  -23.9583   -8.6483 O   0  0  0  0  0  0  0  0  0  0  0  0
   17.1218  -23.5726   -9.3862 C   0  0  0  0  0  0  0  0  0  0  0  0
   18.3669  -23.4845   -8.8019 C   0  0  0  0  0  0  0  0  0  0  0  0
   19.4754  -23.1056   -9.5278 C   0  0  0  0  0  0  0  0  0  0  0  0
   19.3902  -22.7930  -10.8895 C   0  0  0  0  0  0  0  0  0  0  0  0
   20.5879  -22.3783  -11.6591 C   0  0  0  0  0  0  0  0  0  0  0  0
   21.0165  -20.9864  -11.3867 C   0  0  2  0  0  0  0  0  0  0  0  0
   20.0921  -20.0014  -11.9558 N   0  0  0  0  0  0  0  0  0  0  0  0
   22.3701  -20.6131  -11.7811 C   0  0  0  0  0  0  0  0  0  0  0  0
   22.4740  -19.9274  -12.8589 O   0  0  0  0  0  0  0  0  0  0  0  0
   18.1327  -22.8900  -11.4461 C   0  0  0  0  0  0  0  0  0  0  0  0
   17.0207  -23.2681  -10.7262 C   0  0  0  0  0  0  0  0  0  0  0  0
   23.5428  -20.9533  -11.0650 N   0  0  0  0  0  0  0  0  0  0  0  0
   24.8366  -20.6010  -11.5952 C   0  0  1  0  0  0  0  0  0  0  0  0
   25.8979  -20.6337  -10.5143 C   0  0  0  0  0  0  0  0  0  0  0  0
   27.2588  -20.5444  -11.0446 C   0  0  0  0  0  0  0  0  0  0  0  0
   28.2609  -21.3725  -10.6027 C   0  0  0  0  0  0  0  0  0  0  0  0
   29.5610  -21.2900  -11.1004 C   0  0  0  0  0  0  0  0  0  0  0  0
   29.8824  -20.3620  -12.0641 C   0  0  0  0  0  0  0  0  0  0  0  0
   28.8836  -19.5264  -12.5143 C   0  0  0  0  0  0  0  0  0  0  0  0
   27.5852  -19.6154  -12.0109 C   0  0  0  0  0  0  0  0  0  0  0  0
   25.1372  -21.4645  -12.7522 C   0  0  0  0  0  0  0  0  0  0  0  0
   24.9117  -22.7141  -12.6901 O   0  0  0  0  0  0  0  0  0  0  0  0
   25.6790  -21.0016  -13.9869 N   0  0  0  0  0  0  0  0  0  0  0  0
   25.9312  -21.9090  -15.1207 C   0  0  1  0  0  0  0  0  0  0  0  0
   24.5565  -22.2827  -15.6468 C   0  0  0  0  0  0  0  0  0  0  0  0
   24.5854  -23.1067  -16.8936 C   0  0  0  0  0  0  0  0  0  0  0  0
   23.1237  -23.2856  -17.3259 C   0  0  0  0  0  0  0  0  0  0  0  0
   23.0347  -24.1454  -18.5633 C   0  0  0  0  0  0  0  0  0  0  0  0
   23.8809  -23.6283  -19.6127 N   0  0  0  0  0  0  0  0  0  0  0  0
   26.7967  -21.2836  -16.1120 C   0  0  0  0  0  0  0  0  0  0  0  0
   26.5783  -20.1015  -16.4693 O   0  0  0  0  0  0  0  0  0  0  0  0
   27.8659  -21.9422  -16.6869 O   0  0  0  0  0  0  0  0  0  0  0  0
  2  1  1  0
  3  2  2  0
  4  3  1  0
  5 11  1  0
  5  4  2  0
  6  5  1  0
  7  6  1  0
  7  8  1  6
  9  7  1  0
  9 10  2  0
 11 12  2  0
 12  2  1  0
 13  9  1  0
 14 13  1  0
 14 15  1  1
 16 15  1  0
 16 17  2  0
 17 18  1  0
 19 18  2  0
 20 19  1  0
 21 20  2  0
 21 16  1  0
 22 14  1  0
 23 22  2  0
 24 22  1  0
 25 24  1  0
 26 27  1  0
 25 26  1  6
 28 29  1  0
 28 27  1  0
 29 30  1  0
 31 25  1  0
 31 33  1  0
 32 31  2  0
M  END
$$$$
