YFK.pdb
     RDKit          3D

 33 34  0  0  1  0  0  0  0  0999 V2000
   28.3237  -20.5679   -3.7013 O   0  0  0  0  0  0  0  0  0  0  0  0
   27.7982  -20.2995   -4.9743 C   0  0  0  0  0  0  0  0  0  0  0  0
   28.5234  -19.6074   -5.9202 C   0  0  0  0  0  0  0  0  0  0  0  0
   28.0062  -19.3444   -7.1702 C   0  0  0  0  0  0  0  0  0  0  0  0
   26.7232  -19.7663   -7.5382 C   0  0  0  0  0  0  0  0  0  0  0  0
   26.1734  -19.4707   -8.8830 C   0  0  0  0  0  0  0  0  0  0  0  0
   25.8904  -20.6816   -9.6886 C   0  0  2  0  0  0  0  0  0  0  0  0
   26.9807  -21.6589   -9.6200 N   0  0  0  0  0  0  0  0  0  0  0  0
   25.5487  -20.4870  -11.0931 C   0  0  0  0  0  0  0  0  0  0  0  0
   24.5715  -19.6925  -11.3303 O   0  0  0  0  0  0  0  0  0  0  0  0
   26.0221  -20.4557   -6.5718 C   0  0  0  0  0  0  0  0  0  0  0  0
   26.5333  -20.7219   -5.3205 C   0  0  0  0  0  0  0  0  0  0  0  0
   26.2131  -21.1059  -12.1790 N   0  0  0  0  0  0  0  0  0  0  0  0
   26.3623  -20.3998  -13.4273 C   0  0  1  0  0  0  0  0  0  0  0  0
   27.6493  -19.6004  -13.4530 C   0  0  0  0  0  0  0  0  0  0  0  0
   28.7390  -20.2454  -12.7197 C   0  0  0  0  0  0  0  0  0  0  0  0
   29.2700  -21.4451  -13.1246 C   0  0  0  0  0  0  0  0  0  0  0  0
   30.3056  -22.0675  -12.4282 C   0  0  0  0  0  0  0  0  0  0  0  0
   30.8337  -21.4884  -11.2973 C   0  0  0  0  0  0  0  0  0  0  0  0
   30.3078  -20.2842  -10.8829 C   0  0  0  0  0  0  0  0  0  0  0  0
   29.2715  -19.6681  -11.5855 C   0  0  0  0  0  0  0  0  0  0  0  0
   26.2315  -21.3553  -14.5428 C   0  0  0  0  0  0  0  0  0  0  0  0
   27.1097  -22.2584  -14.7142 O   0  0  0  0  0  0  0  0  0  0  0  0
   25.1610  -21.3570  -15.4842 N   0  0  0  0  0  0  0  0  0  0  0  0
   25.1972  -22.1746  -16.7100 C   0  0  1  0  0  0  0  0  0  0  0  0
   24.4248  -23.4375  -16.3710 C   0  0  0  0  0  0  0  0  0  0  0  0
   24.8386  -24.6351  -17.1637 C   0  0  0  0  0  0  0  0  0  0  0  0
   25.5668  -25.5681  -16.1867 C   0  0  0  0  0  0  0  0  0  0  0  0
   26.0808  -26.7939  -16.9021 C   0  0  0  0  0  0  0  0  0  0  0  0
   26.9166  -27.5866  -16.0318 N   0  0  0  0  0  0  0  0  0  0  0  0
   24.6625  -21.4391  -17.8484 C   0  0  0  0  0  0  0  0  0  0  0  0
   23.8453  -20.5072  -17.6570 O   0  0  0  0  0  0  0  0  0  0  0  0
   25.0197  -21.7238  -19.1519 O   0  0  0  0  0  0  0  0  0  0  0  0
  2  1  1  0
  3  2  2  0
  4  3  1  0
  5 11  1  0
  5  4  2  0
  6  5  1  0
  7  6  1  0
  7  8  1  6
  9  7  1  0
  9 10  2  0
 11 12  2  0
 12  2  1  0
 13  9  1  0
 14 13  1  0
 14 15  1  1
 16 15  1  0
 16 17  2  0
 17 18  1  0
 19 18  2  0
 20 19  1  0
 21 20  2  0
 21 16  1  0
 22 14  1  0
 23 22  2  0
 24 22  1  0
 25 24  1  0
 26 27  1  0
 25 26  1  1
 28 29  1  0
 28 27  1  0
 29 30  1  0
 31 25  1  0
 31 33  1  0
 32 31  2  0
M  END
$$$$
