KHD.pdb
     RDKit          3D

 28 28  0  0  1  0  0  0  0  0999 V2000
   24.8063  -19.4869  -17.7693 N   0  0  0  0  0  0  0  0  0  0  0  0
   23.6057  -20.1511  -18.2372 C   0  0  1  0  0  0  0  0  0  0  0  0
   24.0614  -21.4600  -18.8495 C   0  0  0  0  0  0  0  0  0  0  0  0
   25.2210  -21.3064  -19.7638 C   0  0  0  0  0  0  0  0  0  0  0  0
   25.6452  -19.9243  -20.0938 C   0  0  0  0  0  0  0  0  0  0  0  0
   26.8036  -19.8178  -21.0473 C   0  0  0  0  0  0  0  0  0  0  0  0
   27.2931  -18.4844  -21.2510 N   0  0  0  0  0  0  0  0  0  0  0  0
   22.7552  -20.4985  -17.0750 C   0  0  0  0  0  0  0  0  0  0  0  0
   21.8800  -21.3838  -17.2209 O   0  0  0  0  0  0  0  0  0  0  0  0
   22.8805  -19.8819  -15.8069 N   0  0  0  0  0  0  0  0  0  0  0  0
   21.9485  -20.1306  -14.7575 C   0  0  1  0  0  0  0  0  0  0  0  0
   22.5083  -19.9972  -13.3844 C   0  0  0  0  0  0  0  0  0  0  0  0
   21.5404  -20.1836  -12.2851 C   0  0  0  0  0  0  0  0  0  0  0  0
   21.0270  -21.3848  -11.8572 C   0  0  0  0  0  0  0  0  0  0  0  0
   20.1814  -21.1250  -10.8229 N   0  0  0  0  0  0  0  0  0  0  0  0
   20.1555  -19.8112  -10.5985 C   0  0  0  0  0  0  0  0  0  0  0  0
   20.9770  -19.2511  -11.4838 N   0  0  0  0  0  0  0  0  0  0  0  0
   20.6525  -19.4269  -14.9514 C   0  0  0  0  0  0  0  0  0  0  0  0
   20.5881  -18.2082  -15.2562 O   0  0  0  0  0  0  0  0  0  0  0  0
   19.3984  -20.0983  -14.7986 N   0  0  0  0  0  0  0  0  0  0  0  0
   18.1146  -19.4823  -14.8915 C   0  0  1  0  0  0  0  0  0  0  0  0
   17.3278  -19.7868  -16.1217 C   0  0  0  0  0  0  0  0  0  0  0  0
   16.0550  -19.0551  -16.2491 C   0  0  0  0  0  0  0  0  0  0  0  0
   15.7108  -18.1218  -15.4828 O   0  0  0  0  0  0  0  0  0  0  0  0
   17.2290  -19.8492  -13.7427 C   0  0  0  0  0  0  0  0  0  0  0  0
   16.3283  -18.9526  -13.2397 O   0  0  0  0  0  0  0  0  0  0  0  0
   15.1675  -19.3913  -17.2597 O   0  0  0  0  0  0  0  0  0  0  0  0
   17.3322  -20.9850  -13.2590 O   0  0  0  0  0  0  0  0  0  0  0  0
  2  1  1  1
  2  3  1  0
  4  3  1  0
  5  4  1  0
  6  5  1  0
  7  6  1  0
  8  9  2  0
  8  2  1  0
 10  8  1  0
 11 10  1  0
 11 12  1  1
 12 13  1  0
 13 17  1  0
 13 14  2  0
 14 15  1  0
 16 15  1  0
 17 16  2  0
 18 20  1  0
 18 11  1  0
 19 18  2  0
 21 25  1  0
 21 20  1  0
 21 22  1  6
 22 23  1  0
 23 27  1  0
 23 24  2  0
 25 26  1  0
 28 25  2  0
M  END
$$$$
