KHD.pdb
     RDKit          3D

 28 28  0  0  1  0  0  0  0  0999 V2000
   23.5144  -13.1511  -17.9742 N   0  0  0  0  0  0  0  0  0  0  0  0
   23.7293  -12.5501  -16.6725 C   0  0  1  0  0  0  0  0  0  0  0  0
   25.1460  -12.0127  -16.6870 C   0  0  0  0  0  0  0  0  0  0  0  0
   26.1479  -13.0147  -17.1299 C   0  0  0  0  0  0  0  0  0  0  0  0
   27.5785  -12.6637  -16.9590 C   0  0  0  0  0  0  0  0  0  0  0  0
   28.5523  -13.7697  -17.2599 C   0  0  0  0  0  0  0  0  0  0  0  0
   29.9150  -13.4803  -16.9158 N   0  0  0  0  0  0  0  0  0  0  0  0
   22.8324  -11.3810  -16.5202 C   0  0  0  0  0  0  0  0  0  0  0  0
   22.4627  -10.7752  -17.5533 O   0  0  0  0  0  0  0  0  0  0  0  0
   22.3705  -10.9125  -15.2667 N   0  0  0  0  0  0  0  0  0  0  0  0
   21.3756   -9.8967  -15.1669 C   0  0  1  0  0  0  0  0  0  0  0  0
   20.1321  -10.3118  -14.4610 C   0  0  0  0  0  0  0  0  0  0  0  0
   19.2971  -11.2975  -15.1760 C   0  0  0  0  0  0  0  0  0  0  0  0
   19.5537  -11.8201  -16.4213 C   0  0  0  0  0  0  0  0  0  0  0  0
   18.5534  -12.6955  -16.7135 N   0  0  0  0  0  0  0  0  0  0  0  0
   17.6925  -12.7312  -15.6963 C   0  0  0  0  0  0  0  0  0  0  0  0
   18.1478  -11.8860  -14.7739 N   0  0  0  0  0  0  0  0  0  0  0  0
   21.9212   -8.5907  -14.7097 C   0  0  0  0  0  0  0  0  0  0  0  0
   22.7139   -8.4964  -13.7376 O   0  0  0  0  0  0  0  0  0  0  0  0
   21.5715   -7.3603  -15.3505 N   0  0  0  0  0  0  0  0  0  0  0  0
   21.9599   -6.0597  -14.9100 C   0  0  1  0  0  0  0  0  0  0  0  0
   21.7810   -4.9528  -15.8940 C   0  0  0  0  0  0  0  0  0  0  0  0
   22.2915   -3.6400  -15.4606 C   0  0  0  0  0  0  0  0  0  0  0  0
   23.4163   -3.4737  -14.9280 O   0  0  0  0  0  0  0  0  0  0  0  0
   21.2169   -5.6351  -13.6828 C   0  0  0  0  0  0  0  0  0  0  0  0
   21.7231   -4.6704  -12.8573 O   0  0  0  0  0  0  0  0  0  0  0  0
   21.5114   -2.5075  -15.6366 O   0  0  0  0  0  0  0  0  0  0  0  0
   20.1323   -6.1791  -13.4333 O   0  0  0  0  0  0  0  0  0  0  0  0
  2  1  1  6
  2  3  1  0
  4  3  1  0
  5  4  1  0
  6  5  1  0
  7  6  1  0
  8  9  2  0
  8  2  1  0
 10  8  1  0
 11 10  1  0
 11 12  1  1
 12 13  1  0
 13 17  1  0
 13 14  2  0
 14 15  1  0
 16 15  1  0
 17 16  2  0
 18 20  1  0
 18 11  1  0
 19 18  2  0
 21 25  1  0
 21 20  1  0
 21 22  1  6
 22 23  1  0
 23 27  1  0
 23 24  2  0
 25 26  1  0
 28 25  2  0
M  END
$$$$
