KHD.pdb
     RDKit          3D

 28 28  0  0  1  0  0  0  0  0999 V2000
   22.5300  -14.1009  -15.4420 N   0  0  0  0  0  0  0  0  0  0  0  0
   23.4758  -13.0341  -15.1793 C   0  0  1  0  0  0  0  0  0  0  0  0
   24.7419  -13.4024  -15.9258 C   0  0  0  0  0  0  0  0  0  0  0  0
   25.1507  -14.8153  -15.7240 C   0  0  0  0  0  0  0  0  0  0  0  0
   26.3642  -15.2783  -16.4396 C   0  0  0  0  0  0  0  0  0  0  0  0
   26.7235  -16.7234  -16.2277 C   0  0  0  0  0  0  0  0  0  0  0  0
   27.9504  -17.1344  -16.8479 N   0  0  0  0  0  0  0  0  0  0  0  0
   22.9755  -11.7778  -15.7843 C   0  0  0  0  0  0  0  0  0  0  0  0
   23.8114  -10.9585  -16.2327 O   0  0  0  0  0  0  0  0  0  0  0  0
   21.6007  -11.4548  -15.8824 N   0  0  0  0  0  0  0  0  0  0  0  0
   21.1565  -10.2503  -16.5018 C   0  0  1  0  0  0  0  0  0  0  0  0
   19.9354  -10.3966  -17.3409 C   0  0  0  0  0  0  0  0  0  0  0  0
   19.4777   -9.1644  -18.0134 C   0  0  0  0  0  0  0  0  0  0  0  0
   19.8557   -8.7405  -19.2653 C   0  0  0  0  0  0  0  0  0  0  0  0
   19.2062   -7.5712  -19.5165 N   0  0  0  0  0  0  0  0  0  0  0  0
   18.4439   -7.2603  -18.4680 C   0  0  0  0  0  0  0  0  0  0  0  0
   18.6132   -8.2253  -17.5666 N   0  0  0  0  0  0  0  0  0  0  0  0
   21.1090   -9.0969  -15.5639 C   0  0  0  0  0  0  0  0  0  0  0  0
   21.1855   -9.2409  -14.3166 O   0  0  0  0  0  0  0  0  0  0  0  0
   20.9699   -7.7509  -16.0285 N   0  0  0  0  0  0  0  0  0  0  0  0
   20.9689   -6.5874  -15.2023 C   0  0  1  0  0  0  0  0  0  0  0  0
   22.2828   -6.2012  -14.6109 C   0  0  0  0  0  0  0  0  0  0  0  0
   22.2754   -4.9523  -13.8287 C   0  0  0  0  0  0  0  0  0  0  0  0
   21.6368   -4.8077  -12.7573 O   0  0  0  0  0  0  0  0  0  0  0  0
   20.4823   -5.3768  -15.9344 C   0  0  0  0  0  0  0  0  0  0  0  0
   19.9323   -4.3242  -15.2577 O   0  0  0  0  0  0  0  0  0  0  0  0
   23.0032   -3.8591  -14.2730 O   0  0  0  0  0  0  0  0  0  0  0  0
   20.5900   -5.3519  -17.1683 O   0  0  0  0  0  0  0  0  0  0  0  0
  2  1  1  6
  2  3  1  0
  4  3  1  0
  5  4  1  0
  6  5  1  0
  7  6  1  0
  8  9  2  0
  8  2  1  0
 10  8  1  0
 11 10  1  0
 11 12  1  1
 12 13  1  0
 13 17  1  0
 13 14  2  0
 14 15  1  0
 16 15  1  0
 17 16  2  0
 18 20  1  0
 18 11  1  0
 19 18  2  0
 21 25  1  0
 21 20  1  0
 21 22  1  6
 22 23  1  0
 23 27  1  0
 23 24  2  0
 25 26  1  0
 28 25  2  0
M  END
$$$$
