KHD.pdb
     RDKit          3D

 28 28  0  0  1  0  0  0  0  0999 V2000
   28.8659  -22.7224  -16.6692 N   0  0  0  0  0  0  0  0  0  0  0  0
   28.2636  -21.4317  -16.3988 C   0  0  1  0  0  0  0  0  0  0  0  0
   27.4671  -21.0725  -17.6367 C   0  0  0  0  0  0  0  0  0  0  0  0
   27.9696  -21.7320  -18.8682 C   0  0  0  0  0  0  0  0  0  0  0  0
   28.6067  -20.8655  -19.8891 C   0  0  0  0  0  0  0  0  0  0  0  0
   28.9360  -21.5418  -21.1915 C   0  0  0  0  0  0  0  0  0  0  0  0
   29.5465  -20.6911  -22.1726 N   0  0  0  0  0  0  0  0  0  0  0  0
   27.2894  -21.5697  -15.2914 C   0  0  0  0  0  0  0  0  0  0  0  0
   26.8071  -22.7032  -15.0601 O   0  0  0  0  0  0  0  0  0  0  0  0
   26.8750  -20.4863  -14.4798 N   0  0  0  0  0  0  0  0  0  0  0  0
   26.0237  -20.6774  -13.3526 C   0  0  1  0  0  0  0  0  0  0  0  0
   26.4949  -20.0247  -12.1001 C   0  0  0  0  0  0  0  0  0  0  0  0
   27.7496  -20.5637  -11.5385 C   0  0  0  0  0  0  0  0  0  0  0  0
   29.0188  -20.2895  -11.9897 C   0  0  0  0  0  0  0  0  0  0  0  0
   29.8919  -20.9729  -11.2004 N   0  0  0  0  0  0  0  0  0  0  0  0
   29.2086  -21.6560  -10.2818 C   0  0  0  0  0  0  0  0  0  0  0  0
   27.9184  -21.4041  -10.4924 N   0  0  0  0  0  0  0  0  0  0  0  0
   24.5892  -20.4307  -13.6583 C   0  0  0  0  0  0  0  0  0  0  0  0
   24.2038  -19.4271  -14.3115 O   0  0  0  0  0  0  0  0  0  0  0  0
   23.5598  -21.3234  -13.2223 N   0  0  0  0  0  0  0  0  0  0  0  0
   22.1692  -21.1856  -13.5118 C   0  0  1  0  0  0  0  0  0  0  0  0
   21.3119  -22.3633  -13.1900 C   0  0  0  0  0  0  0  0  0  0  0  0
   19.9030  -22.2455  -13.6058 C   0  0  0  0  0  0  0  0  0  0  0  0
   19.5446  -22.0097  -14.7859 O   0  0  0  0  0  0  0  0  0  0  0  0
   21.5553  -20.0279  -12.7898 C   0  0  0  0  0  0  0  0  0  0  0  0
   20.4774  -19.3696  -13.3124 O   0  0  0  0  0  0  0  0  0  0  0  0
   18.8946  -22.3981  -12.6667 O   0  0  0  0  0  0  0  0  0  0  0  0
   22.0478  -19.6808  -11.7073 O   0  0  0  0  0  0  0  0  0  0  0  0
  2  1  1  6
  2  3  1  0
  4  3  1  0
  5  4  1  0
  6  5  1  0
  7  6  1  0
  8  9  2  0
  8  2  1  0
 10  8  1  0
 11 10  1  0
 11 12  1  1
 12 13  1  0
 13 17  1  0
 13 14  2  0
 14 15  1  0
 16 15  1  0
 17 16  2  0
 18 20  1  0
 18 11  1  0
 19 18  2  0
 21 25  1  0
 21 20  1  0
 21 22  1  1
 22 23  1  0
 23 27  1  0
 23 24  2  0
 25 26  1  0
 28 25  2  0
M  END
$$$$
