KHD.pdb
     RDKit          3D

 28 28  0  0  1  0  0  0  0  0999 V2000
   26.2703  -20.5062  -17.5873 N   0  0  0  0  0  0  0  0  0  0  0  0
   26.1901  -21.3106  -16.3839 C   0  0  1  0  0  0  0  0  0  0  0  0
   27.4276  -20.9797  -15.5746 C   0  0  0  0  0  0  0  0  0  0  0  0
   28.6920  -21.3394  -16.2645 C   0  0  0  0  0  0  0  0  0  0  0  0
   28.8248  -22.7334  -16.7523 C   0  0  0  0  0  0  0  0  0  0  0  0
   30.1692  -23.0886  -17.3257 C   0  0  0  0  0  0  0  0  0  0  0  0
   30.3301  -24.4731  -17.6663 N   0  0  0  0  0  0  0  0  0  0  0  0
   25.0260  -20.8717  -15.5797 C   0  0  0  0  0  0  0  0  0  0  0  0
   24.8368  -21.4090  -14.4633 O   0  0  0  0  0  0  0  0  0  0  0  0
   24.1155  -19.8756  -16.0075 N   0  0  0  0  0  0  0  0  0  0  0  0
   22.9302  -19.5791  -15.2735 C   0  0  1  0  0  0  0  0  0  0  0  0
   22.8398  -18.1779  -14.7785 C   0  0  0  0  0  0  0  0  0  0  0  0
   21.6111  -17.8492  -14.0286 C   0  0  0  0  0  0  0  0  0  0  0  0
   21.2143  -18.4170  -12.8413 C   0  0  0  0  0  0  0  0  0  0  0  0
   20.0383  -17.8349  -12.4803 N   0  0  0  0  0  0  0  0  0  0  0  0
   19.6972  -16.9315  -13.3994 C   0  0  0  0  0  0  0  0  0  0  0  0
   20.6501  -16.9463  -14.3290 N   0  0  0  0  0  0  0  0  0  0  0  0
   21.6940  -20.0625  -15.9447 C   0  0  0  0  0  0  0  0  0  0  0  0
   21.5116  -19.9446  -17.1837 O   0  0  0  0  0  0  0  0  0  0  0  0
   20.6348  -20.6896  -15.2156 N   0  0  0  0  0  0  0  0  0  0  0  0
   19.3712  -21.0713  -15.7580 C   0  0  1  0  0  0  0  0  0  0  0  0
   19.0577  -22.5294  -15.7286 C   0  0  0  0  0  0  0  0  0  0  0  0
   17.7932  -22.9121  -16.3817 C   0  0  0  0  0  0  0  0  0  0  0  0
   17.5830  -22.7896  -17.6135 O   0  0  0  0  0  0  0  0  0  0  0  0
   18.2319  -20.3974  -15.0606 C   0  0  0  0  0  0  0  0  0  0  0  0
   18.2732  -20.1688  -13.7136 O   0  0  0  0  0  0  0  0  0  0  0  0
   16.7600  -23.4390  -15.6223 O   0  0  0  0  0  0  0  0  0  0  0  0
   17.2509  -20.0520  -15.7336 O   0  0  0  0  0  0  0  0  0  0  0  0
  2  1  1  6
  2  3  1  0
  4  3  1  0
  5  4  1  0
  6  5  1  0
  7  6  1  0
  8  9  2  0
  8  2  1  0
 10  8  1  0
 11 10  1  0
 11 12  1  6
 12 13  1  0
 13 17  1  0
 13 14  2  0
 14 15  1  0
 16 15  1  0
 17 16  2  0
 18 20  1  0
 18 11  1  0
 19 18  2  0
 21 25  1  0
 21 20  1  0
 21 22  1  1
 22 23  1  0
 23 27  1  0
 23 24  2  0
 25 26  1  0
 28 25  2  0
M  END
$$$$
