KHD.pdb
     RDKit          3D

 28 28  0  0  1  0  0  0  0  0999 V2000
   23.8205  -20.6938  -15.0060 N   0  0  0  0  0  0  0  0  0  0  0  0
   22.8531  -20.0109  -15.8422 C   0  0  1  0  0  0  0  0  0  0  0  0
   21.5271  -20.1083  -15.1156 C   0  0  0  0  0  0  0  0  0  0  0  0
   20.9594  -21.4801  -15.1144 C   0  0  0  0  0  0  0  0  0  0  0  0
   19.6910  -21.6878  -14.3749 C   0  0  0  0  0  0  0  0  0  0  0  0
   19.1337  -23.0836  -14.4336 C   0  0  0  0  0  0  0  0  0  0  0  0
   17.8852  -23.2612  -13.7490 N   0  0  0  0  0  0  0  0  0  0  0  0
   23.1962  -18.5714  -15.9102 C   0  0  0  0  0  0  0  0  0  0  0  0
   23.6646  -18.0217  -14.8857 O   0  0  0  0  0  0  0  0  0  0  0  0
   23.0223  -17.7838  -17.0736 N   0  0  0  0  0  0  0  0  0  0  0  0
   23.4134  -16.4138  -17.1163 C   0  0  1  0  0  0  0  0  0  0  0  0
   24.4816  -16.1028  -18.1058 C   0  0  0  0  0  0  0  0  0  0  0  0
   25.8197  -16.6360  -17.7816 C   0  0  0  0  0  0  0  0  0  0  0  0
   26.1642  -17.3068  -16.6322 C   0  0  0  0  0  0  0  0  0  0  0  0
   27.4815  -17.6351  -16.7274 N   0  0  0  0  0  0  0  0  0  0  0  0
   27.9597  -17.1924  -17.8903 C   0  0  0  0  0  0  0  0  0  0  0  0
   26.9521  -16.5915  -18.5196 N   0  0  0  0  0  0  0  0  0  0  0  0
   22.2568  -15.4798  -17.1639 C   0  0  0  0  0  0  0  0  0  0  0  0
   21.2269  -15.7191  -17.8453 O   0  0  0  0  0  0  0  0  0  0  0  0
   22.2505  -14.2480  -16.4363 N   0  0  0  0  0  0  0  0  0  0  0  0
   21.1902  -13.2929  -16.4375 C   0  0  1  0  0  0  0  0  0  0  0  0
   21.2662  -12.2264  -15.3972 C   0  0  0  0  0  0  0  0  0  0  0  0
   20.1307  -11.2872  -15.3781 C   0  0  0  0  0  0  0  0  0  0  0  0
   19.1010  -11.4281  -16.0827 O   0  0  0  0  0  0  0  0  0  0  0  0
   21.0793  -12.5757  -17.7459 C   0  0  0  0  0  0  0  0  0  0  0  0
   19.8829  -12.4994  -18.4025 O   0  0  0  0  0  0  0  0  0  0  0  0
   20.1709  -10.1777  -14.5478 O   0  0  0  0  0  0  0  0  0  0  0  0
   22.0979  -12.0532  -18.2193 O   0  0  0  0  0  0  0  0  0  0  0  0
  2  1  1  1
  2  3  1  0
  4  3  1  0
  5  4  1  0
  6  5  1  0
  7  6  1  0
  8  9  2  0
  8  2  1  0
 10  8  1  0
 11 10  1  0
 11 12  1  6
 12 13  1  0
 13 17  1  0
 13 14  2  0
 14 15  1  0
 16 15  1  0
 17 16  2  0
 18 20  1  0
 18 11  1  0
 19 18  2  0
 21 25  1  0
 21 20  1  0
 21 22  1  1
 22 23  1  0
 23 27  1  0
 23 24  2  0
 25 26  1  0
 28 25  2  0
M  END
$$$$
