KHD.pdb
     RDKit          3D

 28 28  0  0  1  0  0  0  0  0999 V2000
   23.1710  -16.0013  -16.8092 N   0  0  0  0  0  0  0  0  0  0  0  0
   22.1303  -15.0138  -17.0175 C   0  0  1  0  0  0  0  0  0  0  0  0
   20.8605  -15.6163  -16.4513 C   0  0  0  0  0  0  0  0  0  0  0  0
   20.4347  -16.8525  -17.1544 C   0  0  0  0  0  0  0  0  0  0  0  0
   19.2001  -17.5162  -16.6705 C   0  0  0  0  0  0  0  0  0  0  0  0
   18.8308  -18.7869  -17.3854 C   0  0  0  0  0  0  0  0  0  0  0  0
   19.0076  -19.9835  -16.6135 N   0  0  0  0  0  0  0  0  0  0  0  0
   22.4290  -13.8110  -16.2060 C   0  0  0  0  0  0  0  0  0  0  0  0
   22.8364  -13.9708  -15.0315 O   0  0  0  0  0  0  0  0  0  0  0  0
   22.2782  -12.4889  -16.6893 N   0  0  0  0  0  0  0  0  0  0  0  0
   22.5921  -11.3561  -15.8831 C   0  0  1  0  0  0  0  0  0  0  0  0
   23.8543  -10.6594  -16.2546 C   0  0  0  0  0  0  0  0  0  0  0  0
   25.0899  -11.4465  -16.0709 C   0  0  0  0  0  0  0  0  0  0  0  0
   25.7624  -12.1334  -17.0535 C   0  0  0  0  0  0  0  0  0  0  0  0
   26.8494  -12.7154  -16.4772 N   0  0  0  0  0  0  0  0  0  0  0  0
   26.8710  -12.4127  -15.1791 C   0  0  0  0  0  0  0  0  0  0  0  0
   25.8073  -11.6478  -14.9423 N   0  0  0  0  0  0  0  0  0  0  0  0
   21.4345  -10.4430  -15.6866 C   0  0  0  0  0  0  0  0  0  0  0  0
   20.6753  -10.1069  -16.6315 O   0  0  0  0  0  0  0  0  0  0  0  0
   21.1183   -9.8894  -14.4058 N   0  0  0  0  0  0  0  0  0  0  0  0
   19.9970   -9.0542  -14.1206 C   0  0  1  0  0  0  0  0  0  0  0  0
   19.6300   -8.9168  -12.6813 C   0  0  0  0  0  0  0  0  0  0  0  0
   18.3881   -8.1679  -12.4195 C   0  0  0  0  0  0  0  0  0  0  0  0
   17.6081   -7.7790  -13.3234 O   0  0  0  0  0  0  0  0  0  0  0  0
   20.1909   -7.6588  -14.6245 C   0  0  0  0  0  0  0  0  0  0  0  0
   21.4461   -7.1513  -14.8127 O   0  0  0  0  0  0  0  0  0  0  0  0
   18.0334   -7.8603  -11.1151 O   0  0  0  0  0  0  0  0  0  0  0  0
   19.1866   -6.9752  -14.8668 O   0  0  0  0  0  0  0  0  0  0  0  0
  2  1  1  1
  2  3  1  0
  4  3  1  0
  5  4  1  0
  6  5  1  0
  7  6  1  0
  8  9  2  0
  8  2  1  0
 10  8  1  0
 11 10  1  0
 11 12  1  6
 12 13  1  0
 13 17  1  0
 13 14  2  0
 14 15  1  0
 16 15  1  0
 17 16  2  0
 18 20  1  0
 18 11  1  0
 19 18  2  0
 21 25  1  0
 21 20  1  0
 21 22  1  1
 22 23  1  0
 23 27  1  0
 23 24  2  0
 25 26  1  0
 28 25  2  0
M  END
$$$$
