KHD.pdb
     RDKit          3D

 28 28  0  0  1  0  0  0  0  0999 V2000
   19.4662  -16.6609  -16.4253 N   0  0  0  0  0  0  0  0  0  0  0  0
   19.5788  -15.4854  -17.2662 C   0  0  1  0  0  0  0  0  0  0  0  0
   18.2505  -14.7643  -17.1600 C   0  0  0  0  0  0  0  0  0  0  0  0
   17.1471  -15.6364  -16.6844 C   0  0  0  0  0  0  0  0  0  0  0  0
   16.5631  -16.5848  -17.6634 C   0  0  0  0  0  0  0  0  0  0  0  0
   15.4086  -17.4038  -17.1550 C   0  0  0  0  0  0  0  0  0  0  0  0
   14.8139  -18.2732  -18.1294 N   0  0  0  0  0  0  0  0  0  0  0  0
   20.6027  -14.5764  -16.7005 C   0  0  0  0  0  0  0  0  0  0  0  0
   20.4356  -14.1417  -15.5368 O   0  0  0  0  0  0  0  0  0  0  0  0
   21.7614  -14.1734  -17.4070 N   0  0  0  0  0  0  0  0  0  0  0  0
   22.6785  -13.2268  -16.8641 C   0  0  1  0  0  0  0  0  0  0  0  0
   24.0576  -13.3088  -17.4190 C   0  0  0  0  0  0  0  0  0  0  0  0
   25.0455  -12.4052  -16.7963 C   0  0  0  0  0  0  0  0  0  0  0  0
   24.8153  -11.5715  -15.7278 C   0  0  0  0  0  0  0  0  0  0  0  0
   25.9787  -10.9189  -15.4579 N   0  0  0  0  0  0  0  0  0  0  0  0
   26.9146  -11.3193  -16.3186 C   0  0  0  0  0  0  0  0  0  0  0  0
   26.3442  -12.2148  -17.1217 N   0  0  0  0  0  0  0  0  0  0  0  0
   22.1288  -11.8455  -16.8162 C   0  0  0  0  0  0  0  0  0  0  0  0
   21.4759  -11.3483  -17.7695 O   0  0  0  0  0  0  0  0  0  0  0  0
   22.3146  -10.9978  -15.6788 N   0  0  0  0  0  0  0  0  0  0  0  0
   21.8440   -9.6556  -15.5629 C   0  0  1  0  0  0  0  0  0  0  0  0
   21.5846   -9.1684  -14.1771 C   0  0  0  0  0  0  0  0  0  0  0  0
   21.0180   -7.8110  -14.0854 C   0  0  0  0  0  0  0  0  0  0  0  0
   20.1603   -7.3611  -14.8846 O   0  0  0  0  0  0  0  0  0  0  0  0
   22.7945   -8.6710  -16.1676 C   0  0  0  0  0  0  0  0  0  0  0  0
   22.3523   -7.7185  -17.0424 O   0  0  0  0  0  0  0  0  0  0  0  0
   21.4338   -6.9600  -13.0731 O   0  0  0  0  0  0  0  0  0  0  0  0
   23.9915   -8.7403  -15.8559 O   0  0  0  0  0  0  0  0  0  0  0  0
  2  1  1  1
  2  3  1  0
  4  3  1  0
  5  4  1  0
  6  5  1  0
  7  6  1  0
  8  9  2  0
  8  2  1  0
 10  8  1  0
 11 10  1  0
 11 12  1  6
 12 13  1  0
 13 17  1  0
 13 14  2  0
 14 15  1  0
 16 15  1  0
 17 16  2  0
 18 20  1  0
 18 11  1  0
 19 18  2  0
 21 25  1  0
 21 20  1  0
 21 22  1  1
 22 23  1  0
 23 27  1  0
 23 24  2  0
 25 26  1  0
 28 25  2  0
M  END
$$$$
