KHD.pdb
     RDKit          3D

 28 28  0  0  1  0  0  0  0  0999 V2000
   19.4800  -13.7029  -16.5749 N   0  0  0  0  0  0  0  0  0  0  0  0
   20.6664  -12.8928  -16.7691 C   0  0  1  0  0  0  0  0  0  0  0  0
   21.1073  -13.1301  -18.1992 C   0  0  0  0  0  0  0  0  0  0  0  0
   20.9374  -14.5380  -18.6384 C   0  0  0  0  0  0  0  0  0  0  0  0
   21.4381  -14.8916  -19.9887 C   0  0  0  0  0  0  0  0  0  0  0  0
   21.3439  -16.3491  -20.3480 C   0  0  0  0  0  0  0  0  0  0  0  0
   21.7849  -16.6703  -21.6751 N   0  0  0  0  0  0  0  0  0  0  0  0
   20.3017  -11.4605  -16.6685 C   0  0  0  0  0  0  0  0  0  0  0  0
   20.0936  -10.8230  -17.7274 O   0  0  0  0  0  0  0  0  0  0  0  0
   20.1755  -10.7741  -15.4368 N   0  0  0  0  0  0  0  0  0  0  0  0
   19.6687   -9.4436  -15.3691 C   0  0  1  0  0  0  0  0  0  0  0  0
   18.3450   -9.3159  -14.6997 C   0  0  0  0  0  0  0  0  0  0  0  0
   17.2324  -10.0321  -15.3548 C   0  0  0  0  0  0  0  0  0  0  0  0
   16.5356   -9.6027  -16.4592 C   0  0  0  0  0  0  0  0  0  0  0  0
   15.6027  -10.5499  -16.7502 N   0  0  0  0  0  0  0  0  0  0  0  0
   15.6993  -11.5445  -15.8678 C   0  0  0  0  0  0  0  0  0  0  0  0
   16.6836  -11.2248  -15.0304 N   0  0  0  0  0  0  0  0  0  0  0  0
   20.6797   -8.4591  -14.8990 C   0  0  0  0  0  0  0  0  0  0  0  0
   21.5165   -8.7317  -14.0003 O   0  0  0  0  0  0  0  0  0  0  0  0
   20.7569   -7.1379  -15.4425 N   0  0  0  0  0  0  0  0  0  0  0  0
   21.6832   -6.1307  -15.0378 C   0  0  1  0  0  0  0  0  0  0  0  0
   21.8474   -4.9773  -15.9695 C   0  0  0  0  0  0  0  0  0  0  0  0
   22.8260   -3.9612  -15.5431 C   0  0  0  0  0  0  0  0  0  0  0  0
   23.9489   -4.2401  -15.0554 O   0  0  0  0  0  0  0  0  0  0  0  0
   21.3242   -5.5342  -13.7135 C   0  0  0  0  0  0  0  0  0  0  0  0
   20.1243   -5.8151  -13.1220 O   0  0  0  0  0  0  0  0  0  0  0  0
   22.5202   -2.6154  -15.6744 O   0  0  0  0  0  0  0  0  0  0  0  0
   22.1406   -4.7799  -13.1666 O   0  0  0  0  0  0  0  0  0  0  0  0
  2  1  1  6
  2  3  1  0
  4  3  1  0
  5  4  1  0
  6  5  1  0
  7  6  1  0
  8  9  2  0
  8  2  1  0
 10  8  1  0
 11 10  1  0
 11 12  1  1
 12 13  1  0
 13 17  1  0
 13 14  2  0
 14 15  1  0
 16 15  1  0
 17 16  2  0
 18 20  1  0
 18 11  1  0
 19 18  2  0
 21 25  1  0
 21 20  1  0
 21 22  1  6
 22 23  1  0
 23 27  1  0
 23 24  2  0
 25 26  1  0
 28 25  2  0
M  END
$$$$
