IAV.pdb
     RDKit          3D

 21 20  0  0  1  0  0  0  0  0999 V2000
   10.3812  -13.2958   28.1778 C   0  0  0  0  0  0  0  0  0  0  0  0
    9.8255  -14.6781   28.3569 C   0  0  0  0  0  0  0  0  0  0  0  0
    9.4686  -15.3495   27.0584 C   0  0  2  0  0  0  0  0  0  0  0  0
    8.6200  -14.4597   26.1945 C   0  0  0  0  0  0  0  0  0  0  0  0
    8.8370  -16.6944   27.3273 C   0  0  2  0  0  0  0  0  0  0  0  0
    9.5595  -17.3188   28.4036 N   0  0  0  0  0  0  0  0  0  0  0  0
    8.8251  -17.5477   26.1105 C   0  0  0  0  0  0  0  0  0  0  0  0
    9.2051  -18.7410   26.2270 O   0  0  0  0  0  0  0  0  0  0  0  0
    6.6876  -18.7545   24.2901 C   0  0  0  0  0  0  0  0  0  0  0  0
    7.8436  -17.9113   23.8143 C   0  0  2  0  0  0  0  0  0  0  0  0
    8.4071  -17.0804   24.8314 N   0  0  0  0  0  0  0  0  0  0  0  0
    7.5018  -17.1522   22.5747 C   0  0  0  0  0  0  0  0  0  0  0  0
    6.8801  -17.6302   21.6179 O   0  0  0  0  0  0  0  0  0  0  0  0
    6.9127  -13.1677   22.7620 C   0  0  0  0  0  0  0  0  0  0  0  0
    7.8602  -13.5054   21.6404 C   0  0  2  0  0  0  0  0  0  0  0  0
    7.5415  -12.6718   20.4174 C   0  0  0  0  0  0  0  0  0  0  0  0
    7.7410  -14.9847   21.3115 C   0  0  2  0  0  0  0  0  0  0  0  0
    7.9222  -15.7958   22.5007 N   0  0  0  0  0  0  0  0  0  0  0  0
    8.8110  -15.3397   20.3581 C   0  0  0  0  0  0  0  0  0  0  0  0
    9.9286  -15.6827   20.8017 O   0  0  0  0  0  0  0  0  0  0  0  0
    8.6004  -15.2996   18.9970 O   0  0  0  0  0  0  0  0  0  0  0  0
  2  3  1  0
  2  1  1  0
  3  4  1  1
  5  3  1  0
  5  6  1  1
  7  5  1  0
  8  7  2  0
 10  9  1  1
 10 11  1  0
 11  7  1  0
 12 10  1  0
 12 13  2  0
 15 14  1  1
 15 17  1  0
 16 15  1  0
 17 18  1  1
 18 12  1  0
 19 17  1  0
 20 19  2  0
 21 19  1  0
M  END
$$$$
