IAV.pdb
     RDKit          3D

 21 20  0  0  1  0  0  0  0  0999 V2000
    7.6010  -11.8679   19.6931 C   0  0  0  0  0  0  0  0  0  0  0  0
    7.4481  -13.3549   19.8234 C   0  0  0  0  0  0  0  0  0  0  0  0
    7.7011  -13.8596   21.2183 C   0  0  2  0  0  0  0  0  0  0  0  0
    9.0214  -13.3749   21.7473 C   0  0  0  0  0  0  0  0  0  0  0  0
    7.5603  -15.3625   21.2586 C   0  0  2  0  0  0  0  0  0  0  0  0
    6.2703  -15.7039   20.7206 N   0  0  0  0  0  0  0  0  0  0  0  0
    7.7350  -15.8928   22.6359 C   0  0  0  0  0  0  0  0  0  0  0  0
    6.8738  -15.5816   23.4981 O   0  0  0  0  0  0  0  0  0  0  0  0
    9.4319  -18.6794   24.3901 C   0  0  0  0  0  0  0  0  0  0  0  0
    9.0275  -17.2275   24.3437 C   0  0  2  0  0  0  0  0  0  0  0  0
    8.8224  -16.7291   23.0201 N   0  0  0  0  0  0  0  0  0  0  0  0
    9.9506  -16.3699   25.1451 C   0  0  0  0  0  0  0  0  0  0  0  0
   10.9907  -15.8678   24.7019 O   0  0  0  0  0  0  0  0  0  0  0  0
    8.4210  -14.7239   28.7046 C   0  0  0  0  0  0  0  0  0  0  0  0
    9.6145  -14.1666   27.9730 C   0  0  2  0  0  0  0  0  0  0  0  0
    9.1631  -13.2272   26.8748 C   0  0  0  0  0  0  0  0  0  0  0  0
   10.4211  -15.3123   27.3835 C   0  0  2  0  0  0  0  0  0  0  0  0
    9.6021  -16.1219   26.5012 N   0  0  0  0  0  0  0  0  0  0  0  0
   10.8818  -16.1769   28.4882 C   0  0  0  0  0  0  0  0  0  0  0  0
   10.2900  -17.2581   28.6986 O   0  0  0  0  0  0  0  0  0  0  0  0
   11.9455  -15.8150   29.2857 O   0  0  0  0  0  0  0  0  0  0  0  0
  2  3  1  0
  2  1  1  0
  3  4  1  6
  5  3  1  0
  5  6  1  1
  7  5  1  0
  8  7  2  0
 10  9  1  6
 10 11  1  0
 11  7  1  0
 12 10  1  0
 12 13  2  0
 15 14  1  6
 15 17  1  0
 16 15  1  0
 17 18  1  6
 18 12  1  0
 19 17  1  0
 20 19  2  0
 21 19  1  0
M  END
$$$$
