IAV.pdb
     RDKit          3D

 21 20  0  0  1  0  0  0  0  0999 V2000
    7.6106  -12.0999   19.6125 C   0  0  0  0  0  0  0  0  0  0  0  0
    7.4394  -13.5787   19.8006 C   0  0  0  0  0  0  0  0  0  0  0  0
    7.6449  -14.0260   21.2226 C   0  0  2  0  0  0  0  0  0  0  0  0
    8.9804  -13.5833   21.7506 C   0  0  0  0  0  0  0  0  0  0  0  0
    7.4262  -15.5159   21.3335 C   0  0  2  0  0  0  0  0  0  0  0  0
    6.0976  -15.8075   20.8643 N   0  0  0  0  0  0  0  0  0  0  0  0
    7.6321  -15.9983   22.7241 C   0  0  0  0  0  0  0  0  0  0  0  0
    6.7784  -15.6757   23.5896 O   0  0  0  0  0  0  0  0  0  0  0  0
    9.4135  -18.7029   24.5259 C   0  0  0  0  0  0  0  0  0  0  0  0
    8.9689  -17.2640   24.4502 C   0  0  2  0  0  0  0  0  0  0  0  0
    8.7411  -16.8013   23.1174 N   0  0  0  0  0  0  0  0  0  0  0  0
    9.8734  -16.3637   25.2254 C   0  0  0  0  0  0  0  0  0  0  0  0
   10.8563  -15.7866   24.7442 O   0  0  0  0  0  0  0  0  0  0  0  0
    8.4007  -14.4440   28.5893 C   0  0  0  0  0  0  0  0  0  0  0  0
    9.6781  -14.0793   27.8785 C   0  0  2  0  0  0  0  0  0  0  0  0
    9.3753  -13.2367   26.6576 C   0  0  0  0  0  0  0  0  0  0  0  0
   10.4054  -15.3502   27.4705 C   0  0  2  0  0  0  0  0  0  0  0  0
    9.5768  -16.1648   26.6018 N   0  0  0  0  0  0  0  0  0  0  0  0
   10.6903  -16.1371   28.6869 C   0  0  0  0  0  0  0  0  0  0  0  0
   11.4840  -15.6750   29.5354 O   0  0  0  0  0  0  0  0  0  0  0  0
   10.1005  -17.3637   28.9015 O   0  0  0  0  0  0  0  0  0  0  0  0
  2  3  1  0
  2  1  1  0
  3  4  1  6
  5  3  1  0
  5  6  1  1
  7  5  1  0
  8  7  2  0
 10  9  1  6
 10 11  1  0
 11  7  1  0
 12 10  1  0
 12 13  2  0
 15 14  1  6
 15 17  1  0
 16 15  1  0
 17 18  1  6
 18 12  1  0
 19 17  1  0
 20 19  2  0
 21 19  1  0
M  END
$$$$
