IAV.pdb
     RDKit          3D

 21 20  0  0  1  0  0  0  0  0999 V2000
    3.2191  -18.6394   20.3798 C   0  0  0  0  0  0  0  0  0  0  0  0
    4.0343  -18.1567   21.5436 C   0  0  0  0  0  0  0  0  0  0  0  0
    4.9459  -19.2113   22.1104 C   0  0  2  0  0  0  0  0  0  0  0  0
    4.1713  -20.4028   22.5989 C   0  0  0  0  0  0  0  0  0  0  0  0
    5.8396  -18.6091   23.1680 C   0  0  2  0  0  0  0  0  0  0  0  0
    5.0030  -18.1069   24.2253 N   0  0  0  0  0  0  0  0  0  0  0  0
    6.7105  -17.5430   22.6079 C   0  0  0  0  0  0  0  0  0  0  0  0
    7.7102  -17.8968   21.9316 O   0  0  0  0  0  0  0  0  0  0  0  0
    6.5807  -14.0004   21.6138 C   0  0  0  0  0  0  0  0  0  0  0  0
    7.3185  -15.1109   22.3182 C   0  0  2  0  0  0  0  0  0  0  0  0
    6.4670  -16.1526   22.8001 N   0  0  0  0  0  0  0  0  0  0  0  0
    8.2366  -14.5844   23.3715 C   0  0  0  0  0  0  0  0  0  0  0  0
    9.2553  -13.9231   23.1361 O   0  0  0  0  0  0  0  0  0  0  0  0
    6.5906  -14.2248   27.1327 C   0  0  0  0  0  0  0  0  0  0  0  0
    7.8397  -13.4792   26.7408 C   0  0  2  0  0  0  0  0  0  0  0  0
    7.4794  -12.1956   26.0232 C   0  0  0  0  0  0  0  0  0  0  0  0
    8.6890  -14.3618   25.8406 C   0  0  2  0  0  0  0  0  0  0  0  0
    7.9095  -14.8670   24.7262 N   0  0  0  0  0  0  0  0  0  0  0  0
    9.1535  -15.5221   26.6267 C   0  0  0  0  0  0  0  0  0  0  0  0
    8.6881  -16.6538   26.3695 O   0  0  0  0  0  0  0  0  0  0  0  0
   10.0850  -15.3800   27.6321 O   0  0  0  0  0  0  0  0  0  0  0  0
  2  3  1  0
  2  1  1  0
  3  4  1  1
  5  3  1  0
  5  6  1  1
  7  5  1  0
  8  7  2  0
 10  9  1  1
 10 11  1  0
 11  7  1  0
 12 10  1  0
 12 13  2  0
 15 14  1  6
 15 17  1  0
 16 15  1  0
 17 18  1  6
 18 12  1  0
 19 17  1  0
 20 19  2  0
 21 19  1  0
M  END
$$$$
