IAV.pdb
     RDKit          3D

 21 20  0  0  1  0  0  0  0  0999 V2000
    7.4719  -12.0069   19.4984 C   0  0  0  0  0  0  0  0  0  0  0  0
    7.7663  -13.4782   19.4765 C   0  0  0  0  0  0  0  0  0  0  0  0
    7.8933  -14.0807   20.8495 C   0  0  2  0  0  0  0  0  0  0  0  0
    8.8680  -13.3141   21.6983 C   0  0  0  0  0  0  0  0  0  0  0  0
    8.2264  -15.5495   20.7416 C   0  0  2  0  0  0  0  0  0  0  0  0
    7.2253  -16.1742   19.9182 N   0  0  0  0  0  0  0  0  0  0  0  0
    8.3119  -16.1921   22.0789 C   0  0  0  0  0  0  0  0  0  0  0  0
    7.2564  -16.2773   22.7575 O   0  0  0  0  0  0  0  0  0  0  0  0
   10.2779  -18.6565   23.9237 C   0  0  0  0  0  0  0  0  0  0  0  0
    9.6395  -17.2904   23.9227 C   0  0  2  0  0  0  0  0  0  0  0  0
    9.5226  -16.7106   22.6217 N   0  0  0  0  0  0  0  0  0  0  0  0
   10.2916  -16.3741   24.9049 C   0  0  0  0  0  0  0  0  0  0  0  0
   11.3074  -15.7099   24.6652 O   0  0  0  0  0  0  0  0  0  0  0  0
    8.7004  -13.5847   26.5823 C   0  0  0  0  0  0  0  0  0  0  0  0
    9.1775  -14.4351   27.7309 C   0  0  2  0  0  0  0  0  0  0  0  0
    9.7484  -13.5609   28.8273 C   0  0  0  0  0  0  0  0  0  0  0  0
   10.2352  -15.4056   27.2307 C   0  0  2  0  0  0  0  0  0  0  0  0
    9.6991  -16.2661   26.1930 N   0  0  0  0  0  0  0  0  0  0  0  0
   10.6512  -16.2652   28.3568 C   0  0  0  0  0  0  0  0  0  0  0  0
   10.0300  -17.3295   28.5684 O   0  0  0  0  0  0  0  0  0  0  0  0
   11.7053  -15.9167   29.1730 O   0  0  0  0  0  0  0  0  0  0  0  0
  2  3  1  0
  2  1  1  0
  3  4  1  1
  5  3  1  0
  5  6  1  6
  7  5  1  0
  8  7  2  0
 10  9  1  6
 10 11  1  0
 11  7  1  0
 12 10  1  0
 12 13  2  0
 15 14  1  6
 15 17  1  0
 16 15  1  0
 17 18  1  6
 18 12  1  0
 19 17  1  0
 20 19  2  0
 21 19  1  0
M  END
$$$$
