IAV.pdb
     RDKit          3D

 21 20  0  0  1  0  0  0  0  0999 V2000
    2.9572  -23.7846   22.8860 C   0  0  0  0  0  0  0  0  0  0  0  0
    3.6593  -22.8991   21.8988 C   0  0  0  0  0  0  0  0  0  0  0  0
    4.5891  -21.9075   22.5442 C   0  0  2  0  0  0  0  0  0  0  0  0
    3.8576  -21.0119   23.5039 C   0  0  0  0  0  0  0  0  0  0  0  0
    5.3514  -21.1474   21.4854 C   0  0  2  0  0  0  0  0  0  0  0  0
    5.8997  -22.1022   20.5591 N   0  0  0  0  0  0  0  0  0  0  0  0
    6.4120  -20.2930   22.0803 C   0  0  0  0  0  0  0  0  0  0  0  0
    7.2811  -20.8510   22.7981 O   0  0  0  0  0  0  0  0  0  0  0  0
    7.5540  -16.6679   21.8592 C   0  0  0  0  0  0  0  0  0  0  0  0
    7.4561  -18.0328   22.4927 C   0  0  2  0  0  0  0  0  0  0  0  0
    6.4882  -18.8851   21.8768 N   0  0  0  0  0  0  0  0  0  0  0  0
    7.2862  -17.9448   23.9736 C   0  0  0  0  0  0  0  0  0  0  0  0
    6.2947  -17.4575   24.5302 O   0  0  0  0  0  0  0  0  0  0  0  0
    6.7518  -20.3517   26.3794 C   0  0  0  0  0  0  0  0  0  0  0  0
    8.0994  -19.8251   26.7995 C   0  0  2  0  0  0  0  0  0  0  0  0
    8.2020  -19.7957   28.3098 C   0  0  0  0  0  0  0  0  0  0  0  0
    8.2898  -18.4269   26.2343 C   0  0  2  0  0  0  0  0  0  0  0  0
    8.3363  -18.4563   24.7846 N   0  0  0  0  0  0  0  0  0  0  0  0
    9.5828  -17.9002   26.7148 C   0  0  0  0  0  0  0  0  0  0  0  0
    9.6353  -17.3560   27.8393 O   0  0  0  0  0  0  0  0  0  0  0  0
   10.7250  -17.9977   25.9502 O   0  0  0  0  0  0  0  0  0  0  0  0
  2  3  1  0
  2  1  1  0
  3  4  1  6
  5  3  1  0
  5  6  1  6
  7  5  1  0
  8  7  2  0
 10  9  1  6
 10 11  1  0
 11  7  1  0
 12 10  1  0
 12 13  2  0
 15 14  1  1
 15 17  1  0
 16 15  1  0
 17 18  1  6
 18 12  1  0
 19 17  1  0
 20 19  2  0
 21 19  1  0
M  END
$$$$
