AGI.pdb
     RDKit          3D

 18 17  0  0  1  0  0  0  0  0999 V2000
   27.2665  -17.6897  -17.7483 C   0  0  0  0  0  0  0  0  0  0  0  0
   26.3489  -18.1136  -16.6040 C   0  0  2  0  0  0  0  0  0  0  0  0
   26.1318  -17.0398  -15.6862 N   0  0  0  0  0  0  0  0  0  0  0  0
   26.9812  -19.2980  -15.9649 C   0  0  0  0  0  0  0  0  0  0  0  0
   27.0732  -20.3769  -16.6034 O   0  0  0  0  0  0  0  0  0  0  0  0
   27.4987  -19.2829  -14.6474 N   0  0  0  0  0  0  0  0  0  0  0  0
   27.9989  -20.4785  -14.0016 C   0  0  0  0  0  0  0  0  0  0  0  0
   26.9363  -21.1536  -13.2129 C   0  0  0  0  0  0  0  0  0  0  0  0
   26.6720  -22.3780  -13.4649 O   0  0  0  0  0  0  0  0  0  0  0  0
   26.7009  -20.1457   -8.1115 C   0  0  0  0  0  0  0  0  0  0  0  0
   26.4706  -20.9031   -9.3605 C   0  0  0  0  0  0  0  0  0  0  0  0
   25.1858  -20.7727  -10.0622 C   0  0  2  0  0  0  0  0  0  0  0  0
   24.0454  -21.3254   -9.1971 C   0  0  0  0  0  0  0  0  0  0  0  0
   25.0909  -21.2016  -11.4608 C   0  0  2  0  0  0  0  0  0  0  0  0
   26.1972  -20.5369  -12.2034 N   0  0  0  0  0  0  0  0  0  0  0  0
   23.8600  -21.1106  -12.2091 C   0  0  0  0  0  0  0  0  0  0  0  0
   23.6702  -19.9949  -13.0749 O   0  0  0  0  0  0  0  0  0  0  0  0
   22.8890  -21.8945  -12.2164 O   0  0  0  0  0  0  0  0  0  0  0  0
  2  1  1  6
  3  2  1  0
  4  6  1  0
  4  2  1  0
  5  4  2  0
  7  6  1  0
  8  7  1  0
  8 15  1  0
  9  8  2  0
 11 10  1  0
 11 12  1  0
 12 14  1  0
 12 13  1  1
 14 15  1  6
 14 16  1  0
 16 17  1  0
 18 16  2  0
M  END
$$$$
