AGI.pdb
     RDKit          3D

 18 17  0  0  1  0  0  0  0  0999 V2000
   22.9126  -16.1749  -19.4964 C   0  0  0  0  0  0  0  0  0  0  0  0
   22.6593  -14.6693  -19.5085 C   0  0  2  0  0  0  0  0  0  0  0  0
   23.5323  -14.0021  -20.4223 N   0  0  0  0  0  0  0  0  0  0  0  0
   22.8219  -14.1969  -18.1080 C   0  0  0  0  0  0  0  0  0  0  0  0
   22.1034  -14.6828  -17.1981 O   0  0  0  0  0  0  0  0  0  0  0  0
   23.7610  -13.2080  -17.7285 N   0  0  0  0  0  0  0  0  0  0  0  0
   23.8962  -12.7582  -16.3589 C   0  0  0  0  0  0  0  0  0  0  0  0
   24.9302  -11.6985  -16.2359 C   0  0  0  0  0  0  0  0  0  0  0  0
   25.1667  -11.2057  -15.0811 O   0  0  0  0  0  0  0  0  0  0  0  0
   29.8996   -9.2593  -16.7244 C   0  0  0  0  0  0  0  0  0  0  0  0
   29.1163   -9.8105  -17.8510 C   0  0  0  0  0  0  0  0  0  0  0  0
   27.9834  -10.7063  -17.5780 C   0  0  2  0  0  0  0  0  0  0  0  0
   27.8384  -11.7425  -18.7003 C   0  0  0  0  0  0  0  0  0  0  0  0
   26.6980  -10.1273  -17.1759 C   0  0  2  0  0  0  0  0  0  0  0  0
   25.6708  -11.1973  -17.3065 N   0  0  0  0  0  0  0  0  0  0  0  0
   26.2063   -8.8901  -17.7335 C   0  0  0  0  0  0  0  0  0  0  0  0
   25.0731   -8.9349  -18.5963 O   0  0  0  0  0  0  0  0  0  0  0  0
   26.6396   -7.7313  -17.5699 O   0  0  0  0  0  0  0  0  0  0  0  0
  2  1  1  1
  3  2  1  0
  4  6  1  0
  4  2  1  0
  5  4  2  0
  7  6  1  0
  8  7  1  0
  8 15  1  0
  9  8  2  0
 11 10  1  0
 11 12  1  0
 12 14  1  0
 12 13  1  6
 14 15  1  6
 14 16  1  0
 16 17  1  0
 18 16  2  0
M  END
$$$$
