AGI.pdb
     RDKit          3D

 18 17  0  0  1  0  0  0  0  0999 V2000
   15.2853  -10.8362  -16.0015 C   0  0  0  0  0  0  0  0  0  0  0  0
   15.9261  -11.7881  -14.9943 C   0  0  2  0  0  0  0  0  0  0  0  0
   14.9374  -12.5357  -14.2831 N   0  0  0  0  0  0  0  0  0  0  0  0
   16.7734  -10.9564  -14.0989 C   0  0  0  0  0  0  0  0  0  0  0  0
   18.0164  -11.1410  -14.0674 O   0  0  0  0  0  0  0  0  0  0  0  0
   16.2508   -9.9440  -13.2589 N   0  0  0  0  0  0  0  0  0  0  0  0
   17.0956   -9.1474  -12.3939 C   0  0  0  0  0  0  0  0  0  0  0  0
   16.3070   -8.1280  -11.6551 C   0  0  0  0  0  0  0  0  0  0  0  0
   15.5565   -7.3357  -12.3195 O   0  0  0  0  0  0  0  0  0  0  0  0
   12.7440   -9.2819   -8.3684 C   0  0  0  0  0  0  0  0  0  0  0  0
   13.6133   -8.4758   -9.2520 C   0  0  0  0  0  0  0  0  0  0  0  0
   14.6183   -7.5804   -8.6615 C   0  0  2  0  0  0  0  0  0  0  0  0
   13.9573   -6.6162   -7.6675 C   0  0  0  0  0  0  0  0  0  0  0  0
   15.5808   -6.9106   -9.5412 C   0  0  2  0  0  0  0  0  0  0  0  0
   16.3286   -7.9728  -10.2690 N   0  0  0  0  0  0  0  0  0  0  0  0
   16.4906   -5.9011   -9.0551 C   0  0  0  0  0  0  0  0  0  0  0  0
   16.2033   -4.5337   -9.3351 O   0  0  0  0  0  0  0  0  0  0  0  0
   17.5403   -6.0457   -8.3960 O   0  0  0  0  0  0  0  0  0  0  0  0
  2  1  1  6
  3  2  1  0
  4  6  1  0
  4  2  1  0
  5  4  2  0
  7  6  1  0
  8  7  1  0
  8 15  1  0
  9  8  2  0
 11 10  1  0
 11 12  1  0
 12 14  1  0
 12 13  1  6
 14 15  1  1
 14 16  1  0
 16 17  1  0
 18 16  2  0
M  END
$$$$
