AGI.pdb
     RDKit          3D

 18 17  0  0  1  0  0  0  0  0999 V2000
   26.7466  -16.4235  -14.2067 C   0  0  0  0  0  0  0  0  0  0  0  0
   26.9670  -17.5854  -15.1723 C   0  0  2  0  0  0  0  0  0  0  0  0
   25.7288  -18.0639  -15.7016 N   0  0  0  0  0  0  0  0  0  0  0  0
   27.7141  -18.6294  -14.4220 C   0  0  0  0  0  0  0  0  0  0  0  0
   28.8549  -18.3710  -13.9616 O   0  0  0  0  0  0  0  0  0  0  0  0
   27.2047  -19.9295  -14.1892 N   0  0  0  0  0  0  0  0  0  0  0  0
   27.9303  -20.9149  -13.4152 C   0  0  0  0  0  0  0  0  0  0  0  0
   27.1993  -21.2737  -12.1727 C   0  0  0  0  0  0  0  0  0  0  0  0
   27.5715  -22.3078  -11.5211 O   0  0  0  0  0  0  0  0  0  0  0  0
   27.2255  -19.7159   -7.6752 C   0  0  0  0  0  0  0  0  0  0  0  0
   26.8627  -20.4870   -8.8836 C   0  0  0  0  0  0  0  0  0  0  0  0
   25.4765  -20.4621   -9.3717 C   0  0  2  0  0  0  0  0  0  0  0  0
   24.5093  -20.8824   -8.2571 C   0  0  0  0  0  0  0  0  0  0  0  0
   25.1623  -21.0920  -10.6577 C   0  0  2  0  0  0  0  0  0  0  0  0
   26.1211  -20.5518  -11.6608 N   0  0  0  0  0  0  0  0  0  0  0  0
   23.8245  -21.1038  -11.1993 C   0  0  0  0  0  0  0  0  0  0  0  0
   22.8975  -22.0657  -10.7032 O   0  0  0  0  0  0  0  0  0  0  0  0
   23.3289  -20.3676  -12.0766 O   0  0  0  0  0  0  0  0  0  0  0  0
  2  1  1  1
  3  2  1  0
  4  6  1  0
  4  2  1  0
  5  4  2  0
  7  6  1  0
  8  7  1  0
  8 15  1  0
  9  8  2  0
 11 10  1  0
 11 12  1  0
 12 14  1  0
 12 13  1  1
 14 15  1  6
 14 16  1  0
 16 17  1  0
 18 16  2  0
M  END
$$$$
