AGI.pdb
     RDKit          3D

 18 17  0  0  1  0  0  0  0  0999 V2000
   20.5167  -14.7254  -21.1094 C   0  0  0  0  0  0  0  0  0  0  0  0
   21.0749  -14.7465  -19.6885 C   0  0  2  0  0  0  0  0  0  0  0  0
   20.0290  -14.6716  -18.7175 N   0  0  0  0  0  0  0  0  0  0  0  0
   22.0347  -13.6151  -19.5891 C   0  0  0  0  0  0  0  0  0  0  0  0
   23.2631  -13.8485  -19.4598 O   0  0  0  0  0  0  0  0  0  0  0  0
   21.6379  -12.2570  -19.6324 N   0  0  0  0  0  0  0  0  0  0  0  0
   22.5969  -11.1724  -19.6119 C   0  0  0  0  0  0  0  0  0  0  0  0
   22.8400  -10.6898  -18.2280 C   0  0  0  0  0  0  0  0  0  0  0  0
   21.9656  -10.9398  -17.3306 O   0  0  0  0  0  0  0  0  0  0  0  0
   27.3039  -11.9224  -15.9746 C   0  0  0  0  0  0  0  0  0  0  0  0
   25.9182  -11.4605  -16.2048 C   0  0  0  0  0  0  0  0  0  0  0  0
   25.6045  -10.0280  -16.1052 C   0  0  2  0  0  0  0  0  0  0  0  0
   26.1175   -9.4593  -14.7757 C   0  0  0  0  0  0  0  0  0  0  0  0
   24.2495   -9.5711  -16.4282 C   0  0  2  0  0  0  0  0  0  0  0  0
   23.9704   -9.9735  -17.8344 N   0  0  0  0  0  0  0  0  0  0  0  0
   23.8251   -8.2101  -16.2031 C   0  0  0  0  0  0  0  0  0  0  0  0
   23.9528   -7.2719  -17.2681 O   0  0  0  0  0  0  0  0  0  0  0  0
   23.3403   -7.7020  -15.1715 O   0  0  0  0  0  0  0  0  0  0  0  0
  2  1  1  6
  3  2  1  0
  4  6  1  0
  4  2  1  0
  5  4  2  0
  7  6  1  0
  8  7  1  0
  8 15  1  0
  9  8  2  0
 11 10  1  0
 11 12  1  0
 12 14  1  0
 12 13  1  1
 14 15  1  6
 14 16  1  0
 16 17  1  0
 18 16  2  0
M  END
$$$$
