IAP.pdb
     RDKit          3D

 21 21  0  0  1  0  0  0  0  0999 V2000
   25.7798  -28.2788  -18.5924 C   0  0  0  0  0  0  0  0  0  0  0  0
   26.8194  -27.1768  -18.7098 C   0  0  0  0  0  0  0  0  0  0  0  0
   26.6913  -26.2957  -17.4882 C   0  0  2  0  0  0  0  0  0  0  0  0
   25.2716  -25.7898  -17.3381 C   0  0  0  0  0  0  0  0  0  0  0  0
   27.7025  -25.2111  -17.4326 C   0  0  2  0  0  0  0  0  0  0  0  0
   29.0470  -25.7841  -17.3691 N   0  0  0  0  0  0  0  0  0  0  0  0
   27.5035  -24.1730  -16.4177 C   0  0  0  0  0  0  0  0  0  0  0  0
   27.7552  -24.4100  -15.2210 O   0  0  0  0  0  0  0  0  0  0  0  0
   26.6658  -20.5688  -16.4203 C   0  0  0  0  0  0  0  0  0  0  0  0
   26.8416  -21.9035  -15.7159 C   0  0  2  0  0  0  0  0  0  0  0  0
   27.0246  -22.8831  -16.7617 N   0  0  0  0  0  0  0  0  0  0  0  0
   25.6721  -22.2268  -14.8675 C   0  0  0  0  0  0  0  0  0  0  0  0
   24.8463  -23.0799  -15.2605 O   0  0  0  0  0  0  0  0  0  0  0  0
   25.4615  -21.5939  -13.6170 N   0  0  0  0  0  0  0  0  0  0  0  0
   26.2474  -20.5356  -13.0226 C   0  0  0  0  0  0  0  0  0  0  0  0
   26.3668  -21.0198  -11.5820 C   0  0  0  0  0  0  0  0  0  0  0  0
   25.1321  -21.8601  -11.3447 C   0  0  0  0  0  0  0  0  0  0  0  0
   24.4102  -21.8772  -12.6701 C   0  0  1  0  0  0  0  0  0  0  0  0
   23.4121  -20.7942  -12.6915 C   0  0  0  0  0  0  0  0  0  0  0  0
   23.5723  -19.6680  -13.2115 O   0  0  0  0  0  0  0  0  0  0  0  0
   22.1542  -20.9948  -12.0880 O   0  0  0  0  0  0  0  0  0  0  0  0
  2  1  1  0
  3  4  1  6
  3  2  1  0
  5  7  1  0
  5  3  1  0
  5  6  1  1
  7 11  1  0
  8  7  2  0
 10  9  1  6
 10 12  1  0
 11 10  1  0
 12 13  2  0
 12 14  1  0
 14 18  1  0
 14 15  1  0
 15 16  1  0
 17 16  1  0
 18 17  1  0
 19 21  1  0
 18 19  1  1
 20 19  2  0
M  END
$$$$
