IAP.pdb
     RDKit          3D

 21 21  0  0  1  0  0  0  0  0999 V2000
   19.6044  -16.3849  -12.9706 C   0  0  0  0  0  0  0  0  0  0  0  0
   19.0743  -17.7541  -13.3619 C   0  0  0  0  0  0  0  0  0  0  0  0
   20.2640  -18.6657  -13.5580 C   0  0  2  0  0  0  0  0  0  0  0  0
   21.2497  -18.0589  -14.5350 C   0  0  0  0  0  0  0  0  0  0  0  0
   19.8905  -20.0601  -13.9016 C   0  0  2  0  0  0  0  0  0  0  0  0
   19.0156  -20.6125  -12.8673 N   0  0  0  0  0  0  0  0  0  0  0  0
   20.9855  -20.9749  -14.2354 C   0  0  0  0  0  0  0  0  0  0  0  0
   21.8373  -21.2726  -13.3767 O   0  0  0  0  0  0  0  0  0  0  0  0
   21.8511  -23.2215  -17.0225 C   0  0  0  0  0  0  0  0  0  0  0  0
   22.2469  -22.3823  -15.8195 C   0  0  2  0  0  0  0  0  0  0  0  0
   21.1080  -21.5423  -15.5294 N   0  0  0  0  0  0  0  0  0  0  0  0
   23.4590  -21.5777  -16.0949 C   0  0  0  0  0  0  0  0  0  0  0  0
   23.3565  -20.3376  -16.2208 O   0  0  0  0  0  0  0  0  0  0  0  0
   24.7375  -22.1763  -16.2206 N   0  0  0  0  0  0  0  0  0  0  0  0
   25.0607  -23.5841  -16.1544 C   0  0  0  0  0  0  0  0  0  0  0  0
   26.3045  -23.5680  -15.2730 C   0  0  0  0  0  0  0  0  0  0  0  0
   26.9352  -22.2135  -15.5056 C   0  0  0  0  0  0  0  0  0  0  0  0
   25.9920  -21.4987  -16.4424 C   0  0  1  0  0  0  0  0  0  0  0  0
   26.4363  -21.7099  -17.8307 C   0  0  0  0  0  0  0  0  0  0  0  0
   27.3580  -21.0865  -18.4019 O   0  0  0  0  0  0  0  0  0  0  0  0
   25.8005  -22.6859  -18.6243 O   0  0  0  0  0  0  0  0  0  0  0  0
  2  1  1  0
  3  4  1  6
  3  2  1  0
  5  7  1  0
  5  3  1  0
  5  6  1  1
  7 11  1  0
  8  7  2  0
 10  9  1  6
 10 12  1  0
 11 10  1  0
 12 13  2  0
 12 14  1  0
 14 18  1  0
 14 15  1  0
 15 16  1  0
 17 16  1  0
 18 17  1  0
 19 21  1  0
 18 19  1  6
 20 19  2  0
M  END
$$$$
