IAP.pdb
     RDKit          3D

 21 21  0  0  1  0  0  0  0  0999 V2000
   25.1895  -20.7963   -8.1384 C   0  0  0  0  0  0  0  0  0  0  0  0
   25.1745  -21.6122   -9.4202 C   0  0  0  0  0  0  0  0  0  0  0  0
   25.4759  -20.6714  -10.5642 C   0  0  2  0  0  0  0  0  0  0  0  0
   24.3616  -19.6599  -10.7349 C   0  0  0  0  0  0  0  0  0  0  0  0
   25.8250  -21.3683  -11.8270 C   0  0  2  0  0  0  0  0  0  0  0  0
   26.8391  -22.3909  -11.5695 N   0  0  0  0  0  0  0  0  0  0  0  0
   26.1793  -20.5249  -12.9717 C   0  0  0  0  0  0  0  0  0  0  0  0
   27.2620  -19.9091  -12.9852 O   0  0  0  0  0  0  0  0  0  0  0  0
   25.3050  -20.2435  -16.4476 C   0  0  0  0  0  0  0  0  0  0  0  0
   25.7050  -19.5197  -15.1730 C   0  0  2  0  0  0  0  0  0  0  0  0
   25.3121  -20.3851  -14.0851 N   0  0  0  0  0  0  0  0  0  0  0  0
   25.0530  -18.1940  -15.0750 C   0  0  0  0  0  0  0  0  0  0  0  0
   24.0291  -18.0646  -14.3686 O   0  0  0  0  0  0  0  0  0  0  0  0
   25.5591  -17.0626  -15.7625 N   0  0  0  0  0  0  0  0  0  0  0  0
   26.6930  -17.0114  -16.6583 C   0  0  0  0  0  0  0  0  0  0  0  0
   27.3917  -15.7400  -16.1897 C   0  0  0  0  0  0  0  0  0  0  0  0
   26.2931  -14.8760  -15.6126 C   0  0  0  0  0  0  0  0  0  0  0  0
   25.0430  -15.7162  -15.7102 C   0  0  1  0  0  0  0  0  0  0  0  0
   24.3436  -15.3990  -16.9670 C   0  0  0  0  0  0  0  0  0  0  0  0
   24.4599  -16.0271  -18.0423 O   0  0  0  0  0  0  0  0  0  0  0  0
   23.4571  -14.3041  -17.0132 O   0  0  0  0  0  0  0  0  0  0  0  0
  2  1  1  0
  3  4  1  6
  3  2  1  0
  5  7  1  0
  5  3  1  0
  5  6  1  1
  7 11  1  0
  8  7  2  0
 10  9  1  6
 10 12  1  0
 11 10  1  0
 12 13  2  0
 12 14  1  0
 14 18  1  0
 14 15  1  0
 15 16  1  0
 17 16  1  0
 18 17  1  0
 19 21  1  0
 18 19  1  6
 20 19  2  0
M  END
$$$$
