IAP.pdb
     RDKit          3D

 21 21  0  0  1  0  0  0  0  0999 V2000
   19.5125  -18.7295  -16.1202 C   0  0  0  0  0  0  0  0  0  0  0  0
   20.8182  -19.3403  -16.6008 C   0  0  0  0  0  0  0  0  0  0  0  0
   21.5364  -19.8935  -15.3912 C   0  0  2  0  0  0  0  0  0  0  0  0
   21.7219  -18.8194  -14.3396 C   0  0  0  0  0  0  0  0  0  0  0  0
   22.7966  -20.6027  -15.7245 C   0  0  2  0  0  0  0  0  0  0  0  0
   22.5413  -21.6248  -16.7396 N   0  0  0  0  0  0  0  0  0  0  0  0
   23.5745  -21.1319  -14.6012 C   0  0  0  0  0  0  0  0  0  0  0  0
   23.0346  -21.8747  -13.7596 O   0  0  0  0  0  0  0  0  0  0  0  0
   27.1013  -21.3396  -13.6054 C   0  0  0  0  0  0  0  0  0  0  0  0
   25.6284  -21.2559  -13.2420 C   0  0  2  0  0  0  0  0  0  0  0  0
   24.9484  -20.8192  -14.4393 N   0  0  0  0  0  0  0  0  0  0  0  0
   25.4001  -20.3217  -12.1163 C   0  0  0  0  0  0  0  0  0  0  0  0
   24.9223  -19.1890  -12.3464 O   0  0  0  0  0  0  0  0  0  0  0  0
   25.7092  -20.6767  -10.7794 N   0  0  0  0  0  0  0  0  0  0  0  0
   26.2887  -21.9152  -10.3091 C   0  0  0  0  0  0  0  0  0  0  0  0
   25.4248  -22.2090   -9.0878 C   0  0  0  0  0  0  0  0  0  0  0  0
   24.9561  -20.8561   -8.6015 C   0  0  0  0  0  0  0  0  0  0  0  0
   25.5077  -19.8688   -9.6010 C   0  0  1  0  0  0  0  0  0  0  0  0
   26.8020  -19.3605   -9.1153 C   0  0  0  0  0  0  0  0  0  0  0  0
   27.9266  -19.7602   -9.4891 O   0  0  0  0  0  0  0  0  0  0  0  0
   26.8287  -18.3367   -8.1469 O   0  0  0  0  0  0  0  0  0  0  0  0
  2  1  1  0
  3  4  1  1
  3  2  1  0
  5  7  1  0
  5  3  1  0
  5  6  1  6
  7 11  1  0
  8  7  2  0
 10  9  1  6
 10 12  1  0
 11 10  1  0
 12 13  2  0
 12 14  1  0
 14 18  1  0
 14 15  1  0
 15 16  1  0
 17 16  1  0
 18 17  1  0
 19 21  1  0
 18 19  1  1
 20 19  2  0
M  END
$$$$
