IAP.pdb
     RDKit          3D

 21 21  0  0  1  0  0  0  0  0999 V2000
   27.0152  -15.3032  -15.0358 C   0  0  0  0  0  0  0  0  0  0  0  0
   26.1751  -14.2688  -15.7661 C   0  0  0  0  0  0  0  0  0  0  0  0
   24.8154  -14.8795  -16.0177 C   0  0  2  0  0  0  0  0  0  0  0  0
   24.0872  -15.1239  -14.7123 C   0  0  0  0  0  0  0  0  0  0  0  0
   24.8578  -16.0782  -16.8914 C   0  0  2  0  0  0  0  0  0  0  0  0
   25.5957  -15.7765  -18.1181 N   0  0  0  0  0  0  0  0  0  0  0  0
   23.5796  -16.7375  -17.1720 C   0  0  0  0  0  0  0  0  0  0  0  0
   22.6290  -16.0863  -17.6451 O   0  0  0  0  0  0  0  0  0  0  0  0
   22.3294  -20.1997  -17.3095 C   0  0  0  0  0  0  0  0  0  0  0  0
   22.0926  -18.7048  -17.1768 C   0  0  2  0  0  0  0  0  0  0  0  0
   23.3875  -18.1193  -16.9170 N   0  0  0  0  0  0  0  0  0  0  0  0
   21.1321  -18.4023  -16.0914 C   0  0  0  0  0  0  0  0  0  0  0  0
   21.5603  -17.9941  -14.9895 O   0  0  0  0  0  0  0  0  0  0  0  0
   19.7350  -18.5631  -16.2671 N   0  0  0  0  0  0  0  0  0  0  0  0
   19.0435  -19.0173  -17.4530 C   0  0  0  0  0  0  0  0  0  0  0  0
   17.8867  -18.0270  -17.5267 C   0  0  0  0  0  0  0  0  0  0  0  0
   17.6401  -17.6014  -16.0968 C   0  0  0  0  0  0  0  0  0  0  0  0
   18.7048  -18.3045  -15.2904 C   0  0  1  0  0  0  0  0  0  0  0  0
   18.1656  -19.5776  -14.7827 C   0  0  0  0  0  0  0  0  0  0  0  0
   18.3169  -20.6971  -15.3196 O   0  0  0  0  0  0  0  0  0  0  0  0
   17.4079  -19.5881  -13.5941 O   0  0  0  0  0  0  0  0  0  0  0  0
  2  1  1  0
  3  4  1  1
  3  2  1  0
  5  7  1  0
  5  3  1  0
  5  6  1  6
  7 11  1  0
  8  7  2  0
 10  9  1  1
 10 12  1  0
 11 10  1  0
 12 13  2  0
 12 14  1  0
 14 18  1  0
 14 15  1  0
 15 16  1  0
 17 16  1  0
 18 17  1  0
 19 21  1  0
 18 19  1  6
 20 19  2  0
M  END
$$$$
