IAP.pdb
     RDKit          3D

 21 21  0  0  1  0  0  0  0  0999 V2000
   15.9373  -16.3904  -15.8909 C   0  0  0  0  0  0  0  0  0  0  0  0
   17.0865  -16.3834  -16.8849 C   0  0  0  0  0  0  0  0  0  0  0  0
   18.0885  -15.3525  -16.4176 C   0  0  2  0  0  0  0  0  0  0  0  0
   17.4242  -14.0039  -16.2329 C   0  0  0  0  0  0  0  0  0  0  0  0
   19.3077  -15.2878  -17.2610 C   0  0  2  0  0  0  0  0  0  0  0  0
   19.8812  -16.6250  -17.4137 N   0  0  0  0  0  0  0  0  0  0  0  0
   20.3215  -14.2995  -16.8833 C   0  0  0  0  0  0  0  0  0  0  0  0
   21.0263  -14.4796  -15.8722 O   0  0  0  0  0  0  0  0  0  0  0  0
   21.8029  -11.2827  -18.4173 C   0  0  0  0  0  0  0  0  0  0  0  0
   21.5400  -12.1824  -17.2216 C   0  0  2  0  0  0  0  0  0  0  0  0
   20.5290  -13.1225  -17.6469 N   0  0  0  0  0  0  0  0  0  0  0  0
   21.0957  -11.4028  -16.0439 C   0  0  0  0  0  0  0  0  0  0  0  0
   19.8847  -11.4005  -15.7312 O   0  0  0  0  0  0  0  0  0  0  0  0
   22.0082  -10.6559  -15.2578 N   0  0  0  0  0  0  0  0  0  0  0  0
   23.4132  -10.4310  -15.5154 C   0  0  0  0  0  0  0  0  0  0  0  0
   24.0139  -10.6531  -14.1319 C   0  0  0  0  0  0  0  0  0  0  0  0
   22.9114  -10.2946  -13.1610 C   0  0  0  0  0  0  0  0  0  0  0  0
   21.7216   -9.9593  -14.0271 C   0  0  1  0  0  0  0  0  0  0  0  0
   21.6932   -8.5067  -14.2690 C   0  0  0  0  0  0  0  0  0  0  0  0
   21.2906   -7.6425  -13.4594 O   0  0  0  0  0  0  0  0  0  0  0  0
   22.1477   -7.9973  -15.5022 O   0  0  0  0  0  0  0  0  0  0  0  0
  2  1  1  0
  3  4  1  6
  3  2  1  0
  5  7  1  0
  5  3  1  0
  5  6  1  1
  7 11  1  0
  8  7  2  0
 10  9  1  6
 10 12  1  0
 11 10  1  0
 12 13  2  0
 12 14  1  0
 14 18  1  0
 14 15  1  0
 15 16  1  0
 17 16  1  0
 18 17  1  0
 19 21  1  0
 18 19  1  6
 20 19  2  0
M  END
$$$$
