EMV.pdb
     RDKit          3D

 25 24  0  0  1  0  0  0  0  0999 V2000
   20.2005  -20.0601  -13.0178 N   0  0  0  0  0  0  0  0  0  0  0  0
   21.1898  -21.1047  -13.0602 C   0  0  1  0  0  0  0  0  0  0  0  0
   21.1419  -21.7816  -14.4038 C   0  0  0  0  0  0  0  0  0  0  0  0
   20.1030  -22.8357  -14.4412 C   0  0  0  0  0  0  0  0  0  0  0  0
   19.5176  -23.0520  -13.1063 C   0  0  0  0  0  0  0  0  0  0  0  0
   20.1069  -23.6872  -12.1890 O   0  0  0  0  0  0  0  0  0  0  0  0
   22.5536  -20.5540  -12.9054 C   0  0  0  0  0  0  0  0  0  0  0  0
   22.8199  -19.4375  -13.3820 O   0  0  0  0  0  0  0  0  0  0  0  0
   18.2377  -22.5127  -12.8698 O   0  0  0  0  0  0  0  0  0  0  0  0
   26.5942  -19.6641   -6.9855 C   0  0  0  0  0  0  0  0  0  0  0  0
   26.3463  -20.9940   -8.2087 S   0  0  0  0  0  0  0  0  0  0  0  0
   25.7098  -20.2640   -9.7271 C   0  0  0  0  0  0  0  0  0  0  0  0
   25.3690  -21.3795  -10.7206 C   0  0  0  0  0  0  0  0  0  0  0  0
   24.8162  -20.7112  -11.9511 C   0  0  2  0  0  0  0  0  0  0  0  0
   23.5261  -21.2926  -12.2284 N   0  0  0  0  0  0  0  0  0  0  0  0
   25.6800  -20.8630  -13.1285 C   0  0  0  0  0  0  0  0  0  0  0  0
   25.6091  -21.9009  -13.8306 O   0  0  0  0  0  0  0  0  0  0  0  0
   28.8453  -18.8590  -16.4315 C   0  0  0  0  0  0  0  0  0  0  0  0
   28.0574  -18.7412  -15.1622 C   0  0  1  0  0  0  0  0  0  0  0  0
   27.1815  -17.5238  -15.2644 C   0  0  0  0  0  0  0  0  0  0  0  0
   27.3204  -19.9888  -14.8001 C   0  0  2  0  0  0  0  0  0  0  0  0
   26.6224  -19.8749  -13.5343 N   0  0  0  0  0  0  0  0  0  0  0  0
   28.2501  -21.1759  -14.7693 C   0  0  0  0  0  0  0  0  0  0  0  0
   28.8804  -21.5588  -13.5897 O   0  0  0  0  0  0  0  0  0  0  0  0
   28.4884  -21.8552  -15.7941 O   0  0  0  0  0  0  0  0  0  0  0  0
  2  1  1  6
  3  2  1  0
  4  3  1  0
  5  4  1  0
  6  5  2  0
  7  8  2  0
  7  2  1  0
  9  5  1  0
 11 10  1  0
 11 12  1  0
 12 13  1  0
 14 13  1  1
 14 15  1  0
 15  7  1  0
 16 22  1  0
 16 14  1  0
 17 16  2  0
 19 18  1  6
 19 21  1  0
 20 19  1  0
 21 22  1  1
 21 23  1  0
 23 24  1  0
 25 23  2  0
M  END
$$$$
