EMV.pdb
     RDKit          3D

 25 24  0  0  1  0  0  0  0  0999 V2000
   20.5344  -19.8466  -12.5802 N   0  0  0  0  0  0  0  0  0  0  0  0
   21.4478  -20.9589  -12.5633 C   0  0  1  0  0  0  0  0  0  0  0  0
   21.1695  -21.8498  -13.7442 C   0  0  0  0  0  0  0  0  0  0  0  0
   20.6637  -23.1735  -13.3152 C   0  0  0  0  0  0  0  0  0  0  0  0
   19.4716  -23.0349  -12.4601 C   0  0  0  0  0  0  0  0  0  0  0  0
   19.0083  -21.9185  -12.0976 O   0  0  0  0  0  0  0  0  0  0  0  0
   22.8481  -20.5008  -12.6919 C   0  0  0  0  0  0  0  0  0  0  0  0
   23.1162  -19.5622  -13.4611 O   0  0  0  0  0  0  0  0  0  0  0  0
   18.8379  -24.2217  -12.0421 O   0  0  0  0  0  0  0  0  0  0  0  0
   28.3318  -21.1074   -8.7808 C   0  0  0  0  0  0  0  0  0  0  0  0
   26.6080  -20.7174   -8.3304 S   0  0  0  0  0  0  0  0  0  0  0  0
   25.7276  -20.2130   -9.8184 C   0  0  0  0  0  0  0  0  0  0  0  0
   26.0071  -21.2210  -10.9378 C   0  0  0  0  0  0  0  0  0  0  0  0
   25.2329  -20.7574  -12.1429 C   0  0  2  0  0  0  0  0  0  0  0  0
   23.8525  -21.1267  -11.9507 N   0  0  0  0  0  0  0  0  0  0  0  0
   25.7198  -21.3377  -13.4006 C   0  0  0  0  0  0  0  0  0  0  0  0
   25.6160  -22.5715  -13.6055 O   0  0  0  0  0  0  0  0  0  0  0  0
   26.5898  -21.1810  -18.1624 C   0  0  0  0  0  0  0  0  0  0  0  0
   26.0738  -20.6294  -16.8680 C   0  0  1  0  0  0  0  0  0  0  0  0
   24.5807  -20.8028  -16.8458 C   0  0  0  0  0  0  0  0  0  0  0  0
   26.7657  -21.1833  -15.6659 C   0  0  2  0  0  0  0  0  0  0  0  0
   26.3215  -20.5625  -14.4332 N   0  0  0  0  0  0  0  0  0  0  0  0
   28.2626  -21.0535  -15.7964 C   0  0  0  0  0  0  0  0  0  0  0  0
   29.0420  -22.1375  -16.1871 O   0  0  0  0  0  0  0  0  0  0  0  0
   28.8553  -19.9758  -15.5601 O   0  0  0  0  0  0  0  0  0  0  0  0
  2  1  1  6
  3  2  1  0
  4  3  1  0
  5  4  1  0
  6  5  2  0
  7  8  2  0
  7  2  1  0
  9  5  1  0
 11 10  1  0
 11 12  1  0
 12 13  1  0
 14 13  1  1
 14 15  1  0
 15  7  1  0
 16 22  1  0
 16 14  1  0
 17 16  2  0
 19 18  1  6
 19 21  1  0
 20 19  1  0
 21 22  1  1
 21 23  1  0
 23 24  1  0
 25 23  2  0
M  END
$$$$
