EMV.pdb
     RDKit          3D

 25 24  0  0  1  0  0  0  0  0999 V2000
   27.9944  -22.3228  -16.6284 N   0  0  0  0  0  0  0  0  0  0  0  0
   27.5163  -21.1387  -15.9643 C   0  0  1  0  0  0  0  0  0  0  0  0
   26.6839  -20.3314  -16.9240 C   0  0  0  0  0  0  0  0  0  0  0  0
   27.5240  -19.6895  -17.9604 C   0  0  0  0  0  0  0  0  0  0  0  0
   28.4374  -18.6984  -17.3648 C   0  0  0  0  0  0  0  0  0  0  0  0
   28.0365  -17.6642  -16.7632 O   0  0  0  0  0  0  0  0  0  0  0  0
   26.6415  -21.4839  -14.8228 C   0  0  0  0  0  0  0  0  0  0  0  0
   25.9267  -22.4987  -14.8855 O   0  0  0  0  0  0  0  0  0  0  0  0
   29.8197  -18.9419  -17.4872 O   0  0  0  0  0  0  0  0  0  0  0  0
   25.3330  -20.9056   -7.2047 C   0  0  0  0  0  0  0  0  0  0  0  0
   26.3736  -20.3641   -8.6013 S   0  0  0  0  0  0  0  0  0  0  0  0
   25.5695  -20.8519  -10.1373 C   0  0  0  0  0  0  0  0  0  0  0  0
   26.4691  -20.4787  -11.3200 C   0  0  0  0  0  0  0  0  0  0  0  0
   25.8006  -21.0115  -12.5592 C   0  0  2  0  0  0  0  0  0  0  0  0
   26.6268  -20.6679  -13.6899 N   0  0  0  0  0  0  0  0  0  0  0  0
   24.4500  -20.4735  -12.7638 C   0  0  0  0  0  0  0  0  0  0  0  0
   24.2850  -19.2436  -12.9519 O   0  0  0  0  0  0  0  0  0  0  0  0
   22.2439  -21.1613  -15.5357 C   0  0  0  0  0  0  0  0  0  0  0  0
   21.3894  -21.3273  -14.3158 C   0  0  1  0  0  0  0  0  0  0  0  0
   21.0476  -22.7845  -14.1767 C   0  0  0  0  0  0  0  0  0  0  0  0
   21.9836  -20.7245  -13.0853 C   0  0  2  0  0  0  0  0  0  0  0  0
   23.2803  -21.2865  -12.7611 N   0  0  0  0  0  0  0  0  0  0  0  0
   21.0517  -20.8698  -11.9084 C   0  0  0  0  0  0  0  0  0  0  0  0
   19.8593  -20.1558  -11.8494 O   0  0  0  0  0  0  0  0  0  0  0  0
   21.3132  -21.6308  -10.9487 O   0  0  0  0  0  0  0  0  0  0  0  0
  2  1  1  6
  3  2  1  0
  4  3  1  0
  5  4  1  0
  6  5  2  0
  7  8  2  0
  7  2  1  0
  9  5  1  0
 11 10  1  0
 11 12  1  0
 12 13  1  0
 14 13  1  1
 14 15  1  0
 15  7  1  0
 16 22  1  0
 16 14  1  0
 17 16  2  0
 19 18  1  6
 19 21  1  0
 20 19  1  0
 21 22  1  1
 21 23  1  0
 23 24  1  0
 25 23  2  0
M  END
$$$$
