EMV.pdb
     RDKit          3D

 25 24  0  0  1  0  0  0  0  0999 V2000
   17.9198  -11.4279  -15.0670 N   0  0  0  0  0  0  0  0  0  0  0  0
   17.0586  -10.4501  -14.4553 C   0  0  1  0  0  0  0  0  0  0  0  0
   15.8284  -11.1343  -13.9221 C   0  0  0  0  0  0  0  0  0  0  0  0
   14.9768  -11.6471  -15.0193 C   0  0  0  0  0  0  0  0  0  0  0  0
   13.7950  -12.3503  -14.4899 C   0  0  0  0  0  0  0  0  0  0  0  0
   13.5720  -12.4932  -13.2561 O   0  0  0  0  0  0  0  0  0  0  0  0
   17.7221   -9.8014  -13.3037 C   0  0  0  0  0  0  0  0  0  0  0  0
   18.8547  -10.1789  -12.9584 O   0  0  0  0  0  0  0  0  0  0  0  0
   12.8864  -12.8784  -15.4283 O   0  0  0  0  0  0  0  0  0  0  0  0
   20.9501   -5.1009  -13.6743 C   0  0  0  0  0  0  0  0  0  0  0  0
   21.3130   -5.9793  -12.1177 S   0  0  0  0  0  0  0  0  0  0  0  0
   19.7577   -6.5276  -11.3937 C   0  0  0  0  0  0  0  0  0  0  0  0
   19.0393   -7.4540  -12.3801 C   0  0  0  0  0  0  0  0  0  0  0  0
   17.7984   -7.9489  -11.6860 C   0  0  2  0  0  0  0  0  0  0  0  0
   17.0704   -8.7749  -12.6171 N   0  0  0  0  0  0  0  0  0  0  0  0
   16.9277   -6.8641  -11.2162 C   0  0  0  0  0  0  0  0  0  0  0  0
   16.4272   -6.0588  -12.0385 O   0  0  0  0  0  0  0  0  0  0  0  0
   13.8858   -7.3538   -8.8155 C   0  0  0  0  0  0  0  0  0  0  0  0
   14.7015   -6.1722   -8.3864 C   0  0  1  0  0  0  0  0  0  0  0  0
   15.3847   -6.5181   -7.0928 C   0  0  0  0  0  0  0  0  0  0  0  0
   15.6278   -5.6709   -9.4453 C   0  0  2  0  0  0  0  0  0  0  0  0
   16.6071   -6.6635   -9.8428 N   0  0  0  0  0  0  0  0  0  0  0  0
   16.3255   -4.4101   -9.0002 C   0  0  0  0  0  0  0  0  0  0  0  0
   17.7059   -4.3794   -8.8313 O   0  0  0  0  0  0  0  0  0  0  0  0
   15.6951   -3.3532   -8.7676 O   0  0  0  0  0  0  0  0  0  0  0  0
  2  1  1  1
  3  2  1  0
  4  3  1  0
  5  4  1  0
  6  5  2  0
  7  8  2  0
  7  2  1  0
  9  5  1  0
 11 10  1  0
 11 12  1  0
 12 13  1  0
 14 13  1  6
 14 15  1  0
 15  7  1  0
 16 22  1  0
 16 14  1  0
 17 16  2  0
 19 18  1  6
 19 21  1  0
 20 19  1  0
 21 22  1  1
 21 23  1  0
 23 24  1  0
 25 23  2  0
M  END
$$$$
