EMV.pdb
     RDKit          3D

 25 24  0  0  1  0  0  0  0  0999 V2000
   20.8208  -20.6752  -11.8494 N   0  0  0  0  0  0  0  0  0  0  0  0
   21.8631  -21.3752  -12.5532 C   0  0  1  0  0  0  0  0  0  0  0  0
   21.4298  -21.6152  -13.9745 C   0  0  0  0  0  0  0  0  0  0  0  0
   20.3708  -22.6472  -14.0497 C   0  0  0  0  0  0  0  0  0  0  0  0
   20.9475  -24.0029  -14.0221 C   0  0  0  0  0  0  0  0  0  0  0  0
   22.1786  -24.2261  -13.8589 O   0  0  0  0  0  0  0  0  0  0  0  0
   23.1012  -20.5683  -12.6125 C   0  0  0  0  0  0  0  0  0  0  0  0
   23.0241  -19.3280  -12.5942 O   0  0  0  0  0  0  0  0  0  0  0  0
   20.0590  -25.0837  -14.1880 O   0  0  0  0  0  0  0  0  0  0  0  0
   28.4884  -21.7856   -9.6892 C   0  0  0  0  0  0  0  0  0  0  0  0
   27.0328  -20.9753   -8.9471 S   0  0  0  0  0  0  0  0  0  0  0  0
   25.9363  -20.4423  -10.2727 C   0  0  0  0  0  0  0  0  0  0  0  0
   26.4525  -20.9900  -11.6072 C   0  0  0  0  0  0  0  0  0  0  0  0
   25.5570  -20.4320  -12.6811 C   0  0  2  0  0  0  0  0  0  0  0  0
   24.3408  -21.2064  -12.6894 N   0  0  0  0  0  0  0  0  0  0  0  0
   26.1649  -20.4689  -14.0170 C   0  0  0  0  0  0  0  0  0  0  0  0
   26.4737  -21.5686  -14.5371 O   0  0  0  0  0  0  0  0  0  0  0  0
   24.8085  -19.7019  -17.2907 C   0  0  0  0  0  0  0  0  0  0  0  0
   26.0627  -18.8909  -17.1672 C   0  0  1  0  0  0  0  0  0  0  0  0
   25.6745  -17.4484  -16.9997 C   0  0  0  0  0  0  0  0  0  0  0  0
   26.9961  -19.3930  -16.1149 C   0  0  2  0  0  0  0  0  0  0  0  0
   26.4342  -19.2976  -14.7817 N   0  0  0  0  0  0  0  0  0  0  0  0
   28.3151  -18.6638  -16.1701 C   0  0  0  0  0  0  0  0  0  0  0  0
   28.6249  -17.6770  -15.2399 O   0  0  0  0  0  0  0  0  0  0  0  0
   29.1731  -18.9158  -17.0469 O   0  0  0  0  0  0  0  0  0  0  0  0
  2  1  1  1
  3  2  1  0
  4  3  1  0
  5  4  1  0
  6  5  2  0
  7  8  2  0
  7  2  1  0
  9  5  1  0
 11 10  1  0
 11 12  1  0
 12 13  1  0
 14 13  1  1
 14 15  1  0
 15  7  1  0
 16 22  1  0
 16 14  1  0
 17 16  2  0
 19 18  1  1
 19 21  1  0
 20 19  1  0
 21 22  1  1
 21 23  1  0
 23 24  1  0
 25 23  2  0
M  END
$$$$
