EMV.pdb
     RDKit          3D

 25 24  0  0  1  0  0  0  0  0999 V2000
   20.5062  -10.6627  -19.0069 N   0  0  0  0  0  0  0  0  0  0  0  0
   21.5222   -9.8472  -18.3948 C   0  0  1  0  0  0  0  0  0  0  0  0
   22.0736   -8.8888  -19.4161 C   0  0  0  0  0  0  0  0  0  0  0  0
   21.3387   -8.9831  -20.6979 C   0  0  0  0  0  0  0  0  0  0  0  0
   22.1434   -8.4510  -21.8118 C   0  0  0  0  0  0  0  0  0  0  0  0
   21.6956   -8.3157  -22.9837 O   0  0  0  0  0  0  0  0  0  0  0  0
   20.9603   -9.0293  -17.2982 C   0  0  0  0  0  0  0  0  0  0  0  0
   19.7437   -8.7754  -17.2863 O   0  0  0  0  0  0  0  0  0  0  0  0
   23.4732   -8.0832  -21.5268 O   0  0  0  0  0  0  0  0  0  0  0  0
   23.2656   -9.5921  -11.4696 C   0  0  0  0  0  0  0  0  0  0  0  0
   21.6022   -8.8937  -11.2014 S   0  0  0  0  0  0  0  0  0  0  0  0
   21.1096   -8.0015  -12.6863 C   0  0  0  0  0  0  0  0  0  0  0  0
   21.6616   -8.7260  -13.9183 C   0  0  0  0  0  0  0  0  0  0  0  0
   21.2425   -7.9210  -15.1195 C   0  0  2  0  0  0  0  0  0  0  0  0
   21.8002   -8.5509  -16.2905 N   0  0  0  0  0  0  0  0  0  0  0  0
   21.6874   -6.5231  -15.0620 C   0  0  0  0  0  0  0  0  0  0  0  0
   22.8920   -6.2377  -15.2683 O   0  0  0  0  0  0  0  0  0  0  0  0
   18.9479   -3.2299  -15.2285 C   0  0  0  0  0  0  0  0  0  0  0  0
   20.3806   -3.1979  -15.6668 C   0  0  1  0  0  0  0  0  0  0  0  0
   20.8194   -1.7616  -15.7330 C   0  0  0  0  0  0  0  0  0  0  0  0
   21.2750   -4.0670  -14.8449 C   0  0  2  0  0  0  0  0  0  0  0  0
   20.8090   -5.4384  -14.7773 N   0  0  0  0  0  0  0  0  0  0  0  0
   21.4386   -3.5106  -13.4527 C   0  0  0  0  0  0  0  0  0  0  0  0
   22.3114   -2.4566  -13.2030 O   0  0  0  0  0  0  0  0  0  0  0  0
   20.8017   -3.9718  -12.4779 O   0  0  0  0  0  0  0  0  0  0  0  0
  2  1  1  6
  3  2  1  0
  4  3  1  0
  5  4  1  0
  6  5  2  0
  7  8  2  0
  7  2  1  0
  9  5  1  0
 11 10  1  0
 11 12  1  0
 12 13  1  0
 14 13  1  1
 14 15  1  0
 15  7  1  0
 16 22  1  0
 16 14  1  0
 17 16  2  0
 19 18  1  1
 19 21  1  0
 20 19  1  0
 21 22  1  1
 21 23  1  0
 23 24  1  0
 25 23  2  0
M  END
$$$$
