EMV.pdb
     RDKit          3D

 25 24  0  0  1  0  0  0  0  0999 V2000
   17.1939  -25.6853   -5.1839 N   0  0  0  0  0  0  0  0  0  0  0  0
   17.0362  -25.2632   -3.8168 C   0  0  1  0  0  0  0  0  0  0  0  0
   15.5787  -25.0102   -3.5388 C   0  0  0  0  0  0  0  0  0  0  0  0
   15.2707  -23.5621   -3.5452 C   0  0  0  0  0  0  0  0  0  0  0  0
   15.3990  -22.9859   -2.1949 C   0  0  0  0  0  0  0  0  0  0  0  0
   15.9339  -21.8653   -1.9707 O   0  0  0  0  0  0  0  0  0  0  0  0
   17.4750  -26.3192   -2.8788 C   0  0  0  0  0  0  0  0  0  0  0  0
   17.1722  -27.5030   -3.1059 O   0  0  0  0  0  0  0  0  0  0  0  0
   14.8912  -23.7435   -1.1211 O   0  0  0  0  0  0  0  0  0  0  0  0
   22.3462  -23.9925   -0.5617 C   0  0  0  0  0  0  0  0  0  0  0  0
   22.5399  -25.8006   -0.4221 S   0  0  0  0  0  0  0  0  0  0  0  0
   21.0842  -26.5889   -1.1314 C   0  0  0  0  0  0  0  0  0  0  0  0
   19.9151  -26.4706   -0.1482 C   0  0  0  0  0  0  0  0  0  0  0  0
   18.6973  -27.0025   -0.8556 C   0  0  2  0  0  0  0  0  0  0  0  0
   18.2219  -25.9763   -1.7501 N   0  0  0  0  0  0  0  0  0  0  0  0
   17.6170  -27.3847    0.0622 C   0  0  0  0  0  0  0  0  0  0  0  0
   16.7973  -26.5226    0.4622 O   0  0  0  0  0  0  0  0  0  0  0  0
   14.8015  -29.9393   -0.2418 C   0  0  0  0  0  0  0  0  0  0  0  0
   15.5472  -30.1902    1.0337 C   0  0  1  0  0  0  0  0  0  0  0  0
   16.3214  -31.4697    0.8812 C   0  0  0  0  0  0  0  0  0  0  0  0
   16.3763  -29.0299    1.4776 C   0  0  2  0  0  0  0  0  0  0  0  0
   17.4374  -28.7142    0.5414 N   0  0  0  0  0  0  0  0  0  0  0  0
   16.9560  -29.2732    2.8485 C   0  0  0  0  0  0  0  0  0  0  0  0
   16.1586  -29.1930    3.9855 O   0  0  0  0  0  0  0  0  0  0  0  0
   18.1654  -29.5536    3.0142 O   0  0  0  0  0  0  0  0  0  0  0  0
  2  1  1  6
  3  2  1  0
  4  3  1  0
  5  4  1  0
  6  5  2  0
  7  8  2  0
  7  2  1  0
  9  5  1  0
 11 10  1  0
 11 12  1  0
 12 13  1  0
 14 13  1  1
 14 15  1  0
 15  7  1  0
 16 22  1  0
 16 14  1  0
 17 16  2  0
 19 18  1  6
 19 21  1  0
 20 19  1  0
 21 22  1  6
 21 23  1  0
 23 24  1  0
 25 23  2  0
M  END
$$$$
