EMV.pdb
     RDKit          3D

 25 24  0  0  1  0  0  0  0  0999 V2000
   21.5563  -14.1268  -17.2070 N   0  0  0  0  0  0  0  0  0  0  0  0
   21.6143  -12.8663  -17.8995 C   0  0  1  0  0  0  0  0  0  0  0  0
   20.3158  -12.6367  -18.6254 C   0  0  0  0  0  0  0  0  0  0  0  0
   20.0705  -13.6871  -19.6395 C   0  0  0  0  0  0  0  0  0  0  0  0
   18.8435  -13.4085  -20.4065 C   0  0  0  0  0  0  0  0  0  0  0  0
   17.6880  -13.6954  -19.9883 O   0  0  0  0  0  0  0  0  0  0  0  0
   21.7799  -11.7439  -16.9507 C   0  0  0  0  0  0  0  0  0  0  0  0
   21.1331  -11.7400  -15.8895 O   0  0  0  0  0  0  0  0  0  0  0  0
   18.9966  -12.7912  -21.6636 O   0  0  0  0  0  0  0  0  0  0  0  0
   27.3303  -12.0275  -14.6401 C   0  0  0  0  0  0  0  0  0  0  0  0
   26.6795  -10.5303  -15.4533 S   0  0  0  0  0  0  0  0  0  0  0  0
   24.8813  -10.6283  -15.4786 C   0  0  0  0  0  0  0  0  0  0  0  0
   24.3164   -9.3822  -16.1682 C   0  0  0  0  0  0  0  0  0  0  0  0
   22.8374   -9.6098  -16.3328 C   0  0  2  0  0  0  0  0  0  0  0  0
   22.6581  -10.7023  -17.2566 N   0  0  0  0  0  0  0  0  0  0  0  0
   22.1233   -8.4288  -16.8335 C   0  0  0  0  0  0  0  0  0  0  0  0
   22.2797   -8.0565  -18.0218 O   0  0  0  0  0  0  0  0  0  0  0  0
   18.4893   -5.2975  -17.1425 C   0  0  0  0  0  0  0  0  0  0  0  0
   19.1554   -6.5739  -16.7266 C   0  0  1  0  0  0  0  0  0  0  0  0
   18.7542   -7.6505  -17.6960 C   0  0  0  0  0  0  0  0  0  0  0  0
   20.6320   -6.4436  -16.5434 C   0  0  2  0  0  0  0  0  0  0  0  0
   21.2377   -7.6561  -16.0286 N   0  0  0  0  0  0  0  0  0  0  0  0
   20.9640   -5.2806  -15.6424 C   0  0  0  0  0  0  0  0  0  0  0  0
   20.9812   -3.9791  -16.1334 O   0  0  0  0  0  0  0  0  0  0  0  0
   21.2346   -5.4403  -14.4301 O   0  0  0  0  0  0  0  0  0  0  0  0
  2  1  1  1
  3  2  1  0
  4  3  1  0
  5  4  1  0
  6  5  2  0
  7  8  2  0
  7  2  1  0
  9  5  1  0
 11 10  1  0
 11 12  1  0
 12 13  1  0
 14 13  1  6
 14 15  1  0
 15  7  1  0
 16 22  1  0
 16 14  1  0
 17 16  2  0
 19 18  1  6
 19 21  1  0
 20 19  1  0
 21 22  1  1
 21 23  1  0
 23 24  1  0
 25 23  2  0
M  END
$$$$
