AAY.pdb
     RDKit          3D

 23 23  0  0  1  0  0  0  0  0999 V2000
   20.6936  -10.9959  -19.1865 C   0  0  0  0  0  0  0  0  0  0  0  0
   20.8543  -10.9397  -17.6941 C   0  0  2  0  0  0  0  0  0  0  0  0
   20.0835  -11.9570  -17.0414 N   0  0  0  0  0  0  0  0  0  0  0  0
   20.5566   -9.5785  -17.1532 C   0  0  0  0  0  0  0  0  0  0  0  0
   21.2889   -8.5821  -17.4188 O   0  0  0  0  0  0  0  0  0  0  0  0
   17.7041   -7.8984  -15.3360 C   0  0  0  0  0  0  0  0  0  0  0  0
   19.1301   -8.0298  -15.8125 C   0  0  2  0  0  0  0  0  0  0  0  0
   19.4373   -9.3304  -16.3132 N   0  0  0  0  0  0  0  0  0  0  0  0
   20.0680   -7.5730  -14.7554 C   0  0  0  0  0  0  0  0  0  0  0  0
   20.6337   -8.4016  -14.0045 O   0  0  0  0  0  0  0  0  0  0  0  0
   24.5345   -3.3261  -18.7923 O   0  0  0  0  0  0  0  0  0  0  0  0
   24.0795   -4.0250  -17.6840 C   0  0  0  0  0  0  0  0  0  0  0  0
   24.0643   -3.4879  -16.4125 C   0  0  0  0  0  0  0  0  0  0  0  0
   23.6126   -4.1798  -15.3085 C   0  0  0  0  0  0  0  0  0  0  0  0
   23.1506   -5.4695  -15.4619 C   0  0  0  0  0  0  0  0  0  0  0  0
   22.6757   -6.2043  -14.2824 C   0  0  0  0  0  0  0  0  0  0  0  0
   21.3575   -5.6648  -13.7261 C   0  0  2  0  0  0  0  0  0  0  0  0
   20.3204   -6.1836  -14.6009 N   0  0  0  0  0  0  0  0  0  0  0  0
   21.3325   -4.1952  -13.6519 C   0  0  0  0  0  0  0  0  0  0  0  0
   20.6685   -3.5008  -14.4598 O   0  0  0  0  0  0  0  0  0  0  0  0
   23.1624   -6.0129  -16.7270 C   0  0  0  0  0  0  0  0  0  0  0  0
   23.6145   -5.3190  -17.8292 C   0  0  0  0  0  0  0  0  0  0  0  0
   22.0522   -3.5038  -12.6716 O   0  0  0  0  0  0  0  0  0  0  0  0
  2  1  1  6
  3  2  1  0
  4  2  1  0
  5  4  2  0
  7  6  1  1
  7  9  1  0
  7  8  1  0
  8  4  1  0
  9 18  1  0
 10  9  2  0
 12 22  2  0
 12 11  1  0
 13 12  1  0
 14 15  1  0
 14 13  2  0
 15 21  2  0
 16 15  1  0
 17 19  1  0
 17 16  1  6
 18 17  1  0
 19 20  2  0
 19 23  1  0
 21 22  1  0
M  END
$$$$
