AAY.pdb
     RDKit          3D

 23 23  0  0  1  0  0  0  0  0999 V2000
   18.3943  -12.1930  -18.9440 C   0  0  0  0  0  0  0  0  0  0  0  0
   19.8765  -12.1998  -19.1876 C   0  0  2  0  0  0  0  0  0  0  0  0
   20.4269  -13.5170  -19.0575 N   0  0  0  0  0  0  0  0  0  0  0  0
   20.5870  -11.2086  -18.3233 C   0  0  0  0  0  0  0  0  0  0  0  0
   20.7472  -11.4011  -17.0836 O   0  0  0  0  0  0  0  0  0  0  0  0
   22.4474   -7.9389  -18.8008 C   0  0  0  0  0  0  0  0  0  0  0  0
   21.7295   -9.0105  -18.0171 C   0  0  2  0  0  0  0  0  0  0  0  0
   21.1197   -9.9991  -18.8462 N   0  0  0  0  0  0  0  0  0  0  0  0
   20.7853   -8.3934  -17.0510 C   0  0  0  0  0  0  0  0  0  0  0  0
   19.5853   -8.2098  -17.3620 O   0  0  0  0  0  0  0  0  0  0  0  0
   15.9801  -10.8812  -11.6955 O   0  0  0  0  0  0  0  0  0  0  0  0
   17.1164  -10.2210  -12.1390 C   0  0  0  0  0  0  0  0  0  0  0  0
   17.5145  -10.2177  -13.4607 C   0  0  0  0  0  0  0  0  0  0  0  0
   18.6435   -9.5624  -13.9051 C   0  0  0  0  0  0  0  0  0  0  0  0
   19.4238   -8.8727  -13.0020 C   0  0  0  0  0  0  0  0  0  0  0  0
   20.6283   -8.1809  -13.4791 C   0  0  0  0  0  0  0  0  0  0  0  0
   20.3994   -7.3912  -14.7684 C   0  0  2  0  0  0  0  0  0  0  0  0
   21.2543   -8.0111  -15.7658 N   0  0  0  0  0  0  0  0  0  0  0  0
   20.6845   -5.9559  -14.6124 C   0  0  0  0  0  0  0  0  0  0  0  0
   21.8329   -5.4833  -14.7962 O   0  0  0  0  0  0  0  0  0  0  0  0
   19.0340   -8.8710  -11.6815 C   0  0  0  0  0  0  0  0  0  0  0  0
   17.9046   -9.5270  -11.2397 C   0  0  0  0  0  0  0  0  0  0  0  0
   19.6819   -5.0499  -14.2502 O   0  0  0  0  0  0  0  0  0  0  0  0
  2  1  1  1
  3  2  1  0
  4  2  1  0
  5  4  2  0
  7  6  1  6
  7  9  1  0
  7  8  1  0
  8  4  1  0
  9 18  1  0
 10  9  2  0
 12 22  2  0
 12 11  1  0
 13 12  1  0
 14 15  1  0
 14 13  2  0
 15 21  2  0
 16 15  1  0
 17 19  1  0
 17 16  1  1
 18 17  1  0
 19 20  2  0
 19 23  1  0
 21 22  1  0
M  END
$$$$
