AAY.pdb
     RDKit          3D

 23 23  0  0  1  0  0  0  0  0999 V2000
   17.8822  -11.1591  -18.7641 C   0  0  0  0  0  0  0  0  0  0  0  0
   18.2626  -10.8521  -17.3439 C   0  0  2  0  0  0  0  0  0  0  0  0
   17.1861  -11.1262  -16.4378 N   0  0  0  0  0  0  0  0  0  0  0  0
   18.7778   -9.4568  -17.1950 C   0  0  0  0  0  0  0  0  0  0  0  0
   19.9867   -9.1657  -17.4263 O   0  0  0  0  0  0  0  0  0  0  0  0
   17.2655   -6.0274  -16.7901 C   0  0  0  0  0  0  0  0  0  0  0  0
   18.3918   -7.0312  -16.7498 C   0  0  2  0  0  0  0  0  0  0  0  0
   17.9395   -8.3843  -16.7865 N   0  0  0  0  0  0  0  0  0  0  0  0
   19.2921   -6.7459  -15.6036 C   0  0  0  0  0  0  0  0  0  0  0  0
   19.0048   -7.1492  -14.4524 O   0  0  0  0  0  0  0  0  0  0  0  0
   23.0741  -11.8404  -15.0673 O   0  0  0  0  0  0  0  0  0  0  0  0
   22.9963  -10.4559  -15.0967 C   0  0  0  0  0  0  0  0  0  0  0  0
   22.9448   -9.7320  -16.2709 C   0  0  0  0  0  0  0  0  0  0  0  0
   22.8674   -8.3556  -16.3038 C   0  0  0  0  0  0  0  0  0  0  0  0
   22.8391   -7.6520  -15.1188 C   0  0  0  0  0  0  0  0  0  0  0  0
   22.7622   -6.1859  -15.1590 C   0  0  0  0  0  0  0  0  0  0  0  0
   21.3931   -5.6423  -14.7485 C   0  0  2  0  0  0  0  0  0  0  0  0
   20.4867   -6.0092  -15.8226 N   0  0  0  0  0  0  0  0  0  0  0  0
   21.4077   -4.1901  -14.5106 C   0  0  0  0  0  0  0  0  0  0  0  0
   20.8268   -3.3855  -15.2793 O   0  0  0  0  0  0  0  0  0  0  0  0
   22.8902   -8.3663  -13.9428 C   0  0  0  0  0  0  0  0  0  0  0  0
   22.9675   -9.7426  -13.9126 C   0  0  0  0  0  0  0  0  0  0  0  0
   22.0737   -3.6396  -13.4103 O   0  0  0  0  0  0  0  0  0  0  0  0
  2  1  1  6
  3  2  1  0
  4  2  1  0
  5  4  2  0
  7  6  1  1
  7  9  1  0
  7  8  1  0
  8  4  1  0
  9 18  1  0
 10  9  2  0
 12 22  2  0
 12 11  1  0
 13 12  1  0
 14 15  1  0
 14 13  2  0
 15 21  2  0
 16 15  1  0
 17 19  1  0
 17 16  1  6
 18 17  1  0
 19 20  2  0
 19 23  1  0
 21 22  1  0
M  END
$$$$
