AAY.pdb
     RDKit          3D

 23 23  0  0  1  0  0  0  0  0999 V2000
   18.3688  -13.4963  -15.8413 C   0  0  0  0  0  0  0  0  0  0  0  0
   19.2067  -12.5705  -16.6762 C   0  0  2  0  0  0  0  0  0  0  0  0
   20.4060  -13.2101  -17.1317 N   0  0  0  0  0  0  0  0  0  0  0  0
   19.4921  -11.2862  -15.9667 C   0  0  0  0  0  0  0  0  0  0  0  0
   18.5646  -10.5602  -15.5060 O   0  0  0  0  0  0  0  0  0  0  0  0
   22.5327   -9.3547  -14.8003 C   0  0  0  0  0  0  0  0  0  0  0  0
   21.0968   -9.5199  -15.2345 C   0  0  2  0  0  0  0  0  0  0  0  0
   20.8178  -10.8123  -15.7718 N   0  0  0  0  0  0  0  0  0  0  0  0
   20.7049   -8.4116  -16.1422 C   0  0  0  0  0  0  0  0  0  0  0  0
   20.6239   -8.5994  -17.3786 O   0  0  0  0  0  0  0  0  0  0  0  0
   16.6023   -2.1688  -20.2528 O   0  0  0  0  0  0  0  0  0  0  0  0
   17.1378   -3.1982  -19.4929 C   0  0  0  0  0  0  0  0  0  0  0  0
   17.9017   -4.2121  -20.0350 C   0  0  0  0  0  0  0  0  0  0  0  0
   18.4357   -5.2368  -19.2826 C   0  0  0  0  0  0  0  0  0  0  0  0
   18.2068   -5.2674  -17.9236 C   0  0  0  0  0  0  0  0  0  0  0  0
   18.7730   -6.3638  -17.1273 C   0  0  0  0  0  0  0  0  0  0  0  0
   20.0737   -5.9849  -16.4180 C   0  0  2  0  0  0  0  0  0  0  0  0
   20.4213   -7.1312  -15.5963 N   0  0  0  0  0  0  0  0  0  0  0  0
   19.9476   -4.7534  -15.6222 C   0  0  0  0  0  0  0  0  0  0  0  0
   20.1663   -3.6195  -16.1143 O   0  0  0  0  0  0  0  0  0  0  0  0
   17.4457   -4.2599  -17.3746 C   0  0  0  0  0  0  0  0  0  0  0  0
   16.9130   -3.2362  -18.1292 C   0  0  0  0  0  0  0  0  0  0  0  0
   19.5761   -4.7931  -14.2740 O   0  0  0  0  0  0  0  0  0  0  0  0
  2  1  1  1
  3  2  1  0
  4  2  1  0
  5  4  2  0
  7  6  1  6
  7  9  1  0
  7  8  1  0
  8  4  1  0
  9 18  1  0
 10  9  2  0
 12 22  2  0
 12 11  1  0
 13 12  1  0
 14 15  1  0
 14 13  2  0
 15 21  2  0
 16 15  1  0
 17 19  1  0
 17 16  1  1
 18 17  1  0
 19 20  2  0
 19 23  1  0
 21 22  1  0
M  END
$$$$
