AAY.pdb
     RDKit          3D

 23 23  0  0  1  0  0  0  0  0999 V2000
   28.9407  -18.0791  -14.4637 C   0  0  0  0  0  0  0  0  0  0  0  0
   27.6599  -18.5806  -15.0671 C   0  0  2  0  0  0  0  0  0  0  0  0
   27.0657  -17.6039  -15.9319 N   0  0  0  0  0  0  0  0  0  0  0  0
   26.7032  -19.0598  -14.0233 C   0  0  0  0  0  0  0  0  0  0  0  0
   26.1157  -18.2583  -13.2410 O   0  0  0  0  0  0  0  0  0  0  0  0
   24.7930  -22.1630  -13.1864 C   0  0  0  0  0  0  0  0  0  0  0  0
   25.5511  -20.9130  -12.8113 C   0  0  2  0  0  0  0  0  0  0  0  0
   26.4024  -20.4385  -13.8538 N   0  0  0  0  0  0  0  0  0  0  0  0
   26.2600  -21.1110  -11.5213 C   0  0  0  0  0  0  0  0  0  0  0  0
   27.3480  -21.7315  -11.4813 O   0  0  0  0  0  0  0  0  0  0  0  0
   29.2255  -19.8703   -3.4138 O   0  0  0  0  0  0  0  0  0  0  0  0
   28.7171  -19.8221   -4.7034 C   0  0  0  0  0  0  0  0  0  0  0  0
   27.7472  -18.9212   -5.0944 C   0  0  0  0  0  0  0  0  0  0  0  0
   27.2396  -18.8706   -6.3755 C   0  0  0  0  0  0  0  0  0  0  0  0
   27.7104  -19.7529   -7.3242 C   0  0  0  0  0  0  0  0  0  0  0  0
   27.1628  -19.6987   -8.6858 C   0  0  0  0  0  0  0  0  0  0  0  0
   26.2364  -20.8712   -9.0103 C   0  0  2  0  0  0  0  0  0  0  0  0
   25.6932  -20.5896  -10.3277 N   0  0  0  0  0  0  0  0  0  0  0  0
   25.1778  -21.0527   -8.0042 C   0  0  0  0  0  0  0  0  0  0  0  0
   24.0453  -20.5260   -8.1296 O   0  0  0  0  0  0  0  0  0  0  0  0
   28.6780  -20.6551   -6.9425 C   0  0  0  0  0  0  0  0  0  0  0  0
   29.1839  -20.7037   -5.6608 C   0  0  0  0  0  0  0  0  0  0  0  0
   25.3889  -21.8251   -6.8570 O   0  0  0  0  0  0  0  0  0  0  0  0
  2  1  1  1
  3  2  1  0
  4  2  1  0
  5  4  2  0
  7  6  1  6
  7  9  1  0
  7  8  1  0
  8  4  1  0
  9 18  1  0
 10  9  2  0
 12 22  2  0
 12 11  1  0
 13 12  1  0
 14 15  1  0
 14 13  2  0
 15 21  2  0
 16 15  1  0
 17 19  1  0
 17 16  1  1
 18 17  1  0
 19 20  2  0
 19 23  1  0
 21 22  1  0
M  END
$$$$
