AAY.pdb
     RDKit          3D

 23 23  0  0  1  0  0  0  0  0999 V2000
   27.3408  -15.7573  -20.6041 C   0  0  0  0  0  0  0  0  0  0  0  0
   25.9429  -15.8732  -20.0668 C   0  0  2  0  0  0  0  0  0  0  0  0
   25.2580  -14.6144  -20.1011 N   0  0  0  0  0  0  0  0  0  0  0  0
   25.9199  -16.4859  -18.7035 C   0  0  0  0  0  0  0  0  0  0  0  0
   26.5673  -15.9865  -17.7386 O   0  0  0  0  0  0  0  0  0  0  0  0
   23.7486  -18.9259  -16.8746 C   0  0  0  0  0  0  0  0  0  0  0  0
   25.0436  -18.1832  -17.0967 C   0  0  2  0  0  0  0  0  0  0  0  0
   25.1711  -17.6597  -18.4182 N   0  0  0  0  0  0  0  0  0  0  0  0
   26.1953  -19.0272  -16.6878 C   0  0  0  0  0  0  0  0  0  0  0  0
   26.7950  -19.7369  -17.5287 O   0  0  0  0  0  0  0  0  0  0  0  0
   24.0283  -20.8994   -9.6959 O   0  0  0  0  0  0  0  0  0  0  0  0
   25.0040  -20.5237  -10.6072 C   0  0  0  0  0  0  0  0  0  0  0  0
   26.2350  -21.1432  -10.6867 C   0  0  0  0  0  0  0  0  0  0  0  0
   27.2073  -20.7723  -11.5914 C   0  0  0  0  0  0  0  0  0  0  0  0
   26.9567  -19.7365  -12.4658 C   0  0  0  0  0  0  0  0  0  0  0  0
   27.9974  -19.3414  -13.4238 C   0  0  0  0  0  0  0  0  0  0  0  0
   27.7229  -19.8284  -14.8472 C   0  0  2  0  0  0  0  0  0  0  0  0
   26.6140  -19.0241  -15.3304 N   0  0  0  0  0  0  0  0  0  0  0  0
   27.4269  -21.2687  -14.9066 C   0  0  0  0  0  0  0  0  0  0  0  0
   28.3353  -22.1347  -14.8842 O   0  0  0  0  0  0  0  0  0  0  0  0
   25.7313  -19.1129  -12.3932 C   0  0  0  0  0  0  0  0  0  0  0  0
   24.7608  -19.4857  -11.4876 C   0  0  0  0  0  0  0  0  0  0  0  0
   26.1118  -21.7385  -14.9910 O   0  0  0  0  0  0  0  0  0  0  0  0
  2  1  1  1
  3  2  1  0
  4  2  1  0
  5  4  2  0
  7  6  1  6
  7  9  1  0
  7  8  1  0
  8  4  1  0
  9 18  1  0
 10  9  2  0
 12 22  2  0
 12 11  1  0
 13 12  1  0
 14 15  1  0
 14 13  2  0
 15 21  2  0
 16 15  1  0
 17 19  1  0
 17 16  1  1
 18 17  1  0
 19 20  2  0
 19 23  1  0
 21 22  1  0
M  END
$$$$
