AAY.pdb
     RDKit          3D

 23 23  0  0  1  0  0  0  0  0999 V2000
   18.4865  -10.5008  -17.1043 C   0  0  0  0  0  0  0  0  0  0  0  0
   19.8623  -10.5156  -17.7070 C   0  0  2  0  0  0  0  0  0  0  0  0
   20.6395  -11.6181  -17.2217 N   0  0  0  0  0  0  0  0  0  0  0  0
   20.5657   -9.2100  -17.5204 C   0  0  0  0  0  0  0  0  0  0  0  0
   21.1130   -8.9000  -16.4232 O   0  0  0  0  0  0  0  0  0  0  0  0
   21.5212   -6.2513  -19.6921 C   0  0  0  0  0  0  0  0  0  0  0  0
   21.3311   -7.0015  -18.3963 C   0  0  2  0  0  0  0  0  0  0  0  0
   20.6575   -8.2485  -18.5630 N   0  0  0  0  0  0  0  0  0  0  0  0
   20.6928   -6.1222  -17.3838 C   0  0  0  0  0  0  0  0  0  0  0  0
   19.4473   -6.1090  -17.2464 O   0  0  0  0  0  0  0  0  0  0  0  0
   18.9654   -9.1367  -11.7178 O   0  0  0  0  0  0  0  0  0  0  0  0
   19.6113   -8.0757  -12.3348 C   0  0  0  0  0  0  0  0  0  0  0  0
   18.9673   -6.9056  -12.6835 C   0  0  0  0  0  0  0  0  0  0  0  0
   19.6063   -5.8488  -13.2969 C   0  0  0  0  0  0  0  0  0  0  0  0
   20.9511   -5.9467  -13.5835 C   0  0  0  0  0  0  0  0  0  0  0  0
   21.6261   -4.8207  -14.2419 C   0  0  0  0  0  0  0  0  0  0  0  0
   20.9632   -4.4051  -15.5558 C   0  0  2  0  0  0  0  0  0  0  0  0
   21.5081   -5.2925  -16.5685 N   0  0  0  0  0  0  0  0  0  0  0  0
   21.1916   -2.9885  -15.8828 C   0  0  0  0  0  0  0  0  0  0  0  0
   21.9758   -2.6363  -16.7975 O   0  0  0  0  0  0  0  0  0  0  0  0
   21.6011   -7.1106  -13.2392 C   0  0  0  0  0  0  0  0  0  0  0  0
   20.9599   -8.1658  -12.6258 C   0  0  0  0  0  0  0  0  0  0  0  0
   20.5405   -1.9663  -15.1840 O   0  0  0  0  0  0  0  0  0  0  0  0
  2  1  1  1
  3  2  1  0
  4  2  1  0
  5  4  2  0
  7  6  1  6
  7  9  1  0
  7  8  1  0
  8  4  1  0
  9 18  1  0
 10  9  2  0
 12 22  2  0
 12 11  1  0
 13 12  1  0
 14 15  1  0
 14 13  2  0
 15 21  2  0
 16 15  1  0
 17 19  1  0
 17 16  1  1
 18 17  1  0
 19 20  2  0
 19 23  1  0
 21 22  1  0
M  END
$$$$
