AAY.pdb
     RDKit          3D

 23 23  0  0  1  0  0  0  0  0999 V2000
   19.4532  -16.8810  -14.0867 C   0  0  0  0  0  0  0  0  0  0  0  0
   20.8878  -17.1298  -14.4557 C   0  0  2  0  0  0  0  0  0  0  0  0
   21.0524  -17.2655  -15.8733 N   0  0  0  0  0  0  0  0  0  0  0  0
   21.4599  -18.2935  -13.7121 C   0  0  0  0  0  0  0  0  0  0  0  0
   21.5646  -18.2912  -12.4517 O   0  0  0  0  0  0  0  0  0  0  0  0
   22.1755  -21.8985  -14.2870 C   0  0  0  0  0  0  0  0  0  0  0  0
   22.5121  -20.5568  -13.6833 C   0  0  2  0  0  0  0  0  0  0  0  0
   21.9162  -19.4625  -14.3791 N   0  0  0  0  0  0  0  0  0  0  0  0
   23.9826  -20.4196  -13.5266 C   0  0  0  0  0  0  0  0  0  0  0  0
   24.6384  -19.6771  -14.2941 O   0  0  0  0  0  0  0  0  0  0  0  0
   27.6119  -18.8428   -6.5782 O   0  0  0  0  0  0  0  0  0  0  0  0
   27.3010  -19.6169   -7.6862 C   0  0  0  0  0  0  0  0  0  0  0  0
   26.0558  -20.1790   -7.8833 C   0  0  0  0  0  0  0  0  0  0  0  0
   25.7432  -20.9490   -8.9837 C   0  0  0  0  0  0  0  0  0  0  0  0
   26.7061  -21.1794   -9.9427 C   0  0  0  0  0  0  0  0  0  0  0  0
   26.3702  -22.0047  -11.1101 C   0  0  0  0  0  0  0  0  0  0  0  0
   26.0899  -21.1830  -12.3690 C   0  0  2  0  0  0  0  0  0  0  0  0
   24.6435  -21.1394  -12.4956 N   0  0  0  0  0  0  0  0  0  0  0  0
   26.7320  -21.7455  -13.5678 C   0  0  0  0  0  0  0  0  0  0  0  0
   26.2174  -22.6896  -14.2156 O   0  0  0  0  0  0  0  0  0  0  0  0
   27.9512  -20.6225   -9.7539 C   0  0  0  0  0  0  0  0  0  0  0  0
   28.2612  -19.8529   -8.6527 C   0  0  0  0  0  0  0  0  0  0  0  0
   27.9515  -21.2492  -14.0408 O   0  0  0  0  0  0  0  0  0  0  0  0
  2  1  1  6
  3  2  1  0
  4  2  1  0
  5  4  2  0
  7  6  1  6
  7  9  1  0
  7  8  1  0
  8  4  1  0
  9 18  1  0
 10  9  2  0
 12 22  2  0
 12 11  1  0
 13 12  1  0
 14 15  1  0
 14 13  2  0
 15 21  2  0
 16 15  1  0
 17 19  1  0
 17 16  1  1
 18 17  1  0
 19 20  2  0
 19 23  1  0
 21 22  1  0
M  END
$$$$
