AAY.pdb
     RDKit          3D

 23 23  0  0  1  0  0  0  0  0999 V2000
   23.5650  -12.6442  -17.9732 C   0  0  0  0  0  0  0  0  0  0  0  0
   24.2460  -13.5579  -18.9518 C   0  0  2  0  0  0  0  0  0  0  0  0
   23.8042  -13.3174  -20.2941 N   0  0  0  0  0  0  0  0  0  0  0  0
   24.1026  -14.9944  -18.5644 C   0  0  0  0  0  0  0  0  0  0  0  0
   22.9964  -15.6008  -18.6552 O   0  0  0  0  0  0  0  0  0  0  0  0
   26.3780  -17.7894  -17.3819 C   0  0  0  0  0  0  0  0  0  0  0  0
   25.0567  -17.1054  -17.6347 C   0  0  2  0  0  0  0  0  0  0  0  0
   25.1985  -15.7550  -18.0741 N   0  0  0  0  0  0  0  0  0  0  0  0
   24.1719  -17.2455  -16.4501 C   0  0  0  0  0  0  0  0  0  0  0  0
   24.1480  -16.3589  -15.5647 O   0  0  0  0  0  0  0  0  0  0  0  0
   17.1831  -17.6734  -11.6024 O   0  0  0  0  0  0  0  0  0  0  0  0
   18.2384  -17.5954  -12.4991 C   0  0  0  0  0  0  0  0  0  0  0  0
   19.3325  -16.7774  -12.3010 C   0  0  0  0  0  0  0  0  0  0  0  0
   20.3834  -16.6974  -13.1902 C   0  0  0  0  0  0  0  0  0  0  0  0
   20.3582  -17.4627  -14.3364 C   0  0  0  0  0  0  0  0  0  0  0  0
   21.4771  -17.3700  -15.2832 C   0  0  0  0  0  0  0  0  0  0  0  0
   22.4104  -18.5804  -15.2342 C   0  0  2  0  0  0  0  0  0  0  0  0
   23.3492  -18.3969  -16.3273 N   0  0  0  0  0  0  0  0  0  0  0  0
   21.6876  -19.8582  -15.3361 C   0  0  0  0  0  0  0  0  0  0  0  0
   21.3410  -20.3386  -16.4428 O   0  0  0  0  0  0  0  0  0  0  0  0
   19.2704  -18.2814  -14.5419 C   0  0  0  0  0  0  0  0  0  0  0  0
   18.2209  -18.3596  -13.6512 C   0  0  0  0  0  0  0  0  0  0  0  0
   21.3532  -20.5979  -14.1967 O   0  0  0  0  0  0  0  0  0  0  0  0
  2  1  1  1
  3  2  1  0
  4  2  1  0
  5  4  2  0
  7  6  1  1
  7  9  1  0
  7  8  1  0
  8  4  1  0
  9 18  1  0
 10  9  2  0
 12 22  2  0
 12 11  1  0
 13 12  1  0
 14 15  1  0
 14 13  2  0
 15 21  2  0
 16 15  1  0
 17 19  1  0
 17 16  1  6
 18 17  1  0
 19 20  2  0
 19 23  1  0
 21 22  1  0
M  END
$$$$
