VNI.pdb
     RDKit          3D

 24 23  0  0  1  0  0  0  0  0999 V2000
    7.2590  -12.7062   20.4016 C   0  0  0  0  0  0  0  0  0  0  0  0
    8.4194  -13.3575   19.6589 C   0  0  2  0  0  0  0  0  0  0  0  0
    8.3967  -12.8130   18.2472 C   0  0  0  0  0  0  0  0  0  0  0  0
    8.2202  -14.8522   19.5776 C   0  0  2  0  0  0  0  0  0  0  0  0
    6.9871  -15.0894   18.8483 N   0  0  0  0  0  0  0  0  0  0  0  0
    8.0409  -15.4409   20.9340 C   0  0  0  0  0  0  0  0  0  0  0  0
    6.9423  -15.4509   21.5361 O   0  0  0  0  0  0  0  0  0  0  0  0
    8.3922  -18.8694   24.9785 N   0  0  0  0  0  0  0  0  0  0  0  0
    9.6090  -18.5802   24.3744 C   0  0  0  0  0  0  0  0  0  0  0  0
   10.6687  -18.9626   24.9810 O   0  0  0  0  0  0  0  0  0  0  0  0
    9.8291  -17.8780   23.1047 C   0  0  0  0  0  0  0  0  0  0  0  0
    9.0408  -16.6349   22.9210 C   0  0  2  0  0  0  0  0  0  0  0  0
    9.1480  -16.0395   21.6314 N   0  0  0  0  0  0  0  0  0  0  0  0
    9.4415  -15.6821   24.0175 C   0  0  0  0  0  0  0  0  0  0  0  0
   10.4945  -14.9975   23.9466 O   0  0  0  0  0  0  0  0  0  0  0  0
    6.0177  -12.2946   25.7320 C   0  0  0  0  0  0  0  0  0  0  0  0
    7.3205  -12.9621   25.3461 C   0  0  0  0  0  0  0  0  0  0  0  0
    7.8057  -13.7398   26.5247 C   0  0  2  0  0  0  0  0  0  0  0  0
    8.0397  -12.8062   27.6892 C   0  0  0  0  0  0  0  0  0  0  0  0
    9.0146  -14.5960   26.2532 C   0  0  2  0  0  0  0  0  0  0  0  0
    8.6403  -15.5204   25.1789 N   0  0  0  0  0  0  0  0  0  0  0  0
    9.4384  -15.3572   27.4507 C   0  0  0  0  0  0  0  0  0  0  0  0
   10.1585  -14.8946   28.3668 O   0  0  0  0  0  0  0  0  0  0  0  0
    9.0145  -16.6693   27.5734 O   0  0  0  0  0  0  0  0  0  0  0  0
  2  1  1  1
  2  3  1  0
  2  4  1  0
  4  6  1  0
  4  5  1  6
  6 13  1  0
  6  7  2  0
  9 10  2  0
  9  8  1  0
 11  9  1  0
 12 11  1  6
 12 14  1  0
 13 12  1  0
 14 15  2  0
 17 16  1  0
 18 17  1  0
 18 20  1  0
 18 19  1  1
 20 21  1  6
 21 14  1  0
 22 24  1  0
 22 20  1  0
 23 22  2  0
M  END
$$$$
