VNI.pdb
     RDKit          3D

 24 23  0  0  1  0  0  0  0  0999 V2000
    8.0572  -12.9075   20.2148 C   0  0  0  0  0  0  0  0  0  0  0  0
    8.7581  -13.6627   19.0920 C   0  0  2  0  0  0  0  0  0  0  0  0
    8.0922  -13.2431   17.7996 C   0  0  0  0  0  0  0  0  0  0  0  0
    8.5551  -15.1506   19.2511 C   0  0  2  0  0  0  0  0  0  0  0  0
    8.0725  -15.6636   17.9812 N   0  0  0  0  0  0  0  0  0  0  0  0
    7.5014  -15.4399   20.2633 C   0  0  0  0  0  0  0  0  0  0  0  0
    6.4344  -16.0366   19.9893 O   0  0  0  0  0  0  0  0  0  0  0  0
    5.9754  -18.2510   23.6032 N   0  0  0  0  0  0  0  0  0  0  0  0
    7.1932  -18.3898   22.9498 C   0  0  0  0  0  0  0  0  0  0  0  0
    7.6234  -19.5800   22.7612 O   0  0  0  0  0  0  0  0  0  0  0  0
    8.0592  -17.3195   22.4420 C   0  0  0  0  0  0  0  0  0  0  0  0
    7.6025  -15.9392   22.7360 C   0  0  2  0  0  0  0  0  0  0  0  0
    7.6649  -15.0374   21.6350 N   0  0  0  0  0  0  0  0  0  0  0  0
    8.3976  -15.4442   23.9165 C   0  0  0  0  0  0  0  0  0  0  0  0
    9.6555  -15.4323   23.9084 O   0  0  0  0  0  0  0  0  0  0  0  0
    5.7177  -11.8886   26.9445 C   0  0  0  0  0  0  0  0  0  0  0  0
    6.7553  -12.5699   26.0781 C   0  0  0  0  0  0  0  0  0  0  0  0
    7.5470  -13.4910   26.9466 C   0  0  2  0  0  0  0  0  0  0  0  0
    8.2521  -12.6967   28.0210 C   0  0  0  0  0  0  0  0  0  0  0  0
    8.5053  -14.3823   26.2014 C   0  0  2  0  0  0  0  0  0  0  0  0
    7.7524  -14.9699   25.0894 N   0  0  0  0  0  0  0  0  0  0  0  0
    9.0538  -15.4544   27.0633 C   0  0  0  0  0  0  0  0  0  0  0  0
    8.5047  -16.5663   27.2480 O   0  0  0  0  0  0  0  0  0  0  0  0
   10.2539  -15.2200   27.7121 O   0  0  0  0  0  0  0  0  0  0  0  0
  2  1  1  1
  2  3  1  0
  2  4  1  0
  4  6  1  0
  4  5  1  6
  6 13  1  0
  6  7  2  0
  9 10  2  0
  9  8  1  0
 11  9  1  0
 12 11  1  6
 12 14  1  0
 13 12  1  0
 14 15  2  0
 17 16  1  0
 18 17  1  0
 18 20  1  0
 18 19  1  1
 20 21  1  6
 21 14  1  0
 22 24  1  0
 22 20  1  0
 23 22  2  0
M  END
$$$$
