VNI.pdb
     RDKit          3D

 24 23  0  0  1  0  0  0  0  0999 V2000
    9.3863  -12.7141   20.1277 C   0  0  0  0  0  0  0  0  0  0  0  0
    8.2865  -13.2562   19.2227 C   0  0  2  0  0  0  0  0  0  0  0  0
    6.9684  -12.9186   19.8848 C   0  0  0  0  0  0  0  0  0  0  0  0
    8.3788  -14.7602   19.1242 C   0  0  2  0  0  0  0  0  0  0  0  0
    7.2970  -15.2088   18.2658 N   0  0  0  0  0  0  0  0  0  0  0  0
    8.1675  -15.3957   20.4546 C   0  0  0  0  0  0  0  0  0  0  0  0
    7.0360  -15.5381   20.9733 O   0  0  0  0  0  0  0  0  0  0  0  0
   10.7643  -18.9008   24.7984 N   0  0  0  0  0  0  0  0  0  0  0  0
    9.7694  -18.4589   23.9358 C   0  0  0  0  0  0  0  0  0  0  0  0
    8.5567  -18.6740   24.2825 O   0  0  0  0  0  0  0  0  0  0  0  0
    9.9443  -17.7643   22.6550 C   0  0  0  0  0  0  0  0  0  0  0  0
    9.1455  -16.5253   22.4897 C   0  0  2  0  0  0  0  0  0  0  0  0
    9.2803  -15.8870   21.2233 N   0  0  0  0  0  0  0  0  0  0  0  0
    9.5041  -15.6040   23.6269 C   0  0  0  0  0  0  0  0  0  0  0  0
   10.6026  -14.9918   23.6609 O   0  0  0  0  0  0  0  0  0  0  0  0
    5.9943  -12.1944   25.4331 C   0  0  0  0  0  0  0  0  0  0  0  0
    7.2553  -12.9086   24.9956 C   0  0  0  0  0  0  0  0  0  0  0  0
    7.7635  -13.6977   26.1567 C   0  0  2  0  0  0  0  0  0  0  0  0
    8.0173  -12.7760   27.3265 C   0  0  0  0  0  0  0  0  0  0  0  0
    8.9687  -14.5487   25.8540 C   0  0  2  0  0  0  0  0  0  0  0  0
    8.6097  -15.3911   24.7094 N   0  0  0  0  0  0  0  0  0  0  0  0
    9.3551  -15.3968   27.0048 C   0  0  0  0  0  0  0  0  0  0  0  0
    8.8381  -16.5071   27.2726 O   0  0  0  0  0  0  0  0  0  0  0  0
   10.3544  -14.9389   27.8461 O   0  0  0  0  0  0  0  0  0  0  0  0
  2  1  1  1
  2  3  1  0
  2  4  1  0
  4  6  1  0
  4  5  1  6
  6 13  1  0
  6  7  2  0
  9 10  2  0
  9  8  1  0
 11  9  1  0
 12 11  1  6
 12 14  1  0
 13 12  1  0
 14 15  2  0
 17 16  1  0
 18 17  1  0
 18 20  1  0
 18 19  1  1
 20 21  1  6
 21 14  1  0
 22 24  1  0
 22 20  1  0
 23 22  2  0
M  END
$$$$
