VNI.pdb
     RDKit          3D

 24 23  0  0  1  0  0  0  0  0999 V2000
    6.5859  -14.1482   19.2129 C   0  0  0  0  0  0  0  0  0  0  0  0
    7.6798  -13.1646   19.6110 C   0  0  2  0  0  0  0  0  0  0  0  0
    8.0779  -12.4204   18.3550 C   0  0  0  0  0  0  0  0  0  0  0  0
    8.8972  -13.9049   20.1113 C   0  0  2  0  0  0  0  0  0  0  0  0
    9.2646  -14.8770   19.0971 N   0  0  0  0  0  0  0  0  0  0  0  0
    8.5844  -14.6697   21.3506 C   0  0  0  0  0  0  0  0  0  0  0  0
    7.6956  -14.3233   22.1628 O   0  0  0  0  0  0  0  0  0  0  0  0
   10.1397  -19.3377   20.7916 N   0  0  0  0  0  0  0  0  0  0  0  0
    9.3474  -18.8593   21.8273 C   0  0  0  0  0  0  0  0  0  0  0  0
    8.1288  -19.2480   21.8590 O   0  0  0  0  0  0  0  0  0  0  0  0
    9.7457  -17.9478   22.9062 C   0  0  0  0  0  0  0  0  0  0  0  0
    9.1028  -16.6113   22.8788 C   0  0  2  0  0  0  0  0  0  0  0  0
    9.3063  -15.8702   21.6793 N   0  0  0  0  0  0  0  0  0  0  0  0
    9.5780  -15.8586   24.0945 C   0  0  0  0  0  0  0  0  0  0  0  0
   10.7881  -15.5532   24.2522 O   0  0  0  0  0  0  0  0  0  0  0  0
    6.2708  -12.1791   26.0145 C   0  0  0  0  0  0  0  0  0  0  0  0
    7.4335  -13.0030   25.5036 C   0  0  0  0  0  0  0  0  0  0  0  0
    7.9892  -13.7770   26.6532 C   0  0  2  0  0  0  0  0  0  0  0  0
    8.3913  -12.8286   27.7583 C   0  0  0  0  0  0  0  0  0  0  0  0
    9.1140  -14.7110   26.2918 C   0  0  2  0  0  0  0  0  0  0  0  0
    8.6717  -15.4634   25.1141 N   0  0  0  0  0  0  0  0  0  0  0  0
    9.4398  -15.6438   27.3949 C   0  0  0  0  0  0  0  0  0  0  0  0
    8.8775  -16.7493   27.5781 O   0  0  0  0  0  0  0  0  0  0  0  0
   10.4314  -15.2767   28.2883 O   0  0  0  0  0  0  0  0  0  0  0  0
  2  1  1  6
  2  3  1  0
  2  4  1  0
  4  6  1  0
  4  5  1  6
  6 13  1  0
  6  7  2  0
  9 10  2  0
  9  8  1  0
 11  9  1  0
 12 11  1  6
 12 14  1  0
 13 12  1  0
 14 15  2  0
 17 16  1  0
 18 17  1  0
 18 20  1  0
 18 19  1  1
 20 21  1  6
 21 14  1  0
 22 24  1  0
 22 20  1  0
 23 22  2  0
M  END
$$$$
