VNI.pdb
     RDKit          3D

 24 23  0  0  1  0  0  0  0  0999 V2000
    6.3827  -14.1475   19.4295 C   0  0  0  0  0  0  0  0  0  0  0  0
    7.6427  -13.3229   19.6634 C   0  0  2  0  0  0  0  0  0  0  0  0
    8.1763  -12.9420   18.2996 C   0  0  0  0  0  0  0  0  0  0  0  0
    8.6970  -14.1559   20.3526 C   0  0  2  0  0  0  0  0  0  0  0  0
    8.9158  -15.3409   19.5424 N   0  0  0  0  0  0  0  0  0  0  0  0
    8.2209  -14.6238   21.6841 C   0  0  0  0  0  0  0  0  0  0  0  0
    7.5503  -13.9065   22.4622 O   0  0  0  0  0  0  0  0  0  0  0  0
    5.9075  -19.0339   23.0024 N   0  0  0  0  0  0  0  0  0  0  0  0
    7.2124  -18.6679   22.6983 C   0  0  0  0  0  0  0  0  0  0  0  0
    7.6608  -19.0027   21.5477 O   0  0  0  0  0  0  0  0  0  0  0  0
    8.1534  -17.9322   23.5509 C   0  0  0  0  0  0  0  0  0  0  0  0
    8.1100  -16.4554   23.4182 C   0  0  2  0  0  0  0  0  0  0  0  0
    8.5166  -15.9532   22.1486 N   0  0  0  0  0  0  0  0  0  0  0  0
    8.9311  -15.8785   24.5423 C   0  0  0  0  0  0  0  0  0  0  0  0
   10.1876  -15.8427   24.4928 O   0  0  0  0  0  0  0  0  0  0  0  0
    6.3703  -12.0558   27.3552 C   0  0  0  0  0  0  0  0  0  0  0  0
    7.3716  -12.8301   26.5248 C   0  0  0  0  0  0  0  0  0  0  0  0
    8.1344  -13.7274   27.4425 C   0  0  2  0  0  0  0  0  0  0  0  0
    8.8409  -12.9009   28.4914 C   0  0  0  0  0  0  0  0  0  0  0  0
    9.0850  -14.6675   26.7492 C   0  0  2  0  0  0  0  0  0  0  0  0
    8.3130  -15.3505   25.7069 N   0  0  0  0  0  0  0  0  0  0  0  0
    9.6653  -15.6609   27.6816 C   0  0  0  0  0  0  0  0  0  0  0  0
   10.6896  -15.4661   28.3779 O   0  0  0  0  0  0  0  0  0  0  0  0
    9.0396  -16.8902   27.7974 O   0  0  0  0  0  0  0  0  0  0  0  0
  2  1  1  6
  2  3  1  0
  2  4  1  0
  4  6  1  0
  4  5  1  6
  6 13  1  0
  6  7  2  0
  9 10  2  0
  9  8  1  0
 11  9  1  0
 12 11  1  6
 12 14  1  0
 13 12  1  0
 14 15  2  0
 17 16  1  0
 18 17  1  0
 18 20  1  0
 18 19  1  1
 20 21  1  6
 21 14  1  0
 22 24  1  0
 22 20  1  0
 23 22  2  0
M  END
$$$$
