VNI.pdb
     RDKit          3D

 24 23  0  0  1  0  0  0  0  0999 V2000
    6.5778  -14.5670   19.3830 C   0  0  0  0  0  0  0  0  0  0  0  0
    7.4715  -13.3881   19.7485 C   0  0  2  0  0  0  0  0  0  0  0  0
    7.7931  -12.6657   18.4583 C   0  0  0  0  0  0  0  0  0  0  0  0
    8.7732  -13.8766   20.3378 C   0  0  2  0  0  0  0  0  0  0  0  0
    9.3517  -14.8195   19.3972 N   0  0  0  0  0  0  0  0  0  0  0  0
    8.5383  -14.6202   21.6068 C   0  0  0  0  0  0  0  0  0  0  0  0
    7.7570  -14.2196   22.5004 O   0  0  0  0  0  0  0  0  0  0  0  0
   10.0182  -19.2145   20.8466 N   0  0  0  0  0  0  0  0  0  0  0  0
    9.2488  -18.8217   21.9342 C   0  0  0  0  0  0  0  0  0  0  0  0
    8.0428  -19.2468   21.9814 O   0  0  0  0  0  0  0  0  0  0  0  0
    9.6585  -17.9649   23.0529 C   0  0  0  0  0  0  0  0  0  0  0  0
    9.0524  -16.6112   23.0717 C   0  0  2  0  0  0  0  0  0  0  0  0
    9.2144  -15.8627   21.8704 N   0  0  0  0  0  0  0  0  0  0  0  0
    9.6104  -15.8851   24.2684 C   0  0  0  0  0  0  0  0  0  0  0  0
   10.8310  -15.5932   24.3549 O   0  0  0  0  0  0  0  0  0  0  0  0
    6.5831  -12.0738   26.2057 C   0  0  0  0  0  0  0  0  0  0  0  0
    7.7083  -12.9516   25.7005 C   0  0  0  0  0  0  0  0  0  0  0  0
    8.2351  -13.7355   26.8569 C   0  0  2  0  0  0  0  0  0  0  0  0
    8.7186  -12.7920   27.9332 C   0  0  0  0  0  0  0  0  0  0  0  0
    9.2903  -14.7477   26.4964 C   0  0  2  0  0  0  0  0  0  0  0  0
    8.7739  -15.5010   25.3499 N   0  0  0  0  0  0  0  0  0  0  0  0
    9.5834  -15.6702   27.6172 C   0  0  0  0  0  0  0  0  0  0  0  0
    8.9895  -16.7564   27.8153 O   0  0  0  0  0  0  0  0  0  0  0  0
   10.5795  -15.3156   28.5105 O   0  0  0  0  0  0  0  0  0  0  0  0
  2  1  1  6
  2  3  1  0
  2  4  1  0
  4  6  1  0
  4  5  1  6
  6 13  1  0
  6  7  2  0
  9 10  2  0
  9  8  1  0
 11  9  1  0
 12 11  1  6
 12 14  1  0
 13 12  1  0
 14 15  2  0
 17 16  1  0
 18 17  1  0
 18 20  1  0
 18 19  1  1
 20 21  1  6
 21 14  1  0
 22 24  1  0
 22 20  1  0
 23 22  2  0
M  END
$$$$
