VNI.pdb
     RDKit          3D

 24 23  0  0  1  0  0  0  0  0999 V2000
    7.5065  -15.0289   18.5011 C   0  0  0  0  0  0  0  0  0  0  0  0
    7.4002  -13.6084   19.0423 C   0  0  2  0  0  0  0  0  0  0  0  0
    7.6951  -12.6763   17.8872 C   0  0  0  0  0  0  0  0  0  0  0  0
    8.4474  -13.3694   20.1038 C   0  0  2  0  0  0  0  0  0  0  0  0
    9.7405  -13.6751   19.5181 N   0  0  0  0  0  0  0  0  0  0  0  0
    8.2628  -14.2979   21.2537 C   0  0  0  0  0  0  0  0  0  0  0  0
    7.2284  -14.3153   21.9603 O   0  0  0  0  0  0  0  0  0  0  0  0
    8.8568  -19.2403   23.9355 N   0  0  0  0  0  0  0  0  0  0  0  0
    9.8932  -18.3679   23.6288 C   0  0  0  0  0  0  0  0  0  0  0  0
   10.9131  -18.3768   24.4013 O   0  0  0  0  0  0  0  0  0  0  0  0
    9.9604  -17.4228   22.5082 C   0  0  0  0  0  0  0  0  0  0  0  0
    9.1572  -16.1863   22.6707 C   0  0  2  0  0  0  0  0  0  0  0  0
    9.2889  -15.2400   21.6141 N   0  0  0  0  0  0  0  0  0  0  0  0
    9.5133  -15.5913   24.0086 C   0  0  0  0  0  0  0  0  0  0  0  0
   10.6615  -15.7217   24.5059 O   0  0  0  0  0  0  0  0  0  0  0  0
    5.7876  -12.2198   26.8336 C   0  0  0  0  0  0  0  0  0  0  0  0
    6.5181  -13.4461   26.3295 C   0  0  0  0  0  0  0  0  0  0  0  0
    7.9778  -13.1333   26.3019 C   0  0  2  0  0  0  0  0  0  0  0  0
    8.2484  -12.0579   25.2758 C   0  0  0  0  0  0  0  0  0  0  0  0
    8.8691  -14.3294   26.0950 C   0  0  2  0  0  0  0  0  0  0  0  0
    8.5601  -14.8566   24.7625 N   0  0  0  0  0  0  0  0  0  0  0  0
    8.6432  -15.3762   27.1179 C   0  0  0  0  0  0  0  0  0  0  0  0
    8.0194  -16.4443   26.9137 O   0  0  0  0  0  0  0  0  0  0  0  0
    9.1526  -15.1678   28.3880 O   0  0  0  0  0  0  0  0  0  0  0  0
  2  1  1  6
  2  3  1  0
  2  4  1  0
  4  6  1  0
  4  5  1  6
  6 13  1  0
  6  7  2  0
  9 10  2  0
  9  8  1  0
 11  9  1  0
 12 11  1  6
 12 14  1  0
 13 12  1  0
 14 15  2  0
 17 16  1  0
 18 17  1  0
 18 20  1  0
 18 19  1  6
 20 21  1  6
 21 14  1  0
 22 24  1  0
 22 20  1  0
 23 22  2  0
M  END
$$$$
