VNI.pdb
     RDKit          3D

 24 23  0  0  1  0  0  0  0  0999 V2000
    7.3958  -12.8750   20.4883 C   0  0  0  0  0  0  0  0  0  0  0  0
    8.4936  -13.7353   19.8744 C   0  0  2  0  0  0  0  0  0  0  0  0
    8.7347  -13.2064   18.4772 C   0  0  0  0  0  0  0  0  0  0  0  0
    8.0326  -15.1679   19.7497 C   0  0  2  0  0  0  0  0  0  0  0  0
    6.9647  -15.1988   18.7662 N   0  0  0  0  0  0  0  0  0  0  0  0
    7.4538  -15.6554   21.0325 C   0  0  0  0  0  0  0  0  0  0  0  0
    6.2585  -15.4698   21.3586 O   0  0  0  0  0  0  0  0  0  0  0  0
    6.1009  -18.7335   25.3939 N   0  0  0  0  0  0  0  0  0  0  0  0
    7.4004  -18.5483   24.9400 C   0  0  0  0  0  0  0  0  0  0  0  0
    8.3449  -18.7123   25.7875 O   0  0  0  0  0  0  0  0  0  0  0  0
    7.8273  -18.1814   23.5848 C   0  0  0  0  0  0  0  0  0  0  0  0
    7.8215  -16.7281   23.2882 C   0  0  2  0  0  0  0  0  0  0  0  0
    8.2607  -16.3794   21.9787 N   0  0  0  0  0  0  0  0  0  0  0  0
    8.6376  -16.0477   24.3568 C   0  0  0  0  0  0  0  0  0  0  0  0
    9.8951  -16.0354   24.3212 O   0  0  0  0  0  0  0  0  0  0  0  0
    6.1038  -11.9004   26.6532 C   0  0  0  0  0  0  0  0  0  0  0  0
    7.1349  -12.7548   25.9471 C   0  0  0  0  0  0  0  0  0  0  0  0
    7.8408  -13.5710   26.9789 C   0  0  2  0  0  0  0  0  0  0  0  0
    8.5402  -12.6583   27.9588 C   0  0  0  0  0  0  0  0  0  0  0  0
    8.7823  -14.6053   26.4204 C   0  0  2  0  0  0  0  0  0  0  0  0
    8.0137  -15.3911   25.4507 N   0  0  0  0  0  0  0  0  0  0  0  0
    9.3240  -15.4928   27.4749 C   0  0  0  0  0  0  0  0  0  0  0  0
   10.3965  -15.2889   28.0913 O   0  0  0  0  0  0  0  0  0  0  0  0
    8.6025  -16.6263   27.8076 O   0  0  0  0  0  0  0  0  0  0  0  0
  2  1  1  6
  2  3  1  0
  2  4  1  0
  4  6  1  0
  4  5  1  6
  6 13  1  0
  6  7  2  0
  9 10  2  0
  9  8  1  0
 11  9  1  0
 12 11  1  1
 12 14  1  0
 13 12  1  0
 14 15  2  0
 17 16  1  0
 18 17  1  0
 18 20  1  0
 18 19  1  1
 20 21  1  6
 21 14  1  0
 22 24  1  0
 22 20  1  0
 23 22  2  0
M  END
$$$$
