WPS.pdb
     RDKit          3D

 28 30  0  0  1  0  0  0  0  0999 V2000
    6.2370  -17.5509   24.1010 N   0  0  0  0  0  0  0  0  0  0  0  0
    6.8259  -16.3092   23.6087 C   0  0  1  0  0  0  0  0  0  0  0  0
    7.6412  -15.7022   24.7047 C   0  0  0  0  0  0  0  0  0  0  0  0
    6.8655  -14.7983   25.5515 C   0  0  0  0  0  0  0  0  0  0  0  0
    5.5824  -14.9853   26.0492 C   0  0  0  0  0  0  0  0  0  0  0  0
    5.2222  -13.9039   26.7619 N   0  0  0  0  0  0  0  0  0  0  0  0
    6.2223  -13.0167   26.7508 C   0  0  0  0  0  0  0  0  0  0  0  0
    6.3686  -11.7641   27.3383 C   0  0  0  0  0  0  0  0  0  0  0  0
    7.5300  -11.0629   27.1812 C   0  0  0  0  0  0  0  0  0  0  0  0
    8.5755  -11.5702   26.4475 C   0  0  0  0  0  0  0  0  0  0  0  0
    8.4197  -12.8137   25.8679 C   0  0  0  0  0  0  0  0  0  0  0  0
    7.2661  -13.5442   26.0043 C   0  0  0  0  0  0  0  0  0  0  0  0
    7.5395  -16.5581   22.3402 C   0  0  0  0  0  0  0  0  0  0  0  0
    7.6001  -17.7553   21.9349 O   0  0  0  0  0  0  0  0  0  0  0  0
    8.1360  -15.5388   21.5724 N   0  0  0  0  0  0  0  0  0  0  0  0
    8.1595  -14.1372   21.9133 C   0  0  0  0  0  0  0  0  0  0  0  0
    8.1875  -13.3940   20.5868 C   0  0  0  0  0  0  0  0  0  0  0  0
    8.5963  -14.3867   19.5615 C   0  0  0  0  0  0  0  0  0  0  0  0
    8.7566  -15.6911   20.3071 C   0  0  1  0  0  0  0  0  0  0  0  0
   10.1484  -16.0975   20.2485 C   0  0  0  0  0  0  0  0  0  0  0  0
   10.9563  -15.4809   21.0267 O   0  0  0  0  0  0  0  0  0  0  0  0
   11.4016  -19.5035   20.7369 O   0  0  0  0  0  0  0  0  0  0  0  0
   12.2553  -19.0342   19.7644 C   0  0  0  0  0  0  0  0  0  0  0  0
   12.0919  -17.5515   19.5920 C   0  0  2  0  0  0  0  0  0  0  0  0
   10.7465  -17.0929   19.4397 N   0  0  0  0  0  0  0  0  0  0  0  0
   12.9933  -17.1319   18.4714 C   0  0  0  0  0  0  0  0  0  0  0  0
   14.3518  -17.3857   18.4671 O   0  0  0  0  0  0  0  0  0  0  0  0
   12.4691  -16.5253   17.5053 O   0  0  0  0  0  0  0  0  0  0  0  0
  2  1  1  1
  3  4  1  0
  3  2  1  0
  4  5  2  0
  5  6  1  0
  7  8  2  0
  7  6  1  0
  9  8  1  0
 10  9  2  0
 11 10  1  0
 11 12  2  0
 12  4  1  0
 12  7  1  0
 13  2  1  0
 14 13  2  0
 15 13  1  0
 16 15  1  0
 17 16  1  0
 18 17  1  0
 18 19  1  0
 19 15  1  0
 19 20  1  1
 20 25  1  0
 20 21  2  0
 23 22  1  0
 24 23  1  6
 25 24  1  0
 26 24  1  0
 26 27  1  0
 28 26  2  0
M  END
$$$$
