WPS.pdb
     RDKit          3D

 28 30  0  0  1  0  0  0  0  0999 V2000
    6.3986  -17.6119   24.3608 N   0  0  0  0  0  0  0  0  0  0  0  0
    6.8852  -16.3827   23.7419 C   0  0  1  0  0  0  0  0  0  0  0  0
    7.7156  -15.6434   24.7410 C   0  0  0  0  0  0  0  0  0  0  0  0
    6.9279  -14.7267   25.5625 C   0  0  0  0  0  0  0  0  0  0  0  0
    5.6581  -14.9277   26.0881 C   0  0  0  0  0  0  0  0  0  0  0  0
    5.2787  -13.8279   26.7616 N   0  0  0  0  0  0  0  0  0  0  0  0
    6.2535  -12.9151   26.6981 C   0  0  0  0  0  0  0  0  0  0  0  0
    6.3736  -11.6357   27.2312 C   0  0  0  0  0  0  0  0  0  0  0  0
    7.5126  -10.9103   27.0268 C   0  0  0  0  0  0  0  0  0  0  0  0
    8.5607  -11.4190   26.2977 C   0  0  0  0  0  0  0  0  0  0  0  0
    8.4308  -12.6892   25.7722 C   0  0  0  0  0  0  0  0  0  0  0  0
    7.3002  -13.4445   25.9571 C   0  0  0  0  0  0  0  0  0  0  0  0
    7.5485  -16.6925   22.4595 C   0  0  0  0  0  0  0  0  0  0  0  0
    7.6939  -17.9139   22.1628 O   0  0  0  0  0  0  0  0  0  0  0  0
    8.0089  -15.7059   21.5656 N   0  0  0  0  0  0  0  0  0  0  0  0
    7.8830  -14.2810   21.7525 C   0  0  0  0  0  0  0  0  0  0  0  0
    7.7966  -13.6910   20.3534 C   0  0  0  0  0  0  0  0  0  0  0  0
    8.2901  -14.7410   19.4272 C   0  0  0  0  0  0  0  0  0  0  0  0
    8.6130  -15.9293   20.3029 C   0  0  1  0  0  0  0  0  0  0  0  0
   10.0398  -16.1857   20.2391 C   0  0  0  0  0  0  0  0  0  0  0  0
   10.7891  -15.4205   20.9400 O   0  0  0  0  0  0  0  0  0  0  0  0
   11.7036  -19.6193   20.3194 O   0  0  0  0  0  0  0  0  0  0  0  0
   12.5491  -18.5451   20.4811 C   0  0  0  0  0  0  0  0  0  0  0  0
   12.1362  -17.4115   19.5872 C   0  0  2  0  0  0  0  0  0  0  0  0
   10.7288  -17.1762   19.4996 N   0  0  0  0  0  0  0  0  0  0  0  0
   12.7853  -17.6357   18.2558 C   0  0  0  0  0  0  0  0  0  0  0  0
   14.1423  -17.8538   18.1107 O   0  0  0  0  0  0  0  0  0  0  0  0
   12.0443  -17.6207   17.2425 O   0  0  0  0  0  0  0  0  0  0  0  0
  2  1  1  1
  3  4  1  0
  3  2  1  0
  4  5  2  0
  5  6  1  0
  7  8  2  0
  7  6  1  0
  9  8  1  0
 10  9  2  0
 11 10  1  0
 11 12  2  0
 12  4  1  0
 12  7  1  0
 13  2  1  0
 14 13  2  0
 15 13  1  0
 16 15  1  0
 17 16  1  0
 18 17  1  0
 18 19  1  0
 19 15  1  0
 19 20  1  1
 20 25  1  0
 20 21  2  0
 23 22  1  0
 24 23  1  1
 25 24  1  0
 26 24  1  0
 26 27  1  0
 28 26  2  0
M  END
$$$$
