WPS.pdb
     RDKit          3D

 28 30  0  0  1  0  0  0  0  0999 V2000
    6.3279  -17.0950   23.2384 N   0  0  0  0  0  0  0  0  0  0  0  0
    6.9529  -15.8434   22.8218 C   0  0  1  0  0  0  0  0  0  0  0  0
    7.8915  -15.3994   23.8971 C   0  0  0  0  0  0  0  0  0  0  0  0
    7.1999  -14.8186   25.0461 C   0  0  0  0  0  0  0  0  0  0  0  0
    6.2244  -15.4056   25.8417 C   0  0  0  0  0  0  0  0  0  0  0  0
    5.8263  -14.5248   26.7759 N   0  0  0  0  0  0  0  0  0  0  0  0
    6.5060  -13.3838   26.6229 C   0  0  0  0  0  0  0  0  0  0  0  0
    6.4888  -12.1830   27.3251 C   0  0  0  0  0  0  0  0  0  0  0  0
    7.3209  -11.1627   26.9620 C   0  0  0  0  0  0  0  0  0  0  0  0
    8.1898  -11.2930   25.9051 C   0  0  0  0  0  0  0  0  0  0  0  0
    8.1981  -12.4885   25.2143 C   0  0  0  0  0  0  0  0  0  0  0  0
    7.3746  -13.5331   25.5513 C   0  0  0  0  0  0  0  0  0  0  0  0
    7.5440  -15.9982   21.4776 C   0  0  0  0  0  0  0  0  0  0  0  0
    7.5851  -17.1668   20.9939 O   0  0  0  0  0  0  0  0  0  0  0  0
    8.0459  -14.9208   20.7216 N   0  0  0  0  0  0  0  0  0  0  0  0
    7.9874  -13.5305   21.1022 C   0  0  0  0  0  0  0  0  0  0  0  0
    7.9224  -12.7516   19.7976 C   0  0  0  0  0  0  0  0  0  0  0  0
    8.3624  -13.6866   18.7317 C   0  0  0  0  0  0  0  0  0  0  0  0
    8.6335  -14.9968   19.4338 C   0  0  1  0  0  0  0  0  0  0  0  0
   10.0465  -15.3067   19.3205 C   0  0  0  0  0  0  0  0  0  0  0  0
   10.8244  -14.7420   20.1657 O   0  0  0  0  0  0  0  0  0  0  0  0
   11.6645  -18.8310   19.0202 O   0  0  0  0  0  0  0  0  0  0  0  0
   12.3401  -17.9973   18.1580 C   0  0  0  0  0  0  0  0  0  0  0  0
   12.0627  -16.5596   18.4911 C   0  0  2  0  0  0  0  0  0  0  0  0
   10.6946  -16.1568   18.3930 N   0  0  0  0  0  0  0  0  0  0  0  0
   12.9893  -15.7241   17.6620 C   0  0  0  0  0  0  0  0  0  0  0  0
   14.3639  -15.8594   17.7075 O   0  0  0  0  0  0  0  0  0  0  0  0
   12.4715  -14.8708   16.9003 O   0  0  0  0  0  0  0  0  0  0  0  0
  2  1  1  1
  3  4  1  0
  3  2  1  0
  4  5  2  0
  5  6  1  0
  7  8  2  0
  7  6  1  0
  9  8  1  0
 10  9  2  0
 11 10  1  0
 11 12  2  0
 12  4  1  0
 12  7  1  0
 13  2  1  0
 14 13  2  0
 15 13  1  0
 16 15  1  0
 17 16  1  0
 18 17  1  0
 18 19  1  0
 19 15  1  0
 19 20  1  1
 20 25  1  0
 20 21  2  0
 23 22  1  0
 24 23  1  6
 25 24  1  0
 26 24  1  0
 26 27  1  0
 28 26  2  0
M  END
$$$$
