WPS.pdb
     RDKit          3D

 28 30  0  0  1  0  0  0  0  0999 V2000
    6.1312  -17.1484   23.6104 N   0  0  0  0  0  0  0  0  0  0  0  0
    6.7835  -15.9402   23.1147 C   0  0  1  0  0  0  0  0  0  0  0  0
    7.6917  -15.4183   24.1810 C   0  0  0  0  0  0  0  0  0  0  0  0
    6.9786  -14.6692   25.2136 C   0  0  0  0  0  0  0  0  0  0  0  0
    5.8369  -15.0476   25.9080 C   0  0  0  0  0  0  0  0  0  0  0  0
    5.4845  -14.0615   26.7511 N   0  0  0  0  0  0  0  0  0  0  0  0
    6.3541  -13.0525   26.6358 C   0  0  0  0  0  0  0  0  0  0  0  0
    6.4535  -11.8246   27.2820 C   0  0  0  0  0  0  0  0  0  0  0  0
    7.4764  -10.9709   26.9816 C   0  0  0  0  0  0  0  0  0  0  0  0
    8.4263  -11.2984   26.0438 C   0  0  0  0  0  0  0  0  0  0  0  0
    8.3178  -12.5190   25.4077 C   0  0  0  0  0  0  0  0  0  0  0  0
    7.3022  -13.3995   25.6842 C   0  0  0  0  0  0  0  0  0  0  0  0
    7.4159  -16.2089   21.8077 C   0  0  0  0  0  0  0  0  0  0  0  0
    7.3696  -17.3971   21.3752 O   0  0  0  0  0  0  0  0  0  0  0  0
    8.0481  -15.2168   21.0328 N   0  0  0  0  0  0  0  0  0  0  0  0
    8.1476  -13.8198   21.3786 C   0  0  0  0  0  0  0  0  0  0  0  0
    8.1880  -13.0726   20.0547 C   0  0  0  0  0  0  0  0  0  0  0  0
    8.5280  -14.0794   19.0181 C   0  0  0  0  0  0  0  0  0  0  0  0
    8.6369  -15.3938   19.7556 C   0  0  1  0  0  0  0  0  0  0  0  0
   10.0054  -15.8684   19.6695 C   0  0  0  0  0  0  0  0  0  0  0  0
   10.8721  -15.2424   20.3734 O   0  0  0  0  0  0  0  0  0  0  0  0
   10.8162  -19.5535   18.4297 O   0  0  0  0  0  0  0  0  0  0  0  0
   11.8546  -19.0181   19.1575 C   0  0  0  0  0  0  0  0  0  0  0  0
   11.8167  -17.5180   19.1030 C   0  0  2  0  0  0  0  0  0  0  0  0
   10.5239  -16.9406   18.9051 N   0  0  0  0  0  0  0  0  0  0  0  0
   12.8239  -17.0843   18.0824 C   0  0  0  0  0  0  0  0  0  0  0  0
   12.5162  -16.2274   17.0426 O   0  0  0  0  0  0  0  0  0  0  0  0
   13.9914  -17.5312   18.1974 O   0  0  0  0  0  0  0  0  0  0  0  0
  2  1  1  1
  3  4  1  0
  3  2  1  0
  4  5  2  0
  5  6  1  0
  7  8  2  0
  7  6  1  0
  9  8  1  0
 10  9  2  0
 11 10  1  0
 11 12  2  0
 12  4  1  0
 12  7  1  0
 13  2  1  0
 14 13  2  0
 15 13  1  0
 16 15  1  0
 17 16  1  0
 18 17  1  0
 18 19  1  0
 19 15  1  0
 19 20  1  1
 20 25  1  0
 20 21  2  0
 23 22  1  0
 24 23  1  6
 25 24  1  0
 26 24  1  0
 26 27  1  0
 28 26  2  0
M  END
$$$$
