WPS.pdb
     RDKit          3D

 28 30  0  0  1  0  0  0  0  0999 V2000
    6.7709  -18.0238   24.6056 N   0  0  0  0  0  0  0  0  0  0  0  0
    7.0039  -16.7232   23.9852 C   0  0  1  0  0  0  0  0  0  0  0  0
    7.8412  -15.8987   24.9089 C   0  0  0  0  0  0  0  0  0  0  0  0
    7.0484  -14.9730   25.7154 C   0  0  0  0  0  0  0  0  0  0  0  0
    5.7901  -15.1815   26.2650 C   0  0  0  0  0  0  0  0  0  0  0  0
    5.4002  -14.0698   26.9123 N   0  0  0  0  0  0  0  0  0  0  0  0
    6.3570  -13.1418   26.8086 C   0  0  0  0  0  0  0  0  0  0  0  0
    6.4611  -11.8458   27.3033 C   0  0  0  0  0  0  0  0  0  0  0  0
    7.5836  -11.1062   27.0617 C   0  0  0  0  0  0  0  0  0  0  0  0
    8.6305  -11.6168   26.3322 C   0  0  0  0  0  0  0  0  0  0  0  0
    8.5166  -12.9037   25.8450 C   0  0  0  0  0  0  0  0  0  0  0  0
    7.4027  -13.6735   26.0678 C   0  0  0  0  0  0  0  0  0  0  0  0
    7.5406  -16.9042   22.6215 C   0  0  0  0  0  0  0  0  0  0  0  0
    7.6363  -18.0896   22.1893 O   0  0  0  0  0  0  0  0  0  0  0  0
    7.9343  -15.8343   21.7941 N   0  0  0  0  0  0  0  0  0  0  0  0
    7.8129  -14.4341   22.1196 C   0  0  0  0  0  0  0  0  0  0  0  0
    7.6295  -13.7194   20.7898 C   0  0  0  0  0  0  0  0  0  0  0  0
    8.0661  -14.6740   19.7400 C   0  0  0  0  0  0  0  0  0  0  0  0
    8.4538  -15.9336   20.4789 C   0  0  1  0  0  0  0  0  0  0  0  0
    9.8747  -16.1658   20.2976 C   0  0  0  0  0  0  0  0  0  0  0  0
   10.6660  -15.4051   20.9559 O   0  0  0  0  0  0  0  0  0  0  0  0
   11.3702  -19.6716   19.9443 O   0  0  0  0  0  0  0  0  0  0  0  0
   12.3028  -18.6923   20.2012 C   0  0  0  0  0  0  0  0  0  0  0  0
   11.9184  -17.4090   19.5229 C   0  0  2  0  0  0  0  0  0  0  0  0
   10.5173  -17.1282   19.4829 N   0  0  0  0  0  0  0  0  0  0  0  0
   12.5632  -17.4100   18.1707 C   0  0  0  0  0  0  0  0  0  0  0  0
   13.9129  -17.6414   17.9840 O   0  0  0  0  0  0  0  0  0  0  0  0
   11.8254  -17.1890   17.1792 O   0  0  0  0  0  0  0  0  0  0  0  0
  2  1  1  1
  3  4  1  0
  3  2  1  0
  4  5  2  0
  5  6  1  0
  7  8  2  0
  7  6  1  0
  9  8  1  0
 10  9  2  0
 11 10  1  0
 11 12  2  0
 12  4  1  0
 12  7  1  0
 13  2  1  0
 14 13  2  0
 15 13  1  0
 16 15  1  0
 17 16  1  0
 18 17  1  0
 18 19  1  0
 19 15  1  0
 19 20  1  1
 20 25  1  0
 20 21  2  0
 23 22  1  0
 24 23  1  6
 25 24  1  0
 26 24  1  0
 26 27  1  0
 28 26  2  0
M  END
$$$$
