WPS.pdb
     RDKit          3D

 28 30  0  0  1  0  0  0  0  0999 V2000
    6.6175  -17.1981   25.0746 N   0  0  0  0  0  0  0  0  0  0  0  0
    7.0810  -16.0315   24.3296 C   0  0  1  0  0  0  0  0  0  0  0  0
    8.1807  -15.3790   25.1035 C   0  0  0  0  0  0  0  0  0  0  0  0
    7.6864  -14.5769   26.2207 C   0  0  0  0  0  0  0  0  0  0  0  0
    6.3900  -14.1310   26.4438 C   0  0  0  0  0  0  0  0  0  0  0  0
    6.3617  -13.3992   27.5710 N   0  0  0  0  0  0  0  0  0  0  0  0
    7.5906  -13.3508   28.0952 C   0  0  0  0  0  0  0  0  0  0  0  0
    8.0947  -12.7509   29.2447 C   0  0  0  0  0  0  0  0  0  0  0  0
    9.4166  -12.8788   29.5634 C   0  0  0  0  0  0  0  0  0  0  0  0
   10.2758  -13.5970   28.7667 C   0  0  0  0  0  0  0  0  0  0  0  0
    9.7656  -14.1876   27.6277 C   0  0  0  0  0  0  0  0  0  0  0  0
    8.4434  -14.0779   27.2772 C   0  0  0  0  0  0  0  0  0  0  0  0
    7.4132  -16.4179   22.9436 C   0  0  0  0  0  0  0  0  0  0  0  0
    7.2712  -17.6361   22.6321 O   0  0  0  0  0  0  0  0  0  0  0  0
    7.8637  -15.5049   21.9702 N   0  0  0  0  0  0  0  0  0  0  0  0
    8.0454  -14.0878   22.1703 C   0  0  0  0  0  0  0  0  0  0  0  0
    7.7959  -13.4478   20.8134 C   0  0  0  0  0  0  0  0  0  0  0  0
    7.8920  -14.5406   19.8132 C   0  0  0  0  0  0  0  0  0  0  0  0
    8.1541  -15.7953   20.6134 C   0  0  1  0  0  0  0  0  0  0  0  0
    9.4668  -16.3075   20.2671 C   0  0  0  0  0  0  0  0  0  0  0  0
   10.4711  -15.6716   20.7417 O   0  0  0  0  0  0  0  0  0  0  0  0
   10.0688  -20.1491   19.0628 O   0  0  0  0  0  0  0  0  0  0  0  0
   11.0991  -19.5213   19.7255 C   0  0  0  0  0  0  0  0  0  0  0  0
   11.0850  -18.0466   19.4428 C   0  0  2  0  0  0  0  0  0  0  0  0
    9.7972  -17.4265   19.4661 N   0  0  0  0  0  0  0  0  0  0  0  0
   11.8245  -17.8329   18.1577 C   0  0  0  0  0  0  0  0  0  0  0  0
   13.0838  -18.3514   17.9223 O   0  0  0  0  0  0  0  0  0  0  0  0
   11.2554  -17.1503   17.2708 O   0  0  0  0  0  0  0  0  0  0  0  0
  2  1  1  1
  3  4  1  0
  3  2  1  0
  4  5  2  0
  5  6  1  0
  7  8  2  0
  7  6  1  0
  9  8  1  0
 10  9  2  0
 11 10  1  0
 11 12  2  0
 12  4  1  0
 12  7  1  0
 13  2  1  0
 14 13  2  0
 15 13  1  0
 16 15  1  0
 17 16  1  0
 18 17  1  0
 18 19  1  0
 19 15  1  0
 19 20  1  1
 20 25  1  0
 20 21  2  0
 23 22  1  0
 24 23  1  6
 25 24  1  0
 26 24  1  0
 26 27  1  0
 28 26  2  0
M  END
$$$$
