QCS.pdb
     RDKit          3D

 22 21  0  0  1  0  0  0  0  0999 V2000
   17.0980  -14.7981  -15.6296 N   0  0  0  0  0  0  0  0  0  0  0  0
   16.0987  -13.8987  -16.1315 C   0  0  0  0  0  0  0  0  0  0  0  0
   15.1683  -14.3010  -16.8680 O   0  0  0  0  0  0  0  0  0  0  0  0
   16.2016  -12.4832  -15.7569 C   0  0  0  0  0  0  0  0  0  0  0  0
   17.3333  -12.1384  -14.8705 C   0  0  0  0  0  0  0  0  0  0  0  0
   18.5269  -11.5048  -15.4852 C   0  0  2  0  0  0  0  0  0  0  0  0
   19.6620  -12.3372  -15.6331 N   0  0  0  0  0  0  0  0  0  0  0  0
   18.8361  -10.2822  -14.6526 C   0  0  0  0  0  0  0  0  0  0  0  0
   19.2583  -10.4013  -13.4638 O   0  0  0  0  0  0  0  0  0  0  0  0
   18.6745   -8.9662  -15.1453 N   0  0  0  0  0  0  0  0  0  0  0  0
   18.9760   -7.7898  -14.3527 C   0  0  1  0  0  0  0  0  0  0  0  0
   20.4891   -7.6449  -14.1578 C   0  0  0  0  0  0  0  0  0  0  0  0
   21.3754   -8.2764  -15.6229 S   0  0  0  0  0  0  0  0  0  0  0  0
   18.4975   -6.5473  -14.9789 C   0  0  0  0  0  0  0  0  0  0  0  0
   18.7139   -6.3557  -16.2031 O   0  0  0  0  0  0  0  0  0  0  0  0
   15.1586   -4.4178  -13.8461 O   0  0  0  0  0  0  0  0  0  0  0  0
   16.2535   -3.6208  -14.0966 C   0  0  0  0  0  0  0  0  0  0  0  0
   17.3278   -4.3138  -14.9053 C   0  0  2  0  0  0  0  0  0  0  0  0
   17.7922   -5.5215  -14.2902 N   0  0  0  0  0  0  0  0  0  0  0  0
   18.4740   -3.3899  -15.0649 C   0  0  0  0  0  0  0  0  0  0  0  0
   18.3022   -2.1813  -15.6979 O   0  0  0  0  0  0  0  0  0  0  0  0
   19.6228   -3.6888  -14.6276 O   0  0  0  0  0  0  0  0  0  0  0  0
  1  2  1  0
  2  3  2  0
  4  5  1  0
  4  2  1  0
  6  8  1  0
  6  5  1  0
  6  7  1  1
  8 10  1  0
  9  8  2  0
 10 11  1  0
 11 14  1  0
 11 12  1  6
 13 12  1  0
 14 15  2  0
 14 19  1  0
 16 17  1  0
 18 17  1  1
 18 20  1  0
 19 18  1  0
 20 21  1  0
 22 20  2  0
M  END
$$$$
