QCS.pdb
     RDKit          3D

 22 21  0  0  1  0  0  0  0  0999 V2000
   27.4980  -13.2261  -15.1931 N   0  0  0  0  0  0  0  0  0  0  0  0
   26.7342  -12.6041  -16.2367 C   0  0  0  0  0  0  0  0  0  0  0  0
   27.2376  -11.7345  -16.9852 O   0  0  0  0  0  0  0  0  0  0  0  0
   25.3351  -13.0171  -16.4000 C   0  0  0  0  0  0  0  0  0  0  0  0
   24.3606  -11.9180  -16.5660 C   0  0  0  0  0  0  0  0  0  0  0  0
   22.9196  -12.2713  -16.6166 C   0  0  2  0  0  0  0  0  0  0  0  0
   22.5315  -13.1374  -17.6666 N   0  0  0  0  0  0  0  0  0  0  0  0
   22.1623  -10.9644  -16.6624 C   0  0  0  0  0  0  0  0  0  0  0  0
   21.8668  -10.4287  -17.7722 O   0  0  0  0  0  0  0  0  0  0  0  0
   21.7507  -10.2829  -15.4934 N   0  0  0  0  0  0  0  0  0  0  0  0
   20.9039   -9.1062  -15.5289 C   0  0  1  0  0  0  0  0  0  0  0  0
   19.7039   -9.2777  -14.5911 C   0  0  0  0  0  0  0  0  0  0  0  0
   18.6523  -10.6562  -15.1609 S   0  0  0  0  0  0  0  0  0  0  0  0
   21.6118   -7.8862  -15.1102 C   0  0  0  0  0  0  0  0  0  0  0  0
   22.4161   -7.9456  -14.1450 O   0  0  0  0  0  0  0  0  0  0  0  0
   22.5891   -3.1214  -15.8731 O   0  0  0  0  0  0  0  0  0  0  0  0
   21.9201   -4.2639  -16.2520 C   0  0  0  0  0  0  0  0  0  0  0  0
   22.1391   -5.4278  -15.3107 C   0  0  2  0  0  0  0  0  0  0  0  0
   21.4528   -6.6144  -15.7276 N   0  0  0  0  0  0  0  0  0  0  0  0
   21.6567   -5.0477  -13.9634 C   0  0  0  0  0  0  0  0  0  0  0  0
   22.4929   -4.3902  -13.0919 O   0  0  0  0  0  0  0  0  0  0  0  0
   20.4786   -5.3163  -13.5888 O   0  0  0  0  0  0  0  0  0  0  0  0
  1  2  1  0
  2  3  2  0
  4  5  1  0
  4  2  1  0
  6  8  1  0
  6  5  1  0
  6  7  1  6
  8 10  1  0
  9  8  2  0
 10 11  1  0
 11 14  1  0
 11 12  1  1
 13 12  1  0
 14 15  2  0
 14 19  1  0
 16 17  1  0
 18 17  1  6
 18 20  1  0
 19 18  1  0
 20 21  1  0
 22 20  2  0
M  END
$$$$
