QCS.pdb
     RDKit          3D

 22 21  0  0  1  0  0  0  0  0999 V2000
   20.8475  -10.5483  -17.8130 N   0  0  0  0  0  0  0  0  0  0  0  0
   19.6039  -11.2205  -18.0599 C   0  0  0  0  0  0  0  0  0  0  0  0
   19.5445  -12.2373  -18.7896 O   0  0  0  0  0  0  0  0  0  0  0  0
   18.3947  -10.6757  -17.4308 C   0  0  0  0  0  0  0  0  0  0  0  0
   18.5991   -9.4825  -16.5825 C   0  0  0  0  0  0  0  0  0  0  0  0
   18.8449   -9.6958  -15.1340 C   0  0  2  0  0  0  0  0  0  0  0  0
   17.8234  -10.3733  -14.4265 N   0  0  0  0  0  0  0  0  0  0  0  0
   19.1227   -8.3325  -14.5441 C   0  0  0  0  0  0  0  0  0  0  0  0
   18.2209   -7.7086  -13.9092 O   0  0  0  0  0  0  0  0  0  0  0  0
   20.3783   -7.6930  -14.6661 N   0  0  0  0  0  0  0  0  0  0  0  0
   20.6274   -6.3535  -14.1695 C   0  0  1  0  0  0  0  0  0  0  0  0
   22.1183   -6.1573  -13.8735 C   0  0  0  0  0  0  0  0  0  0  0  0
   22.4194   -4.4672  -13.2537 S   0  0  0  0  0  0  0  0  0  0  0  0
   20.2343   -5.3110  -15.1305 C   0  0  0  0  0  0  0  0  0  0  0  0
   20.6317   -5.3943  -16.3210 O   0  0  0  0  0  0  0  0  0  0  0  0
   17.3116   -1.5750  -16.3032 O   0  0  0  0  0  0  0  0  0  0  0  0
   17.7226   -2.5140  -15.3834 C   0  0  0  0  0  0  0  0  0  0  0  0
   19.0263   -3.1863  -15.7534 C   0  0  2  0  0  0  0  0  0  0  0  0
   19.4199   -4.1895  -14.8094 N   0  0  0  0  0  0  0  0  0  0  0  0
   20.0888   -2.1574  -15.8252 C   0  0  0  0  0  0  0  0  0  0  0  0
   20.2586   -1.4208  -16.9739 O   0  0  0  0  0  0  0  0  0  0  0  0
   20.8547   -1.9362  -14.8429 O   0  0  0  0  0  0  0  0  0  0  0  0
  1  2  1  0
  2  3  2  0
  4  5  1  0
  4  2  1  0
  6  8  1  0
  6  5  1  0
  6  7  1  1
  8 10  1  0
  9  8  2  0
 10 11  1  0
 11 14  1  0
 11 12  1  6
 13 12  1  0
 14 15  2  0
 14 19  1  0
 16 17  1  0
 18 17  1  1
 18 20  1  0
 19 18  1  0
 20 21  1  0
 22 20  2  0
M  END
$$$$
