QCS.pdb
     RDKit          3D

 22 21  0  0  1  0  0  0  0  0999 V2000
   27.0915  -16.3172  -14.4214 N   0  0  0  0  0  0  0  0  0  0  0  0
   26.4915  -16.8178  -15.6250 C   0  0  0  0  0  0  0  0  0  0  0  0
   26.6323  -18.0119  -15.9775 O   0  0  0  0  0  0  0  0  0  0  0  0
   25.7055  -15.8822  -16.4384 C   0  0  0  0  0  0  0  0  0  0  0  0
   25.5776  -14.5143  -15.8928 C   0  0  0  0  0  0  0  0  0  0  0  0
   24.2235  -13.9068  -15.8560 C   0  0  2  0  0  0  0  0  0  0  0  0
   23.4114  -14.1364  -16.9922 N   0  0  0  0  0  0  0  0  0  0  0  0
   24.4261  -12.4306  -15.6039 C   0  0  0  0  0  0  0  0  0  0  0  0
   25.1175  -12.0334  -14.6191 O   0  0  0  0  0  0  0  0  0  0  0  0
   23.8667  -11.4334  -16.4366 N   0  0  0  0  0  0  0  0  0  0  0  0
   24.0307  -10.0155  -16.1804 C   0  0  1  0  0  0  0  0  0  0  0  0
   25.0932   -9.4195  -17.1102 C   0  0  0  0  0  0  0  0  0  0  0  0
   24.5624   -9.5697  -18.8499 S   0  0  0  0  0  0  0  0  0  0  0  0
   22.7898   -9.2543  -16.3942 C   0  0  0  0  0  0  0  0  0  0  0  0
   22.0594   -9.5376  -17.3781 O   0  0  0  0  0  0  0  0  0  0  0  0
   21.7053   -5.8635  -14.0550 O   0  0  0  0  0  0  0  0  0  0  0  0
   20.7060   -6.6868  -14.5243 C   0  0  0  0  0  0  0  0  0  0  0  0
   21.1111   -7.4886  -15.7415 C   0  0  2  0  0  0  0  0  0  0  0  0
   22.3419   -8.1974  -15.5537 N   0  0  0  0  0  0  0  0  0  0  0  0
   21.2635   -6.5664  -16.8899 C   0  0  0  0  0  0  0  0  0  0  0  0
   22.4875   -6.4208  -17.4994 O   0  0  0  0  0  0  0  0  0  0  0  0
   20.2825   -5.9000  -17.3303 O   0  0  0  0  0  0  0  0  0  0  0  0
  1  2  1  0
  2  3  2  0
  4  5  1  0
  4  2  1  0
  6  8  1  0
  6  5  1  0
  6  7  1  6
  8 10  1  0
  9  8  2  0
 10 11  1  0
 11 14  1  0
 11 12  1  6
 13 12  1  0
 14 15  2  0
 14 19  1  0
 16 17  1  0
 18 17  1  1
 18 20  1  0
 19 18  1  0
 20 21  1  0
 22 20  2  0
M  END
$$$$
