QCS.pdb
     RDKit          3D

 22 21  0  0  1  0  0  0  0  0999 V2000
   15.4033  -12.5613  -13.1302 N   0  0  0  0  0  0  0  0  0  0  0  0
   15.5183  -11.1557  -13.3952 C   0  0  0  0  0  0  0  0  0  0  0  0
   16.2168  -10.7242  -14.3416 O   0  0  0  0  0  0  0  0  0  0  0  0
   14.7910  -10.2318  -12.5164 C   0  0  0  0  0  0  0  0  0  0  0  0
   15.5424   -9.0325  -12.0895 C   0  0  0  0  0  0  0  0  0  0  0  0
   16.6802   -9.2238  -11.1553 C   0  0  2  0  0  0  0  0  0  0  0  0
   16.3367   -9.4829   -9.8070 N   0  0  0  0  0  0  0  0  0  0  0  0
   17.5477   -7.9930  -11.2836 C   0  0  0  0  0  0  0  0  0  0  0  0
   17.0425   -6.8349  -11.1872 O   0  0  0  0  0  0  0  0  0  0  0  0
   18.9415   -8.0659  -11.5130 N   0  0  0  0  0  0  0  0  0  0  0  0
   19.7771   -6.8881  -11.6444 C   0  0  1  0  0  0  0  0  0  0  0  0
   21.0732   -7.0551  -10.8439 C   0  0  0  0  0  0  0  0  0  0  0  0
   22.1960   -5.6525  -11.1651 S   0  0  0  0  0  0  0  0  0  0  0  0
   20.1595   -6.6177  -13.0393 C   0  0  0  0  0  0  0  0  0  0  0  0
   20.6694   -7.5411  -13.7243 O   0  0  0  0  0  0  0  0  0  0  0  0
   19.1491   -2.9971  -15.0128 O   0  0  0  0  0  0  0  0  0  0  0  0
   19.3159   -4.1669  -15.7203 C   0  0  0  0  0  0  0  0  0  0  0  0
   20.2869   -5.1280  -15.0706 C   0  0  2  0  0  0  0  0  0  0  0  0
   19.9930   -5.3626  -13.6881 N   0  0  0  0  0  0  0  0  0  0  0  0
   21.6539   -4.5691  -15.1782 C   0  0  0  0  0  0  0  0  0  0  0  0
   22.2460   -4.4285  -16.4113 O   0  0  0  0  0  0  0  0  0  0  0  0
   22.2993   -4.2128  -14.1502 O   0  0  0  0  0  0  0  0  0  0  0  0
  1  2  1  0
  2  3  2  0
  4  5  1  0
  4  2  1  0
  6  8  1  0
  6  5  1  0
  6  7  1  1
  8 10  1  0
  9  8  2  0
 10 11  1  0
 11 14  1  0
 11 12  1  1
 13 12  1  0
 14 15  2  0
 14 19  1  0
 16 17  1  0
 18 17  1  1
 18 20  1  0
 19 18  1  0
 20 21  1  0
 22 20  2  0
M  END
$$$$
