QCS.pdb
     RDKit          3D

 22 21  0  0  1  0  0  0  0  0999 V2000
   23.7446  -20.4554   -9.7709 N   0  0  0  0  0  0  0  0  0  0  0  0
   24.9861  -20.8403   -9.1628 C   0  0  0  0  0  0  0  0  0  0  0  0
   25.0180  -21.4142   -8.0494 O   0  0  0  0  0  0  0  0  0  0  0  0
   26.2262  -20.5366   -9.8871 C   0  0  0  0  0  0  0  0  0  0  0  0
   26.0530  -19.8956  -11.2078 C   0  0  0  0  0  0  0  0  0  0  0  0
   25.6739  -20.7603  -12.3534 C   0  0  2  0  0  0  0  0  0  0  0  0
   26.5907  -21.7866  -12.6838 N   0  0  0  0  0  0  0  0  0  0  0  0
   25.4275  -19.8345  -13.5222 C   0  0  0  0  0  0  0  0  0  0  0  0
   24.6790  -18.8200  -13.3947 O   0  0  0  0  0  0  0  0  0  0  0  0
   26.0074  -20.0459  -14.7948 N   0  0  0  0  0  0  0  0  0  0  0  0
   25.7833  -19.1544  -15.9164 C   0  0  1  0  0  0  0  0  0  0  0  0
   27.1164  -18.7305  -16.5422 C   0  0  0  0  0  0  0  0  0  0  0  0
   28.2058  -18.0047  -15.2704 S   0  0  0  0  0  0  0  0  0  0  0  0
   24.9809  -19.7754  -16.9819 C   0  0  0  0  0  0  0  0  0  0  0  0
   25.2958  -20.9201  -17.3975 O   0  0  0  0  0  0  0  0  0  0  0  0
   20.9683  -18.8377  -17.8188 O   0  0  0  0  0  0  0  0  0  0  0  0
   21.7868  -19.0151  -18.9120 C   0  0  0  0  0  0  0  0  0  0  0  0
   23.0456  -19.7937  -18.5993 C   0  0  2  0  0  0  0  0  0  0  0  0
   23.8496  -19.1665  -17.5930 N   0  0  0  0  0  0  0  0  0  0  0  0
   23.8470  -19.9204  -19.8380 C   0  0  0  0  0  0  0  0  0  0  0  0
   24.7881  -18.9678  -20.1506 O   0  0  0  0  0  0  0  0  0  0  0  0
   23.6854  -20.8964  -20.6265 O   0  0  0  0  0  0  0  0  0  0  0  0
  1  2  1  0
  2  3  2  0
  4  5  1  0
  4  2  1  0
  6  8  1  0
  6  5  1  0
  6  7  1  6
  8 10  1  0
  9  8  2  0
 10 11  1  0
 11 14  1  0
 11 12  1  6
 13 12  1  0
 14 15  2  0
 14 19  1  0
 16 17  1  0
 18 17  1  6
 18 20  1  0
 19 18  1  0
 20 21  1  0
 22 20  2  0
M  END
$$$$
