QCS.pdb
     RDKit          3D

 22 21  0  0  1  0  0  0  0  0999 V2000
   18.1337  -13.8368  -15.2544 N   0  0  0  0  0  0  0  0  0  0  0  0
   18.8339  -14.6814  -16.1793 C   0  0  0  0  0  0  0  0  0  0  0  0
   18.3423  -15.7629  -16.5777 O   0  0  0  0  0  0  0  0  0  0  0  0
   20.1539  -14.2395  -16.6454 C   0  0  0  0  0  0  0  0  0  0  0  0
   20.6462  -12.9741  -16.0610 C   0  0  0  0  0  0  0  0  0  0  0  0
   21.0419  -11.8882  -16.9928 C   0  0  2  0  0  0  0  0  0  0  0  0
   21.8617  -12.2742  -18.0800 N   0  0  0  0  0  0  0  0  0  0  0  0
   21.7002  -10.8218  -16.1484 C   0  0  0  0  0  0  0  0  0  0  0  0
   21.1364  -10.3911  -15.0985 O   0  0  0  0  0  0  0  0  0  0  0  0
   22.9554  -10.2588  -16.4775 N   0  0  0  0  0  0  0  0  0  0  0  0
   23.5595   -9.1871  -15.7098 C   0  0  1  0  0  0  0  0  0  0  0  0
   25.0727   -9.1408  -15.9477 C   0  0  0  0  0  0  0  0  0  0  0  0
   25.9152  -10.3549  -14.8767 S   0  0  0  0  0  0  0  0  0  0  0  0
   23.0230   -7.8639  -16.0651 C   0  0  0  0  0  0  0  0  0  0  0  0
   23.0733   -7.4843  -17.2632 O   0  0  0  0  0  0  0  0  0  0  0  0
   20.1179   -5.9502  -13.7948 O   0  0  0  0  0  0  0  0  0  0  0  0
   20.3479   -5.6749  -15.1244 C   0  0  0  0  0  0  0  0  0  0  0  0
   21.8117   -5.7241  -15.5031 C   0  0  2  0  0  0  0  0  0  0  0  0
   22.4379   -6.9593  -15.1360 N   0  0  0  0  0  0  0  0  0  0  0  0
   22.5167   -4.6130  -14.8241 C   0  0  0  0  0  0  0  0  0  0  0  0
   22.1727   -3.3097  -15.0962 O   0  0  0  0  0  0  0  0  0  0  0  0
   23.4401   -4.8357  -13.9885 O   0  0  0  0  0  0  0  0  0  0  0  0
  1  2  1  0
  2  3  2  0
  4  5  1  0
  4  2  1  0
  6  8  1  0
  6  5  1  0
  6  7  1  6
  8 10  1  0
  9  8  2  0
 10 11  1  0
 11 14  1  0
 11 12  1  6
 13 12  1  0
 14 15  2  0
 14 19  1  0
 16 17  1  0
 18 17  1  1
 18 20  1  0
 19 18  1  0
 20 21  1  0
 22 20  2  0
M  END
$$$$
