QCS.pdb
     RDKit          3D

 22 21  0  0  1  0  0  0  0  0999 V2000
   18.2665  -13.4862  -18.4394 N   0  0  0  0  0  0  0  0  0  0  0  0
   18.4156  -12.8800  -19.7315 C   0  0  0  0  0  0  0  0  0  0  0  0
   18.0888  -13.4851  -20.7788 O   0  0  0  0  0  0  0  0  0  0  0  0
   18.9695  -11.5219  -19.7905 C   0  0  0  0  0  0  0  0  0  0  0  0
   19.3617  -10.9358  -18.4913 C   0  0  0  0  0  0  0  0  0  0  0  0
   20.7867  -11.0369  -18.0875 C   0  0  2  0  0  0  0  0  0  0  0  0
   21.2792  -12.3472  -17.8793 N   0  0  0  0  0  0  0  0  0  0  0  0
   20.9409  -10.1799  -16.8524 C   0  0  0  0  0  0  0  0  0  0  0  0
   20.0363  -10.1584  -15.9652 O   0  0  0  0  0  0  0  0  0  0  0  0
   22.0797   -9.3726  -16.6245 N   0  0  0  0  0  0  0  0  0  0  0  0
   22.2851   -8.6366  -15.3920 C   0  0  1  0  0  0  0  0  0  0  0  0
   23.6312   -9.0082  -14.7606 C   0  0  0  0  0  0  0  0  0  0  0  0
   23.4798  -10.5715  -13.8312 S   0  0  0  0  0  0  0  0  0  0  0  0
   22.2884   -7.1795  -15.5964 C   0  0  0  0  0  0  0  0  0  0  0  0
   23.0503   -6.6849  -16.4664 O   0  0  0  0  0  0  0  0  0  0  0  0
   19.3172   -4.6289  -13.9927 O   0  0  0  0  0  0  0  0  0  0  0  0
   20.0505   -4.2838  -15.1062 C   0  0  0  0  0  0  0  0  0  0  0  0
   21.4526   -4.8518  -15.1014 C   0  0  2  0  0  0  0  0  0  0  0  0
   21.4770   -6.2653  -14.8685 N   0  0  0  0  0  0  0  0  0  0  0  0
   22.2344   -4.1808  -14.0378 C   0  0  0  0  0  0  0  0  0  0  0  0
   22.7190   -4.9076  -12.9758 O   0  0  0  0  0  0  0  0  0  0  0  0
   22.4707   -2.9388  -14.0823 O   0  0  0  0  0  0  0  0  0  0  0  0
  1  2  1  0
  2  3  2  0
  4  5  1  0
  4  2  1  0
  6  8  1  0
  6  5  1  0
  6  7  1  1
  8 10  1  0
  9  8  2  0
 10 11  1  0
 11 14  1  0
 11 12  1  6
 13 12  1  0
 14 15  2  0
 14 19  1  0
 16 17  1  0
 18 17  1  1
 18 20  1  0
 19 18  1  0
 20 21  1  0
 22 20  2  0
M  END
$$$$
