FEF.pdb
     RDKit          3D

 32 33  0  0  1  0  0  0  0  0999 V2000
   27.1219  -11.6050  -20.3169 N   0  0  0  0  0  0  0  0  0  0  0  0
   26.4691  -12.1075  -19.1285 C   0  0  1  0  0  0  0  0  0  0  0  0
   27.1958  -11.7513  -17.8694 C   0  0  0  0  0  0  0  0  0  0  0  0
   28.5323  -12.3610  -17.7562 C   0  0  0  0  0  0  0  0  0  0  0  0
   29.6376  -11.5499  -17.9597 C   0  0  0  0  0  0  0  0  0  0  0  0
   30.9282  -12.0298  -17.8748 C   0  0  0  0  0  0  0  0  0  0  0  0
   31.1583  -13.3580  -17.5789 C   0  0  0  0  0  0  0  0  0  0  0  0
   30.0408  -14.1473  -17.3801 C   0  0  0  0  0  0  0  0  0  0  0  0
   28.7531  -13.6780  -17.4626 C   0  0  0  0  0  0  0  0  0  0  0  0
   25.1157  -11.4682  -19.0486 C   0  0  0  0  0  0  0  0  0  0  0  0
   24.9597  -10.3175  -19.4958 O   0  0  0  0  0  0  0  0  0  0  0  0
   24.0366  -12.1594  -18.4759 N   0  0  0  0  0  0  0  0  0  0  0  0
   22.7004  -11.6929  -18.4167 C   0  0  1  0  0  0  0  0  0  0  0  0
   21.6232  -12.7660  -18.3687 C   0  0  0  0  0  0  0  0  0  0  0  0
   20.2286  -12.2205  -18.5113 C   0  0  0  0  0  0  0  0  0  0  0  0
   19.3018  -13.4029  -18.4878 C   0  0  0  0  0  0  0  0  0  0  0  0
   19.4691  -14.3047  -19.3319 O   0  0  0  0  0  0  0  0  0  0  0  0
   22.4000  -10.6857  -17.4015 C   0  0  0  0  0  0  0  0  0  0  0  0
   22.9212  -10.8378  -16.2378 O   0  0  0  0  0  0  0  0  0  0  0  0
   18.2803  -13.5150  -17.5652 O   0  0  0  0  0  0  0  0  0  0  0  0
   21.5911   -9.5562  -17.5725 N   0  0  0  0  0  0  0  0  0  0  0  0
   21.3335   -8.5891  -16.5000 C   0  0  1  0  0  0  0  0  0  0  0  0
   22.6861   -7.9625  -16.1746 C   0  0  0  0  0  0  0  0  0  0  0  0
   22.5512   -6.8825  -15.1764 C   0  0  0  0  0  0  0  0  0  0  0  0
   22.2692   -7.1037  -13.8588 C   0  0  0  0  0  0  0  0  0  0  0  0
   22.1639   -6.0178  -13.0040 C   0  0  0  0  0  0  0  0  0  0  0  0
   22.3337   -4.7188  -13.4352 C   0  0  0  0  0  0  0  0  0  0  0  0
   22.6185   -4.4913  -14.7646 C   0  0  0  0  0  0  0  0  0  0  0  0
   22.7214   -5.5864  -15.6104 C   0  0  0  0  0  0  0  0  0  0  0  0
   20.4650   -7.4862  -16.9825 C   0  0  0  0  0  0  0  0  0  0  0  0
   20.4296   -7.2694  -18.2207 O   0  0  0  0  0  0  0  0  0  0  0  0
   19.7046   -6.6942  -16.1725 O   0  0  0  0  0  0  0  0  0  0  0  0
  2  1  1  6
  3  2  1  0
  4  5  2  0
  4  3  1  0
  6  5  1  0
  7  6  2  0
  8  7  1  0
  8  9  2  0
  9  4  1  0
 10 12  1  0
 10  2  1  0
 11 10  2  0
 13 12  1  0
 14 15  1  0
 13 14  1  1
 15 16  1  0
 16 17  2  0
 18 21  1  0
 18 13  1  0
 19 18  2  0
 20 16  1  0
 22 21  1  0
 22 30  1  0
 23 24  1  0
 22 23  1  6
 24 29  1  0
 25 24  2  0
 25 26  1  0
 26 27  2  0
 27 28  1  0
 29 28  2  0
 30 32  1  0
 31 30  2  0
M  END
$$$$
