FEF.pdb
     RDKit          3D

 32 33  0  0  1  0  0  0  0  0999 V2000
   24.4096   -8.7405  -18.2727 N   0  0  0  0  0  0  0  0  0  0  0  0
   24.0952   -7.9783  -17.0848 C   0  0  1  0  0  0  0  0  0  0  0  0
   25.3136   -7.4798  -16.3725 C   0  0  0  0  0  0  0  0  0  0  0  0
   26.1976   -8.5494  -15.8772 C   0  0  0  0  0  0  0  0  0  0  0  0
   27.4135   -8.7371  -16.5153 C   0  0  0  0  0  0  0  0  0  0  0  0
   28.3073   -9.7123  -16.1236 C   0  0  0  0  0  0  0  0  0  0  0  0
   28.0085  -10.5445  -15.0639 C   0  0  0  0  0  0  0  0  0  0  0  0
   26.7904  -10.3384  -14.4433 C   0  0  0  0  0  0  0  0  0  0  0  0
   25.8952   -9.3705  -14.8265 C   0  0  0  0  0  0  0  0  0  0  0  0
   23.3139   -6.7725  -17.5120 C   0  0  0  0  0  0  0  0  0  0  0  0
   23.5914   -6.2196  -18.5916 O   0  0  0  0  0  0  0  0  0  0  0  0
   22.2810   -6.2727  -16.7036 N   0  0  0  0  0  0  0  0  0  0  0  0
   21.3793   -5.2422  -17.0661 C   0  0  1  0  0  0  0  0  0  0  0  0
   19.9138   -5.4992  -16.7490 C   0  0  0  0  0  0  0  0  0  0  0  0
   18.9953   -4.4170  -17.2471 C   0  0  0  0  0  0  0  0  0  0  0  0
   17.6005   -4.8348  -16.8759 C   0  0  0  0  0  0  0  0  0  0  0  0
   16.7411   -4.8996  -17.7765 O   0  0  0  0  0  0  0  0  0  0  0  0
   21.7191   -3.8886  -16.6328 C   0  0  0  0  0  0  0  0  0  0  0  0
   21.7827   -3.6649  -15.3699 O   0  0  0  0  0  0  0  0  0  0  0  0
   17.2499   -5.1453  -15.5768 O   0  0  0  0  0  0  0  0  0  0  0  0
   21.9867   -2.7970  -17.4670 N   0  0  0  0  0  0  0  0  0  0  0  0
   22.3255   -1.4649  -16.9546 C   0  0  1  0  0  0  0  0  0  0  0  0
   22.7090   -0.6368  -18.1773 C   0  0  0  0  0  0  0  0  0  0  0  0
   23.2121    0.6957  -17.7870 C   0  0  0  0  0  0  0  0  0  0  0  0
   24.4837    0.9222  -17.3438 C   0  0  0  0  0  0  0  0  0  0  0  0
   24.8551    2.2131  -17.0025 C   0  0  0  0  0  0  0  0  0  0  0  0
   23.9864    3.2804  -17.0940 C   0  0  0  0  0  0  0  0  0  0  0  0
   22.7019    3.0561  -17.5410 C   0  0  0  0  0  0  0  0  0  0  0  0
   22.3421    1.7595  -17.8795 C   0  0  0  0  0  0  0  0  0  0  0  0
   21.1330   -0.8097  -16.3610 C   0  0  0  0  0  0  0  0  0  0  0  0
   21.3269    0.1121  -15.5278 O   0  0  0  0  0  0  0  0  0  0  0  0
   19.8436   -1.1413  -16.6595 O   0  0  0  0  0  0  0  0  0  0  0  0
  2  1  1  6
  3  2  1  0
  4  5  2  0
  4  3  1  0
  6  5  1  0
  7  6  2  0
  8  7  1  0
  8  9  2  0
  9  4  1  0
 10 12  1  0
 10  2  1  0
 11 10  2  0
 13 12  1  0
 14 15  1  0
 13 14  1  1
 15 16  1  0
 16 17  2  0
 18 21  1  0
 18 13  1  0
 19 18  2  0
 20 16  1  0
 22 21  1  0
 22 30  1  0
 23 24  1  0
 22 23  1  6
 24 29  1  0
 25 24  2  0
 25 26  1  0
 26 27  2  0
 27 28  1  0
 29 28  2  0
 30 32  1  0
 31 30  2  0
M  END
$$$$
