FEF.pdb
     RDKit          3D

 32 33  0  0  1  0  0  0  0  0999 V2000
   13.5894  -19.2245    2.2902 N   0  0  0  0  0  0  0  0  0  0  0  0
   14.9552  -18.7778    2.4513 C   0  0  1  0  0  0  0  0  0  0  0  0
   15.2536  -17.5270    1.6852 C   0  0  0  0  0  0  0  0  0  0  0  0
   16.6602  -17.0962    1.7661 C   0  0  0  0  0  0  0  0  0  0  0  0
   16.9315  -15.8605    2.3322 C   0  0  0  0  0  0  0  0  0  0  0  0
   18.2160  -15.3718    2.4515 C   0  0  0  0  0  0  0  0  0  0  0  0
   19.2878  -16.1154    2.0011 C   0  0  0  0  0  0  0  0  0  0  0  0
   18.9927  -17.3442    1.4404 C   0  0  0  0  0  0  0  0  0  0  0  0
   17.7176  -17.8382    1.3177 C   0  0  0  0  0  0  0  0  0  0  0  0
   15.1622  -18.4625    3.9020 C   0  0  0  0  0  0  0  0  0  0  0  0
   14.3127  -17.7802    4.5029 O   0  0  0  0  0  0  0  0  0  0  0  0
   16.3012  -18.9315    4.5751 N   0  0  0  0  0  0  0  0  0  0  0  0
   16.6640  -18.6022    5.9041 C   0  0  1  0  0  0  0  0  0  0  0  0
   16.8908  -19.7782    6.8421 C   0  0  0  0  0  0  0  0  0  0  0  0
   17.2184  -19.3652    8.2509 C   0  0  0  0  0  0  0  0  0  0  0  0
   15.9952  -19.6495    9.0759 C   0  0  0  0  0  0  0  0  0  0  0  0
   15.0545  -20.2733    8.5469 O   0  0  0  0  0  0  0  0  0  0  0  0
   17.7646  -17.6553    6.0699 C   0  0  0  0  0  0  0  0  0  0  0  0
   18.7454  -17.7303    5.2444 O   0  0  0  0  0  0  0  0  0  0  0  0
   15.8873  -19.2420   10.3910 O   0  0  0  0  0  0  0  0  0  0  0  0
   17.8581  -16.6609    7.0504 N   0  0  0  0  0  0  0  0  0  0  0  0
   18.9656  -15.7008    7.1106 C   0  0  1  0  0  0  0  0  0  0  0  0
   18.7477  -14.7446    5.9418 C   0  0  0  0  0  0  0  0  0  0  0  0
   17.6894  -13.7599    6.2439 C   0  0  0  0  0  0  0  0  0  0  0  0
   16.3732  -13.9470    5.9321 C   0  0  0  0  0  0  0  0  0  0  0  0
   15.4589  -12.9584    6.2603 C   0  0  0  0  0  0  0  0  0  0  0  0
   15.8295  -11.7897    6.8918 C   0  0  0  0  0  0  0  0  0  0  0  0
   17.1572  -11.5969    7.2083 C   0  0  0  0  0  0  0  0  0  0  0  0
   18.0628  -12.5937    6.8745 C   0  0  0  0  0  0  0  0  0  0  0  0
   18.8850  -14.8801    8.3450 C   0  0  0  0  0  0  0  0  0  0  0  0
   17.9605  -15.1369    9.1580 O   0  0  0  0  0  0  0  0  0  0  0  0
   19.7460  -13.8679    8.6544 O   0  0  0  0  0  0  0  0  0  0  0  0
  2  1  1  1
  3  2  1  0
  4  5  2  0
  4  3  1  0
  6  5  1  0
  7  6  2  0
  8  7  1  0
  8  9  2  0
  9  4  1  0
 10 12  1  0
 10  2  1  0
 11 10  2  0
 13 12  1  0
 14 15  1  0
 13 14  1  1
 15 16  1  0
 16 17  2  0
 18 21  1  0
 18 13  1  0
 19 18  2  0
 20 16  1  0
 22 21  1  0
 22 30  1  0
 23 24  1  0
 22 23  1  6
 24 29  1  0
 25 24  2  0
 25 26  1  0
 26 27  2  0
 27 28  1  0
 29 28  2  0
 30 32  1  0
 31 30  2  0
M  END
$$$$
