FEF.pdb
     RDKit          3D

 32 33  0  0  1  0  0  0  0  0999 V2000
   27.0553  -20.5550  -17.2252 N   0  0  0  0  0  0  0  0  0  0  0  0
   26.9166  -20.0487  -15.8778 C   0  0  1  0  0  0  0  0  0  0  0  0
   26.8860  -18.5535  -15.8173 C   0  0  0  0  0  0  0  0  0  0  0  0
   28.0733  -17.9058  -16.4016 C   0  0  0  0  0  0  0  0  0  0  0  0
   27.8738  -16.8810  -17.3132 C   0  0  0  0  0  0  0  0  0  0  0  0
   28.9226  -16.2151  -17.9130 C   0  0  0  0  0  0  0  0  0  0  0  0
   30.2258  -16.5584  -17.6152 C   0  0  0  0  0  0  0  0  0  0  0  0
   30.3998  -17.5831  -16.7035 C   0  0  0  0  0  0  0  0  0  0  0  0
   29.3619  -18.2511  -16.1021 C   0  0  0  0  0  0  0  0  0  0  0  0
   25.6039  -20.5355  -15.3423 C   0  0  0  0  0  0  0  0  0  0  0  0
   24.6445  -20.6774  -16.1219 O   0  0  0  0  0  0  0  0  0  0  0  0
   25.4584  -20.8280  -13.9772 N   0  0  0  0  0  0  0  0  0  0  0  0
   24.2938  -21.3585  -13.3701 C   0  0  1  0  0  0  0  0  0  0  0  0
   24.5255  -22.3103  -12.2063 C   0  0  0  0  0  0  0  0  0  0  0  0
   25.5040  -23.4095  -12.5181 C   0  0  0  0  0  0  0  0  0  0  0  0
   24.8563  -24.2764  -13.5606 C   0  0  0  0  0  0  0  0  0  0  0  0
   25.5011  -25.2426  -14.0129 O   0  0  0  0  0  0  0  0  0  0  0  0
   23.2566  -20.4019  -12.9899 C   0  0  0  0  0  0  0  0  0  0  0  0
   23.6042  -19.4035  -12.2611 O   0  0  0  0  0  0  0  0  0  0  0  0
   23.5789  -24.0329  -14.0255 O   0  0  0  0  0  0  0  0  0  0  0  0
   21.9043  -20.4649  -13.3458 N   0  0  0  0  0  0  0  0  0  0  0  0
   20.9418  -19.4085  -13.0150 C   0  0  1  0  0  0  0  0  0  0  0  0
   21.3224  -18.2150  -13.8859 C   0  0  0  0  0  0  0  0  0  0  0  0
   21.1246  -18.5115  -15.3191 C   0  0  0  0  0  0  0  0  0  0  0  0
   19.8983  -18.7069  -15.8871 C   0  0  0  0  0  0  0  0  0  0  0  0
   19.8233  -18.9799  -17.2439 C   0  0  0  0  0  0  0  0  0  0  0  0
   20.9437  -19.0618  -18.0440 C   0  0  0  0  0  0  0  0  0  0  0  0
   22.1834  -18.8652  -17.4745 C   0  0  0  0  0  0  0  0  0  0  0  0
   22.2455  -18.5927  -16.1155 C   0  0  0  0  0  0  0  0  0  0  0  0
   19.5684  -19.8018  -13.4186 C   0  0  0  0  0  0  0  0  0  0  0  0
   18.6336  -18.9984  -13.1693 O   0  0  0  0  0  0  0  0  0  0  0  0
   19.2548  -20.9749  -14.0408 O   0  0  0  0  0  0  0  0  0  0  0  0
  2  1  1  6
  3  2  1  0
  4  5  2  0
  4  3  1  0
  6  5  1  0
  7  6  2  0
  8  7  1  0
  8  9  2  0
  9  4  1  0
 10 12  1  0
 10  2  1  0
 11 10  2  0
 13 12  1  0
 14 15  1  0
 13 14  1  1
 15 16  1  0
 16 17  2  0
 18 21  1  0
 18 13  1  0
 19 18  2  0
 20 16  1  0
 22 21  1  0
 22 30  1  0
 23 24  1  0
 22 23  1  6
 24 29  1  0
 25 24  2  0
 25 26  1  0
 26 27  2  0
 27 28  1  0
 29 28  2  0
 30 32  1  0
 31 30  2  0
M  END
$$$$
