FEF.pdb
     RDKit          3D

 32 33  0  0  1  0  0  0  0  0999 V2000
   18.1915  -11.5188  -19.2111 N   0  0  0  0  0  0  0  0  0  0  0  0
   17.6653  -10.3398  -18.5599 C   0  0  1  0  0  0  0  0  0  0  0  0
   16.9524  -10.6497  -17.2808 C   0  0  0  0  0  0  0  0  0  0  0  0
   15.6512  -11.3155  -17.4662 C   0  0  0  0  0  0  0  0  0  0  0  0
   15.5115  -12.6135  -17.0008 C   0  0  0  0  0  0  0  0  0  0  0  0
   14.3325  -13.3182  -17.1287 C   0  0  0  0  0  0  0  0  0  0  0  0
   13.2376  -12.7378  -17.7361 C   0  0  0  0  0  0  0  0  0  0  0  0
   13.4007  -11.4429  -18.1922 C   0  0  0  0  0  0  0  0  0  0  0  0
   14.5703  -10.7343  -18.0691 C   0  0  0  0  0  0  0  0  0  0  0  0
   18.8255   -9.4570  -18.2116 C   0  0  0  0  0  0  0  0  0  0  0  0
   19.8559   -9.9670  -17.7354 O   0  0  0  0  0  0  0  0  0  0  0  0
   18.7508   -8.0710  -18.4201 N   0  0  0  0  0  0  0  0  0  0  0  0
   19.7926   -7.1448  -18.1685 C   0  0  1  0  0  0  0  0  0  0  0  0
   19.6428   -5.7810  -18.8254 C   0  0  0  0  0  0  0  0  0  0  0  0
   20.8437   -4.8937  -18.6427 C   0  0  0  0  0  0  0  0  0  0  0  0
   20.5551   -3.6230  -19.3909 C   0  0  0  0  0  0  0  0  0  0  0  0
   20.3749   -2.5773  -18.7368 O   0  0  0  0  0  0  0  0  0  0  0  0
   20.1756   -6.9494  -16.7718 C   0  0  0  0  0  0  0  0  0  0  0  0
   19.2650   -6.5660  -15.9517 O   0  0  0  0  0  0  0  0  0  0  0  0
   20.4851   -3.5842  -20.7695 O   0  0  0  0  0  0  0  0  0  0  0  0
   21.4521   -7.1415  -16.2307 N   0  0  0  0  0  0  0  0  0  0  0  0
   21.7693   -6.8824  -14.8221 C   0  0  1  0  0  0  0  0  0  0  0  0
   22.0363   -8.2498  -14.2002 C   0  0  0  0  0  0  0  0  0  0  0  0
   23.0816   -8.9824  -14.9429 C   0  0  0  0  0  0  0  0  0  0  0  0
   22.8831   -9.5389  -16.1739 C   0  0  0  0  0  0  0  0  0  0  0  0
   23.9326  -10.2063  -16.7855 C   0  0  0  0  0  0  0  0  0  0  0  0
   25.1732  -10.3300  -16.1958 C   0  0  0  0  0  0  0  0  0  0  0  0
   25.3777   -9.7697  -14.9531 C   0  0  0  0  0  0  0  0  0  0  0  0
   24.3195   -9.1042  -14.3512 C   0  0  0  0  0  0  0  0  0  0  0  0
   23.0321   -6.1116  -14.6995 C   0  0  0  0  0  0  0  0  0  0  0  0
   23.6585   -5.8446  -15.7568 O   0  0  0  0  0  0  0  0  0  0  0  0
   23.5562   -5.6751  -13.5179 O   0  0  0  0  0  0  0  0  0  0  0  0
  2  1  1  1
  3  2  1  0
  4  5  2  0
  4  3  1  0
  6  5  1  0
  7  6  2  0
  8  7  1  0
  8  9  2  0
  9  4  1  0
 10 12  1  0
 10  2  1  0
 11 10  2  0
 13 12  1  0
 14 15  1  0
 13 14  1  1
 15 16  1  0
 16 17  2  0
 18 21  1  0
 18 13  1  0
 19 18  2  0
 20 16  1  0
 22 21  1  0
 22 30  1  0
 23 24  1  0
 22 23  1  1
 24 29  1  0
 25 24  2  0
 25 26  1  0
 26 27  2  0
 27 28  1  0
 29 28  2  0
 30 32  1  0
 31 30  2  0
M  END
$$$$
