FEF.pdb
     RDKit          3D

 32 33  0  0  1  0  0  0  0  0999 V2000
   28.5341  -21.2337   -8.9592 N   0  0  0  0  0  0  0  0  0  0  0  0
   27.1136  -21.0632   -8.7493 C   0  0  1  0  0  0  0  0  0  0  0  0
   26.7866  -19.8561   -7.9270 C   0  0  0  0  0  0  0  0  0  0  0  0
   27.4333  -19.8399   -6.6032 C   0  0  0  0  0  0  0  0  0  0  0  0
   28.2968  -18.7954   -6.3129 C   0  0  0  0  0  0  0  0  0  0  0  0
   28.9484  -18.6945   -5.1012 C   0  0  0  0  0  0  0  0  0  0  0  0
   28.7540  -19.6506   -4.1251 C   0  0  0  0  0  0  0  0  0  0  0  0
   27.8886  -20.6825   -4.4375 C   0  0  0  0  0  0  0  0  0  0  0  0
   27.2361  -20.7907   -5.6406 C   0  0  0  0  0  0  0  0  0  0  0  0
   26.4765  -20.8642  -10.0915 C   0  0  0  0  0  0  0  0  0  0  0  0
   26.8890  -19.9524  -10.8309 O   0  0  0  0  0  0  0  0  0  0  0  0
   25.4266  -21.6968  -10.5096 N   0  0  0  0  0  0  0  0  0  0  0  0
   24.8003  -21.6547  -11.7794 C   0  0  1  0  0  0  0  0  0  0  0  0
   24.8924  -22.9269  -12.6085 C   0  0  0  0  0  0  0  0  0  0  0  0
   24.5088  -22.7306  -14.0497 C   0  0  0  0  0  0  0  0  0  0  0  0
   24.7650  -24.0389  -14.7430 C   0  0  0  0  0  0  0  0  0  0  0  0
   25.8662  -24.5965  -14.5696 O   0  0  0  0  0  0  0  0  0  0  0  0
   23.4211  -21.1733  -11.8167 C   0  0  0  0  0  0  0  0  0  0  0  0
   22.5890  -21.6819  -10.9813 O   0  0  0  0  0  0  0  0  0  0  0  0
   23.8220  -24.6330  -15.5584 O   0  0  0  0  0  0  0  0  0  0  0  0
   22.9092  -20.1999  -12.6824 N   0  0  0  0  0  0  0  0  0  0  0  0
   21.5026  -19.7833  -12.6729 C   0  0  1  0  0  0  0  0  0  0  0  0
   21.4856  -18.3717  -13.2517 C   0  0  0  0  0  0  0  0  0  0  0  0
   20.1208  -17.8076  -13.2506 C   0  0  0  0  0  0  0  0  0  0  0  0
   19.4653  -17.4199  -12.1172 C   0  0  0  0  0  0  0  0  0  0  0  0
   18.1845  -16.9018  -12.2270 C   0  0  0  0  0  0  0  0  0  0  0  0
   17.5454  -16.7627  -13.4412 C   0  0  0  0  0  0  0  0  0  0  0  0
   18.2036  -17.1528  -14.5878 C   0  0  0  0  0  0  0  0  0  0  0  0
   19.4853  -17.6700  -14.4649 C   0  0  0  0  0  0  0  0  0  0  0  0
   20.6977  -20.6244  -13.5939 C   0  0  0  0  0  0  0  0  0  0  0  0
   19.4610  -20.7053  -13.3809 O   0  0  0  0  0  0  0  0  0  0  0  0
   21.2107  -21.3139  -14.6537 O   0  0  0  0  0  0  0  0  0  0  0  0
  2  1  1  6
  3  2  1  0
  4  5  2  0
  4  3  1  0
  6  5  1  0
  7  6  2  0
  8  7  1  0
  8  9  2  0
  9  4  1  0
 10 12  1  0
 10  2  1  0
 11 10  2  0
 13 12  1  0
 14 15  1  0
 13 14  1  1
 15 16  1  0
 16 17  2  0
 18 21  1  0
 18 13  1  0
 19 18  2  0
 20 16  1  0
 22 21  1  0
 22 30  1  0
 23 24  1  0
 22 23  1  6
 24 29  1  0
 25 24  2  0
 25 26  1  0
 26 27  2  0
 27 28  1  0
 29 28  2  0
 30 32  1  0
 31 30  2  0
M  END
$$$$
