FEF.pdb
     RDKit          3D

 32 33  0  0  1  0  0  0  0  0999 V2000
   25.9734  -18.6059   -8.1030 N   0  0  0  0  0  0  0  0  0  0  0  0
   26.8354  -19.6410   -8.6290 C   0  0  1  0  0  0  0  0  0  0  0  0
   26.9727  -20.8105   -7.7050 C   0  0  0  0  0  0  0  0  0  0  0  0
   27.6851  -20.5038   -6.4523 C   0  0  0  0  0  0  0  0  0  0  0  0
   28.6280  -21.4133   -5.9998 C   0  0  0  0  0  0  0  0  0  0  0  0
   29.3451  -21.2134   -4.8384 C   0  0  0  0  0  0  0  0  0  0  0  0
   29.1387  -20.0789   -4.0801 C   0  0  0  0  0  0  0  0  0  0  0  0
   28.1937  -19.1866   -4.5513 C   0  0  0  0  0  0  0  0  0  0  0  0
   27.4756  -19.3776   -5.7057 C   0  0  0  0  0  0  0  0  0  0  0  0
   26.2125  -20.1524   -9.8928 C   0  0  0  0  0  0  0  0  0  0  0  0
   24.9973  -20.4201   -9.9065 O   0  0  0  0  0  0  0  0  0  0  0  0
   26.9908  -20.3275  -11.0478 N   0  0  0  0  0  0  0  0  0  0  0  0
   26.4876  -20.5873  -12.3461 C   0  0  1  0  0  0  0  0  0  0  0  0
   27.5100  -21.0424  -13.3765 C   0  0  0  0  0  0  0  0  0  0  0  0
   26.9150  -21.3097  -14.7320 C   0  0  0  0  0  0  0  0  0  0  0  0
   26.7655  -19.9745  -15.4049 C   0  0  0  0  0  0  0  0  0  0  0  0
   27.6828  -19.1401  -15.2780 O   0  0  0  0  0  0  0  0  0  0  0  0
   25.3171  -21.4576  -12.4357 C   0  0  0  0  0  0  0  0  0  0  0  0
   25.3887  -22.6127  -11.8793 O   0  0  0  0  0  0  0  0  0  0  0  0
   25.6500  -19.6515  -16.1522 O   0  0  0  0  0  0  0  0  0  0  0  0
   24.1093  -21.1544  -13.0747 N   0  0  0  0  0  0  0  0  0  0  0  0
   22.9665  -22.0738  -13.0994 C   0  0  1  0  0  0  0  0  0  0  0  0
   22.3893  -22.0539  -11.6872 C   0  0  0  0  0  0  0  0  0  0  0  0
   21.5634  -20.8506  -11.4617 C   0  0  0  0  0  0  0  0  0  0  0  0
   22.0785  -19.5901  -11.3594 C   0  0  0  0  0  0  0  0  0  0  0  0
   21.2143  -18.5275  -11.1473 C   0  0  0  0  0  0  0  0  0  0  0  0
   19.8500  -18.6958  -11.0353 C   0  0  0  0  0  0  0  0  0  0  0  0
   19.3261  -19.9666  -11.1380 C   0  0  0  0  0  0  0  0  0  0  0  0
   20.2013  -21.0221  -11.3503 C   0  0  0  0  0  0  0  0  0  0  0  0
   21.8992  -21.5637  -13.9963 C   0  0  0  0  0  0  0  0  0  0  0  0
   22.0575  -20.4239  -14.5035 O   0  0  0  0  0  0  0  0  0  0  0  0
   20.7606  -22.2489  -14.3057 O   0  0  0  0  0  0  0  0  0  0  0  0
  2  1  1  1
  3  2  1  0
  4  5  2  0
  4  3  1  0
  6  5  1  0
  7  6  2  0
  8  7  1  0
  8  9  2  0
  9  4  1  0
 10 12  1  0
 10  2  1  0
 11 10  2  0
 13 12  1  0
 14 15  1  0
 13 14  1  6
 15 16  1  0
 16 17  2  0
 18 21  1  0
 18 13  1  0
 19 18  2  0
 20 16  1  0
 22 21  1  0
 22 30  1  0
 23 24  1  0
 22 23  1  1
 24 29  1  0
 25 24  2  0
 25 26  1  0
 26 27  2  0
 27 28  1  0
 29 28  2  0
 30 32  1  0
 31 30  2  0
M  END
$$$$
