FEF.pdb
     RDKit          3D

 32 33  0  0  1  0  0  0  0  0999 V2000
   22.0290   -7.3464  -16.8949 N   0  0  0  0  0  0  0  0  0  0  0  0
   21.4602   -8.0834  -15.7884 C   0  0  1  0  0  0  0  0  0  0  0  0
   22.3033   -8.0230  -14.5531 C   0  0  0  0  0  0  0  0  0  0  0  0
   23.6251   -8.6574  -14.6983 C   0  0  0  0  0  0  0  0  0  0  0  0
   23.7244  -10.0185  -14.4560 C   0  0  0  0  0  0  0  0  0  0  0  0
   24.9187  -10.7002  -14.5663 C   0  0  0  0  0  0  0  0  0  0  0  0
   26.0705  -10.0317  -14.9283 C   0  0  0  0  0  0  0  0  0  0  0  0
   25.9467   -8.6751  -15.1647 C   0  0  0  0  0  0  0  0  0  0  0  0
   24.7625   -7.9888  -15.0573 C   0  0  0  0  0  0  0  0  0  0  0  0
   20.1433   -7.4521  -15.4508 C   0  0  0  0  0  0  0  0  0  0  0  0
   19.9757   -6.2394  -15.6737 O   0  0  0  0  0  0  0  0  0  0  0  0
   19.1108   -8.2199  -14.8898 N   0  0  0  0  0  0  0  0  0  0  0  0
   17.8631   -7.7188  -14.4444 C   0  0  1  0  0  0  0  0  0  0  0  0
   16.6473   -8.5702  -14.7779 C   0  0  0  0  0  0  0  0  0  0  0  0
   15.3409   -7.8523  -14.5771 C   0  0  0  0  0  0  0  0  0  0  0  0
   14.2559   -8.8321  -14.9245 C   0  0  0  0  0  0  0  0  0  0  0  0
   14.0807   -9.1226  -16.1240 O   0  0  0  0  0  0  0  0  0  0  0  0
   17.7790   -7.3159  -13.0423 C   0  0  0  0  0  0  0  0  0  0  0  0
   18.1986   -8.1460  -12.1570 O   0  0  0  0  0  0  0  0  0  0  0  0
   13.4566   -9.4129  -13.9597 O   0  0  0  0  0  0  0  0  0  0  0  0
   17.2811   -6.0996  -12.5608 N   0  0  0  0  0  0  0  0  0  0  0  0
   17.3875   -5.6939  -11.1551 C   0  0  1  0  0  0  0  0  0  0  0  0
   18.4097   -4.5614  -11.1278 C   0  0  0  0  0  0  0  0  0  0  0  0
   19.7729   -5.0622  -11.3957 C   0  0  0  0  0  0  0  0  0  0  0  0
   20.4691   -5.8559  -10.5296 C   0  0  0  0  0  0  0  0  0  0  0  0
   21.7443   -6.2719  -10.8783 C   0  0  0  0  0  0  0  0  0  0  0  0
   22.3382   -5.9135  -12.0704 C   0  0  0  0  0  0  0  0  0  0  0  0
   21.6388   -5.1125  -12.9474 C   0  0  0  0  0  0  0  0  0  0  0  0
   20.3632   -4.7025  -12.5871 C   0  0  0  0  0  0  0  0  0  0  0  0
   16.1073   -5.1155  -10.6752 C   0  0  0  0  0  0  0  0  0  0  0  0
   15.1991   -4.9224  -11.5234 O   0  0  0  0  0  0  0  0  0  0  0  0
   15.8521   -4.7806   -9.3774 O   0  0  0  0  0  0  0  0  0  0  0  0
  2  1  1  6
  3  2  1  0
  4  5  2  0
  4  3  1  0
  6  5  1  0
  7  6  2  0
  8  7  1  0
  8  9  2  0
  9  4  1  0
 10 12  1  0
 10  2  1  0
 11 10  2  0
 13 12  1  0
 14 15  1  0
 13 14  1  1
 15 16  1  0
 16 17  2  0
 18 21  1  0
 18 13  1  0
 19 18  2  0
 20 16  1  0
 22 21  1  0
 22 30  1  0
 23 24  1  0
 22 23  1  6
 24 29  1  0
 25 24  2  0
 25 26  1  0
 26 27  2  0
 27 28  1  0
 29 28  2  0
 30 32  1  0
 31 30  2  0
M  END
$$$$
