FEF.pdb
     RDKit          3D

 32 33  0  0  1  0  0  0  0  0999 V2000
   30.3667  -19.5680  -12.5063 N   0  0  0  0  0  0  0  0  0  0  0  0
   29.4443  -20.6557  -12.7453 C   0  0  1  0  0  0  0  0  0  0  0  0
   29.0152  -21.3432  -11.4868 C   0  0  0  0  0  0  0  0  0  0  0  0
   30.1329  -21.8006  -10.6429 C   0  0  0  0  0  0  0  0  0  0  0  0
   29.9572  -21.7913   -9.2682 C   0  0  0  0  0  0  0  0  0  0  0  0
   30.9456  -22.2010   -8.3973 C   0  0  0  0  0  0  0  0  0  0  0  0
   32.1611  -22.6402   -8.8815 C   0  0  0  0  0  0  0  0  0  0  0  0
   32.3129  -22.6404  -10.2556 C   0  0  0  0  0  0  0  0  0  0  0  0
   31.3348  -22.2345  -11.1294 C   0  0  0  0  0  0  0  0  0  0  0  0
   28.2110  -20.0769  -13.3703 C   0  0  0  0  0  0  0  0  0  0  0  0
   27.8380  -18.9376  -13.0367 O   0  0  0  0  0  0  0  0  0  0  0  0
   27.4851  -20.8114  -14.3210 N   0  0  0  0  0  0  0  0  0  0  0  0
   26.2744  -20.3980  -14.9291 C   0  0  1  0  0  0  0  0  0  0  0  0
   26.2818  -20.3344  -16.4490 C   0  0  0  0  0  0  0  0  0  0  0  0
   24.9906  -19.8297  -17.0329 C   0  0  0  0  0  0  0  0  0  0  0  0
   25.1908  -19.7624  -18.5206 C   0  0  0  0  0  0  0  0  0  0  0  0
   25.9841  -18.9150  -18.9748 O   0  0  0  0  0  0  0  0  0  0  0  0
   25.0557  -21.0790  -14.4974 C   0  0  0  0  0  0  0  0  0  0  0  0
   24.9214  -22.3171  -14.8106 O   0  0  0  0  0  0  0  0  0  0  0  0
   24.5256  -20.6061  -19.3883 O   0  0  0  0  0  0  0  0  0  0  0  0
   24.0064  -20.5102  -13.7662 N   0  0  0  0  0  0  0  0  0  0  0  0
   22.8266  -21.2705  -13.3397 C   0  0  1  0  0  0  0  0  0  0  0  0
   23.3105  -22.1943  -12.2260 C   0  0  0  0  0  0  0  0  0  0  0  0
   24.0886  -21.4525  -11.2134 C   0  0  0  0  0  0  0  0  0  0  0  0
   23.5243  -20.6241  -10.2861 C   0  0  0  0  0  0  0  0  0  0  0  0
   24.3462  -19.9742   -9.3788 C   0  0  0  0  0  0  0  0  0  0  0  0
   25.7161  -20.1332   -9.3774 C   0  0  0  0  0  0  0  0  0  0  0  0
   26.2897  -20.9686  -10.3119 C   0  0  0  0  0  0  0  0  0  0  0  0
   25.4565  -21.6134  -11.2147 C   0  0  0  0  0  0  0  0  0  0  0  0
   21.8134  -20.3730  -12.7302 C   0  0  0  0  0  0  0  0  0  0  0  0
   20.7695  -20.8996  -12.2671 O   0  0  0  0  0  0  0  0  0  0  0  0
   21.9403  -19.0175  -12.6399 O   0  0  0  0  0  0  0  0  0  0  0  0
  2  1  1  1
  3  2  1  0
  4  5  2  0
  4  3  1  0
  6  5  1  0
  7  6  2  0
  8  7  1  0
  8  9  2  0
  9  4  1  0
 10 12  1  0
 10  2  1  0
 11 10  2  0
 13 12  1  0
 14 15  1  0
 13 14  1  6
 15 16  1  0
 16 17  2  0
 18 21  1  0
 18 13  1  0
 19 18  2  0
 20 16  1  0
 22 21  1  0
 22 30  1  0
 23 24  1  0
 22 23  1  1
 24 29  1  0
 25 24  2  0
 25 26  1  0
 26 27  2  0
 27 28  1  0
 29 28  2  0
 30 32  1  0
 31 30  2  0
M  END
$$$$
