AAP.pdb
     RDKit          3D

 18 18  0  0  1  0  0  0  0  0999 V2000
   10.2187  -13.6507   19.9302 C   0  0  0  0  0  0  0  0  0  0  0  0
    8.7362  -13.7822   19.7308 C   0  0  2  0  0  0  0  0  0  0  0  0
    8.2260  -12.7536   18.8629 N   0  0  0  0  0  0  0  0  0  0  0  0
    8.0533  -13.7643   21.0642 C   0  0  0  0  0  0  0  0  0  0  0  0
    7.7970  -12.6517   21.5911 O   0  0  0  0  0  0  0  0  0  0  0  0
    6.3456  -16.2336   23.2691 C   0  0  0  0  0  0  0  0  0  0  0  0
    7.0118  -14.9215   23.0487 C   0  0  2  0  0  0  0  0  0  0  0  0
    7.6846  -14.9447   21.7556 N   0  0  0  0  0  0  0  0  0  0  0  0
    7.9429  -14.5219   24.1130 C   0  0  0  0  0  0  0  0  0  0  0  0
    9.1753  -14.6071   23.9019 O   0  0  0  0  0  0  0  0  0  0  0  0
    7.5249  -14.0413   25.3763 N   0  0  0  0  0  0  0  0  0  0  0  0
    6.1602  -14.0001   25.9214 C   0  0  0  0  0  0  0  0  0  0  0  0
    6.1008  -12.5347   26.3545 C   0  0  0  0  0  0  0  0  0  0  0  0
    7.4387  -12.4142   27.0837 C   0  0  0  0  0  0  0  0  0  0  0  0
    8.3276  -13.4708   26.4477 C   0  0  1  0  0  0  0  0  0  0  0  0
    8.6439  -14.5166   27.4747 C   0  0  0  0  0  0  0  0  0  0  0  0
    9.4600  -14.2687   28.3895 O   0  0  0  0  0  0  0  0  0  0  0  0
    8.0412  -15.7628   27.4252 O   0  0  0  0  0  0  0  0  0  0  0  0
  2  1  1  1
  2  3  1  0
  4  2  1  0
  4  5  2  0
  7  6  1  1
  7  8  1  0
  8  4  1  0
  9  7  1  0
 10  9  2  0
 11  9  1  0
 11 12  1  0
 12 13  1  0
 14 13  1  0
 15 14  1  0
 15 11  1  0
 15 16  1  1
 16 18  1  0
 17 16  2  0
M  END
$$$$
