AAP.pdb
     RDKit          3D

 18 18  0  0  1  0  0  0  0  0999 V2000
   10.2436  -13.3415   19.8750 C   0  0  0  0  0  0  0  0  0  0  0  0
    8.7960  -13.6973   19.6939 C   0  0  2  0  0  0  0  0  0  0  0  0
    8.1443  -12.8075   18.7692 N   0  0  0  0  0  0  0  0  0  0  0  0
    8.1151  -13.6974   21.0285 C   0  0  0  0  0  0  0  0  0  0  0  0
    7.6626  -12.6106   21.4702 O   0  0  0  0  0  0  0  0  0  0  0  0
    6.5966  -16.2150   23.2517 C   0  0  0  0  0  0  0  0  0  0  0  0
    7.2251  -14.8782   23.0719 C   0  0  2  0  0  0  0  0  0  0  0  0
    7.9595  -14.8672   21.8125 N   0  0  0  0  0  0  0  0  0  0  0  0
    8.0892  -14.4543   24.1823 C   0  0  0  0  0  0  0  0  0  0  0  0
    9.3312  -14.4513   24.0150 O   0  0  0  0  0  0  0  0  0  0  0  0
    7.5956  -14.0447   25.4433 N   0  0  0  0  0  0  0  0  0  0  0  0
    6.2032  -14.0523   25.9149 C   0  0  0  0  0  0  0  0  0  0  0  0
    6.0940  -12.6118   26.4164 C   0  0  0  0  0  0  0  0  0  0  0  0
    7.3887  -12.5076   27.2222 C   0  0  0  0  0  0  0  0  0  0  0  0
    8.3294  -13.5168   26.5837 C   0  0  1  0  0  0  0  0  0  0  0  0
    8.6093  -14.6082   27.5731 C   0  0  0  0  0  0  0  0  0  0  0  0
    8.0073  -15.7010   27.4865 O   0  0  0  0  0  0  0  0  0  0  0  0
    9.5319  -14.4229   28.5896 O   0  0  0  0  0  0  0  0  0  0  0  0
  2  1  1  1
  2  3  1  0
  4  2  1  0
  4  5  2  0
  7  6  1  1
  7  8  1  0
  8  4  1  0
  9  7  1  0
 10  9  2  0
 11  9  1  0
 11 12  1  0
 12 13  1  0
 14 13  1  0
 15 14  1  0
 15 11  1  0
 15 16  1  1
 16 18  1  0
 17 16  2  0
M  END
$$$$
