AAP.pdb
     RDKit          3D

 18 18  0  0  1  0  0  0  0  0999 V2000
   10.1390  -13.6221   19.8482 C   0  0  0  0  0  0  0  0  0  0  0  0
    8.6468  -13.6735   19.6876 C   0  0  2  0  0  0  0  0  0  0  0  0
    8.1684  -12.6082   18.8463 N   0  0  0  0  0  0  0  0  0  0  0  0
    8.0014  -13.6380   21.0392 C   0  0  0  0  0  0  0  0  0  0  0  0
    7.8707  -12.5261   21.6116 O   0  0  0  0  0  0  0  0  0  0  0  0
    6.1938  -16.0420   23.2518 C   0  0  0  0  0  0  0  0  0  0  0  0
    6.9167  -14.7623   23.0194 C   0  0  2  0  0  0  0  0  0  0  0  0
    7.5331  -14.8011   21.6988 N   0  0  0  0  0  0  0  0  0  0  0  0
    7.9105  -14.4258   24.0482 C   0  0  0  0  0  0  0  0  0  0  0  0
    9.1270  -14.5714   23.7845 O   0  0  0  0  0  0  0  0  0  0  0  0
    7.5706  -13.9417   25.3333 N   0  0  0  0  0  0  0  0  0  0  0  0
    6.2282  -13.7436   25.8989 C   0  0  0  0  0  0  0  0  0  0  0  0
    6.3643  -12.2998   26.3840 C   0  0  0  0  0  0  0  0  0  0  0  0
    7.7134  -12.3809   27.0979 C   0  0  0  0  0  0  0  0  0  0  0  0
    8.4510  -13.5200   26.4127 C   0  0  1  0  0  0  0  0  0  0  0  0
    8.6380  -14.6349   27.3977 C   0  0  0  0  0  0  0  0  0  0  0  0
    9.4831  -14.5260   28.3133 O   0  0  0  0  0  0  0  0  0  0  0  0
    7.8830  -15.7928   27.3083 O   0  0  0  0  0  0  0  0  0  0  0  0
  2  1  1  1
  2  3  1  0
  4  2  1  0
  4  5  2  0
  7  6  1  1
  7  8  1  0
  8  4  1  0
  9  7  1  0
 10  9  2  0
 11  9  1  0
 11 12  1  0
 12 13  1  0
 14 13  1  0
 15 14  1  0
 15 11  1  0
 15 16  1  1
 16 18  1  0
 17 16  2  0
M  END
$$$$
