AAP.pdb
     RDKit          3D

 18 18  0  0  1  0  0  0  0  0999 V2000
   10.3941  -13.5643   19.8779 C   0  0  0  0  0  0  0  0  0  0  0  0
    8.9254  -13.7624   19.6359 C   0  0  2  0  0  0  0  0  0  0  0  0
    8.4120  -12.8080   18.6887 N   0  0  0  0  0  0  0  0  0  0  0  0
    8.1937  -13.6887   20.9412 C   0  0  0  0  0  0  0  0  0  0  0  0
    7.9514  -12.5554   21.4290 O   0  0  0  0  0  0  0  0  0  0  0  0
    6.3560  -16.0467   23.1660 C   0  0  0  0  0  0  0  0  0  0  0  0
    7.0676  -14.7620   22.9266 C   0  0  2  0  0  0  0  0  0  0  0  0
    7.7640  -14.8389   21.6481 N   0  0  0  0  0  0  0  0  0  0  0  0
    7.9904  -14.3649   23.9992 C   0  0  0  0  0  0  0  0  0  0  0  0
    9.2243  -14.4299   23.7902 O   0  0  0  0  0  0  0  0  0  0  0  0
    7.5625  -13.9084   25.2680 N   0  0  0  0  0  0  0  0  0  0  0  0
    6.1857  -13.6772   25.7285 C   0  0  0  0  0  0  0  0  0  0  0  0
    6.3318  -12.2555   26.2721 C   0  0  0  0  0  0  0  0  0  0  0  0
    7.6134  -12.4099   27.0906 C   0  0  0  0  0  0  0  0  0  0  0  0
    8.3647  -13.5542   26.4294 C   0  0  1  0  0  0  0  0  0  0  0  0
    8.4301  -14.7055   27.3878 C   0  0  0  0  0  0  0  0  0  0  0  0
    7.6486  -15.6733   27.2576 O   0  0  0  0  0  0  0  0  0  0  0  0
    9.3501  -14.7136   28.4232 O   0  0  0  0  0  0  0  0  0  0  0  0
  2  1  1  1
  2  3  1  0
  4  2  1  0
  4  5  2  0
  7  6  1  1
  7  8  1  0
  8  4  1  0
  9  7  1  0
 10  9  2  0
 11  9  1  0
 11 12  1  0
 12 13  1  0
 14 13  1  0
 15 14  1  0
 15 11  1  0
 15 16  1  1
 16 18  1  0
 17 16  2  0
M  END
$$$$
