AAP.pdb
     RDKit          3D

 18 18  0  0  1  0  0  0  0  0999 V2000
   10.0776  -13.2344   19.9569 C   0  0  0  0  0  0  0  0  0  0  0  0
    8.6976  -13.7908   19.7548 C   0  0  2  0  0  0  0  0  0  0  0  0
    7.9442  -13.0070   18.8116 N   0  0  0  0  0  0  0  0  0  0  0  0
    7.9998  -13.8781   21.0778 C   0  0  0  0  0  0  0  0  0  0  0  0
    7.3850  -12.8653   21.4987 O   0  0  0  0  0  0  0  0  0  0  0  0
    6.9044  -16.5415   23.3947 C   0  0  0  0  0  0  0  0  0  0  0  0
    7.3174  -15.1319   23.1572 C   0  0  2  0  0  0  0  0  0  0  0  0
    8.0031  -15.0505   21.8732 N   0  0  0  0  0  0  0  0  0  0  0  0
    8.1407  -14.5477   24.2251 C   0  0  0  0  0  0  0  0  0  0  0  0
    9.3851  -14.5148   24.0800 O   0  0  0  0  0  0  0  0  0  0  0  0
    7.6048  -14.0142   25.4208 N   0  0  0  0  0  0  0  0  0  0  0  0
    6.2051  -14.0292   25.8698 C   0  0  0  0  0  0  0  0  0  0  0  0
    6.0233  -12.5459   26.1938 C   0  0  0  0  0  0  0  0  0  0  0  0
    7.2959  -12.2877   27.0000 C   0  0  0  0  0  0  0  0  0  0  0  0
    8.2922  -13.3216   26.5004 C   0  0  1  0  0  0  0  0  0  0  0  0
    8.5998  -14.2737   27.6172 C   0  0  0  0  0  0  0  0  0  0  0  0
    9.3506  -13.9195   28.5527 O   0  0  0  0  0  0  0  0  0  0  0  0
    8.0608  -15.5496   27.6286 O   0  0  0  0  0  0  0  0  0  0  0  0
  2  1  1  1
  2  3  1  0
  4  2  1  0
  4  5  2  0
  7  6  1  1
  7  8  1  0
  8  4  1  0
  9  7  1  0
 10  9  2  0
 11  9  1  0
 11 12  1  0
 12 13  1  0
 14 13  1  0
 15 14  1  0
 15 11  1  0
 15 16  1  1
 16 18  1  0
 17 16  2  0
M  END
$$$$
