AAP.pdb
     RDKit          3D

 18 18  0  0  1  0  0  0  0  0999 V2000
    8.8683  -18.8476   22.7595 C   0  0  0  0  0  0  0  0  0  0  0  0
    9.5421  -17.8171   21.8998 C   0  0  2  0  0  0  0  0  0  0  0  0
   10.9206  -18.1514   21.6558 N   0  0  0  0  0  0  0  0  0  0  0  0
    9.4091  -16.4708   22.5437 C   0  0  0  0  0  0  0  0  0  0  0  0
   10.1797  -16.1829   23.4947 O   0  0  0  0  0  0  0  0  0  0  0  0
    7.5177  -13.3144   21.9128 C   0  0  0  0  0  0  0  0  0  0  0  0
    8.2806  -14.2301   22.8036 C   0  0  2  0  0  0  0  0  0  0  0  0
    8.4544  -15.5102   22.1279 N   0  0  0  0  0  0  0  0  0  0  0  0
    7.6897  -14.4205   24.1356 C   0  0  0  0  0  0  0  0  0  0  0  0
    7.2098  -15.5401   24.4299 O   0  0  0  0  0  0  0  0  0  0  0  0
    7.6302  -13.4023   25.1160 N   0  0  0  0  0  0  0  0  0  0  0  0
    8.1475  -12.0292   25.0259 C   0  0  0  0  0  0  0  0  0  0  0  0
    8.9594  -11.9750   26.3206 C   0  0  0  0  0  0  0  0  0  0  0  0
    7.9452  -12.5652   27.3001 C   0  0  0  0  0  0  0  0  0  0  0  0
    7.0494  -13.4513   26.4495 C   0  0  1  0  0  0  0  0  0  0  0  0
    5.6675  -12.8695   26.4372 C   0  0  0  0  0  0  0  0  0  0  0  0
    4.8531  -13.1719   27.3369 O   0  0  0  0  0  0  0  0  0  0  0  0
    5.2762  -11.9953   25.4365 O   0  0  0  0  0  0  0  0  0  0  0  0
  2  1  1  1
  2  3  1  0
  4  2  1  0
  4  5  2  0
  7  6  1  6
  7  8  1  0
  8  4  1  0
  9  7  1  0
 10  9  2  0
 11  9  1  0
 11 12  1  0
 12 13  1  0
 14 13  1  0
 15 14  1  0
 15 11  1  0
 15 16  1  6
 16 18  1  0
 17 16  2  0
M  END
$$$$
