KWW.pdb
     RDKit          3D

 38 41  0  0  1  0  0  0  0  0999 V2000
    9.7091  -19.3066   21.1062 N   0  0  0  0  0  0  0  0  0  0  0  0
   10.5482  -18.2329   20.7347 C   0  0  1  0  0  0  0  0  0  0  0  0
   10.7146  -17.9778   19.2648 C   0  0  0  0  0  0  0  0  0  0  0  0
   10.5661  -19.1850   18.4357 C   0  0  0  0  0  0  0  0  0  0  0  0
   10.6260  -18.8999   16.9733 C   0  0  0  0  0  0  0  0  0  0  0  0
   10.2871  -20.1442   16.1961 C   0  0  0  0  0  0  0  0  0  0  0  0
   10.5284  -19.9379   14.7675 N   0  0  0  0  0  0  0  0  0  0  0  0
   10.3572  -16.9706   21.4999 C   0  0  0  0  0  0  0  0  0  0  0  0
   11.1474  -16.0208   21.2224 O   0  0  0  0  0  0  0  0  0  0  0  0
    9.3954  -16.7416   22.4887 N   0  0  0  0  0  0  0  0  0  0  0  0
    9.2143  -15.4372   23.1426 C   0  0  1  0  0  0  0  0  0  0  0  0
    7.8003  -15.0309   22.9779 C   0  0  0  0  0  0  0  0  0  0  0  0
    7.3691  -14.8139   21.6024 C   0  0  0  0  0  0  0  0  0  0  0  0
    6.4371  -15.5622   20.9182 C   0  0  0  0  0  0  0  0  0  0  0  0
    6.3118  -15.0400   19.6798 N   0  0  0  0  0  0  0  0  0  0  0  0
    7.1172  -13.9843   19.5182 C   0  0  0  0  0  0  0  0  0  0  0  0
    7.3294  -13.1500   18.4464 C   0  0  0  0  0  0  0  0  0  0  0  0
    8.2373  -12.1213   18.5540 C   0  0  0  0  0  0  0  0  0  0  0  0
    8.9264  -11.9386   19.7413 C   0  0  0  0  0  0  0  0  0  0  0  0
    8.6948  -12.7926   20.8072 C   0  0  0  0  0  0  0  0  0  0  0  0
    7.7913  -13.8356   20.7354 C   0  0  0  0  0  0  0  0  0  0  0  0
    9.7077  -15.4891   24.5408 C   0  0  0  0  0  0  0  0  0  0  0  0
    9.9798  -14.3991   25.1015 O   0  0  0  0  0  0  0  0  0  0  0  0
    9.8876  -16.6783   25.2650 N   0  0  0  0  0  0  0  0  0  0  0  0
   10.3260  -16.6233   26.6782 C   0  0  1  0  0  0  0  0  0  0  0  0
    9.1608  -16.7110   27.5804 C   0  0  0  0  0  0  0  0  0  0  0  0
    8.0341  -15.8568   27.1518 C   0  0  0  0  0  0  0  0  0  0  0  0
    6.8480  -16.2676   26.5531 C   0  0  0  0  0  0  0  0  0  0  0  0
    6.1118  -15.1881   26.2795 N   0  0  0  0  0  0  0  0  0  0  0  0
    6.7597  -14.0719   26.6732 C   0  0  0  0  0  0  0  0  0  0  0  0
    6.3974  -12.7373   26.6156 C   0  0  0  0  0  0  0  0  0  0  0  0
    7.2349  -11.7640   27.1095 C   0  0  0  0  0  0  0  0  0  0  0  0
    8.4388  -12.1433   27.6616 C   0  0  0  0  0  0  0  0  0  0  0  0
    8.7880  -13.4748   27.7123 C   0  0  0  0  0  0  0  0  0  0  0  0
    7.9539  -14.4792   27.2161 C   0  0  0  0  0  0  0  0  0  0  0  0
   11.3332  -17.6600   26.9020 C   0  0  0  0  0  0  0  0  0  0  0  0
   11.7101  -18.5972   25.9549 O   0  0  0  0  0  0  0  0  0  0  0  0
   11.9044  -17.7328   28.0159 O   0  0  0  0  0  0  0  0  0  0  0  0
  2  1  1  6
  2  3  1  0
  4  3  1  0
  4  5  1  0
  6  5  1  0
  7  6  1  0
  8  2  1  0
  9  8  2  0
 10  8  1  0
 11 12  1  1
 11 10  1  0
 12 13  1  0
 13 21  1  0
 14 13  2  0
 14 15  1  0
 15 16  1  0
 16 17  1  0
 17 18  2  0
 19 18  1  0
 20 19  2  0
 21 16  2  0
 21 20  1  0
 22 23  2  0
 22 11  1  0
 24 22  1  0
 25 24  1  0
 25 26  1  1
 27 28  2  0
 27 26  1  0
 29 28  1  0
 30 35  2  0
 30 29  1  0
 31 30  1  0
 32 33  1  0
 32 31  2  0
 33 34  2  0
 34 35  1  0
 35 27  1  0
 36 37  1  0
 36 25  1  0
 38 36  2  0
M  END
$$$$
