KWW.pdb
     RDKit          3D

 38 41  0  0  1  0  0  0  0  0999 V2000
    8.3537  -20.5632   18.6537 N   0  0  0  0  0  0  0  0  0  0  0  0
    8.2544  -19.1579   18.7540 C   0  0  1  0  0  0  0  0  0  0  0  0
    7.2434  -18.4837   17.8726 C   0  0  0  0  0  0  0  0  0  0  0  0
    7.7003  -18.2973   16.4858 C   0  0  0  0  0  0  0  0  0  0  0  0
    7.7891  -16.8629   16.0881 C   0  0  0  0  0  0  0  0  0  0  0  0
    8.1645  -16.7584   14.6337 C   0  0  0  0  0  0  0  0  0  0  0  0
    7.0898  -16.1213   13.8715 N   0  0  0  0  0  0  0  0  0  0  0  0
    8.2393  -18.6095   20.1376 C   0  0  0  0  0  0  0  0  0  0  0  0
    8.1155  -17.3536   20.2425 O   0  0  0  0  0  0  0  0  0  0  0  0
    8.3501  -19.3478   21.3199 N   0  0  0  0  0  0  0  0  0  0  0  0
    8.1677  -18.7559   22.6534 C   0  0  1  0  0  0  0  0  0  0  0  0
    7.9696  -19.8564   23.6235 C   0  0  0  0  0  0  0  0  0  0  0  0
    7.7639  -19.4409   25.0056 C   0  0  0  0  0  0  0  0  0  0  0  0
    6.5606  -19.0868   25.5744 C   0  0  0  0  0  0  0  0  0  0  0  0
    6.7872  -18.7750   26.8680 N   0  0  0  0  0  0  0  0  0  0  0  0
    8.0822  -18.9075   27.1758 C   0  0  0  0  0  0  0  0  0  0  0  0
    8.7701  -18.7032   28.3483 C   0  0  0  0  0  0  0  0  0  0  0  0
   10.1292  -18.9170   28.3861 C   0  0  0  0  0  0  0  0  0  0  0  0
   10.7878  -19.3355   27.2420 C   0  0  0  0  0  0  0  0  0  0  0  0
   10.0721  -19.5345   26.0726 C   0  0  0  0  0  0  0  0  0  0  0  0
    8.7077  -19.3300   25.9976 C   0  0  0  0  0  0  0  0  0  0  0  0
    9.2807  -17.8238   22.9598 C   0  0  0  0  0  0  0  0  0  0  0  0
   10.4223  -18.1215   22.5304 O   0  0  0  0  0  0  0  0  0  0  0  0
    9.1304  -16.6391   23.6981 N   0  0  0  0  0  0  0  0  0  0  0  0
   10.3047  -15.7743   23.9538 C   0  0  1  0  0  0  0  0  0  0  0  0
    9.8728  -14.4687   24.4906 C   0  0  0  0  0  0  0  0  0  0  0  0
    8.6636  -14.5635   25.3342 C   0  0  0  0  0  0  0  0  0  0  0  0
    8.0678  -15.7214   25.8223 C   0  0  0  0  0  0  0  0  0  0  0  0
    6.9704  -15.3824   26.5027 N   0  0  0  0  0  0  0  0  0  0  0  0
    6.8106  -14.0427   26.4891 C   0  0  0  0  0  0  0  0  0  0  0  0
    5.8456  -13.2322   27.0615 C   0  0  0  0  0  0  0  0  0  0  0  0
    5.9091  -11.8650   26.9222 C   0  0  0  0  0  0  0  0  0  0  0  0
    6.9501  -11.3197   26.2032 C   0  0  0  0  0  0  0  0  0  0  0  0
    7.9036  -12.1373   25.6378 C   0  0  0  0  0  0  0  0  0  0  0  0
    7.8583  -13.5273   25.7656 C   0  0  0  0  0  0  0  0  0  0  0  0
   11.2429  -16.4929   24.8155 C   0  0  0  0  0  0  0  0  0  0  0  0
   10.8644  -17.3388   25.8443 O   0  0  0  0  0  0  0  0  0  0  0  0
   12.4758  -16.3481   24.6383 O   0  0  0  0  0  0  0  0  0  0  0  0
  2  1  1  1
  2  3  1  0
  4  3  1  0
  4  5  1  0
  6  5  1  0
  7  6  1  0
  8  2  1  0
  9  8  2  0
 10  8  1  0
 11 12  1  1
 11 10  1  0
 12 13  1  0
 13 21  1  0
 14 13  2  0
 14 15  1  0
 15 16  1  0
 16 17  1  0
 17 18  2  0
 19 18  1  0
 20 19  2  0
 21 16  2  0
 21 20  1  0
 22 23  2  0
 22 11  1  0
 24 22  1  0
 25 24  1  0
 25 26  1  1
 27 28  2  0
 27 26  1  0
 29 28  1  0
 30 35  2  0
 30 29  1  0
 31 30  1  0
 32 33  1  0
 32 31  2  0
 33 34  2  0
 34 35  1  0
 35 27  1  0
 36 37  1  0
 36 25  1  0
 38 36  2  0
M  END
$$$$
