KWW.pdb
     RDKit          3D

 38 41  0  0  1  0  0  0  0  0999 V2000
    6.3093  -15.7015   20.2873 N   0  0  0  0  0  0  0  0  0  0  0  0
    7.6161  -15.2965   19.9363 C   0  0  1  0  0  0  0  0  0  0  0  0
    7.7576  -13.9551   19.2775 C   0  0  0  0  0  0  0  0  0  0  0  0
    7.4770  -13.9745   17.8327 C   0  0  0  0  0  0  0  0  0  0  0  0
    8.6189  -13.4827   17.0094 C   0  0  0  0  0  0  0  0  0  0  0  0
    8.2437  -13.5039   15.5514 C   0  0  0  0  0  0  0  0  0  0  0  0
    9.2971  -12.8899   14.7421 N   0  0  0  0  0  0  0  0  0  0  0  0
    8.6608  -15.5199   20.9727 C   0  0  0  0  0  0  0  0  0  0  0  0
    9.8610  -15.3516   20.6056 O   0  0  0  0  0  0  0  0  0  0  0  0
    8.4393  -15.8967   22.3009 N   0  0  0  0  0  0  0  0  0  0  0  0
    9.5244  -16.2811   23.2156 C   0  0  1  0  0  0  0  0  0  0  0  0
    9.5076  -15.3516   24.3677 C   0  0  0  0  0  0  0  0  0  0  0  0
    8.1846  -15.0122   24.8770 C   0  0  0  0  0  0  0  0  0  0  0  0
    7.1918  -15.9061   25.2119 C   0  0  0  0  0  0  0  0  0  0  0  0
    6.1266  -15.2012   25.6483 N   0  0  0  0  0  0  0  0  0  0  0  0
    6.3727  -13.8868   25.6159 C   0  0  0  0  0  0  0  0  0  0  0  0
    5.6003  -12.8019   25.9570 C   0  0  0  0  0  0  0  0  0  0  0  0
    6.1121  -11.5318   25.8194 C   0  0  0  0  0  0  0  0  0  0  0  0
    7.3998  -11.3616   25.3389 C   0  0  0  0  0  0  0  0  0  0  0  0
    8.1584  -12.4708   25.0022 C   0  0  0  0  0  0  0  0  0  0  0  0
    7.6777  -13.7602   25.1271 C   0  0  0  0  0  0  0  0  0  0  0  0
    9.4269  -17.7225   23.5534 C   0  0  0  0  0  0  0  0  0  0  0  0
    8.7889  -18.4620   22.7645 O   0  0  0  0  0  0  0  0  0  0  0  0
   10.0014  -18.3003   24.6968 N   0  0  0  0  0  0  0  0  0  0  0  0
   11.4342  -18.0773   24.9964 C   0  0  1  0  0  0  0  0  0  0  0  0
   11.6249  -16.7626   25.6400 C   0  0  0  0  0  0  0  0  0  0  0  0
   11.1013  -16.7151   27.0207 C   0  0  0  0  0  0  0  0  0  0  0  0
   10.9308  -17.7851   27.8924 C   0  0  0  0  0  0  0  0  0  0  0  0
   10.3899  -17.3307   29.0252 N   0  0  0  0  0  0  0  0  0  0  0  0
   10.1934  -15.9983   28.9444 C   0  0  0  0  0  0  0  0  0  0  0  0
    9.6815  -15.0936   29.8584 C   0  0  0  0  0  0  0  0  0  0  0  0
    9.5981  -13.7564   29.5462 C   0  0  0  0  0  0  0  0  0  0  0  0
   10.0333  -13.3364   28.3083 C   0  0  0  0  0  0  0  0  0  0  0  0
   10.5400  -14.2469   27.4074 C   0  0  0  0  0  0  0  0  0  0  0  0
   10.6330  -15.6088   27.7028 C   0  0  0  0  0  0  0  0  0  0  0  0
   11.9343  -19.2047   25.7827 C   0  0  0  0  0  0  0  0  0  0  0  0
   13.2759  -19.4657   26.0040 O   0  0  0  0  0  0  0  0  0  0  0  0
   11.1185  -20.0065   26.2964 O   0  0  0  0  0  0  0  0  0  0  0  0
  2  1  1  1
  2  3  1  0
  4  3  1  0
  4  5  1  0
  6  5  1  0
  7  6  1  0
  8  2  1  0
  9  8  2  0
 10  8  1  0
 11 12  1  1
 11 10  1  0
 12 13  1  0
 13 21  1  0
 14 13  2  0
 14 15  1  0
 15 16  1  0
 16 17  1  0
 17 18  2  0
 19 18  1  0
 20 19  2  0
 21 16  2  0
 21 20  1  0
 22 23  2  0
 22 11  1  0
 24 22  1  0
 25 24  1  0
 25 26  1  1
 27 28  2  0
 27 26  1  0
 29 28  1  0
 30 35  2  0
 30 29  1  0
 31 30  1  0
 32 33  1  0
 32 31  2  0
 33 34  2  0
 34 35  1  0
 35 27  1  0
 36 37  1  0
 36 25  1  0
 38 36  2  0
M  END
$$$$
