KWW.pdb
     RDKit          3D

 38 41  0  0  1  0  0  0  0  0999 V2000
    8.5336  -17.0174   17.9386 N   0  0  0  0  0  0  0  0  0  0  0  0
    9.0350  -15.8157   18.4855 C   0  0  1  0  0  0  0  0  0  0  0  0
    8.5901  -14.5368   17.8376 C   0  0  0  0  0  0  0  0  0  0  0  0
    8.1930  -14.6956   16.4292 C   0  0  0  0  0  0  0  0  0  0  0  0
    9.0274  -13.8891   15.4927 C   0  0  0  0  0  0  0  0  0  0  0  0
    8.5074  -14.0385   14.0876 C   0  0  0  0  0  0  0  0  0  0  0  0
    9.1992  -13.1179   13.1844 N   0  0  0  0  0  0  0  0  0  0  0  0
    9.0115  -15.7240   19.9709 C   0  0  0  0  0  0  0  0  0  0  0  0
    9.7054  -14.7992   20.4874 O   0  0  0  0  0  0  0  0  0  0  0  0
    8.3011  -16.5590   20.8389 N   0  0  0  0  0  0  0  0  0  0  0  0
    8.2964  -16.3789   22.2981 C   0  0  1  0  0  0  0  0  0  0  0  0
    6.9391  -16.6947   22.7975 C   0  0  0  0  0  0  0  0  0  0  0  0
    6.6169  -16.1561   24.1133 C   0  0  0  0  0  0  0  0  0  0  0  0
    6.2966  -16.8911   25.2331 C   0  0  0  0  0  0  0  0  0  0  0  0
    6.0738  -16.0288   26.2474 N   0  0  0  0  0  0  0  0  0  0  0  0
    6.2325  -14.7624   25.8469 C   0  0  0  0  0  0  0  0  0  0  0  0
    6.1109  -13.5681   26.5168 C   0  0  0  0  0  0  0  0  0  0  0  0
    6.3328  -12.3865   25.8470 C   0  0  0  0  0  0  0  0  0  0  0  0
    6.6761  -12.4146   24.5057 C   0  0  0  0  0  0  0  0  0  0  0  0
    6.7926  -13.6309   23.8529 C   0  0  0  0  0  0  0  0  0  0  0  0
    6.5773  -14.8364   24.4928 C   0  0  0  0  0  0  0  0  0  0  0  0
    9.4025  -17.1509   22.9159 C   0  0  0  0  0  0  0  0  0  0  0  0
    9.5948  -18.3212   22.5040 O   0  0  0  0  0  0  0  0  0  0  0  0
   10.2377  -16.6510   23.9278 N   0  0  0  0  0  0  0  0  0  0  0  0
   11.2971  -17.5109   24.5028 C   0  0  1  0  0  0  0  0  0  0  0  0
   12.2842  -16.6902   25.2319 C   0  0  0  0  0  0  0  0  0  0  0  0
   11.7532  -16.1359   26.4942 C   0  0  0  0  0  0  0  0  0  0  0  0
   11.3930  -16.8422   27.6368 C   0  0  0  0  0  0  0  0  0  0  0  0
   10.9167  -15.9807   28.5386 N   0  0  0  0  0  0  0  0  0  0  0  0
   10.9458  -14.7260   28.0432 C   0  0  0  0  0  0  0  0  0  0  0  0
   10.5766  -13.5148   28.6020 C   0  0  0  0  0  0  0  0  0  0  0  0
   10.7218  -12.3449   27.8928 C   0  0  0  0  0  0  0  0  0  0  0  0
   11.2410  -12.4028   26.6180 C   0  0  0  0  0  0  0  0  0  0  0  0
   11.6038  -13.6146   26.0730 C   0  0  0  0  0  0  0  0  0  0  0  0
   11.4643  -14.8144   26.7743 C   0  0  0  0  0  0  0  0  0  0  0  0
   10.6712  -18.5534   25.3156 C   0  0  0  0  0  0  0  0  0  0  0  0
   11.3154  -19.7043   25.7371 O   0  0  0  0  0  0  0  0  0  0  0  0
    9.4731  -18.4265   25.6630 O   0  0  0  0  0  0  0  0  0  0  0  0
  2  1  1  1
  2  3  1  0
  4  3  1  0
  4  5  1  0
  6  5  1  0
  7  6  1  0
  8  2  1  0
  9  8  2  0
 10  8  1  0
 11 12  1  1
 11 10  1  0
 12 13  1  0
 13 21  1  0
 14 13  2  0
 14 15  1  0
 15 16  1  0
 16 17  1  0
 17 18  2  0
 19 18  1  0
 20 19  2  0
 21 16  2  0
 21 20  1  0
 22 23  2  0
 22 11  1  0
 24 22  1  0
 25 24  1  0
 25 26  1  1
 27 28  2  0
 27 26  1  0
 29 28  1  0
 30 35  2  0
 30 29  1  0
 31 30  1  0
 32 33  1  0
 32 31  2  0
 33 34  2  0
 34 35  1  0
 35 27  1  0
 36 37  1  0
 36 25  1  0
 38 36  2  0
M  END
$$$$
