KWW.pdb
     RDKit          3D

 38 41  0  0  1  0  0  0  0  0999 V2000
    8.5260  -18.8591   17.8321 N   0  0  0  0  0  0  0  0  0  0  0  0
    9.6832  -18.7179   18.6294 C   0  0  1  0  0  0  0  0  0  0  0  0
   11.0064  -18.7791   17.9231 C   0  0  0  0  0  0  0  0  0  0  0  0
   11.4460  -20.1487   17.6108 C   0  0  0  0  0  0  0  0  0  0  0  0
   12.8009  -20.1999   16.9902 C   0  0  0  0  0  0  0  0  0  0  0  0
   13.2078  -21.6327   16.7696 C   0  0  0  0  0  0  0  0  0  0  0  0
   14.5057  -21.6991   16.0967 N   0  0  0  0  0  0  0  0  0  0  0  0
    9.6416  -17.6245   19.6384 C   0  0  0  0  0  0  0  0  0  0  0  0
   10.2810  -16.5700   19.3504 O   0  0  0  0  0  0  0  0  0  0  0  0
    8.9689  -17.6565   20.8638 N   0  0  0  0  0  0  0  0  0  0  0  0
    9.0012  -16.5437   21.8242 C   0  0  1  0  0  0  0  0  0  0  0  0
    7.6070  -16.1220   22.0887 C   0  0  0  0  0  0  0  0  0  0  0  0
    7.4324  -14.7118   22.4144 C   0  0  0  0  0  0  0  0  0  0  0  0
    7.4232  -13.6681   21.5159 C   0  0  0  0  0  0  0  0  0  0  0  0
    7.2285  -12.5252   22.2072 N   0  0  0  0  0  0  0  0  0  0  0  0
    7.1094  -12.7688   23.5171 C   0  0  0  0  0  0  0  0  0  0  0  0
    6.9065  -11.9325   24.5892 C   0  0  0  0  0  0  0  0  0  0  0  0
    6.8237  -12.4601   25.8576 C   0  0  0  0  0  0  0  0  0  0  0  0
    6.9458  -13.8276   26.0390 C   0  0  0  0  0  0  0  0  0  0  0  0
    7.1497  -14.6494   24.9426 C   0  0  0  0  0  0  0  0  0  0  0  0
    7.2380  -14.1553   23.6552 C   0  0  0  0  0  0  0  0  0  0  0  0
    9.7955  -16.9182   23.0200 C   0  0  0  0  0  0  0  0  0  0  0  0
    9.6619  -18.0851   23.4638 O   0  0  0  0  0  0  0  0  0  0  0  0
   10.6788  -16.0480   23.6785 N   0  0  0  0  0  0  0  0  0  0  0  0
   11.5093  -16.5468   24.7983 C   0  0  1  0  0  0  0  0  0  0  0  0
   10.7060  -17.4077   25.6886 C   0  0  0  0  0  0  0  0  0  0  0  0
    9.6600  -16.6639   26.4202 C   0  0  0  0  0  0  0  0  0  0  0  0
    8.3018  -16.9578   26.4748 C   0  0  0  0  0  0  0  0  0  0  0  0
    7.6909  -16.0194   27.2018 N   0  0  0  0  0  0  0  0  0  0  0  0
    8.5887  -15.1105   27.6359 C   0  0  0  0  0  0  0  0  0  0  0  0
    8.4380  -13.9821   28.4233 C   0  0  0  0  0  0  0  0  0  0  0  0
    9.5278  -13.2103   28.7540 C   0  0  0  0  0  0  0  0  0  0  0  0
   10.7695  -13.5821   28.2871 C   0  0  0  0  0  0  0  0  0  0  0  0
   10.9059  -14.7068   27.5036 C   0  0  0  0  0  0  0  0  0  0  0  0
    9.8135  -15.5042   27.1549 C   0  0  0  0  0  0  0  0  0  0  0  0
   12.6986  -17.1991   24.2513 C   0  0  0  0  0  0  0  0  0  0  0  0
   13.7082  -17.7509   25.0217 O   0  0  0  0  0  0  0  0  0  0  0  0
   12.8431  -17.2728   23.0078 O   0  0  0  0  0  0  0  0  0  0  0  0
  2  1  1  6
  2  3  1  0
  4  3  1  0
  4  5  1  0
  6  5  1  0
  7  6  1  0
  8  2  1  0
  9  8  2  0
 10  8  1  0
 11 12  1  1
 11 10  1  0
 12 13  1  0
 13 21  1  0
 14 13  2  0
 14 15  1  0
 15 16  1  0
 16 17  1  0
 17 18  2  0
 19 18  1  0
 20 19  2  0
 21 16  2  0
 21 20  1  0
 22 23  2  0
 22 11  1  0
 24 22  1  0
 25 24  1  0
 25 26  1  6
 27 28  2  0
 27 26  1  0
 29 28  1  0
 30 35  2  0
 30 29  1  0
 31 30  1  0
 32 33  1  0
 32 31  2  0
 33 34  2  0
 34 35  1  0
 35 27  1  0
 36 37  1  0
 36 25  1  0
 38 36  2  0
M  END
$$$$
