KWW.pdb
     RDKit          3D

 38 41  0  0  1  0  0  0  0  0999 V2000
    4.9424  -18.9481   23.5504 N   0  0  0  0  0  0  0  0  0  0  0  0
    5.9809  -18.6087   22.6553 C   0  0  1  0  0  0  0  0  0  0  0  0
    5.6058  -18.4420   21.2114 C   0  0  0  0  0  0  0  0  0  0  0  0
    6.7414  -18.5869   20.2861 C   0  0  0  0  0  0  0  0  0  0  0  0
    6.3658  -18.3606   18.8609 C   0  0  0  0  0  0  0  0  0  0  0  0
    7.6078  -18.2496   18.0169 C   0  0  0  0  0  0  0  0  0  0  0  0
    7.2557  -18.0864   16.6058 N   0  0  0  0  0  0  0  0  0  0  0  0
    6.9055  -17.5374   23.1167 C   0  0  0  0  0  0  0  0  0  0  0  0
    6.8551  -16.4414   22.4844 O   0  0  0  0  0  0  0  0  0  0  0  0
    7.8167  -17.6313   24.1733 N   0  0  0  0  0  0  0  0  0  0  0  0
    8.9710  -16.7320   24.3172 C   0  0  1  0  0  0  0  0  0  0  0  0
    8.8914  -16.0885   25.6480 C   0  0  0  0  0  0  0  0  0  0  0  0
    7.6780  -15.3204   25.8986 C   0  0  0  0  0  0  0  0  0  0  0  0
    6.3888  -15.8018   25.8437 C   0  0  0  0  0  0  0  0  0  0  0  0
    5.5520  -14.7864   26.1449 N   0  0  0  0  0  0  0  0  0  0  0  0
    6.2304  -13.6610   26.3949 C   0  0  0  0  0  0  0  0  0  0  0  0
    5.8125  -12.3964   26.7356 C   0  0  0  0  0  0  0  0  0  0  0  0
    6.7435  -11.4030   26.9366 C   0  0  0  0  0  0  0  0  0  0  0  0
    8.0909  -11.6893   26.7935 C   0  0  0  0  0  0  0  0  0  0  0  0
    8.4869  -12.9715   26.4497 C   0  0  0  0  0  0  0  0  0  0  0  0
    7.5808  -13.9933   26.2402 C   0  0  0  0  0  0  0  0  0  0  0  0
   10.2310  -17.4617   24.0323 C   0  0  0  0  0  0  0  0  0  0  0  0
   10.7097  -18.1737   24.9490 O   0  0  0  0  0  0  0  0  0  0  0  0
   10.9129  -17.3997   22.8067 N   0  0  0  0  0  0  0  0  0  0  0  0
   11.8691  -16.2990   22.5485 C   0  0  1  0  0  0  0  0  0  0  0  0
   11.1596  -15.0057   22.4933 C   0  0  0  0  0  0  0  0  0  0  0  0
   10.5254  -14.7513   21.1834 C   0  0  0  0  0  0  0  0  0  0  0  0
   11.0636  -15.0025   19.9259 C   0  0  0  0  0  0  0  0  0  0  0  0
   10.1950  -14.5898   18.9998 N   0  0  0  0  0  0  0  0  0  0  0  0
    9.0970  -14.0735   19.5900 C   0  0  0  0  0  0  0  0  0  0  0  0
    7.9368  -13.5419   19.0542 C   0  0  0  0  0  0  0  0  0  0  0  0
    6.9308  -13.0894   19.8764 C   0  0  0  0  0  0  0  0  0  0  0  0
    7.1007  -13.1759   21.2408 C   0  0  0  0  0  0  0  0  0  0  0  0
    8.2604  -13.7064   21.7615 C   0  0  0  0  0  0  0  0  0  0  0  0
    9.2947  -14.1706   20.9458 C   0  0  0  0  0  0  0  0  0  0  0  0
   12.9343  -16.3530   23.5494 C   0  0  0  0  0  0  0  0  0  0  0  0
   14.2194  -15.8797   23.3456 O   0  0  0  0  0  0  0  0  0  0  0  0
   12.6990  -16.8607   24.6716 O   0  0  0  0  0  0  0  0  0  0  0  0
  2  1  1  1
  2  3  1  0
  4  3  1  0
  4  5  1  0
  6  5  1  0
  7  6  1  0
  8  2  1  0
  9  8  2  0
 10  8  1  0
 11 12  1  1
 11 10  1  0
 12 13  1  0
 13 21  1  0
 14 13  2  0
 14 15  1  0
 15 16  1  0
 16 17  1  0
 17 18  2  0
 19 18  1  0
 20 19  2  0
 21 16  2  0
 21 20  1  0
 22 23  2  0
 22 11  1  0
 24 22  1  0
 25 24  1  0
 25 26  1  1
 27 28  2  0
 27 26  1  0
 29 28  1  0
 30 35  2  0
 30 29  1  0
 31 30  1  0
 32 33  1  0
 32 31  2  0
 33 34  2  0
 34 35  1  0
 35 27  1  0
 36 37  1  0
 36 25  1  0
 38 36  2  0
M  END
$$$$
