KWW.pdb
     RDKit          3D

 38 41  0  0  1  0  0  0  0  0999 V2000
    8.2247  -17.2146   18.8715 N   0  0  0  0  0  0  0  0  0  0  0  0
    8.9181  -16.0333   19.2158 C   0  0  1  0  0  0  0  0  0  0  0  0
    8.5242  -14.7787   18.4917 C   0  0  0  0  0  0  0  0  0  0  0  0
    8.4856  -14.9294   17.0280 C   0  0  0  0  0  0  0  0  0  0  0  0
    7.9759  -13.7147   16.3292 C   0  0  0  0  0  0  0  0  0  0  0  0
    8.0053  -13.9324   14.8396 C   0  0  0  0  0  0  0  0  0  0  0  0
    7.4686  -12.7642   14.1402 N   0  0  0  0  0  0  0  0  0  0  0  0
    9.1070  -15.7979   20.6734 C   0  0  0  0  0  0  0  0  0  0  0  0
    9.8280  -14.8074   20.9934 O   0  0  0  0  0  0  0  0  0  0  0  0
    8.5673  -16.5649   21.7106 N   0  0  0  0  0  0  0  0  0  0  0  0
    8.8484  -16.3029   23.1298 C   0  0  1  0  0  0  0  0  0  0  0  0
    7.7319  -16.8540   23.9306 C   0  0  0  0  0  0  0  0  0  0  0  0
    6.9608  -15.8731   24.6846 C   0  0  0  0  0  0  0  0  0  0  0  0
    5.8191  -16.1262   25.4121 C   0  0  0  0  0  0  0  0  0  0  0  0
    5.4126  -14.9645   25.9665 N   0  0  0  0  0  0  0  0  0  0  0  0
    6.2331  -13.9606   25.6376 C   0  0  0  0  0  0  0  0  0  0  0  0
    6.2199  -12.6242   25.9598 C   0  0  0  0  0  0  0  0  0  0  0  0
    7.2058  -11.7969   25.4723 C   0  0  0  0  0  0  0  0  0  0  0  0
    8.2000  -12.3207   24.6630 C   0  0  0  0  0  0  0  0  0  0  0  0
    8.1916  -13.6708   24.3528 C   0  0  0  0  0  0  0  0  0  0  0  0
    7.2182  -14.5309   24.8238 C   0  0  0  0  0  0  0  0  0  0  0  0
   10.1999  -16.7996   23.4873 C   0  0  0  0  0  0  0  0  0  0  0  0
   10.9598  -17.1426   22.5485 O   0  0  0  0  0  0  0  0  0  0  0  0
   10.6719  -16.9084   24.8051 N   0  0  0  0  0  0  0  0  0  0  0  0
   12.0741  -17.3122   25.0564 C   0  0  1  0  0  0  0  0  0  0  0  0
   12.7005  -16.4060   26.0391 C   0  0  0  0  0  0  0  0  0  0  0  0
   11.9770  -16.3627   27.3265 C   0  0  0  0  0  0  0  0  0  0  0  0
   12.0845  -17.2619   28.3820 C   0  0  0  0  0  0  0  0  0  0  0  0
   11.2316  -16.8970   29.3420 N   0  0  0  0  0  0  0  0  0  0  0  0
   10.5592  -15.7881   28.9692 C   0  0  0  0  0  0  0  0  0  0  0  0
    9.5977  -15.0394   29.6254 C   0  0  0  0  0  0  0  0  0  0  0  0
    9.0648  -13.9161   29.0365 C   0  0  0  0  0  0  0  0  0  0  0  0
    9.5062  -13.5519   27.7833 C   0  0  0  0  0  0  0  0  0  0  0  0
   10.4631  -14.3060   27.1405 C   0  0  0  0  0  0  0  0  0  0  0  0
   11.0169  -15.4503   27.7190 C   0  0  0  0  0  0  0  0  0  0  0  0
   12.0982  -18.7221   25.4450 C   0  0  0  0  0  0  0  0  0  0  0  0
   13.2493  -19.4866   25.5320 O   0  0  0  0  0  0  0  0  0  0  0  0
   11.0211  -19.3040   25.7166 O   0  0  0  0  0  0  0  0  0  0  0  0
  2  1  1  1
  2  3  1  0
  4  3  1  0
  4  5  1  0
  6  5  1  0
  7  6  1  0
  8  2  1  0
  9  8  2  0
 10  8  1  0
 11 12  1  1
 11 10  1  0
 12 13  1  0
 13 21  1  0
 14 13  2  0
 14 15  1  0
 15 16  1  0
 16 17  1  0
 17 18  2  0
 19 18  1  0
 20 19  2  0
 21 16  2  0
 21 20  1  0
 22 23  2  0
 22 11  1  0
 24 22  1  0
 25 24  1  0
 25 26  1  1
 27 28  2  0
 27 26  1  0
 29 28  1  0
 30 35  2  0
 30 29  1  0
 31 30  1  0
 32 33  1  0
 32 31  2  0
 33 34  2  0
 34 35  1  0
 35 27  1  0
 36 37  1  0
 36 25  1  0
 38 36  2  0
M  END
$$$$
