NMI.pdb
     RDKit          3D

 25 24  0  0  1  0  0  0  0  0999 V2000
   29.6664  -21.4650  -17.9821 N   0  0  0  0  0  0  0  0  0  0  0  0
   28.9936  -20.2101  -18.0246 C   0  0  0  0  0  0  0  0  0  0  0  0
   29.1439  -19.4424  -19.0043 O   0  0  0  0  0  0  0  0  0  0  0  0
   28.1095  -19.7873  -16.9208 C   0  0  0  0  0  0  0  0  0  0  0  0
   28.1423  -20.6347  -15.7035 C   0  0  2  0  0  0  0  0  0  0  0  0
   27.5419  -21.9312  -16.0907 N   0  0  0  0  0  0  0  0  0  0  0  0
   27.4577  -20.1495  -14.5167 C   0  0  0  0  0  0  0  0  0  0  0  0
   27.9156  -19.1102  -13.9365 O   0  0  0  0  0  0  0  0  0  0  0  0
   21.6149  -21.9556  -13.8496 C   0  0  0  0  0  0  0  0  0  0  0  0
   21.3961  -20.3807  -12.9559 S   0  0  0  0  0  0  0  0  0  0  0  0
   23.0696  -19.8841  -12.3571 C   0  0  0  0  0  0  0  0  0  0  0  0
   24.0909  -20.3494  -13.3446 C   0  0  0  0  0  0  0  0  0  0  0  0
   25.5195  -20.1532  -12.9290 C   0  0  2  0  0  0  0  0  0  0  0  0
   26.3062  -20.7938  -14.0001 N   0  0  0  0  0  0  0  0  0  0  0  0
   25.8876  -20.7024  -11.6317 C   0  0  0  0  0  0  0  0  0  0  0  0
   26.1812  -21.9400  -11.5626 O   0  0  0  0  0  0  0  0  0  0  0  0
   28.5384  -18.1933   -7.6173 C   0  0  0  0  0  0  0  0  0  0  0  0
   28.0655  -19.4060   -8.3348 C   0  0  0  0  0  0  0  0  0  0  0  0
   26.6339  -19.7720   -8.0695 C   0  0  2  0  0  0  0  0  0  0  0  0
   26.5695  -20.4461   -6.7186 C   0  0  0  0  0  0  0  0  0  0  0  0
   26.0420  -20.6638   -9.1334 C   0  0  2  0  0  0  0  0  0  0  0  0
   25.9539  -19.9590  -10.4089 N   0  0  0  0  0  0  0  0  0  0  0  0
   24.6483  -20.9603   -8.6976 C   0  0  0  0  0  0  0  0  0  0  0  0
   24.3703  -22.1143   -7.9365 O   0  0  0  0  0  0  0  0  0  0  0  0
   23.6652  -20.2438   -8.9611 O   0  0  0  0  0  0  0  0  0  0  0  0
  2  1  1  0
  2  3  2  0
  4  2  1  0
  5  4  1  0
  5  6  1  6
  7  5  1  0
  8  7  2  0
  9 10  1  0
 10 11  1  0
 11 12  1  0
 13 12  1  6
 13 14  1  0
 14  7  1  0
 15 13  1  0
 15 16  2  0
 18 19  1  0
 18 17  1  0
 19 21  1  0
 19 20  1  1
 21 22  1  6
 22 15  1  0
 23 21  1  0
 24 23  1  0
 25 23  2  0
M  END
$$$$
