NMI.pdb
     RDKit          3D

 25 24  0  0  1  0  0  0  0  0999 V2000
   28.7231  -20.8273  -17.0399 N   0  0  0  0  0  0  0  0  0  0  0  0
   28.9693  -22.0023  -16.2732 C   0  0  0  0  0  0  0  0  0  0  0  0
   29.8657  -22.8083  -16.6173 O   0  0  0  0  0  0  0  0  0  0  0  0
   28.1773  -22.2961  -15.0627 C   0  0  0  0  0  0  0  0  0  0  0  0
   27.0554  -21.3671  -14.7811 C   0  0  2  0  0  0  0  0  0  0  0  0
   27.6732  -20.0507  -14.5044 N   0  0  0  0  0  0  0  0  0  0  0  0
   26.1603  -21.6925  -13.6832 C   0  0  0  0  0  0  0  0  0  0  0  0
   25.4645  -22.7582  -13.7653 O   0  0  0  0  0  0  0  0  0  0  0  0
   26.4915  -19.0444   -7.7858 C   0  0  0  0  0  0  0  0  0  0  0  0
   27.0696  -20.7657   -7.9583 S   0  0  0  0  0  0  0  0  0  0  0  0
   26.8567  -21.2116   -9.7365 C   0  0  0  0  0  0  0  0  0  0  0  0
   25.6057  -20.5711  -10.2459 C   0  0  0  0  0  0  0  0  0  0  0  0
   25.0442  -21.1719  -11.5013 C   0  0  2  0  0  0  0  0  0  0  0  0
   26.0488  -20.8662  -12.5375 N   0  0  0  0  0  0  0  0  0  0  0  0
   23.7324  -20.6887  -11.9084 C   0  0  0  0  0  0  0  0  0  0  0  0
   22.7829  -20.7367  -11.0608 O   0  0  0  0  0  0  0  0  0  0  0  0
   20.1425  -17.6403  -15.3694 C   0  0  0  0  0  0  0  0  0  0  0  0
   20.5069  -19.0812  -15.3863 C   0  0  0  0  0  0  0  0  0  0  0  0
   21.9180  -19.3750  -14.9667 C   0  0  2  0  0  0  0  0  0  0  0  0
   22.4852  -20.3947  -15.9269 C   0  0  0  0  0  0  0  0  0  0  0  0
   22.0239  -19.8717  -13.5456 C   0  0  2  0  0  0  0  0  0  0  0  0
   23.4139  -20.1513  -13.1977 N   0  0  0  0  0  0  0  0  0  0  0  0
   21.2907  -21.1681  -13.5037 C   0  0  0  0  0  0  0  0  0  0  0  0
   21.9284  -22.3603  -13.9042 O   0  0  0  0  0  0  0  0  0  0  0  0
   20.1103  -21.2929  -13.1290 O   0  0  0  0  0  0  0  0  0  0  0  0
  2  1  1  0
  2  3  2  0
  4  2  1  0
  5  4  1  0
  5  6  1  1
  7  5  1  0
  8  7  2  0
  9 10  1  0
 10 11  1  0
 11 12  1  0
 13 12  1  1
 13 14  1  0
 14  7  1  0
 15 13  1  0
 15 16  2  0
 18 19  1  0
 18 17  1  0
 19 21  1  0
 19 20  1  6
 21 22  1  6
 22 15  1  0
 23 21  1  0
 24 23  1  0
 25 23  2  0
M  END
$$$$
