NMI.pdb
     RDKit          3D

 25 24  0  0  1  0  0  0  0  0999 V2000
   25.6719  -17.3810  -16.1280 N   0  0  0  0  0  0  0  0  0  0  0  0
   24.8346  -17.9673  -17.1200 C   0  0  0  0  0  0  0  0  0  0  0  0
   24.9828  -17.6739  -18.3298 O   0  0  0  0  0  0  0  0  0  0  0  0
   23.7778  -18.9281  -16.7473 C   0  0  0  0  0  0  0  0  0  0  0  0
   23.6938  -19.2722  -15.3066 C   0  0  2  0  0  0  0  0  0  0  0  0
   24.0054  -18.0270  -14.5693 N   0  0  0  0  0  0  0  0  0  0  0  0
   24.5578  -20.3286  -14.8066 C   0  0  0  0  0  0  0  0  0  0  0  0
   24.3146  -21.5287  -15.1633 O   0  0  0  0  0  0  0  0  0  0  0  0
   30.1161  -19.0359  -12.7108 C   0  0  0  0  0  0  0  0  0  0  0  0
   30.3746  -20.8047  -12.3483 S   0  0  0  0  0  0  0  0  0  0  0  0
   28.7167  -21.6076  -12.4600 C   0  0  0  0  0  0  0  0  0  0  0  0
   27.7856  -20.6887  -13.1835 C   0  0  0  0  0  0  0  0  0  0  0  0
   26.3677  -21.1684  -13.2912 C   0  0  2  0  0  0  0  0  0  0  0  0
   25.6519  -20.0580  -13.9477 N   0  0  0  0  0  0  0  0  0  0  0  0
   25.7165  -21.5208  -12.0375 C   0  0  0  0  0  0  0  0  0  0  0  0
   26.0151  -22.6340  -11.4955 O   0  0  0  0  0  0  0  0  0  0  0  0
   26.5600  -19.3729   -7.7503 C   0  0  0  0  0  0  0  0  0  0  0  0
   26.0601  -20.3964   -8.7052 C   0  0  0  0  0  0  0  0  0  0  0  0
   24.5770  -20.3660   -8.9358 C   0  0  2  0  0  0  0  0  0  0  0  0
   23.9006  -20.8476   -7.6733 C   0  0  0  0  0  0  0  0  0  0  0  0
   24.1426  -21.1977  -10.1178 C   0  0  2  0  0  0  0  0  0  0  0  0
   24.7581  -20.7092  -11.3482 N   0  0  0  0  0  0  0  0  0  0  0  0
   22.6726  -20.9938  -10.2504 C   0  0  0  0  0  0  0  0  0  0  0  0
   21.7834  -21.6122   -9.3476 O   0  0  0  0  0  0  0  0  0  0  0  0
   22.1397  -20.2931  -11.1304 O   0  0  0  0  0  0  0  0  0  0  0  0
  2  1  1  0
  2  3  2  0
  4  2  1  0
  5  4  1  0
  5  6  1  1
  7  5  1  0
  8  7  2  0
  9 10  1  0
 10 11  1  0
 11 12  1  0
 13 12  1  1
 13 14  1  0
 14  7  1  0
 15 13  1  0
 15 16  2  0
 18 19  1  0
 18 17  1  0
 19 21  1  0
 19 20  1  1
 21 22  1  6
 22 15  1  0
 23 21  1  0
 24 23  1  0
 25 23  2  0
M  END
$$$$
