NMI.pdb
     RDKit          3D

 25 24  0  0  1  0  0  0  0  0999 V2000
   24.8984  -22.0057  -19.4803 N   0  0  0  0  0  0  0  0  0  0  0  0
   23.6433  -21.9119  -18.8131 C   0  0  0  0  0  0  0  0  0  0  0  0
   22.7101  -22.6971  -19.1033 O   0  0  0  0  0  0  0  0  0  0  0  0
   23.4144  -20.8922  -17.7707 C   0  0  0  0  0  0  0  0  0  0  0  0
   24.5847  -20.0508  -17.4194 C   0  0  2  0  0  0  0  0  0  0  0  0
   25.4636  -20.8998  -16.5840 N   0  0  0  0  0  0  0  0  0  0  0  0
   24.3407  -18.8064  -16.7090 C   0  0  0  0  0  0  0  0  0  0  0  0
   23.7742  -18.8622  -15.5677 O   0  0  0  0  0  0  0  0  0  0  0  0
   27.2141  -11.7772  -15.2942 C   0  0  0  0  0  0  0  0  0  0  0  0
   27.3720  -13.4946  -15.8880 S   0  0  0  0  0  0  0  0  0  0  0  0
   25.6720  -14.2125  -15.8653 C   0  0  0  0  0  0  0  0  0  0  0  0
   25.7354  -15.6137  -16.3823 C   0  0  0  0  0  0  0  0  0  0  0  0
   24.4120  -16.3099  -16.5093 C   0  0  2  0  0  0  0  0  0  0  0  0
   24.7175  -17.5506  -17.2466 N   0  0  0  0  0  0  0  0  0  0  0  0
   23.3609  -15.5635  -17.1862 C   0  0  0  0  0  0  0  0  0  0  0  0
   23.4006  -15.4845  -18.4569 O   0  0  0  0  0  0  0  0  0  0  0  0
   17.4768  -14.5853  -17.7720 C   0  0  0  0  0  0  0  0  0  0  0  0
   18.8314  -13.9786  -17.8500 C   0  0  0  0  0  0  0  0  0  0  0  0
   19.8958  -14.7249  -17.0992 C   0  0  2  0  0  0  0  0  0  0  0  0
   19.5479  -14.6770  -15.6295 C   0  0  0  0  0  0  0  0  0  0  0  0
   21.2823  -14.1760  -17.3317 C   0  0  2  0  0  0  0  0  0  0  0  0
   22.2669  -14.9045  -16.5372 N   0  0  0  0  0  0  0  0  0  0  0  0
   21.2627  -12.7734  -16.8294 C   0  0  0  0  0  0  0  0  0  0  0  0
   20.7154  -11.7415  -17.6194 O   0  0  0  0  0  0  0  0  0  0  0  0
   21.7090  -12.4200  -15.7226 O   0  0  0  0  0  0  0  0  0  0  0  0
  2  1  1  0
  2  3  2  0
  4  2  1  0
  5  4  1  0
  5  6  1  1
  7  5  1  0
  8  7  2  0
  9 10  1  0
 10 11  1  0
 11 12  1  0
 13 12  1  6
 13 14  1  0
 14  7  1  0
 15 13  1  0
 15 16  2  0
 18 19  1  0
 18 17  1  0
 19 21  1  0
 19 20  1  1
 21 22  1  1
 22 15  1  0
 23 21  1  0
 24 23  1  0
 25 23  2  0
M  END
$$$$
