NMI.pdb
     RDKit          3D

 25 24  0  0  1  0  0  0  0  0999 V2000
   29.9042  -19.4701  -17.0018 N   0  0  0  0  0  0  0  0  0  0  0  0
   29.3001  -20.3462  -17.9487 C   0  0  0  0  0  0  0  0  0  0  0  0
   29.9598  -20.7806  -18.9222 O   0  0  0  0  0  0  0  0  0  0  0  0
   27.8903  -20.7593  -17.8059 C   0  0  0  0  0  0  0  0  0  0  0  0
   27.1992  -20.2919  -16.5791 C   0  0  2  0  0  0  0  0  0  0  0  0
   27.5796  -18.8713  -16.4108 N   0  0  0  0  0  0  0  0  0  0  0  0
   27.4739  -20.9900  -15.3342 C   0  0  0  0  0  0  0  0  0  0  0  0
   27.0276  -22.1765  -15.1946 O   0  0  0  0  0  0  0  0  0  0  0  0
   32.5306  -22.4799  -10.9872 C   0  0  0  0  0  0  0  0  0  0  0  0
   31.6831  -20.8992  -10.6555 S   0  0  0  0  0  0  0  0  0  0  0  0
   29.8991  -21.1732  -11.0403 C   0  0  0  0  0  0  0  0  0  0  0  0
   29.6502  -20.7891  -12.4634 C   0  0  0  0  0  0  0  0  0  0  0  0
   28.2491  -21.0145  -12.9518 C   0  0  2  0  0  0  0  0  0  0  0  0
   28.2203  -20.3916  -14.2887 N   0  0  0  0  0  0  0  0  0  0  0  0
   27.1873  -20.4718  -12.1164 C   0  0  0  0  0  0  0  0  0  0  0  0
   26.9509  -19.2218  -12.1789 O   0  0  0  0  0  0  0  0  0  0  0  0
   22.3922  -20.7367  -12.7964 C   0  0  0  0  0  0  0  0  0  0  0  0
   23.6950  -20.3100  -12.2218 C   0  0  0  0  0  0  0  0  0  0  0  0
   23.9843  -20.8553  -10.8534 C   0  0  2  0  0  0  0  0  0  0  0  0
   22.9690  -20.2735   -9.8973 C   0  0  0  0  0  0  0  0  0  0  0  0
   25.3861  -20.5584  -10.3799 C   0  0  2  0  0  0  0  0  0  0  0  0
   26.3700  -21.2344  -11.2204 N   0  0  0  0  0  0  0  0  0  0  0  0
   25.4960  -21.1458   -9.0150 C   0  0  0  0  0  0  0  0  0  0  0  0
   25.3307  -20.3333   -7.8745 O   0  0  0  0  0  0  0  0  0  0  0  0
   25.7325  -22.3463   -8.7866 O   0  0  0  0  0  0  0  0  0  0  0  0
  2  1  1  0
  2  3  2  0
  4  2  1  0
  5  4  1  0
  5  6  1  1
  7  5  1  0
  8  7  2  0
  9 10  1  0
 10 11  1  0
 11 12  1  0
 13 12  1  1
 13 14  1  0
 14  7  1  0
 15 13  1  0
 15 16  2  0
 18 19  1  0
 18 17  1  0
 19 21  1  0
 19 20  1  1
 21 22  1  6
 22 15  1  0
 23 21  1  0
 24 23  1  0
 25 23  2  0
M  END
$$$$
