NMI.pdb
     RDKit          3D

 25 24  0  0  1  0  0  0  0  0999 V2000
   19.7745  -22.3882  -12.2238 N   0  0  0  0  0  0  0  0  0  0  0  0
   18.8866  -21.2812  -12.3469 C   0  0  0  0  0  0  0  0  0  0  0  0
   17.9514  -21.1236  -11.5271 O   0  0  0  0  0  0  0  0  0  0  0  0
   19.0466  -20.3001  -13.4381 C   0  0  0  0  0  0  0  0  0  0  0  0
   20.1176  -20.5939  -14.4217 C   0  0  2  0  0  0  0  0  0  0  0  0
   20.1925  -22.0692  -14.5173 N   0  0  0  0  0  0  0  0  0  0  0  0
   21.4514  -20.0845  -14.1494 C   0  0  0  0  0  0  0  0  0  0  0  0
   21.6335  -18.8225  -14.1726 O   0  0  0  0  0  0  0  0  0  0  0  0
   24.8909  -20.9160   -9.2245 C   0  0  0  0  0  0  0  0  0  0  0  0
   26.1578  -21.5186  -10.3901 S   0  0  0  0  0  0  0  0  0  0  0  0
   25.7877  -20.7291  -12.0166 C   0  0  0  0  0  0  0  0  0  0  0  0
   24.3748  -21.0414  -12.3917 C   0  0  0  0  0  0  0  0  0  0  0  0
   23.8882  -20.3899  -13.6531 C   0  0  2  0  0  0  0  0  0  0  0  0
   22.5376  -20.9468  -13.8581 N   0  0  0  0  0  0  0  0  0  0  0  0
   24.7087  -20.6004  -14.8373 C   0  0  0  0  0  0  0  0  0  0  0  0
   24.5004  -21.6442  -15.5369 O   0  0  0  0  0  0  0  0  0  0  0  0
   25.8046  -16.6824  -18.3925 C   0  0  0  0  0  0  0  0  0  0  0  0
   26.1872  -17.6249  -17.3087 C   0  0  0  0  0  0  0  0  0  0  0  0
   25.9804  -19.0748  -17.6379 C   0  0  2  0  0  0  0  0  0  0  0  0
   24.5108  -19.2816  -17.9223 C   0  0  0  0  0  0  0  0  0  0  0  0
   26.4421  -20.0044  -16.5423 C   0  0  2  0  0  0  0  0  0  0  0  0
   25.7423  -19.7194  -15.2932 N   0  0  0  0  0  0  0  0  0  0  0  0
   27.8831  -19.6985  -16.3188 C   0  0  0  0  0  0  0  0  0  0  0  0
   28.8552  -20.1331  -17.2433 O   0  0  0  0  0  0  0  0  0  0  0  0
   28.3206  -19.0642  -15.3413 O   0  0  0  0  0  0  0  0  0  0  0  0
  2  1  1  0
  2  3  2  0
  4  2  1  0
  5  4  1  0
  5  6  1  1
  7  5  1  0
  8  7  2  0
  9 10  1  0
 10 11  1  0
 11 12  1  0
 13 12  1  1
 13 14  1  0
 14  7  1  0
 15 13  1  0
 15 16  2  0
 18 19  1  0
 18 17  1  0
 19 21  1  0
 19 20  1  1
 21 22  1  1
 22 15  1  0
 23 21  1  0
 24 23  1  0
 25 23  2  0
M  END
$$$$
