NMI.pdb
     RDKit          3D

 25 24  0  0  1  0  0  0  0  0999 V2000
   28.6426  -18.5308  -16.6907 N   0  0  0  0  0  0  0  0  0  0  0  0
   28.8976  -19.9323  -16.6905 C   0  0  0  0  0  0  0  0  0  0  0  0
   29.6514  -20.4403  -17.5538 O   0  0  0  0  0  0  0  0  0  0  0  0
   28.2820  -20.8136  -15.6790 C   0  0  0  0  0  0  0  0  0  0  0  0
   27.3749  -20.1521  -14.7091 C   0  0  2  0  0  0  0  0  0  0  0  0
   28.1278  -18.9998  -14.1645 N   0  0  0  0  0  0  0  0  0  0  0  0
   26.8764  -20.9410  -13.5948 C   0  0  0  0  0  0  0  0  0  0  0  0
   26.3887  -22.0937  -13.8399 O   0  0  0  0  0  0  0  0  0  0  0  0
   28.2516  -19.9910   -7.6983 C   0  0  0  0  0  0  0  0  0  0  0  0
   26.5010  -20.2173   -7.2391 S   0  0  0  0  0  0  0  0  0  0  0  0
   25.6321  -20.7910   -8.7627 C   0  0  0  0  0  0  0  0  0  0  0  0
   26.4945  -20.4957   -9.9476 C   0  0  0  0  0  0  0  0  0  0  0  0
   25.9481  -20.9550  -11.2677 C   0  0  2  0  0  0  0  0  0  0  0  0
   26.9238  -20.4665  -12.2604 N   0  0  0  0  0  0  0  0  0  0  0  0
   24.6094  -20.4894  -11.6008 C   0  0  0  0  0  0  0  0  0  0  0  0
   24.4059  -19.2334  -11.6613 O   0  0  0  0  0  0  0  0  0  0  0  0
   22.6766  -21.5004  -16.1110 C   0  0  0  0  0  0  0  0  0  0  0  0
   22.9088  -20.8949  -14.7736 C   0  0  0  0  0  0  0  0  0  0  0  0
   21.8972  -21.2730  -13.7309 C   0  0  2  0  0  0  0  0  0  0  0  0
   20.5518  -20.7498  -14.1777 C   0  0  0  0  0  0  0  0  0  0  0  0
   22.2370  -20.7504  -12.3566 C   0  0  2  0  0  0  0  0  0  0  0  0
   23.4855  -21.3344  -11.8752 N   0  0  0  0  0  0  0  0  0  0  0  0
   21.1521  -21.2252  -11.4524 C   0  0  0  0  0  0  0  0  0  0  0  0
   20.1287  -20.3451  -11.0446 O   0  0  0  0  0  0  0  0  0  0  0  0
   21.0698  -22.3843  -11.0063 O   0  0  0  0  0  0  0  0  0  0  0  0
  2  1  1  0
  2  3  2  0
  4  2  1  0
  5  4  1  0
  5  6  1  1
  7  5  1  0
  8  7  2  0
  9 10  1  0
 10 11  1  0
 11 12  1  0
 13 12  1  1
 13 14  1  0
 14  7  1  0
 15 13  1  0
 15 16  2  0
 18 19  1  0
 18 17  1  0
 19 21  1  0
 19 20  1  6
 21 22  1  1
 22 15  1  0
 23 21  1  0
 24 23  1  0
 25 23  2  0
M  END
$$$$
