NMI.pdb
     RDKit          3D

 25 24  0  0  1  0  0  0  0  0999 V2000
   16.9623  -11.6900  -19.7494 N   0  0  0  0  0  0  0  0  0  0  0  0
   17.0193  -10.2666  -19.7458 C   0  0  0  0  0  0  0  0  0  0  0  0
   16.8535   -9.6222  -20.8082 O   0  0  0  0  0  0  0  0  0  0  0  0
   17.2748   -9.5224  -18.4970 C   0  0  0  0  0  0  0  0  0  0  0  0
   17.5460  -10.3480  -17.2946 C   0  0  2  0  0  0  0  0  0  0  0  0
   16.2496  -10.9505  -16.9105 N   0  0  0  0  0  0  0  0  0  0  0  0
   18.1079   -9.6885  -16.1275 C   0  0  0  0  0  0  0  0  0  0  0  0
   17.3070   -9.1669  -15.2832 O   0  0  0  0  0  0  0  0  0  0  0  0
   23.4991  -10.3336  -10.7016 C   0  0  0  0  0  0  0  0  0  0  0  0
   22.5839  -10.9696  -12.1455 S   0  0  0  0  0  0  0  0  0  0  0  0
   21.6681   -9.5336  -12.8563 C   0  0  0  0  0  0  0  0  0  0  0  0
   20.8900  -10.0006  -14.0443 C   0  0  0  0  0  0  0  0  0  0  0  0
   20.0308   -8.9576  -14.6972 C   0  0  2  0  0  0  0  0  0  0  0  0
   19.5060   -9.6176  -15.9077 N   0  0  0  0  0  0  0  0  0  0  0  0
   20.6961   -7.7108  -15.0473 C   0  0  0  0  0  0  0  0  0  0  0  0
   21.4243   -7.6891  -16.0922 O   0  0  0  0  0  0  0  0  0  0  0  0
   20.2025   -1.9493  -16.2681 C   0  0  0  0  0  0  0  0  0  0  0  0
   21.0803   -2.9650  -15.6301 C   0  0  0  0  0  0  0  0  0  0  0  0
   20.3859   -4.2386  -15.2437 C   0  0  2  0  0  0  0  0  0  0  0  0
   19.3681   -3.9076  -14.1770 C   0  0  0  0  0  0  0  0  0  0  0  0
   21.3332   -5.3074  -14.7562 C   0  0  2  0  0  0  0  0  0  0  0  0
   20.5972   -6.4865  -14.3099 N   0  0  0  0  0  0  0  0  0  0  0  0
   22.0199   -4.7395  -13.5620 C   0  0  0  0  0  0  0  0  0  0  0  0
   23.1045   -3.8522  -13.7190 O   0  0  0  0  0  0  0  0  0  0  0  0
   21.7033   -4.9941  -12.3855 O   0  0  0  0  0  0  0  0  0  0  0  0
  2  1  1  0
  2  3  2  0
  4  2  1  0
  5  4  1  0
  5  6  1  1
  7  5  1  0
  8  7  2  0
  9 10  1  0
 10 11  1  0
 11 12  1  0
 13 12  1  6
 13 14  1  0
 14  7  1  0
 15 13  1  0
 15 16  2  0
 18 19  1  0
 18 17  1  0
 19 21  1  0
 19 20  1  1
 21 22  1  1
 22 15  1  0
 23 21  1  0
 24 23  1  0
 25 23  2  0
M  END
$$$$
