FFC.pdb
     RDKit          3D

 29 30  0  0  1  0  0  0  0  0999 V2000
    8.6301  -15.9798   21.1180 N   0  0  0  0  0  0  0  0  0  0  0  0
    9.9583  -15.4518   21.3533 C   0  0  1  0  0  0  0  0  0  0  0  0
    9.8436  -13.9424   21.3391 C   0  0  0  0  0  0  0  0  0  0  0  0
    8.8934  -13.5456   20.2881 C   0  0  0  0  0  0  0  0  0  0  0  0
    9.3108  -13.3355   18.9754 C   0  0  0  0  0  0  0  0  0  0  0  0
    8.4074  -12.9640   18.0026 C   0  0  0  0  0  0  0  0  0  0  0  0
    7.0706  -12.7951   18.3210 C   0  0  0  0  0  0  0  0  0  0  0  0
    6.6362  -12.9988   19.6181 C   0  0  0  0  0  0  0  0  0  0  0  0
    7.5731  -13.3750   20.5848 C   0  0  0  0  0  0  0  0  0  0  0  0
   10.4814  -15.9711   22.6179 C   0  0  0  0  0  0  0  0  0  0  0  0
   11.7175  -16.1246   22.7563 O   0  0  0  0  0  0  0  0  0  0  0  0
    9.6584  -16.3227   23.7297 N   0  0  0  0  0  0  0  0  0  0  0  0
   10.0926  -16.1492   25.1139 C   0  0  1  0  0  0  0  0  0  0  0  0
    9.0810  -15.3383   25.8940 C   0  0  0  0  0  0  0  0  0  0  0  0
    9.5033  -15.0472   27.2836 C   0  0  0  0  0  0  0  0  0  0  0  0
    9.4413  -16.0496   28.2530 C   0  0  0  0  0  0  0  0  0  0  0  0
    9.8433  -15.7498   29.5136 C   0  0  0  0  0  0  0  0  0  0  0  0
   10.3059  -14.5004   29.8635 C   0  0  0  0  0  0  0  0  0  0  0  0
   10.3715  -13.5017   28.9126 C   0  0  0  0  0  0  0  0  0  0  0  0
    9.9699  -13.7759   27.6223 C   0  0  0  0  0  0  0  0  0  0  0  0
   10.3116  -17.4964   25.6962 C   0  0  0  0  0  0  0  0  0  0  0  0
    9.3685  -18.3068   25.8986 O   0  0  0  0  0  0  0  0  0  0  0  0
   11.6208  -17.9332   26.0555 N   0  0  0  0  0  0  0  0  0  0  0  0
   11.8151  -19.2489   26.6018 C   0  0  1  0  0  0  0  0  0  0  0  0
   12.9212  -20.0098   25.9094 C   0  0  0  0  0  0  0  0  0  0  0  0
   12.7206  -19.7436   24.1237 S   0  0  0  0  0  0  0  0  0  0  0  0
   12.1403  -19.1277   28.0430 C   0  0  0  0  0  0  0  0  0  0  0  0
   12.2825  -17.9830   28.5648 O   0  0  0  0  0  0  0  0  0  0  0  0
   12.2945  -20.2307   28.8410 O   0  0  0  0  0  0  0  0  0  0  0  0
  2  1  1  1
  2 10  1  0
  3  2  1  0
  3  4  1  0
  4  9  1  0
  4  5  2  0
  5  6  1  0
  6  7  2  0
  8  7  1  0
  9  8  2  0
 10 11  2  0
 12 10  1  0
 12 13  1  0
 13 21  1  0
 13 14  1  1
 14 15  1  0
 15 16  2  0
 16 17  1  0
 18 17  2  0
 19 18  1  0
 20 15  1  0
 20 19  2  0
 21 22  2  0
 23 24  1  0
 23 21  1  0
 24 27  1  0
 24 25  1  6
 26 25  1  0
 27 28  2  0
 27 29  1  0
M  END
$$$$
