FFC.pdb
     RDKit          3D

 29 30  0  0  1  0  0  0  0  0999 V2000
    8.6168  -17.6208   20.6854 N   0  0  0  0  0  0  0  0  0  0  0  0
    9.7959  -16.8145   20.9260 C   0  0  1  0  0  0  0  0  0  0  0  0
    9.8258  -15.7436   19.8565 C   0  0  0  0  0  0  0  0  0  0  0  0
    8.7937  -14.7391   20.1575 C   0  0  0  0  0  0  0  0  0  0  0  0
    9.1327  -13.4611   20.5974 C   0  0  0  0  0  0  0  0  0  0  0  0
    8.1532  -12.5317   20.8751 C   0  0  0  0  0  0  0  0  0  0  0  0
    6.8171  -12.8596   20.7192 C   0  0  0  0  0  0  0  0  0  0  0  0
    6.4599  -14.1226   20.2837 C   0  0  0  0  0  0  0  0  0  0  0  0
    7.4730  -15.0457   20.0093 C   0  0  0  0  0  0  0  0  0  0  0  0
    9.7517  -16.2641   22.2816 C   0  0  0  0  0  0  0  0  0  0  0  0
   10.6837  -15.5250   22.6768 O   0  0  0  0  0  0  0  0  0  0  0  0
    8.6935  -16.5187   23.2050 N   0  0  0  0  0  0  0  0  0  0  0  0
    8.7226  -16.0384   24.5844 C   0  0  1  0  0  0  0  0  0  0  0  0
    7.3407  -15.6145   25.0322 C   0  0  0  0  0  0  0  0  0  0  0  0
    7.3239  -14.3168   25.7460 C   0  0  0  0  0  0  0  0  0  0  0  0
    6.2798  -13.4166   25.5264 C   0  0  0  0  0  0  0  0  0  0  0  0
    6.2926  -12.2407   26.2030 C   0  0  0  0  0  0  0  0  0  0  0  0
    7.2929  -11.9104   27.0904 C   0  0  0  0  0  0  0  0  0  0  0  0
    8.3302  -12.7932   27.3151 C   0  0  0  0  0  0  0  0  0  0  0  0
    8.3450  -13.9967   26.6424 C   0  0  0  0  0  0  0  0  0  0  0  0
    9.2886  -17.1169   25.4319 C   0  0  0  0  0  0  0  0  0  0  0  0
    8.8223  -18.2871   25.4377 O   0  0  0  0  0  0  0  0  0  0  0  0
   10.4016  -16.8658   26.2875 N   0  0  0  0  0  0  0  0  0  0  0  0
   10.9947  -17.9442   27.0309 C   0  0  1  0  0  0  0  0  0  0  0  0
   12.5045  -17.8965   27.0228 C   0  0  0  0  0  0  0  0  0  0  0  0
   13.0385  -18.0736   25.2956 S   0  0  0  0  0  0  0  0  0  0  0  0
   10.5166  -17.8815   28.4327 C   0  0  0  0  0  0  0  0  0  0  0  0
    9.6898  -16.9876   28.7793 O   0  0  0  0  0  0  0  0  0  0  0  0
   10.9467  -18.7729   29.3802 O   0  0  0  0  0  0  0  0  0  0  0  0
  2  1  1  6
  2 10  1  0
  3  2  1  0
  3  4  1  0
  4  9  1  0
  4  5  2  0
  5  6  1  0
  6  7  2  0
  8  7  1  0
  9  8  2  0
 10 11  2  0
 12 10  1  0
 12 13  1  0
 13 21  1  0
 13 14  1  1
 14 15  1  0
 15 16  2  0
 16 17  1  0
 18 17  2  0
 19 18  1  0
 20 15  1  0
 20 19  2  0
 21 22  2  0
 23 24  1  0
 23 21  1  0
 24 27  1  0
 24 25  1  1
 26 25  1  0
 27 28  2  0
 27 29  1  0
M  END
$$$$
