FFC.pdb
     RDKit          3D

 29 30  0  0  1  0  0  0  0  0999 V2000
   10.2821  -14.2236   21.2876 N   0  0  0  0  0  0  0  0  0  0  0  0
    8.9973  -14.6834   21.7737 C   0  0  1  0  0  0  0  0  0  0  0  0
    8.4336  -15.6149   20.7219 C   0  0  0  0  0  0  0  0  0  0  0  0
    8.0041  -14.8198   19.5607 C   0  0  0  0  0  0  0  0  0  0  0  0
    8.6175  -14.9625   18.3177 C   0  0  0  0  0  0  0  0  0  0  0  0
    8.2028  -14.2098   17.2399 C   0  0  0  0  0  0  0  0  0  0  0  0
    7.1684  -13.3004   17.3817 C   0  0  0  0  0  0  0  0  0  0  0  0
    6.5467  -13.1438   18.6070 C   0  0  0  0  0  0  0  0  0  0  0  0
    6.9868  -13.9197   19.6832 C   0  0  0  0  0  0  0  0  0  0  0  0
    9.1626  -15.3294   23.0767 C   0  0  0  0  0  0  0  0  0  0  0  0
   10.3156  -15.5928   23.4916 O   0  0  0  0  0  0  0  0  0  0  0  0
    8.0730  -15.6879   23.9260 N   0  0  0  0  0  0  0  0  0  0  0  0
    8.2519  -16.0063   25.3406 C   0  0  1  0  0  0  0  0  0  0  0  0
    7.0674  -15.5265   26.1507 C   0  0  0  0  0  0  0  0  0  0  0  0
    7.0748  -14.0664   26.3992 C   0  0  0  0  0  0  0  0  0  0  0  0
    6.0012  -13.2834   25.9715 C   0  0  0  0  0  0  0  0  0  0  0  0
    6.0379  -11.9507   26.2228 C   0  0  0  0  0  0  0  0  0  0  0  0
    7.0903  -11.3520   26.8798 C   0  0  0  0  0  0  0  0  0  0  0  0
    8.1571  -12.1169   27.3071 C   0  0  0  0  0  0  0  0  0  0  0  0
    8.1486  -13.4746   27.0665 C   0  0  0  0  0  0  0  0  0  0  0  0
    8.4637  -17.4704   25.4561 C   0  0  0  0  0  0  0  0  0  0  0  0
    7.6636  -18.3100   24.9641 O   0  0  0  0  0  0  0  0  0  0  0  0
    9.6008  -17.9926   26.1404 N   0  0  0  0  0  0  0  0  0  0  0  0
   10.0935  -19.3046   25.8188 C   0  0  1  0  0  0  0  0  0  0  0  0
   10.8058  -19.3494   24.4875 C   0  0  0  0  0  0  0  0  0  0  0  0
   10.7402  -21.0672   23.9004 S   0  0  0  0  0  0  0  0  0  0  0  0
   11.0293  -19.7405   26.8827 C   0  0  0  0  0  0  0  0  0  0  0  0
   11.4129  -18.9163   27.7638 O   0  0  0  0  0  0  0  0  0  0  0  0
   11.4998  -21.0258   26.9447 O   0  0  0  0  0  0  0  0  0  0  0  0
  2  1  1  6
  2 10  1  0
  3  2  1  0
  3  4  1  0
  4  9  1  0
  4  5  2  0
  5  6  1  0
  6  7  2  0
  8  7  1  0
  9  8  2  0
 10 11  2  0
 12 10  1  0
 12 13  1  0
 13 21  1  0
 13 14  1  1
 14 15  1  0
 15 16  2  0
 16 17  1  0
 18 17  2  0
 19 18  1  0
 20 15  1  0
 20 19  2  0
 21 22  2  0
 23 24  1  0
 23 21  1  0
 24 27  1  0
 24 25  1  6
 26 25  1  0
 27 28  2  0
 27 29  1  0
M  END
$$$$
