FFC.pdb
     RDKit          3D

 29 30  0  0  1  0  0  0  0  0999 V2000
   10.1594  -16.1596   21.4276 N   0  0  0  0  0  0  0  0  0  0  0  0
    9.1885  -15.4810   22.2612 C   0  0  1  0  0  0  0  0  0  0  0  0
    7.8491  -15.5979   21.5657 C   0  0  0  0  0  0  0  0  0  0  0  0
    7.7401  -14.5321   20.5571 C   0  0  0  0  0  0  0  0  0  0  0  0
    7.8744  -13.1893   20.9042 C   0  0  0  0  0  0  0  0  0  0  0  0
    7.7695  -12.2031   19.9468 C   0  0  0  0  0  0  0  0  0  0  0  0
    7.5287  -12.5377   18.6251 C   0  0  0  0  0  0  0  0  0  0  0  0
    7.3923  -13.8647   18.2602 C   0  0  0  0  0  0  0  0  0  0  0  0
    7.5031  -14.8445   19.2508 C   0  0  0  0  0  0  0  0  0  0  0  0
    9.1876  -16.0702   23.6011 C   0  0  0  0  0  0  0  0  0  0  0  0
   10.2544  -16.5288   24.0729 O   0  0  0  0  0  0  0  0  0  0  0  0
    8.0259  -16.1593   24.4255 N   0  0  0  0  0  0  0  0  0  0  0  0
    8.1024  -16.3437   25.8728 C   0  0  1  0  0  0  0  0  0  0  0  0
    6.9811  -15.6014   26.5665 C   0  0  0  0  0  0  0  0  0  0  0  0
    7.1547  -14.1304   26.5604 C   0  0  0  0  0  0  0  0  0  0  0  0
    6.0524  -13.3016   26.3444 C   0  0  0  0  0  0  0  0  0  0  0  0
    6.2468  -11.9590   26.3531 C   0  0  0  0  0  0  0  0  0  0  0  0
    7.4847  -11.3936   26.5661 C   0  0  0  0  0  0  0  0  0  0  0  0
    8.5816  -12.2039   26.7809 C   0  0  0  0  0  0  0  0  0  0  0  0
    8.4157  -13.5728   26.7780 C   0  0  0  0  0  0  0  0  0  0  0  0
    8.0756  -17.8012   26.1497 C   0  0  0  0  0  0  0  0  0  0  0  0
    7.1244  -18.5415   25.7831 O   0  0  0  0  0  0  0  0  0  0  0  0
    9.1439  -18.4311   26.8538 N   0  0  0  0  0  0  0  0  0  0  0  0
    9.4350  -19.8206   26.6254 C   0  0  1  0  0  0  0  0  0  0  0  0
    9.8128  -20.1087   25.1914 C   0  0  0  0  0  0  0  0  0  0  0  0
    8.2674  -20.3279   24.2622 S   0  0  0  0  0  0  0  0  0  0  0  0
   10.5512  -20.2296   27.5109 C   0  0  0  0  0  0  0  0  0  0  0  0
   10.8810  -21.4494   27.5899 O   0  0  0  0  0  0  0  0  0  0  0  0
   11.2484  -19.3171   28.2581 O   0  0  0  0  0  0  0  0  0  0  0  0
  2  1  1  6
  2 10  1  0
  3  2  1  0
  3  4  1  0
  4  9  1  0
  4  5  2  0
  5  6  1  0
  6  7  2  0
  8  7  1  0
  9  8  2  0
 10 11  2  0
 12 10  1  0
 12 13  1  0
 13 21  1  0
 13 14  1  1
 14 15  1  0
 15 16  2  0
 16 17  1  0
 18 17  2  0
 19 18  1  0
 20 15  1  0
 20 19  2  0
 21 22  2  0
 23 24  1  0
 23 21  1  0
 24 27  1  0
 24 25  1  6
 26 25  1  0
 27 28  2  0
 27 29  1  0
M  END
$$$$
