FFC.pdb
     RDKit          3D

 29 30  0  0  1  0  0  0  0  0999 V2000
    7.3948  -17.5034   20.3731 N   0  0  0  0  0  0  0  0  0  0  0  0
    8.5882  -16.8971   20.9268 C   0  0  1  0  0  0  0  0  0  0  0  0
    9.2988  -16.1977   19.7877 C   0  0  0  0  0  0  0  0  0  0  0  0
    8.6402  -14.9063   19.5353 C   0  0  0  0  0  0  0  0  0  0  0  0
    9.1676  -13.7149   20.0292 C   0  0  0  0  0  0  0  0  0  0  0  0
    8.5380  -12.5135   19.7835 C   0  0  0  0  0  0  0  0  0  0  0  0
    7.3703  -12.4778   19.0405 C   0  0  0  0  0  0  0  0  0  0  0  0
    6.8306  -13.6493   18.5414 C   0  0  0  0  0  0  0  0  0  0  0  0
    7.4893  -14.8536   18.8053 C   0  0  0  0  0  0  0  0  0  0  0  0
    8.2234  -15.9878   22.0142 C   0  0  0  0  0  0  0  0  0  0  0  0
    7.3570  -15.1046   21.8138 O   0  0  0  0  0  0  0  0  0  0  0  0
    8.8020  -16.0409   23.3179 N   0  0  0  0  0  0  0  0  0  0  0  0
    8.7119  -14.9304   24.2628 C   0  0  1  0  0  0  0  0  0  0  0  0
    7.2683  -14.6424   24.6135 C   0  0  0  0  0  0  0  0  0  0  0  0
    7.1092  -13.5762   25.6292 C   0  0  0  0  0  0  0  0  0  0  0  0
    6.4650  -13.8564   26.8355 C   0  0  0  0  0  0  0  0  0  0  0  0
    6.3438  -12.8579   27.7460 C   0  0  0  0  0  0  0  0  0  0  0  0
    6.8313  -11.5896   27.5201 C   0  0  0  0  0  0  0  0  0  0  0  0
    7.4701  -11.3016   26.3306 C   0  0  0  0  0  0  0  0  0  0  0  0
    7.6089  -12.2958   25.3853 C   0  0  0  0  0  0  0  0  0  0  0  0
    9.5276  -15.2760   25.4532 C   0  0  0  0  0  0  0  0  0  0  0  0
    9.8112  -14.4337   26.3460 O   0  0  0  0  0  0  0  0  0  0  0  0
   10.0308  -16.5979   25.6355 N   0  0  0  0  0  0  0  0  0  0  0  0
   10.7854  -16.9236   26.8153 C   0  0  1  0  0  0  0  0  0  0  0  0
    9.9907  -16.7341   28.0860 C   0  0  0  0  0  0  0  0  0  0  0  0
   11.0826  -17.1659   29.4721 S   0  0  0  0  0  0  0  0  0  0  0  0
   11.2281  -18.3356   26.7280 C   0  0  0  0  0  0  0  0  0  0  0  0
   12.3892  -18.6591   27.1154 O   0  0  0  0  0  0  0  0  0  0  0  0
   10.4096  -19.3171   26.2343 O   0  0  0  0  0  0  0  0  0  0  0  0
  2  1  1  6
  2 10  1  0
  3  2  1  0
  3  4  1  0
  4  9  1  0
  4  5  2  0
  5  6  1  0
  6  7  2  0
  8  7  1  0
  9  8  2  0
 10 11  2  0
 12 10  1  0
 12 13  1  0
 13 21  1  0
 13 14  1  1
 14 15  1  0
 15 16  2  0
 16 17  1  0
 18 17  2  0
 19 18  1  0
 20 15  1  0
 20 19  2  0
 21 22  2  0
 23 24  1  0
 23 21  1  0
 24 27  1  0
 24 25  1  1
 26 25  1  0
 27 28  2  0
 27 29  1  0
M  END
$$$$
