FFC.pdb
     RDKit          3D

 29 30  0  0  1  0  0  0  0  0999 V2000
    4.3013  -20.7292   21.2751 N   0  0  0  0  0  0  0  0  0  0  0  0
    4.0514  -19.4114   21.8221 C   0  0  1  0  0  0  0  0  0  0  0  0
    3.7433  -19.5938   23.2930 C   0  0  0  0  0  0  0  0  0  0  0  0
    2.3635  -20.0851   23.4345 C   0  0  0  0  0  0  0  0  0  0  0  0
    1.2857  -19.3833   22.8985 C   0  0  0  0  0  0  0  0  0  0  0  0
   -0.0009  -19.8576   23.0400 C   0  0  0  0  0  0  0  0  0  0  0  0
   -0.2366  -21.0410   23.7189 C   0  0  0  0  0  0  0  0  0  0  0  0
    0.8196  -21.7525   24.2583 C   0  0  0  0  0  0  0  0  0  0  0  0
    2.1139  -21.2491   24.1002 C   0  0  0  0  0  0  0  0  0  0  0  0
    5.2100  -18.5487   21.5859 C   0  0  0  0  0  0  0  0  0  0  0  0
    6.3519  -19.0592   21.5069 O   0  0  0  0  0  0  0  0  0  0  0  0
    5.1241  -17.1319   21.4362 N   0  0  0  0  0  0  0  0  0  0  0  0
    6.2859  -16.3037   21.1217 C   0  0  1  0  0  0  0  0  0  0  0  0
    5.8554  -14.9128   20.7097 C   0  0  0  0  0  0  0  0  0  0  0  0
    6.9896  -13.9905   20.4710 C   0  0  0  0  0  0  0  0  0  0  0  0
    7.7868  -14.1488   19.3361 C   0  0  0  0  0  0  0  0  0  0  0  0
    8.8122  -13.2812   19.1454 C   0  0  0  0  0  0  0  0  0  0  0  0
    9.0887  -12.2597   20.0271 C   0  0  0  0  0  0  0  0  0  0  0  0
    8.3066  -12.0940   21.1526 C   0  0  0  0  0  0  0  0  0  0  0  0
    7.2567  -12.9601   21.3739 C   0  0  0  0  0  0  0  0  0  0  0  0
    7.1755  -16.2947   22.3093 C   0  0  0  0  0  0  0  0  0  0  0  0
    6.7690  -15.9673   23.4559 O   0  0  0  0  0  0  0  0  0  0  0  0
    8.5487  -16.6627   22.1966 N   0  0  0  0  0  0  0  0  0  0  0  0
    9.4356  -16.4816   23.3137 C   0  0  1  0  0  0  0  0  0  0  0  0
    9.5471  -17.7172   24.1755 C   0  0  0  0  0  0  0  0  0  0  0  0
    9.7348  -19.1369   23.0579 S   0  0  0  0  0  0  0  0  0  0  0  0
   10.7815  -16.1236   22.8057 C   0  0  0  0  0  0  0  0  0  0  0  0
   11.0007  -16.0992   21.5590 O   0  0  0  0  0  0  0  0  0  0  0  0
   11.8117  -15.8134   23.6539 O   0  0  0  0  0  0  0  0  0  0  0  0
  2  1  1  1
  2 10  1  0
  3  2  1  0
  3  4  1  0
  4  9  1  0
  4  5  2  0
  5  6  1  0
  6  7  2  0
  8  7  1  0
  9  8  2  0
 10 11  2  0
 12 10  1  0
 12 13  1  0
 13 21  1  0
 13 14  1  1
 14 15  1  0
 15 16  2  0
 16 17  1  0
 18 17  2  0
 19 18  1  0
 20 15  1  0
 20 19  2  0
 21 22  2  0
 23 24  1  0
 23 21  1  0
 24 27  1  0
 24 25  1  6
 26 25  1  0
 27 28  2  0
 27 29  1  0
M  END
$$$$
