FFC.pdb
     RDKit          3D

 29 30  0  0  1  0  0  0  0  0999 V2000
    7.1115  -16.9367   26.3665 N   0  0  0  0  0  0  0  0  0  0  0  0
    6.8086  -16.7945   24.9572 C   0  0  1  0  0  0  0  0  0  0  0  0
    6.0549  -15.4917   24.7955 C   0  0  0  0  0  0  0  0  0  0  0  0
    6.7132  -14.4554   25.6066 C   0  0  0  0  0  0  0  0  0  0  0  0
    7.9395  -14.6896   26.2254 C   0  0  0  0  0  0  0  0  0  0  0  0
    8.5428  -13.7078   26.9819 C   0  0  0  0  0  0  0  0  0  0  0  0
    7.9341  -12.4737   27.1355 C   0  0  0  0  0  0  0  0  0  0  0  0
    6.7169  -12.2214   26.5295 C   0  0  0  0  0  0  0  0  0  0  0  0
    6.1272  -13.2344   25.7680 C   0  0  0  0  0  0  0  0  0  0  0  0
    8.0467  -16.8365   24.1774 C   0  0  0  0  0  0  0  0  0  0  0  0
    8.3885  -17.9067   23.6218 O   0  0  0  0  0  0  0  0  0  0  0  0
    8.9107  -15.7138   24.0035 N   0  0  0  0  0  0  0  0  0  0  0  0
   10.1732  -15.8004   23.2733 C   0  0  1  0  0  0  0  0  0  0  0  0
   10.4346  -14.5239   22.5040 C   0  0  0  0  0  0  0  0  0  0  0  0
    9.3021  -14.1112   21.6432 C   0  0  0  0  0  0  0  0  0  0  0  0
    9.0172  -14.8273   20.4793 C   0  0  0  0  0  0  0  0  0  0  0  0
    7.9679  -14.4259   19.7188 C   0  0  0  0  0  0  0  0  0  0  0  0
    7.1829  -13.3452   20.0553 C   0  0  0  0  0  0  0  0  0  0  0  0
    7.4556  -12.6300   21.2042 C   0  0  0  0  0  0  0  0  0  0  0  0
    8.5158  -13.0138   21.9980 C   0  0  0  0  0  0  0  0  0  0  0  0
   11.2468  -16.1042   24.2515 C   0  0  0  0  0  0  0  0  0  0  0  0
   12.3709  -15.5363   24.2195 O   0  0  0  0  0  0  0  0  0  0  0  0
   11.0440  -17.0674   25.2835 N   0  0  0  0  0  0  0  0  0  0  0  0
   11.5234  -16.8074   26.6139 C   0  0  1  0  0  0  0  0  0  0  0  0
   10.9239  -15.5582   27.2157 C   0  0  0  0  0  0  0  0  0  0  0  0
   11.5533  -15.4245   28.9144 S   0  0  0  0  0  0  0  0  0  0  0  0
   11.1947  -17.9661   27.4782 C   0  0  0  0  0  0  0  0  0  0  0  0
   10.3338  -18.8134   27.0990 O   0  0  0  0  0  0  0  0  0  0  0  0
   11.8012  -18.1531   28.6924 O   0  0  0  0  0  0  0  0  0  0  0  0
  2  1  1  1
  2 10  1  0
  3  2  1  0
  3  4  1  0
  4  9  1  0
  4  5  2  0
  5  6  1  0
  6  7  2  0
  8  7  1  0
  9  8  2  0
 10 11  2  0
 12 10  1  0
 12 13  1  0
 13 21  1  0
 13 14  1  1
 14 15  1  0
 15 16  2  0
 16 17  1  0
 18 17  2  0
 19 18  1  0
 20 15  1  0
 20 19  2  0
 21 22  2  0
 23 24  1  0
 23 21  1  0
 24 27  1  0
 24 25  1  1
 26 25  1  0
 27 28  2  0
 27 29  1  0
M  END
$$$$
