FFC.pdb
     RDKit          3D

 29 30  0  0  1  0  0  0  0  0999 V2000
    9.7254  -17.8613   20.2221 N   0  0  0  0  0  0  0  0  0  0  0  0
    8.9605  -18.1140   21.4261 C   0  0  1  0  0  0  0  0  0  0  0  0
    9.4251  -19.4464   21.9742 C   0  0  0  0  0  0  0  0  0  0  0  0
    8.8714  -20.5249   21.1403 C   0  0  0  0  0  0  0  0  0  0  0  0
    7.5234  -20.8715   21.2046 C   0  0  0  0  0  0  0  0  0  0  0  0
    7.0207  -21.8846   20.4164 C   0  0  0  0  0  0  0  0  0  0  0  0
    7.8534  -22.5711   19.5491 C   0  0  0  0  0  0  0  0  0  0  0  0
    9.1944  -22.2424   19.4704 C   0  0  0  0  0  0  0  0  0  0  0  0
    9.6780  -21.2112   20.2808 C   0  0  0  0  0  0  0  0  0  0  0  0
    9.1473  -17.0129   22.3722 C   0  0  0  0  0  0  0  0  0  0  0  0
   10.2900  -16.5223   22.5284 O   0  0  0  0  0  0  0  0  0  0  0  0
    8.0903  -16.4474   23.1469 N   0  0  0  0  0  0  0  0  0  0  0  0
    8.3090  -15.3613   24.0992 C   0  0  1  0  0  0  0  0  0  0  0  0
    7.0271  -14.5938   24.3387 C   0  0  0  0  0  0  0  0  0  0  0  0
    7.1512  -13.5481   25.3803 C   0  0  0  0  0  0  0  0  0  0  0  0
    6.4875  -13.6992   26.5990 C   0  0  0  0  0  0  0  0  0  0  0  0
    6.6298  -12.7254   27.5330 C   0  0  0  0  0  0  0  0  0  0  0  0
    7.4005  -11.6040   27.3188 C   0  0  0  0  0  0  0  0  0  0  0  0
    8.0613  -11.4445   26.1172 C   0  0  0  0  0  0  0  0  0  0  0  0
    7.9362  -12.4174   25.1481 C   0  0  0  0  0  0  0  0  0  0  0  0
    8.8600  -15.9499   25.3449 C   0  0  0  0  0  0  0  0  0  0  0  0
    8.2749  -16.8717   25.9733 O   0  0  0  0  0  0  0  0  0  0  0  0
   10.0946  -15.4867   25.8881 N   0  0  0  0  0  0  0  0  0  0  0  0
   10.7360  -16.2215   26.9445 C   0  0  1  0  0  0  0  0  0  0  0  0
   12.2053  -15.8948   27.0729 C   0  0  0  0  0  0  0  0  0  0  0  0
   12.3319  -14.1166   27.4218 S   0  0  0  0  0  0  0  0  0  0  0  0
   10.0581  -15.9116   28.2258 C   0  0  0  0  0  0  0  0  0  0  0  0
    9.1703  -15.0100   28.2694 O   0  0  0  0  0  0  0  0  0  0  0  0
   10.3654  -16.5789   29.3823 O   0  0  0  0  0  0  0  0  0  0  0  0
  2  1  1  6
  2 10  1  0
  3  2  1  0
  3  4  1  0
  4  9  1  0
  4  5  2  0
  5  6  1  0
  6  7  2  0
  8  7  1  0
  9  8  2  0
 10 11  2  0
 12 10  1  0
 12 13  1  0
 13 21  1  0
 13 14  1  1
 14 15  1  0
 15 16  2  0
 16 17  1  0
 18 17  2  0
 19 18  1  0
 20 15  1  0
 20 19  2  0
 21 22  2  0
 23 24  1  0
 23 21  1  0
 24 27  1  0
 24 25  1  1
 26 25  1  0
 27 28  2  0
 27 29  1  0
M  END
$$$$
