WCP.pdb
     RDKit          3D

 28 30  0  0  1  0  0  0  0  0999 V2000
    6.4097  -17.8778   24.7531 N   0  0  0  0  0  0  0  0  0  0  0  0
    7.0294  -16.8146   23.9787 C   0  0  1  0  0  0  0  0  0  0  0  0
    7.8510  -15.9942   24.9647 C   0  0  0  0  0  0  0  0  0  0  0  0
    7.0133  -15.0706   25.7498 C   0  0  0  0  0  0  0  0  0  0  0  0
    5.8745  -15.4361   26.4432 C   0  0  0  0  0  0  0  0  0  0  0  0
    5.3873  -14.3167   27.0314 N   0  0  0  0  0  0  0  0  0  0  0  0
    6.2023  -13.2785   26.7128 C   0  0  0  0  0  0  0  0  0  0  0  0
    6.1399  -11.9521   27.0590 C   0  0  0  0  0  0  0  0  0  0  0  0
    7.0972  -11.0732   26.6067 C   0  0  0  0  0  0  0  0  0  0  0  0
    8.1346  -11.4883   25.8043 C   0  0  0  0  0  0  0  0  0  0  0  0
    8.1838  -12.8155   25.4669 C   0  0  0  0  0  0  0  0  0  0  0  0
    7.2268  -13.7120   25.9145 C   0  0  0  0  0  0  0  0  0  0  0  0
    7.9345  -17.4025   22.9258 C   0  0  0  0  0  0  0  0  0  0  0  0
    8.5990  -18.4425   23.1585 O   0  0  0  0  0  0  0  0  0  0  0  0
    8.0544  -16.7961   21.6557 N   0  0  0  0  0  0  0  0  0  0  0  0
    8.9123  -17.4261   20.6274 C   0  0  1  0  0  0  0  0  0  0  0  0
    8.5875  -16.8113   19.2936 C   0  0  0  0  0  0  0  0  0  0  0  0
    8.7563  -15.0299   19.2355 S   0  0  0  0  0  0  0  0  0  0  0  0
   10.3169  -17.3734   21.0313 C   0  0  0  0  0  0  0  0  0  0  0  0
   10.6483  -16.3177   21.6953 O   0  0  0  0  0  0  0  0  0  0  0  0
   11.3396  -18.3169   20.7932 N   0  0  0  0  0  0  0  0  0  0  0  0
   11.0074  -19.5914   20.1092 C   0  0  0  0  0  0  0  0  0  0  0  0
   12.0801  -20.5458   20.5870 C   0  0  0  0  0  0  0  0  0  0  0  0
   13.2994  -19.7023   20.7374 C   0  0  0  0  0  0  0  0  0  0  0  0
   12.7481  -18.3287   21.0675 C   0  0  1  0  0  0  0  0  0  0  0  0
   13.4910  -17.2875   20.2784 C   0  0  0  0  0  0  0  0  0  0  0  0
   12.9785  -16.8654   19.2228 O   0  0  0  0  0  0  0  0  0  0  0  0
   14.7055  -16.8007   20.6950 O   0  0  0  0  0  0  0  0  0  0  0  0
  2  3  1  0
  2  1  1  1
  3  4  1  0
  4 12  1  0
  4  5  2  0
  5  6  1  0
  7  6  1  0
  7  8  2  0
  9  8  1  0
 10  9  2  0
 11 12  2  0
 11 10  1  0
 12  7  1  0
 13  2  1  0
 13 15  1  0
 14 13  2  0
 16 15  1  0
 16 17  1  6
 18 17  1  0
 19 16  1  0
 20 19  2  0
 21 19  1  0
 21 25  1  0
 22 21  1  0
 23 22  1  0
 23 24  1  0
 24 25  1  0
 25 26  1  6
 26 28  1  0
 27 26  2  0
M  END
$$$$
