WCP.pdb
     RDKit          3D

 28 30  0  0  1  0  0  0  0  0999 V2000
    5.8454  -17.5179   22.2528 N   0  0  0  0  0  0  0  0  0  0  0  0
    6.8176  -16.6465   22.8929 C   0  0  1  0  0  0  0  0  0  0  0  0
    6.2856  -15.2279   22.7349 C   0  0  0  0  0  0  0  0  0  0  0  0
    7.1810  -14.2295   23.3452 C   0  0  0  0  0  0  0  0  0  0  0  0
    8.5024  -14.0342   22.9889 C   0  0  0  0  0  0  0  0  0  0  0  0
    8.9851  -13.0384   23.7712 N   0  0  0  0  0  0  0  0  0  0  0  0
    7.9891  -12.6227   24.5950 C   0  0  0  0  0  0  0  0  0  0  0  0
    7.9744  -11.6488   25.5617 C   0  0  0  0  0  0  0  0  0  0  0  0
    6.8265  -11.4043   26.2800 C   0  0  0  0  0  0  0  0  0  0  0  0
    5.6713  -12.1170   26.0565 C   0  0  0  0  0  0  0  0  0  0  0  0
    5.7011  -13.0861   25.0883 C   0  0  0  0  0  0  0  0  0  0  0  0
    6.8497  -13.3438   24.3573 C   0  0  0  0  0  0  0  0  0  0  0  0
    6.9325  -16.9880   24.3569 C   0  0  0  0  0  0  0  0  0  0  0  0
    5.9357  -16.9026   25.1162 O   0  0  0  0  0  0  0  0  0  0  0  0
    8.1635  -17.4111   24.9057 N   0  0  0  0  0  0  0  0  0  0  0  0
    8.2748  -17.6196   26.3666 C   0  0  1  0  0  0  0  0  0  0  0  0
    7.8695  -19.0341   26.6785 C   0  0  0  0  0  0  0  0  0  0  0  0
    8.2449  -19.5640   28.3470 S   0  0  0  0  0  0  0  0  0  0  0  0
    9.5969  -17.2132   26.8417 C   0  0  0  0  0  0  0  0  0  0  0  0
   10.5859  -17.7592   26.2180 O   0  0  0  0  0  0  0  0  0  0  0  0
    9.9236  -16.3117   27.8777 N   0  0  0  0  0  0  0  0  0  0  0  0
    8.8392  -15.5539   28.5503 C   0  0  0  0  0  0  0  0  0  0  0  0
    9.5360  -14.3159   29.0715 C   0  0  0  0  0  0  0  0  0  0  0  0
   10.9034  -14.7775   29.4428 C   0  0  0  0  0  0  0  0  0  0  0  0
   11.1620  -15.9337   28.4963 C   0  0  1  0  0  0  0  0  0  0  0  0
   11.7910  -17.0697   29.2529 C   0  0  0  0  0  0  0  0  0  0  0  0
   11.0833  -18.0556   29.5397 O   0  0  0  0  0  0  0  0  0  0  0  0
   13.1120  -17.0403   29.6270 O   0  0  0  0  0  0  0  0  0  0  0  0
  2  3  1  0
  2  1  1  6
  3  4  1  0
  4 12  1  0
  4  5  2  0
  5  6  1  0
  7  6  1  0
  7  8  2  0
  9  8  1  0
 10  9  2  0
 11 12  2  0
 11 10  1  0
 12  7  1  0
 13  2  1  0
 13 15  1  0
 14 13  2  0
 16 15  1  0
 16 17  1  6
 18 17  1  0
 19 16  1  0
 20 19  2  0
 21 19  1  0
 21 25  1  0
 22 21  1  0
 23 22  1  0
 23 24  1  0
 24 25  1  0
 25 26  1  1
 26 28  1  0
 27 26  2  0
M  END
$$$$
