WCP.pdb
     RDKit          3D

 28 30  0  0  1  0  0  0  0  0999 V2000
    6.3942  -17.2852   25.1905 N   0  0  0  0  0  0  0  0  0  0  0  0
    6.8522  -16.0241   24.6300 C   0  0  1  0  0  0  0  0  0  0  0  0
    8.2375  -15.7779   25.2137 C   0  0  0  0  0  0  0  0  0  0  0  0
    8.1911  -14.9072   26.4015 C   0  0  0  0  0  0  0  0  0  0  0  0
    8.7311  -15.2261   27.6335 C   0  0  0  0  0  0  0  0  0  0  0  0
    8.4854  -14.1813   28.4609 N   0  0  0  0  0  0  0  0  0  0  0  0
    7.8089  -13.2340   27.7620 C   0  0  0  0  0  0  0  0  0  0  0  0
    7.3359  -12.0045   28.1465 C   0  0  0  0  0  0  0  0  0  0  0  0
    6.6684  -11.2072   27.2453 C   0  0  0  0  0  0  0  0  0  0  0  0
    6.4561  -11.6092   25.9469 C   0  0  0  0  0  0  0  0  0  0  0  0
    6.9341  -12.8392   25.5775 C   0  0  0  0  0  0  0  0  0  0  0  0
    7.6077  -13.6530   26.4741 C   0  0  0  0  0  0  0  0  0  0  0  0
    6.9427  -16.1287   23.1286 C   0  0  0  0  0  0  0  0  0  0  0  0
    6.9920  -17.2501   22.5650 O   0  0  0  0  0  0  0  0  0  0  0  0
    6.9740  -14.9681   22.3240 N   0  0  0  0  0  0  0  0  0  0  0  0
    7.4186  -15.0711   20.9163 C   0  0  1  0  0  0  0  0  0  0  0  0
    7.4597  -13.6880   20.3268 C   0  0  0  0  0  0  0  0  0  0  0  0
    8.2056  -13.5944   18.7019 S   0  0  0  0  0  0  0  0  0  0  0  0
    8.6582  -15.8419   20.8268 C   0  0  0  0  0  0  0  0  0  0  0  0
    9.5148  -15.5968   21.7603 O   0  0  0  0  0  0  0  0  0  0  0  0
    9.0300  -16.8068   19.8657 N   0  0  0  0  0  0  0  0  0  0  0  0
    8.0428  -17.2303   18.8417 C   0  0  0  0  0  0  0  0  0  0  0  0
    8.5013  -18.6191   18.4534 C   0  0  0  0  0  0  0  0  0  0  0  0
    9.9878  -18.5678   18.5448 C   0  0  0  0  0  0  0  0  0  0  0  0
   10.2465  -17.5257   19.6156 C   0  0  1  0  0  0  0  0  0  0  0  0
   11.3628  -16.6210   19.1752 C   0  0  0  0  0  0  0  0  0  0  0  0
   11.0781  -15.4655   18.8026 O   0  0  0  0  0  0  0  0  0  0  0  0
   12.6707  -17.0394   19.1772 O   0  0  0  0  0  0  0  0  0  0  0  0
  2  3  1  0
  2  1  1  1
  3  4  1  0
  4 12  1  0
  4  5  2  0
  5  6  1  0
  7  6  1  0
  7  8  2  0
  9  8  1  0
 10  9  2  0
 11 12  2  0
 11 10  1  0
 12  7  1  0
 13  2  1  0
 13 15  1  0
 14 13  2  0
 16 15  1  0
 16 17  1  1
 18 17  1  0
 19 16  1  0
 20 19  2  0
 21 19  1  0
 21 25  1  0
 22 21  1  0
 23 22  1  0
 23 24  1  0
 24 25  1  0
 25 26  1  6
 26 28  1  0
 27 26  2  0
M  END
$$$$
