WCP.pdb
     RDKit          3D

 28 30  0  0  1  0  0  0  0  0999 V2000
    6.3909  -19.2473   26.5954 N   0  0  0  0  0  0  0  0  0  0  0  0
    7.1305  -18.0245   26.8639 C   0  0  1  0  0  0  0  0  0  0  0  0
    8.5923  -18.4323   26.9949 C   0  0  0  0  0  0  0  0  0  0  0  0
    9.2958  -17.6480   28.0250 C   0  0  0  0  0  0  0  0  0  0  0  0
    9.7864  -18.1644   29.2099 C   0  0  0  0  0  0  0  0  0  0  0  0
   10.3602  -17.1397   29.8861 N   0  0  0  0  0  0  0  0  0  0  0  0
   10.2308  -16.0120   29.1412 C   0  0  0  0  0  0  0  0  0  0  0  0
   10.6423  -14.7257   29.3848 C   0  0  0  0  0  0  0  0  0  0  0  0
   10.3929  -13.7335   28.4645 C   0  0  0  0  0  0  0  0  0  0  0  0
    9.7328  -13.9934   27.2860 C   0  0  0  0  0  0  0  0  0  0  0  0
    9.3280  -15.2823   27.0566 C   0  0  0  0  0  0  0  0  0  0  0  0
    9.5717  -16.2916   27.9740 C   0  0  0  0  0  0  0  0  0  0  0  0
    6.9706  -17.0613   25.7151 C   0  0  0  0  0  0  0  0  0  0  0  0
    6.7392  -17.4799   24.5538 O   0  0  0  0  0  0  0  0  0  0  0  0
    7.0779  -15.6678   25.9204 N   0  0  0  0  0  0  0  0  0  0  0  0
    6.9186  -14.7493   24.7710 C   0  0  1  0  0  0  0  0  0  0  0  0
    6.9406  -13.3355   25.2839 C   0  0  0  0  0  0  0  0  0  0  0  0
    5.6687  -12.9616   26.4872 S   0  0  0  0  0  0  0  0  0  0  0  0
    7.8907  -15.0657   23.7252 C   0  0  0  0  0  0  0  0  0  0  0  0
    8.8695  -15.8149   24.1070 O   0  0  0  0  0  0  0  0  0  0  0  0
    7.8929  -14.6644   22.3718 N   0  0  0  0  0  0  0  0  0  0  0  0
    6.8560  -13.7164   21.8934 C   0  0  0  0  0  0  0  0  0  0  0  0
    6.7530  -14.0136   20.4132 C   0  0  0  0  0  0  0  0  0  0  0  0
    8.1385  -14.3760   20.0012 C   0  0  0  0  0  0  0  0  0  0  0  0
    8.7430  -14.9725   21.2575 C   0  0  1  0  0  0  0  0  0  0  0  0
   10.1379  -14.4445   21.4420 C   0  0  0  0  0  0  0  0  0  0  0  0
   10.3378  -13.5947   22.3324 O   0  0  0  0  0  0  0  0  0  0  0  0
   11.1797  -14.8767   20.6587 O   0  0  0  0  0  0  0  0  0  0  0  0
  2  3  1  0
  2  1  1  6
  3  4  1  0
  4 12  1  0
  4  5  2  0
  5  6  1  0
  7  6  1  0
  7  8  2  0
  9  8  1  0
 10  9  2  0
 11 12  2  0
 11 10  1  0
 12  7  1  0
 13  2  1  0
 13 15  1  0
 14 13  2  0
 16 15  1  0
 16 17  1  1
 18 17  1  0
 19 16  1  0
 20 19  2  0
 21 19  1  0
 21 25  1  0
 22 21  1  0
 23 22  1  0
 23 24  1  0
 24 25  1  0
 25 26  1  1
 26 28  1  0
 27 26  2  0
M  END
$$$$
