WCP.pdb
     RDKit          3D

 28 30  0  0  1  0  0  0  0  0999 V2000
    6.1619  -17.8444   24.0674 N   0  0  0  0  0  0  0  0  0  0  0  0
    6.5746  -16.4726   23.8177 C   0  0  1  0  0  0  0  0  0  0  0  0
    7.6453  -16.1558   24.8538 C   0  0  0  0  0  0  0  0  0  0  0  0
    7.1314  -15.2996   25.9372 C   0  0  0  0  0  0  0  0  0  0  0  0
    6.5069  -15.7644   27.0797 C   0  0  0  0  0  0  0  0  0  0  0  0
    6.1801  -14.6816   27.8261 N   0  0  0  0  0  0  0  0  0  0  0  0
    6.5909  -13.5688   27.1656 C   0  0  0  0  0  0  0  0  0  0  0  0
    6.4941  -12.2416   27.5007 C   0  0  0  0  0  0  0  0  0  0  0  0
    6.9925  -11.2766   26.6558 C   0  0  0  0  0  0  0  0  0  0  0  0
    7.5964  -11.6046   25.4641 C   0  0  0  0  0  0  0  0  0  0  0  0
    7.6858  -12.9337   25.1430 C   0  0  0  0  0  0  0  0  0  0  0  0
    7.1882  -13.9164   25.9836 C   0  0  0  0  0  0  0  0  0  0  0  0
    7.1548  -16.3520   22.4314 C   0  0  0  0  0  0  0  0  0  0  0  0
    7.6314  -17.3554   21.8452 O   0  0  0  0  0  0  0  0  0  0  0  0
    7.1749  -15.1080   21.7623 N   0  0  0  0  0  0  0  0  0  0  0  0
    7.7845  -15.0159   20.4169 C   0  0  1  0  0  0  0  0  0  0  0  0
    7.6832  -13.5917   19.9441 C   0  0  0  0  0  0  0  0  0  0  0  0
    8.5417  -13.2552   18.4094 S   0  0  0  0  0  0  0  0  0  0  0  0
    9.1279  -15.5938   20.4237 C   0  0  0  0  0  0  0  0  0  0  0  0
    9.8667  -15.2306   21.4175 O   0  0  0  0  0  0  0  0  0  0  0  0
    9.7093  -16.4866   19.4976 N   0  0  0  0  0  0  0  0  0  0  0  0
    8.8774  -17.0373   18.3988 C   0  0  0  0  0  0  0  0  0  0  0  0
    9.5595  -18.3426   18.0513 C   0  0  0  0  0  0  0  0  0  0  0  0
   11.0113  -18.0801   18.2612 C   0  0  0  0  0  0  0  0  0  0  0  0
   11.0322  -17.0218   19.3470 C   0  0  1  0  0  0  0  0  0  0  0  0
   12.0387  -15.9625   18.9953 C   0  0  0  0  0  0  0  0  0  0  0  0
   13.2471  -16.2704   18.9908 O   0  0  0  0  0  0  0  0  0  0  0  0
   11.6550  -14.6816   18.6830 O   0  0  0  0  0  0  0  0  0  0  0  0
  2  3  1  0
  2  1  1  1
  3  4  1  0
  4 12  1  0
  4  5  2  0
  5  6  1  0
  7  6  1  0
  7  8  2  0
  9  8  1  0
 10  9  2  0
 11 12  2  0
 11 10  1  0
 12  7  1  0
 13  2  1  0
 13 15  1  0
 14 13  2  0
 16 15  1  0
 16 17  1  1
 18 17  1  0
 19 16  1  0
 20 19  2  0
 21 19  1  0
 21 25  1  0
 22 21  1  0
 23 22  1  0
 23 24  1  0
 24 25  1  0
 25 26  1  6
 26 28  1  0
 27 26  2  0
M  END
$$$$
