QHN.pdb
     RDKit          3D

 28 28  0  0  1  0  0  0  0  0999 V2000
    7.6302  -12.2706   18.2518 N   0  0  0  0  0  0  0  0  0  0  0  0
    7.4942  -13.5298   17.5939 C   0  0  0  0  0  0  0  0  0  0  0  0
    7.1201  -13.5697   16.3979 O   0  0  0  0  0  0  0  0  0  0  0  0
    7.7908  -14.7864   18.3035 C   0  0  0  0  0  0  0  0  0  0  0  0
    8.1163  -14.5281   19.7297 C   0  0  0  0  0  0  0  0  0  0  0  0
    8.7351  -15.7452   20.3538 C   0  0  2  0  0  0  0  0  0  0  0  0
    7.7532  -16.8255   20.2239 N   0  0  0  0  0  0  0  0  0  0  0  0
    8.9550  -15.5278   21.8157 C   0  0  0  0  0  0  0  0  0  0  0  0
    9.8274  -14.6420   22.1021 O   0  0  0  0  0  0  0  0  0  0  0  0
    8.2505  -16.2480   22.7963 N   0  0  0  0  0  0  0  0  0  0  0  0
    8.6351  -15.9802   24.2246 C   0  0  1  0  0  0  0  0  0  0  0  0
    7.3109  -15.8813   24.9069 C   0  0  0  0  0  0  0  0  0  0  0  0
    6.9756  -14.5573   25.4225 C   0  0  0  0  0  0  0  0  0  0  0  0
    7.8911  -13.4755   25.3522 C   0  0  0  0  0  0  0  0  0  0  0  0
    7.3508  -12.3746   25.8879 N   0  0  0  0  0  0  0  0  0  0  0  0
    6.1214  -12.7155   26.2980 C   0  0  0  0  0  0  0  0  0  0  0  0
    5.9178  -14.0074   26.0151 N   0  0  0  0  0  0  0  0  0  0  0  0
    9.4934  -17.0781   24.6621 C   0  0  0  0  0  0  0  0  0  0  0  0
    9.1292  -18.2621   24.3457 O   0  0  0  0  0  0  0  0  0  0  0  0
   13.6783  -16.6361   23.4447 N   0  0  0  0  0  0  0  0  0  0  0  0
   13.2716  -17.7503   24.2189 C   0  0  0  0  0  0  0  0  0  0  0  0
   13.2371  -18.9015   23.6556 O   0  0  0  0  0  0  0  0  0  0  0  0
   12.8774  -17.7339   25.6275 C   0  0  0  0  0  0  0  0  0  0  0  0
   11.4577  -18.0324   25.9255 C   0  0  2  0  0  0  0  0  0  0  0  0
   10.6704  -16.9149   25.3859 N   0  0  0  0  0  0  0  0  0  0  0  0
   11.1273  -18.1980   27.3557 C   0  0  0  0  0  0  0  0  0  0  0  0
   11.4669  -19.2920   28.1328 O   0  0  0  0  0  0  0  0  0  0  0  0
   10.4863  -17.2846   27.9346 O   0  0  0  0  0  0  0  0  0  0  0  0
  2  3  2  0
  2  1  1  0
  4  2  1  0
  5  4  1  0
  5  6  1  0
  6  7  1  1
  6  8  1  0
  8  9  2  0
 10  8  1  0
 10 11  1  0
 11 12  1  1
 13 12  1  0
 14 13  2  0
 15 16  1  0
 15 14  1  0
 16 17  2  0
 17 13  1  0
 18 11  1  0
 18 19  2  0
 20 21  1  0
 21 23  1  0
 21 22  2  0
 24 23  1  1
 24 25  1  0
 24 26  1  0
 25 18  1  0
 26 27  1  0
 28 26  2  0
M  END
$$$$
