QHN.pdb
     RDKit          3D

 28 28  0  0  1  0  0  0  0  0999 V2000
   10.8546  -16.3341   13.7825 N   0  0  0  0  0  0  0  0  0  0  0  0
    9.7304  -16.8932   14.4612 C   0  0  0  0  0  0  0  0  0  0  0  0
    8.6331  -16.9996   13.8642 O   0  0  0  0  0  0  0  0  0  0  0  0
    9.8442  -17.3501   15.8572 C   0  0  0  0  0  0  0  0  0  0  0  0
   11.2309  -17.1794   16.3618 C   0  0  0  0  0  0  0  0  0  0  0  0
   11.3654  -17.7742   17.7336 C   0  0  2  0  0  0  0  0  0  0  0  0
   10.3263  -18.8016   17.8464 N   0  0  0  0  0  0  0  0  0  0  0  0
   11.0787  -16.7458   18.7790 C   0  0  0  0  0  0  0  0  0  0  0  0
   11.9273  -15.7953   18.8450 O   0  0  0  0  0  0  0  0  0  0  0  0
    9.9570  -16.8252   19.6227 N   0  0  0  0  0  0  0  0  0  0  0  0
    9.8458  -15.7672   20.6848 C   0  0  1  0  0  0  0  0  0  0  0  0
    8.4140  -15.3558   20.5881 C   0  0  0  0  0  0  0  0  0  0  0  0
    8.0410  -14.6945   19.3412 C   0  0  0  0  0  0  0  0  0  0  0  0
    8.2903  -13.3144   19.1251 C   0  0  0  0  0  0  0  0  0  0  0  0
    7.8595  -12.9494   17.9118 N   0  0  0  0  0  0  0  0  0  0  0  0
    7.3435  -14.0485   17.3450 C   0  0  0  0  0  0  0  0  0  0  0  0
    7.4594  -15.0684   18.2034 N   0  0  0  0  0  0  0  0  0  0  0  0
   10.2474  -16.3724   21.9520 C   0  0  0  0  0  0  0  0  0  0  0  0
   10.2570  -17.6496   22.0090 O   0  0  0  0  0  0  0  0  0  0  0  0
    9.5078  -14.1499   25.9127 N   0  0  0  0  0  0  0  0  0  0  0  0
    9.0534  -15.4308   25.5137 C   0  0  0  0  0  0  0  0  0  0  0  0
    7.7893  -15.6401   25.4684 O   0  0  0  0  0  0  0  0  0  0  0  0
    9.8878  -16.5714   25.1363 C   0  0  0  0  0  0  0  0  0  0  0  0
   11.0928  -16.2766   24.3273 C   0  0  2  0  0  0  0  0  0  0  0  0
   10.6219  -15.6529   23.0826 N   0  0  0  0  0  0  0  0  0  0  0  0
   11.9324  -17.4428   23.9850 C   0  0  0  0  0  0  0  0  0  0  0  0
   13.3040  -17.5173   24.1554 O   0  0  0  0  0  0  0  0  0  0  0  0
   11.3782  -18.4607   23.4982 O   0  0  0  0  0  0  0  0  0  0  0  0
  2  3  2  0
  2  1  1  0
  4  2  1  0
  5  4  1  0
  5  6  1  0
  6  7  1  6
  6  8  1  0
  8  9  2  0
 10  8  1  0
 10 11  1  0
 11 12  1  1
 13 12  1  0
 14 13  2  0
 15 16  1  0
 15 14  1  0
 16 17  2  0
 17 13  1  0
 18 11  1  0
 18 19  2  0
 20 21  1  0
 21 23  1  0
 21 22  2  0
 24 23  1  1
 24 25  1  0
 24 26  1  0
 25 18  1  0
 26 27  1  0
 28 26  2  0
M  END
$$$$
