QHN.pdb
     RDKit          3D

 28 28  0  0  1  0  0  0  0  0999 V2000
   15.9360  -12.2427   15.9809 N   0  0  0  0  0  0  0  0  0  0  0  0
   16.2948  -13.6232   16.0311 C   0  0  0  0  0  0  0  0  0  0  0  0
   16.8575  -14.1560   15.0455 O   0  0  0  0  0  0  0  0  0  0  0  0
   16.0137  -14.4314   17.2304 C   0  0  0  0  0  0  0  0  0  0  0  0
   14.5888  -14.3095   17.6324 C   0  0  0  0  0  0  0  0  0  0  0  0
   14.0831  -15.6167   18.1700 C   0  0  2  0  0  0  0  0  0  0  0  0
   13.2915  -16.2296   17.0995 N   0  0  0  0  0  0  0  0  0  0  0  0
   13.1579  -15.3854   19.3202 C   0  0  0  0  0  0  0  0  0  0  0  0
   13.6869  -14.8090   20.3280 O   0  0  0  0  0  0  0  0  0  0  0  0
   11.8077  -15.7756   19.2881 N   0  0  0  0  0  0  0  0  0  0  0  0
   11.0164  -15.5420   20.5447 C   0  0  1  0  0  0  0  0  0  0  0  0
    9.6079  -15.7169   20.0817 C   0  0  0  0  0  0  0  0  0  0  0  0
    9.0410  -14.5736   19.3728 C   0  0  0  0  0  0  0  0  0  0  0  0
    9.7449  -13.3476   19.2508 C   0  0  0  0  0  0  0  0  0  0  0  0
    9.0178  -12.4616   18.5601 N   0  0  0  0  0  0  0  0  0  0  0  0
    7.8734  -13.0790   18.2363 C   0  0  0  0  0  0  0  0  0  0  0  0
    7.9051  -14.3245   18.7244 N   0  0  0  0  0  0  0  0  0  0  0  0
   11.4802  -16.5035   21.5415 C   0  0  0  0  0  0  0  0  0  0  0  0
   11.6242  -17.7147   21.1580 O   0  0  0  0  0  0  0  0  0  0  0  0
   14.1644  -19.2192   24.7917 N   0  0  0  0  0  0  0  0  0  0  0  0
   14.4815  -17.8445   24.6656 C   0  0  0  0  0  0  0  0  0  0  0  0
   15.6914  -17.4780   24.8793 O   0  0  0  0  0  0  0  0  0  0  0  0
   13.5583  -16.7677   24.3078 C   0  0  0  0  0  0  0  0  0  0  0  0
   12.2040  -17.1713   23.8645 C   0  0  2  0  0  0  0  0  0  0  0  0
   11.7775  -16.1841   22.8627 N   0  0  0  0  0  0  0  0  0  0  0  0
   11.1797  -17.2418   24.9265 C   0  0  0  0  0  0  0  0  0  0  0  0
   10.9622  -18.3284   25.7559 O   0  0  0  0  0  0  0  0  0  0  0  0
   10.4339  -16.2465   25.1098 O   0  0  0  0  0  0  0  0  0  0  0  0
  2  3  2  0
  2  1  1  0
  4  2  1  0
  5  4  1  0
  5  6  1  0
  6  7  1  6
  6  8  1  0
  8  9  2  0
 10  8  1  0
 10 11  1  0
 11 12  1  6
 13 12  1  0
 14 13  2  0
 15 16  1  0
 15 14  1  0
 16 17  2  0
 17 13  1  0
 18 11  1  0
 18 19  2  0
 20 21  1  0
 21 23  1  0
 21 22  2  0
 24 23  1  1
 24 25  1  0
 24 26  1  0
 25 18  1  0
 26 27  1  0
 28 26  2  0
M  END
$$$$
