QHN.pdb
     RDKit          3D

 28 28  0  0  1  0  0  0  0  0999 V2000
   14.2569  -19.9090   19.4096 N   0  0  0  0  0  0  0  0  0  0  0  0
   13.2563  -20.1847   18.4298 C   0  0  0  0  0  0  0  0  0  0  0  0
   13.4488  -21.0873   17.5811 O   0  0  0  0  0  0  0  0  0  0  0  0
   11.9963  -19.4217   18.4044 C   0  0  0  0  0  0  0  0  0  0  0  0
   11.9434  -18.4444   19.5219 C   0  0  0  0  0  0  0  0  0  0  0  0
   10.5220  -18.0590   19.8131 C   0  0  2  0  0  0  0  0  0  0  0  0
   10.0702  -17.2453   18.6809 N   0  0  0  0  0  0  0  0  0  0  0  0
   10.4544  -17.1926   21.0286 C   0  0  0  0  0  0  0  0  0  0  0  0
   11.5326  -16.5689   21.3046 O   0  0  0  0  0  0  0  0  0  0  0  0
    9.2880  -17.0776   21.8049 N   0  0  0  0  0  0  0  0  0  0  0  0
    9.3881  -16.2195   23.0350 C   0  0  1  0  0  0  0  0  0  0  0  0
    8.1371  -15.4074   22.9702 C   0  0  0  0  0  0  0  0  0  0  0  0
    8.0683  -14.4610   21.8607 C   0  0  0  0  0  0  0  0  0  0  0  0
    9.1567  -14.2758   20.9695 C   0  0  0  0  0  0  0  0  0  0  0  0
    8.8477  -13.3607   20.0432 N   0  0  0  0  0  0  0  0  0  0  0  0
    7.5991  -12.9547   20.3117 C   0  0  0  0  0  0  0  0  0  0  0  0
    7.1556  -13.6150   21.3877 N   0  0  0  0  0  0  0  0  0  0  0  0
    9.5058  -17.1120   24.1853 C   0  0  0  0  0  0  0  0  0  0  0  0
    8.5651  -17.9596   24.3620 O   0  0  0  0  0  0  0  0  0  0  0  0
   11.7569  -20.6153   24.5388 N   0  0  0  0  0  0  0  0  0  0  0  0
   12.3339  -19.3845   24.9368 C   0  0  0  0  0  0  0  0  0  0  0  0
   13.2184  -18.8537   24.1754 O   0  0  0  0  0  0  0  0  0  0  0  0
   12.0238  -18.6305   26.1514 C   0  0  0  0  0  0  0  0  0  0  0  0
   10.6788  -18.0152   26.2283 C   0  0  2  0  0  0  0  0  0  0  0  0
   10.5684  -17.1003   25.0835 N   0  0  0  0  0  0  0  0  0  0  0  0
   10.3917  -17.2622   27.4663 C   0  0  0  0  0  0  0  0  0  0  0  0
   10.1553  -15.9002   27.5364 O   0  0  0  0  0  0  0  0  0  0  0  0
   10.3542  -17.8881   28.5560 O   0  0  0  0  0  0  0  0  0  0  0  0
  2  3  2  0
  2  1  1  0
  4  2  1  0
  5  4  1  0
  5  6  1  0
  6  7  1  6
  6  8  1  0
  8  9  2  0
 10  8  1  0
 10 11  1  0
 11 12  1  1
 13 12  1  0
 14 13  2  0
 15 16  1  0
 15 14  1  0
 16 17  2  0
 17 13  1  0
 18 11  1  0
 18 19  2  0
 20 21  1  0
 21 23  1  0
 21 22  2  0
 24 23  1  1
 24 25  1  0
 24 26  1  0
 25 18  1  0
 26 27  1  0
 28 26  2  0
M  END
$$$$
