QHN.pdb
     RDKit          3D

 28 28  0  0  1  0  0  0  0  0999 V2000
    9.2467  -14.9297   14.3484 N   0  0  0  0  0  0  0  0  0  0  0  0
    7.9134  -14.4866   14.5997 C   0  0  0  0  0  0  0  0  0  0  0  0
    7.0408  -14.6021   13.7068 O   0  0  0  0  0  0  0  0  0  0  0  0
    7.5482  -13.8959   15.8989 C   0  0  0  0  0  0  0  0  0  0  0  0
    8.7401  -13.7579   16.7747 C   0  0  0  0  0  0  0  0  0  0  0  0
    8.9185  -14.9899   17.6136 C   0  0  2  0  0  0  0  0  0  0  0  0
    7.6943  -15.7808   17.4587 N   0  0  0  0  0  0  0  0  0  0  0  0
    9.0241  -14.6266   19.0591 C   0  0  0  0  0  0  0  0  0  0  0  0
   10.0518  -13.9356   19.3659 O   0  0  0  0  0  0  0  0  0  0  0  0
    8.0606  -15.0193   20.0045 N   0  0  0  0  0  0  0  0  0  0  0  0
    8.3769  -14.7184   21.4429 C   0  0  1  0  0  0  0  0  0  0  0  0
    7.0226  -14.6365   22.0656 C   0  0  0  0  0  0  0  0  0  0  0  0
    7.0121  -14.3062   23.4875 C   0  0  0  0  0  0  0  0  0  0  0  0
    8.1939  -13.9235   24.1733 C   0  0  0  0  0  0  0  0  0  0  0  0
    7.9235  -13.6726   25.4597 N   0  0  0  0  0  0  0  0  0  0  0  0
    6.6096  -13.8817   25.6198 C   0  0  0  0  0  0  0  0  0  0  0  0
    6.0886  -14.2550   24.4452 N   0  0  0  0  0  0  0  0  0  0  0  0
    9.2382  -15.7896   21.9371 C   0  0  0  0  0  0  0  0  0  0  0  0
    9.0850  -16.9465   21.4147 O   0  0  0  0  0  0  0  0  0  0  0  0
   13.4508  -18.3186   24.2448 N   0  0  0  0  0  0  0  0  0  0  0  0
   13.5813  -17.0806   23.5692 C   0  0  0  0  0  0  0  0  0  0  0  0
   14.7607  -16.6622   23.2900 O   0  0  0  0  0  0  0  0  0  0  0  0
   12.4916  -16.2034   23.1417 C   0  0  0  0  0  0  0  0  0  0  0  0
   11.1130  -16.6989   23.3598 C   0  0  2  0  0  0  0  0  0  0  0  0
   10.2066  -15.6276   22.9229 N   0  0  0  0  0  0  0  0  0  0  0  0
   10.7791  -17.0641   24.7517 C   0  0  0  0  0  0  0  0  0  0  0  0
   11.0922  -18.2678   25.3590 O   0  0  0  0  0  0  0  0  0  0  0  0
   10.1607  -16.2300   25.4604 O   0  0  0  0  0  0  0  0  0  0  0  0
  2  3  2  0
  2  1  1  0
  4  2  1  0
  5  4  1  0
  5  6  1  0
  6  7  1  1
  6  8  1  0
  8  9  2  0
 10  8  1  0
 10 11  1  0
 11 12  1  1
 13 12  1  0
 14 13  2  0
 15 16  1  0
 15 14  1  0
 16 17  2  0
 17 13  1  0
 18 11  1  0
 18 19  2  0
 20 21  1  0
 21 23  1  0
 21 22  2  0
 24 23  1  1
 24 25  1  0
 24 26  1  0
 25 18  1  0
 26 27  1  0
 28 26  2  0
M  END
$$$$
