QHN.pdb
     RDKit          3D

 28 28  0  0  1  0  0  0  0  0999 V2000
    8.3007  -12.5123   16.1456 N   0  0  0  0  0  0  0  0  0  0  0  0
    7.8368  -13.8272   15.8405 C   0  0  0  0  0  0  0  0  0  0  0  0
    7.1989  -14.0315   14.7806 O   0  0  0  0  0  0  0  0  0  0  0  0
    8.1008  -14.9505   16.7564 C   0  0  0  0  0  0  0  0  0  0  0  0
    8.7973  -14.4848   17.9830 C   0  0  0  0  0  0  0  0  0  0  0  0
    9.1091  -15.6469   18.8808 C   0  0  2  0  0  0  0  0  0  0  0  0
    7.9542  -16.5468   18.8145 N   0  0  0  0  0  0  0  0  0  0  0  0
    9.2288  -15.1932   20.2995 C   0  0  0  0  0  0  0  0  0  0  0  0
   10.1935  -14.3899   20.5273 O   0  0  0  0  0  0  0  0  0  0  0  0
    8.3423  -15.6227   21.3025 N   0  0  0  0  0  0  0  0  0  0  0  0
    8.5560  -15.0437   22.6732 C   0  0  1  0  0  0  0  0  0  0  0  0
    7.1922  -14.5599   23.0403 C   0  0  0  0  0  0  0  0  0  0  0  0
    7.0688  -14.0159   24.3893 C   0  0  0  0  0  0  0  0  0  0  0  0
    6.4289  -14.7383   25.4295 C   0  0  0  0  0  0  0  0  0  0  0  0
    6.4457  -14.0301   26.5649 N   0  0  0  0  0  0  0  0  0  0  0  0
    7.0744  -12.8800   26.2863 C   0  0  0  0  0  0  0  0  0  0  0  0
    7.4348  -12.8895   24.9977 N   0  0  0  0  0  0  0  0  0  0  0  0
    9.1016  -16.1032   23.5178 C   0  0  0  0  0  0  0  0  0  0  0  0
    8.6805  -17.2914   23.3046 O   0  0  0  0  0  0  0  0  0  0  0  0
   12.4579  -18.5312   23.3703 N   0  0  0  0  0  0  0  0  0  0  0  0
   12.7270  -17.3193   24.0524 C   0  0  0  0  0  0  0  0  0  0  0  0
   13.6231  -16.5380   23.5724 O   0  0  0  0  0  0  0  0  0  0  0  0
   12.0782  -16.8464   25.2752 C   0  0  0  0  0  0  0  0  0  0  0  0
   10.6050  -16.9827   25.3431 C   0  0  2  0  0  0  0  0  0  0  0  0
   10.0439  -15.9011   24.5214 N   0  0  0  0  0  0  0  0  0  0  0  0
   10.0187  -16.9026   26.6966 C   0  0  0  0  0  0  0  0  0  0  0  0
    9.8790  -17.9664   27.5711 O   0  0  0  0  0  0  0  0  0  0  0  0
    9.6065  -15.7887   27.1086 O   0  0  0  0  0  0  0  0  0  0  0  0
  2  3  2  0
  2  1  1  0
  4  2  1  0
  5  4  1  0
  5  6  1  0
  6  7  1  1
  6  8  1  0
  8  9  2  0
 10  8  1  0
 10 11  1  0
 11 12  1  1
 13 12  1  0
 14 13  2  0
 15 16  1  0
 15 14  1  0
 16 17  2  0
 17 13  1  0
 18 11  1  0
 18 19  2  0
 20 21  1  0
 21 23  1  0
 21 22  2  0
 24 23  1  1
 24 25  1  0
 24 26  1  0
 25 18  1  0
 26 27  1  0
 28 26  2  0
M  END
$$$$
