LLR.pdb
     RDKit          3D

 28 27  0  0  1  0  0  0  0  0999 V2000
   28.7715  -22.9285  -18.9988 C   0  0  0  0  0  0  0  0  0  0  0  0
   28.7271  -21.7039  -18.1086 C   0  0  1  0  0  0  0  0  0  0  0  0
   28.4599  -20.5187  -19.0412 C   0  0  0  0  0  0  0  0  0  0  0  0
   27.5879  -21.8673  -17.1249 C   0  0  0  0  0  0  0  0  0  0  0  0
   27.4537  -20.6342  -16.2386 C   0  0  2  0  0  0  0  0  0  0  0  0
   28.7442  -20.1163  -15.9146 N   0  0  0  0  0  0  0  0  0  0  0  0
   26.6389  -21.0409  -15.0706 C   0  0  0  0  0  0  0  0  0  0  0  0
   25.8412  -22.0063  -15.2343 O   0  0  0  0  0  0  0  0  0  0  0  0
   25.3922  -22.0171   -9.8608 C   0  0  0  0  0  0  0  0  0  0  0  0
   25.3019  -20.5293  -10.2380 C   0  0  1  0  0  0  0  0  0  0  0  0
   25.5193  -19.6803   -9.0141 C   0  0  0  0  0  0  0  0  0  0  0  0
   26.2283  -20.2301  -11.3707 C   0  0  0  0  0  0  0  0  0  0  0  0
   25.8143  -20.8181  -12.6959 C   0  0  2  0  0  0  0  0  0  0  0  0
   26.6818  -20.4369  -13.7895 N   0  0  0  0  0  0  0  0  0  0  0  0
   24.4025  -20.4171  -12.9489 C   0  0  0  0  0  0  0  0  0  0  0  0
   24.2179  -19.1940  -13.2239 O   0  0  0  0  0  0  0  0  0  0  0  0
   17.8256  -21.9413  -17.9277 N   0  0  0  0  0  0  0  0  0  0  0  0
   19.2453  -22.0527  -17.9693 C   0  0  0  0  0  0  0  0  0  0  0  0
   19.8456  -21.8417  -19.0795 N   0  0  0  0  0  0  0  0  0  0  0  0
   20.0187  -22.3881  -16.8348 N   0  0  0  0  0  0  0  0  0  0  0  0
   19.3440  -22.7095  -15.5231 C   0  0  0  0  0  0  0  0  0  0  0  0
   19.9594  -21.7743  -14.5648 C   0  0  0  0  0  0  0  0  0  0  0  0
   21.3472  -21.7942  -14.1710 C   0  0  0  0  0  0  0  0  0  0  0  0
   21.9109  -20.8330  -13.2118 C   0  0  2  0  0  0  0  0  0  0  0  0
   23.3152  -21.2706  -12.9041 N   0  0  0  0  0  0  0  0  0  0  0  0
   21.2852  -20.7946  -11.8893 C   0  0  0  0  0  0  0  0  0  0  0  0
   20.3439  -19.7995  -11.5889 O   0  0  0  0  0  0  0  0  0  0  0  0
   21.5287  -21.5940  -10.9892 O   0  0  0  0  0  0  0  0  0  0  0  0
  2  4  1  0
  2  1  1  6
  2  3  1  0
  5  4  1  0
  5  6  1  1
  7  5  1  0
  8  7  2  0
 10  9  1  1
 10 11  1  0
 13 12  1  1
 12 10  1  0
 13 14  1  0
 14  7  1  0
 15 13  1  0
 15 16  2  0
 18 17  1  0
 18 20  1  0
 19 18  2  0
 20 21  1  0
 21 22  1  0
 22 23  1  0
 24 23  1  6
 24 25  1  0
 24 26  1  0
 25 15  1  0
 26 28  2  0
 26 27  1  0
M  END
$$$$
