LLR.pdb
     RDKit          3D

 28 27  0  0  1  0  0  0  0  0999 V2000
   33.3803  -23.0987   -8.6587 C   0  0  0  0  0  0  0  0  0  0  0  0
   32.3801  -22.4129   -9.5662 C   0  0  1  0  0  0  0  0  0  0  0  0
   32.4501  -23.1568  -10.9031 C   0  0  0  0  0  0  0  0  0  0  0  0
   31.0021  -22.5557   -8.9554 C   0  0  0  0  0  0  0  0  0  0  0  0
   29.9608  -21.8107   -9.7829 C   0  0  2  0  0  0  0  0  0  0  0  0
   30.5095  -20.5924  -10.2862 N   0  0  0  0  0  0  0  0  0  0  0  0
   28.7733  -21.6423   -8.9140 C   0  0  0  0  0  0  0  0  0  0  0  0
   27.9626  -22.6089   -8.8547 O   0  0  0  0  0  0  0  0  0  0  0  0
   28.4795  -18.2242   -4.4939 C   0  0  0  0  0  0  0  0  0  0  0  0
   28.3841  -19.4320   -5.4405 C   0  0  1  0  0  0  0  0  0  0  0  0
   28.3181  -20.7036   -4.6375 C   0  0  0  0  0  0  0  0  0  0  0  0
   27.2527  -19.2456   -6.3975 C   0  0  0  0  0  0  0  0  0  0  0  0
   27.1950  -20.2606   -7.5109 C   0  0  2  0  0  0  0  0  0  0  0  0
   28.4746  -20.4890   -8.1468 N   0  0  0  0  0  0  0  0  0  0  0  0
   26.1692  -19.8034   -8.4889 C   0  0  0  0  0  0  0  0  0  0  0  0
   26.3489  -18.6476   -8.9763 O   0  0  0  0  0  0  0  0  0  0  0  0
   26.0861  -23.6160  -15.8728 N   0  0  0  0  0  0  0  0  0  0  0  0
   24.8935  -23.8105  -15.1180 C   0  0  0  0  0  0  0  0  0  0  0  0
   24.1510  -24.8163  -15.3911 N   0  0  0  0  0  0  0  0  0  0  0  0
   24.4952  -22.9372  -14.0804 N   0  0  0  0  0  0  0  0  0  0  0  0
   25.3674  -21.7665  -13.6958 C   0  0  0  0  0  0  0  0  0  0  0  0
   24.6314  -21.1169  -12.5968 C   0  0  0  0  0  0  0  0  0  0  0  0
   25.0865  -21.0474  -11.2295 C   0  0  0  0  0  0  0  0  0  0  0  0
   24.3519  -20.3149  -10.1878 C   0  0  2  0  0  0  0  0  0  0  0  0
   25.0675  -20.5395   -8.8857 N   0  0  0  0  0  0  0  0  0  0  0  0
   22.9962  -20.7847   -9.8988 C   0  0  0  0  0  0  0  0  0  0  0  0
   21.9350  -20.4207  -10.7402 O   0  0  0  0  0  0  0  0  0  0  0  0
   22.7042  -21.4982   -8.9426 O   0  0  0  0  0  0  0  0  0  0  0  0
  2  4  1  0
  2  1  1  1
  2  3  1  0
  5  4  1  0
  5  6  1  1
  7  5  1  0
  8  7  2  0
 10  9  1  1
 10 11  1  0
 13 12  1  1
 12 10  1  0
 13 14  1  0
 14  7  1  0
 15 13  1  0
 15 16  2  0
 18 17  1  0
 18 20  1  0
 19 18  2  0
 20 21  1  0
 21 22  1  0
 22 23  1  0
 24 23  1  6
 24 25  1  0
 24 26  1  0
 25 15  1  0
 26 28  2  0
 26 27  1  0
M  END
$$$$
