LLR.pdb
     RDKit          3D

 28 27  0  0  1  0  0  0  0  0999 V2000
   19.7681  -20.6629   -4.6344 C   0  0  0  0  0  0  0  0  0  0  0  0
   20.6960  -21.6479   -5.3148 C   0  0  1  0  0  0  0  0  0  0  0  0
   19.8250  -22.4279   -6.3041 C   0  0  0  0  0  0  0  0  0  0  0  0
   21.7637  -20.8690   -6.0534 C   0  0  0  0  0  0  0  0  0  0  0  0
   22.7110  -21.8093   -6.7901 C   0  0  2  0  0  0  0  0  0  0  0  0
   23.2794  -22.7506   -5.8795 N   0  0  0  0  0  0  0  0  0  0  0  0
   23.6958  -20.9526   -7.4899 C   0  0  0  0  0  0  0  0  0  0  0  0
   23.2385  -20.0275   -8.2179 O   0  0  0  0  0  0  0  0  0  0  0  0
   28.9925  -19.9906   -5.7459 C   0  0  0  0  0  0  0  0  0  0  0  0
   27.6188  -19.6381   -6.3396 C   0  0  1  0  0  0  0  0  0  0  0  0
   27.4524  -18.1427   -6.3841 C   0  0  0  0  0  0  0  0  0  0  0  0
   27.4387  -20.3198   -7.6563 C   0  0  0  0  0  0  0  0  0  0  0  0
   26.0293  -20.2955   -8.1913 C   0  0  2  0  0  0  0  0  0  0  0  0
   25.1042  -21.0866   -7.4089 N   0  0  0  0  0  0  0  0  0  0  0  0
   26.0748  -20.7465   -9.6099 C   0  0  0  0  0  0  0  0  0  0  0  0
   26.6877  -21.8350   -9.8227 O   0  0  0  0  0  0  0  0  0  0  0  0
   20.7726  -20.0422  -15.3720 N   0  0  0  0  0  0  0  0  0  0  0  0
   21.5517  -20.8702  -16.2306 C   0  0  0  0  0  0  0  0  0  0  0  0
   21.1175  -21.1129  -17.4096 N   0  0  0  0  0  0  0  0  0  0  0  0
   22.7845  -21.4363  -15.8336 N   0  0  0  0  0  0  0  0  0  0  0  0
   23.1274  -21.5595  -14.3686 C   0  0  0  0  0  0  0  0  0  0  0  0
   23.8438  -20.3089  -14.0616 C   0  0  0  0  0  0  0  0  0  0  0  0
   24.3142  -19.9302  -12.7514 C   0  0  0  0  0  0  0  0  0  0  0  0
   25.3791  -20.6631  -12.0511 C   0  0  2  0  0  0  0  0  0  0  0  0
   25.5068  -20.0720  -10.6754 N   0  0  0  0  0  0  0  0  0  0  0  0
   26.7306  -20.5180  -12.5939 C   0  0  0  0  0  0  0  0  0  0  0  0
   27.4764  -19.3634  -12.3160 O   0  0  0  0  0  0  0  0  0  0  0  0
   27.2827  -21.3580  -13.2996 O   0  0  0  0  0  0  0  0  0  0  0  0
  2  4  1  0
  2  1  1  6
  2  3  1  0
  5  4  1  0
  5  6  1  1
  7  5  1  0
  8  7  2  0
 10  9  1  6
 10 11  1  0
 13 12  1  1
 12 10  1  0
 13 14  1  0
 14  7  1  0
 15 13  1  0
 15 16  2  0
 18 17  1  0
 18 20  1  0
 19 18  2  0
 20 21  1  0
 21 22  1  0
 22 23  1  0
 24 23  1  6
 24 25  1  0
 24 26  1  0
 25 15  1  0
 26 28  2  0
 26 27  1  0
M  END
$$$$
