LLR.pdb
     RDKit          3D

 28 27  0  0  1  0  0  0  0  0999 V2000
   28.6895  -18.4386  -16.4878 C   0  0  0  0  0  0  0  0  0  0  0  0
   27.3385  -18.8145  -15.9153 C   0  0  1  0  0  0  0  0  0  0  0  0
   26.6653  -19.6923  -16.9744 C   0  0  0  0  0  0  0  0  0  0  0  0
   27.5600  -19.6022  -14.6415 C   0  0  0  0  0  0  0  0  0  0  0  0
   26.2309  -20.0140  -14.0188 C   0  0  2  0  0  0  0  0  0  0  0  0
   25.2789  -18.9573  -14.1432 N   0  0  0  0  0  0  0  0  0  0  0  0
   26.5258  -20.4205  -12.6255 C   0  0  0  0  0  0  0  0  0  0  0  0
   27.1310  -21.5170  -12.4623 O   0  0  0  0  0  0  0  0  0  0  0  0
   27.8941  -20.8596   -7.5927 C   0  0  0  0  0  0  0  0  0  0  0  0
   26.7158  -19.8774   -7.6959 C   0  0  1  0  0  0  0  0  0  0  0  0
   26.8055  -18.8575   -6.5924 C   0  0  0  0  0  0  0  0  0  0  0  0
   26.6505  -19.2970   -9.0706 C   0  0  0  0  0  0  0  0  0  0  0  0
   26.1627  -20.2481  -10.1340 C   0  0  2  0  0  0  0  0  0  0  0  0
   26.1852  -19.6815  -11.4653 N   0  0  0  0  0  0  0  0  0  0  0  0
   24.7951  -20.6951   -9.7500 C   0  0  0  0  0  0  0  0  0  0  0  0
   24.7085  -21.3244   -8.6536 O   0  0  0  0  0  0  0  0  0  0  0  0
   19.1914  -23.0508  -15.6428 N   0  0  0  0  0  0  0  0  0  0  0  0
   18.4108  -22.3878  -14.6525 C   0  0  0  0  0  0  0  0  0  0  0  0
   17.2682  -21.9171  -14.9848 N   0  0  0  0  0  0  0  0  0  0  0  0
   18.8468  -22.2268  -13.3176 N   0  0  0  0  0  0  0  0  0  0  0  0
   20.1791  -22.7863  -12.8808 C   0  0  0  0  0  0  0  0  0  0  0  0
   20.6387  -21.8480  -11.8416 C   0  0  0  0  0  0  0  0  0  0  0  0
   21.8805  -21.9663  -11.1168 C   0  0  0  0  0  0  0  0  0  0  0  0
   22.2968  -20.9926  -10.0970 C   0  0  2  0  0  0  0  0  0  0  0  0
   23.6498  -20.4723  -10.4928 N   0  0  0  0  0  0  0  0  0  0  0  0
   22.5327  -21.5225   -8.7532 C   0  0  0  0  0  0  0  0  0  0  0  0
   23.7706  -21.3174   -8.1272 O   0  0  0  0  0  0  0  0  0  0  0  0
   21.7018  -22.1559   -8.1075 O   0  0  0  0  0  0  0  0  0  0  0  0
  2  4  1  0
  2  1  1  6
  2  3  1  0
  5  4  1  0
  5  6  1  1
  7  5  1  0
  8  7  2  0
 10  9  1  6
 10 11  1  0
 13 12  1  1
 12 10  1  0
 13 14  1  0
 14  7  1  0
 15 13  1  0
 15 16  2  0
 18 17  1  0
 18 20  1  0
 19 18  2  0
 20 21  1  0
 21 22  1  0
 22 23  1  0
 24 23  1  6
 24 25  1  0
 24 26  1  0
 25 15  1  0
 26 28  2  0
 26 27  1  0
M  END
$$$$
