LLR.pdb
     RDKit          3D

 28 27  0  0  1  0  0  0  0  0999 V2000
   19.2197  -18.7728  -12.5588 C   0  0  0  0  0  0  0  0  0  0  0  0
   19.9684  -20.0621  -12.2920 C   0  0  1  0  0  0  0  0  0  0  0  0
   19.9181  -20.8536  -13.6023 C   0  0  0  0  0  0  0  0  0  0  0  0
   21.4002  -19.7204  -11.9377 C   0  0  0  0  0  0  0  0  0  0  0  0
   22.3085  -20.9316  -12.1168 C   0  0  2  0  0  0  0  0  0  0  0  0
   21.9470  -21.9605  -11.1953 N   0  0  0  0  0  0  0  0  0  0  0  0
   23.6989  -20.4398  -11.9812 C   0  0  0  0  0  0  0  0  0  0  0  0
   24.0263  -19.4410  -12.6814 O   0  0  0  0  0  0  0  0  0  0  0  0
   24.4721  -20.5748   -8.2439 C   0  0  0  0  0  0  0  0  0  0  0  0
   25.8133  -19.8740   -8.5156 C   0  0  1  0  0  0  0  0  0  0  0  0
   26.5678  -19.7016   -7.2244 C   0  0  0  0  0  0  0  0  0  0  0  0
   26.5667  -20.6028   -9.5795 C   0  0  0  0  0  0  0  0  0  0  0  0
   26.0118  -20.4364  -10.9715 C   0  0  2  0  0  0  0  0  0  0  0  0
   24.6876  -20.9971  -11.1327 N   0  0  0  0  0  0  0  0  0  0  0  0
   26.9845  -21.0418  -11.9229 C   0  0  0  0  0  0  0  0  0  0  0  0
   28.1264  -20.4941  -11.9666 O   0  0  0  0  0  0  0  0  0  0  0  0
   23.8997  -26.7075  -15.8558 N   0  0  0  0  0  0  0  0  0  0  0  0
   23.2263  -25.5067  -16.2226 C   0  0  0  0  0  0  0  0  0  0  0  0
   21.9691  -25.5545  -16.4565 N   0  0  0  0  0  0  0  0  0  0  0  0
   23.8898  -24.2643  -16.3403 N   0  0  0  0  0  0  0  0  0  0  0  0
   25.2389  -24.1840  -17.0131 C   0  0  0  0  0  0  0  0  0  0  0  0
   25.9302  -23.0946  -16.3013 C   0  0  0  0  0  0  0  0  0  0  0  0
   26.0215  -22.9768  -14.8663 C   0  0  0  0  0  0  0  0  0  0  0  0
   27.0468  -22.1575  -14.2037 C   0  0  2  0  0  0  0  0  0  0  0  0
   26.7264  -22.1307  -12.7357 N   0  0  0  0  0  0  0  0  0  0  0  0
   27.0698  -20.7374  -14.5573 C   0  0  0  0  0  0  0  0  0  0  0  0
   28.2725  -20.1336  -14.9516 O   0  0  0  0  0  0  0  0  0  0  0  0
   26.0830  -20.0064  -14.5348 O   0  0  0  0  0  0  0  0  0  0  0  0
  2  4  1  0
  2  1  1  6
  2  3  1  0
  5  4  1  0
  5  6  1  1
  7  5  1  0
  8  7  2  0
 10  9  1  1
 10 11  1  0
 13 12  1  1
 12 10  1  0
 13 14  1  0
 14  7  1  0
 15 13  1  0
 15 16  2  0
 18 17  1  0
 18 20  1  0
 19 18  2  0
 20 21  1  0
 21 22  1  0
 22 23  1  0
 24 23  1  6
 24 25  1  0
 24 26  1  0
 25 15  1  0
 26 28  2  0
 26 27  1  0
M  END
$$$$
