LLR.pdb
     RDKit          3D

 28 27  0  0  1  0  0  0  0  0999 V2000
   25.6959  -25.8619  -18.3956 C   0  0  0  0  0  0  0  0  0  0  0  0
   26.5965  -24.7211  -17.9692 C   0  0  1  0  0  0  0  0  0  0  0  0
   26.9722  -23.9815  -19.2567 C   0  0  0  0  0  0  0  0  0  0  0  0
   25.8128  -23.8102  -17.0481 C   0  0  0  0  0  0  0  0  0  0  0  0
   26.7002  -22.6995  -16.4977 C   0  0  2  0  0  0  0  0  0  0  0  0
   27.7753  -23.2559  -15.7407 N   0  0  0  0  0  0  0  0  0  0  0  0
   25.8137  -21.7892  -15.7369 C   0  0  0  0  0  0  0  0  0  0  0  0
   25.4743  -22.1542  -14.5765 O   0  0  0  0  0  0  0  0  0  0  0  0
   26.8630  -18.0451  -15.0876 C   0  0  0  0  0  0  0  0  0  0  0  0
   25.5163  -17.3220  -15.2521 C   0  0  1  0  0  0  0  0  0  0  0  0
   25.7264  -16.0107  -15.9610 C   0  0  0  0  0  0  0  0  0  0  0  0
   24.5246  -18.2269  -15.9067 C   0  0  0  0  0  0  0  0  0  0  0  0
   24.5292  -19.6443  -15.3928 C   0  0  2  0  0  0  0  0  0  0  0  0
   25.3175  -20.5467  -16.2040 N   0  0  0  0  0  0  0  0  0  0  0  0
   23.1132  -20.0937  -15.2887 C   0  0  0  0  0  0  0  0  0  0  0  0
   22.6148  -20.5934  -16.3411 O   0  0  0  0  0  0  0  0  0  0  0  0
   17.8494  -25.4717  -12.3388 N   0  0  0  0  0  0  0  0  0  0  0  0
   17.1891  -24.3235  -11.8140 C   0  0  0  0  0  0  0  0  0  0  0  0
   15.9207  -24.3658  -11.6499 N   0  0  0  0  0  0  0  0  0  0  0  0
   17.8771  -23.1382  -11.4681 N   0  0  0  0  0  0  0  0  0  0  0  0
   19.3627  -23.0236  -11.7105 C   0  0  0  0  0  0  0  0  0  0  0  0
   19.5404  -21.6461  -12.2029 C   0  0  0  0  0  0  0  0  0  0  0  0
   20.7862  -21.0970  -12.6804 C   0  0  0  0  0  0  0  0  0  0  0  0
   20.9519  -20.5845  -14.0484 C   0  0  2  0  0  0  0  0  0  0  0  0
   22.3336  -20.0024  -14.1499 N   0  0  0  0  0  0  0  0  0  0  0  0
   20.0964  -19.4589  -14.4268 C   0  0  0  0  0  0  0  0  0  0  0  0
   20.6130  -18.1552  -14.4242 O   0  0  0  0  0  0  0  0  0  0  0  0
   18.9189  -19.5703  -14.7580 O   0  0  0  0  0  0  0  0  0  0  0  0
  2  4  1  0
  2  1  1  6
  2  3  1  0
  5  4  1  0
  5  6  1  1
  7  5  1  0
  8  7  2  0
 10  9  1  6
 10 11  1  0
 13 12  1  6
 12 10  1  0
 13 14  1  0
 14  7  1  0
 15 13  1  0
 15 16  2  0
 18 17  1  0
 18 20  1  0
 19 18  2  0
 20 21  1  0
 21 22  1  0
 22 23  1  0
 24 23  1  1
 24 25  1  0
 24 26  1  0
 25 15  1  0
 26 28  2  0
 26 27  1  0
M  END
$$$$
