KSP.pdb
     RDKit          3D

 23 23  0  0  1  0  0  0  0  0999 V2000
    9.2483  -16.5473   20.0186 N   0  0  0  0  0  0  0  0  0  0  0  0
    9.7593  -17.2133   21.1971 C   0  0  1  0  0  0  0  0  0  0  0  0
   11.2277  -17.4681   21.0809 C   0  0  0  0  0  0  0  0  0  0  0  0
   11.5276  -18.5279   20.0658 C   0  0  0  0  0  0  0  0  0  0  0  0
   12.9998  -18.7772   19.8875 C   0  0  0  0  0  0  0  0  0  0  0  0
   13.1545  -19.8404   18.7952 C   0  0  0  0  0  0  0  0  0  0  0  0
   14.5678  -20.0351   18.5628 N   0  0  0  0  0  0  0  0  0  0  0  0
    9.4415  -16.3998   22.4189 C   0  0  0  0  0  0  0  0  0  0  0  0
    9.7605  -15.1965   22.4114 O   0  0  0  0  0  0  0  0  0  0  0  0
    7.2674  -18.0501   25.8395 O   0  0  0  0  0  0  0  0  0  0  0  0
    7.2110  -16.7413   25.3612 C   0  0  0  0  0  0  0  0  0  0  0  0
    8.5281  -16.2632   24.7791 C   0  0  2  0  0  0  0  0  0  0  0  0
    8.8038  -16.9724   23.5395 N   0  0  0  0  0  0  0  0  0  0  0  0
    9.6462  -16.2938   25.7374 C   0  0  0  0  0  0  0  0  0  0  0  0
   10.7140  -16.9706   25.4830 O   0  0  0  0  0  0  0  0  0  0  0  0
    9.6524  -15.6181   26.9551 N   0  0  0  0  0  0  0  0  0  0  0  0
    8.4770  -14.9619   27.5589 C   0  0  0  0  0  0  0  0  0  0  0  0
    9.0336  -13.9856   28.5712 C   0  0  0  0  0  0  0  0  0  0  0  0
   10.4918  -13.8771   28.1107 C   0  0  0  0  0  0  0  0  0  0  0  0
   10.7410  -15.3796   27.8581 C   0  0  1  0  0  0  0  0  0  0  0  0
   10.3878  -16.1197   29.1325 C   0  0  0  0  0  0  0  0  0  0  0  0
    9.2540  -16.6173   29.3219 O   0  0  0  0  0  0  0  0  0  0  0  0
   11.3370  -16.2595   30.1291 O   0  0  0  0  0  0  0  0  0  0  0  0
  2  1  1  6
  3  2  1  0
  4  3  1  0
  5  4  1  0
  5  6  1  0
  7  6  1  0
  8 13  1  0
  8  2  1  0
  9  8  2  0
 11 10  1  0
 12 11  1  1
 12 14  1  0
 12 13  1  0
 14 15  2  0
 16 20  1  0
 16 14  1  0
 17 18  1  0
 17 16  1  0
 18 19  1  0
 20 19  1  0
 20 21  1  1
 22 21  2  0
 23 21  1  0
M  END
$$$$
