KSP.pdb
     RDKit          3D

 23 23  0  0  1  0  0  0  0  0999 V2000
    9.1403  -16.5205   19.8720 N   0  0  0  0  0  0  0  0  0  0  0  0
    9.1922  -17.3646   21.0462 C   0  0  1  0  0  0  0  0  0  0  0  0
   10.4664  -18.1448   21.0960 C   0  0  0  0  0  0  0  0  0  0  0  0
   11.2365  -18.0306   19.8165 C   0  0  0  0  0  0  0  0  0  0  0  0
   12.5106  -18.8293   19.8189 C   0  0  0  0  0  0  0  0  0  0  0  0
   13.1352  -18.6982   18.4261 C   0  0  0  0  0  0  0  0  0  0  0  0
   14.5333  -18.3728   18.5958 N   0  0  0  0  0  0  0  0  0  0  0  0
    9.0152  -16.5289   22.2814 C   0  0  0  0  0  0  0  0  0  0  0  0
    9.4021  -15.3464   22.2398 O   0  0  0  0  0  0  0  0  0  0  0  0
    7.2368  -18.1779   25.8744 O   0  0  0  0  0  0  0  0  0  0  0  0
    7.0411  -16.8685   25.4363 C   0  0  0  0  0  0  0  0  0  0  0  0
    8.2328  -16.3089   24.6820 C   0  0  2  0  0  0  0  0  0  0  0  0
    8.4316  -17.0586   23.4515 N   0  0  0  0  0  0  0  0  0  0  0  0
    9.4503  -16.1877   25.5020 C   0  0  0  0  0  0  0  0  0  0  0  0
   10.5296  -16.8137   25.1759 O   0  0  0  0  0  0  0  0  0  0  0  0
    9.5432  -15.4136   26.6559 N   0  0  0  0  0  0  0  0  0  0  0  0
    8.4279  -14.6523   27.2501 C   0  0  0  0  0  0  0  0  0  0  0  0
    9.0742  -13.6233   28.1507 C   0  0  0  0  0  0  0  0  0  0  0  0
   10.5130  -13.6254   27.6217 C   0  0  0  0  0  0  0  0  0  0  0  0
   10.6819  -15.1542   27.4886 C   0  0  1  0  0  0  0  0  0  0  0  0
   10.3546  -15.7668   28.8354 C   0  0  0  0  0  0  0  0  0  0  0  0
    9.2069  -16.1812   29.1180 O   0  0  0  0  0  0  0  0  0  0  0  0
   11.3443  -15.8797   29.7955 O   0  0  0  0  0  0  0  0  0  0  0  0
  2  1  1  6
  3  2  1  0
  4  3  1  0
  5  4  1  0
  5  6  1  0
  7  6  1  0
  8 13  1  0
  8  2  1  0
  9  8  2  0
 11 10  1  0
 12 11  1  1
 12 14  1  0
 12 13  1  0
 14 15  2  0
 16 20  1  0
 16 14  1  0
 17 18  1  0
 17 16  1  0
 18 19  1  0
 20 19  1  0
 20 21  1  1
 22 21  2  0
 23 21  1  0
M  END
$$$$
