KSP.pdb
     RDKit          3D

 23 23  0  0  1  0  0  0  0  0999 V2000
    7.9396  -13.3764   18.6249 N   0  0  0  0  0  0  0  0  0  0  0  0
    8.7685  -13.8859   19.6960 C   0  0  1  0  0  0  0  0  0  0  0  0
   10.0701  -13.1541   19.7680 C   0  0  0  0  0  0  0  0  0  0  0  0
   11.1694  -13.9105   19.0879 C   0  0  0  0  0  0  0  0  0  0  0  0
   11.9303  -14.8139   20.0187 C   0  0  0  0  0  0  0  0  0  0  0  0
   13.1571  -15.3263   19.2573 C   0  0  0  0  0  0  0  0  0  0  0  0
   13.8845  -16.2151   20.1350 N   0  0  0  0  0  0  0  0  0  0  0  0
    8.0239  -13.8047   20.9977 C   0  0  0  0  0  0  0  0  0  0  0  0
    7.5407  -12.7036   21.3197 O   0  0  0  0  0  0  0  0  0  0  0  0
    7.4831  -17.2633   23.6855 O   0  0  0  0  0  0  0  0  0  0  0  0
    6.6031  -16.2034   23.4689 C   0  0  0  0  0  0  0  0  0  0  0  0
    7.3100  -14.8941   23.1719 C   0  0  2  0  0  0  0  0  0  0  0  0
    7.8733  -14.9328   21.8314 N   0  0  0  0  0  0  0  0  0  0  0  0
    8.2784  -14.4945   24.2073 C   0  0  0  0  0  0  0  0  0  0  0  0
    9.5468  -14.5619   23.9845 O   0  0  0  0  0  0  0  0  0  0  0  0
    7.9254  -14.0230   25.4692 N   0  0  0  0  0  0  0  0  0  0  0  0
    6.5402  -13.8137   25.9318 C   0  0  0  0  0  0  0  0  0  0  0  0
    6.6450  -12.8738   27.1122 C   0  0  0  0  0  0  0  0  0  0  0  0
    8.0514  -12.2980   26.9113 C   0  0  0  0  0  0  0  0  0  0  0  0
    8.7671  -13.6196   26.5583 C   0  0  1  0  0  0  0  0  0  0  0  0
    8.4885  -14.6011   27.6788 C   0  0  0  0  0  0  0  0  0  0  0  0
    7.5087  -15.3810   27.6535 O   0  0  0  0  0  0  0  0  0  0  0  0
    9.3342  -14.6504   28.7725 O   0  0  0  0  0  0  0  0  0  0  0  0
  2  1  1  6
  3  2  1  0
  4  3  1  0
  5  4  1  0
  5  6  1  0
  7  6  1  0
  8 13  1  0
  8  2  1  0
  9  8  2  0
 11 10  1  0
 12 11  1  1
 12 14  1  0
 12 13  1  0
 14 15  2  0
 16 20  1  0
 16 14  1  0
 17 18  1  0
 17 16  1  0
 18 19  1  0
 20 19  1  0
 20 21  1  1
 22 21  2  0
 23 21  1  0
M  END
$$$$
