KSP.pdb
     RDKit          3D

 23 23  0  0  1  0  0  0  0  0999 V2000
   10.1846  -16.1530   20.7312 N   0  0  0  0  0  0  0  0  0  0  0  0
    9.1832  -16.4648   21.7281 C   0  0  1  0  0  0  0  0  0  0  0  0
    9.2779  -17.8920   22.1625 C   0  0  0  0  0  0  0  0  0  0  0  0
   10.6911  -18.2873   22.4625 C   0  0  0  0  0  0  0  0  0  0  0  0
   11.5091  -18.5439   21.2270 C   0  0  0  0  0  0  0  0  0  0  0  0
   12.7709  -19.2962   21.6621 C   0  0  0  0  0  0  0  0  0  0  0  0
   13.5388  -19.5979   20.4752 N   0  0  0  0  0  0  0  0  0  0  0  0
    9.3186  -15.5289   22.8948 C   0  0  0  0  0  0  0  0  0  0  0  0
   10.4686  -15.2162   23.2548 O   0  0  0  0  0  0  0  0  0  0  0  0
    6.5701  -14.1902   26.7636 O   0  0  0  0  0  0  0  0  0  0  0  0
    6.7006  -14.6418   25.4507 C   0  0  0  0  0  0  0  0  0  0  0  0
    8.1430  -14.7079   24.9846 C   0  0  2  0  0  0  0  0  0  0  0  0
    8.1867  -15.0179   23.5642 N   0  0  0  0  0  0  0  0  0  0  0  0
    8.9924  -15.5868   25.8066 C   0  0  0  0  0  0  0  0  0  0  0  0
    9.3523  -16.7474   25.3747 O   0  0  0  0  0  0  0  0  0  0  0  0
    9.4678  -15.2552   27.0729 N   0  0  0  0  0  0  0  0  0  0  0  0
    8.9235  -14.1768   27.9198 C   0  0  0  0  0  0  0  0  0  0  0  0
   10.0065  -13.8692   28.9299 C   0  0  0  0  0  0  0  0  0  0  0  0
   11.2290  -14.5073   28.2602 C   0  0  0  0  0  0  0  0  0  0  0  0
   10.5566  -15.8233   27.8138 C   0  0  1  0  0  0  0  0  0  0  0  0
    9.9329  -16.4548   29.0421 C   0  0  0  0  0  0  0  0  0  0  0  0
    8.7162  -16.3284   29.3116 O   0  0  0  0  0  0  0  0  0  0  0  0
   10.7189  -17.1984   29.9043 O   0  0  0  0  0  0  0  0  0  0  0  0
  2  1  1  6
  3  2  1  0
  4  3  1  0
  5  4  1  0
  5  6  1  0
  7  6  1  0
  8 13  1  0
  8  2  1  0
  9  8  2  0
 11 10  1  0
 12 11  1  1
 12 14  1  0
 12 13  1  0
 14 15  2  0
 16 20  1  0
 16 14  1  0
 17 18  1  0
 17 16  1  0
 18 19  1  0
 20 19  1  0
 20 21  1  1
 22 21  2  0
 23 21  1  0
M  END
$$$$
