KSP.pdb
     RDKit          3D

 23 23  0  0  1  0  0  0  0  0999 V2000
    6.1875  -16.0838   20.5191 N   0  0  0  0  0  0  0  0  0  0  0  0
    7.0923  -15.2217   21.2486 C   0  0  1  0  0  0  0  0  0  0  0  0
    6.8711  -13.7852   20.8990 C   0  0  0  0  0  0  0  0  0  0  0  0
    7.2714  -13.4907   19.4861 C   0  0  0  0  0  0  0  0  0  0  0  0
    8.7490  -13.6347   19.2471 C   0  0  0  0  0  0  0  0  0  0  0  0
    9.0147  -13.2593   17.7857 C   0  0  0  0  0  0  0  0  0  0  0  0
   10.4440  -13.2913   17.5723 N   0  0  0  0  0  0  0  0  0  0  0  0
    6.9376  -15.4545   22.7242 C   0  0  0  0  0  0  0  0  0  0  0  0
    5.8076  -15.2907   23.2200 O   0  0  0  0  0  0  0  0  0  0  0  0
    7.9051  -18.3536   25.1261 O   0  0  0  0  0  0  0  0  0  0  0  0
    7.2260  -17.1671   25.4014 C   0  0  0  0  0  0  0  0  0  0  0  0
    7.9947  -15.9293   24.9782 C   0  0  2  0  0  0  0  0  0  0  0  0
    8.0302  -15.8455   23.5265 N   0  0  0  0  0  0  0  0  0  0  0  0
    9.3206  -15.8099   25.6085 C   0  0  0  0  0  0  0  0  0  0  0  0
   10.3897  -16.1236   24.9591 O   0  0  0  0  0  0  0  0  0  0  0  0
    9.5312  -15.3617   26.9101 N   0  0  0  0  0  0  0  0  0  0  0  0
    8.4658  -14.9216   27.8309 C   0  0  0  0  0  0  0  0  0  0  0  0
    9.1616  -14.0969   28.8908 C   0  0  0  0  0  0  0  0  0  0  0  0
   10.4956  -13.7889   28.2012 C   0  0  0  0  0  0  0  0  0  0  0  0
   10.7619  -15.1974   27.6281 C   0  0  1  0  0  0  0  0  0  0  0  0
   10.6986  -16.1775   28.7822 C   0  0  0  0  0  0  0  0  0  0  0  0
   11.6782  -16.3854   29.5346 O   0  0  0  0  0  0  0  0  0  0  0  0
    9.5282  -16.8734   29.0267 O   0  0  0  0  0  0  0  0  0  0  0  0
  2  1  1  6
  3  2  1  0
  4  3  1  0
  5  4  1  0
  5  6  1  0
  7  6  1  0
  8 13  1  0
  8  2  1  0
  9  8  2  0
 11 10  1  0
 12 11  1  6
 12 14  1  0
 12 13  1  0
 14 15  2  0
 16 20  1  0
 16 14  1  0
 17 18  1  0
 17 16  1  0
 18 19  1  0
 20 19  1  0
 20 21  1  1
 22 21  2  0
 23 21  1  0
M  END
$$$$
