KSP.pdb
     RDKit          3D

 23 23  0  0  1  0  0  0  0  0999 V2000
    8.1176  -14.6233   20.2540 N   0  0  0  0  0  0  0  0  0  0  0  0
    7.7783  -15.4796   21.3700 C   0  0  1  0  0  0  0  0  0  0  0  0
    8.4046  -16.8294   21.2265 C   0  0  0  0  0  0  0  0  0  0  0  0
    8.5096  -17.2418   19.7905 C   0  0  0  0  0  0  0  0  0  0  0  0
    9.9228  -17.2436   19.2767 C   0  0  0  0  0  0  0  0  0  0  0  0
    9.8887  -17.7906   17.8460 C   0  0  0  0  0  0  0  0  0  0  0  0
   11.1950  -17.5864   17.2618 N   0  0  0  0  0  0  0  0  0  0  0  0
    8.1861  -14.8227   22.6575 C   0  0  0  0  0  0  0  0  0  0  0  0
    9.3176  -14.3063   22.7100 O   0  0  0  0  0  0  0  0  0  0  0  0
    6.0155  -15.4196   26.4753 O   0  0  0  0  0  0  0  0  0  0  0  0
    6.4869  -14.2045   25.9793 C   0  0  0  0  0  0  0  0  0  0  0  0
    7.7169  -14.3559   25.1040 C   0  0  2  0  0  0  0  0  0  0  0  0
    7.3223  -14.7879   23.7723 N   0  0  0  0  0  0  0  0  0  0  0  0
    8.7739  -15.1875   25.7047 C   0  0  0  0  0  0  0  0  0  0  0  0
    9.2183  -16.2321   25.0928 O   0  0  0  0  0  0  0  0  0  0  0  0
    9.3677  -14.9289   26.9375 N   0  0  0  0  0  0  0  0  0  0  0  0
    8.8883  -13.9267   27.9084 C   0  0  0  0  0  0  0  0  0  0  0  0
   10.0612  -13.6569   28.8246 C   0  0  0  0  0  0  0  0  0  0  0  0
   11.2233  -14.2121   27.9931 C   0  0  0  0  0  0  0  0  0  0  0  0
   10.5384  -15.5139   27.5244 C   0  0  1  0  0  0  0  0  0  0  0  0
   10.0568  -16.2452   28.7612 C   0  0  0  0  0  0  0  0  0  0  0  0
    8.8692  -16.1800   29.1540 O   0  0  0  0  0  0  0  0  0  0  0  0
   10.9448  -17.0143   29.4919 O   0  0  0  0  0  0  0  0  0  0  0  0
  2  1  1  6
  3  2  1  0
  4  3  1  0
  5  4  1  0
  5  6  1  0
  7  6  1  0
  8 13  1  0
  8  2  1  0
  9  8  2  0
 11 10  1  0
 12 11  1  1
 12 14  1  0
 12 13  1  0
 14 15  2  0
 16 20  1  0
 16 14  1  0
 17 18  1  0
 17 16  1  0
 18 19  1  0
 20 19  1  0
 20 21  1  1
 22 21  2  0
 23 21  1  0
M  END
$$$$
