KSP.pdb
     RDKit          3D

 23 23  0  0  1  0  0  0  0  0999 V2000
    9.9670  -16.6573   20.0965 N   0  0  0  0  0  0  0  0  0  0  0  0
    9.7819  -17.4881   21.2666 C   0  0  1  0  0  0  0  0  0  0  0  0
   10.9563  -18.3873   21.4832 C   0  0  0  0  0  0  0  0  0  0  0  0
   12.2364  -17.7410   21.0507 C   0  0  0  0  0  0  0  0  0  0  0  0
   13.4077  -18.6839   21.0579 C   0  0  0  0  0  0  0  0  0  0  0  0
   14.6389  -17.8872   20.6143 C   0  0  0  0  0  0  0  0  0  0  0  0
   15.7885  -18.7584   20.7083 N   0  0  0  0  0  0  0  0  0  0  0  0
    9.5269  -16.6243   22.4684 C   0  0  0  0  0  0  0  0  0  0  0  0
   10.1078  -15.5247   22.5238 O   0  0  0  0  0  0  0  0  0  0  0  0
    7.1962  -18.0810   25.8190 O   0  0  0  0  0  0  0  0  0  0  0  0
    7.1463  -16.7573   25.3829 C   0  0  0  0  0  0  0  0  0  0  0  0
    8.4373  -16.2957   24.7329 C   0  0  2  0  0  0  0  0  0  0  0  0
    8.6605  -17.0379   23.5021 N   0  0  0  0  0  0  0  0  0  0  0  0
    9.5951  -16.3016   25.6434 C   0  0  0  0  0  0  0  0  0  0  0  0
   10.6368  -17.0148   25.3804 O   0  0  0  0  0  0  0  0  0  0  0  0
    9.6677  -15.5637   26.8223 N   0  0  0  0  0  0  0  0  0  0  0  0
    8.5726  -14.7389   27.3672 C   0  0  0  0  0  0  0  0  0  0  0  0
    9.2303  -13.7803   28.3348 C   0  0  0  0  0  0  0  0  0  0  0  0
   10.6964  -13.8728   27.8964 C   0  0  0  0  0  0  0  0  0  0  0  0
   10.7662  -15.4062   27.7311 C   0  0  1  0  0  0  0  0  0  0  0  0
   10.3113  -16.0256   29.0372 C   0  0  0  0  0  0  0  0  0  0  0  0
   11.0488  -16.0645   30.0489 O   0  0  0  0  0  0  0  0  0  0  0  0
    9.0431  -16.5702   29.1322 O   0  0  0  0  0  0  0  0  0  0  0  0
  2  1  1  6
  3  2  1  0
  4  3  1  0
  5  4  1  0
  5  6  1  0
  7  6  1  0
  8 13  1  0
  8  2  1  0
  9  8  2  0
 11 10  1  0
 12 11  1  1
 12 14  1  0
 12 13  1  0
 14 15  2  0
 16 20  1  0
 16 14  1  0
 17 18  1  0
 17 16  1  0
 18 19  1  0
 20 19  1  0
 20 21  1  1
 22 21  2  0
 23 21  1  0
M  END
$$$$
