KSP.pdb
     RDKit          3D

 23 23  0  0  1  0  0  0  0  0999 V2000
    8.1200  -15.7728   20.6448 N   0  0  0  0  0  0  0  0  0  0  0  0
    8.2508  -14.4602   21.2397 C   0  0  1  0  0  0  0  0  0  0  0  0
    7.2993  -13.4879   20.6202 C   0  0  0  0  0  0  0  0  0  0  0  0
    7.2345  -13.6473   19.1324 C   0  0  0  0  0  0  0  0  0  0  0  0
    8.5897  -13.6966   18.4826 C   0  0  0  0  0  0  0  0  0  0  0  0
    8.3692  -13.8896   16.9788 C   0  0  0  0  0  0  0  0  0  0  0  0
    9.6656  -13.9159   16.3401 N   0  0  0  0  0  0  0  0  0  0  0  0
    8.0471  -14.5525   22.7248 C   0  0  0  0  0  0  0  0  0  0  0  0
    7.9975  -13.4884   23.3689 O   0  0  0  0  0  0  0  0  0  0  0  0
    6.9752  -17.4505   26.5282 O   0  0  0  0  0  0  0  0  0  0  0  0
    7.0508  -17.2056   25.1574 C   0  0  0  0  0  0  0  0  0  0  0  0
    7.8642  -15.9707   24.8174 C   0  0  2  0  0  0  0  0  0  0  0  0
    7.9155  -15.7982   23.3740 N   0  0  0  0  0  0  0  0  0  0  0  0
    9.1877  -15.9357   25.4630 C   0  0  0  0  0  0  0  0  0  0  0  0
   10.2341  -16.3671   24.8450 O   0  0  0  0  0  0  0  0  0  0  0  0
    9.4197  -15.4494   26.7471 N   0  0  0  0  0  0  0  0  0  0  0  0
    8.3657  -15.0381   27.6940 C   0  0  0  0  0  0  0  0  0  0  0  0
    9.0567  -14.1590   28.7125 C   0  0  0  0  0  0  0  0  0  0  0  0
   10.3517  -13.8057   27.9721 C   0  0  0  0  0  0  0  0  0  0  0  0
   10.6643  -15.2130   27.4197 C   0  0  1  0  0  0  0  0  0  0  0  0
   10.6845  -16.1689   28.5954 C   0  0  0  0  0  0  0  0  0  0  0  0
    9.6848  -16.8521   28.9162 O   0  0  0  0  0  0  0  0  0  0  0  0
   11.8365  -16.3035   29.3494 O   0  0  0  0  0  0  0  0  0  0  0  0
  2  1  1  6
  3  2  1  0
  4  3  1  0
  5  4  1  0
  5  6  1  0
  7  6  1  0
  8 13  1  0
  8  2  1  0
  9  8  2  0
 11 10  1  0
 12 11  1  6
 12 14  1  0
 12 13  1  0
 14 15  2  0
 16 20  1  0
 16 14  1  0
 17 18  1  0
 17 16  1  0
 18 19  1  0
 20 19  1  0
 20 21  1  1
 22 21  2  0
 23 21  1  0
M  END
$$$$
