KSP.pdb
     RDKit          3D

 23 23  0  0  1  0  0  0  0  0999 V2000
    8.7519  -16.4128   20.1443 N   0  0  0  0  0  0  0  0  0  0  0  0
    8.7841  -15.1127   20.7788 C   0  0  1  0  0  0  0  0  0  0  0  0
    8.2493  -14.0534   19.8696 C   0  0  0  0  0  0  0  0  0  0  0  0
    8.5337  -14.3618   18.4318 C   0  0  0  0  0  0  0  0  0  0  0  0
    7.8863  -13.3947   17.4795 C   0  0  0  0  0  0  0  0  0  0  0  0
    8.1903  -13.8796   16.0583 C   0  0  0  0  0  0  0  0  0  0  0  0
    7.5208  -12.9923   15.1342 N   0  0  0  0  0  0  0  0  0  0  0  0
    8.0210  -15.1587   22.0715 C   0  0  0  0  0  0  0  0  0  0  0  0
    7.0134  -14.4349   22.1742 O   0  0  0  0  0  0  0  0  0  0  0  0
    7.3525  -17.9647   24.9650 O   0  0  0  0  0  0  0  0  0  0  0  0
    7.0441  -16.6067   25.0391 C   0  0  0  0  0  0  0  0  0  0  0  0
    8.1648  -15.7138   24.5402 C   0  0  2  0  0  0  0  0  0  0  0  0
    8.4259  -15.9908   23.1364 N   0  0  0  0  0  0  0  0  0  0  0  0
    9.3723  -15.7502   25.3830 C   0  0  0  0  0  0  0  0  0  0  0  0
   10.4806  -16.2257   24.9265 O   0  0  0  0  0  0  0  0  0  0  0  0
    9.4247  -15.2891   26.6961 N   0  0  0  0  0  0  0  0  0  0  0  0
    8.2896  -14.6893   27.4229 C   0  0  0  0  0  0  0  0  0  0  0  0
    8.9043  -13.9235   28.5733 C   0  0  0  0  0  0  0  0  0  0  0  0
   10.3610  -13.8075   28.1099 C   0  0  0  0  0  0  0  0  0  0  0  0
   10.5333  -15.2564   27.6055 C   0  0  1  0  0  0  0  0  0  0  0  0
   10.1580  -16.1823   28.7450 C   0  0  0  0  0  0  0  0  0  0  0  0
    9.0076  -16.6641   28.8610 O   0  0  0  0  0  0  0  0  0  0  0  0
   11.1049  -16.5165   29.6966 O   0  0  0  0  0  0  0  0  0  0  0  0
  2  1  1  6
  3  2  1  0
  4  3  1  0
  5  4  1  0
  5  6  1  0
  7  6  1  0
  8 13  1  0
  8  2  1  0
  9  8  2  0
 11 10  1  0
 12 11  1  1
 12 14  1  0
 12 13  1  0
 14 15  2  0
 16 20  1  0
 16 14  1  0
 17 18  1  0
 17 16  1  0
 18 19  1  0
 20 19  1  0
 20 21  1  1
 22 21  2  0
 23 21  1  0
M  END
$$$$
