VES.pdb
     RDKit          3D

 23 22  0  0  1  0  0  0  0  0999 V2000
    7.3711  -12.4543   18.6152 C   0  0  0  0  0  0  0  0  0  0  0  0
    8.2909  -13.4119   19.3315 C   0  0  2  0  0  0  0  0  0  0  0  0
    9.2464  -12.5559   20.1565 C   0  0  0  0  0  0  0  0  0  0  0  0
    9.1254  -14.1225   18.2771 C   0  0  2  0  0  0  0  0  0  0  0  0
    8.2112  -14.7876   17.3783 N   0  0  0  0  0  0  0  0  0  0  0  0
   10.1191  -15.0426   18.8855 C   0  0  0  0  0  0  0  0  0  0  0  0
    9.7183  -16.1617   19.3561 O   0  0  0  0  0  0  0  0  0  0  0  0
   11.4800  -14.6632   18.9306 N   0  0  0  0  0  0  0  0  0  0  0  0
   12.4925  -15.4956   19.4972 C   0  0  1  0  0  0  0  0  0  0  0  0
   13.8662  -15.0700   19.0156 C   0  0  0  0  0  0  0  0  0  0  0  0
   14.0578  -15.4042   17.5655 C   0  0  0  0  0  0  0  0  0  0  0  0
   15.4227  -15.0486   17.1641 C   0  0  0  0  0  0  0  0  0  0  0  0
   16.4012  -15.6925   17.5857 O   0  0  0  0  0  0  0  0  0  0  0  0
   12.5130  -15.4380   20.9868 C   0  0  0  0  0  0  0  0  0  0  0  0
   12.8612  -14.3642   21.5433 O   0  0  0  0  0  0  0  0  0  0  0  0
   15.6688  -13.9873   16.3047 O   0  0  0  0  0  0  0  0  0  0  0  0
   10.1870  -17.9134   23.2878 O   0  0  0  0  0  0  0  0  0  0  0  0
   10.7994  -16.7935   23.8260 C   0  0  0  0  0  0  0  0  0  0  0  0
   12.1420  -16.5052   23.2220 C   0  0  2  0  0  0  0  0  0  0  0  0
   12.1544  -16.5492   21.7910 N   0  0  0  0  0  0  0  0  0  0  0  0
   13.1324  -17.4208   23.8384 C   0  0  0  0  0  0  0  0  0  0  0  0
   13.2396  -17.4034   25.2225 O   0  0  0  0  0  0  0  0  0  0  0  0
   13.8677  -18.1988   23.1875 O   0  0  0  0  0  0  0  0  0  0  0  0
  2  1  1  6
  2  3  1  0
  4  2  1  0
  4  6  1  0
  4  5  1  6
  6  8  1  0
  6  7  2  0
  8  9  1  0
  9 14  1  0
 10 11  1  0
  9 10  1  6
 12 11  1  0
 13 12  2  0
 14 20  1  0
 14 15  2  0
 16 12  1  0
 17 18  1  0
 19 18  1  1
 19 21  1  0
 20 19  1  0
 21 22  1  0
 23 21  2  0
M  END
$$$$
