VES.pdb
     RDKit          3D

 23 22  0  0  1  0  0  0  0  0999 V2000
    7.4349  -12.6576   21.7540 C   0  0  0  0  0  0  0  0  0  0  0  0
    8.3397  -13.2979   20.7305 C   0  0  2  0  0  0  0  0  0  0  0  0
    7.9255  -12.7330   19.3757 C   0  0  0  0  0  0  0  0  0  0  0  0
    8.0270  -14.7861   20.7082 C   0  0  2  0  0  0  0  0  0  0  0  0
    6.6605  -14.9341   20.2642 N   0  0  0  0  0  0  0  0  0  0  0  0
    8.2864  -15.4259   22.0225 C   0  0  0  0  0  0  0  0  0  0  0  0
    7.3350  -15.4978   22.8735 O   0  0  0  0  0  0  0  0  0  0  0  0
    9.5732  -15.9393   22.3028 N   0  0  0  0  0  0  0  0  0  0  0  0
    9.9193  -16.4983   23.5703 C   0  0  1  0  0  0  0  0  0  0  0  0
   11.0933  -17.4485   23.4332 C   0  0  0  0  0  0  0  0  0  0  0  0
   11.4593  -18.0499   24.7583 C   0  0  0  0  0  0  0  0  0  0  0  0
   12.5918  -18.9637   24.5778 C   0  0  0  0  0  0  0  0  0  0  0  0
   13.6280  -18.5906   23.9972 O   0  0  0  0  0  0  0  0  0  0  0  0
   10.3099  -15.4599   24.5662 C   0  0  0  0  0  0  0  0  0  0  0  0
   11.2227  -14.6481   24.2633 O   0  0  0  0  0  0  0  0  0  0  0  0
   12.5474  -20.2693   25.0456 O   0  0  0  0  0  0  0  0  0  0  0  0
    7.7404  -13.6928   27.1204 O   0  0  0  0  0  0  0  0  0  0  0  0
    9.0329  -13.2449   26.9024 C   0  0  0  0  0  0  0  0  0  0  0  0
   10.0349  -14.3564   26.7976 C   0  0  2  0  0  0  0  0  0  0  0  0
    9.6884  -15.3594   25.8365 N   0  0  0  0  0  0  0  0  0  0  0  0
   10.2571  -14.9081   28.1562 C   0  0  0  0  0  0  0  0  0  0  0  0
   10.1620  -16.2849   28.3071 O   0  0  0  0  0  0  0  0  0  0  0  0
   10.5224  -14.2093   29.1615 O   0  0  0  0  0  0  0  0  0  0  0  0
  2  1  1  1
  2  3  1  0
  4  2  1  0
  4  6  1  0
  4  5  1  1
  6  8  1  0
  6  7  2  0
  8  9  1  0
  9 14  1  0
 10 11  1  0
  9 10  1  6
 12 11  1  0
 13 12  2  0
 14 20  1  0
 14 15  2  0
 16 12  1  0
 17 18  1  0
 19 18  1  1
 19 21  1  0
 20 19  1  0
 21 22  1  0
 23 21  2  0
M  END
$$$$
