VES.pdb
     RDKit          3D

 23 22  0  0  1  0  0  0  0  0999 V2000
    7.2928  -12.2669   18.9618 C   0  0  0  0  0  0  0  0  0  0  0  0
    8.2034  -13.3372   19.5109 C   0  0  2  0  0  0  0  0  0  0  0  0
    9.3428  -12.6118   20.2193 C   0  0  0  0  0  0  0  0  0  0  0  0
    8.8110  -14.0747   18.3278 C   0  0  2  0  0  0  0  0  0  0  0  0
    7.7204  -14.5859   17.5307 N   0  0  0  0  0  0  0  0  0  0  0  0
    9.7613  -15.1295   18.7619 C   0  0  0  0  0  0  0  0  0  0  0  0
    9.3125  -16.1393   19.4048 O   0  0  0  0  0  0  0  0  0  0  0  0
   11.1348  -14.9950   18.4563 N   0  0  0  0  0  0  0  0  0  0  0  0
   12.1315  -15.8649   18.9938 C   0  0  1  0  0  0  0  0  0  0  0  0
   13.3993  -15.8030   18.1639 C   0  0  0  0  0  0  0  0  0  0  0  0
   13.1889  -16.4136   16.8095 C   0  0  0  0  0  0  0  0  0  0  0  0
   14.4579  -16.4080   16.0747 C   0  0  0  0  0  0  0  0  0  0  0  0
   15.4149  -17.1124   16.4463 O   0  0  0  0  0  0  0  0  0  0  0  0
   12.5057  -15.5109   20.3928 C   0  0  0  0  0  0  0  0  0  0  0  0
   13.0020  -14.3758   20.6146 O   0  0  0  0  0  0  0  0  0  0  0  0
   14.6346  -15.6212   14.9454 O   0  0  0  0  0  0  0  0  0  0  0  0
   11.0058  -17.6693   23.5814 O   0  0  0  0  0  0  0  0  0  0  0  0
   11.5816  -16.4318   23.8177 C   0  0  0  0  0  0  0  0  0  0  0  0
   12.6519  -16.0782   22.8278 C   0  0  2  0  0  0  0  0  0  0  0  0
   12.3208  -16.4084   21.4747 N   0  0  0  0  0  0  0  0  0  0  0  0
   13.9223  -16.6951   23.2804 C   0  0  0  0  0  0  0  0  0  0  0  0
   14.3565  -16.3891   24.5631 O   0  0  0  0  0  0  0  0  0  0  0  0
   14.6158  -17.4668   22.5784 O   0  0  0  0  0  0  0  0  0  0  0  0
  2  1  1  6
  2  3  1  0
  4  2  1  0
  4  6  1  0
  4  5  1  1
  6  8  1  0
  6  7  2  0
  8  9  1  0
  9 14  1  0
 10 11  1  0
  9 10  1  6
 12 11  1  0
 13 12  2  0
 14 20  1  0
 14 15  2  0
 16 12  1  0
 17 18  1  0
 19 18  1  1
 19 21  1  0
 20 19  1  0
 21 22  1  0
 23 21  2  0
M  END
$$$$
