VES.pdb
     RDKit          3D

 23 22  0  0  1  0  0  0  0  0999 V2000
    8.4946  -14.8022   18.4021 C   0  0  0  0  0  0  0  0  0  0  0  0
    7.9188  -13.8048   19.3767 C   0  0  2  0  0  0  0  0  0  0  0  0
    7.7180  -12.5085   18.5986 C   0  0  0  0  0  0  0  0  0  0  0  0
    8.9778  -13.5315   20.4335 C   0  0  2  0  0  0  0  0  0  0  0  0
   10.1580  -13.0559   19.7502 N   0  0  0  0  0  0  0  0  0  0  0  0
    9.2343  -14.7232   21.2810 C   0  0  0  0  0  0  0  0  0  0  0  0
    8.2540  -15.2677   21.8951 O   0  0  0  0  0  0  0  0  0  0  0  0
   10.5504  -15.2275   21.3898 N   0  0  0  0  0  0  0  0  0  0  0  0
   10.8611  -16.4164   22.1169 C   0  0  1  0  0  0  0  0  0  0  0  0
   12.2985  -16.8334   21.8712 C   0  0  0  0  0  0  0  0  0  0  0  0
   12.5899  -18.1644   22.4996 C   0  0  0  0  0  0  0  0  0  0  0  0
   13.9752  -18.5445   22.2053 C   0  0  0  0  0  0  0  0  0  0  0  0
   14.9084  -17.7370   22.3700 O   0  0  0  0  0  0  0  0  0  0  0  0
   10.7001  -16.2452   23.5891 C   0  0  0  0  0  0  0  0  0  0  0  0
   11.1553  -15.2027   24.1275 O   0  0  0  0  0  0  0  0  0  0  0  0
   14.2918  -19.8113   21.7356 O   0  0  0  0  0  0  0  0  0  0  0  0
    7.6073  -17.9225   25.7012 O   0  0  0  0  0  0  0  0  0  0  0  0
    8.4105  -16.9088   26.1973 C   0  0  0  0  0  0  0  0  0  0  0  0
    9.8514  -17.0491   25.8041 C   0  0  2  0  0  0  0  0  0  0  0  0
   10.0538  -17.2150   24.3965 N   0  0  0  0  0  0  0  0  0  0  0  0
   10.4453  -18.1448   26.6079 C   0  0  0  0  0  0  0  0  0  0  0  0
   10.4461  -17.9930   27.9879 O   0  0  0  0  0  0  0  0  0  0  0  0
   10.9396  -19.1858   26.1166 O   0  0  0  0  0  0  0  0  0  0  0  0
  2  1  1  6
  2  3  1  0
  4  2  1  0
  4  6  1  0
  4  5  1  6
  6  8  1  0
  6  7  2  0
  8  9  1  0
  9 14  1  0
 10 11  1  0
  9 10  1  1
 12 11  1  0
 13 12  2  0
 14 20  1  0
 14 15  2  0
 16 12  1  0
 17 18  1  0
 19 18  1  6
 19 21  1  0
 20 19  1  0
 21 22  1  0
 23 21  2  0
M  END
$$$$
