VES.pdb
     RDKit          3D

 23 22  0  0  1  0  0  0  0  0999 V2000
    7.5088  -13.0578   20.9573 C   0  0  0  0  0  0  0  0  0  0  0  0
    8.4933  -13.2925   19.8384 C   0  0  2  0  0  0  0  0  0  0  0  0
    8.0038  -12.4666   18.6533 C   0  0  0  0  0  0  0  0  0  0  0  0
    8.3907  -14.7554   19.4358 C   0  0  2  0  0  0  0  0  0  0  0  0
    7.0580  -14.9700   18.9220 N   0  0  0  0  0  0  0  0  0  0  0  0
    8.7372  -15.6639   20.5578 C   0  0  0  0  0  0  0  0  0  0  0  0
    7.8116  -16.0446   21.3533 O   0  0  0  0  0  0  0  0  0  0  0  0
   10.0763  -16.0862   20.7210 N   0  0  0  0  0  0  0  0  0  0  0  0
   10.4720  -17.0174   21.7285 C   0  0  1  0  0  0  0  0  0  0  0  0
   11.8686  -17.5410   21.4540 C   0  0  0  0  0  0  0  0  0  0  0  0
   12.2476  -18.6101   22.4362 C   0  0  0  0  0  0  0  0  0  0  0  0
   13.5607  -19.1540   22.0754 C   0  0  0  0  0  0  0  0  0  0  0  0
   14.5500  -18.4081   21.9533 O   0  0  0  0  0  0  0  0  0  0  0  0
   10.4906  -16.4127   23.0910 C   0  0  0  0  0  0  0  0  0  0  0  0
   11.1878  -15.3827   23.2833 O   0  0  0  0  0  0  0  0  0  0  0  0
   13.7445  -20.5123   21.8589 O   0  0  0  0  0  0  0  0  0  0  0  0
    7.5278  -15.5105   24.8138 O   0  0  0  0  0  0  0  0  0  0  0  0
    8.3109  -15.9323   25.8757 C   0  0  0  0  0  0  0  0  0  0  0  0
    9.6922  -16.3483   25.4640 C   0  0  2  0  0  0  0  0  0  0  0  0
    9.7514  -16.9590   24.1705 N   0  0  0  0  0  0  0  0  0  0  0  0
   10.2556  -17.2049   26.5355 C   0  0  0  0  0  0  0  0  0  0  0  0
   10.8162  -18.4160   26.1529 O   0  0  0  0  0  0  0  0  0  0  0  0
   10.2536  -16.8997   27.7505 O   0  0  0  0  0  0  0  0  0  0  0  0
  2  1  1  1
  2  3  1  0
  4  2  1  0
  4  6  1  0
  4  5  1  1
  6  8  1  0
  6  7  2  0
  8  9  1  0
  9 14  1  0
 10 11  1  0
  9 10  1  6
 12 11  1  0
 13 12  2  0
 14 20  1  0
 14 15  2  0
 16 12  1  0
 17 18  1  0
 19 18  1  1
 19 21  1  0
 20 19  1  0
 21 22  1  0
 23 21  2  0
M  END
$$$$
