VES.pdb
     RDKit          3D

 23 22  0  0  1  0  0  0  0  0999 V2000
    7.7116  -13.5520   20.9599 C   0  0  0  0  0  0  0  0  0  0  0  0
    8.8536  -13.2155   20.0332 C   0  0  2  0  0  0  0  0  0  0  0  0
    8.3416  -12.1266   19.0960 C   0  0  0  0  0  0  0  0  0  0  0  0
    9.1306  -14.4441   19.1808 C   0  0  2  0  0  0  0  0  0  0  0  0
    7.9137  -14.7606   18.4702 N   0  0  0  0  0  0  0  0  0  0  0  0
    9.6442  -15.5764   19.9922 C   0  0  0  0  0  0  0  0  0  0  0  0
    8.8196  -16.4559   20.4178 O   0  0  0  0  0  0  0  0  0  0  0  0
   11.0268  -15.6570   20.2749 N   0  0  0  0  0  0  0  0  0  0  0  0
   11.5822  -16.6669   21.1179 C   0  0  1  0  0  0  0  0  0  0  0  0
   13.0629  -16.8407   20.8401 C   0  0  0  0  0  0  0  0  0  0  0  0
   13.2887  -17.5349   19.5291 C   0  0  0  0  0  0  0  0  0  0  0  0
   14.7146  -17.8461   19.3867 C   0  0  0  0  0  0  0  0  0  0  0  0
   15.0915  -18.8241   18.7147 O   0  0  0  0  0  0  0  0  0  0  0  0
   11.4432  -16.3429   22.5665 C   0  0  0  0  0  0  0  0  0  0  0  0
   11.8523  -15.2252   22.9756 O   0  0  0  0  0  0  0  0  0  0  0  0
   15.6880  -17.0648   19.9931 O   0  0  0  0  0  0  0  0  0  0  0  0
    8.3901  -17.6200   24.7890 O   0  0  0  0  0  0  0  0  0  0  0  0
    9.2812  -16.6795   25.2791 C   0  0  0  0  0  0  0  0  0  0  0  0
   10.7027  -16.9473   24.8815 C   0  0  2  0  0  0  0  0  0  0  0  0
   10.8679  -17.2499   23.4920 N   0  0  0  0  0  0  0  0  0  0  0  0
   11.2408  -18.0036   25.7725 C   0  0  0  0  0  0  0  0  0  0  0  0
   11.2339  -17.7490   27.1372 O   0  0  0  0  0  0  0  0  0  0  0  0
   11.6949  -19.0984   25.3667 O   0  0  0  0  0  0  0  0  0  0  0  0
  2  1  1  1
  2  3  1  0
  4  2  1  0
  4  6  1  0
  4  5  1  1
  6  8  1  0
  6  7  2  0
  8  9  1  0
  9 14  1  0
 10 11  1  0
  9 10  1  6
 12 11  1  0
 13 12  2  0
 14 20  1  0
 14 15  2  0
 16 12  1  0
 17 18  1  0
 19 18  1  6
 19 21  1  0
 20 19  1  0
 21 22  1  0
 23 21  2  0
M  END
$$$$
