VES.pdb
     RDKit          3D

 23 22  0  0  1  0  0  0  0  0999 V2000
    7.8046  -13.6536   21.8331 C   0  0  0  0  0  0  0  0  0  0  0  0
    8.5470  -13.5280   20.5258 C   0  0  2  0  0  0  0  0  0  0  0  0
    7.8367  -12.4381   19.7298 C   0  0  0  0  0  0  0  0  0  0  0  0
    8.3596  -14.8310   19.7642 C   0  0  2  0  0  0  0  0  0  0  0  0
    6.9409  -15.0160   19.5665 N   0  0  0  0  0  0  0  0  0  0  0  0
    9.0066  -15.9743   20.4558 C   0  0  0  0  0  0  0  0  0  0  0  0
    8.3099  -16.6867   21.2568 O   0  0  0  0  0  0  0  0  0  0  0  0
   10.3721  -16.2490   20.2146 N   0  0  0  0  0  0  0  0  0  0  0  0
   11.0793  -17.2879   20.8923 C   0  0  1  0  0  0  0  0  0  0  0  0
   12.3991  -17.5746   20.2024 C   0  0  0  0  0  0  0  0  0  0  0  0
   12.2605  -18.6967   19.2159 C   0  0  0  0  0  0  0  0  0  0  0  0
   13.5567  -18.9386   18.5742 C   0  0  0  0  0  0  0  0  0  0  0  0
   13.8930  -18.3078   17.5549 O   0  0  0  0  0  0  0  0  0  0  0  0
   11.3915  -16.9384   22.3076 C   0  0  0  0  0  0  0  0  0  0  0  0
   12.0912  -15.9175   22.5356 O   0  0  0  0  0  0  0  0  0  0  0  0
   14.4484  -19.8743   19.0789 O   0  0  0  0  0  0  0  0  0  0  0  0
   10.1632  -17.2310   26.9679 O   0  0  0  0  0  0  0  0  0  0  0  0
    9.9480  -17.5932   25.6483 C   0  0  0  0  0  0  0  0  0  0  0  0
   11.1354  -17.3461   24.7654 C   0  0  2  0  0  0  0  0  0  0  0  0
   10.9272  -17.7163   23.3982 N   0  0  0  0  0  0  0  0  0  0  0  0
   12.3110  -18.0146   25.3741 C   0  0  0  0  0  0  0  0  0  0  0  0
   12.9094  -19.0350   24.6474 O   0  0  0  0  0  0  0  0  0  0  0  0
   12.7874  -17.7129   26.4927 O   0  0  0  0  0  0  0  0  0  0  0  0
  2  1  1  1
  2  3  1  0
  4  2  1  0
  4  6  1  0
  4  5  1  1
  6  8  1  0
  6  7  2  0
  8  9  1  0
  9 14  1  0
 10 11  1  0
  9 10  1  6
 12 11  1  0
 13 12  2  0
 14 20  1  0
 14 15  2  0
 16 12  1  0
 17 18  1  0
 19 18  1  1
 19 21  1  0
 20 19  1  0
 21 22  1  0
 23 21  2  0
M  END
$$$$
