FFR.pdb
     RDKit          3D

 34 35  0  0  1  0  0  0  0  0999 V2000
   34.4953  -22.1908    7.9101 N   0  0  0  0  0  0  0  0  0  0  0  0
   33.2723  -22.7692    8.4566 C   0  0  1  0  0  0  0  0  0  0  0  0
   32.2038  -22.5338    7.4109 C   0  0  0  0  0  0  0  0  0  0  0  0
   30.8851  -23.0801    7.8911 C   0  0  0  0  0  0  0  0  0  0  0  0
   29.9936  -22.1994    8.4630 C   0  0  0  0  0  0  0  0  0  0  0  0
   28.7815  -22.6781    8.9096 C   0  0  0  0  0  0  0  0  0  0  0  0
   28.4700  -24.0141    8.7847 C   0  0  0  0  0  0  0  0  0  0  0  0
   29.3695  -24.8970    8.2089 C   0  0  0  0  0  0  0  0  0  0  0  0
   30.5757  -24.4030    7.7681 C   0  0  0  0  0  0  0  0  0  0  0  0
   33.5147  -24.1888    8.7334 C   0  0  0  0  0  0  0  0  0  0  0  0
   34.2041  -24.9160    7.9377 O   0  0  0  0  0  0  0  0  0  0  0  0
   33.0210  -24.8768    9.8822 N   0  0  0  0  0  0  0  0  0  0  0  0
   33.2801  -26.2764   10.1201 C   0  0  1  0  0  0  0  0  0  0  0  0
   33.7039  -26.4180   11.5907 C   0  0  0  0  0  0  0  0  0  0  0  0
   34.0651  -27.8131   11.8563 C   0  0  0  0  0  0  0  0  0  0  0  0
   35.2579  -28.3271   11.3614 C   0  0  0  0  0  0  0  0  0  0  0  0
   35.6109  -29.6464   11.6048 C   0  0  0  0  0  0  0  0  0  0  0  0
   34.7908  -30.4685   12.3380 C   0  0  0  0  0  0  0  0  0  0  0  0
   33.6104  -29.9440   12.8224 C   0  0  0  0  0  0  0  0  0  0  0  0
   33.2415  -28.6165   12.5851 C   0  0  0  0  0  0  0  0  0  0  0  0
   32.0586  -27.1080    9.9874 C   0  0  0  0  0  0  0  0  0  0  0  0
   30.9678  -26.6411   10.4303 O   0  0  0  0  0  0  0  0  0  0  0  0
   28.0792  -30.9064    3.0858 N   0  0  0  0  0  0  0  0  0  0  0  0
   27.3025  -30.4008    4.1650 C   0  0  0  0  0  0  0  0  0  0  0  0
   26.0984  -29.9845    3.9192 N   0  0  0  0  0  0  0  0  0  0  0  0
   27.8268  -30.3521    5.4773 N   0  0  0  0  0  0  0  0  0  0  0  0
   29.2678  -30.0883    5.6967 C   0  0  0  0  0  0  0  0  0  0  0  0
   29.5448  -30.1107    7.1626 C   0  0  0  0  0  0  0  0  0  0  0  0
   30.5206  -29.2352    7.7630 C   0  0  0  0  0  0  0  0  0  0  0  0
   30.7573  -29.1583    9.2209 C   0  0  2  0  0  0  0  0  0  0  0  0
   32.0282  -28.3778    9.4044 N   0  0  0  0  0  0  0  0  0  0  0  0
   31.0993  -30.4555    9.8555 C   0  0  0  0  0  0  0  0  0  0  0  0
   30.0861  -31.1788   10.5419 O   0  0  0  0  0  0  0  0  0  0  0  0
   32.1992  -31.0322    9.8767 O   0  0  0  0  0  0  0  0  0  0  0  0
  2  1  1  6
  3  2  1  0
  4  3  1  0
  4  5  2  0
  6  5  1  0
  7  6  2  0
  8  9  2  0
  8  7  1  0
  9  4  1  0
 10  2  1  0
 11 10  2  0
 12 10  1  0
 13 12  1  0
 13 14  1  1
 15 14  1  0
 16 15  2  0
 17 16  1  0
 18 17  2  0
 18 19  1  0
 19 20  2  0
 20 15  1  0
 21 22  2  0
 21 13  1  0
 23 24  1  0
 24 25  2  0
 26 27  1  0
 26 24  1  0
 27 28  1  0
 30 29  1  6
 29 28  1  0
 30 31  1  0
 31 21  1  0
 32 30  1  0
 33 32  1  0
 34 32  2  0
M  END
$$$$
