FFR.pdb
     RDKit          3D

 34 35  0  0  1  0  0  0  0  0999 V2000
   28.6191  -20.4960  -14.5074 N   0  0  0  0  0  0  0  0  0  0  0  0
   27.5949  -19.6280  -13.9361 C   0  0  1  0  0  0  0  0  0  0  0  0
   26.8517  -19.0384  -15.1154 C   0  0  0  0  0  0  0  0  0  0  0  0
   27.6656  -17.9338  -15.7361 C   0  0  0  0  0  0  0  0  0  0  0  0
   27.6096  -16.6873  -15.1527 C   0  0  0  0  0  0  0  0  0  0  0  0
   28.3461  -15.6623  -15.7048 C   0  0  0  0  0  0  0  0  0  0  0  0
   29.1235  -15.8837  -16.8202 C   0  0  0  0  0  0  0  0  0  0  0  0
   29.1772  -17.1391  -17.4043 C   0  0  0  0  0  0  0  0  0  0  0  0
   28.4356  -18.1520  -16.8408 C   0  0  0  0  0  0  0  0  0  0  0  0
   26.7440  -20.4336  -13.0543 C   0  0  0  0  0  0  0  0  0  0  0  0
   26.4498  -21.6467  -13.3360 O   0  0  0  0  0  0  0  0  0  0  0  0
   26.1786  -19.9584  -11.8331 N   0  0  0  0  0  0  0  0  0  0  0  0
   25.1991  -20.7106  -11.0864 C   0  0  1  0  0  0  0  0  0  0  0  0
   25.0057  -19.9960   -9.7394 C   0  0  0  0  0  0  0  0  0  0  0  0
   26.1851  -20.2221   -8.8998 C   0  0  0  0  0  0  0  0  0  0  0  0
   26.8872  -21.4177   -8.9974 C   0  0  0  0  0  0  0  0  0  0  0  0
   28.0047  -21.6445   -8.2074 C   0  0  0  0  0  0  0  0  0  0  0  0
   28.4383  -20.6943   -7.3156 C   0  0  0  0  0  0  0  0  0  0  0  0
   27.7312  -19.5130   -7.2301 C   0  0  0  0  0  0  0  0  0  0  0  0
   26.6032  -19.2703   -8.0198 C   0  0  0  0  0  0  0  0  0  0  0  0
   23.8623  -20.6928  -11.7296 C   0  0  0  0  0  0  0  0  0  0  0  0
   23.4928  -19.6287  -12.3089 O   0  0  0  0  0  0  0  0  0  0  0  0
   21.6494  -27.0918  -13.2016 N   0  0  0  0  0  0  0  0  0  0  0  0
   21.2851  -26.6153  -14.4915 C   0  0  0  0  0  0  0  0  0  0  0  0
   21.8306  -27.1663  -15.5318 N   0  0  0  0  0  0  0  0  0  0  0  0
   20.3493  -25.5658  -14.6407 N   0  0  0  0  0  0  0  0  0  0  0  0
   19.6655  -25.0002  -13.4545 C   0  0  0  0  0  0  0  0  0  0  0  0
   20.0474  -23.5646  -13.3163 C   0  0  0  0  0  0  0  0  0  0  0  0
   21.2681  -23.1647  -12.6613 C   0  0  0  0  0  0  0  0  0  0  0  0
   21.6761  -21.7533  -12.4913 C   0  0  2  0  0  0  0  0  0  0  0  0
   22.9777  -21.7746  -11.7406 N   0  0  0  0  0  0  0  0  0  0  0  0
   20.8075  -20.9701  -11.5776 C   0  0  0  0  0  0  0  0  0  0  0  0
   19.6719  -20.2993  -12.1079 O   0  0  0  0  0  0  0  0  0  0  0  0
   20.9343  -20.8054  -10.3530 O   0  0  0  0  0  0  0  0  0  0  0  0
  2  1  1  6
  3  2  1  0
  4  3  1  0
  4  5  2  0
  6  5  1  0
  7  6  2  0
  8  9  2  0
  8  7  1  0
  9  4  1  0
 10  2  1  0
 11 10  2  0
 12 10  1  0
 13 12  1  0
 13 14  1  1
 15 14  1  0
 16 15  2  0
 17 16  1  0
 18 17  2  0
 18 19  1  0
 19 20  2  0
 20 15  1  0
 21 22  2  0
 21 13  1  0
 23 24  1  0
 24 25  2  0
 26 27  1  0
 26 24  1  0
 27 28  1  0
 30 29  1  1
 29 28  1  0
 30 31  1  0
 31 21  1  0
 32 30  1  0
 33 32  1  0
 34 32  2  0
M  END
$$$$
