FFR.pdb
     RDKit          3D

 34 35  0  0  1  0  0  0  0  0999 V2000
   23.3564  -19.8308  -17.8821 N   0  0  0  0  0  0  0  0  0  0  0  0
   22.2175  -19.3095  -17.1339 C   0  0  1  0  0  0  0  0  0  0  0  0
   21.0122  -19.5115  -18.0268 C   0  0  0  0  0  0  0  0  0  0  0  0
   21.0420  -18.5228  -19.1624 C   0  0  0  0  0  0  0  0  0  0  0  0
   20.7877  -17.2007  -18.8715 C   0  0  0  0  0  0  0  0  0  0  0  0
   20.8094  -16.2795  -19.8956 C   0  0  0  0  0  0  0  0  0  0  0  0
   21.0810  -16.6772  -21.1862 C   0  0  0  0  0  0  0  0  0  0  0  0
   21.3363  -18.0081  -21.4749 C   0  0  0  0  0  0  0  0  0  0  0  0
   21.3107  -18.9156  -20.4409 C   0  0  0  0  0  0  0  0  0  0  0  0
   22.1284  -20.0333  -15.8616 C   0  0  0  0  0  0  0  0  0  0  0  0
   22.2654  -21.3043  -15.8055 O   0  0  0  0  0  0  0  0  0  0  0  0
   21.8882  -19.4102  -14.6003 N   0  0  0  0  0  0  0  0  0  0  0  0
   21.7730  -20.1605  -13.3729 C   0  0  1  0  0  0  0  0  0  0  0  0
   21.8801  -19.1572  -12.2136 C   0  0  0  0  0  0  0  0  0  0  0  0
   21.8472  -19.8844  -10.9419 C   0  0  0  0  0  0  0  0  0  0  0  0
   22.9804  -20.5546  -10.4965 C   0  0  0  0  0  0  0  0  0  0  0  0
   22.9619  -21.2476   -9.2949 C   0  0  0  0  0  0  0  0  0  0  0  0
   21.8262  -21.2849   -8.5237 C   0  0  0  0  0  0  0  0  0  0  0  0
   20.7096  -20.6150   -8.9790 C   0  0  0  0  0  0  0  0  0  0  0  0
   20.7134  -19.9124  -10.1877 C   0  0  0  0  0  0  0  0  0  0  0  0
   20.4383  -20.7898  -13.2183 C   0  0  0  0  0  0  0  0  0  0  0  0
   19.4137  -20.0740  -13.4231 O   0  0  0  0  0  0  0  0  0  0  0  0
   19.6598  -28.8584  -11.0990 N   0  0  0  0  0  0  0  0  0  0  0  0
   19.2242  -27.6280  -10.5335 C   0  0  0  0  0  0  0  0  0  0  0  0
   18.6371  -27.6519   -9.3767 N   0  0  0  0  0  0  0  0  0  0  0  0
   19.4254  -26.4043  -11.2130 N   0  0  0  0  0  0  0  0  0  0  0  0
   19.8633  -26.3990  -12.6282 C   0  0  0  0  0  0  0  0  0  0  0  0
   20.0827  -24.9878  -13.0600 C   0  0  0  0  0  0  0  0  0  0  0  0
   18.9809  -24.1012  -13.3409 C   0  0  0  0  0  0  0  0  0  0  0  0
   18.8648  -22.7413  -12.7710 C   0  0  2  0  0  0  0  0  0  0  0  0
   20.2323  -22.1249  -12.8604 N   0  0  0  0  0  0  0  0  0  0  0  0
   18.6084  -22.7091  -11.3096 C   0  0  0  0  0  0  0  0  0  0  0  0
   17.3023  -22.9994  -10.8294 O   0  0  0  0  0  0  0  0  0  0  0  0
   19.4097  -22.4514  -10.3961 O   0  0  0  0  0  0  0  0  0  0  0  0
  2  1  1  6
  3  2  1  0
  4  3  1  0
  4  5  2  0
  6  5  1  0
  7  6  2  0
  8  9  2  0
  8  7  1  0
  9  4  1  0
 10  2  1  0
 11 10  2  0
 12 10  1  0
 13 12  1  0
 13 14  1  1
 15 14  1  0
 16 15  2  0
 17 16  1  0
 18 17  2  0
 18 19  1  0
 19 20  2  0
 20 15  1  0
 21 22  2  0
 21 13  1  0
 23 24  1  0
 24 25  2  0
 26 27  1  0
 26 24  1  0
 27 28  1  0
 30 29  1  1
 29 28  1  0
 30 31  1  0
 31 21  1  0
 32 30  1  0
 33 32  1  0
 34 32  2  0
M  END
$$$$
