FFR.pdb
     RDKit          3D

 34 35  0  0  1  0  0  0  0  0999 V2000
   27.7098  -20.1337   -9.1323 N   0  0  0  0  0  0  0  0  0  0  0  0
   26.4256  -20.8141   -9.0019 C   0  0  1  0  0  0  0  0  0  0  0  0
   25.8308  -20.3227   -7.6998 C   0  0  0  0  0  0  0  0  0  0  0  0
   26.8759  -20.3461   -6.6157 C   0  0  0  0  0  0  0  0  0  0  0  0
   27.0176  -19.2210   -5.8339 C   0  0  0  0  0  0  0  0  0  0  0  0
   27.9681  -19.2208   -4.8367 C   0  0  0  0  0  0  0  0  0  0  0  0
   28.7608  -20.3280   -4.6281 C   0  0  0  0  0  0  0  0  0  0  0  0
   28.6153  -21.4580   -5.4167 C   0  0  0  0  0  0  0  0  0  0  0  0
   27.6615  -21.4419   -6.4084 C   0  0  0  0  0  0  0  0  0  0  0  0
   25.6083  -20.4898  -10.1754 C   0  0  0  0  0  0  0  0  0  0  0  0
   24.9628  -19.3879  -10.2558 O   0  0  0  0  0  0  0  0  0  0  0  0
   25.4577  -21.3449  -11.3081 N   0  0  0  0  0  0  0  0  0  0  0  0
   24.6208  -21.0034  -12.4331 C   0  0  1  0  0  0  0  0  0  0  0  0
   25.3128  -21.5410  -13.6958 C   0  0  0  0  0  0  0  0  0  0  0  0
   24.5352  -21.1511  -14.8750 C   0  0  0  0  0  0  0  0  0  0  0  0
   23.8661  -22.1185  -15.6156 C   0  0  0  0  0  0  0  0  0  0  0  0
   23.1275  -21.7626  -16.7346 C   0  0  0  0  0  0  0  0  0  0  0  0
   23.0429  -20.4506  -17.1316 C   0  0  0  0  0  0  0  0  0  0  0  0
   23.7124  -19.5021  -16.3865 C   0  0  0  0  0  0  0  0  0  0  0  0
   24.4606  -19.8458  -15.2566 C   0  0  0  0  0  0  0  0  0  0  0  0
   23.3067  -21.6908  -12.3894 C   0  0  0  0  0  0  0  0  0  0  0  0
   23.2848  -22.9168  -12.0720 O   0  0  0  0  0  0  0  0  0  0  0  0
   19.3732  -24.2922   -7.2966 N   0  0  0  0  0  0  0  0  0  0  0  0
   18.1331  -23.9590   -7.9087 C   0  0  0  0  0  0  0  0  0  0  0  0
   17.0523  -24.5227   -7.4644 N   0  0  0  0  0  0  0  0  0  0  0  0
   18.0755  -23.0342   -8.9769 N   0  0  0  0  0  0  0  0  0  0  0  0
   19.3130  -22.6335   -9.6857 C   0  0  0  0  0  0  0  0  0  0  0  0
   18.9718  -21.5986  -10.7048 C   0  0  0  0  0  0  0  0  0  0  0  0
   19.9779  -21.0102  -11.5536 C   0  0  0  0  0  0  0  0  0  0  0  0
   20.7663  -21.7832  -12.5376 C   0  0  2  0  0  0  0  0  0  0  0  0
   22.0849  -21.0759  -12.6757 N   0  0  0  0  0  0  0  0  0  0  0  0
   20.2408  -21.7264  -13.9245 C   0  0  0  0  0  0  0  0  0  0  0  0
   19.6821  -22.8992  -14.5016 O   0  0  0  0  0  0  0  0  0  0  0  0
   20.2167  -20.7531  -14.6959 O   0  0  0  0  0  0  0  0  0  0  0  0
  2  1  1  6
  3  2  1  0
  4  3  1  0
  4  5  2  0
  6  5  1  0
  7  6  2  0
  8  9  2  0
  8  7  1  0
  9  4  1  0
 10  2  1  0
 11 10  2  0
 12 10  1  0
 13 12  1  0
 13 14  1  6
 15 14  1  0
 16 15  2  0
 17 16  1  0
 18 17  2  0
 18 19  1  0
 19 20  2  0
 20 15  1  0
 21 22  2  0
 21 13  1  0
 23 24  1  0
 24 25  2  0
 26 27  1  0
 26 24  1  0
 27 28  1  0
 30 29  1  1
 29 28  1  0
 30 31  1  0
 31 21  1  0
 32 30  1  0
 33 32  1  0
 34 32  2  0
M  END
$$$$
