FFR.pdb
     RDKit          3D

 34 35  0  0  1  0  0  0  0  0999 V2000
   28.9634  -21.0335  -13.3099 N   0  0  0  0  0  0  0  0  0  0  0  0
   28.0801  -20.0797  -12.6472 C   0  0  1  0  0  0  0  0  0  0  0  0
   27.0171  -19.7282  -13.6655 C   0  0  0  0  0  0  0  0  0  0  0  0
   27.5470  -18.6974  -14.6272 C   0  0  0  0  0  0  0  0  0  0  0  0
   28.1812  -19.1447  -15.7651 C   0  0  0  0  0  0  0  0  0  0  0  0
   28.6740  -18.2187  -16.6581 C   0  0  0  0  0  0  0  0  0  0  0  0
   28.5330  -16.8703  -16.4140 C   0  0  0  0  0  0  0  0  0  0  0  0
   27.8944  -16.4242  -15.2681 C   0  0  0  0  0  0  0  0  0  0  0  0
   27.4080  -17.3619  -14.3863 C   0  0  0  0  0  0  0  0  0  0  0  0
   27.5426  -20.7098  -11.4370 C   0  0  0  0  0  0  0  0  0  0  0  0
   27.0246  -21.8795  -11.4669 O   0  0  0  0  0  0  0  0  0  0  0  0
   27.5450  -20.0991  -10.1470 N   0  0  0  0  0  0  0  0  0  0  0  0
   26.4861  -20.3051   -9.1884 C   0  0  1  0  0  0  0  0  0  0  0  0
   26.6021  -19.1919   -8.1349 C   0  0  0  0  0  0  0  0  0  0  0  0
   27.1987  -19.7426   -6.9151 C   0  0  0  0  0  0  0  0  0  0  0  0
   26.4632  -20.6064   -6.1121 C   0  0  0  0  0  0  0  0  0  0  0  0
   27.0162  -21.1337   -4.9542 C   0  0  0  0  0  0  0  0  0  0  0  0
   28.2980  -20.8134   -4.5796 C   0  0  0  0  0  0  0  0  0  0  0  0
   29.0153  -19.9549   -5.3867 C   0  0  0  0  0  0  0  0  0  0  0  0
   28.4713  -19.4158   -6.5564 C   0  0  0  0  0  0  0  0  0  0  0  0
   25.1398  -20.1325   -9.7875 C   0  0  0  0  0  0  0  0  0  0  0  0
   24.8932  -19.0515  -10.3998 O   0  0  0  0  0  0  0  0  0  0  0  0
   23.6283  -22.8683  -16.1154 N   0  0  0  0  0  0  0  0  0  0  0  0
   24.6101  -23.3520  -15.2067 C   0  0  0  0  0  0  0  0  0  0  0  0
   25.8592  -23.2845  -15.5513 N   0  0  0  0  0  0  0  0  0  0  0  0
   24.2374  -23.8939  -13.9549 N   0  0  0  0  0  0  0  0  0  0  0  0
   22.8146  -23.9130  -13.5431 C   0  0  0  0  0  0  0  0  0  0  0  0
   22.5260  -22.6844  -12.7472 C   0  0  0  0  0  0  0  0  0  0  0  0
   23.2816  -22.3525  -11.5649 C   0  0  0  0  0  0  0  0  0  0  0  0
   23.0104  -21.1595  -10.7339 C   0  0  2  0  0  0  0  0  0  0  0  0
   24.1194  -21.0851   -9.7225 N   0  0  0  0  0  0  0  0  0  0  0  0
   21.8115  -21.2762   -9.8669 C   0  0  0  0  0  0  0  0  0  0  0  0
   21.9804  -21.5902   -8.4908 O   0  0  0  0  0  0  0  0  0  0  0  0
   20.6192  -21.1328  -10.1841 O   0  0  0  0  0  0  0  0  0  0  0  0
  2  1  1  6
  3  2  1  0
  4  3  1  0
  4  5  2  0
  6  5  1  0
  7  6  2  0
  8  9  2  0
  8  7  1  0
  9  4  1  0
 10  2  1  0
 11 10  2  0
 12 10  1  0
 13 12  1  0
 13 14  1  1
 15 14  1  0
 16 15  2  0
 17 16  1  0
 18 17  2  0
 18 19  1  0
 19 20  2  0
 20 15  1  0
 21 22  2  0
 21 13  1  0
 23 24  1  0
 24 25  2  0
 26 27  1  0
 26 24  1  0
 27 28  1  0
 30 29  1  6
 29 28  1  0
 30 31  1  0
 31 21  1  0
 32 30  1  0
 33 32  1  0
 34 32  2  0
M  END
$$$$
