FFR.pdb
     RDKit          3D

 34 35  0  0  1  0  0  0  0  0999 V2000
   21.4795  -31.7912  -11.3289 N   0  0  0  0  0  0  0  0  0  0  0  0
   22.1084  -30.9449  -10.3204 C   0  0  1  0  0  0  0  0  0  0  0  0
   20.9791  -30.1820   -9.6621 C   0  0  0  0  0  0  0  0  0  0  0  0
   20.4554  -29.1271  -10.6006 C   0  0  0  0  0  0  0  0  0  0  0  0
   19.1803  -29.2833  -11.0974 C   0  0  0  0  0  0  0  0  0  0  0  0
   18.6817  -28.3301  -11.9580 C   0  0  0  0  0  0  0  0  0  0  0  0
   19.4476  -27.2416  -12.3131 C   0  0  0  0  0  0  0  0  0  0  0  0
   20.7300  -27.0879  -11.8113 C   0  0  0  0  0  0  0  0  0  0  0  0
   21.2131  -28.0488  -10.9530 C   0  0  0  0  0  0  0  0  0  0  0  0
   22.8506  -31.8039   -9.3921 C   0  0  0  0  0  0  0  0  0  0  0  0
   22.5063  -33.0190   -9.1863 O   0  0  0  0  0  0  0  0  0  0  0  0
   23.9948  -31.3820   -8.6506 N   0  0  0  0  0  0  0  0  0  0  0  0
   24.7092  -32.2621   -7.7574 C   0  0  1  0  0  0  0  0  0  0  0  0
   25.9994  -31.5386   -7.3400 C   0  0  0  0  0  0  0  0  0  0  0  0
   26.8325  -32.4531   -6.5546 C   0  0  0  0  0  0  0  0  0  0  0  0
   27.6654  -33.3597   -7.1997 C   0  0  0  0  0  0  0  0  0  0  0  0
   28.4583  -34.2315   -6.4677 C   0  0  0  0  0  0  0  0  0  0  0  0
   28.4359  -34.2158   -5.0947 C   0  0  0  0  0  0  0  0  0  0  0  0
   27.6042  -33.3105   -4.4689 C   0  0  0  0  0  0  0  0  0  0  0  0
   26.7996  -32.4259   -5.1933 C   0  0  0  0  0  0  0  0  0  0  0  0
   23.9730  -32.5022   -6.4918 C   0  0  0  0  0  0  0  0  0  0  0  0
   23.5490  -31.4971   -5.8482 O   0  0  0  0  0  0  0  0  0  0  0  0
   20.0490  -39.9188   -3.1190 N   0  0  0  0  0  0  0  0  0  0  0  0
   20.1581  -38.9814   -2.0547 C   0  0  0  0  0  0  0  0  0  0  0  0
   19.6841  -39.3074   -0.8917 N   0  0  0  0  0  0  0  0  0  0  0  0
   20.7695  -37.7222   -2.2553 N   0  0  0  0  0  0  0  0  0  0  0  0
   21.2841  -37.3463   -3.5926 C   0  0  0  0  0  0  0  0  0  0  0  0
   21.8958  -35.9879   -3.5098 C   0  0  0  0  0  0  0  0  0  0  0  0
   22.4724  -35.3449   -4.6644 C   0  0  0  0  0  0  0  0  0  0  0  0
   23.0107  -33.9675   -4.6449 C   0  0  2  0  0  0  0  0  0  0  0  0
   23.7138  -33.7673   -5.9578 N   0  0  0  0  0  0  0  0  0  0  0  0
   24.1106  -33.7530   -3.6718 C   0  0  0  0  0  0  0  0  0  0  0  0
   25.3930  -34.3023   -3.9446 O   0  0  0  0  0  0  0  0  0  0  0  0
   24.0729  -33.1317   -2.5969 O   0  0  0  0  0  0  0  0  0  0  0  0
  2  1  1  6
  3  2  1  0
  4  3  1  0
  4  5  2  0
  6  5  1  0
  7  6  2  0
  8  9  2  0
  8  7  1  0
  9  4  1  0
 10  2  1  0
 11 10  2  0
 12 10  1  0
 13 12  1  0
 13 14  1  1
 15 14  1  0
 16 15  2  0
 17 16  1  0
 18 17  2  0
 18 19  1  0
 19 20  2  0
 20 15  1  0
 21 22  2  0
 21 13  1  0
 23 24  1  0
 24 25  2  0
 26 27  1  0
 26 24  1  0
 27 28  1  0
 30 29  1  6
 29 28  1  0
 30 31  1  0
 31 21  1  0
 32 30  1  0
 33 32  1  0
 34 32  2  0
M  END
$$$$
