FFR.pdb
     RDKit          3D

 34 35  0  0  1  0  0  0  0  0999 V2000
   28.5919  -21.0715  -14.4075 N   0  0  0  0  0  0  0  0  0  0  0  0
   28.2599  -19.9927  -13.4829 C   0  0  1  0  0  0  0  0  0  0  0  0
   27.0004  -19.3560  -14.0298 C   0  0  0  0  0  0  0  0  0  0  0  0
   27.3227  -18.5571  -15.2651 C   0  0  0  0  0  0  0  0  0  0  0  0
   28.0091  -17.3737  -15.1052 C   0  0  0  0  0  0  0  0  0  0  0  0
   28.3138  -16.6268  -16.2219 C   0  0  0  0  0  0  0  0  0  0  0  0
   27.9371  -17.0590  -17.4745 C   0  0  0  0  0  0  0  0  0  0  0  0
   27.2466  -18.2500  -17.6313 C   0  0  0  0  0  0  0  0  0  0  0  0
   26.9499  -18.9841  -16.5059 C   0  0  0  0  0  0  0  0  0  0  0  0
   28.0894  -20.5661  -12.1440 C   0  0  0  0  0  0  0  0  0  0  0  0
   27.4299  -21.6470  -11.9596 O   0  0  0  0  0  0  0  0  0  0  0  0
   28.6261  -19.9925  -10.9524 N   0  0  0  0  0  0  0  0  0  0  0  0
   28.2375  -20.4343   -9.6346 C   0  0  1  0  0  0  0  0  0  0  0  0
   28.8988  -19.4855   -8.6224 C   0  0  0  0  0  0  0  0  0  0  0  0
   28.4046  -19.7944   -7.2779 C   0  0  0  0  0  0  0  0  0  0  0  0
   28.9172  -20.8840   -6.5838 C   0  0  0  0  0  0  0  0  0  0  0  0
   28.4571  -21.1877   -5.3108 C   0  0  0  0  0  0  0  0  0  0  0  0
   27.4885  -20.4195   -4.7128 C   0  0  0  0  0  0  0  0  0  0  0  0
   26.9895  -19.3414   -5.4142 C   0  0  0  0  0  0  0  0  0  0  0  0
   27.4435  -19.0232   -6.6977 C   0  0  0  0  0  0  0  0  0  0  0  0
   26.7791  -20.2961   -9.3993 C   0  0  0  0  0  0  0  0  0  0  0  0
   26.2561  -19.1525   -9.5497 O   0  0  0  0  0  0  0  0  0  0  0  0
   21.2691  -21.3832  -14.2216 N   0  0  0  0  0  0  0  0  0  0  0  0
   20.4656  -20.7806  -13.2143 C   0  0  0  0  0  0  0  0  0  0  0  0
   19.1953  -20.6395  -13.4378 N   0  0  0  0  0  0  0  0  0  0  0  0
   21.0344  -20.3446  -11.9953 N   0  0  0  0  0  0  0  0  0  0  0  0
   22.4650  -20.5976  -11.7059 C   0  0  0  0  0  0  0  0  0  0  0  0
   22.5647  -21.5662  -10.5753 C   0  0  0  0  0  0  0  0  0  0  0  0
   23.8345  -21.9232   -9.9930 C   0  0  0  0  0  0  0  0  0  0  0  0
   24.4518  -21.1840   -8.8705 C   0  0  2  0  0  0  0  0  0  0  0  0
   25.9381  -21.3462   -9.0211 N   0  0  0  0  0  0  0  0  0  0  0  0
   24.2112  -21.7849   -7.5350 C   0  0  0  0  0  0  0  0  0  0  0  0
   23.1190  -21.3193   -6.7531 O   0  0  0  0  0  0  0  0  0  0  0  0
   24.8585  -22.6819   -6.9700 O   0  0  0  0  0  0  0  0  0  0  0  0
  2  1  1  6
  3  2  1  0
  4  3  1  0
  4  5  2  0
  6  5  1  0
  7  6  2  0
  8  9  2  0
  8  7  1  0
  9  4  1  0
 10  2  1  0
 11 10  2  0
 12 10  1  0
 13 12  1  0
 13 14  1  1
 15 14  1  0
 16 15  2  0
 17 16  1  0
 18 17  2  0
 18 19  1  0
 19 20  2  0
 20 15  1  0
 21 22  2  0
 21 13  1  0
 23 24  1  0
 24 25  2  0
 26 27  1  0
 26 24  1  0
 27 28  1  0
 30 29  1  6
 29 28  1  0
 30 31  1  0
 31 21  1  0
 32 30  1  0
 33 32  1  0
 34 32  2  0
M  END
$$$$
