YSA.pdb
     RDKit          3D

 24 24  0  0  1  0  0  0  0  0999 V2000
    6.9888  -13.3147   15.8213 O   0  0  0  0  0  0  0  0  0  0  0  0
    7.3212  -13.8149   17.0842 C   0  0  0  0  0  0  0  0  0  0  0  0
    7.3062  -15.1834   17.2797 C   0  0  0  0  0  0  0  0  0  0  0  0
    7.6271  -15.7246   18.5092 C   0  0  0  0  0  0  0  0  0  0  0  0
    7.9701  -14.9135   19.5712 C   0  0  0  0  0  0  0  0  0  0  0  0
    8.3118  -15.5163   20.8854 C   0  0  0  0  0  0  0  0  0  0  0  0
    9.7638  -15.2190   21.1869 C   0  0  2  0  0  0  0  0  0  0  0  0
   10.5709  -15.8297   20.1708 N   0  0  0  0  0  0  0  0  0  0  0  0
   10.1436  -15.6379   22.5553 C   0  0  0  0  0  0  0  0  0  0  0  0
   11.0540  -16.4929   22.7002 O   0  0  0  0  0  0  0  0  0  0  0  0
    7.9825  -13.5481   19.3670 C   0  0  0  0  0  0  0  0  0  0  0  0
    7.6620  -12.9925   18.1363 C   0  0  0  0  0  0  0  0  0  0  0  0
    7.9567  -14.7304   26.0678 O   0  0  0  0  0  0  0  0  0  0  0  0
    9.3230  -14.5369   26.0753 C   0  0  0  0  0  0  0  0  0  0  0  0
   10.0465  -15.4107   25.0700 C   0  0  2  0  0  0  0  0  0  0  0  0
    9.5389  -15.1308   23.7358 N   0  0  0  0  0  0  0  0  0  0  0  0
    9.9216  -16.8475   25.4089 C   0  0  0  0  0  0  0  0  0  0  0  0
    8.9316  -17.4910   24.9361 O   0  0  0  0  0  0  0  0  0  0  0  0
   11.8832  -19.7781   26.1145 C   0  0  0  0  0  0  0  0  0  0  0  0
   10.6824  -18.9776   26.5378 C   0  0  2  0  0  0  0  0  0  0  0  0
   10.8180  -17.5696   26.2201 N   0  0  0  0  0  0  0  0  0  0  0  0
   10.5571  -19.0843   28.0156 C   0  0  0  0  0  0  0  0  0  0  0  0
   10.5860  -18.0698   28.7766 O   0  0  0  0  0  0  0  0  0  0  0  0
   10.4015  -20.3345   28.6082 O   0  0  0  0  0  0  0  0  0  0  0  0
  1  2  1  0
  2  3  2  0
  2 12  1  0
  3  4  1  0
  4  5  2  0
  5  6  1  0
  7  6  1  0
  7  8  1  6
  9 16  1  0
  9  7  1  0
 10  9  2  0
 11  5  1  0
 12 11  2  0
 13 14  1  0
 15 14  1  1
 15 17  1  0
 15 16  1  0
 17 21  1  0
 18 17  2  0
 20 19  1  1
 20 22  1  0
 21 20  1  0
 22 23  2  0
 22 24  1  0
M  END
$$$$
