YSA.pdb
     RDKit          3D

 24 24  0  0  1  0  0  0  0  0999 V2000
   11.9109  -20.4002   29.1953 O   0  0  0  0  0  0  0  0  0  0  0  0
   11.3126  -19.8645   28.0504 C   0  0  0  0  0  0  0  0  0  0  0  0
   10.6531  -18.6538   28.1523 C   0  0  0  0  0  0  0  0  0  0  0  0
   10.0468  -18.0849   27.0494 C   0  0  0  0  0  0  0  0  0  0  0  0
   10.0846  -18.7105   25.8203 C   0  0  0  0  0  0  0  0  0  0  0  0
    9.4260  -18.0812   24.6466 C   0  0  0  0  0  0  0  0  0  0  0  0
    7.9551  -17.9117   24.9552 C   0  0  2  0  0  0  0  0  0  0  0  0
    7.3133  -19.1863   24.8126 N   0  0  0  0  0  0  0  0  0  0  0  0
    7.3320  -16.8555   24.1254 C   0  0  0  0  0  0  0  0  0  0  0  0
    6.7102  -17.1864   23.0838 O   0  0  0  0  0  0  0  0  0  0  0  0
   10.7454  -19.9192   25.7277 C   0  0  0  0  0  0  0  0  0  0  0  0
   11.3583  -20.5007   26.8287 C   0  0  0  0  0  0  0  0  0  0  0  0
    8.2060  -12.7877   24.6968 O   0  0  0  0  0  0  0  0  0  0  0  0
    6.9403  -13.0964   24.2417 C   0  0  0  0  0  0  0  0  0  0  0  0
    6.8780  -14.4394   23.5416 C   0  0  2  0  0  0  0  0  0  0  0  0
    7.3899  -15.4701   24.4314 N   0  0  0  0  0  0  0  0  0  0  0  0
    7.6133  -14.4169   22.2557 C   0  0  0  0  0  0  0  0  0  0  0  0
    8.7798  -14.9228   22.2233 O   0  0  0  0  0  0  0  0  0  0  0  0
    7.0956  -13.2303   18.6838 C   0  0  0  0  0  0  0  0  0  0  0  0
    7.7575  -14.0474   19.7590 C   0  0  2  0  0  0  0  0  0  0  0  0
    7.1231  -13.8763   21.0513 N   0  0  0  0  0  0  0  0  0  0  0  0
    9.1619  -13.5778   19.8936 C   0  0  0  0  0  0  0  0  0  0  0  0
    9.5633  -12.9086   20.8937 O   0  0  0  0  0  0  0  0  0  0  0  0
   10.0882  -13.8719   18.8967 O   0  0  0  0  0  0  0  0  0  0  0  0
  1  2  1  0
  2  3  2  0
  2 12  1  0
  3  4  1  0
  4  5  2  0
  5  6  1  0
  7  6  1  0
  7  8  1  6
  9 16  1  0
  9  7  1  0
 10  9  2  0
 11  5  1  0
 12 11  2  0
 13 14  1  0
 15 14  1  1
 15 17  1  0
 15 16  1  0
 17 21  1  0
 18 17  2  0
 20 19  1  6
 20 22  1  0
 21 20  1  0
 22 23  2  0
 22 24  1  0
M  END
$$$$
