YSA.pdb
     RDKit          3D

 24 24  0  0  1  0  0  0  0  0999 V2000
   19.0244  -17.0756   13.6969 O   0  0  0  0  0  0  0  0  0  0  0  0
   18.1773  -16.7316   14.7551 C   0  0  0  0  0  0  0  0  0  0  0  0
   18.6369  -15.8440   15.7100 C   0  0  0  0  0  0  0  0  0  0  0  0
   17.8370  -15.4739   16.7735 C   0  0  0  0  0  0  0  0  0  0  0  0
   16.5609  -15.9808   16.9085 C   0  0  0  0  0  0  0  0  0  0  0  0
   15.7170  -15.5696   18.0599 C   0  0  0  0  0  0  0  0  0  0  0  0
   14.4252  -14.9917   17.5262 C   0  0  2  0  0  0  0  0  0  0  0  0
   14.7118  -13.7206   16.9271 N   0  0  0  0  0  0  0  0  0  0  0  0
   13.3783  -14.9148   18.5705 C   0  0  0  0  0  0  0  0  0  0  0  0
   13.4167  -13.9740   19.4038 O   0  0  0  0  0  0  0  0  0  0  0  0
   16.1100  -16.8666   15.9502 C   0  0  0  0  0  0  0  0  0  0  0  0
   16.9044  -17.2459   14.8773 C   0  0  0  0  0  0  0  0  0  0  0  0
   10.3357  -17.8358   18.9935 O   0  0  0  0  0  0  0  0  0  0  0  0
   10.0474  -16.5087   19.2380 C   0  0  0  0  0  0  0  0  0  0  0  0
   11.2588  -15.7166   19.6883 C   0  0  2  0  0  0  0  0  0  0  0  0
   12.3152  -15.8478   18.6969 N   0  0  0  0  0  0  0  0  0  0  0  0
   11.7177  -16.1414   21.0313 C   0  0  0  0  0  0  0  0  0  0  0  0
   12.7353  -16.9009   21.1046 O   0  0  0  0  0  0  0  0  0  0  0  0
   10.7394  -15.6397   24.6704 C   0  0  0  0  0  0  0  0  0  0  0  0
   11.5289  -16.2579   23.5496 C   0  0  2  0  0  0  0  0  0  0  0  0
   11.1148  -15.7701   22.2487 N   0  0  0  0  0  0  0  0  0  0  0  0
   11.2815  -17.7240   23.5679 C   0  0  0  0  0  0  0  0  0  0  0  0
   10.5231  -18.2973   22.7281 O   0  0  0  0  0  0  0  0  0  0  0  0
   11.8948  -18.5170   24.5341 O   0  0  0  0  0  0  0  0  0  0  0  0
  1  2  1  0
  2  3  2  0
  2 12  1  0
  3  4  1  0
  4  5  2  0
  5  6  1  0
  7  6  1  0
  7  8  1  1
  9 16  1  0
  9  7  1  0
 10  9  2  0
 11  5  1  0
 12 11  2  0
 13 14  1  0
 15 14  1  6
 15 17  1  0
 15 16  1  0
 17 21  1  0
 18 17  2  0
 20 19  1  1
 20 22  1  0
 21 20  1  0
 22 23  2  0
 22 24  1  0
M  END
$$$$
