YSA.pdb
     RDKit          3D

 24 24  0  0  1  0  0  0  0  0999 V2000
    8.4260  -12.8026   16.5345 O   0  0  0  0  0  0  0  0  0  0  0  0
    8.2291  -13.1892   17.8640 C   0  0  0  0  0  0  0  0  0  0  0  0
    6.9811  -13.0053   18.4295 C   0  0  0  0  0  0  0  0  0  0  0  0
    6.7383  -13.3715   19.7390 C   0  0  0  0  0  0  0  0  0  0  0  0
    7.7344  -13.9290   20.5137 C   0  0  0  0  0  0  0  0  0  0  0  0
    7.4520  -14.3159   21.9201 C   0  0  0  0  0  0  0  0  0  0  0  0
    7.5445  -15.8213   22.0318 C   0  0  2  0  0  0  0  0  0  0  0  0
    6.3273  -16.3879   21.5276 N   0  0  0  0  0  0  0  0  0  0  0  0
    7.8561  -16.2574   23.4120 C   0  0  0  0  0  0  0  0  0  0  0  0
    6.9592  -16.1869   24.2905 O   0  0  0  0  0  0  0  0  0  0  0  0
    8.9777  -14.1090   19.9409 C   0  0  0  0  0  0  0  0  0  0  0  0
    9.2337  -13.7451   18.6264 C   0  0  0  0  0  0  0  0  0  0  0  0
    9.6589  -19.4738   24.6441 O   0  0  0  0  0  0  0  0  0  0  0  0
   10.2913  -18.3764   25.1915 C   0  0  0  0  0  0  0  0  0  0  0  0
    9.4215  -17.1350   25.1908 C   0  0  2  0  0  0  0  0  0  0  0  0
    9.1212  -16.7586   23.8182 N   0  0  0  0  0  0  0  0  0  0  0  0
   10.0604  -16.0228   25.9322 C   0  0  0  0  0  0  0  0  0  0  0  0
   11.1801  -15.5884   25.5134 O   0  0  0  0  0  0  0  0  0  0  0  0
    9.3374  -13.2339   28.2172 C   0  0  0  0  0  0  0  0  0  0  0  0
   10.2204  -14.3987   27.8629 C   0  0  2  0  0  0  0  0  0  0  0  0
    9.5257  -15.3983   27.0755 N   0  0  0  0  0  0  0  0  0  0  0  0
   10.6457  -15.0540   29.1281 C   0  0  0  0  0  0  0  0  0  0  0  0
   11.3134  -14.4460   30.0190 O   0  0  0  0  0  0  0  0  0  0  0  0
   10.3097  -16.3841   29.3651 O   0  0  0  0  0  0  0  0  0  0  0  0
  1  2  1  0
  2  3  2  0
  2 12  1  0
  3  4  1  0
  4  5  2  0
  5  6  1  0
  7  6  1  0
  7  8  1  1
  9 16  1  0
  9  7  1  0
 10  9  2  0
 11  5  1  0
 12 11  2  0
 13 14  1  0
 15 14  1  6
 15 17  1  0
 15 16  1  0
 17 21  1  0
 18 17  2  0
 20 19  1  1
 20 22  1  0
 21 20  1  0
 22 23  2  0
 22 24  1  0
M  END
$$$$
