YSA.pdb
     RDKit          3D

 24 24  0  0  1  0  0  0  0  0999 V2000
    8.4391  -11.4788   18.2133 O   0  0  0  0  0  0  0  0  0  0  0  0
    8.3403  -12.4701   19.1948 C   0  0  0  0  0  0  0  0  0  0  0  0
    7.0879  -12.9542   19.5237 C   0  0  0  0  0  0  0  0  0  0  0  0
    6.9398  -13.9333   20.4867 C   0  0  0  0  0  0  0  0  0  0  0  0
    8.0371  -14.4513   21.1431 C   0  0  0  0  0  0  0  0  0  0  0  0
    7.8555  -15.5040   22.1757 C   0  0  0  0  0  0  0  0  0  0  0  0
    7.9406  -16.8560   21.5031 C   0  0  2  0  0  0  0  0  0  0  0  0
    6.6088  -17.2994   21.2090 N   0  0  0  0  0  0  0  0  0  0  0  0
    8.7083  -17.8306   22.3112 C   0  0  0  0  0  0  0  0  0  0  0  0
    8.1242  -18.4484   23.2375 O   0  0  0  0  0  0  0  0  0  0  0  0
    9.2840  -13.9620   20.8084 C   0  0  0  0  0  0  0  0  0  0  0  0
    9.4455  -12.9786   19.8426 C   0  0  0  0  0  0  0  0  0  0  0  0
   12.6754  -18.7337   21.3716 O   0  0  0  0  0  0  0  0  0  0  0  0
   11.8720  -19.7381   21.8716 C   0  0  0  0  0  0  0  0  0  0  0  0
   10.7701  -19.2167   22.7724 C   0  0  2  0  0  0  0  0  0  0  0  0
   10.0836  -18.1200   22.1075 N   0  0  0  0  0  0  0  0  0  0  0  0
   11.2971  -18.8063   24.0947 C   0  0  0  0  0  0  0  0  0  0  0  0
   11.8537  -17.6667   24.1907 O   0  0  0  0  0  0  0  0  0  0  0  0
   11.2984  -20.0012   27.6859 C   0  0  0  0  0  0  0  0  0  0  0  0
   11.8448  -19.2100   26.5294 C   0  0  2  0  0  0  0  0  0  0  0  0
   11.2326  -19.5812   25.2688 N   0  0  0  0  0  0  0  0  0  0  0  0
   13.2975  -19.5060   26.4161 C   0  0  0  0  0  0  0  0  0  0  0  0
   14.1345  -19.1593   27.3040 O   0  0  0  0  0  0  0  0  0  0  0  0
   13.7797  -20.1882   25.3023 O   0  0  0  0  0  0  0  0  0  0  0  0
  1  2  1  0
  2  3  2  0
  2 12  1  0
  3  4  1  0
  4  5  2  0
  5  6  1  0
  7  6  1  0
  7  8  1  1
  9 16  1  0
  9  7  1  0
 10  9  2  0
 11  5  1  0
 12 11  2  0
 13 14  1  0
 15 14  1  6
 15 17  1  0
 15 16  1  0
 17 21  1  0
 18 17  2  0
 20 19  1  1
 20 22  1  0
 21 20  1  0
 22 23  2  0
 22 24  1  0
M  END
$$$$
