YSA.pdb
     RDKit          3D

 24 24  0  0  1  0  0  0  0  0999 V2000
    5.5780  -10.5049   27.6545 O   0  0  0  0  0  0  0  0  0  0  0  0
    6.2961  -11.5395   27.0466 C   0  0  0  0  0  0  0  0  0  0  0  0
    6.1922  -11.7028   25.6778 C   0  0  0  0  0  0  0  0  0  0  0  0
    6.8822  -12.7103   25.0324 C   0  0  0  0  0  0  0  0  0  0  0  0
    7.6912  -13.5773   25.7374 C   0  0  0  0  0  0  0  0  0  0  0  0
    8.4248  -14.6542   25.0236 C   0  0  0  0  0  0  0  0  0  0  0  0
    7.4152  -15.6137   24.4343 C   0  0  2  0  0  0  0  0  0  0  0  0
    6.8081  -16.3468   25.5072 N   0  0  0  0  0  0  0  0  0  0  0  0
    8.0180  -16.4905   23.4046 C   0  0  0  0  0  0  0  0  0  0  0  0
    8.3945  -17.6448   23.7316 O   0  0  0  0  0  0  0  0  0  0  0  0
    7.7891  -13.4070   27.1040 C   0  0  0  0  0  0  0  0  0  0  0  0
    7.1007  -12.3985   27.7637 C   0  0  0  0  0  0  0  0  0  0  0  0
    7.3491  -16.4498   19.2520 O   0  0  0  0  0  0  0  0  0  0  0  0
    8.6576  -16.3763   19.6838 C   0  0  0  0  0  0  0  0  0  0  0  0
    8.8544  -16.9630   21.0676 C   0  0  2  0  0  0  0  0  0  0  0  0
    8.2030  -16.1097   22.0492 N   0  0  0  0  0  0  0  0  0  0  0  0
   10.2904  -17.1520   21.3790 C   0  0  0  0  0  0  0  0  0  0  0  0
   10.9549  -16.1436   21.7782 O   0  0  0  0  0  0  0  0  0  0  0  0
   12.7495  -19.9851   21.8315 C   0  0  0  0  0  0  0  0  0  0  0  0
   12.3894  -18.5423   21.6063 C   0  0  2  0  0  0  0  0  0  0  0  0
   10.9901  -18.3691   21.2692 N   0  0  0  0  0  0  0  0  0  0  0  0
   13.1840  -18.0456   20.4518 C   0  0  0  0  0  0  0  0  0  0  0  0
   12.7000  -17.9484   19.2833 O   0  0  0  0  0  0  0  0  0  0  0  0
   14.5111  -17.6672   20.6370 O   0  0  0  0  0  0  0  0  0  0  0  0
  1  2  1  0
  2  3  2  0
  2 12  1  0
  3  4  1  0
  4  5  2  0
  5  6  1  0
  7  6  1  0
  7  8  1  1
  9 16  1  0
  9  7  1  0
 10  9  2  0
 11  5  1  0
 12 11  2  0
 13 14  1  0
 15 14  1  6
 15 17  1  0
 15 16  1  0
 17 21  1  0
 18 17  2  0
 20 19  1  6
 20 22  1  0
 21 20  1  0
 22 23  2  0
 22 24  1  0
M  END
$$$$
