YSA.pdb
     RDKit          3D

 24 24  0  0  1  0  0  0  0  0999 V2000
   19.1379  -13.7026   17.0628 O   0  0  0  0  0  0  0  0  0  0  0  0
   17.8449  -13.7736   17.5909 C   0  0  0  0  0  0  0  0  0  0  0  0
   17.6056  -14.6375   18.6432 C   0  0  0  0  0  0  0  0  0  0  0  0
   16.3451  -14.7425   19.1981 C   0  0  0  0  0  0  0  0  0  0  0  0
   15.2952  -13.9884   18.7160 C   0  0  0  0  0  0  0  0  0  0  0  0
   13.9472  -14.1166   19.3274 C   0  0  0  0  0  0  0  0  0  0  0  0
   13.2377  -15.2872   18.6843 C   0  0  2  0  0  0  0  0  0  0  0  0
   12.8110  -14.8927   17.3731 N   0  0  0  0  0  0  0  0  0  0  0  0
   12.1286  -15.7936   19.5243 C   0  0  0  0  0  0  0  0  0  0  0  0
   10.9844  -15.2894   19.3916 O   0  0  0  0  0  0  0  0  0  0  0  0
   15.5432  -13.1283   17.6649 C   0  0  0  0  0  0  0  0  0  0  0  0
   16.8053  -13.0141   17.0991 C   0  0  0  0  0  0  0  0  0  0  0  0
   12.4221  -19.2921   21.9290 O   0  0  0  0  0  0  0  0  0  0  0  0
   11.2544  -18.8568   21.3363 C   0  0  0  0  0  0  0  0  0  0  0  0
   11.1581  -17.3457   21.2661 C   0  0  2  0  0  0  0  0  0  0  0  0
   12.2718  -16.8282   20.4865 N   0  0  0  0  0  0  0  0  0  0  0  0
   11.1126  -16.7403   22.6175 C   0  0  0  0  0  0  0  0  0  0  0  0
   12.2075  -16.3592   23.1408 O   0  0  0  0  0  0  0  0  0  0  0  0
    8.5637  -15.6330   25.1911 C   0  0  0  0  0  0  0  0  0  0  0  0
    9.9310  -16.0804   24.7527 C   0  0  2  0  0  0  0  0  0  0  0  0
    9.9447  -16.5487   23.3808 N   0  0  0  0  0  0  0  0  0  0  0  0
   10.3370  -17.2244   25.6114 C   0  0  0  0  0  0  0  0  0  0  0  0
   10.5677  -17.0964   26.8522 O   0  0  0  0  0  0  0  0  0  0  0  0
   10.4755  -18.4927   25.0540 O   0  0  0  0  0  0  0  0  0  0  0  0
  1  2  1  0
  2  3  2  0
  2 12  1  0
  3  4  1  0
  4  5  2  0
  5  6  1  0
  7  6  1  0
  7  8  1  6
  9 16  1  0
  9  7  1  0
 10  9  2  0
 11  5  1  0
 12 11  2  0
 13 14  1  0
 15 14  1  1
 15 17  1  0
 15 16  1  0
 17 21  1  0
 18 17  2  0
 20 19  1  1
 20 22  1  0
 21 20  1  0
 22 23  2  0
 22 24  1  0
M  END
$$$$
