YSA.pdb
     RDKit          3D

 24 24  0  0  1  0  0  0  0  0999 V2000
   11.0947    1.0967   31.2044 O   0  0  0  0  0  0  0  0  0  0  0  0
   10.1316    0.9601   32.2091 C   0  0  0  0  0  0  0  0  0  0  0  0
    9.1088    0.0481   32.0268 C   0  0  0  0  0  0  0  0  0  0  0  0
    8.1344   -0.1223   32.9908 C   0  0  0  0  0  0  0  0  0  0  0  0
    8.1581    0.6129   34.1580 C   0  0  0  0  0  0  0  0  0  0  0  0
    7.1003    0.4141   35.1820 C   0  0  0  0  0  0  0  0  0  0  0  0
    7.4398   -0.8186   35.9898 C   0  0  2  0  0  0  0  0  0  0  0  0
    6.4649   -0.9589   37.0323 N   0  0  0  0  0  0  0  0  0  0  0  0
    8.8293   -0.7826   36.5000 C   0  0  0  0  0  0  0  0  0  0  0  0
    9.0681   -0.1767   37.5755 O   0  0  0  0  0  0  0  0  0  0  0  0
    9.1831    1.5215   34.3316 C   0  0  0  0  0  0  0  0  0  0  0  0
   10.1678    1.7015   33.3703 C   0  0  0  0  0  0  0  0  0  0  0  0
   12.0662   -2.8790   34.6661 O   0  0  0  0  0  0  0  0  0  0  0  0
   11.9960   -2.6504   36.0252 C   0  0  0  0  0  0  0  0  0  0  0  0
   11.2869   -1.3553   36.3680 C   0  0  2  0  0  0  0  0  0  0  0  0
    9.9299   -1.3967   35.8456 N   0  0  0  0  0  0  0  0  0  0  0  0
   12.0292   -0.1779   35.8605 C   0  0  0  0  0  0  0  0  0  0  0  0
   11.7917    0.2148   34.6743 O   0  0  0  0  0  0  0  0  0  0  0  0
   14.3706    2.4852   37.2008 C   0  0  0  0  0  0  0  0  0  0  0  0
   13.6451    1.7504   36.1073 C   0  0  2  0  0  0  0  0  0  0  0  0
   12.9872    0.5522   36.5901 N   0  0  0  0  0  0  0  0  0  0  0  0
   14.6489    1.3235   35.0968 C   0  0  0  0  0  0  0  0  0  0  0  0
   14.9471    0.1055   34.9055 O   0  0  0  0  0  0  0  0  0  0  0  0
   15.2983    2.2793   34.3200 O   0  0  0  0  0  0  0  0  0  0  0  0
  1  2  1  0
  2  3  2  0
  2 12  1  0
  3  4  1  0
  4  5  2  0
  5  6  1  0
  7  6  1  0
  7  8  1  1
  9 16  1  0
  9  7  1  0
 10  9  2  0
 11  5  1  0
 12 11  2  0
 13 14  1  0
 15 14  1  6
 15 17  1  0
 15 16  1  0
 17 21  1  0
 18 17  2  0
 20 19  1  1
 20 22  1  0
 21 20  1  0
 22 23  2  0
 22 24  1  0
M  END
$$$$
