YSA.pdb
     RDKit          3D

 24 24  0  0  1  0  0  0  0  0999 V2000
    5.5545  -10.6037   28.1048 O   0  0  0  0  0  0  0  0  0  0  0  0
    6.1487  -11.5925   27.3144 C   0  0  0  0  0  0  0  0  0  0  0  0
    7.1985  -12.3207   27.8425 C   0  0  0  0  0  0  0  0  0  0  0  0
    7.8173  -13.3076   27.1003 C   0  0  0  0  0  0  0  0  0  0  0  0
    7.4032  -13.5904   25.8151 C   0  0  0  0  0  0  0  0  0  0  0  0
    8.0825  -14.6561   25.0340 C   0  0  0  0  0  0  0  0  0  0  0  0
    7.0406  -15.6492   24.5697 C   0  0  2  0  0  0  0  0  0  0  0  0
    6.6575  -16.4595   25.6893 N   0  0  0  0  0  0  0  0  0  0  0  0
    7.5101  -16.4466   23.4137 C   0  0  0  0  0  0  0  0  0  0  0  0
    7.8690  -17.6371   23.6001 O   0  0  0  0  0  0  0  0  0  0  0  0
    6.3541  -12.8583   25.2956 C   0  0  0  0  0  0  0  0  0  0  0  0
    5.7245  -11.8643   26.0316 C   0  0  0  0  0  0  0  0  0  0  0  0
    8.9419  -15.1695   19.3644 O   0  0  0  0  0  0  0  0  0  0  0  0
    7.8632  -15.9706   19.6786 C   0  0  0  0  0  0  0  0  0  0  0  0
    8.0612  -16.7459   20.9660 C   0  0  2  0  0  0  0  0  0  0  0  0
    7.5837  -15.9493   22.0856 N   0  0  0  0  0  0  0  0  0  0  0  0
    9.4759  -17.1462   21.1477 C   0  0  0  0  0  0  0  0  0  0  0  0
   10.2684  -16.3154   21.6951 O   0  0  0  0  0  0  0  0  0  0  0  0
   11.6706  -20.1969   20.5999 C   0  0  0  0  0  0  0  0  0  0  0  0
   11.4166  -18.7511   20.9270 C   0  0  2  0  0  0  0  0  0  0  0  0
   10.0238  -18.3845   20.7609 N   0  0  0  0  0  0  0  0  0  0  0  0
   12.2055  -17.9204   19.9790 C   0  0  0  0  0  0  0  0  0  0  0  0
   11.6713  -17.2989   19.0108 O   0  0  0  0  0  0  0  0  0  0  0  0
   13.5836  -17.8061   20.1410 O   0  0  0  0  0  0  0  0  0  0  0  0
  1  2  1  0
  2  3  2  0
  2 12  1  0
  3  4  1  0
  4  5  2  0
  5  6  1  0
  7  6  1  0
  7  8  1  1
  9 16  1  0
  9  7  1  0
 10  9  2  0
 11  5  1  0
 12 11  2  0
 13 14  1  0
 15 14  1  6
 15 17  1  0
 15 16  1  0
 17 21  1  0
 18 17  2  0
 20 19  1  6
 20 22  1  0
 21 20  1  0
 22 23  2  0
 22 24  1  0
M  END
$$$$
