YYM.pdb
     RDKit          3D

 33 34  0  0  1  0  0  0  0  0999 V2000
   29.1972  -15.1466  -18.1819 O   0  0  0  0  0  0  0  0  0  0  0  0
   28.4548  -16.1253  -17.5117 C   0  0  0  0  0  0  0  0  0  0  0  0
   27.9257  -15.8636  -16.2767 C   0  0  0  0  0  0  0  0  0  0  0  0
   27.1810  -16.8095  -15.5762 C   0  0  0  0  0  0  0  0  0  0  0  0
   26.9720  -18.0403  -16.1423 C   0  0  0  0  0  0  0  0  0  0  0  0
   26.1898  -19.0985  -15.4608 C   0  0  0  0  0  0  0  0  0  0  0  0
   27.0106  -19.7662  -14.3859 C   0  0  2  0  0  0  0  0  0  0  0  0
   28.0457  -20.5329  -15.0481 N   0  0  0  0  0  0  0  0  0  0  0  0
   26.2498  -20.5822  -13.4459 C   0  0  0  0  0  0  0  0  0  0  0  0
   25.9941  -21.8013  -13.7435 O   0  0  0  0  0  0  0  0  0  0  0  0
   27.5095  -18.2891  -17.3835 C   0  0  0  0  0  0  0  0  0  0  0  0
   28.2459  -17.3550  -18.0772 C   0  0  0  0  0  0  0  0  0  0  0  0
   29.9844  -21.1726   -7.7146 O   0  0  0  0  0  0  0  0  0  0  0  0
   28.7301  -20.9764   -8.2758 C   0  0  0  0  0  0  0  0  0  0  0  0
   27.8180  -20.1383   -7.6247 C   0  0  0  0  0  0  0  0  0  0  0  0
   26.5670  -19.9331   -8.1701 C   0  0  0  0  0  0  0  0  0  0  0  0
   26.1870  -20.5392   -9.3539 C   0  0  0  0  0  0  0  0  0  0  0  0
   24.8755  -20.3431   -9.9586 C   0  0  0  0  0  0  0  0  0  0  0  0
   24.7875  -20.7147  -11.4191 C   0  0  2  0  0  0  0  0  0  0  0  0
   25.7904  -20.0495  -12.2069 N   0  0  0  0  0  0  0  0  0  0  0  0
   23.4524  -20.5823  -12.0063 C   0  0  0  0  0  0  0  0  0  0  0  0
   23.3059  -19.8533  -13.0184 O   0  0  0  0  0  0  0  0  0  0  0  0
   27.1041  -21.3568   -9.9706 C   0  0  0  0  0  0  0  0  0  0  0  0
   28.3654  -21.5878   -9.4574 C   0  0  0  0  0  0  0  0  0  0  0  0
   23.0334  -22.6071  -16.2375 C   0  0  0  0  0  0  0  0  0  0  0  0
   21.2694  -22.9109  -16.1358 S   0  0  0  0  0  0  0  0  0  0  0  0
   20.5246  -22.2885  -14.6390 C   0  0  0  0  0  0  0  0  0  0  0  0
   21.5118  -21.9913  -13.5790 C   0  0  0  0  0  0  0  0  0  0  0  0
   21.0553  -21.3599  -12.3151 C   0  0  2  0  0  0  0  0  0  0  0  0
   22.2998  -21.2339  -11.5016 N   0  0  0  0  0  0  0  0  0  0  0  0
   20.0106  -22.0076  -11.5451 C   0  0  0  0  0  0  0  0  0  0  0  0
   18.7823  -21.7429  -11.7782 O   0  0  0  0  0  0  0  0  0  0  0  0
   20.2306  -22.9329  -10.5382 O   0  0  0  0  0  0  0  0  0  0  0  0
  2  3  2  0
  2  1  1  0
  4  3  1  0
  5  4  2  0
  6  5  1  0
  7  6  1  0
  7  8  1  6
  9 20  1  0
  9  7  1  0
 10  9  2  0
 11  5  1  0
 11 12  2  0
 12  2  1  0
 14 13  1  0
 14 15  2  0
 16 15  1  0
 17 16  2  0
 18 17  1  0
 19 18  1  1
 19 20  1  0
 21 19  1  0
 21 30  1  0
 22 21  2  0
 23 24  2  0
 23 17  1  0
 24 14  1  0
 25 26  1  0
 26 27  1  0
 27 28  1  0
 29 28  1  6
 29 30  1  0
 29 31  1  0
 31 32  2  0
 31 33  1  0
M  END
$$$$
