YYM.pdb
     RDKit          3D

 33 34  0  0  1  0  0  0  0  0999 V2000
   15.7902  -11.1646    2.4757 O   0  0  0  0  0  0  0  0  0  0  0  0
   16.6188  -12.1969    2.9297 C   0  0  0  0  0  0  0  0  0  0  0  0
   16.1067  -13.4482    3.1434 C   0  0  0  0  0  0  0  0  0  0  0  0
   16.8967  -14.5028    3.5947 C   0  0  0  0  0  0  0  0  0  0  0  0
   18.2283  -14.2795    3.8317 C   0  0  0  0  0  0  0  0  0  0  0  0
   19.1336  -15.3502    4.3114 C   0  0  0  0  0  0  0  0  0  0  0  0
   18.9098  -15.6273    5.7770 C   0  0  2  0  0  0  0  0  0  0  0  0
   19.2776  -14.4292    6.5030 N   0  0  0  0  0  0  0  0  0  0  0  0
   19.5964  -16.8061    6.2941 C   0  0  0  0  0  0  0  0  0  0  0  0
   20.8767  -16.8194    6.3228 O   0  0  0  0  0  0  0  0  0  0  0  0
   18.7288  -13.0175    3.6126 C   0  0  0  0  0  0  0  0  0  0  0  0
   17.9491  -11.9739    3.1666 C   0  0  0  0  0  0  0  0  0  0  0  0
   23.3840  -15.4144   10.8463 O   0  0  0  0  0  0  0  0  0  0  0  0
   22.4697  -16.3259   10.3364 C   0  0  0  0  0  0  0  0  0  0  0  0
   21.1026  -16.0433   10.4329 C   0  0  0  0  0  0  0  0  0  0  0  0
   20.1812  -16.9395    9.9307 C   0  0  0  0  0  0  0  0  0  0  0  0
   20.5763  -18.1206    9.3290 C   0  0  0  0  0  0  0  0  0  0  0  0
   19.6308  -19.0880    8.7865 C   0  0  0  0  0  0  0  0  0  0  0  0
   19.5343  -19.1057    7.2800 C   0  0  2  0  0  0  0  0  0  0  0  0
   18.8706  -17.9369    6.7676 N   0  0  0  0  0  0  0  0  0  0  0  0
   18.9845  -20.3400    6.7151 C   0  0  0  0  0  0  0  0  0  0  0  0
   17.7401  -20.5093    6.7269 O   0  0  0  0  0  0  0  0  0  0  0  0
   21.9257  -18.3708    9.2486 C   0  0  0  0  0  0  0  0  0  0  0  0
   22.8791  -17.4999    9.7388 C   0  0  0  0  0  0  0  0  0  0  0  0
   20.5953  -25.5840    1.0765 C   0  0  0  0  0  0  0  0  0  0  0  0
   21.0135  -24.2827    2.2366 S   0  0  0  0  0  0  0  0  0  0  0  0
   19.7778  -24.0290    3.4981 C   0  0  0  0  0  0  0  0  0  0  0  0
   20.1237  -22.9426    4.4398 C   0  0  0  0  0  0  0  0  0  0  0  0
   19.1563  -22.5627    5.5002 C   0  0  2  0  0  0  0  0  0  0  0  0
   19.7755  -21.3685    6.1460 N   0  0  0  0  0  0  0  0  0  0  0  0
   18.7905  -23.5468    6.5009 C   0  0  0  0  0  0  0  0  0  0  0  0
   19.4514  -23.6308    7.5915 O   0  0  0  0  0  0  0  0  0  0  0  0
   17.7398  -24.4413    6.3812 O   0  0  0  0  0  0  0  0  0  0  0  0
  2  3  2  0
  2  1  1  0
  4  3  1  0
  5  4  2  0
  6  5  1  0
  7  6  1  0
  7  8  1  1
  9 20  1  0
  9  7  1  0
 10  9  2  0
 11  5  1  0
 11 12  2  0
 12  2  1  0
 14 13  1  0
 14 15  2  0
 16 15  1  0
 17 16  2  0
 18 17  1  0
 19 18  1  1
 19 20  1  0
 21 19  1  0
 21 30  1  0
 22 21  2  0
 23 24  2  0
 23 17  1  0
 24 14  1  0
 25 26  1  0
 26 27  1  0
 27 28  1  0
 29 28  1  6
 29 30  1  0
 29 31  1  0
 31 32  2  0
 31 33  1  0
M  END
$$$$
