YYM.pdb
     RDKit          3D

 33 34  0  0  1  0  0  0  0  0999 V2000
   22.2811  -14.1218  -20.8507 O   0  0  0  0  0  0  0  0  0  0  0  0
   22.0084  -15.1515  -19.9431 C   0  0  0  0  0  0  0  0  0  0  0  0
   21.9480  -14.8892  -18.6010 C   0  0  0  0  0  0  0  0  0  0  0  0
   21.6794  -15.8849  -17.6648 C   0  0  0  0  0  0  0  0  0  0  0  0
   21.4692  -17.1669  -18.1023 C   0  0  0  0  0  0  0  0  0  0  0  0
   21.1769  -18.2800  -17.1687 C   0  0  0  0  0  0  0  0  0  0  0  0
   22.3652  -18.5673  -16.2854 C   0  0  2  0  0  0  0  0  0  0  0  0
   23.4090  -19.1096  -17.1304 N   0  0  0  0  0  0  0  0  0  0  0  0
   22.0901  -19.4313  -15.1425 C   0  0  0  0  0  0  0  0  0  0  0  0
   22.2462  -20.6964  -15.2654 O   0  0  0  0  0  0  0  0  0  0  0  0
   21.5329  -17.4156  -19.4534 C   0  0  0  0  0  0  0  0  0  0  0  0
   21.7984  -16.4323  -20.3800 C   0  0  0  0  0  0  0  0  0  0  0  0
   20.5773  -22.1219   -6.8557 O   0  0  0  0  0  0  0  0  0  0  0  0
   20.8024  -21.3510   -7.9879 C   0  0  0  0  0  0  0  0  0  0  0  0
   22.0985  -21.2725   -8.5098 C   0  0  0  0  0  0  0  0  0  0  0  0
   22.3383  -20.5103   -9.6348 C   0  0  0  0  0  0  0  0  0  0  0  0
   21.3228  -19.8153  -10.2664 C   0  0  0  0  0  0  0  0  0  0  0  0
   21.5403  -19.0029  -11.4567 C   0  0  0  0  0  0  0  0  0  0  0  0
   21.3675  -19.7350  -12.7656 C   0  0  2  0  0  0  0  0  0  0  0  0
   21.6548  -18.8942  -13.8967 N   0  0  0  0  0  0  0  0  0  0  0  0
   20.0892  -20.4342  -12.9131 C   0  0  0  0  0  0  0  0  0  0  0  0
   19.0842  -19.7842  -13.2937 O   0  0  0  0  0  0  0  0  0  0  0  0
   20.0603  -19.9116   -9.7308 C   0  0  0  0  0  0  0  0  0  0  0  0
   19.7792  -20.6634   -8.6069 C   0  0  0  0  0  0  0  0  0  0  0  0
   16.8343  -27.3473  -14.6522 C   0  0  0  0  0  0  0  0  0  0  0  0
   18.2062  -26.3181  -14.1297 S   0  0  0  0  0  0  0  0  0  0  0  0
   17.7008  -24.7441  -13.4589 C   0  0  0  0  0  0  0  0  0  0  0  0
   18.8280  -23.8073  -13.2633 C   0  0  0  0  0  0  0  0  0  0  0  0
   18.5626  -22.4532  -12.7149 C   0  0  2  0  0  0  0  0  0  0  0  0
   19.9102  -21.8155  -12.6535 N   0  0  0  0  0  0  0  0  0  0  0  0
   17.8875  -22.3343  -11.4367 C   0  0  0  0  0  0  0  0  0  0  0  0
   16.6635  -21.9704  -11.3878 O   0  0  0  0  0  0  0  0  0  0  0  0
   18.4715  -22.5959  -10.2083 O   0  0  0  0  0  0  0  0  0  0  0  0
  2  3  2  0
  2  1  1  0
  4  3  1  0
  5  4  2  0
  6  5  1  0
  7  6  1  0
  7  8  1  6
  9 20  1  0
  9  7  1  0
 10  9  2  0
 11  5  1  0
 11 12  2  0
 12  2  1  0
 14 13  1  0
 14 15  2  0
 16 15  1  0
 17 16  2  0
 18 17  1  0
 19 18  1  1
 19 20  1  0
 21 19  1  0
 21 30  1  0
 22 21  2  0
 23 24  2  0
 23 17  1  0
 24 14  1  0
 25 26  1  0
 26 27  1  0
 27 28  1  0
 29 28  1  1
 29 30  1  0
 29 31  1  0
 31 32  2  0
 31 33  1  0
M  END
$$$$
