YYM.pdb
     RDKit          3D

 33 34  0  0  1  0  0  0  0  0999 V2000
   18.4881  -17.9275  -16.9485 O   0  0  0  0  0  0  0  0  0  0  0  0
   19.4731  -18.6159  -16.2315 C   0  0  0  0  0  0  0  0  0  0  0  0
   20.2268  -17.9622  -15.2943 C   0  0  0  0  0  0  0  0  0  0  0  0
   21.2168  -18.6100  -14.5593 C   0  0  0  0  0  0  0  0  0  0  0  0
   21.4423  -19.9436  -14.7822 C   0  0  0  0  0  0  0  0  0  0  0  0
   22.4762  -20.7027  -14.0399 C   0  0  0  0  0  0  0  0  0  0  0  0
   23.8604  -20.3079  -14.4903 C   0  0  2  0  0  0  0  0  0  0  0  0
   23.9869  -20.6920  -15.8810 N   0  0  0  0  0  0  0  0  0  0  0  0
   24.9491  -20.8426  -13.6796 C   0  0  0  0  0  0  0  0  0  0  0  0
   25.2454  -22.0848  -13.7747 O   0  0  0  0  0  0  0  0  0  0  0  0
   20.6776  -20.5873  -15.7268 C   0  0  0  0  0  0  0  0  0  0  0  0
   19.6986  -19.9481  -16.4542 C   0  0  0  0  0  0  0  0  0  0  0  0
   29.0732  -19.7978  -17.9043 O   0  0  0  0  0  0  0  0  0  0  0  0
   28.8273  -19.8318  -16.5386 C   0  0  0  0  0  0  0  0  0  0  0  0
   29.1080  -21.0035  -15.8267 C   0  0  0  0  0  0  0  0  0  0  0  0
   28.8690  -21.0530  -14.4684 C   0  0  0  0  0  0  0  0  0  0  0  0
   28.3547  -19.9656  -13.7854 C   0  0  0  0  0  0  0  0  0  0  0  0
   28.0922  -19.9828  -12.3519 C   0  0  0  0  0  0  0  0  0  0  0  0
   26.7409  -20.5299  -11.9603 C   0  0  2  0  0  0  0  0  0  0  0  0
   25.6867  -20.0099  -12.7894 N   0  0  0  0  0  0  0  0  0  0  0  0
   26.4232  -20.4173  -10.5351 C   0  0  0  0  0  0  0  0  0  0  0  0
   25.7789  -19.4159  -10.1358 O   0  0  0  0  0  0  0  0  0  0  0  0
   28.0891  -18.8288  -14.5114 C   0  0  0  0  0  0  0  0  0  0  0  0
   28.3141  -18.7391  -15.8710 C   0  0  0  0  0  0  0  0  0  0  0  0
   28.3232  -20.8381   -4.1026 C   0  0  0  0  0  0  0  0  0  0  0  0
   28.1295  -19.4459   -5.2155 S   0  0  0  0  0  0  0  0  0  0  0  0
   26.6998  -19.5743   -6.2748 C   0  0  0  0  0  0  0  0  0  0  0  0
   27.0238  -20.0671   -7.6307 C   0  0  0  0  0  0  0  0  0  0  0  0
   26.3388  -21.2786   -8.1482 C   0  0  2  0  0  0  0  0  0  0  0  0
   26.7982  -21.3788   -9.5643 N   0  0  0  0  0  0  0  0  0  0  0  0
   24.8918  -21.3493   -8.0791 C   0  0  0  0  0  0  0  0  0  0  0  0
   24.1758  -20.6853   -8.9035 O   0  0  0  0  0  0  0  0  0  0  0  0
   24.1814  -22.1088   -7.1643 O   0  0  0  0  0  0  0  0  0  0  0  0
  2  3  2  0
  2  1  1  0
  4  3  1  0
  5  4  2  0
  6  5  1  0
  7  6  1  0
  7  8  1  6
  9 20  1  0
  9  7  1  0
 10  9  2  0
 11  5  1  0
 11 12  2  0
 12  2  1  0
 14 13  1  0
 14 15  2  0
 16 15  1  0
 17 16  2  0
 18 17  1  0
 19 18  1  1
 19 20  1  0
 21 19  1  0
 21 30  1  0
 22 21  2  0
 23 24  2  0
 23 17  1  0
 24 14  1  0
 25 26  1  0
 26 27  1  0
 27 28  1  0
 29 28  1  6
 29 30  1  0
 29 31  1  0
 31 32  2  0
 31 33  1  0
M  END
$$$$
