YYM.pdb
     RDKit          3D

 33 34  0  0  1  0  0  0  0  0999 V2000
   15.0720  -12.6653  -21.5383 O   0  0  0  0  0  0  0  0  0  0  0  0
   15.4594  -11.7613  -20.5428 C   0  0  0  0  0  0  0  0  0  0  0  0
   16.4894  -10.8882  -20.7676 C   0  0  0  0  0  0  0  0  0  0  0  0
   16.9060   -9.9730  -19.8040 C   0  0  0  0  0  0  0  0  0  0  0  0
   16.2638   -9.9466  -18.5932 C   0  0  0  0  0  0  0  0  0  0  0  0
   16.6477   -9.0016  -17.5181 C   0  0  0  0  0  0  0  0  0  0  0  0
   18.0009   -9.3523  -16.9517 C   0  0  2  0  0  0  0  0  0  0  0  0
   17.8621  -10.6135  -16.2534 N   0  0  0  0  0  0  0  0  0  0  0  0
   18.5996   -8.3269  -16.1040 C   0  0  0  0  0  0  0  0  0  0  0  0
   18.3369   -8.3228  -14.8505 O   0  0  0  0  0  0  0  0  0  0  0  0
   15.2309  -10.8296  -18.3814 C   0  0  0  0  0  0  0  0  0  0  0  0
   14.8180  -11.7349  -19.3331 C   0  0  0  0  0  0  0  0  0  0  0  0
   23.4091  -11.5838  -14.3859 O   0  0  0  0  0  0  0  0  0  0  0  0
   22.9509  -10.3127  -14.7041 C   0  0  0  0  0  0  0  0  0  0  0  0
   22.7811   -9.9688  -16.0499 C   0  0  0  0  0  0  0  0  0  0  0  0
   22.3264   -8.7090  -16.3823 C   0  0  0  0  0  0  0  0  0  0  0  0
   22.0313   -7.7683  -15.4121 C   0  0  0  0  0  0  0  0  0  0  0  0
   21.5476   -6.4301  -15.7276 C   0  0  0  0  0  0  0  0  0  0  0  0
   20.0463   -6.3039  -15.8242 C   0  0  2  0  0  0  0  0  0  0  0  0
   19.4692   -7.3357  -16.6435 N   0  0  0  0  0  0  0  0  0  0  0  0
   19.5658   -4.9725  -16.2002 C   0  0  0  0  0  0  0  0  0  0  0  0
   19.5841   -4.6423  -17.4118 O   0  0  0  0  0  0  0  0  0  0  0  0
   22.2079   -8.1349  -14.0990 C   0  0  0  0  0  0  0  0  0  0  0  0
   22.6607   -9.3850  -13.7251 C   0  0  0  0  0  0  0  0  0  0  0  0
   14.5549   -1.3587  -19.3622 C   0  0  0  0  0  0  0  0  0  0  0  0
   15.4205   -2.6456  -18.4628 S   0  0  0  0  0  0  0  0  0  0  0  0
   16.8215   -2.0470  -17.5347 C   0  0  0  0  0  0  0  0  0  0  0  0
   17.4828   -3.1015  -16.7364 C   0  0  0  0  0  0  0  0  0  0  0  0
   18.4987   -2.7186  -15.7235 C   0  0  2  0  0  0  0  0  0  0  0  0
   19.0723   -4.0206  -15.2739 N   0  0  0  0  0  0  0  0  0  0  0  0
   18.0859   -1.9258  -14.5812 C   0  0  0  0  0  0  0  0  0  0  0  0
   17.6942   -0.7202  -14.7433 O   0  0  0  0  0  0  0  0  0  0  0  0
   18.0710   -2.3765  -13.2716 O   0  0  0  0  0  0  0  0  0  0  0  0
  2  3  2  0
  2  1  1  0
  4  3  1  0
  5  4  2  0
  6  5  1  0
  7  6  1  0
  7  8  1  1
  9 20  1  0
  9  7  1  0
 10  9  2  0
 11  5  1  0
 11 12  2  0
 12  2  1  0
 14 13  1  0
 14 15  2  0
 16 15  1  0
 17 16  2  0
 18 17  1  0
 19 18  1  6
 19 20  1  0
 21 19  1  0
 21 30  1  0
 22 21  2  0
 23 24  2  0
 23 17  1  0
 24 14  1  0
 25 26  1  0
 26 27  1  0
 27 28  1  0
 29 28  1  6
 29 30  1  0
 29 31  1  0
 31 32  2  0
 31 33  1  0
M  END
$$$$
