YYM.pdb
     RDKit          3D

 33 34  0  0  1  0  0  0  0  0999 V2000
   18.6398  -22.4121  -12.9890 O   0  0  0  0  0  0  0  0  0  0  0  0
   19.8415  -22.3211  -13.7002 C   0  0  0  0  0  0  0  0  0  0  0  0
   19.8310  -22.0216  -15.0358 C   0  0  0  0  0  0  0  0  0  0  0  0
   21.0040  -21.9216  -15.7800 C   0  0  0  0  0  0  0  0  0  0  0  0
   22.2058  -22.1298  -15.1544 C   0  0  0  0  0  0  0  0  0  0  0  0
   23.4963  -22.0399  -15.8772 C   0  0  0  0  0  0  0  0  0  0  0  0
   24.1113  -20.6726  -15.7118 C   0  0  2  0  0  0  0  0  0  0  0  0
   23.1808  -19.7117  -16.2672 N   0  0  0  0  0  0  0  0  0  0  0  0
   25.4469  -20.5239  -16.2798 C   0  0  0  0  0  0  0  0  0  0  0  0
   25.5680  -20.1481  -17.4981 O   0  0  0  0  0  0  0  0  0  0  0  0
   22.2011  -22.4299  -13.8123 C   0  0  0  0  0  0  0  0  0  0  0  0
   21.0422  -22.5291  -13.0753 C   0  0  0  0  0  0  0  0  0  0  0  0
   26.6487  -14.2830  -16.6641 O   0  0  0  0  0  0  0  0  0  0  0  0
   27.1387  -15.5403  -16.3385 C   0  0  0  0  0  0  0  0  0  0  0  0
   26.7362  -16.1365  -15.1382 C   0  0  0  0  0  0  0  0  0  0  0  0
   27.2146  -17.3861  -14.8004 C   0  0  0  0  0  0  0  0  0  0  0  0
   28.0893  -18.0715  -15.6240 C   0  0  0  0  0  0  0  0  0  0  0  0
   28.6122  -19.3926  -15.2993 C   0  0  0  0  0  0  0  0  0  0  0  0
   27.9356  -20.5368  -16.0147 C   0  0  2  0  0  0  0  0  0  0  0  0
   26.6137  -20.7861  -15.5054 N   0  0  0  0  0  0  0  0  0  0  0  0
   28.7308  -21.7637  -16.0988 C   0  0  0  0  0  0  0  0  0  0  0  0
   28.6805  -22.5839  -15.1490 O   0  0  0  0  0  0  0  0  0  0  0  0
   28.4667  -17.4605  -16.7963 C   0  0  0  0  0  0  0  0  0  0  0  0
   28.0107  -16.2117  -17.1703 C   0  0  0  0  0  0  0  0  0  0  0  0
   27.9980  -28.2763  -15.7287 C   0  0  0  0  0  0  0  0  0  0  0  0
   27.8585  -26.7855  -16.7148 S   0  0  0  0  0  0  0  0  0  0  0  0
   29.1971  -25.6343  -16.4587 C   0  0  0  0  0  0  0  0  0  0  0  0
   29.0386  -24.3795  -17.2248 C   0  0  0  0  0  0  0  0  0  0  0  0
   30.1846  -23.4414  -17.3309 C   0  0  2  0  0  0  0  0  0  0  0  0
   29.5628  -22.0915  -17.1978 N   0  0  0  0  0  0  0  0  0  0  0  0
   31.0288  -23.4961  -18.5090 C   0  0  0  0  0  0  0  0  0  0  0  0
   30.5689  -23.1383  -19.6464 O   0  0  0  0  0  0  0  0  0  0  0  0
   32.3493  -23.9139  -18.5151 O   0  0  0  0  0  0  0  0  0  0  0  0
  2  3  2  0
  2  1  1  0
  4  3  1  0
  5  4  2  0
  6  5  1  0
  7  6  1  0
  7  8  1  6
  9 20  1  0
  9  7  1  0
 10  9  2  0
 11  5  1  0
 11 12  2  0
 12  2  1  0
 14 13  1  0
 14 15  2  0
 16 15  1  0
 17 16  2  0
 18 17  1  0
 19 18  1  1
 19 20  1  0
 21 19  1  0
 21 30  1  0
 22 21  2  0
 23 24  2  0
 23 17  1  0
 24 14  1  0
 25 26  1  0
 26 27  1  0
 27 28  1  0
 29 28  1  6
 29 30  1  0
 29 31  1  0
 31 32  2  0
 31 33  1  0
M  END
$$$$
