YYM.pdb
     RDKit          3D

 33 34  0  0  1  0  0  0  0  0999 V2000
   21.7672  -19.5172  -15.7517 O   0  0  0  0  0  0  0  0  0  0  0  0
   21.3895  -18.2059  -16.0618 C   0  0  0  0  0  0  0  0  0  0  0  0
   21.1939  -17.2905  -15.0631 C   0  0  0  0  0  0  0  0  0  0  0  0
   20.8178  -15.9760  -15.3287 C   0  0  0  0  0  0  0  0  0  0  0  0
   20.6383  -15.5881  -16.6311 C   0  0  0  0  0  0  0  0  0  0  0  0
   20.2401  -14.2077  -16.9943 C   0  0  0  0  0  0  0  0  0  0  0  0
   18.8118  -13.9366  -16.5922 C   0  0  2  0  0  0  0  0  0  0  0  0
   17.9742  -14.8610  -17.3280 N   0  0  0  0  0  0  0  0  0  0  0  0
   18.3742  -12.5554  -16.7633 C   0  0  0  0  0  0  0  0  0  0  0  0
   18.1494  -12.1143  -17.9444 O   0  0  0  0  0  0  0  0  0  0  0  0
   20.8384  -16.5184  -17.6240 C   0  0  0  0  0  0  0  0  0  0  0  0
   21.2101  -17.8182  -17.3630 C   0  0  0  0  0  0  0  0  0  0  0  0
   14.4097   -4.8472  -15.4782 O   0  0  0  0  0  0  0  0  0  0  0  0
   14.9060   -6.1394  -15.3750 C   0  0  0  0  0  0  0  0  0  0  0  0
   14.6558   -7.0480  -16.4095 C   0  0  0  0  0  0  0  0  0  0  0  0
   15.1425   -8.3364  -16.3216 C   0  0  0  0  0  0  0  0  0  0  0  0
   15.8777   -8.7577  -15.2284 C   0  0  0  0  0  0  0  0  0  0  0  0
   16.4081  -10.1095  -15.1041 C   0  0  0  0  0  0  0  0  0  0  0  0
   17.7304  -10.3389  -15.7954 C   0  0  2  0  0  0  0  0  0  0  0  0
   18.1911  -11.6932  -15.6440 N   0  0  0  0  0  0  0  0  0  0  0  0
   18.7729   -9.3652  -15.4639 C   0  0  0  0  0  0  0  0  0  0  0  0
   19.4322   -9.5207  -14.4063 O   0  0  0  0  0  0  0  0  0  0  0  0
   16.1074   -7.8430  -14.2281 C   0  0  0  0  0  0  0  0  0  0  0  0
   15.6379   -6.5451  -14.2782 C   0  0  0  0  0  0  0  0  0  0  0  0
   22.1653   -7.1504  -20.0355 C   0  0  0  0  0  0  0  0  0  0  0  0
   23.1429   -6.4886  -18.6863 S   0  0  0  0  0  0  0  0  0  0  0  0
   22.2689   -6.4369  -17.1319 C   0  0  0  0  0  0  0  0  0  0  0  0
   21.0808   -7.3168  -17.1040 C   0  0  0  0  0  0  0  0  0  0  0  0
   20.1997   -7.3128  -15.9089 C   0  0  2  0  0  0  0  0  0  0  0  0
   19.0924   -8.2452  -16.2708 N   0  0  0  0  0  0  0  0  0  0  0  0
   19.6644   -6.0503  -15.4365 C   0  0  0  0  0  0  0  0  0  0  0  0
   18.6089   -5.5614  -15.9656 O   0  0  0  0  0  0  0  0  0  0  0  0
   20.2131   -5.2933  -14.4146 O   0  0  0  0  0  0  0  0  0  0  0  0
  2  3  2  0
  2  1  1  0
  4  3  1  0
  5  4  2  0
  6  5  1  0
  7  6  1  0
  7  8  1  6
  9 20  1  0
  9  7  1  0
 10  9  2  0
 11  5  1  0
 11 12  2  0
 12  2  1  0
 14 13  1  0
 14 15  2  0
 16 15  1  0
 17 16  2  0
 18 17  1  0
 19 18  1  1
 19 20  1  0
 21 19  1  0
 21 30  1  0
 22 21  2  0
 23 24  2  0
 23 17  1  0
 24 14  1  0
 25 26  1  0
 26 27  1  0
 27 28  1  0
 29 28  1  6
 29 30  1  0
 29 31  1  0
 31 32  2  0
 31 33  1  0
M  END
$$$$
