YYM.pdb
     RDKit          3D

 33 34  0  0  1  0  0  0  0  0999 V2000
   25.9228  -15.7127  -23.2804 O   0  0  0  0  0  0  0  0  0  0  0  0
   25.4704  -16.5665  -22.2681 C   0  0  0  0  0  0  0  0  0  0  0  0
   25.5810  -16.1973  -20.9546 C   0  0  0  0  0  0  0  0  0  0  0  0
   25.1434  -17.0173  -19.9172 C   0  0  0  0  0  0  0  0  0  0  0  0
   24.5849  -18.2313  -20.2223 C   0  0  0  0  0  0  0  0  0  0  0  0
   24.0947  -19.1585  -19.1753 C   0  0  0  0  0  0  0  0  0  0  0  0
   25.2266  -19.9820  -18.6134 C   0  0  2  0  0  0  0  0  0  0  0  0
   25.5798  -20.9681  -19.6137 N   0  0  0  0  0  0  0  0  0  0  0  0
   24.9585  -20.5968  -17.3178 C   0  0  0  0  0  0  0  0  0  0  0  0
   24.3811  -21.7392  -17.2774 O   0  0  0  0  0  0  0  0  0  0  0  0
   24.4803  -18.5889  -21.5461 C   0  0  0  0  0  0  0  0  0  0  0  0
   24.9125  -17.7794  -22.5727 C   0  0  0  0  0  0  0  0  0  0  0  0
   24.3832  -21.5095   -8.5014 O   0  0  0  0  0  0  0  0  0  0  0  0
   24.7529  -21.1351   -9.7859 C   0  0  0  0  0  0  0  0  0  0  0  0
   25.5140  -22.0193  -10.5588 C   0  0  0  0  0  0  0  0  0  0  0  0
   25.8894  -21.6616  -11.8377 C   0  0  0  0  0  0  0  0  0  0  0  0
   25.5304  -20.4414  -12.3812 C   0  0  0  0  0  0  0  0  0  0  0  0
   25.9079  -20.0326  -13.7282 C   0  0  0  0  0  0  0  0  0  0  0  0
   24.9674  -20.4889  -14.8174 C   0  0  2  0  0  0  0  0  0  0  0  0
   25.3282  -19.9522  -16.1022 N   0  0  0  0  0  0  0  0  0  0  0  0
   23.5463  -20.2945  -14.5218 C   0  0  0  0  0  0  0  0  0  0  0  0
   23.0594  -19.1412  -14.6222 O   0  0  0  0  0  0  0  0  0  0  0  0
   24.7828  -19.5939  -11.5982 C   0  0  0  0  0  0  0  0  0  0  0  0
   24.3873  -19.9144  -10.3144 C   0  0  0  0  0  0  0  0  0  0  0  0
   19.3050  -25.1633  -14.9651 C   0  0  0  0  0  0  0  0  0  0  0  0
   18.3156  -23.6731  -15.0854 S   0  0  0  0  0  0  0  0  0  0  0  0
   19.0364  -22.2703  -14.2515 C   0  0  0  0  0  0  0  0  0  0  0  0
   20.5025  -22.1831  -14.4227 C   0  0  0  0  0  0  0  0  0  0  0  0
   21.2460  -21.0709  -13.7787 C   0  0  2  0  0  0  0  0  0  0  0  0
   22.6722  -21.3375  -14.1270 N   0  0  0  0  0  0  0  0  0  0  0  0
   21.1034  -20.8669  -12.3498 C   0  0  0  0  0  0  0  0  0  0  0  0
   21.8146  -21.5417  -11.5300 O   0  0  0  0  0  0  0  0  0  0  0  0
   20.2319  -19.9632  -11.7646 O   0  0  0  0  0  0  0  0  0  0  0  0
  2  3  2  0
  2  1  1  0
  4  3  1  0
  5  4  2  0
  6  5  1  0
  7  6  1  0
  7  8  1  6
  9 20  1  0
  9  7  1  0
 10  9  2  0
 11  5  1  0
 11 12  2  0
 12  2  1  0
 14 13  1  0
 14 15  2  0
 16 15  1  0
 17 16  2  0
 18 17  1  0
 19 18  1  1
 19 20  1  0
 21 19  1  0
 21 30  1  0
 22 21  2  0
 23 24  2  0
 23 17  1  0
 24 14  1  0
 25 26  1  0
 26 27  1  0
 27 28  1  0
 29 28  1  1
 29 30  1  0
 29 31  1  0
 31 32  2  0
 31 33  1  0
M  END
$$$$
