YYM.pdb
     RDKit          3D

 33 34  0  0  1  0  0  0  0  0999 V2000
   30.5793  -15.2729  -21.0282 O   0  0  0  0  0  0  0  0  0  0  0  0
   29.7338  -16.0152  -20.1961 C   0  0  0  0  0  0  0  0  0  0  0  0
   29.8871  -15.9653  -18.8368 C   0  0  0  0  0  0  0  0  0  0  0  0
   29.0673  -16.6883  -17.9736 C   0  0  0  0  0  0  0  0  0  0  0  0
   28.0765  -17.4738  -18.5029 C   0  0  0  0  0  0  0  0  0  0  0  0
   27.1634  -18.2712  -17.6506 C   0  0  0  0  0  0  0  0  0  0  0  0
   27.8688  -19.4819  -17.0924 C   0  0  2  0  0  0  0  0  0  0  0  0
   28.1724  -20.3556  -18.2069 N   0  0  0  0  0  0  0  0  0  0  0  0
   27.1482  -20.1832  -16.0353 C   0  0  0  0  0  0  0  0  0  0  0  0
   26.2717  -21.0606  -16.3544 O   0  0  0  0  0  0  0  0  0  0  0  0
   27.9342  -17.5143  -19.8702 C   0  0  0  0  0  0  0  0  0  0  0  0
   28.7439  -16.8001  -20.7248 C   0  0  0  0  0  0  0  0  0  0  0  0
   23.9640  -21.9312   -7.9326 O   0  0  0  0  0  0  0  0  0  0  0  0
   24.7575  -21.5183   -8.9941 C   0  0  0  0  0  0  0  0  0  0  0  0
   24.6024  -20.2203   -9.4937 C   0  0  0  0  0  0  0  0  0  0  0  0
   25.3838  -19.7951  -10.5487 C   0  0  0  0  0  0  0  0  0  0  0  0
   26.3248  -20.6249  -11.1310 C   0  0  0  0  0  0  0  0  0  0  0  0
   27.1676  -20.2078  -12.2445 C   0  0  0  0  0  0  0  0  0  0  0  0
   26.5801  -20.4548  -13.6130 C   0  0  2  0  0  0  0  0  0  0  0  0
   27.4032  -19.9116  -14.6601 N   0  0  0  0  0  0  0  0  0  0  0  0
   25.1772  -20.0604  -13.7584 C   0  0  0  0  0  0  0  0  0  0  0  0
   24.9044  -18.8468  -13.9315 O   0  0  0  0  0  0  0  0  0  0  0  0
   26.4544  -21.8941  -10.6189 C   0  0  0  0  0  0  0  0  0  0  0  0
   25.6920  -22.3575   -9.5647 C   0  0  0  0  0  0  0  0  0  0  0  0
   22.3592  -19.0666  -19.0948 C   0  0  0  0  0  0  0  0  0  0  0  0
   21.8580  -20.1770  -17.7795 S   0  0  0  0  0  0  0  0  0  0  0  0
   22.5831  -19.7813  -16.1983 C   0  0  0  0  0  0  0  0  0  0  0  0
   22.2378  -20.7555  -15.1408 C   0  0  0  0  0  0  0  0  0  0  0  0
   22.6769  -20.5016  -13.7453 C   0  0  2  0  0  0  0  0  0  0  0  0
   24.0928  -20.9716  -13.7187 N   0  0  0  0  0  0  0  0  0  0  0  0
   21.9261  -21.0944  -12.6551 C   0  0  0  0  0  0  0  0  0  0  0  0
   22.1824  -22.2861  -12.2715 O   0  0  0  0  0  0  0  0  0  0  0  0
   20.9144  -20.4576  -11.9555 O   0  0  0  0  0  0  0  0  0  0  0  0
  2  3  2  0
  2  1  1  0
  4  3  1  0
  5  4  2  0
  6  5  1  0
  7  6  1  0
  7  8  1  6
  9 20  1  0
  9  7  1  0
 10  9  2  0
 11  5  1  0
 11 12  2  0
 12  2  1  0
 14 13  1  0
 14 15  2  0
 16 15  1  0
 17 16  2  0
 18 17  1  0
 19 18  1  1
 19 20  1  0
 21 19  1  0
 21 30  1  0
 22 21  2  0
 23 24  2  0
 23 17  1  0
 24 14  1  0
 25 26  1  0
 26 27  1  0
 27 28  1  0
 29 28  1  6
 29 30  1  0
 29 31  1  0
 31 32  2  0
 31 33  1  0
M  END
$$$$
