YYM.pdb
     RDKit          3D

 33 34  0  0  1  0  0  0  0  0999 V2000
   14.1208  -15.2134  -15.6047 O   0  0  0  0  0  0  0  0  0  0  0  0
   15.0805  -14.2088  -15.7718 C   0  0  0  0  0  0  0  0  0  0  0  0
   14.7089  -12.8914  -15.7582 C   0  0  0  0  0  0  0  0  0  0  0  0
   15.6322  -11.8614  -15.9208 C   0  0  0  0  0  0  0  0  0  0  0  0
   16.9539  -12.1780  -16.0999 C   0  0  0  0  0  0  0  0  0  0  0  0
   17.9957  -11.1393  -16.2783 C   0  0  0  0  0  0  0  0  0  0  0  0
   17.7590  -10.3519  -17.5428 C   0  0  2  0  0  0  0  0  0  0  0  0
   17.9949  -11.2459  -18.6576 N   0  0  0  0  0  0  0  0  0  0  0  0
   18.5375   -9.1235  -17.6596 C   0  0  0  0  0  0  0  0  0  0  0  0
   19.7146   -9.1767  -18.1611 O   0  0  0  0  0  0  0  0  0  0  0  0
   17.3126  -13.5056  -16.1113 C   0  0  0  0  0  0  0  0  0  0  0  0
   16.4009  -14.5249  -15.9507 C   0  0  0  0  0  0  0  0  0  0  0  0
   17.0949   -6.3786  -23.4742 O   0  0  0  0  0  0  0  0  0  0  0  0
   17.3397   -6.1676  -22.1243 C   0  0  0  0  0  0  0  0  0  0  0  0
   16.3743   -6.5582  -21.1895 C   0  0  0  0  0  0  0  0  0  0  0  0
   16.6030   -6.3551  -19.8438 C   0  0  0  0  0  0  0  0  0  0  0  0
   17.7715   -5.7705  -19.3899 C   0  0  0  0  0  0  0  0  0  0  0  0
   18.0463   -5.5431  -17.9768 C   0  0  0  0  0  0  0  0  0  0  0  0
   18.7888   -6.6615  -17.2862 C   0  0  2  0  0  0  0  0  0  0  0  0
   18.0122   -7.8709  -17.2293 N   0  0  0  0  0  0  0  0  0  0  0  0
   19.3515   -6.3096  -15.9807 C   0  0  0  0  0  0  0  0  0  0  0  0
   18.7899   -6.7408  -14.9434 O   0  0  0  0  0  0  0  0  0  0  0  0
   18.7011   -5.3974  -20.3315 C   0  0  0  0  0  0  0  0  0  0  0  0
   18.5102   -5.5832  -21.6867 C   0  0  0  0  0  0  0  0  0  0  0  0
   23.4096   -9.1912  -11.1014 C   0  0  0  0  0  0  0  0  0  0  0  0
   22.4957   -8.8336  -12.6018 S   0  0  0  0  0  0  0  0  0  0  0  0
   22.2319   -7.0908  -12.8769 C   0  0  0  0  0  0  0  0  0  0  0  0
   21.4505   -6.8076  -14.0998 C   0  0  0  0  0  0  0  0  0  0  0  0
   21.1929   -5.3981  -14.4892 C   0  0  2  0  0  0  0  0  0  0  0  0
   20.5055   -5.5056  -15.8092 N   0  0  0  0  0  0  0  0  0  0  0  0
   22.3113   -4.4785  -14.5742 C   0  0  0  0  0  0  0  0  0  0  0  0
   22.8288   -4.1990  -15.7088 O   0  0  0  0  0  0  0  0  0  0  0  0
   22.8937   -3.8417  -13.4908 O   0  0  0  0  0  0  0  0  0  0  0  0
  2  3  2  0
  2  1  1  0
  4  3  1  0
  5  4  2  0
  6  5  1  0
  7  6  1  0
  7  8  1  6
  9 20  1  0
  9  7  1  0
 10  9  2  0
 11  5  1  0
 11 12  2  0
 12  2  1  0
 14 13  1  0
 14 15  2  0
 16 15  1  0
 17 16  2  0
 18 17  1  0
 19 18  1  1
 19 20  1  0
 21 19  1  0
 21 30  1  0
 22 21  2  0
 23 24  2  0
 23 17  1  0
 24 14  1  0
 25 26  1  0
 26 27  1  0
 27 28  1  0
 29 28  1  6
 29 30  1  0
 29 31  1  0
 31 32  2  0
 31 33  1  0
M  END
$$$$
