FWR.pdb
     RDKit          3D

 37 39  0  0  1  0  0  0  0  0999 V2000
   28.6313  -23.2345  -17.0524 N   0  0  0  0  0  0  0  0  0  0  0  0
   27.4590  -22.4150  -17.1842 C   0  0  1  0  0  0  0  0  0  0  0  0
   26.4171  -22.9693  -18.1238 C   0  0  0  0  0  0  0  0  0  0  0  0
   26.1121  -22.0438  -19.2400 C   0  0  0  0  0  0  0  0  0  0  0  0
   27.0015  -21.0522  -19.5365 C   0  0  0  0  0  0  0  0  0  0  0  0
   26.7199  -20.1751  -20.5876 C   0  0  0  0  0  0  0  0  0  0  0  0
   25.5487  -20.3445  -21.2895 C   0  0  0  0  0  0  0  0  0  0  0  0
   24.6693  -21.3512  -20.9708 C   0  0  0  0  0  0  0  0  0  0  0  0
   24.9453  -22.2180  -19.9338 C   0  0  0  0  0  0  0  0  0  0  0  0
   26.8187  -22.2467  -15.8559 C   0  0  0  0  0  0  0  0  0  0  0  0
   27.0043  -23.1417  -14.9980 O   0  0  0  0  0  0  0  0  0  0  0  0
   26.0174  -21.1378  -15.5163 N   0  0  0  0  0  0  0  0  0  0  0  0
   25.5658  -20.9674  -14.1757 C   0  0  1  0  0  0  0  0  0  0  0  0
   26.0776  -19.7877  -13.4383 C   0  0  0  0  0  0  0  0  0  0  0  0
   27.4719  -19.8278  -13.0084 C   0  0  0  0  0  0  0  0  0  0  0  0
   28.5916  -19.3979  -13.6688 C   0  0  0  0  0  0  0  0  0  0  0  0
   29.6570  -19.6492  -12.8748 N   0  0  0  0  0  0  0  0  0  0  0  0
   29.2737  -20.2257  -11.7247 C   0  0  0  0  0  0  0  0  0  0  0  0
   29.9141  -20.6759  -10.6063 C   0  0  0  0  0  0  0  0  0  0  0  0
   29.1939  -21.2346   -9.5772 C   0  0  0  0  0  0  0  0  0  0  0  0
   27.8243  -21.3605   -9.6312 C   0  0  0  0  0  0  0  0  0  0  0  0
   27.1778  -20.9072  -10.7574 C   0  0  0  0  0  0  0  0  0  0  0  0
   27.8913  -20.3443  -11.7972 C   0  0  0  0  0  0  0  0  0  0  0  0
   24.0670  -20.7795  -14.2725 C   0  0  0  0  0  0  0  0  0  0  0  0
   23.6302  -19.8765  -15.0343 O   0  0  0  0  0  0  0  0  0  0  0  0
   19.8522  -23.3192   -7.4987 N   0  0  0  0  0  0  0  0  0  0  0  0
   19.3361  -23.2761   -8.8164 C   0  0  0  0  0  0  0  0  0  0  0  0
   18.3716  -24.0465   -9.1742 N   0  0  0  0  0  0  0  0  0  0  0  0
   19.8986  -22.3706   -9.7523 N   0  0  0  0  0  0  0  0  0  0  0  0
   20.8102  -21.3353   -9.3026 C   0  0  0  0  0  0  0  0  0  0  0  0
   21.2479  -20.4776  -10.4565 C   0  0  0  0  0  0  0  0  0  0  0  0
   22.2766  -21.0944  -11.3211 C   0  0  0  0  0  0  0  0  0  0  0  0
   22.0292  -20.9813  -12.7888 C   0  0  2  0  0  0  0  0  0  0  0  0
   23.1475  -21.5570  -13.5575 N   0  0  0  0  0  0  0  0  0  0  0  0
   21.8801  -19.5894  -13.2508 C   0  0  0  0  0  0  0  0  0  0  0  0
   20.7488  -19.0960  -13.3817 O   0  0  0  0  0  0  0  0  0  0  0  0
   22.9895  -18.8317  -13.5386 O   0  0  0  0  0  0  0  0  0  0  0  0
  2  1  1  1
  2  3  1  0
  3  4  1  0
  4  5  2  0
  5  6  1  0
  7  6  2  0
  8  7  1  0
  9  4  1  0
  9  8  2  0
 10 11  2  0
 10  2  1  0
 12 10  1  0
 13 12  1  0
 13 14  1  6
 15 16  2  0
 15 14  1  0
 17 16  1  0
 18 23  2  0
 18 17  1  0
 19 18  1  0
 20 19  2  0
 20 21  1  0
 21 22  2  0
 22 23  1  0
 23 15  1  0
 24 25  2  0
 24 13  1  0
 27 26  1  0
 27 28  2  0
 29 30  1  0
 29 27  1  0
 31 30  1  0
 32 31  1  0
 33 34  1  0
 33 32  1  1
 34 24  1  0
 35 33  1  0
 36 35  2  0
 37 35  1  0
M  END
$$$$
