FWR.pdb
     RDKit          3D

 37 39  0  0  1  0  0  0  0  0999 V2000
   25.0586  -19.7633   -7.3006 N   0  0  0  0  0  0  0  0  0  0  0  0
   26.2676  -20.1284   -7.9849 C   0  0  1  0  0  0  0  0  0  0  0  0
   27.0485  -21.2333   -7.3176 C   0  0  0  0  0  0  0  0  0  0  0  0
   27.8038  -20.7577   -6.1349 C   0  0  0  0  0  0  0  0  0  0  0  0
   29.0488  -20.2292   -6.3161 C   0  0  0  0  0  0  0  0  0  0  0  0
   29.7673  -19.7793   -5.2050 C   0  0  0  0  0  0  0  0  0  0  0  0
   29.1894  -19.8865   -3.9609 C   0  0  0  0  0  0  0  0  0  0  0  0
   27.9339  -20.4228   -3.8051 C   0  0  0  0  0  0  0  0  0  0  0  0
   27.2230  -20.8674   -4.9006 C   0  0  0  0  0  0  0  0  0  0  0  0
   25.9426  -20.5789   -9.3612 C   0  0  0  0  0  0  0  0  0  0  0  0
   24.7678  -20.9480   -9.5953 O   0  0  0  0  0  0  0  0  0  0  0  0
   26.8852  -20.6123  -10.4088 N   0  0  0  0  0  0  0  0  0  0  0  0
   26.6279  -19.9123  -11.6230 C   0  0  1  0  0  0  0  0  0  0  0  0
   27.7826  -19.6794  -12.5228 C   0  0  0  0  0  0  0  0  0  0  0  0
   27.5179  -18.9734  -13.7726 C   0  0  0  0  0  0  0  0  0  0  0  0
   27.2777  -17.6411  -13.9774 C   0  0  0  0  0  0  0  0  0  0  0  0
   27.0824  -17.4593  -15.3030 N   0  0  0  0  0  0  0  0  0  0  0  0
   27.1858  -18.6211  -15.9676 C   0  0  0  0  0  0  0  0  0  0  0  0
   27.0820  -19.0020  -17.2745 C   0  0  0  0  0  0  0  0  0  0  0  0
   27.2491  -20.3212  -17.6234 C   0  0  0  0  0  0  0  0  0  0  0  0
   27.5226  -21.2929  -16.6878 C   0  0  0  0  0  0  0  0  0  0  0  0
   27.6276  -20.9105  -15.3708 C   0  0  0  0  0  0  0  0  0  0  0  0
   27.4615  -19.5881  -15.0090 C   0  0  0  0  0  0  0  0  0  0  0  0
   25.6649  -20.7850  -12.3989 C   0  0  0  0  0  0  0  0  0  0  0  0
   25.8069  -22.0345  -12.3273 O   0  0  0  0  0  0  0  0  0  0  0  0
   19.5223  -23.5820   -9.5496 N   0  0  0  0  0  0  0  0  0  0  0  0
   19.3708  -23.2358  -10.9140 C   0  0  0  0  0  0  0  0  0  0  0  0
   18.5655  -23.8864  -11.6757 N   0  0  0  0  0  0  0  0  0  0  0  0
   20.1246  -22.1573  -11.4437 N   0  0  0  0  0  0  0  0  0  0  0  0
   19.9228  -21.7367  -12.8177 C   0  0  0  0  0  0  0  0  0  0  0  0
   21.2030  -21.8439  -13.5976 C   0  0  0  0  0  0  0  0  0  0  0  0
   22.3448  -21.1182  -13.0013 C   0  0  0  0  0  0  0  0  0  0  0  0
   23.5962  -21.1168  -13.8150 C   0  0  2  0  0  0  0  0  0  0  0  0
   24.6299  -20.2716  -13.1903 N   0  0  0  0  0  0  0  0  0  0  0  0
   23.4044  -20.5975  -15.1812 C   0  0  0  0  0  0  0  0  0  0  0  0
   23.4333  -19.3745  -15.3908 O   0  0  0  0  0  0  0  0  0  0  0  0
   23.1929  -21.4617  -16.2281 O   0  0  0  0  0  0  0  0  0  0  0  0
  2  1  1  1
  2  3  1  0
  3  4  1  0
  4  5  2  0
  5  6  1  0
  7  6  2  0
  8  7  1  0
  9  4  1  0
  9  8  2  0
 10 11  2  0
 10  2  1  0
 12 10  1  0
 13 12  1  0
 13 14  1  6
 15 16  2  0
 15 14  1  0
 17 16  1  0
 18 23  2  0
 18 17  1  0
 19 18  1  0
 20 19  2  0
 20 21  1  0
 21 22  2  0
 22 23  1  0
 23 15  1  0
 24 25  2  0
 24 13  1  0
 27 26  1  0
 27 28  2  0
 29 30  1  0
 29 27  1  0
 31 30  1  0
 32 31  1  0
 33 34  1  0
 33 32  1  1
 34 24  1  0
 35 33  1  0
 36 35  2  0
 37 35  1  0
M  END
$$$$
