FWR.pdb
     RDKit          3D

 37 39  0  0  1  0  0  0  0  0999 V2000
   21.5423  -19.6834  -10.3615 N   0  0  0  0  0  0  0  0  0  0  0  0
   22.3908  -20.7561   -9.9226 C   0  0  1  0  0  0  0  0  0  0  0  0
   22.1024  -22.0833  -10.5792 C   0  0  0  0  0  0  0  0  0  0  0  0
   20.7851  -22.6352  -10.1849 C   0  0  0  0  0  0  0  0  0  0  0  0
   20.5835  -22.9957   -8.8843 C   0  0  0  0  0  0  0  0  0  0  0  0
   19.3436  -23.5177   -8.5055 C   0  0  0  0  0  0  0  0  0  0  0  0
   18.3652  -23.6500   -9.4638 C   0  0  0  0  0  0  0  0  0  0  0  0
   18.5936  -23.2795  -10.7672 C   0  0  0  0  0  0  0  0  0  0  0  0
   19.8167  -22.7640  -11.1433 C   0  0  0  0  0  0  0  0  0  0  0  0
   23.8076  -20.4160  -10.2052 C   0  0  0  0  0  0  0  0  0  0  0  0
   24.0477  -19.6707  -11.1840 O   0  0  0  0  0  0  0  0  0  0  0  0
   24.8874  -20.8886   -9.4320 N   0  0  0  0  0  0  0  0  0  0  0  0
   26.1947  -20.3586   -9.6325 C   0  0  1  0  0  0  0  0  0  0  0  0
   27.2127  -20.6708   -8.6012 C   0  0  0  0  0  0  0  0  0  0  0  0
   27.3331  -19.7388   -7.4844 C   0  0  0  0  0  0  0  0  0  0  0  0
   26.9367  -18.4306   -7.4051 C   0  0  0  0  0  0  0  0  0  0  0  0
   27.2637  -17.9777   -6.1737 N   0  0  0  0  0  0  0  0  0  0  0  0
   27.8573  -18.9398   -5.4498 C   0  0  0  0  0  0  0  0  0  0  0  0
   28.3728  -19.0244   -4.1886 C   0  0  0  0  0  0  0  0  0  0  0  0
   28.9286  -20.2023   -3.7485 C   0  0  0  0  0  0  0  0  0  0  0  0
   28.9870  -21.3226   -4.5459 C   0  0  0  0  0  0  0  0  0  0  0  0
   28.4679  -21.2388   -5.8169 C   0  0  0  0  0  0  0  0  0  0  0  0
   27.9072  -20.0606   -6.2693 C   0  0  0  0  0  0  0  0  0  0  0  0
   26.6956  -20.9869  -10.9153 C   0  0  0  0  0  0  0  0  0  0  0  0
   27.1632  -22.1551  -10.8606 O   0  0  0  0  0  0  0  0  0  0  0  0
   26.3501  -25.1556  -17.6758 N   0  0  0  0  0  0  0  0  0  0  0  0
   25.8694  -25.7676  -16.4931 C   0  0  0  0  0  0  0  0  0  0  0  0
   25.8764  -27.0460  -16.3603 N   0  0  0  0  0  0  0  0  0  0  0  0
   25.3697  -24.9534  -15.4445 N   0  0  0  0  0  0  0  0  0  0  0  0
   25.3841  -23.5086  -15.5779 C   0  0  0  0  0  0  0  0  0  0  0  0
   26.4572  -22.9079  -14.7141 C   0  0  0  0  0  0  0  0  0  0  0  0
   26.1471  -21.5543  -14.2065 C   0  0  0  0  0  0  0  0  0  0  0  0
   27.2207  -20.9173  -13.3880 C   0  0  2  0  0  0  0  0  0  0  0  0
   26.6656  -20.3334  -12.1535 N   0  0  0  0  0  0  0  0  0  0  0  0
   27.9182  -19.8236  -14.0882 C   0  0  0  0  0  0  0  0  0  0  0  0
   28.5895  -20.0646  -15.1039 O   0  0  0  0  0  0  0  0  0  0  0  0
   27.8298  -18.5342  -13.6220 O   0  0  0  0  0  0  0  0  0  0  0  0
  2  1  1  6
  2  3  1  0
  3  4  1  0
  4  5  2  0
  5  6  1  0
  7  6  2  0
  8  7  1  0
  9  4  1  0
  9  8  2  0
 10 11  2  0
 10  2  1  0
 12 10  1  0
 13 12  1  0
 13 14  1  1
 15 16  2  0
 15 14  1  0
 17 16  1  0
 18 23  2  0
 18 17  1  0
 19 18  1  0
 20 19  2  0
 20 21  1  0
 21 22  2  0
 22 23  1  0
 23 15  1  0
 24 25  2  0
 24 13  1  0
 27 26  1  0
 27 28  2  0
 29 30  1  0
 29 27  1  0
 31 30  1  0
 32 31  1  0
 33 34  1  0
 33 32  1  6
 34 24  1  0
 35 33  1  0
 36 35  2  0
 37 35  1  0
M  END
$$$$
