FWR.pdb
     RDKit          3D

 37 39  0  0  1  0  0  0  0  0999 V2000
   28.0585  -21.0142  -14.8586 N   0  0  0  0  0  0  0  0  0  0  0  0
   27.8210  -19.9519  -13.9213 C   0  0  1  0  0  0  0  0  0  0  0  0
   26.8252  -18.9209  -14.3916 C   0  0  0  0  0  0  0  0  0  0  0  0
   27.3805  -18.0359  -15.4423 C   0  0  0  0  0  0  0  0  0  0  0  0
   27.2259  -18.3886  -16.7514 C   0  0  0  0  0  0  0  0  0  0  0  0
   27.7478  -17.5590  -17.7477 C   0  0  0  0  0  0  0  0  0  0  0  0
   28.4027  -16.4095  -17.3698 C   0  0  0  0  0  0  0  0  0  0  0  0
   28.5451  -16.0767  -16.0441 C   0  0  0  0  0  0  0  0  0  0  0  0
   28.0307  -16.8942  -15.0592 C   0  0  0  0  0  0  0  0  0  0  0  0
   27.3106  -20.5180  -12.6478 C   0  0  0  0  0  0  0  0  0  0  0  0
   26.5251  -21.4928  -12.7126 O   0  0  0  0  0  0  0  0  0  0  0  0
   27.6635  -20.0149  -11.3792 N   0  0  0  0  0  0  0  0  0  0  0  0
   27.1302  -20.6125  -10.2008 C   0  0  1  0  0  0  0  0  0  0  0  0
   27.7778  -20.2590   -8.9151 C   0  0  0  0  0  0  0  0  0  0  0  0
   27.0381  -20.5631   -7.6940 C   0  0  0  0  0  0  0  0  0  0  0  0
   25.8131  -21.1581   -7.5523 C   0  0  0  0  0  0  0  0  0  0  0  0
   25.5394  -21.2215   -6.2296 N   0  0  0  0  0  0  0  0  0  0  0  0
   26.5381  -20.6908   -5.5063 C   0  0  0  0  0  0  0  0  0  0  0  0
   26.7752  -20.5008   -4.1754 C   0  0  0  0  0  0  0  0  0  0  0  0
   27.9419  -19.9027   -3.7616 C   0  0  0  0  0  0  0  0  0  0  0  0
   28.8998  -19.4794   -4.6546 C   0  0  0  0  0  0  0  0  0  0  0  0
   28.6621  -19.6703   -5.9958 C   0  0  0  0  0  0  0  0  0  0  0  0
   27.4936  -20.2699   -6.4228 C   0  0  0  0  0  0  0  0  0  0  0  0
   25.7052  -20.1121  -10.1005 C   0  0  0  0  0  0  0  0  0  0  0  0
   25.5168  -18.8690  -10.0255 O   0  0  0  0  0  0  0  0  0  0  0  0
   21.0831  -20.1895  -15.3936 N   0  0  0  0  0  0  0  0  0  0  0  0
   20.0298  -21.0989  -15.1335 C   0  0  0  0  0  0  0  0  0  0  0  0
   18.8527  -20.9013  -15.6105 N   0  0  0  0  0  0  0  0  0  0  0  0
   20.2817  -22.2408  -14.3305 N   0  0  0  0  0  0  0  0  0  0  0  0
   21.5890  -22.4322  -13.7310 C   0  0  0  0  0  0  0  0  0  0  0  0
   21.7915  -21.4790  -12.5869 C   0  0  0  0  0  0  0  0  0  0  0  0
   23.1052  -21.5960  -11.9187 C   0  0  0  0  0  0  0  0  0  0  0  0
   23.3313  -20.6527  -10.7842 C   0  0  2  0  0  0  0  0  0  0  0  0
   24.5920  -20.9617  -10.0854 N   0  0  0  0  0  0  0  0  0  0  0  0
   22.2682  -20.6999   -9.7641 C   0  0  0  0  0  0  0  0  0  0  0  0
   22.3576  -21.4880   -8.8096 O   0  0  0  0  0  0  0  0  0  0  0  0
   21.1747  -19.8740   -9.8636 O   0  0  0  0  0  0  0  0  0  0  0  0
  2  1  1  6
  2  3  1  0
  3  4  1  0
  4  5  2  0
  5  6  1  0
  7  6  2  0
  8  7  1  0
  9  4  1  0
  9  8  2  0
 10 11  2  0
 10  2  1  0
 12 10  1  0
 13 12  1  0
 13 14  1  1
 15 16  2  0
 15 14  1  0
 17 16  1  0
 18 23  2  0
 18 17  1  0
 19 18  1  0
 20 19  2  0
 20 21  1  0
 21 22  2  0
 22 23  1  0
 23 15  1  0
 24 25  2  0
 24 13  1  0
 27 26  1  0
 27 28  2  0
 29 30  1  0
 29 27  1  0
 31 30  1  0
 32 31  1  0
 33 34  1  0
 33 32  1  6
 34 24  1  0
 35 33  1  0
 36 35  2  0
 37 35  1  0
M  END
$$$$
