FWR.pdb
     RDKit          3D

 37 39  0  0  1  0  0  0  0  0999 V2000
   28.8565  -20.7421  -15.2656 N   0  0  0  0  0  0  0  0  0  0  0  0
   28.0856  -19.8273  -14.4705 C   0  0  1  0  0  0  0  0  0  0  0  0
   27.1438  -18.9567  -15.2648 C   0  0  0  0  0  0  0  0  0  0  0  0
   27.8599  -17.9720  -16.1091 C   0  0  0  0  0  0  0  0  0  0  0  0
   28.0677  -18.2603  -17.4267 C   0  0  0  0  0  0  0  0  0  0  0  0
   28.7432  -17.3363  -18.2288 C   0  0  0  0  0  0  0  0  0  0  0  0
   29.1766  -16.1623  -17.6572 C   0  0  0  0  0  0  0  0  0  0  0  0
   28.9547  -15.8958  -16.3275 C   0  0  0  0  0  0  0  0  0  0  0  0
   28.2883  -16.8064  -15.5340 C   0  0  0  0  0  0  0  0  0  0  0  0
   27.2717  -20.5866  -13.4887 C   0  0  0  0  0  0  0  0  0  0  0  0
   26.9095  -21.7458  -13.7992 O   0  0  0  0  0  0  0  0  0  0  0  0
   26.8889  -20.0698  -12.2343 N   0  0  0  0  0  0  0  0  0  0  0  0
   26.2339  -20.9084  -11.2867 C   0  0  1  0  0  0  0  0  0  0  0  0
   26.3011  -20.4965   -9.8643 C   0  0  0  0  0  0  0  0  0  0  0  0
   27.5495  -20.7602   -9.1556 C   0  0  0  0  0  0  0  0  0  0  0  0
   28.6742  -21.4035   -9.5982 C   0  0  0  0  0  0  0  0  0  0  0  0
   29.5685  -21.4092   -8.5839 N   0  0  0  0  0  0  0  0  0  0  0  0
   29.0690  -20.7953   -7.4996 C   0  0  0  0  0  0  0  0  0  0  0  0
   29.5267  -20.5265   -6.2418 C   0  0  0  0  0  0  0  0  0  0  0  0
   28.7277  -19.8560   -5.3462 C   0  0  0  0  0  0  0  0  0  0  0  0
   27.4586  -19.4367   -5.6744 C   0  0  0  0  0  0  0  0  0  0  0  0
   26.9962  -19.7069   -6.9413 C   0  0  0  0  0  0  0  0  0  0  0  0
   27.7903  -20.3797   -7.8491 C   0  0  0  0  0  0  0  0  0  0  0  0
   24.7675  -20.8760  -11.6606 C   0  0  0  0  0  0  0  0  0  0  0  0
   24.1912  -19.7570  -11.7052 O   0  0  0  0  0  0  0  0  0  0  0  0
   21.0840  -26.6581  -15.0501 N   0  0  0  0  0  0  0  0  0  0  0  0
   19.7370  -26.3050  -14.7949 C   0  0  0  0  0  0  0  0  0  0  0  0
   18.8056  -27.1904  -14.8183 N   0  0  0  0  0  0  0  0  0  0  0  0
   19.4157  -24.9522  -14.5142 N   0  0  0  0  0  0  0  0  0  0  0  0
   20.4589  -23.9436  -14.5142 C   0  0  0  0  0  0  0  0  0  0  0  0
   20.6983  -23.4298  -13.1223 C   0  0  0  0  0  0  0  0  0  0  0  0
   22.1235  -23.3486  -12.7372 C   0  0  0  0  0  0  0  0  0  0  0  0
   22.6036  -21.9902  -12.3470 C   0  0  2  0  0  0  0  0  0  0  0  0
   24.0245  -22.0257  -11.9558 N   0  0  0  0  0  0  0  0  0  0  0  0
   21.8715  -21.4179  -11.2027 C   0  0  0  0  0  0  0  0  0  0  0  0
   22.2941  -21.5862  -10.0479 O   0  0  0  0  0  0  0  0  0  0  0  0
   20.7200  -20.6968  -11.4068 O   0  0  0  0  0  0  0  0  0  0  0  0
  2  1  1  6
  2  3  1  0
  3  4  1  0
  4  5  2  0
  5  6  1  0
  7  6  2  0
  8  7  1  0
  9  4  1  0
  9  8  2  0
 10 11  2  0
 10  2  1  0
 12 10  1  0
 13 12  1  0
 13 14  1  1
 15 16  2  0
 15 14  1  0
 17 16  1  0
 18 23  2  0
 18 17  1  0
 19 18  1  0
 20 19  2  0
 20 21  1  0
 21 22  2  0
 22 23  1  0
 23 15  1  0
 24 25  2  0
 24 13  1  0
 27 26  1  0
 27 28  2  0
 29 30  1  0
 29 27  1  0
 31 30  1  0
 32 31  1  0
 33 34  1  0
 33 32  1  1
 34 24  1  0
 35 33  1  0
 36 35  2  0
 37 35  1  0
M  END
$$$$
