FWR.pdb
     RDKit          3D

 37 39  0  0  1  0  0  0  0  0999 V2000
   26.7850  -24.8496  -15.7981 N   0  0  0  0  0  0  0  0  0  0  0  0
   26.3669  -23.4756  -15.8234 C   0  0  1  0  0  0  0  0  0  0  0  0
   25.2980  -23.1712  -16.8436 C   0  0  0  0  0  0  0  0  0  0  0  0
   25.8206  -23.1790  -18.2301 C   0  0  0  0  0  0  0  0  0  0  0  0
   26.3948  -22.0443  -18.7249 C   0  0  0  0  0  0  0  0  0  0  0  0
   26.8892  -22.0442  -20.0322 C   0  0  0  0  0  0  0  0  0  0  0  0
   26.7782  -23.1955  -20.7772 C   0  0  0  0  0  0  0  0  0  0  0  0
   26.1954  -24.3253  -20.2555 C   0  0  0  0  0  0  0  0  0  0  0  0
   25.7068  -24.3276  -18.9654 C   0  0  0  0  0  0  0  0  0  0  0  0
   25.8352  -23.0936  -14.4914 C   0  0  0  0  0  0  0  0  0  0  0  0
   25.4960  -24.0130  -13.7098 O   0  0  0  0  0  0  0  0  0  0  0  0
   25.6937  -21.7567  -14.0675 N   0  0  0  0  0  0  0  0  0  0  0  0
   25.2896  -21.4706  -12.7313 C   0  0  1  0  0  0  0  0  0  0  0  0
   25.9379  -20.3160  -12.0651 C   0  0  0  0  0  0  0  0  0  0  0  0
   27.1343  -20.5916  -11.2758 C   0  0  0  0  0  0  0  0  0  0  0  0
   28.3790  -20.9738  -11.6994 C   0  0  0  0  0  0  0  0  0  0  0  0
   29.1588  -21.1152  -10.6038 N   0  0  0  0  0  0  0  0  0  0  0  0
   28.4698  -20.8403   -9.4849 C   0  0  0  0  0  0  0  0  0  0  0  0
   28.7557  -20.8264   -8.1501 C   0  0  0  0  0  0  0  0  0  0  0  0
   27.7825  -20.4875   -7.2402 C   0  0  0  0  0  0  0  0  0  0  0  0
   26.5052  -20.1548   -7.6300 C   0  0  0  0  0  0  0  0  0  0  0  0
   26.2158  -20.1683   -8.9746 C   0  0  0  0  0  0  0  0  0  0  0  0
   27.1857  -20.5073   -9.8974 C   0  0  0  0  0  0  0  0  0  0  0  0
   23.8174  -21.1293  -12.8163 C   0  0  0  0  0  0  0  0  0  0  0  0
   23.4125  -20.4959  -13.8269 O   0  0  0  0  0  0  0  0  0  0  0  0
   17.4383  -23.8768  -10.6022 N   0  0  0  0  0  0  0  0  0  0  0  0
   17.5068  -24.2931  -11.9536 C   0  0  0  0  0  0  0  0  0  0  0  0
   16.4410  -24.4250  -12.6598 N   0  0  0  0  0  0  0  0  0  0  0  0
   18.7725  -24.5718  -12.5302 N   0  0  0  0  0  0  0  0  0  0  0  0
   19.9457  -23.8370  -12.0953 C   0  0  0  0  0  0  0  0  0  0  0  0
   19.5463  -22.6100  -11.3247 C   0  0  0  0  0  0  0  0  0  0  0  0
   20.6816  -21.8025  -10.8298 C   0  0  0  0  0  0  0  0  0  0  0  0
   21.4679  -21.0932  -11.8818 C   0  0  2  0  0  0  0  0  0  0  0  0
   22.8891  -21.4810  -11.8285 N   0  0  0  0  0  0  0  0  0  0  0  0
   21.4321  -19.6256  -11.7483 C   0  0  0  0  0  0  0  0  0  0  0  0
   22.2552  -19.0476  -11.0213 O   0  0  0  0  0  0  0  0  0  0  0  0
   20.4898  -18.8905  -12.4261 O   0  0  0  0  0  0  0  0  0  0  0  0
  2  1  1  1
  2  3  1  0
  3  4  1  0
  4  5  2  0
  5  6  1  0
  7  6  2  0
  8  7  1  0
  9  4  1  0
  9  8  2  0
 10 11  2  0
 10  2  1  0
 12 10  1  0
 13 12  1  0
 13 14  1  6
 15 16  2  0
 15 14  1  0
 17 16  1  0
 18 23  2  0
 18 17  1  0
 19 18  1  0
 20 19  2  0
 20 21  1  0
 21 22  2  0
 22 23  1  0
 23 15  1  0
 24 25  2  0
 24 13  1  0
 27 26  1  0
 27 28  2  0
 29 30  1  0
 29 27  1  0
 31 30  1  0
 32 31  1  0
 33 34  1  0
 33 32  1  1
 34 24  1  0
 35 33  1  0
 36 35  2  0
 37 35  1  0
M  END
$$$$
