FWR.pdb
     RDKit          3D

 37 39  0  0  1  0  0  0  0  0999 V2000
   25.2430  -21.0023   -7.8208 N   0  0  0  0  0  0  0  0  0  0  0  0
   26.0944  -20.4250   -8.8234 C   0  0  1  0  0  0  0  0  0  0  0  0
   27.5679  -20.6492   -8.5899 C   0  0  0  0  0  0  0  0  0  0  0  0
   28.0440  -20.0209   -7.3353 C   0  0  0  0  0  0  0  0  0  0  0  0
   28.7923  -20.7631   -6.4685 C   0  0  0  0  0  0  0  0  0  0  0  0
   29.2441  -20.1771   -5.2828 C   0  0  0  0  0  0  0  0  0  0  0  0
   28.9158  -18.8649   -5.0312 C   0  0  0  0  0  0  0  0  0  0  0  0
   28.1606  -18.1389   -5.9206 C   0  0  0  0  0  0  0  0  0  0  0  0
   27.7136  -18.7154   -7.0914 C   0  0  0  0  0  0  0  0  0  0  0  0
   25.7596  -20.9996  -10.1502 C   0  0  0  0  0  0  0  0  0  0  0  0
   25.5679  -22.2363  -10.2221 O   0  0  0  0  0  0  0  0  0  0  0  0
   25.6490  -20.2271  -11.3241 N   0  0  0  0  0  0  0  0  0  0  0  0
   25.0049  -20.7661  -12.4752 C   0  0  1  0  0  0  0  0  0  0  0  0
   23.7476  -20.1124  -12.9103 C   0  0  0  0  0  0  0  0  0  0  0  0
   22.5295  -20.4718  -12.1909 C   0  0  0  0  0  0  0  0  0  0  0  0
   21.9791  -19.8897  -11.0806 C   0  0  0  0  0  0  0  0  0  0  0  0
   20.8530  -20.5734  -10.7756 N   0  0  0  0  0  0  0  0  0  0  0  0
   20.6503  -21.5771  -11.6437 C   0  0  0  0  0  0  0  0  0  0  0  0
   19.7024  -22.5472  -11.7986 C   0  0  0  0  0  0  0  0  0  0  0  0
   19.8013  -23.4489  -12.8316 C   0  0  0  0  0  0  0  0  0  0  0  0
   20.8396  -23.4113  -13.7343 C   0  0  0  0  0  0  0  0  0  0  0  0
   21.7952  -22.4343  -13.5795 C   0  0  0  0  0  0  0  0  0  0  0  0
   21.7059  -21.5233  -12.5454 C   0  0  0  0  0  0  0  0  0  0  0  0
   25.9855  -20.5816  -13.6133 C   0  0  0  0  0  0  0  0  0  0  0  0
   26.5762  -19.4737  -13.7138 O   0  0  0  0  0  0  0  0  0  0  0  0
   31.7994  -25.0011  -14.9735 N   0  0  0  0  0  0  0  0  0  0  0  0
   31.7472  -24.8355  -16.3786 C   0  0  0  0  0  0  0  0  0  0  0  0
   32.8158  -24.8882  -17.0907 N   0  0  0  0  0  0  0  0  0  0  0  0
   30.4951  -24.6037  -17.0036 N   0  0  0  0  0  0  0  0  0  0  0  0
   29.2749  -24.6387  -16.2192 C   0  0  0  0  0  0  0  0  0  0  0  0
   28.9337  -23.2667  -15.7095 C   0  0  0  0  0  0  0  0  0  0  0  0
   27.6489  -22.7313  -16.2081 C   0  0  0  0  0  0  0  0  0  0  0  0
   27.2453  -21.4097  -15.6436 C   0  0  2  0  0  0  0  0  0  0  0  0
   26.2642  -21.5786  -14.5563 N   0  0  0  0  0  0  0  0  0  0  0  0
   26.6174  -20.5178  -16.6352 C   0  0  0  0  0  0  0  0  0  0  0  0
   27.3223  -19.7782  -17.3399 O   0  0  0  0  0  0  0  0  0  0  0  0
   25.2518  -20.4997  -16.7851 O   0  0  0  0  0  0  0  0  0  0  0  0
  2  1  1  1
  2  3  1  0
  3  4  1  0
  4  5  2  0
  5  6  1  0
  7  6  2  0
  8  7  1  0
  9  4  1  0
  9  8  2  0
 10 11  2  0
 10  2  1  0
 12 10  1  0
 13 12  1  0
 13 14  1  6
 15 16  2  0
 15 14  1  0
 17 16  1  0
 18 23  2  0
 18 17  1  0
 19 18  1  0
 20 19  2  0
 20 21  1  0
 21 22  2  0
 22 23  1  0
 23 15  1  0
 24 25  2  0
 24 13  1  0
 27 26  1  0
 27 28  2  0
 29 30  1  0
 29 27  1  0
 31 30  1  0
 32 31  1  0
 33 34  1  0
 33 32  1  6
 34 24  1  0
 35 33  1  0
 36 35  2  0
 37 35  1  0
M  END
$$$$
