HMA.pdb
     RDKit          3D

 24 24  0  0  1  0  0  0  0  0999 V2000
   27.7705  -18.5690  -16.1511 N   0  0  0  0  0  0  0  0  0  0  0  0
   26.6905  -18.1752  -15.3130 C   0  0  1  0  0  0  0  0  0  0  0  0
   25.7899  -17.1205  -15.8504 C   0  0  0  0  0  0  0  0  0  0  0  0
   26.4323  -15.8370  -16.2020 C   0  0  0  0  0  0  0  0  0  0  0  0
   26.7253  -14.7635  -15.4006 C   0  0  0  0  0  0  0  0  0  0  0  0
   27.3366  -13.8507  -16.2077 N   0  0  0  0  0  0  0  0  0  0  0  0
   27.4231  -14.3290  -17.4535 C   0  0  0  0  0  0  0  0  0  0  0  0
   26.8766  -15.5443  -17.4769 N   0  0  0  0  0  0  0  0  0  0  0  0
   25.9598  -19.3636  -14.8131 C   0  0  0  0  0  0  0  0  0  0  0  0
   25.7750  -20.3790  -15.5789 O   0  0  0  0  0  0  0  0  0  0  0  0
   26.6980  -19.4497   -8.9729 C   0  0  0  0  0  0  0  0  0  0  0  0
   26.3785  -21.2196   -9.2437 S   0  0  0  0  0  0  0  0  0  0  0  0
   26.2282  -21.5155  -11.0531 C   0  0  0  0  0  0  0  0  0  0  0  0
   25.1095  -20.6786  -11.5473 C   0  0  0  0  0  0  0  0  0  0  0  0
   24.8620  -20.7042  -13.0310 C   0  0  2  0  0  0  0  0  0  0  0  0
   25.4503  -19.4245  -13.5142 N   0  0  0  0  0  0  0  0  0  0  0  0
   23.4236  -20.7124  -13.3968 C   0  0  0  0  0  0  0  0  0  0  0  0
   22.7698  -19.6529  -13.2203 O   0  0  0  0  0  0  0  0  0  0  0  0
   20.9014  -22.7846  -15.2289 C   0  0  0  0  0  0  0  0  0  0  0  0
   21.3441  -21.6686  -14.3469 C   0  0  2  0  0  0  0  0  0  0  0  0
   22.7390  -21.8215  -13.9298 N   0  0  0  0  0  0  0  0  0  0  0  0
   20.4427  -21.6588  -13.1489 C   0  0  0  0  0  0  0  0  0  0  0  0
   20.8172  -22.0862  -12.0341 O   0  0  0  0  0  0  0  0  0  0  0  0
   19.1622  -21.1535  -13.3186 O   0  0  0  0  0  0  0  0  0  0  0  0
  2  1  1  6
  2  9  1  0
  3  2  1  0
  4  3  1  0
  5  4  2  0
  6  7  1  0
  6  5  1  0
  7  8  2  0
  8  4  1  0
  9 10  2  0
 11 12  1  0
 13 12  1  0
 13 14  1  0
 15 14  1  1
 15 17  1  0
 16 15  1  0
 16  9  1  0
 17 21  1  0
 17 18  2  0
 20 19  1  6
 20 22  1  0
 21 20  1  0
 22 23  2  0
 22 24  1  0
M  END
$$$$
