HMA.pdb
     RDKit          3D

 24 24  0  0  1  0  0  0  0  0999 V2000
   24.1435   -7.3612  -21.7769 N   0  0  0  0  0  0  0  0  0  0  0  0
   24.4765   -7.1820  -20.4054 C   0  0  1  0  0  0  0  0  0  0  0  0
   24.6217   -5.7765  -19.9408 C   0  0  0  0  0  0  0  0  0  0  0  0
   25.6353   -4.9628  -20.6439 C   0  0  0  0  0  0  0  0  0  0  0  0
   27.0007   -4.9760  -20.5174 C   0  0  0  0  0  0  0  0  0  0  0  0
   27.4672   -4.0550  -21.4076 N   0  0  0  0  0  0  0  0  0  0  0  0
   26.4443   -3.4928  -22.0604 C   0  0  0  0  0  0  0  0  0  0  0  0
   25.3111   -4.0314  -21.6113 N   0  0  0  0  0  0  0  0  0  0  0  0
   23.5818   -7.9893  -19.5430 C   0  0  0  0  0  0  0  0  0  0  0  0
   22.3962   -8.2871  -19.9399 O   0  0  0  0  0  0  0  0  0  0  0  0
   23.7911  -13.8303  -14.4668 C   0  0  0  0  0  0  0  0  0  0  0  0
   24.5647  -12.5903  -15.5492 S   0  0  0  0  0  0  0  0  0  0  0  0
   23.2880  -11.3553  -16.0277 C   0  0  0  0  0  0  0  0  0  0  0  0
   23.9460  -10.3528  -16.8985 C   0  0  0  0  0  0  0  0  0  0  0  0
   23.0523   -9.3030  -17.5005 C   0  0  2  0  0  0  0  0  0  0  0  0
   23.9839   -8.4478  -18.2867 N   0  0  0  0  0  0  0  0  0  0  0  0
   22.3805   -8.4421  -16.4953 C   0  0  0  0  0  0  0  0  0  0  0  0
   23.1003   -7.6675  -15.8149 O   0  0  0  0  0  0  0  0  0  0  0  0
   19.0656   -7.1199  -15.5023 C   0  0  0  0  0  0  0  0  0  0  0  0
   20.4597   -7.5535  -15.2059 C   0  0  2  0  0  0  0  0  0  0  0  0
   20.9938   -8.4292  -16.2505 N   0  0  0  0  0  0  0  0  0  0  0  0
   20.4364   -8.2709  -13.8896 C   0  0  0  0  0  0  0  0  0  0  0  0
   20.1075   -7.6967  -12.8277 O   0  0  0  0  0  0  0  0  0  0  0  0
   20.7961   -9.6104  -13.8872 O   0  0  0  0  0  0  0  0  0  0  0  0
  2  1  1  6
  2  9  1  0
  3  2  1  0
  4  3  1  0
  5  4  2  0
  6  7  1  0
  6  5  1  0
  7  8  2  0
  8  4  1  0
  9 10  2  0
 11 12  1  0
 13 12  1  0
 13 14  1  0
 15 14  1  1
 15 17  1  0
 16 15  1  0
 16  9  1  0
 17 21  1  0
 17 18  2  0
 20 19  1  6
 20 22  1  0
 21 20  1  0
 22 23  2  0
 22 24  1  0
M  END
$$$$
