HMA.pdb
     RDKit          3D

 24 24  0  0  1  0  0  0  0  0999 V2000
   27.5567  -23.3846  -16.3088 N   0  0  0  0  0  0  0  0  0  0  0  0
   27.2153  -22.0535  -15.9407 C   0  0  1  0  0  0  0  0  0  0  0  0
   26.9954  -21.0966  -17.0579 C   0  0  0  0  0  0  0  0  0  0  0  0
   28.1476  -20.8723  -17.9556 C   0  0  0  0  0  0  0  0  0  0  0  0
   29.2860  -20.1383  -17.7416 C   0  0  0  0  0  0  0  0  0  0  0  0
   30.0380  -20.2779  -18.8700 N   0  0  0  0  0  0  0  0  0  0  0  0
   29.4024  -21.0614  -19.7477 C   0  0  0  0  0  0  0  0  0  0  0  0
   28.2420  -21.4390  -19.2119 N   0  0  0  0  0  0  0  0  0  0  0  0
   26.1125  -22.0541  -14.9508 C   0  0  0  0  0  0  0  0  0  0  0  0
   25.1690  -22.9227  -15.0338 O   0  0  0  0  0  0  0  0  0  0  0  0
   24.0525  -21.5471   -8.8943 C   0  0  0  0  0  0  0  0  0  0  0  0
   25.5191  -20.5061   -9.1651 S   0  0  0  0  0  0  0  0  0  0  0  0
   26.2146  -20.8972  -10.8226 C   0  0  0  0  0  0  0  0  0  0  0  0
   25.3238  -20.2803  -11.8335 C   0  0  0  0  0  0  0  0  0  0  0  0
   24.8968  -21.1634  -12.9742 C   0  0  2  0  0  0  0  0  0  0  0  0
   26.0552  -21.1257  -13.9091 N   0  0  0  0  0  0  0  0  0  0  0  0
   23.7050  -20.6631  -13.7035 C   0  0  0  0  0  0  0  0  0  0  0  0
   23.7681  -19.5123  -14.2064 O   0  0  0  0  0  0  0  0  0  0  0  0
   20.5460  -21.8063  -15.2758 C   0  0  0  0  0  0  0  0  0  0  0  0
   21.4072  -20.7799  -14.6244 C   0  0  2  0  0  0  0  0  0  0  0  0
   22.5088  -21.3862  -13.8747 N   0  0  0  0  0  0  0  0  0  0  0  0
   20.5339  -19.9786  -13.7061 C   0  0  0  0  0  0  0  0  0  0  0  0
   20.6476  -20.0409  -12.4616 O   0  0  0  0  0  0  0  0  0  0  0  0
   19.5827  -19.1545  -14.2889 O   0  0  0  0  0  0  0  0  0  0  0  0
  2  1  1  6
  2  9  1  0
  3  2  1  0
  4  3  1  0
  5  4  2  0
  6  7  1  0
  6  5  1  0
  7  8  2  0
  8  4  1  0
  9 10  2  0
 11 12  1  0
 13 12  1  0
 13 14  1  0
 15 14  1  1
 15 17  1  0
 16 15  1  0
 16  9  1  0
 17 21  1  0
 17 18  2  0
 20 19  1  1
 20 22  1  0
 21 20  1  0
 22 23  2  0
 22 24  1  0
M  END
$$$$
