HMA.pdb
     RDKit          3D

 24 24  0  0  1  0  0  0  0  0999 V2000
   24.8421  -19.2476  -13.0411 N   0  0  0  0  0  0  0  0  0  0  0  0
   25.8242  -20.2758  -12.9932 C   0  0  1  0  0  0  0  0  0  0  0  0
   27.0794  -20.0241  -13.7504 C   0  0  0  0  0  0  0  0  0  0  0  0
   26.9299  -19.3040  -15.0321 C   0  0  0  0  0  0  0  0  0  0  0  0
   25.8051  -18.7599  -15.5971 C   0  0  0  0  0  0  0  0  0  0  0  0
   26.2131  -18.1886  -16.7657 N   0  0  0  0  0  0  0  0  0  0  0  0
   27.5291  -18.3654  -16.9247 C   0  0  0  0  0  0  0  0  0  0  0  0
   27.9923  -19.0456  -15.8764 N   0  0  0  0  0  0  0  0  0  0  0  0
   26.0651  -20.7002  -11.5940 C   0  0  0  0  0  0  0  0  0  0  0  0
   26.7622  -21.7514  -11.3475 O   0  0  0  0  0  0  0  0  0  0  0  0
   29.1485  -19.5042   -5.5143 C   0  0  0  0  0  0  0  0  0  0  0  0
   27.7372  -18.6046   -6.2263 S   0  0  0  0  0  0  0  0  0  0  0  0
   26.5442  -19.8310   -6.9021 C   0  0  0  0  0  0  0  0  0  0  0  0
   26.4286  -19.5806   -8.3581 C   0  0  0  0  0  0  0  0  0  0  0  0
   25.6387  -20.5884   -9.1477 C   0  0  2  0  0  0  0  0  0  0  0  0
   25.5511  -19.9885  -10.5078 N   0  0  0  0  0  0  0  0  0  0  0  0
   24.2559  -20.7888   -8.6472 C   0  0  0  0  0  0  0  0  0  0  0  0
   23.4494  -19.8306   -8.7590 O   0  0  0  0  0  0  0  0  0  0  0  0
   22.3297  -21.1622   -6.2633 C   0  0  0  0  0  0  0  0  0  0  0  0
   22.4334  -22.0040   -7.4881 C   0  0  2  0  0  0  0  0  0  0  0  0
   23.7817  -21.9766   -8.0579 N   0  0  0  0  0  0  0  0  0  0  0  0
   21.4403  -21.4772   -8.4801 C   0  0  0  0  0  0  0  0  0  0  0  0
   21.7965  -20.9175   -9.5410 O   0  0  0  0  0  0  0  0  0  0  0  0
   20.0952  -21.6325   -8.1795 O   0  0  0  0  0  0  0  0  0  0  0  0
  2  1  1  1
  2  9  1  0
  3  2  1  0
  4  3  1  0
  5  4  2  0
  6  7  1  0
  6  5  1  0
  7  8  2  0
  8  4  1  0
  9 10  2  0
 11 12  1  0
 13 12  1  0
 13 14  1  0
 15 14  1  1
 15 17  1  0
 16 15  1  0
 16  9  1  0
 17 21  1  0
 17 18  2  0
 20 19  1  1
 20 22  1  0
 21 20  1  0
 22 23  2  0
 22 24  1  0
M  END
$$$$
