HMA.pdb
     RDKit          3D

 24 24  0  0  1  0  0  0  0  0999 V2000
   19.5119  -11.7079  -18.6556 N   0  0  0  0  0  0  0  0  0  0  0  0
   19.8649  -10.3319  -18.7325 C   0  0  1  0  0  0  0  0  0  0  0  0
   19.0470   -9.4919  -19.6479 C   0  0  0  0  0  0  0  0  0  0  0  0
   18.9697   -9.9486  -21.0512 C   0  0  0  0  0  0  0  0  0  0  0  0
   17.9262  -10.5393  -21.7166 C   0  0  0  0  0  0  0  0  0  0  0  0
   18.3613  -10.7369  -22.9933 N   0  0  0  0  0  0  0  0  0  0  0  0
   19.6157  -10.2913  -23.1217 C   0  0  0  0  0  0  0  0  0  0  0  0
   20.0117   -9.8033  -21.9465 N   0  0  0  0  0  0  0  0  0  0  0  0
   19.9975   -9.7521  -17.3752 C   0  0  0  0  0  0  0  0  0  0  0  0
   19.1813  -10.0936  -16.4431 O   0  0  0  0  0  0  0  0  0  0  0  0
   22.0961   -9.1942  -10.9739 C   0  0  0  0  0  0  0  0  0  0  0  0
   21.5646   -9.4604  -12.6928 S   0  0  0  0  0  0  0  0  0  0  0  0
   22.8645   -8.8003  -13.8146 C   0  0  0  0  0  0  0  0  0  0  0  0
   22.4274   -9.0682  -15.2050 C   0  0  0  0  0  0  0  0  0  0  0  0
   21.1573   -8.3937  -15.6466 C   0  0  2  0  0  0  0  0  0  0  0  0
   20.9955   -8.8266  -17.0622 N   0  0  0  0  0  0  0  0  0  0  0  0
   21.2302   -6.9114  -15.6281 C   0  0  0  0  0  0  0  0  0  0  0  0
   22.0677   -6.3580  -16.3854 O   0  0  0  0  0  0  0  0  0  0  0  0
   19.4892   -3.8895  -14.2630 C   0  0  0  0  0  0  0  0  0  0  0  0
   20.6339   -4.6312  -14.8621 C   0  0  2  0  0  0  0  0  0  0  0  0
   20.4267   -6.0799  -14.8243 N   0  0  0  0  0  0  0  0  0  0  0  0
   21.8628   -4.2627  -14.0864 C   0  0  0  0  0  0  0  0  0  0  0  0
   22.4400   -5.0778  -13.3327 O   0  0  0  0  0  0  0  0  0  0  0  0
   22.3460   -2.9709  -14.2333 O   0  0  0  0  0  0  0  0  0  0  0  0
  2  1  1  1
  2  9  1  0
  3  2  1  0
  4  3  1  0
  5  4  2  0
  6  7  1  0
  6  5  1  0
  7  8  2  0
  8  4  1  0
  9 10  2  0
 11 12  1  0
 13 12  1  0
 13 14  1  0
 15 14  1  6
 15 17  1  0
 16 15  1  0
 16  9  1  0
 17 21  1  0
 17 18  2  0
 20 19  1  1
 20 22  1  0
 21 20  1  0
 22 23  2  0
 22 24  1  0
M  END
$$$$
