HMA.pdb
     RDKit          3D

 24 24  0  0  1  0  0  0  0  0999 V2000
   21.4812  -14.0072  -16.2587 N   0  0  0  0  0  0  0  0  0  0  0  0
   20.9020  -12.7526  -16.5968 C   0  0  1  0  0  0  0  0  0  0  0  0
   19.4445  -12.6084  -16.3374 C   0  0  0  0  0  0  0  0  0  0  0  0
   18.5733  -13.6367  -16.9436 C   0  0  0  0  0  0  0  0  0  0  0  0
   18.9154  -14.7380  -17.6856 C   0  0  0  0  0  0  0  0  0  0  0  0
   17.7434  -15.3694  -17.9791 N   0  0  0  0  0  0  0  0  0  0  0  0
   16.7173  -14.6970  -17.4466 C   0  0  0  0  0  0  0  0  0  0  0  0
   17.1987  -13.6316  -16.8068 N   0  0  0  0  0  0  0  0  0  0  0  0
   21.7047  -11.6408  -16.0354 C   0  0  0  0  0  0  0  0  0  0  0  0
   22.0936  -11.6774  -14.8110 O   0  0  0  0  0  0  0  0  0  0  0  0
   27.2431  -11.5786  -15.6164 C   0  0  0  0  0  0  0  0  0  0  0  0
   25.9591  -10.2910  -15.6516 S   0  0  0  0  0  0  0  0  0  0  0  0
   25.1250  -10.3430  -17.2904 C   0  0  0  0  0  0  0  0  0  0  0  0
   24.0398   -9.3340  -17.2673 C   0  0  0  0  0  0  0  0  0  0  0  0
   22.9822   -9.5159  -16.2130 C   0  0  2  0  0  0  0  0  0  0  0  0
   22.0616  -10.5282  -16.8005 N   0  0  0  0  0  0  0  0  0  0  0  0
   22.1950   -8.2880  -15.9381 C   0  0  0  0  0  0  0  0  0  0  0  0
   21.3985   -7.8933  -16.8274 O   0  0  0  0  0  0  0  0  0  0  0  0
   21.4510   -5.7987  -13.2345 C   0  0  0  0  0  0  0  0  0  0  0  0
   21.5069   -6.2931  -14.6387 C   0  0  2  0  0  0  0  0  0  0  0  0
   22.2748   -7.5345  -14.7512 N   0  0  0  0  0  0  0  0  0  0  0  0
   22.1378   -5.2159  -15.4690 C   0  0  0  0  0  0  0  0  0  0  0  0
   23.2767   -5.3470  -15.9704 O   0  0  0  0  0  0  0  0  0  0  0  0
   21.4080   -4.0531  -15.6661 O   0  0  0  0  0  0  0  0  0  0  0  0
  2  1  1  1
  2  9  1  0
  3  2  1  0
  4  3  1  0
  5  4  2  0
  6  7  1  0
  6  5  1  0
  7  8  2  0
  8  4  1  0
  9 10  2  0
 11 12  1  0
 13 12  1  0
 13 14  1  0
 15 14  1  6
 15 17  1  0
 16 15  1  0
 16  9  1  0
 17 21  1  0
 17 18  2  0
 20 19  1  1
 20 22  1  0
 21 20  1  0
 22 23  2  0
 22 24  1  0
M  END
$$$$
