HMA.pdb
     RDKit          3D

 24 24  0  0  1  0  0  0  0  0999 V2000
   23.2894  -10.2337  -17.9686 N   0  0  0  0  0  0  0  0  0  0  0  0
   23.3791   -9.0159  -17.2387 C   0  0  1  0  0  0  0  0  0  0  0  0
   24.7301   -8.4004  -17.1471 C   0  0  0  0  0  0  0  0  0  0  0  0
   25.8075   -9.2745  -16.6383 C   0  0  0  0  0  0  0  0  0  0  0  0
   26.9122   -9.7609  -17.2892 C   0  0  0  0  0  0  0  0  0  0  0  0
   27.5976  -10.4929  -16.3657 N   0  0  0  0  0  0  0  0  0  0  0  0
   26.9543  -10.4660  -15.1936 C   0  0  0  0  0  0  0  0  0  0  0  0
   25.8547   -9.7262  -15.3336 N   0  0  0  0  0  0  0  0  0  0  0  0
   22.3359   -8.0632  -17.6860 C   0  0  0  0  0  0  0  0  0  0  0  0
   21.9641   -8.0414  -18.9160 O   0  0  0  0  0  0  0  0  0  0  0  0
   15.5492   -5.2299  -15.5377 C   0  0  0  0  0  0  0  0  0  0  0  0
   16.9940   -6.3294  -15.4304 S   0  0  0  0  0  0  0  0  0  0  0  0
   18.2898   -5.7042  -16.5767 C   0  0  0  0  0  0  0  0  0  0  0  0
   19.4839   -6.5652  -16.4072 C   0  0  0  0  0  0  0  0  0  0  0  0
   20.6491   -6.2759  -17.3139 C   0  0  2  0  0  0  0  0  0  0  0  0
   21.7286   -7.1662  -16.8045 N   0  0  0  0  0  0  0  0  0  0  0  0
   21.1357   -4.8761  -17.2333 C   0  0  0  0  0  0  0  0  0  0  0  0
   21.7841   -4.5408  -16.2094 O   0  0  0  0  0  0  0  0  0  0  0  0
   21.3480   -1.7023  -19.2219 C   0  0  0  0  0  0  0  0  0  0  0  0
   21.3773   -2.5256  -17.9807 C   0  0  2  0  0  0  0  0  0  0  0  0
   20.9251   -3.8968  -18.2231 N   0  0  0  0  0  0  0  0  0  0  0  0
   20.4876   -1.8559  -16.9768 C   0  0  0  0  0  0  0  0  0  0  0  0
   19.4273   -2.3844  -16.5742 O   0  0  0  0  0  0  0  0  0  0  0  0
   20.8834   -0.6143  -16.5022 O   0  0  0  0  0  0  0  0  0  0  0  0
  2  1  1  6
  2  9  1  0
  3  2  1  0
  4  3  1  0
  5  4  2  0
  6  7  1  0
  6  5  1  0
  7  8  2  0
  8  4  1  0
  9 10  2  0
 11 12  1  0
 13 12  1  0
 13 14  1  0
 15 14  1  1
 15 17  1  0
 16 15  1  0
 16  9  1  0
 17 21  1  0
 17 18  2  0
 20 19  1  6
 20 22  1  0
 21 20  1  0
 22 23  2  0
 22 24  1  0
M  END
$$$$
