HMA.pdb
     RDKit          3D

 24 24  0  0  1  0  0  0  0  0999 V2000
   21.8199  -13.8945  -20.7706 N   0  0  0  0  0  0  0  0  0  0  0  0
   21.9796  -12.4827  -20.6981 C   0  0  1  0  0  0  0  0  0  0  0  0
   20.9727  -11.6673  -21.4285 C   0  0  0  0  0  0  0  0  0  0  0  0
   20.7807  -12.0001  -22.8555 C   0  0  0  0  0  0  0  0  0  0  0  0
   19.7102  -12.5947  -23.4727 C   0  0  0  0  0  0  0  0  0  0  0  0
   20.0256  -12.6483  -24.7979 N   0  0  0  0  0  0  0  0  0  0  0  0
   21.2341  -12.1128  -25.0011 C   0  0  0  0  0  0  0  0  0  0  0  0
   21.7181  -11.7079  -23.8272 N   0  0  0  0  0  0  0  0  0  0  0  0
   22.1671  -12.0518  -19.2928 C   0  0  0  0  0  0  0  0  0  0  0  0
   21.4345  -12.5478  -18.3606 O   0  0  0  0  0  0  0  0  0  0  0  0
   27.3208  -12.1152  -14.2807 C   0  0  0  0  0  0  0  0  0  0  0  0
   27.0411  -11.1877  -15.8200 S   0  0  0  0  0  0  0  0  0  0  0  0
   25.2713  -10.6903  -15.8884 C   0  0  0  0  0  0  0  0  0  0  0  0
   24.7699  -11.0224  -17.2428 C   0  0  0  0  0  0  0  0  0  0  0  0
   23.3077  -10.7723  -17.4927 C   0  0  2  0  0  0  0  0  0  0  0  0
   23.1287  -11.1050  -18.9330 N   0  0  0  0  0  0  0  0  0  0  0  0
   22.9012   -9.3583  -17.2968 C   0  0  0  0  0  0  0  0  0  0  0  0
   22.9442   -8.5943  -18.2946 O   0  0  0  0  0  0  0  0  0  0  0  0
   20.4689   -7.6011  -16.8002 C   0  0  0  0  0  0  0  0  0  0  0  0
   21.7666   -7.5268  -16.0722 C   0  0  2  0  0  0  0  0  0  0  0  0
   22.4686   -8.8114  -16.0734 N   0  0  0  0  0  0  0  0  0  0  0  0
   21.4687   -7.0998  -14.6662 C   0  0  0  0  0  0  0  0  0  0  0  0
   20.9525   -7.8774  -13.8328 O   0  0  0  0  0  0  0  0  0  0  0  0
   21.7883   -5.7968  -14.3144 O   0  0  0  0  0  0  0  0  0  0  0  0
  2  1  1  1
  2  9  1  0
  3  2  1  0
  4  3  1  0
  5  4  2  0
  6  7  1  0
  6  5  1  0
  7  8  2  0
  8  4  1  0
  9 10  2  0
 11 12  1  0
 13 12  1  0
 13 14  1  0
 15 14  1  6
 15 17  1  0
 16 15  1  0
 16  9  1  0
 17 21  1  0
 17 18  2  0
 20 19  1  6
 20 22  1  0
 21 20  1  0
 22 23  2  0
 22 24  1  0
M  END
$$$$
