HMA.pdb
     RDKit          3D

 24 24  0  0  1  0  0  0  0  0999 V2000
   20.9569  -12.2876  -17.7616 N   0  0  0  0  0  0  0  0  0  0  0  0
   20.8131  -10.8924  -17.9997 C   0  0  1  0  0  0  0  0  0  0  0  0
   19.4216  -10.3899  -18.1525 C   0  0  0  0  0  0  0  0  0  0  0  0
   18.6461  -10.9597  -19.2741 C   0  0  0  0  0  0  0  0  0  0  0  0
   18.1850  -12.2390  -19.4503 C   0  0  0  0  0  0  0  0  0  0  0  0
   17.5083  -12.2324  -20.6337 N   0  0  0  0  0  0  0  0  0  0  0  0
   17.5430  -11.0088  -21.1721 C   0  0  0  0  0  0  0  0  0  0  0  0
   18.2338  -10.2103  -20.3589 N   0  0  0  0  0  0  0  0  0  0  0  0
   21.6079  -10.1131  -17.0214 C   0  0  0  0  0  0  0  0  0  0  0  0
   21.6418  -10.4675  -15.7865 O   0  0  0  0  0  0  0  0  0  0  0  0
   27.0155  -11.0891  -15.2473 C   0  0  0  0  0  0  0  0  0  0  0  0
   25.6191  -10.5053  -16.2559 S   0  0  0  0  0  0  0  0  0  0  0  0
   25.7764   -8.6853  -16.4727 C   0  0  0  0  0  0  0  0  0  0  0  0
   24.5531   -8.2143  -17.1640 C   0  0  0  0  0  0  0  0  0  0  0  0
   23.2609   -8.3613  -16.4076 C   0  0  2  0  0  0  0  0  0  0  0  0
   22.3362   -8.9819  -17.3961 N   0  0  0  0  0  0  0  0  0  0  0  0
   22.6699   -7.0694  -15.9779 C   0  0  0  0  0  0  0  0  0  0  0  0
   22.1560   -6.3388  -16.8630 O   0  0  0  0  0  0  0  0  0  0  0  0
   21.9344   -5.0406  -12.9035 C   0  0  0  0  0  0  0  0  0  0  0  0
   22.0844   -5.2803  -14.3662 C   0  0  2  0  0  0  0  0  0  0  0  0
   22.6413   -6.6043  -14.6491 N   0  0  0  0  0  0  0  0  0  0  0  0
   22.9873   -4.2118  -14.9058 C   0  0  0  0  0  0  0  0  0  0  0  0
   24.2107   -4.4051  -15.0828 O   0  0  0  0  0  0  0  0  0  0  0  0
   22.4143   -2.9851  -15.2066 O   0  0  0  0  0  0  0  0  0  0  0  0
  2  1  1  1
  2  9  1  0
  3  2  1  0
  4  3  1  0
  5  4  2  0
  6  7  1  0
  6  5  1  0
  7  8  2  0
  8  4  1  0
  9 10  2  0
 11 12  1  0
 13 12  1  0
 13 14  1  0
 15 14  1  6
 15 17  1  0
 16 15  1  0
 16  9  1  0
 17 21  1  0
 17 18  2  0
 20 19  1  1
 20 22  1  0
 21 20  1  0
 22 23  2  0
 22 24  1  0
M  END
$$$$
