HMA.pdb
     RDKit          3D

 24 24  0  0  1  0  0  0  0  0999 V2000
   26.0075  -21.1135  -12.7150 N   0  0  0  0  0  0  0  0  0  0  0  0
   25.2677  -20.3898  -11.7389 C   0  0  1  0  0  0  0  0  0  0  0  0
   23.7864  -20.4409  -11.8632 C   0  0  0  0  0  0  0  0  0  0  0  0
   23.2144  -19.8012  -13.0663 C   0  0  0  0  0  0  0  0  0  0  0  0
   23.6062  -18.6561  -13.7112 C   0  0  0  0  0  0  0  0  0  0  0  0
   22.7669  -18.5219  -14.7770 N   0  0  0  0  0  0  0  0  0  0  0  0
   21.8925  -19.5336  -14.7992 C   0  0  0  0  0  0  0  0  0  0  0  0
   22.1453  -20.3315  -13.7622 N   0  0  0  0  0  0  0  0  0  0  0  0
   25.7477  -20.7155  -10.3753 C   0  0  0  0  0  0  0  0  0  0  0  0
   25.8920  -21.9409  -10.0156 O   0  0  0  0  0  0  0  0  0  0  0  0
   29.6033  -20.0115   -4.3142 C   0  0  0  0  0  0  0  0  0  0  0  0
   29.0544  -19.8582   -6.0413 S   0  0  0  0  0  0  0  0  0  0  0  0
   27.4719  -18.9206   -6.0699 C   0  0  0  0  0  0  0  0  0  0  0  0
   27.0256  -18.8479   -7.4811 C   0  0  0  0  0  0  0  0  0  0  0  0
   26.5044  -20.1245   -8.0826 C   0  0  2  0  0  0  0  0  0  0  0  0
   26.0543  -19.7214   -9.4436 N   0  0  0  0  0  0  0  0  0  0  0  0
   25.3353  -20.6900   -7.3639 C   0  0  0  0  0  0  0  0  0  0  0  0
   24.2619  -20.0355   -7.3883 O   0  0  0  0  0  0  0  0  0  0  0  0
   24.2888  -23.6771   -5.3332 C   0  0  0  0  0  0  0  0  0  0  0  0
   24.1395  -22.3211   -5.9318 C   0  0  2  0  0  0  0  0  0  0  0  0
   25.3417  -21.9086   -6.6584 N   0  0  0  0  0  0  0  0  0  0  0  0
   23.8565  -21.3649   -4.8123 C   0  0  0  0  0  0  0  0  0  0  0  0
   22.6934  -21.1452   -4.4064 O   0  0  0  0  0  0  0  0  0  0  0  0
   24.9408  -20.7228   -4.2329 O   0  0  0  0  0  0  0  0  0  0  0  0
  2  1  1  6
  2  9  1  0
  3  2  1  0
  4  3  1  0
  5  4  2  0
  6  7  1  0
  6  5  1  0
  7  8  2  0
  8  4  1  0
  9 10  2  0
 11 12  1  0
 13 12  1  0
 13 14  1  0
 15 14  1  1
 15 17  1  0
 16 15  1  0
 16  9  1  0
 17 21  1  0
 17 18  2  0
 20 19  1  1
 20 22  1  0
 21 20  1  0
 22 23  2  0
 22 24  1  0
M  END
$$$$
