DFT.pdb
     RDKit          3D

 27 27  0  0  1  0  0  0  0  0999 V2000
   20.8843  -13.7703  -18.3883 N   0  0  0  0  0  0  0  0  0  0  0  0
   21.1340  -12.4473  -18.8827 C   0  0  1  0  0  0  0  0  0  0  0  0
   20.5248  -12.1447  -20.2095 C   0  0  0  0  0  0  0  0  0  0  0  0
   20.9771  -13.0749  -21.2569 C   0  0  0  0  0  0  0  0  0  0  0  0
   22.1868  -13.4056  -21.3050 O   0  0  0  0  0  0  0  0  0  0  0  0
   20.8855  -11.4189  -17.8574 C   0  0  0  0  0  0  0  0  0  0  0  0
   19.8060  -11.3433  -17.2076 O   0  0  0  0  0  0  0  0  0  0  0  0
   20.1179  -13.5897  -22.1799 O   0  0  0  0  0  0  0  0  0  0  0  0
   21.8623  -10.4606  -17.5598 N   0  0  0  0  0  0  0  0  0  0  0  0
   21.7040   -9.4039  -16.5911 C   0  0  1  0  0  0  0  0  0  0  0  0
   22.8421   -9.1602  -15.6832 C   0  0  0  0  0  0  0  0  0  0  0  0
   22.7191   -8.0311  -14.7547 C   0  0  0  0  0  0  0  0  0  0  0  0
   22.1421   -8.1139  -13.5082 C   0  0  0  0  0  0  0  0  0  0  0  0
   22.0522   -7.0092  -12.6871 C   0  0  0  0  0  0  0  0  0  0  0  0
   22.5408   -5.7783  -13.0910 C   0  0  0  0  0  0  0  0  0  0  0  0
   23.1120   -5.6937  -14.3230 C   0  0  0  0  0  0  0  0  0  0  0  0
   23.2008   -6.7897  -15.1372 C   0  0  0  0  0  0  0  0  0  0  0  0
   21.4130   -8.1626  -17.3593 C   0  0  0  0  0  0  0  0  0  0  0  0
   22.1736   -7.7892  -18.2857 O   0  0  0  0  0  0  0  0  0  0  0  0
   17.5281   -6.7170  -17.3640 C   0  0  0  0  0  0  0  0  0  0  0  0
   18.5508   -6.4542  -18.4384 C   0  0  1  0  0  0  0  0  0  0  0  0
   18.1623   -5.3030  -19.1568 O   0  0  0  0  0  0  0  0  0  0  0  0
   19.9266   -6.1868  -17.8429 C   0  0  2  0  0  0  0  0  0  0  0  0
   20.2747   -7.3747  -17.0653 N   0  0  0  0  0  0  0  0  0  0  0  0
   19.9162   -5.0437  -16.9204 C   0  0  0  0  0  0  0  0  0  0  0  0
   20.0285   -3.7242  -17.3257 O   0  0  0  0  0  0  0  0  0  0  0  0
   19.7989   -5.2711  -15.6877 O   0  0  0  0  0  0  0  0  0  0  0  0
  2  1  1  1
  2  3  1  0
  4  8  1  0
  4  3  1  0
  5  4  2  0
  6  2  1  0
  7  6  2  0
  9  6  1  0
 10 11  1  6
 10  9  1  0
 11 12  1  0
 12 17  2  0
 13 14  2  0
 13 12  1  0
 14 15  1  0
 15 16  2  0
 17 16  1  0
 18 24  1  0
 18 10  1  0
 19 18  2  0
 21 20  1  1
 21 22  1  0
 23 21  1  0
 23 24  1  1
 25 23  1  0
 25 26  1  0
 27 25  2  0
M  END
$$$$
