DFT.pdb
     RDKit          3D

 27 27  0  0  1  0  0  0  0  0999 V2000
   15.8567  -18.4010    3.2694 N   0  0  0  0  0  0  0  0  0  0  0  0
   15.5490  -17.2808    4.1106 C   0  0  1  0  0  0  0  0  0  0  0  0
   14.4962  -17.5326    5.1359 C   0  0  0  0  0  0  0  0  0  0  0  0
   13.2388  -18.0119    4.5390 C   0  0  0  0  0  0  0  0  0  0  0  0
   12.8316  -17.4990    3.4684 O   0  0  0  0  0  0  0  0  0  0  0  0
   16.7644  -16.6386    4.6408 C   0  0  0  0  0  0  0  0  0  0  0  0
   17.8729  -17.2354    4.7319 O   0  0  0  0  0  0  0  0  0  0  0  0
   12.5006  -19.0000    5.1167 O   0  0  0  0  0  0  0  0  0  0  0  0
   16.7334  -15.3083    5.0770 N   0  0  0  0  0  0  0  0  0  0  0  0
   17.8854  -14.5682    5.5301 C   0  0  1  0  0  0  0  0  0  0  0  0
   17.8150  -13.0980    5.4193 C   0  0  0  0  0  0  0  0  0  0  0  0
   18.9685  -12.3400    5.9161 C   0  0  0  0  0  0  0  0  0  0  0  0
   19.0657  -11.8246    7.1883 C   0  0  0  0  0  0  0  0  0  0  0  0
   20.1778  -11.1138    7.5888 C   0  0  0  0  0  0  0  0  0  0  0  0
   21.2352  -10.8951    6.7221 C   0  0  0  0  0  0  0  0  0  0  0  0
   21.1417  -11.4037    5.4636 C   0  0  0  0  0  0  0  0  0  0  0  0
   20.0383  -12.1087    5.0667 C   0  0  0  0  0  0  0  0  0  0  0  0
   18.1000  -14.9445    6.9541 C   0  0  0  0  0  0  0  0  0  0  0  0
   17.1278  -15.0579    7.7403 O   0  0  0  0  0  0  0  0  0  0  0  0
   21.6050  -16.9646    7.8608 C   0  0  0  0  0  0  0  0  0  0  0  0
   20.2895  -17.0923    8.5837 C   0  0  1  0  0  0  0  0  0  0  0  0
   20.5290  -17.6517    9.8573 O   0  0  0  0  0  0  0  0  0  0  0  0
   19.6343  -15.7331    8.7900 C   0  0  2  0  0  0  0  0  0  0  0  0
   19.4016  -15.1834    7.4556 N   0  0  0  0  0  0  0  0  0  0  0  0
   20.5145  -14.7987    9.5041 C   0  0  0  0  0  0  0  0  0  0  0  0
   20.5735  -14.6962   10.8840 O   0  0  0  0  0  0  0  0  0  0  0  0
   21.2609  -14.0441    8.8270 O   0  0  0  0  0  0  0  0  0  0  0  0
  2  1  1  1
  2  3  1  0
  4  8  1  0
  4  3  1  0
  5  4  2  0
  6  2  1  0
  7  6  2  0
  9  6  1  0
 10 11  1  1
 10  9  1  0
 11 12  1  0
 12 17  2  0
 13 14  2  0
 13 12  1  0
 14 15  1  0
 15 16  2  0
 17 16  1  0
 18 24  1  0
 18 10  1  0
 19 18  2  0
 21 20  1  1
 21 22  1  0
 23 21  1  0
 23 24  1  6
 25 23  1  0
 25 26  1  0
 27 25  2  0
M  END
$$$$
