DFT.pdb
     RDKit          3D

 27 27  0  0  1  0  0  0  0  0999 V2000
   20.9790  -19.7436  -11.4487 N   0  0  0  0  0  0  0  0  0  0  0  0
   21.7585  -20.7584  -12.0965 C   0  0  1  0  0  0  0  0  0  0  0  0
   21.1603  -21.3122  -13.3449 C   0  0  0  0  0  0  0  0  0  0  0  0
   19.8200  -21.8774  -13.1188 C   0  0  0  0  0  0  0  0  0  0  0  0
   19.7024  -23.1033  -12.8767 O   0  0  0  0  0  0  0  0  0  0  0  0
   23.1730  -20.3677  -12.2286 C   0  0  0  0  0  0  0  0  0  0  0  0
   23.5361  -19.2263  -12.6270 O   0  0  0  0  0  0  0  0  0  0  0  0
   18.6984  -21.1061  -13.1649 O   0  0  0  0  0  0  0  0  0  0  0  0
   24.1935  -21.2724  -11.9109 N   0  0  0  0  0  0  0  0  0  0  0  0
   25.6026  -20.9717  -11.9729 C   0  0  1  0  0  0  0  0  0  0  0  0
   26.4431  -21.5038  -10.8822 C   0  0  0  0  0  0  0  0  0  0  0  0
   26.2341  -20.9343   -9.5466 C   0  0  0  0  0  0  0  0  0  0  0  0
   25.5556  -21.5700   -8.5321 C   0  0  0  0  0  0  0  0  0  0  0  0
   25.3888  -20.9732   -7.2998 C   0  0  0  0  0  0  0  0  0  0  0  0
   25.8998  -19.7123   -7.0426 C   0  0  0  0  0  0  0  0  0  0  0  0
   26.5713  -19.0816   -8.0439 C   0  0  0  0  0  0  0  0  0  0  0  0
   26.7365  -19.6739   -9.2661 C   0  0  0  0  0  0  0  0  0  0  0  0
   26.0937  -21.5000  -13.2749 C   0  0  0  0  0  0  0  0  0  0  0  0
   25.9758  -22.7175  -13.5578 O   0  0  0  0  0  0  0  0  0  0  0  0
   25.2823  -21.0923  -17.6472 C   0  0  0  0  0  0  0  0  0  0  0  0
   25.3410  -21.0524  -16.1424 C   0  0  1  0  0  0  0  0  0  0  0  0
   24.7675  -22.2396  -15.6386 O   0  0  0  0  0  0  0  0  0  0  0  0
   26.7783  -20.9839  -15.6438 C   0  0  2  0  0  0  0  0  0  0  0  0
   26.7039  -20.6454  -14.2236 N   0  0  0  0  0  0  0  0  0  0  0  0
   27.5439  -19.9220  -16.3103 C   0  0  0  0  0  0  0  0  0  0  0  0
   28.5458  -20.1587  -17.2366 O   0  0  0  0  0  0  0  0  0  0  0  0
   27.2779  -18.7247  -16.0263 O   0  0  0  0  0  0  0  0  0  0  0  0
  2  1  1  6
  2  3  1  0
  4  8  1  0
  4  3  1  0
  5  4  2  0
  6  2  1  0
  7  6  2  0
  9  6  1  0
 10 11  1  1
 10  9  1  0
 11 12  1  0
 12 17  2  0
 13 14  2  0
 13 12  1  0
 14 15  1  0
 15 16  2  0
 17 16  1  0
 18 24  1  0
 18 10  1  0
 19 18  2  0
 21 20  1  6
 21 22  1  0
 23 21  1  0
 23 24  1  1
 25 23  1  0
 25 26  1  0
 27 25  2  0
M  END
$$$$
