DFT.pdb
     RDKit          3D

 27 27  0  0  1  0  0  0  0  0999 V2000
   27.8551  -22.8414  -17.5032 N   0  0  0  0  0  0  0  0  0  0  0  0
   27.5416  -21.6090  -16.8398 C   0  0  1  0  0  0  0  0  0  0  0  0
   26.8707  -20.5866  -17.6928 C   0  0  0  0  0  0  0  0  0  0  0  0
   27.8038  -19.9441  -18.6328 C   0  0  0  0  0  0  0  0  0  0  0  0
   27.8760  -20.3661  -19.8125 O   0  0  0  0  0  0  0  0  0  0  0  0
   26.8852  -21.8334  -15.5400 C   0  0  0  0  0  0  0  0  0  0  0  0
   26.0543  -22.7625  -15.3413 O   0  0  0  0  0  0  0  0  0  0  0  0
   28.5949  -18.9005  -18.2586 O   0  0  0  0  0  0  0  0  0  0  0  0
   27.1643  -21.0009  -14.4492 N   0  0  0  0  0  0  0  0  0  0  0  0
   26.4985  -21.0743  -13.1719 C   0  0  1  0  0  0  0  0  0  0  0  0
   27.2319  -20.5360  -12.0095 C   0  0  0  0  0  0  0  0  0  0  0  0
   26.5175  -20.5115  -10.7285 C   0  0  0  0  0  0  0  0  0  0  0  0
   25.3916  -19.7588  -10.4849 C   0  0  0  0  0  0  0  0  0  0  0  0
   24.7723  -19.7767   -9.2526 C   0  0  0  0  0  0  0  0  0  0  0  0
   25.2642  -20.5544   -8.2180 C   0  0  0  0  0  0  0  0  0  0  0  0
   26.3774  -21.2997   -8.4562 C   0  0  0  0  0  0  0  0  0  0  0  0
   26.9914  -21.2815   -9.6788 C   0  0  0  0  0  0  0  0  0  0  0  0
   25.2096  -20.3449  -13.3212 C   0  0  0  0  0  0  0  0  0  0  0  0
   25.1894  -19.1551  -13.7214 O   0  0  0  0  0  0  0  0  0  0  0  0
   22.2656  -22.0863  -14.9736 C   0  0  0  0  0  0  0  0  0  0  0  0
   22.3269  -20.6057  -14.7027 C   0  0  1  0  0  0  0  0  0  0  0  0
   21.0508  -20.0518  -14.9419 O   0  0  0  0  0  0  0  0  0  0  0  0
   22.6914  -20.3206  -13.2518 C   0  0  2  0  0  0  0  0  0  0  0  0
   23.9785  -20.9728  -13.0167 N   0  0  0  0  0  0  0  0  0  0  0  0
   21.7235  -20.9052  -12.3142 C   0  0  0  0  0  0  0  0  0  0  0  0
   20.4478  -20.4057  -12.1111 O   0  0  0  0  0  0  0  0  0  0  0  0
   22.0685  -21.9200  -11.6537 O   0  0  0  0  0  0  0  0  0  0  0  0
  2  1  1  6
  2  3  1  0
  4  8  1  0
  4  3  1  0
  5  4  2  0
  6  2  1  0
  7  6  2  0
  9  6  1  0
 10 11  1  1
 10  9  1  0
 11 12  1  0
 12 17  2  0
 13 14  2  0
 13 12  1  0
 14 15  1  0
 15 16  2  0
 17 16  1  0
 18 24  1  0
 18 10  1  0
 19 18  2  0
 21 20  1  1
 21 22  1  0
 23 21  1  0
 23 24  1  1
 25 23  1  0
 25 26  1  0
 27 25  2  0
M  END
$$$$
