DFT.pdb
     RDKit          3D

 27 27  0  0  1  0  0  0  0  0999 V2000
   26.5586  -21.3553  -13.0018 N   0  0  0  0  0  0  0  0  0  0  0  0
   25.6452  -20.7724  -12.0621 C   0  0  1  0  0  0  0  0  0  0  0  0
   24.2026  -21.0112  -12.3537 C   0  0  0  0  0  0  0  0  0  0  0  0
   23.8585  -20.7103  -13.7530 C   0  0  0  0  0  0  0  0  0  0  0  0
   23.3455  -21.6064  -14.4664 O   0  0  0  0  0  0  0  0  0  0  0  0
   26.0324  -21.0539  -10.6688 C   0  0  0  0  0  0  0  0  0  0  0  0
   26.0561  -22.2192  -10.1843 O   0  0  0  0  0  0  0  0  0  0  0  0
   24.0814  -19.4827  -14.2993 O   0  0  0  0  0  0  0  0  0  0  0  0
   26.3957  -20.0116   -9.8070 N   0  0  0  0  0  0  0  0  0  0  0  0
   26.8594  -20.1925   -8.4534 C   0  0  1  0  0  0  0  0  0  0  0  0
   27.8447  -19.2138   -7.9533 C   0  0  0  0  0  0  0  0  0  0  0  0
   28.3018  -19.3816   -6.5695 C   0  0  0  0  0  0  0  0  0  0  0  0
   28.1622  -18.4277   -5.5876 C   0  0  0  0  0  0  0  0  0  0  0  0
   28.6221  -18.6481   -4.3060 C   0  0  0  0  0  0  0  0  0  0  0  0
   29.2406  -19.8389   -3.9648 C   0  0  0  0  0  0  0  0  0  0  0  0
   29.3799  -20.7839   -4.9338 C   0  0  0  0  0  0  0  0  0  0  0  0
   28.9236  -20.5648   -6.2049 C   0  0  0  0  0  0  0  0  0  0  0  0
   25.6525  -20.1643   -7.5827 C   0  0  0  0  0  0  0  0  0  0  0  0
   24.7690  -19.2864   -7.7406 O   0  0  0  0  0  0  0  0  0  0  0  0
   22.8410  -22.0564   -7.4688 C   0  0  0  0  0  0  0  0  0  0  0  0
   23.4329  -22.2820   -6.1019 C   0  0  1  0  0  0  0  0  0  0  0  0
   24.2493  -23.4324   -6.1499 O   0  0  0  0  0  0  0  0  0  0  0  0
   24.3071  -21.1106   -5.6745 C   0  0  2  0  0  0  0  0  0  0  0  0
   25.4714  -21.1239   -6.5584 N   0  0  0  0  0  0  0  0  0  0  0  0
   24.7973  -21.2609   -4.2979 C   0  0  0  0  0  0  0  0  0  0  0  0
   26.1155  -21.5356   -3.9741 O   0  0  0  0  0  0  0  0  0  0  0  0
   23.9750  -21.1337   -3.3531 O   0  0  0  0  0  0  0  0  0  0  0  0
  2  1  1  6
  2  3  1  0
  4  8  1  0
  4  3  1  0
  5  4  2  0
  6  2  1  0
  7  6  2  0
  9  6  1  0
 10 11  1  1
 10  9  1  0
 11 12  1  0
 12 17  2  0
 13 14  2  0
 13 12  1  0
 14 15  1  0
 15 16  2  0
 17 16  1  0
 18 24  1  0
 18 10  1  0
 19 18  2  0
 21 20  1  6
 21 22  1  0
 23 21  1  0
 23 24  1  6
 25 23  1  0
 25 26  1  0
 27 25  2  0
M  END
$$$$
