DFT.pdb
     RDKit          3D

 27 27  0  0  1  0  0  0  0  0999 V2000
   26.8856  -18.6574  -16.7263 N   0  0  0  0  0  0  0  0  0  0  0  0
   25.5053  -18.8440  -16.3845 C   0  0  1  0  0  0  0  0  0  0  0  0
   24.5315  -18.3072  -17.3778 C   0  0  0  0  0  0  0  0  0  0  0  0
   24.8796  -16.9478  -17.8226 C   0  0  0  0  0  0  0  0  0  0  0  0
   25.3487  -16.7790  -18.9744 O   0  0  0  0  0  0  0  0  0  0  0  0
   25.2254  -20.2245  -15.9524 C   0  0  0  0  0  0  0  0  0  0  0  0
   25.0497  -21.1758  -16.7631 O   0  0  0  0  0  0  0  0  0  0  0  0
   24.7071  -15.8627  -17.0177 O   0  0  0  0  0  0  0  0  0  0  0  0
   25.1393  -20.5400  -14.5908 N   0  0  0  0  0  0  0  0  0  0  0  0
   25.0152  -21.8779  -14.0667 C   0  0  1  0  0  0  0  0  0  0  0  0
   25.9177  -22.2420  -12.9568 C   0  0  0  0  0  0  0  0  0  0  0  0
   25.7996  -21.4583  -11.7224 C   0  0  0  0  0  0  0  0  0  0  0  0
   25.2085  -21.9178  -10.5678 C   0  0  0  0  0  0  0  0  0  0  0  0
   25.1243  -21.1242   -9.4428 C   0  0  0  0  0  0  0  0  0  0  0  0
   25.6330  -19.8365   -9.4382 C   0  0  0  0  0  0  0  0  0  0  0  0
   26.2182  -19.3797  -10.5785 C   0  0  0  0  0  0  0  0  0  0  0  0
   26.3014  -20.1672  -11.6943 C   0  0  0  0  0  0  0  0  0  0  0  0
   23.6028  -22.0319  -13.6230 C   0  0  0  0  0  0  0  0  0  0  0  0
   23.1948  -23.1211  -13.1504 O   0  0  0  0  0  0  0  0  0  0  0  0
   21.0680  -18.6681  -13.9567 C   0  0  0  0  0  0  0  0  0  0  0  0
   20.9845  -19.5841  -12.7635 C   0  0  1  0  0  0  0  0  0  0  0  0
   19.6538  -19.5888  -12.2929 O   0  0  0  0  0  0  0  0  0  0  0  0
   21.3502  -21.0150  -13.1345 C   0  0  2  0  0  0  0  0  0  0  0  0
   22.6874  -20.9572  -13.7224 N   0  0  0  0  0  0  0  0  0  0  0  0
   20.4460  -21.5704  -14.1502 C   0  0  0  0  0  0  0  0  0  0  0  0
   19.2245  -22.1547  -13.8591 O   0  0  0  0  0  0  0  0  0  0  0  0
   20.7970  -21.5148  -15.3580 O   0  0  0  0  0  0  0  0  0  0  0  0
  2  1  1  6
  2  3  1  0
  4  8  1  0
  4  3  1  0
  5  4  2  0
  6  2  1  0
  7  6  2  0
  9  6  1  0
 10 11  1  1
 10  9  1  0
 11 12  1  0
 12 17  2  0
 13 14  2  0
 13 12  1  0
 14 15  1  0
 15 16  2  0
 17 16  1  0
 18 24  1  0
 18 10  1  0
 19 18  2  0
 21 20  1  6
 21 22  1  0
 23 21  1  0
 23 24  1  6
 25 23  1  0
 25 26  1  0
 27 25  2  0
M  END
$$$$
