DFT.pdb
     RDKit          3D

 27 27  0  0  1  0  0  0  0  0999 V2000
   21.5291  -11.9307  -17.8665 N   0  0  0  0  0  0  0  0  0  0  0  0
   21.2571  -11.9882  -16.4594 C   0  0  1  0  0  0  0  0  0  0  0  0
   21.3051  -13.3538  -15.8631 C   0  0  0  0  0  0  0  0  0  0  0  0
   20.3530  -14.2764  -16.5029 C   0  0  0  0  0  0  0  0  0  0  0  0
   19.5813  -13.8437  -17.3930 O   0  0  0  0  0  0  0  0  0  0  0  0
   22.0197  -10.9759  -15.7081 C   0  0  0  0  0  0  0  0  0  0  0  0
   22.0848  -10.9605  -14.4477 O   0  0  0  0  0  0  0  0  0  0  0  0
   20.2842  -15.5917  -16.1560 O   0  0  0  0  0  0  0  0  0  0  0  0
   22.7169   -9.9657  -16.3821 N   0  0  0  0  0  0  0  0  0  0  0  0
   23.5108   -8.9488  -15.7374 C   0  0  1  0  0  0  0  0  0  0  0  0
   24.9075   -8.8086  -16.1942 C   0  0  0  0  0  0  0  0  0  0  0  0
   25.7696   -9.9880  -16.0613 C   0  0  0  0  0  0  0  0  0  0  0  0
   26.3247  -10.4108  -14.8752 C   0  0  0  0  0  0  0  0  0  0  0  0
   27.1340  -11.5265  -14.8221 C   0  0  0  0  0  0  0  0  0  0  0  0
   27.4149  -12.2592  -15.9628 C   0  0  0  0  0  0  0  0  0  0  0  0
   26.8673  -11.8434  -17.1369 C   0  0  0  0  0  0  0  0  0  0  0  0
   26.0646  -10.7366  -17.1892 C   0  0  0  0  0  0  0  0  0  0  0  0
   22.7956   -7.6590  -15.9389 C   0  0  0  0  0  0  0  0  0  0  0  0
   22.6194   -7.1976  -17.0931 O   0  0  0  0  0  0  0  0  0  0  0  0
   19.4990   -7.0288  -15.6074 C   0  0  0  0  0  0  0  0  0  0  0  0
   20.0892   -6.0346  -14.6417 C   0  0  1  0  0  0  0  0  0  0  0  0
   20.0979   -6.6106  -13.3531 O   0  0  0  0  0  0  0  0  0  0  0  0
   21.5276   -5.6921  -15.0062 C   0  0  2  0  0  0  0  0  0  0  0  0
   22.2976   -6.9231  -14.8374 N   0  0  0  0  0  0  0  0  0  0  0  0
   22.1015   -4.6860  -14.1027 C   0  0  0  0  0  0  0  0  0  0  0  0
   21.7203   -3.3546  -14.0888 O   0  0  0  0  0  0  0  0  0  0  0  0
   22.9928   -5.0498  -13.2913 O   0  0  0  0  0  0  0  0  0  0  0  0
  2  1  1  6
  2  3  1  0
  4  8  1  0
  4  3  1  0
  5  4  2  0
  6  2  1  0
  7  6  2  0
  9  6  1  0
 10 11  1  6
 10  9  1  0
 11 12  1  0
 12 17  2  0
 13 14  2  0
 13 12  1  0
 14 15  1  0
 15 16  2  0
 17 16  1  0
 18 24  1  0
 18 10  1  0
 19 18  2  0
 21 20  1  6
 21 22  1  0
 23 21  1  0
 23 24  1  1
 25 23  1  0
 25 26  1  0
 27 25  2  0
M  END
$$$$
