DFT.pdb
     RDKit          3D

 27 27  0  0  1  0  0  0  0  0999 V2000
   19.2421  -10.2901  -16.3868 N   0  0  0  0  0  0  0  0  0  0  0  0
   18.9608   -8.9460  -16.8007 C   0  0  1  0  0  0  0  0  0  0  0  0
   17.5910   -8.7282  -17.3476 C   0  0  0  0  0  0  0  0  0  0  0  0
   17.3082   -9.5921  -18.5055 C   0  0  0  0  0  0  0  0  0  0  0  0
   18.1591   -9.6890  -19.4228 O   0  0  0  0  0  0  0  0  0  0  0  0
   19.3674   -7.9592  -15.7850 C   0  0  0  0  0  0  0  0  0  0  0  0
   19.0476   -8.0545  -14.5677 O   0  0  0  0  0  0  0  0  0  0  0  0
   16.1450  -10.2927  -18.6115 O   0  0  0  0  0  0  0  0  0  0  0  0
   20.1421   -6.8487  -16.1423 N   0  0  0  0  0  0  0  0  0  0  0  0
   20.6383   -5.8636  -15.2131 C   0  0  1  0  0  0  0  0  0  0  0  0
   22.0562   -5.9784  -14.8188 C   0  0  0  0  0  0  0  0  0  0  0  0
   22.4808   -7.2565  -14.2374 C   0  0  0  0  0  0  0  0  0  0  0  0
   22.1125   -7.6981  -12.9872 C   0  0  0  0  0  0  0  0  0  0  0  0
   22.5547   -8.9095  -12.4978 C   0  0  0  0  0  0  0  0  0  0  0  0
   23.3854   -9.7226  -13.2500 C   0  0  0  0  0  0  0  0  0  0  0  0
   23.7511   -9.2884  -14.4865 C   0  0  0  0  0  0  0  0  0  0  0  0
   23.3123   -8.0867  -14.9716 C   0  0  0  0  0  0  0  0  0  0  0  0
   20.4082   -4.5333  -15.8400 C   0  0  0  0  0  0  0  0  0  0  0  0
   20.6459   -4.3497  -17.0590 O   0  0  0  0  0  0  0  0  0  0  0  0
   17.9788   -0.2597  -15.4233 C   0  0  0  0  0  0  0  0  0  0  0  0
   18.3538   -1.6436  -14.9609 C   0  0  1  0  0  0  0  0  0  0  0  0
   17.2891   -2.5210  -15.2592 O   0  0  0  0  0  0  0  0  0  0  0  0
   19.5925   -2.1548  -15.6842 C   0  0  2  0  0  0  0  0  0  0  0  0
   19.9170   -3.4455  -15.0795 N   0  0  0  0  0  0  0  0  0  0  0  0
   20.7503   -1.2725  -15.4875 C   0  0  0  0  0  0  0  0  0  0  0  0
   21.1157   -0.2707  -16.3711 O   0  0  0  0  0  0  0  0  0  0  0  0
   21.4554   -1.4320  -14.4568 O   0  0  0  0  0  0  0  0  0  0  0  0
  2  1  1  1
  2  3  1  0
  4  8  1  0
  4  3  1  0
  5  4  2  0
  6  2  1  0
  7  6  2  0
  9  6  1  0
 10 11  1  6
 10  9  1  0
 11 12  1  0
 12 17  2  0
 13 14  2  0
 13 12  1  0
 14 15  1  0
 15 16  2  0
 17 16  1  0
 18 24  1  0
 18 10  1  0
 19 18  2  0
 21 20  1  6
 21 22  1  0
 23 21  1  0
 23 24  1  1
 25 23  1  0
 25 26  1  0
 27 25  2  0
M  END
$$$$
