DFT.pdb
     RDKit          3D

 27 27  0  0  1  0  0  0  0  0999 V2000
   28.9452  -20.7271  -13.6443 N   0  0  0  0  0  0  0  0  0  0  0  0
   27.5547  -20.6288  -13.3066 C   0  0  1  0  0  0  0  0  0  0  0  0
   26.6211  -21.2423  -14.2940 C   0  0  0  0  0  0  0  0  0  0  0  0
   26.8096  -20.7027  -15.6506 C   0  0  0  0  0  0  0  0  0  0  0  0
   27.3111  -21.4338  -16.5390 O   0  0  0  0  0  0  0  0  0  0  0  0
   27.2969  -21.0211  -11.9100 C   0  0  0  0  0  0  0  0  0  0  0  0
   26.4237  -21.8729  -11.5857 O   0  0  0  0  0  0  0  0  0  0  0  0
   26.4543  -19.4278  -15.9720 O   0  0  0  0  0  0  0  0  0  0  0  0
   28.0284  -20.4466  -10.8632 N   0  0  0  0  0  0  0  0  0  0  0  0
   27.7829  -20.6899   -9.4630 C   0  0  1  0  0  0  0  0  0  0  0  0
   28.7360  -20.0905   -8.5084 C   0  0  0  0  0  0  0  0  0  0  0  0
   28.3406  -20.0796   -7.0958 C   0  0  0  0  0  0  0  0  0  0  0  0
   27.7237  -19.0187   -6.4732 C   0  0  0  0  0  0  0  0  0  0  0  0
   27.3850  -19.0722   -5.1373 C   0  0  0  0  0  0  0  0  0  0  0  0
   27.6549  -20.1975   -4.3771 C   0  0  0  0  0  0  0  0  0  0  0  0
   28.2647  -21.2480   -4.9903 C   0  0  0  0  0  0  0  0  0  0  0  0
   28.6007  -21.1945   -6.3155 C   0  0  0  0  0  0  0  0  0  0  0  0
   26.4138  -20.1810   -9.1763 C   0  0  0  0  0  0  0  0  0  0  0  0
   26.1038  -18.9931   -9.4387 O   0  0  0  0  0  0  0  0  0  0  0  0
   21.7786  -20.7216   -9.3622 C   0  0  0  0  0  0  0  0  0  0  0  0
   23.2488  -20.9727   -9.5741 C   0  0  1  0  0  0  0  0  0  0  0  0
   23.6860  -20.1895  -10.6639 O   0  0  0  0  0  0  0  0  0  0  0  0
   24.0638  -20.5655   -8.3539 C   0  0  2  0  0  0  0  0  0  0  0  0
   25.4303  -21.0215   -8.6027 N   0  0  0  0  0  0  0  0  0  0  0  0
   23.5941  -21.2283   -7.1299 C   0  0  0  0  0  0  0  0  0  0  0  0
   22.4608  -20.8458   -6.4319 O   0  0  0  0  0  0  0  0  0  0  0  0
   24.2571  -22.2016   -6.6848 O   0  0  0  0  0  0  0  0  0  0  0  0
  2  1  1  6
  2  3  1  0
  4  8  1  0
  4  3  1  0
  5  4  2  0
  6  2  1  0
  7  6  2  0
  9  6  1  0
 10 11  1  1
 10  9  1  0
 11 12  1  0
 12 17  2  0
 13 14  2  0
 13 12  1  0
 14 15  1  0
 15 16  2  0
 17 16  1  0
 18 24  1  0
 18 10  1  0
 19 18  2  0
 21 20  1  1
 21 22  1  0
 23 21  1  0
 23 24  1  6
 25 23  1  0
 25 26  1  0
 27 25  2  0
M  END
$$$$
