GII.pdb
     RDKit          3D

 21 20  0  0  1  0  0  0  0  0999 V2000
    5.6716  -19.2590   23.4831 N   0  0  0  0  0  0  0  0  0  0  0  0
    5.8387  -18.3785   24.6180 C   0  0  0  0  0  0  0  0  0  0  0  0
    6.6265  -17.1691   24.2622 C   0  0  0  0  0  0  0  0  0  0  0  0
    7.3327  -17.1720   23.2223 O   0  0  0  0  0  0  0  0  0  0  0  0
    5.3229  -12.1600   26.4668 C   0  0  0  0  0  0  0  0  0  0  0  0
    5.7191  -13.2173   25.4699 C   0  0  0  0  0  0  0  0  0  0  0  0
    7.1617  -13.6159   25.5411 C   0  0  2  0  0  0  0  0  0  0  0  0
    8.1046  -12.5016   25.2370 C   0  0  0  0  0  0  0  0  0  0  0  0
    7.5204  -14.8865   24.8384 C   0  0  2  0  0  0  0  0  0  0  0  0
    6.6283  -15.9876   25.0433 N   0  0  0  0  0  0  0  0  0  0  0  0
    8.8882  -15.2746   25.3001 C   0  0  0  0  0  0  0  0  0  0  0  0
    9.8993  -14.9770   24.5811 O   0  0  0  0  0  0  0  0  0  0  0  0
   10.1173  -13.5317   29.7888 C   0  0  0  0  0  0  0  0  0  0  0  0
   10.3553  -14.1608   28.4736 C   0  0  0  0  0  0  0  0  0  0  0  0
   10.5400  -15.6073   28.3506 C   0  0  2  0  0  0  0  0  0  0  0  0
   11.7878  -16.0761   29.1347 C   0  0  0  0  0  0  0  0  0  0  0  0
   10.5344  -16.2133   26.9882 C   0  0  2  0  0  0  0  0  0  0  0  0
    9.1204  -15.9626   26.5069 N   0  0  0  0  0  0  0  0  0  0  0  0
   10.7626  -17.6496   26.9703 C   0  0  0  0  0  0  0  0  0  0  0  0
   11.8968  -18.2897   26.5439 O   0  0  0  0  0  0  0  0  0  0  0  0
    9.8263  -18.4247   27.3802 O   0  0  0  0  0  0  0  0  0  0  0  0
  1  2  1  0
  2  3  1  0
  3 10  1  0
  4  3  2  0
  5  6  1  0
  7  8  1  6
  7  6  1  0
  9  7  1  0
  9 10  1  1
 11  9  1  0
 12 11  2  0
 13 14  1  0
 15 17  1  0
 15 14  1  0
 15 16  1  6
 17 18  1  1
 18 11  1  0
 19 17  1  0
 20 19  1  0
 21 19  2  0
M  END
$$$$
