GII.pdb
     RDKit          3D

 21 20  0  0  1  0  0  0  0  0999 V2000
    5.0112  -19.1924   22.2591 N   0  0  0  0  0  0  0  0  0  0  0  0
    5.1115  -17.8321   22.7396 C   0  0  0  0  0  0  0  0  0  0  0  0
    6.4082  -17.2114   22.3615 C   0  0  0  0  0  0  0  0  0  0  0  0
    7.3819  -17.9451   22.0554 O   0  0  0  0  0  0  0  0  0  0  0  0
    6.9550  -12.4835   19.4691 C   0  0  0  0  0  0  0  0  0  0  0  0
    7.1875  -13.8600   20.0351 C   0  0  0  0  0  0  0  0  0  0  0  0
    7.8361  -13.8651   21.3857 C   0  0  2  0  0  0  0  0  0  0  0  0
    9.1425  -13.1474   21.4232 C   0  0  0  0  0  0  0  0  0  0  0  0
    7.8822  -15.1891   22.0796 C   0  0  2  0  0  0  0  0  0  0  0  0
    6.6159  -15.8108   22.3251 N   0  0  0  0  0  0  0  0  0  0  0  0
    8.5835  -14.9795   23.3831 C   0  0  0  0  0  0  0  0  0  0  0  0
    9.8333  -14.7231   23.3872 O   0  0  0  0  0  0  0  0  0  0  0  0
    5.7109  -12.2072   26.5249 C   0  0  0  0  0  0  0  0  0  0  0  0
    6.9432  -12.8024   25.9686 C   0  0  0  0  0  0  0  0  0  0  0  0
    7.6297  -13.8973   26.6554 C   0  0  2  0  0  0  0  0  0  0  0  0
    8.2153  -13.4244   28.0064 C   0  0  0  0  0  0  0  0  0  0  0  0
    8.6495  -14.6828   25.9027 C   0  0  2  0  0  0  0  0  0  0  0  0
    7.9240  -15.0520   24.6255 N   0  0  0  0  0  0  0  0  0  0  0  0
    9.0572  -15.9167   26.5557 C   0  0  0  0  0  0  0  0  0  0  0  0
    8.5312  -17.1641   26.3427 O   0  0  0  0  0  0  0  0  0  0  0  0
    9.9946  -15.8676   27.4297 O   0  0  0  0  0  0  0  0  0  0  0  0
  1  2  1  0
  2  3  1  0
  3 10  1  0
  4  3  2  0
  5  6  1  0
  7  8  1  6
  7  6  1  0
  9  7  1  0
  9 10  1  1
 11  9  1  0
 12 11  2  0
 13 14  1  0
 15 17  1  0
 15 14  1  0
 15 16  1  1
 17 18  1  6
 18 11  1  0
 19 17  1  0
 20 19  1  0
 21 19  2  0
M  END
$$$$
