GII.pdb
     RDKit          3D

 21 20  0  0  1  0  0  0  0  0999 V2000
    9.0841  -15.1540   20.1860 N   0  0  0  0  0  0  0  0  0  0  0  0
    8.2663  -15.6492   21.2711 C   0  0  0  0  0  0  0  0  0  0  0  0
    8.6431  -15.0292   22.5685 C   0  0  0  0  0  0  0  0  0  0  0  0
    9.8272  -14.6505   22.7550 O   0  0  0  0  0  0  0  0  0  0  0  0
    5.1413  -12.0595   25.8010 C   0  0  0  0  0  0  0  0  0  0  0  0
    6.3220  -12.6083   25.0435 C   0  0  0  0  0  0  0  0  0  0  0  0
    7.0279  -13.7315   25.7401 C   0  0  2  0  0  0  0  0  0  0  0  0
    7.4615  -13.3953   27.1265 C   0  0  0  0  0  0  0  0  0  0  0  0
    8.0958  -14.4178   24.9493 C   0  0  2  0  0  0  0  0  0  0  0  0
    7.7262  -14.8358   23.6306 N   0  0  0  0  0  0  0  0  0  0  0  0
    8.5281  -15.6128   25.7365 C   0  0  0  0  0  0  0  0  0  0  0  0
    8.1788  -16.7772   25.3492 O   0  0  0  0  0  0  0  0  0  0  0  0
   11.0980  -13.8395   29.6762 C   0  0  0  0  0  0  0  0  0  0  0  0
   11.4178  -14.7466   28.5550 C   0  0  0  0  0  0  0  0  0  0  0  0
   10.9087  -16.1184   28.5245 C   0  0  2  0  0  0  0  0  0  0  0  0
   11.9785  -17.1184   29.0215 C   0  0  0  0  0  0  0  0  0  0  0  0
   10.2853  -16.6196   27.2661 C   0  0  2  0  0  0  0  0  0  0  0  0
    9.3133  -15.5166   26.9018 N   0  0  0  0  0  0  0  0  0  0  0  0
    9.5248  -17.8494   27.4226 C   0  0  0  0  0  0  0  0  0  0  0  0
    8.3205  -17.9873   28.0618 O   0  0  0  0  0  0  0  0  0  0  0  0
   10.0038  -18.9336   26.9325 O   0  0  0  0  0  0  0  0  0  0  0  0
  1  2  1  0
  2  3  1  0
  3 10  1  0
  4  3  2  0
  5  6  1  0
  7  8  1  1
  7  6  1  0
  9  7  1  0
  9 10  1  6
 11  9  1  0
 12 11  2  0
 13 14  1  0
 15 17  1  0
 15 14  1  0
 15 16  1  6
 17 18  1  1
 18 11  1  0
 19 17  1  0
 20 19  1  0
 21 19  2  0
M  END
$$$$
