GII.pdb
     RDKit          3D

 21 20  0  0  1  0  0  0  0  0999 V2000
    6.9416  -16.5799   18.9074 N   0  0  0  0  0  0  0  0  0  0  0  0
    7.9230  -16.8392   19.9375 C   0  0  0  0  0  0  0  0  0  0  0  0
    7.3309  -16.7363   21.2971 C   0  0  0  0  0  0  0  0  0  0  0  0
    6.3821  -15.9377   21.5022 O   0  0  0  0  0  0  0  0  0  0  0  0
    6.5209  -21.0812   24.5979 C   0  0  0  0  0  0  0  0  0  0  0  0
    6.4303  -19.7688   23.8644 C   0  0  0  0  0  0  0  0  0  0  0  0
    7.1839  -18.6498   24.5163 C   0  0  2  0  0  0  0  0  0  0  0  0
    6.8030  -18.4235   25.9401 C   0  0  0  0  0  0  0  0  0  0  0  0
    7.2703  -17.3800   23.7309 C   0  0  2  0  0  0  0  0  0  0  0  0
    7.7829  -17.5021   22.3995 N   0  0  0  0  0  0  0  0  0  0  0  0
    8.1400  -16.4417   24.5041 C   0  0  0  0  0  0  0  0  0  0  0  0
    9.4048  -16.4837   24.3424 O   0  0  0  0  0  0  0  0  0  0  0  0
    5.8505  -11.7390   25.9083 C   0  0  0  0  0  0  0  0  0  0  0  0
    6.9292  -12.6809   25.5458 C   0  0  0  0  0  0  0  0  0  0  0  0
    7.6376  -13.4485   26.5709 C   0  0  2  0  0  0  0  0  0  0  0  0
    8.3651  -12.5108   27.5624 C   0  0  0  0  0  0  0  0  0  0  0  0
    8.5526  -14.5429   26.1367 C   0  0  2  0  0  0  0  0  0  0  0  0
    7.6256  -15.4994   25.4158 N   0  0  0  0  0  0  0  0  0  0  0  0
    9.1792  -15.2692   27.2299 C   0  0  0  0  0  0  0  0  0  0  0  0
   10.4660  -15.1194   27.6765 O   0  0  0  0  0  0  0  0  0  0  0  0
    8.4895  -16.1516   27.8551 O   0  0  0  0  0  0  0  0  0  0  0  0
  1  2  1  0
  2  3  1  0
  3 10  1  0
  4  3  2  0
  5  6  1  0
  7  8  1  1
  7  6  1  0
  9  7  1  0
  9 10  1  6
 11  9  1  0
 12 11  2  0
 13 14  1  0
 15 17  1  0
 15 14  1  0
 15 16  1  6
 17 18  1  1
 18 11  1  0
 19 17  1  0
 20 19  1  0
 21 19  2  0
M  END
$$$$
