GII.pdb
     RDKit          3D

 21 20  0  0  1  0  0  0  0  0999 V2000
   10.6641  -19.0398   20.6280 N   0  0  0  0  0  0  0  0  0  0  0  0
    9.3906  -18.6393   21.1841 C   0  0  0  0  0  0  0  0  0  0  0  0
    9.4654  -17.2939   21.8118 C   0  0  0  0  0  0  0  0  0  0  0  0
   10.4638  -16.9904   22.5127 O   0  0  0  0  0  0  0  0  0  0  0  0
    7.3541  -12.7261   19.4400 C   0  0  0  0  0  0  0  0  0  0  0  0
    8.1889  -13.7322   20.1882 C   0  0  0  0  0  0  0  0  0  0  0  0
    7.7814  -13.9243   21.6171 C   0  0  2  0  0  0  0  0  0  0  0  0
    7.7631  -12.6603   22.4078 C   0  0  0  0  0  0  0  0  0  0  0  0
    8.4524  -15.0494   22.3388 C   0  0  2  0  0  0  0  0  0  0  0  0
    8.4555  -16.3119   21.6632 N   0  0  0  0  0  0  0  0  0  0  0  0
    7.7617  -15.2027   23.6556 C   0  0  0  0  0  0  0  0  0  0  0  0
    6.6008  -15.7303   23.6958 O   0  0  0  0  0  0  0  0  0  0  0  0
   10.2195  -13.2918   28.5300 C   0  0  0  0  0  0  0  0  0  0  0  0
    9.2051  -13.4886   27.4744 C   0  0  0  0  0  0  0  0  0  0  0  0
    8.6409  -14.8121   27.2065 C   0  0  2  0  0  0  0  0  0  0  0  0
    9.7580  -15.8486   26.9430 C   0  0  0  0  0  0  0  0  0  0  0  0
    7.5737  -14.9361   26.1725 C   0  0  2  0  0  0  0  0  0  0  0  0
    8.3367  -14.7878   24.8726 N   0  0  0  0  0  0  0  0  0  0  0  0
    6.5680  -13.8866   26.2205 C   0  0  0  0  0  0  0  0  0  0  0  0
    5.4560  -13.8590   27.0209 O   0  0  0  0  0  0  0  0  0  0  0  0
    6.6996  -12.8747   25.4433 O   0  0  0  0  0  0  0  0  0  0  0  0
  1  2  1  0
  2  3  1  0
  3 10  1  0
  4  3  2  0
  5  6  1  0
  7  8  1  1
  7  6  1  0
  9  7  1  0
  9 10  1  6
 11  9  1  0
 12 11  2  0
 13 14  1  0
 15 17  1  0
 15 14  1  0
 15 16  1  6
 17 18  1  6
 18 11  1  0
 19 17  1  0
 20 19  1  0
 21 19  2  0
M  END
$$$$
