GII.pdb
     RDKit          3D

 21 20  0  0  1  0  0  0  0  0999 V2000
    4.4240  -18.1264   22.6423 N   0  0  0  0  0  0  0  0  0  0  0  0
    4.5616  -17.5712   23.9706 C   0  0  0  0  0  0  0  0  0  0  0  0
    5.7676  -16.7092   24.0821 C   0  0  0  0  0  0  0  0  0  0  0  0
    6.6951  -16.8276   23.2421 O   0  0  0  0  0  0  0  0  0  0  0  0
    5.6657  -11.8325   26.9284 C   0  0  0  0  0  0  0  0  0  0  0  0
    6.0301  -12.7991   25.8321 C   0  0  0  0  0  0  0  0  0  0  0  0
    7.0406  -13.8293   26.2351 C   0  0  2  0  0  0  0  0  0  0  0  0
    8.3676  -13.2540   26.5975 C   0  0  0  0  0  0  0  0  0  0  0  0
    7.1509  -15.0186   25.3350 C   0  0  2  0  0  0  0  0  0  0  0  0
    5.9367  -15.7410   25.1019 N   0  0  0  0  0  0  0  0  0  0  0  0
    8.1576  -15.9406   25.9441 C   0  0  0  0  0  0  0  0  0  0  0  0
    7.8620  -16.5723   27.0124 O   0  0  0  0  0  0  0  0  0  0  0  0
   12.1319  -19.6245   23.2199 C   0  0  0  0  0  0  0  0  0  0  0  0
   11.6141  -19.0602   24.4830 C   0  0  0  0  0  0  0  0  0  0  0  0
   10.7242  -17.8983   24.4824 C   0  0  2  0  0  0  0  0  0  0  0  0
   11.3012  -16.7580   23.6114 C   0  0  0  0  0  0  0  0  0  0  0  0
   10.2582  -17.3566   25.7911 C   0  0  2  0  0  0  0  0  0  0  0  0
    9.4353  -16.1502   25.3896 N   0  0  0  0  0  0  0  0  0  0  0  0
   11.3267  -16.8961   26.6638 C   0  0  0  0  0  0  0  0  0  0  0  0
   12.0039  -17.6463   27.5892 O   0  0  0  0  0  0  0  0  0  0  0  0
   11.6913  -15.6685   26.5919 O   0  0  0  0  0  0  0  0  0  0  0  0
  1  2  1  0
  2  3  1  0
  3 10  1  0
  4  3  2  0
  5  6  1  0
  7  8  1  6
  7  6  1  0
  9  7  1  0
  9 10  1  1
 11  9  1  0
 12 11  2  0
 13 14  1  0
 15 17  1  0
 15 14  1  0
 15 16  1  1
 17 18  1  6
 18 11  1  0
 19 17  1  0
 20 19  1  0
 21 19  2  0
M  END
$$$$
