GII.pdb
     RDKit          3D

 21 20  0  0  1  0  0  0  0  0999 V2000
    7.1571  -14.3952   19.8955 N   0  0  0  0  0  0  0  0  0  0  0  0
    6.4471  -14.5195   21.1493 C   0  0  0  0  0  0  0  0  0  0  0  0
    7.3537  -14.3371   22.3131 C   0  0  0  0  0  0  0  0  0  0  0  0
    8.5986  -14.3654   22.1407 O   0  0  0  0  0  0  0  0  0  0  0  0
    5.6444  -11.5196   26.9139 C   0  0  0  0  0  0  0  0  0  0  0  0
    6.4355  -12.0272   25.7368 C   0  0  0  0  0  0  0  0  0  0  0  0
    7.1141  -13.3414   25.9762 C   0  0  2  0  0  0  0  0  0  0  0  0
    8.0156  -13.3401   27.1640 C   0  0  0  0  0  0  0  0  0  0  0  0
    7.7382  -13.9789   24.7759 C   0  0  2  0  0  0  0  0  0  0  0  0
    6.8872  -14.1287   23.6341 N   0  0  0  0  0  0  0  0  0  0  0  0
    8.2300  -15.3260   25.1977 C   0  0  0  0  0  0  0  0  0  0  0  0
    7.3882  -16.2166   25.5529 O   0  0  0  0  0  0  0  0  0  0  0  0
   11.8820  -17.3991   22.1142 C   0  0  0  0  0  0  0  0  0  0  0  0
   10.8217  -17.2423   23.1307 C   0  0  0  0  0  0  0  0  0  0  0  0
   11.1267  -17.3276   24.5595 C   0  0  2  0  0  0  0  0  0  0  0  0
   11.8513  -18.6522   24.8941 C   0  0  0  0  0  0  0  0  0  0  0  0
   10.0287  -17.0837   25.5385 C   0  0  2  0  0  0  0  0  0  0  0  0
    9.5964  -15.6668   25.2231 N   0  0  0  0  0  0  0  0  0  0  0  0
   10.4479  -17.1217   26.9307 C   0  0  0  0  0  0  0  0  0  0  0  0
   11.0194  -16.0967   27.6383 O   0  0  0  0  0  0  0  0  0  0  0  0
   10.2888  -18.2105   27.5898 O   0  0  0  0  0  0  0  0  0  0  0  0
  1  2  1  0
  2  3  1  0
  3 10  1  0
  4  3  2  0
  5  6  1  0
  7  8  1  1
  7  6  1  0
  9  7  1  0
  9 10  1  6
 11  9  1  0
 12 11  2  0
 13 14  1  0
 15 17  1  0
 15 14  1  0
 15 16  1  6
 17 18  1  6
 18 11  1  0
 19 17  1  0
 20 19  1  0
 21 19  2  0
M  END
$$$$
