GII.pdb
     RDKit          3D

 21 20  0  0  1  0  0  0  0  0999 V2000
    4.8855  -19.1685   23.1766 N   0  0  0  0  0  0  0  0  0  0  0  0
    5.0423  -17.7989   23.6138 C   0  0  0  0  0  0  0  0  0  0  0  0
    6.3815  -17.2601   23.2586 C   0  0  0  0  0  0  0  0  0  0  0  0
    7.3574  -18.0448   23.1491 O   0  0  0  0  0  0  0  0  0  0  0  0
    7.0163  -13.0274   19.7959 C   0  0  0  0  0  0  0  0  0  0  0  0
    7.1135  -14.2912   20.6097 C   0  0  0  0  0  0  0  0  0  0  0  0
    7.9612  -14.1643   21.8386 C   0  0  2  0  0  0  0  0  0  0  0  0
    9.3479  -13.6915   21.5610 C   0  0  0  0  0  0  0  0  0  0  0  0
    7.9228  -15.3276   22.7778 C   0  0  2  0  0  0  0  0  0  0  0  0
    6.6280  -15.8840   23.0311 N   0  0  0  0  0  0  0  0  0  0  0  0
    8.5186  -14.8705   24.0703 C   0  0  0  0  0  0  0  0  0  0  0  0
    8.3305  -13.6690   24.4560 O   0  0  0  0  0  0  0  0  0  0  0  0
    7.8895  -13.1475   28.0653 C   0  0  0  0  0  0  0  0  0  0  0  0
    8.6460  -13.6246   26.8896 C   0  0  0  0  0  0  0  0  0  0  0  0
    9.6111  -14.7186   27.0056 C   0  0  2  0  0  0  0  0  0  0  0  0
   10.5878  -14.4746   28.1796 C   0  0  0  0  0  0  0  0  0  0  0  0
   10.3670  -15.1343   25.7893 C   0  0  2  0  0  0  0  0  0  0  0  0
    9.2888  -15.7122   24.8963 N   0  0  0  0  0  0  0  0  0  0  0  0
   11.3552  -16.1752   26.0246 C   0  0  0  0  0  0  0  0  0  0  0  0
   12.7008  -15.9947   26.2110 O   0  0  0  0  0  0  0  0  0  0  0  0
   10.9638  -17.3962   26.0592 O   0  0  0  0  0  0  0  0  0  0  0  0
  1  2  1  0
  2  3  1  0
  3 10  1  0
  4  3  2  0
  5  6  1  0
  7  8  1  6
  7  6  1  0
  9  7  1  0
  9 10  1  1
 11  9  1  0
 12 11  2  0
 13 14  1  0
 15 17  1  0
 15 14  1  0
 15 16  1  1
 17 18  1  6
 18 11  1  0
 19 17  1  0
 20 19  1  0
 21 19  2  0
M  END
$$$$
