GII.pdb
     RDKit          3D

 21 20  0  0  1  0  0  0  0  0999 V2000
    5.6611  -19.4459   24.0818 N   0  0  0  0  0  0  0  0  0  0  0  0
    5.8492  -18.4951   25.1551 C   0  0  0  0  0  0  0  0  0  0  0  0
    6.6879  -17.3447   24.7275 C   0  0  0  0  0  0  0  0  0  0  0  0
    7.3608  -17.4265   23.6689 O   0  0  0  0  0  0  0  0  0  0  0  0
    5.4537  -12.3590   26.8006 C   0  0  0  0  0  0  0  0  0  0  0  0
    5.8468  -13.3273   25.7158 C   0  0  0  0  0  0  0  0  0  0  0  0
    7.2912  -13.7246   25.7438 C   0  0  2  0  0  0  0  0  0  0  0  0
    8.2189  -12.6317   25.3335 C   0  0  0  0  0  0  0  0  0  0  0  0
    7.6178  -15.0342   25.0996 C   0  0  2  0  0  0  0  0  0  0  0  0
    6.7755  -16.1350   25.4590 N   0  0  0  0  0  0  0  0  0  0  0  0
    9.0306  -15.3630   25.4607 C   0  0  0  0  0  0  0  0  0  0  0  0
    9.9853  -14.8002   24.8285 O   0  0  0  0  0  0  0  0  0  0  0  0
   10.2250  -14.0621   30.0154 C   0  0  0  0  0  0  0  0  0  0  0  0
   10.0444  -15.1230   29.0035 C   0  0  0  0  0  0  0  0  0  0  0  0
   10.9629  -15.2509   27.8713 C   0  0  2  0  0  0  0  0  0  0  0  0
   11.0329  -13.9349   27.0621 C   0  0  0  0  0  0  0  0  0  0  0  0
   10.7996  -16.4108   26.9485 C   0  0  2  0  0  0  0  0  0  0  0  0
    9.3659  -16.2764   26.4789 N   0  0  0  0  0  0  0  0  0  0  0  0
   10.9386  -17.7096   27.5881 C   0  0  0  0  0  0  0  0  0  0  0  0
   12.1032  -18.2794   28.0319 O   0  0  0  0  0  0  0  0  0  0  0  0
    9.8871  -18.4231   27.7627 O   0  0  0  0  0  0  0  0  0  0  0  0
  1  2  1  0
  2  3  1  0
  3 10  1  0
  4  3  2  0
  5  6  1  0
  7  8  1  6
  7  6  1  0
  9  7  1  0
  9 10  1  1
 11  9  1  0
 12 11  2  0
 13 14  1  0
 15 17  1  0
 15 14  1  0
 15 16  1  6
 17 18  1  1
 18 11  1  0
 19 17  1  0
 20 19  1  0
 21 19  2  0
M  END
$$$$
