DQG.pdb
     RDKit          3D

 22 21  0  0  1  0  0  0  0  0999 V2000
   16.5249  -10.4354  -16.1141 N   0  0  0  0  0  0  0  0  0  0  0  0
   16.6231   -9.0403  -16.3842 C   0  0  1  0  0  0  0  0  0  0  0  0
   15.4325   -8.3130  -15.7681 C   0  0  0  0  0  0  0  0  0  0  0  0
   14.2051   -8.7487  -16.4604 C   0  0  0  0  0  0  0  0  0  0  0  0
   14.1801   -8.8899  -17.7034 O   0  0  0  0  0  0  0  0  0  0  0  0
   17.8483   -8.4963  -15.7018 C   0  0  0  0  0  0  0  0  0  0  0  0
   18.0530   -8.8444  -14.5171 O   0  0  0  0  0  0  0  0  0  0  0  0
   13.0682   -9.0006  -15.7214 O   0  0  0  0  0  0  0  0  0  0  0  0
   23.4578   -8.3939  -17.5687 N   0  0  0  0  0  0  0  0  0  0  0  0
   23.5746   -7.5513  -16.4557 C   0  0  0  0  0  0  0  0  0  0  0  0
   24.6710   -7.2100  -16.0018 O   0  0  0  0  0  0  0  0  0  0  0  0
   22.3357   -7.0252  -15.7698 C   0  0  0  0  0  0  0  0  0  0  0  0
   21.1172   -7.5649  -16.4697 C   0  0  0  0  0  0  0  0  0  0  0  0
   19.8596   -7.0380  -15.8387 C   0  0  2  0  0  0  0  0  0  0  0  0
   18.6814   -7.6303  -16.4451 N   0  0  0  0  0  0  0  0  0  0  0  0
   19.7940   -5.5843  -15.7813 C   0  0  0  0  0  0  0  0  0  0  0  0
   19.5812   -4.9028  -16.8107 O   0  0  0  0  0  0  0  0  0  0  0  0
   19.9724   -4.8703  -14.5317 N   0  0  0  0  0  0  0  0  0  0  0  0
   19.7443   -3.4427  -14.5219 C   0  0  0  0  0  0  0  0  0  0  0  0
   20.8445   -2.7078  -15.1751 C   0  0  0  0  0  0  0  0  0  0  0  0
   20.8552   -1.3233  -15.2406 O   0  0  0  0  0  0  0  0  0  0  0  0
   21.8154   -3.3174  -15.6974 O   0  0  0  0  0  0  0  0  0  0  0  0
  2  1  1  1
  3  2  1  0
  4  3  1  0
  4  8  1  0
  5  4  2  0
  6 15  1  0
  6  2  1  0
  7  6  2  0
  9 10  1  0
 10 12  1  0
 11 10  2  0
 12 13  1  0
 14 13  1  6
 14 16  1  0
 14 15  1  0
 16 18  1  0
 17 16  2  0
 18 19  1  0
 20 19  1  0
 20 21  1  0
 22 20  2  0
M  END
$$$$
