DQG.pdb
     RDKit          3D

 22 21  0  0  1  0  0  0  0  0999 V2000
   20.8227  -11.4237  -19.0789 N   0  0  0  0  0  0  0  0  0  0  0  0
   21.5787  -11.0564  -17.9290 C   0  0  1  0  0  0  0  0  0  0  0  0
   23.0120  -10.7338  -18.3383 C   0  0  0  0  0  0  0  0  0  0  0  0
   23.6486  -11.9679  -18.8358 C   0  0  0  0  0  0  0  0  0  0  0  0
   24.2448  -11.9890  -19.9357 O   0  0  0  0  0  0  0  0  0  0  0  0
   21.0087   -9.7881  -17.3551 C   0  0  0  0  0  0  0  0  0  0  0  0
   20.6997   -8.8782  -18.1572 O   0  0  0  0  0  0  0  0  0  0  0  0
   23.5803  -13.1154  -18.0738 O   0  0  0  0  0  0  0  0  0  0  0  0
   16.7174   -9.6902  -13.2078 N   0  0  0  0  0  0  0  0  0  0  0  0
   16.6396   -9.7509  -14.6052 C   0  0  0  0  0  0  0  0  0  0  0  0
   15.6064  -10.0865  -15.1921 O   0  0  0  0  0  0  0  0  0  0  0  0
   17.8426   -9.3968  -15.4475 C   0  0  0  0  0  0  0  0  0  0  0  0
   18.9917   -9.0417  -14.5423 C   0  0  0  0  0  0  0  0  0  0  0  0
   20.1810   -8.5865  -15.3397 C   0  0  2  0  0  0  0  0  0  0  0  0
   20.8631   -9.7121  -15.9518 N   0  0  0  0  0  0  0  0  0  0  0  0
   21.0838   -7.7125  -14.6037 C   0  0  0  0  0  0  0  0  0  0  0  0
   22.0138   -8.1788  -13.9058 O   0  0  0  0  0  0  0  0  0  0  0  0
   20.9412   -6.2701  -14.6501 N   0  0  0  0  0  0  0  0  0  0  0  0
   21.9031   -5.4648  -13.9314 C   0  0  0  0  0  0  0  0  0  0  0  0
   21.6643   -4.0219  -14.1268 C   0  0  0  0  0  0  0  0  0  0  0  0
   22.4035   -3.0649  -13.4494 O   0  0  0  0  0  0  0  0  0  0  0  0
   20.7763   -3.6100  -14.9198 O   0  0  0  0  0  0  0  0  0  0  0  0
  2  1  1  6
  3  2  1  0
  4  3  1  0
  4  8  1  0
  5  4  2  0
  6 15  1  0
  6  2  1  0
  7  6  2  0
  9 10  1  0
 10 12  1  0
 11 10  2  0
 12 13  1  0
 14 13  1  1
 14 16  1  0
 14 15  1  0
 16 18  1  0
 17 16  2  0
 18 19  1  0
 20 19  1  0
 20 21  1  0
 22 20  2  0
M  END
$$$$
