DQG.pdb
     RDKit          3D

 22 21  0  0  1  0  0  0  0  0999 V2000
   29.1177  -22.2417  -16.8287 N   0  0  0  0  0  0  0  0  0  0  0  0
   28.2033  -21.1524  -16.9075 C   0  0  1  0  0  0  0  0  0  0  0  0
   27.5634  -21.1181  -18.2915 C   0  0  0  0  0  0  0  0  0  0  0  0
   27.2358  -19.7189  -18.6241 C   0  0  0  0  0  0  0  0  0  0  0  0
   27.8706  -18.7684  -18.1150 O   0  0  0  0  0  0  0  0  0  0  0  0
   27.0830  -21.3843  -15.9308 C   0  0  0  0  0  0  0  0  0  0  0  0
   26.6457  -22.5518  -15.8189 O   0  0  0  0  0  0  0  0  0  0  0  0
   26.2105  -19.4592  -19.5091 O   0  0  0  0  0  0  0  0  0  0  0  0
   24.5388  -21.6479  -11.6046 N   0  0  0  0  0  0  0  0  0  0  0  0
   25.9111  -21.5738  -11.3332 C   0  0  0  0  0  0  0  0  0  0  0  0
   26.4574  -22.3056  -10.5021 O   0  0  0  0  0  0  0  0  0  0  0  0
   26.7765  -20.5775  -12.0684 C   0  0  0  0  0  0  0  0  0  0  0  0
   25.9042  -19.7153  -12.9411 C   0  0  0  0  0  0  0  0  0  0  0  0
   25.5541  -20.4262  -14.2175 C   0  0  2  0  0  0  0  0  0  0  0  0
   26.6022  -20.2687  -15.2092 N   0  0  0  0  0  0  0  0  0  0  0  0
   24.2341  -20.0927  -14.7343 C   0  0  0  0  0  0  0  0  0  0  0  0
   24.0154  -18.9952  -15.2975 O   0  0  0  0  0  0  0  0  0  0  0  0
   23.1228  -21.0170  -14.6169 N   0  0  0  0  0  0  0  0  0  0  0  0
   21.8568  -20.6419  -15.2058 C   0  0  0  0  0  0  0  0  0  0  0  0
   20.9174  -20.1167  -14.1965 C   0  0  0  0  0  0  0  0  0  0  0  0
   19.6302  -19.7291  -14.5341 O   0  0  0  0  0  0  0  0  0  0  0  0
   21.2559  -20.0026  -12.9883 O   0  0  0  0  0  0  0  0  0  0  0  0
  2  1  1  6
  3  2  1  0
  4  3  1  0
  4  8  1  0
  5  4  2  0
  6 15  1  0
  6  2  1  0
  7  6  2  0
  9 10  1  0
 10 12  1  0
 11 10  2  0
 12 13  1  0
 14 13  1  1
 14 16  1  0
 14 15  1  0
 16 18  1  0
 17 16  2  0
 18 19  1  0
 20 19  1  0
 20 21  1  0
 22 20  2  0
M  END
$$$$
