DQG.pdb
     RDKit          3D

 22 21  0  0  1  0  0  0  0  0999 V2000
   16.5547  -11.7034  -14.7982 N   0  0  0  0  0  0  0  0  0  0  0  0
   16.6099  -10.3238  -15.1481 C   0  0  1  0  0  0  0  0  0  0  0  0
   15.6587   -9.5299  -14.2586 C   0  0  0  0  0  0  0  0  0  0  0  0
   14.2759   -9.7805  -14.7066 C   0  0  0  0  0  0  0  0  0  0  0  0
   14.0263  -10.0804  -15.8955 O   0  0  0  0  0  0  0  0  0  0  0  0
   17.9909   -9.8021  -14.8596 C   0  0  0  0  0  0  0  0  0  0  0  0
   18.4336   -9.9489  -13.6981 O   0  0  0  0  0  0  0  0  0  0  0  0
   13.2443   -9.6786  -13.7970 O   0  0  0  0  0  0  0  0  0  0  0  0
   22.5710   -9.5890  -18.9121 N   0  0  0  0  0  0  0  0  0  0  0  0
   22.2813  -10.6173  -18.0062 C   0  0  0  0  0  0  0  0  0  0  0  0
   22.7189  -11.7629  -18.1500 O   0  0  0  0  0  0  0  0  0  0  0  0
   21.4098  -10.3443  -16.8028 C   0  0  0  0  0  0  0  0  0  0  0  0
   20.9244   -8.9204  -16.8578 C   0  0  0  0  0  0  0  0  0  0  0  0
   20.0118   -8.6205  -15.7025 C   0  0  2  0  0  0  0  0  0  0  0  0
   18.6911   -9.1822  -15.9188 N   0  0  0  0  0  0  0  0  0  0  0  0
   19.9722   -7.2122  -15.3337 C   0  0  0  0  0  0  0  0  0  0  0  0
   19.1751   -6.4186  -15.8853 O   0  0  0  0  0  0  0  0  0  0  0  0
   20.8531   -6.6747  -14.3149 N   0  0  0  0  0  0  0  0  0  0  0  0
   20.7081   -5.2830  -13.9510 C   0  0  0  0  0  0  0  0  0  0  0  0
   21.6071   -4.9103  -12.8419 C   0  0  0  0  0  0  0  0  0  0  0  0
   22.4069   -5.8484  -12.2084 O   0  0  0  0  0  0  0  0  0  0  0  0
   21.6778   -3.7211  -12.4321 O   0  0  0  0  0  0  0  0  0  0  0  0
  2  1  1  1
  3  2  1  0
  4  3  1  0
  4  8  1  0
  5  4  2  0
  6 15  1  0
  6  2  1  0
  7  6  2  0
  9 10  1  0
 10 12  1  0
 11 10  2  0
 12 13  1  0
 14 13  1  6
 14 16  1  0
 14 15  1  0
 16 18  1  0
 17 16  2  0
 18 19  1  0
 20 19  1  0
 20 21  1  0
 22 20  2  0
M  END
$$$$
