DQG.pdb
     RDKit          3D

 22 21  0  0  1  0  0  0  0  0999 V2000
   18.4766  -11.9099  -15.6216 N   0  0  0  0  0  0  0  0  0  0  0  0
   18.3562  -10.5853  -16.1314 C   0  0  1  0  0  0  0  0  0  0  0  0
   17.1354   -9.9079  -15.5174 C   0  0  0  0  0  0  0  0  0  0  0  0
   15.9269  -10.6359  -15.9477 C   0  0  0  0  0  0  0  0  0  0  0  0
   15.1603  -11.1656  -15.1126 O   0  0  0  0  0  0  0  0  0  0  0  0
   19.5496   -9.7826  -15.6909 C   0  0  0  0  0  0  0  0  0  0  0  0
   19.8261   -9.7798  -14.4701 O   0  0  0  0  0  0  0  0  0  0  0  0
   15.6430  -10.7338  -17.2937 O   0  0  0  0  0  0  0  0  0  0  0  0
   21.5782  -11.8854  -17.9961 N   0  0  0  0  0  0  0  0  0  0  0  0
   22.3937  -10.8106  -18.3734 C   0  0  0  0  0  0  0  0  0  0  0  0
   22.5753  -10.5068  -19.5563 O   0  0  0  0  0  0  0  0  0  0  0  0
   23.0840   -9.9765  -17.3199 C   0  0  0  0  0  0  0  0  0  0  0  0
   22.5522   -8.5694  -17.3779 C   0  0  0  0  0  0  0  0  0  0  0  0
   21.4820   -8.3581  -16.3448 C   0  0  2  0  0  0  0  0  0  0  0  0
   20.2742   -9.0877  -16.6851 N   0  0  0  0  0  0  0  0  0  0  0  0
   21.2272   -6.9573  -16.0389 C   0  0  0  0  0  0  0  0  0  0  0  0
   20.6121   -6.2186  -16.8421 O   0  0  0  0  0  0  0  0  0  0  0  0
   21.6756   -6.3640  -14.7939 N   0  0  0  0  0  0  0  0  0  0  0  0
   21.3896   -4.9660  -14.5611 C   0  0  0  0  0  0  0  0  0  0  0  0
   21.9191   -4.5075  -13.2624 C   0  0  0  0  0  0  0  0  0  0  0  0
   22.4443   -5.3961  -12.3374 O   0  0  0  0  0  0  0  0  0  0  0  0
   21.9113   -3.2871  -12.9499 O   0  0  0  0  0  0  0  0  0  0  0  0
  2  1  1  1
  3  2  1  0
  4  3  1  0
  4  8  1  0
  5  4  2  0
  6 15  1  0
  6  2  1  0
  7  6  2  0
  9 10  1  0
 10 12  1  0
 11 10  2  0
 12 13  1  0
 14 13  1  6
 14 16  1  0
 14 15  1  0
 16 18  1  0
 17 16  2  0
 18 19  1  0
 20 19  1  0
 20 21  1  0
 22 20  2  0
M  END
$$$$
