DQG.pdb
     RDKit          3D

 22 21  0  0  1  0  0  0  0  0999 V2000
   19.1424  -13.2832  -16.0908 N   0  0  0  0  0  0  0  0  0  0  0  0
   19.3004  -11.9980  -16.6841 C   0  0  1  0  0  0  0  0  0  0  0  0
   17.9968  -11.2149  -16.5680 C   0  0  0  0  0  0  0  0  0  0  0  0
   16.9552  -11.9176  -17.3405 C   0  0  0  0  0  0  0  0  0  0  0  0
   17.1838  -12.3434  -18.4947 O   0  0  0  0  0  0  0  0  0  0  0  0
   20.3279  -11.2238  -15.9045 C   0  0  0  0  0  0  0  0  0  0  0  0
   20.1511  -11.1076  -14.6709 O   0  0  0  0  0  0  0  0  0  0  0  0
   15.7097  -12.1034  -16.7783 O   0  0  0  0  0  0  0  0  0  0  0  0
   26.3009  -11.5100  -17.0481 N   0  0  0  0  0  0  0  0  0  0  0  0
   26.2659  -10.6506  -15.9424 C   0  0  0  0  0  0  0  0  0  0  0  0
   27.2843  -10.3452  -15.3145 O   0  0  0  0  0  0  0  0  0  0  0  0
   24.9535  -10.0606  -15.4821 C   0  0  0  0  0  0  0  0  0  0  0  0
   23.8369  -10.6305  -16.3154 C   0  0  0  0  0  0  0  0  0  0  0  0
   22.5151  -10.0376  -15.9174 C   0  0  2  0  0  0  0  0  0  0  0  0
   21.4197  -10.6814  -16.6190 N   0  0  0  0  0  0  0  0  0  0  0  0
   22.4689   -8.5851  -16.0117 C   0  0  0  0  0  0  0  0  0  0  0  0
   22.5460   -8.0033  -17.1184 O   0  0  0  0  0  0  0  0  0  0  0  0
   22.3322   -7.7568  -14.8291 N   0  0  0  0  0  0  0  0  0  0  0  0
   22.2297   -6.3255  -15.0054 C   0  0  0  0  0  0  0  0  0  0  0  0
   22.0125   -5.6298  -13.7224 C   0  0  0  0  0  0  0  0  0  0  0  0
   23.0072   -4.8653  -13.1330 O   0  0  0  0  0  0  0  0  0  0  0  0
   20.9104   -5.7081  -13.1172 O   0  0  0  0  0  0  0  0  0  0  0  0
  2  1  1  1
  3  2  1  0
  4  3  1  0
  4  8  1  0
  5  4  2  0
  6 15  1  0
  6  2  1  0
  7  6  2  0
  9 10  1  0
 10 12  1  0
 11 10  2  0
 12 13  1  0
 14 13  1  6
 14 16  1  0
 14 15  1  0
 16 18  1  0
 17 16  2  0
 18 19  1  0
 20 19  1  0
 20 21  1  0
 22 20  2  0
M  END
$$$$
