DQG.pdb
     RDKit          3D

 22 21  0  0  1  0  0  0  0  0999 V2000
   24.2719  -11.0571  -18.5847 N   0  0  0  0  0  0  0  0  0  0  0  0
   23.7271  -10.2314  -19.6096 C   0  0  1  0  0  0  0  0  0  0  0  0
   22.8612  -11.0731  -20.5412 C   0  0  0  0  0  0  0  0  0  0  0  0
   23.7058  -11.5795  -21.6393 C   0  0  0  0  0  0  0  0  0  0  0  0
   24.9310  -11.3286  -21.6803 O   0  0  0  0  0  0  0  0  0  0  0  0
   22.8096   -9.2174  -18.9830 C   0  0  0  0  0  0  0  0  0  0  0  0
   22.3052   -8.3520  -19.7336 O   0  0  0  0  0  0  0  0  0  0  0  0
   23.1305  -12.3392  -22.6362 O   0  0  0  0  0  0  0  0  0  0  0  0
   18.4786  -10.2063  -15.0863 N   0  0  0  0  0  0  0  0  0  0  0  0
   19.2978  -11.0106  -15.8891 C   0  0  0  0  0  0  0  0  0  0  0  0
   19.0795  -12.2150  -16.0523 O   0  0  0  0  0  0  0  0  0  0  0  0
   20.4927  -10.4115  -16.5929 C   0  0  0  0  0  0  0  0  0  0  0  0
   20.5555   -8.9381  -16.2914 C   0  0  0  0  0  0  0  0  0  0  0  0
   21.7782   -8.3173  -16.9053 C   0  0  2  0  0  0  0  0  0  0  0  0
   22.5822   -9.3119  -17.5917 N   0  0  0  0  0  0  0  0  0  0  0  0
   22.5551   -7.5059  -15.9785 C   0  0  0  0  0  0  0  0  0  0  0  0
   23.7507   -7.7782  -15.7219 O   0  0  0  0  0  0  0  0  0  0  0  0
   21.9752   -6.3528  -15.3173 N   0  0  0  0  0  0  0  0  0  0  0  0
   22.8118   -5.5866  -14.4210 C   0  0  0  0  0  0  0  0  0  0  0  0
   22.1123   -4.3949  -13.9035 C   0  0  0  0  0  0  0  0  0  0  0  0
   21.9985   -4.1528  -12.5435 O   0  0  0  0  0  0  0  0  0  0  0  0
   21.5929   -3.5539  -14.6845 O   0  0  0  0  0  0  0  0  0  0  0  0
  2  1  1  1
  3  2  1  0
  4  3  1  0
  4  8  1  0
  5  4  2  0
  6 15  1  0
  6  2  1  0
  7  6  2  0
  9 10  1  0
 10 12  1  0
 11 10  2  0
 12 13  1  0
 14 13  1  1
 14 16  1  0
 14 15  1  0
 16 18  1  0
 17 16  2  0
 18 19  1  0
 20 19  1  0
 20 21  1  0
 22 20  2  0
M  END
$$$$
