DQG.pdb
     RDKit          3D

 22 21  0  0  1  0  0  0  0  0999 V2000
   18.9391  -12.5334  -17.7843 N   0  0  0  0  0  0  0  0  0  0  0  0
   19.5380  -12.2880  -16.5155 C   0  0  1  0  0  0  0  0  0  0  0  0
   20.8642  -13.0352  -16.4205 C   0  0  0  0  0  0  0  0  0  0  0  0
   20.5880  -14.4428  -16.0770 C   0  0  0  0  0  0  0  0  0  0  0  0
   19.7044  -15.0931  -16.6787 O   0  0  0  0  0  0  0  0  0  0  0  0
   19.8700  -10.8249  -16.4075 C   0  0  0  0  0  0  0  0  0  0  0  0
   20.8860  -10.4161  -17.0136 O   0  0  0  0  0  0  0  0  0  0  0  0
   21.3162  -15.0467  -15.0735 O   0  0  0  0  0  0  0  0  0  0  0  0
   14.9565   -8.0010  -15.5782 N   0  0  0  0  0  0  0  0  0  0  0  0
   15.6883   -8.8406  -16.4278 C   0  0  0  0  0  0  0  0  0  0  0  0
   15.2498   -9.9280  -16.8149 O   0  0  0  0  0  0  0  0  0  0  0  0
   17.0608   -8.4267  -16.9046 C   0  0  0  0  0  0  0  0  0  0  0  0
   17.8434   -7.8799  -15.7408 C   0  0  0  0  0  0  0  0  0  0  0  0
   19.1710   -8.5721  -15.6154 C   0  0  2  0  0  0  0  0  0  0  0  0
   19.0128  -10.0149  -15.6293 N   0  0  0  0  0  0  0  0  0  0  0  0
   19.9758   -8.1038  -14.4957 C   0  0  0  0  0  0  0  0  0  0  0  0
   19.9492   -8.6877  -13.3877 O   0  0  0  0  0  0  0  0  0  0  0  0
   20.8381   -6.9445  -14.6199 N   0  0  0  0  0  0  0  0  0  0  0  0
   21.6061   -6.5371  -13.4647 C   0  0  0  0  0  0  0  0  0  0  0  0
   22.4038   -5.3260  -13.7367 C   0  0  0  0  0  0  0  0  0  0  0  0
   23.0996   -4.6733  -12.7312 O   0  0  0  0  0  0  0  0  0  0  0  0
   22.4794   -4.8427  -14.8977 O   0  0  0  0  0  0  0  0  0  0  0  0
  2  1  1  6
  3  2  1  0
  4  3  1  0
  4  8  1  0
  5  4  2  0
  6 15  1  0
  6  2  1  0
  7  6  2  0
  9 10  1  0
 10 12  1  0
 11 10  2  0
 12 13  1  0
 14 13  1  1
 14 16  1  0
 14 15  1  0
 16 18  1  0
 17 16  2  0
 18 19  1  0
 20 19  1  0
 20 21  1  0
 22 20  2  0
M  END
$$$$
