WHR.pdb
     RDKit          3D

 36 38  0  0  1  0  0  0  0  0999 V2000
   27.1670  -21.4546  -14.9957 N   0  0  0  0  0  0  0  0  0  0  0  0
   26.3297  -21.6481  -13.8400 C   0  0  1  0  0  0  0  0  0  0  0  0
   26.4145  -20.4571  -12.9356 C   0  0  0  0  0  0  0  0  0  0  0  0
   27.4491  -20.5547  -11.8857 C   0  0  0  0  0  0  0  0  0  0  0  0
   28.7703  -20.1136  -12.0112 C   0  0  0  0  0  0  0  0  0  0  0  0
   29.3935  -20.3398  -10.8624 N   0  0  0  0  0  0  0  0  0  0  0  0
   28.5702  -20.9102   -9.9648 C   0  0  0  0  0  0  0  0  0  0  0  0
   28.7127  -21.3444   -8.6590 C   0  0  0  0  0  0  0  0  0  0  0  0
   27.6794  -21.9128   -7.9638 C   0  0  0  0  0  0  0  0  0  0  0  0
   26.4580  -22.0569   -8.5862 C   0  0  0  0  0  0  0  0  0  0  0  0
   26.2982  -21.6230   -9.9044 C   0  0  0  0  0  0  0  0  0  0  0  0
   27.3373  -21.0519  -10.5996 C   0  0  0  0  0  0  0  0  0  0  0  0
   24.8955  -21.7943  -14.2822 C   0  0  0  0  0  0  0  0  0  0  0  0
   24.4527  -21.0721  -15.2122 O   0  0  0  0  0  0  0  0  0  0  0  0
   24.0184  -22.7189  -13.6888 N   0  0  0  0  0  0  0  0  0  0  0  0
   22.6908  -23.0121  -14.1630 C   0  0  1  0  0  0  0  0  0  0  0  0
   22.3611  -24.4713  -14.0349 C   0  0  0  0  0  0  0  0  0  0  0  0
   22.9351  -25.2847  -15.1215 C   0  0  0  0  0  0  0  0  0  0  0  0
   23.5091  -24.8065  -16.2759 C   0  0  0  0  0  0  0  0  0  0  0  0
   23.9071  -25.8696  -17.0022 N   0  0  0  0  0  0  0  0  0  0  0  0
   23.6024  -26.9988  -16.3432 C   0  0  0  0  0  0  0  0  0  0  0  0
   23.0075  -26.6139  -15.1936 N   0  0  0  0  0  0  0  0  0  0  0  0
   21.6558  -22.2805  -13.3401 C   0  0  0  0  0  0  0  0  0  0  0  0
   21.8615  -22.0464  -12.1224 O   0  0  0  0  0  0  0  0  0  0  0  0
   18.0514  -16.8939  -18.3872 N   0  0  0  0  0  0  0  0  0  0  0  0
   19.3743  -16.9260  -17.9002 C   0  0  0  0  0  0  0  0  0  0  0  0
   20.2713  -16.1977  -18.4769 N   0  0  0  0  0  0  0  0  0  0  0  0
   19.7780  -17.7239  -16.7962 N   0  0  0  0  0  0  0  0  0  0  0  0
   18.9085  -18.5495  -16.0226 C   0  0  0  0  0  0  0  0  0  0  0  0
   19.6121  -19.2269  -14.8822 C   0  0  0  0  0  0  0  0  0  0  0  0
   18.7493  -20.2319  -14.2311 C   0  0  0  0  0  0  0  0  0  0  0  0
   19.4600  -21.0530  -13.1380 C   0  0  2  0  0  0  0  0  0  0  0  0
   20.4424  -21.8444  -13.9077 N   0  0  0  0  0  0  0  0  0  0  0  0
   18.4486  -21.9387  -12.5351 C   0  0  0  0  0  0  0  0  0  0  0  0
   17.6340  -21.6453  -11.4726 O   0  0  0  0  0  0  0  0  0  0  0  0
   18.3180  -23.1031  -13.0565 O   0  0  0  0  0  0  0  0  0  0  0  0
  2  3  1  0
  2  1  1  6
  4  3  1  0
  5  4  2  0
  6  5  1  0
  7  6  1  0
  7 12  2  0
  8  9  2  0
  8  7  1  0
  9 10  1  0
 10 11  2  0
 12 11  1  0
 12  4  1  0
 13 14  2  0
 13  2  1  0
 15 13  1  0
 16 15  1  0
 16 17  1  1
 18 22  1  0
 18 17  1  0
 19 18  2  0
 20 19  1  0
 20 21  1  0
 21 22  2  0
 23 24  2  0
 23 16  1  0
 25 26  1  0
 26 27  2  0
 28 29  1  0
 28 26  1  0
 30 29  1  0
 31 30  1  0
 32 31  1  6
 32 33  1  0
 33 23  1  0
 34 32  1  0
 35 34  1  0
 36 34  2  0
M  END
$$$$
