WHR.pdb
     RDKit          3D

 36 38  0  0  1  0  0  0  0  0999 V2000
   28.3327  -21.4387  -17.6934 N   0  0  0  0  0  0  0  0  0  0  0  0
   27.9546  -20.3386  -16.8443 C   0  0  1  0  0  0  0  0  0  0  0  0
   27.0243  -19.4190  -17.5740 C   0  0  0  0  0  0  0  0  0  0  0  0
   27.6366  -18.6986  -18.7091 C   0  0  0  0  0  0  0  0  0  0  0  0
   27.0979  -18.6154  -19.9970 C   0  0  0  0  0  0  0  0  0  0  0  0
   27.9062  -17.8679  -20.7367 N   0  0  0  0  0  0  0  0  0  0  0  0
   28.9634  -17.4399  -20.0238 C   0  0  0  0  0  0  0  0  0  0  0  0
   30.0716  -16.6618  -20.3072 C   0  0  0  0  0  0  0  0  0  0  0  0
   31.0249  -16.3821  -19.3655 C   0  0  0  0  0  0  0  0  0  0  0  0
   30.8749  -16.8929  -18.0941 C   0  0  0  0  0  0  0  0  0  0  0  0
   29.7611  -17.6801  -17.7923 C   0  0  0  0  0  0  0  0  0  0  0  0
   28.8049  -17.9586  -18.7397 C   0  0  0  0  0  0  0  0  0  0  0  0
   27.2284  -20.8694  -15.6341 C   0  0  0  0  0  0  0  0  0  0  0  0
   26.3434  -21.7523  -15.7752 O   0  0  0  0  0  0  0  0  0  0  0  0
   27.5036  -20.4115  -14.3338 N   0  0  0  0  0  0  0  0  0  0  0  0
   26.6723  -20.6567  -13.1839 C   0  0  1  0  0  0  0  0  0  0  0  0
   27.0931  -19.8296  -12.0035 C   0  0  0  0  0  0  0  0  0  0  0  0
   26.3258  -20.1412  -10.7844 C   0  0  0  0  0  0  0  0  0  0  0  0
   25.3247  -21.0772  -10.6737 C   0  0  0  0  0  0  0  0  0  0  0  0
   24.8839  -21.0518   -9.4004 N   0  0  0  0  0  0  0  0  0  0  0  0
   25.5743  -20.1317   -8.7082 C   0  0  0  0  0  0  0  0  0  0  0  0
   26.4519  -19.5874   -9.5784 N   0  0  0  0  0  0  0  0  0  0  0  0
   25.2391  -20.2717  -13.4689 C   0  0  0  0  0  0  0  0  0  0  0  0
   24.9782  -19.2220  -14.1093 O   0  0  0  0  0  0  0  0  0  0  0  0
   21.3313  -26.2047  -16.8647 N   0  0  0  0  0  0  0  0  0  0  0  0
   22.4724  -25.9001  -16.0945 C   0  0  0  0  0  0  0  0  0  0  0  0
   23.3058  -26.8446  -15.8099 N   0  0  0  0  0  0  0  0  0  0  0  0
   22.7591  -24.5954  -15.6105 N   0  0  0  0  0  0  0  0  0  0  0  0
   22.0301  -23.4176  -15.9533 C   0  0  0  0  0  0  0  0  0  0  0  0
   22.6238  -22.1730  -15.3595 C   0  0  0  0  0  0  0  0  0  0  0  0
   22.1961  -21.9809  -13.9599 C   0  0  0  0  0  0  0  0  0  0  0  0
   22.7585  -20.7056  -13.3030 C   0  0  2  0  0  0  0  0  0  0  0  0
   24.1644  -21.0694  -13.0292 N   0  0  0  0  0  0  0  0  0  0  0  0
   22.0252  -20.5093  -12.0403 C   0  0  0  0  0  0  0  0  0  0  0  0
   20.9215  -19.7190  -11.8502 O   0  0  0  0  0  0  0  0  0  0  0  0
   22.4648  -21.1408  -11.0144 O   0  0  0  0  0  0  0  0  0  0  0  0
  2  3  1  0
  2  1  1  6
  4  3  1  0
  5  4  2  0
  6  5  1  0
  7  6  1  0
  7 12  2  0
  8  9  2  0
  8  7  1  0
  9 10  1  0
 10 11  2  0
 12 11  1  0
 12  4  1  0
 13 14  2  0
 13  2  1  0
 15 13  1  0
 16 15  1  0
 16 17  1  1
 18 22  1  0
 18 17  1  0
 19 18  2  0
 20 19  1  0
 20 21  1  0
 21 22  2  0
 23 24  2  0
 23 16  1  0
 25 26  1  0
 26 27  2  0
 28 29  1  0
 28 26  1  0
 30 29  1  0
 31 30  1  0
 32 31  1  1
 32 33  1  0
 33 23  1  0
 34 32  1  0
 35 34  1  0
 36 34  2  0
M  END
$$$$
