WHR.pdb
     RDKit          3D

 36 38  0  0  1  0  0  0  0  0999 V2000
   27.3752  -20.6382  -15.3788 N   0  0  0  0  0  0  0  0  0  0  0  0
   26.2526  -19.8169  -15.0057 C   0  0  1  0  0  0  0  0  0  0  0  0
   25.7338  -19.0776  -16.2006 C   0  0  0  0  0  0  0  0  0  0  0  0
   26.6041  -17.9803  -16.6705 C   0  0  0  0  0  0  0  0  0  0  0  0
   27.4604  -18.0458  -17.7743 C   0  0  0  0  0  0  0  0  0  0  0  0
   28.0569  -16.8684  -17.9064 N   0  0  0  0  0  0  0  0  0  0  0  0
   27.6544  -16.0081  -16.9541 C   0  0  0  0  0  0  0  0  0  0  0  0
   27.9612  -14.6956  -16.6425 C   0  0  0  0  0  0  0  0  0  0  0  0
   27.3916  -14.0473  -15.5798 C   0  0  0  0  0  0  0  0  0  0  0  0
   26.4832  -14.7253  -14.7955 C   0  0  0  0  0  0  0  0  0  0  0  0
   26.1628  -16.0510  -15.0975 C   0  0  0  0  0  0  0  0  0  0  0  0
   26.7357  -16.6991  -16.1657 C   0  0  0  0  0  0  0  0  0  0  0  0
   25.1430  -20.6954  -14.4854 C   0  0  0  0  0  0  0  0  0  0  0  0
   25.0008  -21.8582  -14.9441 O   0  0  0  0  0  0  0  0  0  0  0  0
   24.2464  -20.2624  -13.4931 N   0  0  0  0  0  0  0  0  0  0  0  0
   23.2732  -21.1014  -12.8431 C   0  0  1  0  0  0  0  0  0  0  0  0
   23.1613  -20.7954  -11.3774 C   0  0  0  0  0  0  0  0  0  0  0  0
   24.3730  -21.1614  -10.6227 C   0  0  0  0  0  0  0  0  0  0  0  0
   25.5247  -21.6976  -11.1488 C   0  0  0  0  0  0  0  0  0  0  0  0
   26.3875  -21.8849  -10.1307 N   0  0  0  0  0  0  0  0  0  0  0  0
   25.8166  -21.4846   -8.9835 C   0  0  0  0  0  0  0  0  0  0  0  0
   24.5824  -21.0453   -9.3113 N   0  0  0  0  0  0  0  0  0  0  0  0
   21.8963  -20.8685  -13.4205 C   0  0  0  0  0  0  0  0  0  0  0  0
   21.5394  -19.7142  -13.7674 O   0  0  0  0  0  0  0  0  0  0  0  0
   15.4743  -25.3495  -15.2328 N   0  0  0  0  0  0  0  0  0  0  0  0
   15.5257  -24.8431  -16.5478 C   0  0  0  0  0  0  0  0  0  0  0  0
   14.4339  -24.7707  -17.2337 N   0  0  0  0  0  0  0  0  0  0  0  0
   16.7266  -24.4018  -17.1655 N   0  0  0  0  0  0  0  0  0  0  0  0
   17.9927  -24.3040  -16.5147 C   0  0  0  0  0  0  0  0  0  0  0  0
   18.1120  -23.0782  -15.6560 C   0  0  0  0  0  0  0  0  0  0  0  0
   19.4600  -22.9555  -15.0677 C   0  0  0  0  0  0  0  0  0  0  0  0
   19.6404  -21.7171  -14.1688 C   0  0  2  0  0  0  0  0  0  0  0  0
   20.9816  -21.9272  -13.5849 N   0  0  0  0  0  0  0  0  0  0  0  0
   18.6082  -21.7891  -13.1200 C   0  0  0  0  0  0  0  0  0  0  0  0
   17.3710  -21.1998  -13.1487 O   0  0  0  0  0  0  0  0  0  0  0  0
   18.8970  -22.4712  -12.0731 O   0  0  0  0  0  0  0  0  0  0  0  0
  2  3  1  0
  2  1  1  6
  4  3  1  0
  5  4  2  0
  6  5  1  0
  7  6  1  0
  7 12  2  0
  8  9  2  0
  8  7  1  0
  9 10  1  0
 10 11  2  0
 12 11  1  0
 12  4  1  0
 13 14  2  0
 13  2  1  0
 15 13  1  0
 16 15  1  0
 16 17  1  1
 18 22  1  0
 18 17  1  0
 19 18  2  0
 20 19  1  0
 20 21  1  0
 21 22  2  0
 23 24  2  0
 23 16  1  0
 25 26  1  0
 26 27  2  0
 28 29  1  0
 28 26  1  0
 30 29  1  0
 31 30  1  0
 32 31  1  6
 32 33  1  0
 33 23  1  0
 34 32  1  0
 35 34  1  0
 36 34  2  0
M  END
$$$$
