WHR.pdb
     RDKit          3D

 36 38  0  0  1  0  0  0  0  0999 V2000
   27.0356  -20.1548  -18.1412 N   0  0  0  0  0  0  0  0  0  0  0  0
   26.9260  -19.2570  -17.0204 C   0  0  1  0  0  0  0  0  0  0  0  0
   25.6087  -18.5449  -17.0561 C   0  0  0  0  0  0  0  0  0  0  0  0
   25.4323  -17.6354  -18.2068 C   0  0  0  0  0  0  0  0  0  0  0  0
   24.4301  -17.7454  -19.1760 C   0  0  0  0  0  0  0  0  0  0  0  0
   24.5697  -16.7418  -20.0320 N   0  0  0  0  0  0  0  0  0  0  0  0
   25.6104  -15.9576  -19.6989 C   0  0  0  0  0  0  0  0  0  0  0  0
   26.1776  -14.8187  -20.2421 C   0  0  0  0  0  0  0  0  0  0  0  0
   27.2717  -14.2133  -19.6848 C   0  0  0  0  0  0  0  0  0  0  0  0
   27.8254  -14.7573  -18.5457 C   0  0  0  0  0  0  0  0  0  0  0  0
   27.2639  -15.9069  -17.9851 C   0  0  0  0  0  0  0  0  0  0  0  0
   26.1648  -16.5121  -18.5463 C   0  0  0  0  0  0  0  0  0  0  0  0
   26.9912  -20.0490  -15.7389 C   0  0  0  0  0  0  0  0  0  0  0  0
   26.2687  -21.0692  -15.5986 O   0  0  0  0  0  0  0  0  0  0  0  0
   27.8393  -19.6889  -14.6772 N   0  0  0  0  0  0  0  0  0  0  0  0
   27.8596  -20.3310  -13.3885 C   0  0  1  0  0  0  0  0  0  0  0  0
   29.0290  -19.8839  -12.5596 C   0  0  0  0  0  0  0  0  0  0  0  0
   29.0458  -20.4942  -11.2183 C   0  0  0  0  0  0  0  0  0  0  0  0
   28.1285  -21.3917  -10.7245 C   0  0  0  0  0  0  0  0  0  0  0  0
   28.5016  -21.7037   -9.4676 N   0  0  0  0  0  0  0  0  0  0  0  0
   29.6217  -21.0325   -9.1558 C   0  0  0  0  0  0  0  0  0  0  0  0
   29.9352  -20.2983  -10.2449 N   0  0  0  0  0  0  0  0  0  0  0  0
   26.6267  -19.9705  -12.5926 C   0  0  0  0  0  0  0  0  0  0  0  0
   26.2472  -18.7747  -12.5150 O   0  0  0  0  0  0  0  0  0  0  0  0
   18.9401  -24.0277  -12.6419 N   0  0  0  0  0  0  0  0  0  0  0  0
   18.8544  -22.7111  -12.1444 C   0  0  0  0  0  0  0  0  0  0  0  0
   17.7037  -22.1254  -12.1187 N   0  0  0  0  0  0  0  0  0  0  0  0
   19.9775  -21.9865  -11.6629 N   0  0  0  0  0  0  0  0  0  0  0  0
   21.3169  -22.4777  -11.6352 C   0  0  0  0  0  0  0  0  0  0  0  0
   22.2886  -21.4850  -11.0655 C   0  0  0  0  0  0  0  0  0  0  0  0
   23.6020  -21.5645  -11.7342 C   0  0  0  0  0  0  0  0  0  0  0  0
   24.6633  -20.6159  -11.1442 C   0  0  2  0  0  0  0  0  0  0  0  0
   25.8744  -20.9541  -11.9206 N   0  0  0  0  0  0  0  0  0  0  0  0
   24.8405  -20.9901   -9.7302 C   0  0  0  0  0  0  0  0  0  0  0  0
   24.6499  -22.2323   -9.1831 O   0  0  0  0  0  0  0  0  0  0  0  0
   25.2091  -20.0586   -8.9295 O   0  0  0  0  0  0  0  0  0  0  0  0
  2  3  1  0
  2  1  1  6
  4  3  1  0
  5  4  2  0
  6  5  1  0
  7  6  1  0
  7 12  2  0
  8  9  2  0
  8  7  1  0
  9 10  1  0
 10 11  2  0
 12 11  1  0
 12  4  1  0
 13 14  2  0
 13  2  1  0
 15 13  1  0
 16 15  1  0
 16 17  1  1
 18 22  1  0
 18 17  1  0
 19 18  2  0
 20 19  1  0
 20 21  1  0
 21 22  2  0
 23 24  2  0
 23 16  1  0
 25 26  1  0
 26 27  2  0
 28 29  1  0
 28 26  1  0
 30 29  1  0
 31 30  1  0
 32 31  1  6
 32 33  1  0
 33 23  1  0
 34 32  1  0
 35 34  1  0
 36 34  2  0
M  END
$$$$
