WHR.pdb
     RDKit          3D

 36 38  0  0  1  0  0  0  0  0999 V2000
   27.8564  -19.5826  -11.5795 N   0  0  0  0  0  0  0  0  0  0  0  0
   27.0661  -20.7861  -11.6135 C   0  0  1  0  0  0  0  0  0  0  0  0
   26.7268  -21.2207  -10.2208 C   0  0  0  0  0  0  0  0  0  0  0  0
   27.8133  -21.0357   -9.2370 C   0  0  0  0  0  0  0  0  0  0  0  0
   27.6688  -20.4484   -7.9760 C   0  0  0  0  0  0  0  0  0  0  0  0
   28.8465  -20.4805   -7.3666 N   0  0  0  0  0  0  0  0  0  0  0  0
   29.7821  -21.0557   -8.1430 C   0  0  0  0  0  0  0  0  0  0  0  0
   31.1309  -21.3254   -7.9954 C   0  0  0  0  0  0  0  0  0  0  0  0
   31.8640  -21.9321   -8.9795 C   0  0  0  0  0  0  0  0  0  0  0  0
   31.2370  -22.2849  -10.1552 C   0  0  0  0  0  0  0  0  0  0  0  0
   29.8754  -22.0195  -10.3192 C   0  0  0  0  0  0  0  0  0  0  0  0
   29.1416  -21.4111   -9.3291 C   0  0  0  0  0  0  0  0  0  0  0  0
   25.7745  -20.5142  -12.3427 C   0  0  0  0  0  0  0  0  0  0  0  0
   25.1927  -19.4093  -12.1901 O   0  0  0  0  0  0  0  0  0  0  0  0
   25.1840  -21.4591  -13.1997 N   0  0  0  0  0  0  0  0  0  0  0  0
   24.1362  -21.1693  -14.1440 C   0  0  1  0  0  0  0  0  0  0  0  0
   24.6714  -20.9914  -15.5355 C   0  0  0  0  0  0  0  0  0  0  0  0
   25.5287  -19.8003  -15.6705 C   0  0  0  0  0  0  0  0  0  0  0  0
   25.1089  -18.4913  -15.6378 C   0  0  0  0  0  0  0  0  0  0  0  0
   26.1968  -17.7118  -15.7958 N   0  0  0  0  0  0  0  0  0  0  0  0
   27.2851  -18.4869  -15.9265 C   0  0  0  0  0  0  0  0  0  0  0  0
   26.8495  -19.7627  -15.8464 N   0  0  0  0  0  0  0  0  0  0  0  0
   23.1549  -22.3158  -14.2217 C   0  0  0  0  0  0  0  0  0  0  0  0
   23.5600  -23.4856  -14.4400 O   0  0  0  0  0  0  0  0  0  0  0  0
   19.3552  -23.0798   -8.5107 N   0  0  0  0  0  0  0  0  0  0  0  0
   18.5904  -23.9035   -9.3621 C   0  0  0  0  0  0  0  0  0  0  0  0
   17.4061  -24.2595   -8.9902 N   0  0  0  0  0  0  0  0  0  0  0  0
   19.0566  -24.3668  -10.6216 N   0  0  0  0  0  0  0  0  0  0  0  0
   19.6695  -23.5493  -11.6178 C   0  0  0  0  0  0  0  0  0  0  0  0
   18.7569  -23.2592  -12.7741 C   0  0  0  0  0  0  0  0  0  0  0  0
   19.4588  -22.5364  -13.8527 C   0  0  0  0  0  0  0  0  0  0  0  0
   20.7876  -23.1883  -14.2814 C   0  0  2  0  0  0  0  0  0  0  0  0
   21.7715  -22.1093  -14.0542 N   0  0  0  0  0  0  0  0  0  0  0  0
   20.6789  -23.4877  -15.7199 C   0  0  0  0  0  0  0  0  0  0  0  0
   20.2716  -24.6703  -16.2803 O   0  0  0  0  0  0  0  0  0  0  0  0
   20.9993  -22.5466  -16.5301 O   0  0  0  0  0  0  0  0  0  0  0  0
  2  3  1  0
  2  1  1  1
  4  3  1  0
  5  4  2  0
  6  5  1  0
  7  6  1  0
  7 12  2  0
  8  9  2  0
  8  7  1  0
  9 10  1  0
 10 11  2  0
 12 11  1  0
 12  4  1  0
 13 14  2  0
 13  2  1  0
 15 13  1  0
 16 15  1  0
 16 17  1  6
 18 22  1  0
 18 17  1  0
 19 18  2  0
 20 19  1  0
 20 21  1  0
 21 22  2  0
 23 24  2  0
 23 16  1  0
 25 26  1  0
 26 27  2  0
 28 29  1  0
 28 26  1  0
 30 29  1  0
 31 30  1  0
 32 31  1  6
 32 33  1  0
 33 23  1  0
 34 32  1  0
 35 34  1  0
 36 34  2  0
M  END
$$$$
