AGM.pdb
     RDKit          3D

 18 17  0  0  1  0  0  0  0  0999 V2000
    8.2126  -12.2992   18.9822 C   0  0  0  0  0  0  0  0  0  0  0  0
    8.5898  -13.6577   18.4390 C   0  0  2  0  0  0  0  0  0  0  0  0
    8.0042  -13.8188   17.1446 N   0  0  0  0  0  0  0  0  0  0  0  0
    8.1159  -14.6804   19.4030 C   0  0  0  0  0  0  0  0  0  0  0  0
    7.2040  -15.4629   19.0319 O   0  0  0  0  0  0  0  0  0  0  0  0
    8.6274  -14.8259   20.7079 N   0  0  0  0  0  0  0  0  0  0  0  0
    8.4627  -15.9839   21.5285 C   0  0  0  0  0  0  0  0  0  0  0  0
    9.0760  -15.8013   22.8878 C   0  0  0  0  0  0  0  0  0  0  0  0
   10.3060  -15.6241   23.0007 O   0  0  0  0  0  0  0  0  0  0  0  0
    6.2328  -10.9568   28.0345 C   0  0  0  0  0  0  0  0  0  0  0  0
    6.0546  -12.1587   26.6765 S   0  0  0  0  0  0  0  0  0  0  0  0
    7.5420  -13.2099   26.6192 C   0  0  0  0  0  0  0  0  0  0  0  0
    7.4227  -14.0932   25.4213 C   0  0  0  0  0  0  0  0  0  0  0  0
    8.5466  -15.0652   25.2408 C   0  0  2  0  0  0  0  0  0  0  0  0
    8.2738  -15.8285   24.0348 N   0  0  0  0  0  0  0  0  0  0  0  0
    8.7058  -16.0036   26.3794 C   0  0  0  0  0  0  0  0  0  0  0  0
    9.3151  -15.6462   27.5739 O   0  0  0  0  0  0  0  0  0  0  0  0
    8.2822  -17.1883   26.2984 O   0  0  0  0  0  0  0  0  0  0  0  0
  2  1  1  1
  3  2  1  0
  4  6  1  0
  4  2  1  0
  5  4  2  0
  7  6  1  0
  8  9  2  0
  8  7  1  0
 10 11  1  0
 12 13  1  0
 12 11  1  0
 14 13  1  1
 14 16  1  0
 14 15  1  0
 15  8  1  0
 16 17  1  0
 18 16  2  0
M  END
$$$$
