AGM.pdb
     RDKit          3D

 18 17  0  0  1  0  0  0  0  0999 V2000
   10.5972  -19.9967   20.4441 C   0  0  0  0  0  0  0  0  0  0  0  0
    9.5733  -19.4392   19.4830 C   0  0  2  0  0  0  0  0  0  0  0  0
   10.2509  -18.7279   18.4442 N   0  0  0  0  0  0  0  0  0  0  0  0
    8.6525  -18.5687   20.2540 C   0  0  0  0  0  0  0  0  0  0  0  0
    7.7352  -19.1195   20.9148 O   0  0  0  0  0  0  0  0  0  0  0  0
    8.7460  -17.1632   20.2888 N   0  0  0  0  0  0  0  0  0  0  0  0
    7.8799  -16.3023   21.0306 C   0  0  0  0  0  0  0  0  0  0  0  0
    8.5491  -15.7554   22.2595 C   0  0  0  0  0  0  0  0  0  0  0  0
    9.7785  -15.5418   22.2601 O   0  0  0  0  0  0  0  0  0  0  0  0
    6.2909  -10.4926   27.3458 C   0  0  0  0  0  0  0  0  0  0  0  0
    5.8853  -12.1218   26.6373 S   0  0  0  0  0  0  0  0  0  0  0  0
    7.4318  -12.9611   26.1632 C   0  0  0  0  0  0  0  0  0  0  0  0
    7.1162  -13.8776   25.0275 C   0  0  0  0  0  0  0  0  0  0  0  0
    8.2759  -14.6784   24.5231 C   0  0  2  0  0  0  0  0  0  0  0  0
    7.8000  -15.4823   23.4102 N   0  0  0  0  0  0  0  0  0  0  0  0
    8.8659  -15.5751   25.5478 C   0  0  0  0  0  0  0  0  0  0  0  0
    9.8568  -15.1667   26.4294 O   0  0  0  0  0  0  0  0  0  0  0  0
    8.4773  -16.7696   25.6553 O   0  0  0  0  0  0  0  0  0  0  0  0
  2  1  1  1
  3  2  1  0
  4  6  1  0
  4  2  1  0
  5  4  2  0
  7  6  1  0
  8  9  2  0
  8  7  1  0
 10 11  1  0
 12 13  1  0
 12 11  1  0
 14 13  1  1
 14 16  1  0
 14 15  1  0
 15  8  1  0
 16 17  1  0
 18 16  2  0
M  END
$$$$
