AGM.pdb
     RDKit          3D

 18 17  0  0  1  0  0  0  0  0999 V2000
    7.4046  -12.4865   18.7820 C   0  0  0  0  0  0  0  0  0  0  0  0
    8.3641  -13.6192   19.0634 C   0  0  2  0  0  0  0  0  0  0  0  0
    8.1928  -14.6308   18.0676 N   0  0  0  0  0  0  0  0  0  0  0  0
    8.0859  -14.1218   20.4309 C   0  0  0  0  0  0  0  0  0  0  0  0
    8.3010  -13.3480   21.3987 O   0  0  0  0  0  0  0  0  0  0  0  0
    7.5955  -15.4134   20.7078 N   0  0  0  0  0  0  0  0  0  0  0  0
    7.1886  -15.8767   21.9967 C   0  0  0  0  0  0  0  0  0  0  0  0
    8.2591  -15.6727   23.0309 C   0  0  0  0  0  0  0  0  0  0  0  0
    9.4397  -15.9902   22.7807 O   0  0  0  0  0  0  0  0  0  0  0  0
    6.0566  -11.1064   26.2077 C   0  0  0  0  0  0  0  0  0  0  0  0
    6.6847  -12.2193   27.5068 S   0  0  0  0  0  0  0  0  0  0  0  0
    7.1138  -13.8226   26.7542 C   0  0  0  0  0  0  0  0  0  0  0  0
    8.4418  -13.6665   26.0898 C   0  0  0  0  0  0  0  0  0  0  0  0
    8.9111  -14.8676   25.3299 C   0  0  2  0  0  0  0  0  0  0  0  0
    7.9406  -15.1263   24.2798 N   0  0  0  0  0  0  0  0  0  0  0  0
    9.0477  -16.0831   26.1701 C   0  0  0  0  0  0  0  0  0  0  0  0
   10.1088  -16.2844   27.0415 O   0  0  0  0  0  0  0  0  0  0  0  0
    8.1820  -16.9983   26.1198 O   0  0  0  0  0  0  0  0  0  0  0  0
  2  1  1  6
  3  2  1  0
  4  6  1  0
  4  2  1  0
  5  4  2  0
  7  6  1  0
  8  9  2  0
  8  7  1  0
 10 11  1  0
 12 13  1  0
 12 11  1  0
 14 13  1  1
 14 16  1  0
 14 15  1  0
 15  8  1  0
 16 17  1  0
 18 16  2  0
M  END
$$$$
