AGM.pdb
     RDKit          3D

 18 17  0  0  1  0  0  0  0  0999 V2000
    6.4317  -19.4141   19.1493 C   0  0  0  0  0  0  0  0  0  0  0  0
    7.2797  -19.0099   20.3327 C   0  0  2  0  0  0  0  0  0  0  0  0
    6.6203  -19.4131   21.5355 N   0  0  0  0  0  0  0  0  0  0  0  0
    7.4830  -17.5421   20.2663 C   0  0  0  0  0  0  0  0  0  0  0  0
    8.1620  -17.0834   19.3123 O   0  0  0  0  0  0  0  0  0  0  0  0
    6.9603  -16.6338   21.2083 N   0  0  0  0  0  0  0  0  0  0  0  0
    7.1213  -15.2152   21.1557 C   0  0  0  0  0  0  0  0  0  0  0  0
    8.1568  -14.7306   22.1304 C   0  0  0  0  0  0  0  0  0  0  0  0
    8.9440  -13.8185   21.8054 O   0  0  0  0  0  0  0  0  0  0  0  0
    5.5463  -11.7466   27.3016 C   0  0  0  0  0  0  0  0  0  0  0  0
    7.0647  -11.7696   26.2943 S   0  0  0  0  0  0  0  0  0  0  0  0
    7.4029  -13.4834   25.7750 C   0  0  0  0  0  0  0  0  0  0  0  0
    8.5896  -13.4529   24.8693 C   0  0  0  0  0  0  0  0  0  0  0  0
    9.1081  -14.7976   24.4648 C   0  0  2  0  0  0  0  0  0  0  0  0
    8.2460  -15.2976   23.4073 N   0  0  0  0  0  0  0  0  0  0  0  0
    9.1295  -15.7819   25.5751 C   0  0  0  0  0  0  0  0  0  0  0  0
   10.1198  -15.8038   26.5469 O   0  0  0  0  0  0  0  0  0  0  0  0
    8.2254  -16.6548   25.6761 O   0  0  0  0  0  0  0  0  0  0  0  0
  2  1  1  6
  3  2  1  0
  4  6  1  0
  4  2  1  0
  5  4  2  0
  7  6  1  0
  8  9  2  0
  8  7  1  0
 10 11  1  0
 12 13  1  0
 12 11  1  0
 14 13  1  1
 14 16  1  0
 14 15  1  0
 15  8  1  0
 16 17  1  0
 18 16  2  0
M  END
$$$$
