AGM.pdb
     RDKit          3D

 18 17  0  0  1  0  0  0  0  0999 V2000
    6.3504  -19.5950   19.5675 C   0  0  0  0  0  0  0  0  0  0  0  0
    7.6030  -19.4677   20.4026 C   0  0  2  0  0  0  0  0  0  0  0  0
    7.2851  -19.7653   21.7645 N   0  0  0  0  0  0  0  0  0  0  0  0
    8.1240  -18.0893   20.2339 C   0  0  0  0  0  0  0  0  0  0  0  0
    8.2262  -17.6364   19.0651 O   0  0  0  0  0  0  0  0  0  0  0  0
    8.5101  -17.2594   21.3052 N   0  0  0  0  0  0  0  0  0  0  0  0
    9.0063  -15.9262   21.1717 C   0  0  0  0  0  0  0  0  0  0  0  0
    9.2568  -15.2835   22.5064 C   0  0  0  0  0  0  0  0  0  0  0  0
   10.2938  -14.6154   22.6945 O   0  0  0  0  0  0  0  0  0  0  0  0
    5.8835  -11.1820   26.2097 C   0  0  0  0  0  0  0  0  0  0  0  0
    7.4477  -12.0769   26.4798 S   0  0  0  0  0  0  0  0  0  0  0  0
    7.0829  -13.8474   26.7104 C   0  0  0  0  0  0  0  0  0  0  0  0
    7.1161  -14.4925   25.3642 C   0  0  0  0  0  0  0  0  0  0  0  0
    8.4841  -14.8391   24.8652 C   0  0  2  0  0  0  0  0  0  0  0  0
    8.3309  -15.4293   23.5463 N   0  0  0  0  0  0  0  0  0  0  0  0
    9.2083  -15.7946   25.7397 C   0  0  0  0  0  0  0  0  0  0  0  0
    9.9928  -15.3929   26.8116 O   0  0  0  0  0  0  0  0  0  0  0  0
    9.1339  -17.0361   25.5334 O   0  0  0  0  0  0  0  0  0  0  0  0
  2  1  1  6
  3  2  1  0
  4  6  1  0
  4  2  1  0
  5  4  2  0
  7  6  1  0
  8  9  2  0
  8  7  1  0
 10 11  1  0
 12 13  1  0
 12 11  1  0
 14 13  1  1
 14 16  1  0
 14 15  1  0
 15  8  1  0
 16 17  1  0
 18 16  2  0
M  END
$$$$
