AGM.pdb
     RDKit          3D

 18 17  0  0  1  0  0  0  0  0999 V2000
    8.4975  -12.2791   19.9006 C   0  0  0  0  0  0  0  0  0  0  0  0
    8.0941  -13.6300   19.3575 C   0  0  2  0  0  0  0  0  0  0  0  0
    6.8682  -13.4924   18.6346 N   0  0  0  0  0  0  0  0  0  0  0  0
    7.9703  -14.5627   20.5041 C   0  0  0  0  0  0  0  0  0  0  0  0
    6.9406  -14.4818   21.2216 O   0  0  0  0  0  0  0  0  0  0  0  0
    8.9377  -15.5322   20.8354 N   0  0  0  0  0  0  0  0  0  0  0  0
    8.8125  -16.4879   21.8901 C   0  0  0  0  0  0  0  0  0  0  0  0
    9.2726  -15.9335   23.2084 C   0  0  0  0  0  0  0  0  0  0  0  0
   10.4435  -16.1268   23.5943 O   0  0  0  0  0  0  0  0  0  0  0  0
    5.9704  -11.1519   25.9966 C   0  0  0  0  0  0  0  0  0  0  0  0
    6.2680  -12.2001   27.4572 S   0  0  0  0  0  0  0  0  0  0  0  0
    7.7255  -13.2484   27.1447 C   0  0  0  0  0  0  0  0  0  0  0  0
    7.5899  -13.8080   25.7671 C   0  0  0  0  0  0  0  0  0  0  0  0
    8.7345  -14.6619   25.3184 C   0  0  2  0  0  0  0  0  0  0  0  0
    8.3932  -15.1978   24.0116 N   0  0  0  0  0  0  0  0  0  0  0  0
    9.0291  -15.7879   26.2391 C   0  0  0  0  0  0  0  0  0  0  0  0
    8.4820  -17.0538   26.0843 O   0  0  0  0  0  0  0  0  0  0  0  0
    9.8063  -15.6289   27.2189 O   0  0  0  0  0  0  0  0  0  0  0  0
  2  1  1  1
  3  2  1  0
  4  6  1  0
  4  2  1  0
  5  4  2  0
  7  6  1  0
  8  9  2  0
  8  7  1  0
 10 11  1  0
 12 13  1  0
 12 11  1  0
 14 13  1  1
 14 16  1  0
 14 15  1  0
 15  8  1  0
 16 17  1  0
 18 16  2  0
M  END
$$$$
