AGM.pdb
     RDKit          3D

 18 17  0  0  1  0  0  0  0  0999 V2000
    5.0692  -20.0639   21.0421 C   0  0  0  0  0  0  0  0  0  0  0  0
    5.9594  -19.4227   22.0809 C   0  0  2  0  0  0  0  0  0  0  0  0
    5.1530  -18.6361   22.9614 N   0  0  0  0  0  0  0  0  0  0  0  0
    6.9753  -18.6090   21.3696 C   0  0  0  0  0  0  0  0  0  0  0  0
    7.8564  -19.2138   20.7065 O   0  0  0  0  0  0  0  0  0  0  0  0
    7.0102  -17.2006   21.3935 N   0  0  0  0  0  0  0  0  0  0  0  0
    7.9922  -16.3938   20.7408 C   0  0  0  0  0  0  0  0  0  0  0  0
    8.9042  -15.7144   21.7225 C   0  0  0  0  0  0  0  0  0  0  0  0
    9.9427  -15.1487   21.3240 O   0  0  0  0  0  0  0  0  0  0  0  0
    5.5059  -12.5681   26.8065 C   0  0  0  0  0  0  0  0  0  0  0  0
    7.2061  -12.5091   26.1535 S   0  0  0  0  0  0  0  0  0  0  0  0
    7.5553  -14.0667   25.2743 C   0  0  0  0  0  0  0  0  0  0  0  0
    8.8995  -13.9325   24.6383 C   0  0  0  0  0  0  0  0  0  0  0  0
    9.4839  -15.2112   24.1244 C   0  0  2  0  0  0  0  0  0  0  0  0
    8.5964  -15.7111   23.0882 N   0  0  0  0  0  0  0  0  0  0  0  0
    9.6392  -16.2529   25.1699 C   0  0  0  0  0  0  0  0  0  0  0  0
    8.9376  -17.4501   25.1541 O   0  0  0  0  0  0  0  0  0  0  0  0
   10.4342  -16.0815   26.1332 O   0  0  0  0  0  0  0  0  0  0  0  0
  2  1  1  6
  3  2  1  0
  4  6  1  0
  4  2  1  0
  5  4  2  0
  7  6  1  0
  8  9  2  0
  8  7  1  0
 10 11  1  0
 12 13  1  0
 12 11  1  0
 14 13  1  1
 14 16  1  0
 14 15  1  0
 15  8  1  0
 16 17  1  0
 18 16  2  0
M  END
$$$$
