AGM.pdb
     RDKit          3D

 18 17  0  0  1  0  0  0  0  0999 V2000
    5.1763  -20.1059   21.0098 C   0  0  0  0  0  0  0  0  0  0  0  0
    6.0429  -19.5120   22.0957 C   0  0  2  0  0  0  0  0  0  0  0  0
    5.2012  -18.9624   23.1125 N   0  0  0  0  0  0  0  0  0  0  0  0
    6.9153  -18.4875   21.4718 C   0  0  0  0  0  0  0  0  0  0  0  0
    7.7795  -18.8739   20.6438 O   0  0  0  0  0  0  0  0  0  0  0  0
    6.8321  -17.1092   21.7524 N   0  0  0  0  0  0  0  0  0  0  0  0
    7.6985  -16.1092   21.2134 C   0  0  0  0  0  0  0  0  0  0  0  0
    8.5505  -15.4724   22.2744 C   0  0  0  0  0  0  0  0  0  0  0  0
    9.5813  -14.8452   21.9565 O   0  0  0  0  0  0  0  0  0  0  0  0
    5.6117  -11.0345   26.1844 C   0  0  0  0  0  0  0  0  0  0  0  0
    6.3438  -12.6403   26.6382 S   0  0  0  0  0  0  0  0  0  0  0  0
    7.5096  -13.1480   25.3328 C   0  0  0  0  0  0  0  0  0  0  0  0
    8.0775  -14.4714   25.7267 C   0  0  0  0  0  0  0  0  0  0  0  0
    9.0055  -15.0825   24.7238 C   0  0  2  0  0  0  0  0  0  0  0  0
    8.1949  -15.5779   23.6243 N   0  0  0  0  0  0  0  0  0  0  0  0
    9.8129  -16.2016   25.2698 C   0  0  0  0  0  0  0  0  0  0  0  0
   10.9054  -16.0090   26.1035 O   0  0  0  0  0  0  0  0  0  0  0  0
    9.5267  -17.3966   24.9875 O   0  0  0  0  0  0  0  0  0  0  0  0
  2  1  1  6
  3  2  1  0
  4  6  1  0
  4  2  1  0
  5  4  2  0
  7  6  1  0
  8  9  2  0
  8  7  1  0
 10 11  1  0
 12 13  1  0
 12 11  1  0
 14 13  1  1
 14 16  1  0
 14 15  1  0
 15  8  1  0
 16 17  1  0
 18 16  2  0
M  END
$$$$
