AGM.pdb
     RDKit          3D

 18 17  0  0  1  0  0  0  0  0999 V2000
    5.2845  -22.0083   20.8854 C   0  0  0  0  0  0  0  0  0  0  0  0
    6.4949  -21.1418   21.1437 C   0  0  2  0  0  0  0  0  0  0  0  0
    7.5588  -21.9639   21.6304 N   0  0  0  0  0  0  0  0  0  0  0  0
    6.1038  -20.0923   22.1160 C   0  0  0  0  0  0  0  0  0  0  0  0
    5.2938  -19.2086   21.7358 O   0  0  0  0  0  0  0  0  0  0  0  0
    6.5862  -20.0283   23.4384 N   0  0  0  0  0  0  0  0  0  0  0  0
    6.2076  -19.0438   24.4022 C   0  0  0  0  0  0  0  0  0  0  0  0
    7.0467  -17.8021   24.2965 C   0  0  0  0  0  0  0  0  0  0  0  0
    8.0716  -17.7981   23.5847 O   0  0  0  0  0  0  0  0  0  0  0  0
    6.7823  -10.2495   26.7377 C   0  0  0  0  0  0  0  0  0  0  0  0
    6.0761  -11.9274   26.6568 S   0  0  0  0  0  0  0  0  0  0  0  0
    7.2143  -13.0028   25.7246 C   0  0  0  0  0  0  0  0  0  0  0  0
    6.6013  -14.3631   25.6663 C   0  0  0  0  0  0  0  0  0  0  0  0
    7.3796  -15.3717   24.8805 C   0  0  2  0  0  0  0  0  0  0  0  0
    6.6858  -16.6433   24.9942 N   0  0  0  0  0  0  0  0  0  0  0  0
    8.7761  -15.5406   25.3534 C   0  0  0  0  0  0  0  0  0  0  0  0
    9.8561  -14.8969   24.7661 O   0  0  0  0  0  0  0  0  0  0  0  0
    9.0359  -16.2942   26.3301 O   0  0  0  0  0  0  0  0  0  0  0  0
  2  1  1  1
  3  2  1  0
  4  6  1  0
  4  2  1  0
  5  4  2  0
  7  6  1  0
  8  9  2  0
  8  7  1  0
 10 11  1  0
 12 13  1  0
 12 11  1  0
 14 13  1  1
 14 16  1  0
 14 15  1  0
 15  8  1  0
 16 17  1  0
 18 16  2  0
M  END
$$$$
