WCL.pdb
     RDKit          3D

 29 30  0  0  1  0  0  0  0  0999 V2000
    6.3075  -18.3904   24.4629 N   0  0  0  0  0  0  0  0  0  0  0  0
    7.0996  -17.2054   24.2792 C   0  0  1  0  0  0  0  0  0  0  0  0
    7.4315  -16.5833   25.5848 C   0  0  0  0  0  0  0  0  0  0  0  0
    6.6307  -15.3850   25.9270 C   0  0  0  0  0  0  0  0  0  0  0  0
    5.3638  -15.3298   26.4577 C   0  0  0  0  0  0  0  0  0  0  0  0
    5.0628  -14.0432   26.6355 N   0  0  0  0  0  0  0  0  0  0  0  0
    6.0717  -13.2369   26.2464 C   0  0  0  0  0  0  0  0  0  0  0  0
    6.2689  -11.8881   26.2089 C   0  0  0  0  0  0  0  0  0  0  0  0
    7.4330  -11.3568   25.7325 C   0  0  0  0  0  0  0  0  0  0  0  0
    8.4284  -12.1824   25.2811 C   0  0  0  0  0  0  0  0  0  0  0  0
    8.2582  -13.5365   25.3075 C   0  0  0  0  0  0  0  0  0  0  0  0
    7.0677  -14.0909   25.7957 C   0  0  0  0  0  0  0  0  0  0  0  0
    8.2978  -17.5751   23.4861 C   0  0  0  0  0  0  0  0  0  0  0  0
    8.7591  -18.7414   23.4927 O   0  0  0  0  0  0  0  0  0  0  0  0
    8.9598  -16.6190   22.6950 N   0  0  0  0  0  0  0  0  0  0  0  0
   10.3998  -16.6624   22.4563 C   0  0  1  0  0  0  0  0  0  0  0  0
   10.7696  -15.7645   21.3076 C   0  0  0  0  0  0  0  0  0  0  0  0
    9.3680  -15.5156   20.2014 S   0  0  0  0  0  0  0  0  0  0  0  0
   11.0689  -16.3641   23.7282 C   0  0  0  0  0  0  0  0  0  0  0  0
   11.7708  -15.3169   23.7984 O   0  0  0  0  0  0  0  0  0  0  0  0
    8.8292  -13.9667   27.9090 C   0  0  0  0  0  0  0  0  0  0  0  0
   10.0040  -14.8479   27.7109 C   0  0  2  0  0  0  0  0  0  0  0  0
   11.3018  -14.0665   28.0574 C   0  0  0  0  0  0  0  0  0  0  0  0
   10.1627  -15.4861   26.3973 C   0  0  0  0  0  0  0  0  0  0  0  0
   11.2006  -16.5199   26.2502 C   0  0  2  0  0  0  0  0  0  0  0  0
   10.9944  -17.1479   24.8865 N   0  0  0  0  0  0  0  0  0  0  0  0
   11.1886  -17.6303   27.1778 C   0  0  0  0  0  0  0  0  0  0  0  0
   10.3241  -18.6953   27.1229 O   0  0  0  0  0  0  0  0  0  0  0  0
   12.0320  -17.6642   28.1585 O   0  0  0  0  0  0  0  0  0  0  0  0
  2  1  1  1
  2  3  1  0
  2 13  1  0
  3  4  1  0
  4  5  2  0
  5  6  1  0
  7  8  2  0
  7  6  1  0
  9  8  1  0
 10  9  2  0
 11 10  1  0
 11 12  2  0
 12  4  1  0
 12  7  1  0
 13 15  1  0
 13 14  2  0
 15 16  1  0
 16 17  1  6
 18 17  1  0
 19 16  1  0
 19 20  2  0
 22 21  1  6
 23 22  1  0
 24 22  1  0
 25 24  1  1
 25 26  1  0
 26 19  1  0
 27 28  1  0
 27 25  1  0
 29 27  2  0
M  END
$$$$
