WCL.pdb
     RDKit          3D

 29 30  0  0  1  0  0  0  0  0999 V2000
    7.1488  -17.5868   21.7748 N   0  0  0  0  0  0  0  0  0  0  0  0
    7.9082  -16.6886   22.6007 C   0  0  1  0  0  0  0  0  0  0  0  0
    7.0222  -15.9556   23.5386 C   0  0  0  0  0  0  0  0  0  0  0  0
    7.1818  -14.4830   23.5264 C   0  0  0  0  0  0  0  0  0  0  0  0
    7.5347  -13.6729   22.4733 C   0  0  0  0  0  0  0  0  0  0  0  0
    7.5141  -12.4150   22.9149 N   0  0  0  0  0  0  0  0  0  0  0  0
    7.1640  -12.3492   24.2159 C   0  0  0  0  0  0  0  0  0  0  0  0
    7.0057  -11.3429   25.1225 C   0  0  0  0  0  0  0  0  0  0  0  0
    6.6434  -11.6044   26.4127 C   0  0  0  0  0  0  0  0  0  0  0  0
    6.4324  -12.8961   26.8166 C   0  0  0  0  0  0  0  0  0  0  0  0
    6.5834  -13.9230   25.9300 C   0  0  0  0  0  0  0  0  0  0  0  0
    6.9536  -13.6644   24.6037 C   0  0  0  0  0  0  0  0  0  0  0  0
    8.9608  -17.4779   23.2865 C   0  0  0  0  0  0  0  0  0  0  0  0
    8.7033  -18.5639   23.8587 O   0  0  0  0  0  0  0  0  0  0  0  0
   10.2928  -17.0275   23.3165 N   0  0  0  0  0  0  0  0  0  0  0  0
   11.3466  -17.7475   24.0262 C   0  0  1  0  0  0  0  0  0  0  0  0
   12.6274  -17.7161   23.2382 C   0  0  0  0  0  0  0  0  0  0  0  0
   12.9181  -16.0806   22.5376 S   0  0  0  0  0  0  0  0  0  0  0  0
   11.4284  -17.1903   25.3816 C   0  0  0  0  0  0  0  0  0  0  0  0
   12.1651  -16.1813   25.5652 O   0  0  0  0  0  0  0  0  0  0  0  0
   10.5084  -14.0310   27.7361 C   0  0  0  0  0  0  0  0  0  0  0  0
    9.5283  -15.1372   27.6288 C   0  0  2  0  0  0  0  0  0  0  0  0
    8.1337  -14.6413   28.1022 C   0  0  0  0  0  0  0  0  0  0  0  0
    9.8477  -16.3984   28.3109 C   0  0  0  0  0  0  0  0  0  0  0  0
   11.0500  -17.1326   27.8827 C   0  0  2  0  0  0  0  0  0  0  0  0
   10.7507  -17.6843   26.5034 N   0  0  0  0  0  0  0  0  0  0  0  0
   11.4578  -18.2807   28.6632 C   0  0  0  0  0  0  0  0  0  0  0  0
   11.4605  -19.5786   28.2158 O   0  0  0  0  0  0  0  0  0  0  0  0
   11.8497  -18.1262   29.8866 O   0  0  0  0  0  0  0  0  0  0  0  0
  2  1  1  1
  2  3  1  0
  2 13  1  0
  3  4  1  0
  4  5  2  0
  5  6  1  0
  7  8  2  0
  7  6  1  0
  9  8  1  0
 10  9  2  0
 11 10  1  0
 11 12  2  0
 12  4  1  0
 12  7  1  0
 13 15  1  0
 13 14  2  0
 15 16  1  0
 16 17  1  6
 18 17  1  0
 19 16  1  0
 19 20  2  0
 22 21  1  1
 23 22  1  0
 24 22  1  0
 25 24  1  1
 25 26  1  0
 26 19  1  0
 27 28  1  0
 27 25  1  0
 29 27  2  0
M  END
$$$$
