WCL.pdb
     RDKit          3D

 29 30  0  0  1  0  0  0  0  0999 V2000
    6.5247  -17.8272   24.6517 N   0  0  0  0  0  0  0  0  0  0  0  0
    7.3019  -16.6877   24.2480 C   0  0  1  0  0  0  0  0  0  0  0  0
    7.5867  -15.8047   25.4060 C   0  0  0  0  0  0  0  0  0  0  0  0
    6.5200  -14.8270   25.7229 C   0  0  0  0  0  0  0  0  0  0  0  0
    5.2810  -15.0647   26.2689 C   0  0  0  0  0  0  0  0  0  0  0  0
    4.6764  -13.8851   26.4120 N   0  0  0  0  0  0  0  0  0  0  0  0
    5.4560  -12.8704   25.9851 C   0  0  0  0  0  0  0  0  0  0  0  0
    5.3182  -11.5161   25.9042 C   0  0  0  0  0  0  0  0  0  0  0  0
    6.3148  -10.7332   25.3962 C   0  0  0  0  0  0  0  0  0  0  0  0
    7.4787  -11.3058   24.9562 C   0  0  0  0  0  0  0  0  0  0  0  0
    7.6440  -12.6590   25.0257 C   0  0  0  0  0  0  0  0  0  0  0  0
    6.6274  -13.4704   25.5467 C   0  0  0  0  0  0  0  0  0  0  0  0
    8.5278  -17.1854   23.5766 C   0  0  0  0  0  0  0  0  0  0  0  0
    8.9303  -18.3637   23.7273 O   0  0  0  0  0  0  0  0  0  0  0  0
    9.2837  -16.3422   22.7425 N   0  0  0  0  0  0  0  0  0  0  0  0
   10.5959  -16.7231   22.2271 C   0  0  1  0  0  0  0  0  0  0  0  0
   10.9258  -15.9309   20.9918 C   0  0  0  0  0  0  0  0  0  0  0  0
    9.6730  -16.1653   19.7168 S   0  0  0  0  0  0  0  0  0  0  0  0
   11.5576  -16.5993   23.3290 C   0  0  0  0  0  0  0  0  0  0  0  0
   12.4084  -15.6680   23.2725 O   0  0  0  0  0  0  0  0  0  0  0  0
   11.5892  -15.5717   28.5823 C   0  0  0  0  0  0  0  0  0  0  0  0
   11.6871  -14.9059   27.2621 C   0  0  2  0  0  0  0  0  0  0  0  0
   10.8479  -13.5980   27.2781 C   0  0  0  0  0  0  0  0  0  0  0  0
   11.3292  -15.6929   26.0744 C   0  0  0  0  0  0  0  0  0  0  0  0
   12.1209  -16.8982   25.7775 C   0  0  2  0  0  0  0  0  0  0  0  0
   11.6138  -17.4327   24.4532 N   0  0  0  0  0  0  0  0  0  0  0  0
   12.0247  -18.0155   26.6920 C   0  0  0  0  0  0  0  0  0  0  0  0
   12.9372  -18.3126   27.6737 O   0  0  0  0  0  0  0  0  0  0  0  0
   11.0250  -18.8331   26.6130 O   0  0  0  0  0  0  0  0  0  0  0  0
  2  1  1  1
  2  3  1  0
  2 13  1  0
  3  4  1  0
  4  5  2  0
  5  6  1  0
  7  8  2  0
  7  6  1  0
  9  8  1  0
 10  9  2  0
 11 10  1  0
 11 12  2  0
 12  4  1  0
 12  7  1  0
 13 15  1  0
 13 14  2  0
 15 16  1  0
 16 17  1  6
 18 17  1  0
 19 16  1  0
 19 20  2  0
 22 21  1  1
 23 22  1  0
 24 22  1  0
 25 24  1  1
 25 26  1  0
 26 19  1  0
 27 28  1  0
 27 25  1  0
 29 27  2  0
M  END
$$$$
