WCL.pdb
     RDKit          3D

 29 30  0  0  1  0  0  0  0  0999 V2000
    6.5167  -18.0552   24.3181 N   0  0  0  0  0  0  0  0  0  0  0  0
    7.3272  -16.8734   24.2089 C   0  0  1  0  0  0  0  0  0  0  0  0
    7.4191  -16.1727   25.5136 C   0  0  0  0  0  0  0  0  0  0  0  0
    6.4796  -15.0399   25.6814 C   0  0  0  0  0  0  0  0  0  0  0  0
    5.1641  -15.0756   26.0789 C   0  0  0  0  0  0  0  0  0  0  0  0
    4.7285  -13.8163   26.1260 N   0  0  0  0  0  0  0  0  0  0  0  0
    5.6941  -12.9416   25.7769 C   0  0  0  0  0  0  0  0  0  0  0  0
    5.7688  -11.5854   25.6545 C   0  0  0  0  0  0  0  0  0  0  0  0
    6.9226  -10.9742   25.2554 C   0  0  0  0  0  0  0  0  0  0  0  0
    8.0320  -11.7250   24.9695 C   0  0  0  0  0  0  0  0  0  0  0  0
    7.9857  -13.0845   25.0838 C   0  0  0  0  0  0  0  0  0  0  0  0
    6.8066  -13.7205   25.4939 C   0  0  0  0  0  0  0  0  0  0  0  0
    8.6486  -17.2741   23.6660 C   0  0  0  0  0  0  0  0  0  0  0  0
    9.0348  -18.4673   23.6840 O   0  0  0  0  0  0  0  0  0  0  0  0
    9.5173  -16.3183   23.1092 N   0  0  0  0  0  0  0  0  0  0  0  0
   10.8554  -16.6596   22.6346 C   0  0  1  0  0  0  0  0  0  0  0  0
   11.2502  -15.7682   21.4891 C   0  0  0  0  0  0  0  0  0  0  0  0
   10.0136  -15.8108   20.1779 S   0  0  0  0  0  0  0  0  0  0  0  0
   11.7568  -16.6314   23.7927 C   0  0  0  0  0  0  0  0  0  0  0  0
   12.6750  -15.7648   23.8094 O   0  0  0  0  0  0  0  0  0  0  0  0
    9.3288  -14.4959   27.9527 C   0  0  0  0  0  0  0  0  0  0  0  0
   10.5716  -15.2759   27.7459 C   0  0  2  0  0  0  0  0  0  0  0  0
   11.8013  -14.3951   28.1022 C   0  0  0  0  0  0  0  0  0  0  0  0
   10.7818  -15.8844   26.4255 C   0  0  0  0  0  0  0  0  0  0  0  0
   11.8003  -16.9406   26.3035 C   0  0  2  0  0  0  0  0  0  0  0  0
   11.6856  -17.4909   24.8962 N   0  0  0  0  0  0  0  0  0  0  0  0
   11.6858  -18.0965   27.1664 C   0  0  0  0  0  0  0  0  0  0  0  0
   12.5545  -18.4130   28.1812 O   0  0  0  0  0  0  0  0  0  0  0  0
   10.7119  -18.9327   27.0033 O   0  0  0  0  0  0  0  0  0  0  0  0
  2  1  1  1
  2  3  1  0
  2 13  1  0
  3  4  1  0
  4  5  2  0
  5  6  1  0
  7  8  2  0
  7  6  1  0
  9  8  1  0
 10  9  2  0
 11 10  1  0
 11 12  2  0
 12  4  1  0
 12  7  1  0
 13 15  1  0
 13 14  2  0
 15 16  1  0
 16 17  1  6
 18 17  1  0
 19 16  1  0
 19 20  2  0
 22 21  1  6
 23 22  1  0
 24 22  1  0
 25 24  1  1
 25 26  1  0
 26 19  1  0
 27 28  1  0
 27 25  1  0
 29 27  2  0
M  END
$$$$
