WCL.pdb
     RDKit          3D

 29 30  0  0  1  0  0  0  0  0999 V2000
    6.3457  -18.0268   24.3363 N   0  0  0  0  0  0  0  0  0  0  0  0
    7.3325  -16.9831   24.2873 C   0  0  1  0  0  0  0  0  0  0  0  0
    7.4266  -16.2825   25.5920 C   0  0  0  0  0  0  0  0  0  0  0  0
    6.5364  -15.1073   25.7353 C   0  0  0  0  0  0  0  0  0  0  0  0
    5.3414  -15.0207   26.4092 C   0  0  0  0  0  0  0  0  0  0  0  0
    4.9149  -13.7620   26.3024 N   0  0  0  0  0  0  0  0  0  0  0  0
    5.7713  -13.0046   25.5864 C   0  0  0  0  0  0  0  0  0  0  0  0
    5.8042  -11.7011   25.1873 C   0  0  0  0  0  0  0  0  0  0  0  0
    6.8356  -11.2182   24.4342 C   0  0  0  0  0  0  0  0  0  0  0  0
    7.8617  -12.0475   24.0660 C   0  0  0  0  0  0  0  0  0  0  0  0
    7.8548  -13.3568   24.4520 C   0  0  0  0  0  0  0  0  0  0  0  0
    6.8014  -13.8610   25.2260 C   0  0  0  0  0  0  0  0  0  0  0  0
    8.6163  -17.5879   23.8544 C   0  0  0  0  0  0  0  0  0  0  0  0
    8.8756  -18.7987   24.0540 O   0  0  0  0  0  0  0  0  0  0  0  0
    9.5917  -16.8138   23.2004 N   0  0  0  0  0  0  0  0  0  0  0  0
   11.0003  -17.1971   23.1649 C   0  0  1  0  0  0  0  0  0  0  0  0
   11.7309  -16.4171   22.1063 C   0  0  0  0  0  0  0  0  0  0  0  0
   11.2726  -14.6742   22.1524 S   0  0  0  0  0  0  0  0  0  0  0  0
   11.5314  -17.0592   24.5263 C   0  0  0  0  0  0  0  0  0  0  0  0
   12.7540  -16.7737   24.6605 O   0  0  0  0  0  0  0  0  0  0  0  0
   11.5282  -13.9482   27.6804 C   0  0  0  0  0  0  0  0  0  0  0  0
   10.3418  -14.8287   27.5659 C   0  0  2  0  0  0  0  0  0  0  0  0
    9.1857  -14.2553   28.4317 C   0  0  0  0  0  0  0  0  0  0  0  0
   10.5179  -16.2528   27.8804 C   0  0  0  0  0  0  0  0  0  0  0  0
   11.4542  -17.0339   27.0552 C   0  0  2  0  0  0  0  0  0  0  0  0
   10.7911  -17.2164   25.7048 N   0  0  0  0  0  0  0  0  0  0  0  0
   11.7879  -18.3729   27.4907 C   0  0  0  0  0  0  0  0  0  0  0  0
   11.4584  -19.5255   26.8218 O   0  0  0  0  0  0  0  0  0  0  0  0
   12.4384  -18.5517   28.5948 O   0  0  0  0  0  0  0  0  0  0  0  0
  2  1  1  1
  2  3  1  0
  2 13  1  0
  3  4  1  0
  4  5  2  0
  5  6  1  0
  7  8  2  0
  7  6  1  0
  9  8  1  0
 10  9  2  0
 11 10  1  0
 11 12  2  0
 12  4  1  0
 12  7  1  0
 13 15  1  0
 13 14  2  0
 15 16  1  0
 16 17  1  6
 18 17  1  0
 19 16  1  0
 19 20  2  0
 22 21  1  1
 23 22  1  0
 24 22  1  0
 25 24  1  1
 25 26  1  0
 26 19  1  0
 27 28  1  0
 27 25  1  0
 29 27  2  0
M  END
$$$$
