WCL.pdb
     RDKit          3D

 29 30  0  0  1  0  0  0  0  0999 V2000
    6.5608  -17.6910   24.5746 N   0  0  0  0  0  0  0  0  0  0  0  0
    7.5515  -16.7083   24.2306 C   0  0  1  0  0  0  0  0  0  0  0  0
    7.7963  -15.7842   25.3654 C   0  0  0  0  0  0  0  0  0  0  0  0
    6.6725  -14.8726   25.6819 C   0  0  0  0  0  0  0  0  0  0  0  0
    5.4872  -15.1681   26.3123 C   0  0  0  0  0  0  0  0  0  0  0  0
    4.7980  -14.0315   26.4164 N   0  0  0  0  0  0  0  0  0  0  0  0
    5.4697  -12.9906   25.8828 C   0  0  0  0  0  0  0  0  0  0  0  0
    5.2192  -11.6594   25.7259 C   0  0  0  0  0  0  0  0  0  0  0  0
    6.1213  -10.8377   25.1134 C   0  0  0  0  0  0  0  0  0  0  0  0
    7.3028  -11.3470   24.6434 C   0  0  0  0  0  0  0  0  0  0  0  0
    7.5800  -12.6759   24.7874 C   0  0  0  0  0  0  0  0  0  0  0  0
    6.6609  -13.5265   25.4156 C   0  0  0  0  0  0  0  0  0  0  0  0
    8.7721  -17.4259   23.7869 C   0  0  0  0  0  0  0  0  0  0  0  0
    8.9144  -18.6590   23.9667 O   0  0  0  0  0  0  0  0  0  0  0  0
    9.8175  -16.7379   23.1450 N   0  0  0  0  0  0  0  0  0  0  0  0
   11.1866  -17.2450   23.1168 C   0  0  1  0  0  0  0  0  0  0  0  0
   11.9554  -16.6203   21.9849 C   0  0  0  0  0  0  0  0  0  0  0  0
   10.9717  -15.3618   21.1491 S   0  0  0  0  0  0  0  0  0  0  0  0
   11.7608  -17.0446   24.4527 C   0  0  0  0  0  0  0  0  0  0  0  0
   12.9374  -16.5933   24.5317 O   0  0  0  0  0  0  0  0  0  0  0  0
   11.5120  -14.1177   27.6683 C   0  0  0  0  0  0  0  0  0  0  0  0
   10.4604  -15.1615   27.6906 C   0  0  2  0  0  0  0  0  0  0  0  0
    9.3734  -14.7793   28.7334 C   0  0  0  0  0  0  0  0  0  0  0  0
   10.8831  -16.5491   27.9226 C   0  0  0  0  0  0  0  0  0  0  0  0
   11.8421  -17.1480   26.9795 C   0  0  2  0  0  0  0  0  0  0  0  0
   11.1089  -17.3114   25.6634 N   0  0  0  0  0  0  0  0  0  0  0  0
   12.3606  -18.4643   27.2834 C   0  0  0  0  0  0  0  0  0  0  0  0
   12.0749  -19.6072   26.5786 O   0  0  0  0  0  0  0  0  0  0  0  0
   13.1513  -18.6316   28.2939 O   0  0  0  0  0  0  0  0  0  0  0  0
  2  1  1  1
  2  3  1  0
  2 13  1  0
  3  4  1  0
  4  5  2  0
  5  6  1  0
  7  8  2  0
  7  6  1  0
  9  8  1  0
 10  9  2  0
 11 10  1  0
 11 12  2  0
 12  4  1  0
 12  7  1  0
 13 15  1  0
 13 14  2  0
 15 16  1  0
 16 17  1  6
 18 17  1  0
 19 16  1  0
 19 20  2  0
 22 21  1  1
 23 22  1  0
 24 22  1  0
 25 24  1  1
 25 26  1  0
 26 19  1  0
 27 28  1  0
 27 25  1  0
 29 27  2  0
M  END
$$$$
