WCL.pdb
     RDKit          3D

 29 30  0  0  1  0  0  0  0  0999 V2000
    6.4003  -18.0806   24.2037 N   0  0  0  0  0  0  0  0  0  0  0  0
    7.3296  -16.9875   24.1198 C   0  0  1  0  0  0  0  0  0  0  0  0
    7.4672  -16.3083   25.4319 C   0  0  0  0  0  0  0  0  0  0  0  0
    6.5253  -15.1874   25.6566 C   0  0  0  0  0  0  0  0  0  0  0  0
    5.2846  -15.2223   26.2473 C   0  0  0  0  0  0  0  0  0  0  0  0
    4.8189  -13.9732   26.2688 N   0  0  0  0  0  0  0  0  0  0  0  0
    5.6930  -13.1059   25.7180 C   0  0  0  0  0  0  0  0  0  0  0  0
    5.7037  -11.7616   25.4893 C   0  0  0  0  0  0  0  0  0  0  0  0
    6.7652  -11.1566   24.8799 C   0  0  0  0  0  0  0  0  0  0  0  0
    7.8449  -11.9019   24.4861 C   0  0  0  0  0  0  0  0  0  0  0  0
    7.8612  -13.2495   24.7029 C   0  0  0  0  0  0  0  0  0  0  0  0
    6.7771  -13.8790   25.3286 C   0  0  0  0  0  0  0  0  0  0  0  0
    8.6133  -17.5180   23.5984 C   0  0  0  0  0  0  0  0  0  0  0  0
    9.0306  -18.6591   23.9097 O   0  0  0  0  0  0  0  0  0  0  0  0
    9.4098  -16.7494   22.7305 N   0  0  0  0  0  0  0  0  0  0  0  0
   10.8656  -16.8597   22.7007 C   0  0  1  0  0  0  0  0  0  0  0  0
   11.4339  -16.0190   21.5904 C   0  0  0  0  0  0  0  0  0  0  0  0
   10.8212  -16.5643   19.9850 S   0  0  0  0  0  0  0  0  0  0  0  0
   11.3614  -16.5436   24.0456 C   0  0  0  0  0  0  0  0  0  0  0  0
   11.7413  -15.3616   24.2756 O   0  0  0  0  0  0  0  0  0  0  0  0
   10.1693  -14.2443   28.5753 C   0  0  0  0  0  0  0  0  0  0  0  0
   11.2297  -15.1744   28.1208 C   0  0  2  0  0  0  0  0  0  0  0  0
   12.6091  -14.4626   28.1938 C   0  0  0  0  0  0  0  0  0  0  0  0
   11.0744  -15.7883   26.7953 C   0  0  0  0  0  0  0  0  0  0  0  0
   11.8858  -16.9764   26.4827 C   0  0  2  0  0  0  0  0  0  0  0  0
   11.4492  -17.4489   25.1106 N   0  0  0  0  0  0  0  0  0  0  0  0
   11.7486  -18.1359   27.3375 C   0  0  0  0  0  0  0  0  0  0  0  0
   10.6756  -18.9922   27.3398 O   0  0  0  0  0  0  0  0  0  0  0  0
   12.6777  -18.4257   28.1901 O   0  0  0  0  0  0  0  0  0  0  0  0
  2  1  1  1
  2  3  1  0
  2 13  1  0
  3  4  1  0
  4  5  2  0
  5  6  1  0
  7  8  2  0
  7  6  1  0
  9  8  1  0
 10  9  2  0
 11 10  1  0
 11 12  2  0
 12  4  1  0
 12  7  1  0
 13 15  1  0
 13 14  2  0
 15 16  1  0
 16 17  1  6
 18 17  1  0
 19 16  1  0
 19 20  2  0
 22 21  1  6
 23 22  1  0
 24 22  1  0
 25 24  1  1
 25 26  1  0
 26 19  1  0
 27 28  1  0
 27 25  1  0
 29 27  2  0
M  END
$$$$
