WCL.pdb
     RDKit          3D

 29 30  0  0  1  0  0  0  0  0999 V2000
    6.3182  -17.7232   24.8191 N   0  0  0  0  0  0  0  0  0  0  0  0
    7.3272  -16.7735   24.4377 C   0  0  1  0  0  0  0  0  0  0  0  0
    7.6665  -15.8782   25.5713 C   0  0  0  0  0  0  0  0  0  0  0  0
    6.6927  -14.7903   25.8207 C   0  0  0  0  0  0  0  0  0  0  0  0
    5.4448  -14.8778   26.3906 C   0  0  0  0  0  0  0  0  0  0  0  0
    4.9466  -13.6424   26.4488 N   0  0  0  0  0  0  0  0  0  0  0  0
    5.8058  -12.7342   25.9424 C   0  0  0  0  0  0  0  0  0  0  0  0
    5.7848  -11.3827   25.7613 C   0  0  0  0  0  0  0  0  0  0  0  0
    6.8391  -10.7297   25.1901 C   0  0  0  0  0  0  0  0  0  0  0  0
    7.9433  -11.4328   24.7870 C   0  0  0  0  0  0  0  0  0  0  0  0
    7.9915  -12.7864   24.9565 C   0  0  0  0  0  0  0  0  0  0  0  0
    6.9151  -13.4650   25.5429 C   0  0  0  0  0  0  0  0  0  0  0  0
    8.4942  -17.5297   23.9202 C   0  0  0  0  0  0  0  0  0  0  0  0
    8.6490  -18.7506   24.1621 O   0  0  0  0  0  0  0  0  0  0  0  0
    9.4725  -16.8938   23.1348 N   0  0  0  0  0  0  0  0  0  0  0  0
   10.8232  -17.4277   22.9838 C   0  0  1  0  0  0  0  0  0  0  0  0
   11.4621  -16.8948   21.7306 C   0  0  0  0  0  0  0  0  0  0  0  0
   10.9560  -15.1930   21.4176 S   0  0  0  0  0  0  0  0  0  0  0  0
   11.5511  -17.1498   24.2277 C   0  0  0  0  0  0  0  0  0  0  0  0
   12.7488  -16.7595   24.1402 O   0  0  0  0  0  0  0  0  0  0  0  0
   11.1386  -13.9450   27.1654 C   0  0  0  0  0  0  0  0  0  0  0  0
   10.2947  -15.1312   27.4419 C   0  0  2  0  0  0  0  0  0  0  0  0
    9.2980  -14.8021   28.5879 C   0  0  0  0  0  0  0  0  0  0  0  0
   10.9769  -16.3962   27.7458 C   0  0  0  0  0  0  0  0  0  0  0  0
   11.8817  -16.9572   26.7288 C   0  0  2  0  0  0  0  0  0  0  0  0
   11.0264  -17.2788   25.5199 N   0  0  0  0  0  0  0  0  0  0  0  0
   12.5686  -18.1924   27.0390 C   0  0  0  0  0  0  0  0  0  0  0  0
   13.6625  -18.3022   27.8612 O   0  0  0  0  0  0  0  0  0  0  0  0
   12.1654  -19.3062   26.5183 O   0  0  0  0  0  0  0  0  0  0  0  0
  2  1  1  1
  2  3  1  0
  2 13  1  0
  3  4  1  0
  4  5  2  0
  5  6  1  0
  7  8  2  0
  7  6  1  0
  9  8  1  0
 10  9  2  0
 11 10  1  0
 11 12  2  0
 12  4  1  0
 12  7  1  0
 13 15  1  0
 13 14  2  0
 15 16  1  0
 16 17  1  6
 18 17  1  0
 19 16  1  0
 19 20  2  0
 22 21  1  1
 23 22  1  0
 24 22  1  0
 25 24  1  1
 25 26  1  0
 26 19  1  0
 27 28  1  0
 27 25  1  0
 29 27  2  0
M  END
$$$$
