WCL.pdb
     RDKit          3D

 29 30  0  0  1  0  0  0  0  0999 V2000
    6.3811  -17.3499   25.0768 N   0  0  0  0  0  0  0  0  0  0  0  0
    7.3103  -16.4397   24.4655 C   0  0  1  0  0  0  0  0  0  0  0  0
    7.7312  -15.3894   25.4255 C   0  0  0  0  0  0  0  0  0  0  0  0
    6.7093  -14.3544   25.7062 C   0  0  0  0  0  0  0  0  0  0  0  0
    5.4381  -14.5243   26.2012 C   0  0  0  0  0  0  0  0  0  0  0  0
    4.8955  -13.3130   26.3280 N   0  0  0  0  0  0  0  0  0  0  0  0
    5.7473  -12.3421   25.9388 C   0  0  0  0  0  0  0  0  0  0  0  0
    5.6891  -10.9819   25.8613 C   0  0  0  0  0  0  0  0  0  0  0  0
    6.7476  -10.2543   25.3983 C   0  0  0  0  0  0  0  0  0  0  0  0
    7.8941  -10.8897   25.0010 C   0  0  0  0  0  0  0  0  0  0  0  0
    7.9802  -12.2504   25.0682 C   0  0  0  0  0  0  0  0  0  0  0  0
    6.8997  -13.0054   25.5432 C   0  0  0  0  0  0  0  0  0  0  0  0
    8.4448  -17.2340   23.9332 C   0  0  0  0  0  0  0  0  0  0  0  0
    8.7948  -18.3181   24.4580 O   0  0  0  0  0  0  0  0  0  0  0  0
    9.1700  -16.7906   22.8125 N   0  0  0  0  0  0  0  0  0  0  0  0
   10.5806  -17.1129   22.6158 C   0  0  1  0  0  0  0  0  0  0  0  0
   11.0598  -16.5882   21.2900 C   0  0  0  0  0  0  0  0  0  0  0  0
   12.6951  -17.2330   20.8899 S   0  0  0  0  0  0  0  0  0  0  0  0
   11.3148  -16.6227   23.7885 C   0  0  0  0  0  0  0  0  0  0  0  0
   11.6814  -15.4145   23.7969 O   0  0  0  0  0  0  0  0  0  0  0  0
   11.2261  -14.1551   27.0551 C   0  0  0  0  0  0  0  0  0  0  0  0
   10.6710  -15.5202   27.2113 C   0  0  2  0  0  0  0  0  0  0  0  0
    9.8237  -15.5891   28.5121 C   0  0  0  0  0  0  0  0  0  0  0  0
   11.6151  -16.6455   27.1917 C   0  0  0  0  0  0  0  0  0  0  0  0
   12.4949  -16.7914   26.0202 C   0  0  2  0  0  0  0  0  0  0  0  0
   11.6467  -17.3867   24.9144 N   0  0  0  0  0  0  0  0  0  0  0  0
   13.6344  -17.6760   26.1334 C   0  0  0  0  0  0  0  0  0  0  0  0
   13.7644  -18.8819   25.4904 O   0  0  0  0  0  0  0  0  0  0  0  0
   14.6301  -17.3555   26.8950 O   0  0  0  0  0  0  0  0  0  0  0  0
  2  1  1  1
  2  3  1  0
  2 13  1  0
  3  4  1  0
  4  5  2  0
  5  6  1  0
  7  8  2  0
  7  6  1  0
  9  8  1  0
 10  9  2  0
 11 10  1  0
 11 12  2  0
 12  4  1  0
 12  7  1  0
 13 15  1  0
 13 14  2  0
 15 16  1  0
 16 17  1  6
 18 17  1  0
 19 16  1  0
 19 20  2  0
 22 21  1  1
 23 22  1  0
 24 22  1  0
 25 24  1  1
 25 26  1  0
 26 19  1  0
 27 28  1  0
 27 25  1  0
 29 27  2  0
M  END
$$$$
