PLR.pdb
     RDKit          3D

 27 27  0  0  1  0  0  0  0  0999 V2000
   31.1887  -20.9812   -9.7607 N   0  0  0  0  0  0  0  0  0  0  0  0
   32.5595  -21.1745   -9.3216 C   0  0  0  0  0  0  0  0  0  0  0  0
   32.7250  -22.7002   -9.3604 C   0  0  0  0  0  0  0  0  0  0  0  0
   31.3775  -23.1118   -8.7452 C   0  0  0  0  0  0  0  0  0  0  0  0
   30.4503  -22.1513   -9.4014 C   0  0  1  0  0  0  0  0  0  0  0  0
   29.2153  -21.8523   -8.6480 C   0  0  0  0  0  0  0  0  0  0  0  0
   28.3365  -22.7466   -8.6117 O   0  0  0  0  0  0  0  0  0  0  0  0
   28.8665  -18.1538   -4.4245 C   0  0  0  0  0  0  0  0  0  0  0  0
   28.9534  -19.4159   -5.3158 C   0  0  1  0  0  0  0  0  0  0  0  0
   28.8592  -20.5783   -4.3552 C   0  0  0  0  0  0  0  0  0  0  0  0
   27.8152  -19.3015   -6.2545 C   0  0  0  0  0  0  0  0  0  0  0  0
   27.7337  -20.2002   -7.4116 C   0  0  2  0  0  0  0  0  0  0  0  0
   28.9718  -20.6344   -7.9760 N   0  0  0  0  0  0  0  0  0  0  0  0
   26.6656  -19.8832   -8.4057 C   0  0  0  0  0  0  0  0  0  0  0  0
   26.4212  -18.6666   -8.7060 O   0  0  0  0  0  0  0  0  0  0  0  0
   24.1835  -24.7004  -14.6727 N   0  0  0  0  0  0  0  0  0  0  0  0
   23.9056  -23.4539  -15.3060 C   0  0  0  0  0  0  0  0  0  0  0  0
   23.0929  -23.4311  -16.2820 N   0  0  0  0  0  0  0  0  0  0  0  0
   24.5263  -22.2652  -14.8524 N   0  0  0  0  0  0  0  0  0  0  0  0
   25.2647  -22.2798  -13.6019 C   0  0  0  0  0  0  0  0  0  0  0  0
   24.6530  -21.2945  -12.6107 C   0  0  0  0  0  0  0  0  0  0  0  0
   25.4816  -21.3912  -11.3570 C   0  0  0  0  0  0  0  0  0  0  0  0
   25.0644  -20.4763  -10.2549 C   0  0  2  0  0  0  0  0  0  0  0  0
   25.8631  -20.8382   -9.0677 N   0  0  0  0  0  0  0  0  0  0  0  0
   23.6525  -20.7437   -9.9040 C   0  0  0  0  0  0  0  0  0  0  0  0
   22.5651  -20.2708  -10.6318 O   0  0  0  0  0  0  0  0  0  0  0  0
   23.3646  -21.4346   -8.8953 O   0  0  0  0  0  0  0  0  0  0  0  0
  2  1  1  0
  3  2  1  0
  4  3  1  0
  4  5  1  0
  5  1  1  0
  5  6  1  1
  6  7  2  0
  9  8  1  1
 10  9  1  0
 11  9  1  0
 12 11  1  6
 13  6  1  0
 13 12  1  0
 14 12  1  0
 14 15  2  0
 16 17  1  0
 17 19  1  0
 17 18  2  0
 19 20  1  0
 20 21  1  0
 21 22  1  0
 23 22  1  6
 23 24  1  0
 24 14  1  0
 25 23  1  0
 25 26  1  0
 27 25  2  0
M  END
$$$$
