PLR.pdb
     RDKit          3D

 27 27  0  0  1  0  0  0  0  0999 V2000
   19.8887  -12.8670  -16.4843 N   0  0  0  0  0  0  0  0  0  0  0  0
   20.7604  -12.2771  -17.4849 C   0  0  0  0  0  0  0  0  0  0  0  0
   21.1059  -10.9083  -16.8815 C   0  0  0  0  0  0  0  0  0  0  0  0
   19.7157  -10.5088  -16.3605 C   0  0  0  0  0  0  0  0  0  0  0  0
   19.2314  -11.7985  -15.7990 C   0  0  1  0  0  0  0  0  0  0  0  0
   17.7632  -11.9534  -15.7504 C   0  0  0  0  0  0  0  0  0  0  0  0
   17.1239  -11.1313  -15.0513 O   0  0  0  0  0  0  0  0  0  0  0  0
   14.3198  -11.3567  -18.4301 C   0  0  0  0  0  0  0  0  0  0  0  0
   13.7784  -12.7548  -18.0467 C   0  0  1  0  0  0  0  0  0  0  0  0
   13.1000  -13.2659  -19.2962 C   0  0  0  0  0  0  0  0  0  0  0  0
   14.9711  -13.5283  -17.6356 C   0  0  0  0  0  0  0  0  0  0  0  0
   15.6443  -13.2096  -16.3713 C   0  0  2  0  0  0  0  0  0  0  0  0
   17.0490  -12.9598  -16.4368 N   0  0  0  0  0  0  0  0  0  0  0  0
   15.1997  -13.9966  -15.1829 C   0  0  0  0  0  0  0  0  0  0  0  0
   15.8749  -15.0133  -14.8081 O   0  0  0  0  0  0  0  0  0  0  0  0
    8.7749  -11.8567  -10.4963 N   0  0  0  0  0  0  0  0  0  0  0  0
    8.6728  -12.8037  -11.5569 C   0  0  0  0  0  0  0  0  0  0  0  0
    7.6086  -12.8342  -12.2499 N   0  0  0  0  0  0  0  0  0  0  0  0
    9.7404  -13.6924  -11.8297 N   0  0  0  0  0  0  0  0  0  0  0  0
   10.8188  -13.8272  -10.8663 C   0  0  0  0  0  0  0  0  0  0  0  0
   11.9370  -14.6942  -11.4366 C   0  0  0  0  0  0  0  0  0  0  0  0
   12.5279  -13.9169  -12.5830 C   0  0  0  0  0  0  0  0  0  0  0  0
   13.6503  -14.5973  -13.2924 C   0  0  2  0  0  0  0  0  0  0  0  0
   14.0542  -13.7167  -14.4058 N   0  0  0  0  0  0  0  0  0  0  0  0
   13.1545  -15.8471  -13.9089 C   0  0  0  0  0  0  0  0  0  0  0  0
   12.4024  -15.8946  -15.0786 O   0  0  0  0  0  0  0  0  0  0  0  0
   13.4000  -16.9606  -13.3821 O   0  0  0  0  0  0  0  0  0  0  0  0
  2  1  1  0
  3  2  1  0
  4  3  1  0
  4  5  1  0
  5  1  1  0
  5  6  1  6
  6  7  2  0
  9  8  1  6
 10  9  1  0
 11  9  1  0
 12 11  1  6
 13  6  1  0
 13 12  1  0
 14 12  1  0
 14 15  2  0
 16 17  1  0
 17 19  1  0
 17 18  2  0
 19 20  1  0
 20 21  1  0
 21 22  1  0
 23 22  1  6
 23 24  1  0
 24 14  1  0
 25 23  1  0
 25 26  1  0
 27 25  2  0
M  END
$$$$
