PLR.pdb
     RDKit          3D

 27 27  0  0  1  0  0  0  0  0999 V2000
   25.9088  -21.8385  -17.3830 N   0  0  0  0  0  0  0  0  0  0  0  0
   27.2646  -21.3448  -17.5482 C   0  0  0  0  0  0  0  0  0  0  0  0
   28.0314  -22.0508  -16.4211 C   0  0  0  0  0  0  0  0  0  0  0  0
   27.0069  -21.8908  -15.2859 C   0  0  0  0  0  0  0  0  0  0  0  0
   25.7314  -22.1620  -16.0019 C   0  0  1  0  0  0  0  0  0  0  0  0
   24.5304  -21.5406  -15.4076 C   0  0  0  0  0  0  0  0  0  0  0  0
   24.3354  -21.7285  -14.1828 O   0  0  0  0  0  0  0  0  0  0  0  0
   22.5134  -16.5129  -16.8044 C   0  0  0  0  0  0  0  0  0  0  0  0
   23.1247  -17.7048  -16.0293 C   0  0  1  0  0  0  0  0  0  0  0  0
   23.3404  -17.1874  -14.6263 C   0  0  0  0  0  0  0  0  0  0  0  0
   22.1215  -18.7873  -16.1370 C   0  0  0  0  0  0  0  0  0  0  0  0
   22.4329  -20.1221  -15.6131 C   0  0  2  0  0  0  0  0  0  0  0  0
   23.6028  -20.7580  -16.1297 N   0  0  0  0  0  0  0  0  0  0  0  0
   21.2636  -21.0273  -15.4066 C   0  0  0  0  0  0  0  0  0  0  0  0
   20.8356  -21.7398  -16.3757 O   0  0  0  0  0  0  0  0  0  0  0  0
   17.6187  -26.8394  -11.5964 N   0  0  0  0  0  0  0  0  0  0  0  0
   19.0218  -26.6694  -11.4105 C   0  0  0  0  0  0  0  0  0  0  0  0
   19.7772  -27.6879  -11.4873 N   0  0  0  0  0  0  0  0  0  0  0  0
   19.5597  -25.3871  -11.1454 N   0  0  0  0  0  0  0  0  0  0  0  0
   18.6661  -24.2467  -11.0452 C   0  0  0  0  0  0  0  0  0  0  0  0
   18.3619  -23.6852  -12.4308 C   0  0  0  0  0  0  0  0  0  0  0  0
   19.5400  -22.8241  -12.8028 C   0  0  0  0  0  0  0  0  0  0  0  0
   19.3964  -22.0832  -14.0897 C   0  0  2  0  0  0  0  0  0  0  0  0
   20.5530  -21.1724  -14.1949 N   0  0  0  0  0  0  0  0  0  0  0  0
   18.1939  -21.2239  -14.0290 C   0  0  0  0  0  0  0  0  0  0  0  0
   16.9111  -21.6537  -14.3537 O   0  0  0  0  0  0  0  0  0  0  0  0
   18.2837  -20.0239  -13.6688 O   0  0  0  0  0  0  0  0  0  0  0  0
  2  1  1  0
  3  2  1  0
  4  3  1  0
  4  5  1  0
  5  1  1  0
  5  6  1  1
  6  7  2  0
  9  8  1  6
 10  9  1  0
 11  9  1  0
 12 11  1  6
 13  6  1  0
 13 12  1  0
 14 12  1  0
 14 15  2  0
 16 17  1  0
 17 19  1  0
 17 18  2  0
 19 20  1  0
 20 21  1  0
 21 22  1  0
 23 22  1  1
 23 24  1  0
 24 14  1  0
 25 23  1  0
 25 26  1  0
 27 25  2  0
M  END
$$$$
