PLR.pdb
     RDKit          3D

 27 27  0  0  1  0  0  0  0  0999 V2000
   27.6577  -20.6244  -16.6413 N   0  0  0  0  0  0  0  0  0  0  0  0
   29.0726  -20.3553  -16.8274 C   0  0  0  0  0  0  0  0  0  0  0  0
   29.6530  -21.7431  -17.1342 C   0  0  0  0  0  0  0  0  0  0  0  0
   28.8895  -22.5686  -16.0857 C   0  0  0  0  0  0  0  0  0  0  0  0
   27.5309  -21.9691  -16.1732 C   0  0  1  0  0  0  0  0  0  0  0  0
   26.7104  -22.0854  -14.9503 C   0  0  0  0  0  0  0  0  0  0  0  0
   26.4381  -23.2432  -14.5520 O   0  0  0  0  0  0  0  0  0  0  0  0
   26.3787  -20.3426   -9.4272 C   0  0  0  0  0  0  0  0  0  0  0  0
   25.3660  -20.8116  -10.4994 C   0  0  1  0  0  0  0  0  0  0  0  0
   24.1268  -19.9830  -10.2534 C   0  0  0  0  0  0  0  0  0  0  0  0
   26.0313  -20.5511  -11.7953 C   0  0  0  0  0  0  0  0  0  0  0  0
   25.4144  -21.0280  -13.0383 C   0  0  2  0  0  0  0  0  0  0  0  0
   26.2227  -20.9829  -14.2150 N   0  0  0  0  0  0  0  0  0  0  0  0
   23.9852  -20.6467  -13.2414 C   0  0  0  0  0  0  0  0  0  0  0  0
   23.6478  -19.4158  -13.2103 O   0  0  0  0  0  0  0  0  0  0  0  0
   19.0173  -26.6089  -15.7587 N   0  0  0  0  0  0  0  0  0  0  0  0
   20.2356  -26.3790  -15.0553 C   0  0  0  0  0  0  0  0  0  0  0  0
   20.8742  -27.3761  -14.5952 N   0  0  0  0  0  0  0  0  0  0  0  0
   20.7218  -25.0617  -14.8749 N   0  0  0  0  0  0  0  0  0  0  0  0
   20.1782  -23.9850  -15.6837 C   0  0  0  0  0  0  0  0  0  0  0  0
   20.9914  -22.7090  -15.4878 C   0  0  0  0  0  0  0  0  0  0  0  0
   20.7295  -22.2571  -14.0754 C   0  0  0  0  0  0  0  0  0  0  0  0
   21.5372  -21.0844  -13.6301 C   0  0  2  0  0  0  0  0  0  0  0  0
   22.9269  -21.5540  -13.4677 N   0  0  0  0  0  0  0  0  0  0  0  0
   21.0827  -20.6573  -12.2888 C   0  0  0  0  0  0  0  0  0  0  0  0
   20.1652  -19.6355  -12.0651 O   0  0  0  0  0  0  0  0  0  0  0  0
   21.5233  -21.2198  -11.2557 O   0  0  0  0  0  0  0  0  0  0  0  0
  2  1  1  0
  3  2  1  0
  4  3  1  0
  4  5  1  0
  5  1  1  0
  5  6  1  1
  6  7  2  0
  9  8  1  1
 10  9  1  0
 11  9  1  0
 12 11  1  1
 13  6  1  0
 13 12  1  0
 14 12  1  0
 14 15  2  0
 16 17  1  0
 17 19  1  0
 17 18  2  0
 19 20  1  0
 20 21  1  0
 21 22  1  0
 23 22  1  1
 23 24  1  0
 24 14  1  0
 25 23  1  0
 25 26  1  0
 27 25  2  0
M  END
$$$$
