PLR.pdb
     RDKit          3D

 27 27  0  0  1  0  0  0  0  0999 V2000
   28.1241  -22.5832  -17.9780 N   0  0  0  0  0  0  0  0  0  0  0  0
   29.5061  -22.7655  -18.3852 C   0  0  0  0  0  0  0  0  0  0  0  0
   30.0746  -23.6763  -17.2878 C   0  0  0  0  0  0  0  0  0  0  0  0
   29.4420  -23.0064  -16.0570 C   0  0  0  0  0  0  0  0  0  0  0  0
   28.0715  -22.7124  -16.5553 C   0  0  1  0  0  0  0  0  0  0  0  0
   27.3885  -21.5827  -15.8925 C   0  0  0  0  0  0  0  0  0  0  0  0
   27.1861  -21.6808  -14.6585 O   0  0  0  0  0  0  0  0  0  0  0  0
   26.5464  -16.5207  -14.3696 C   0  0  0  0  0  0  0  0  0  0  0  0
   26.0480  -16.7766  -15.8122 C   0  0  1  0  0  0  0  0  0  0  0  0
   26.3760  -15.5102  -16.5680 C   0  0  0  0  0  0  0  0  0  0  0  0
   26.7901  -17.9731  -16.2677 C   0  0  0  0  0  0  0  0  0  0  0  0
   26.2560  -19.3107  -15.9870 C   0  0  2  0  0  0  0  0  0  0  0  0
   26.9569  -20.4154  -16.5599 N   0  0  0  0  0  0  0  0  0  0  0  0
   24.7679  -19.4321  -16.0043 C   0  0  0  0  0  0  0  0  0  0  0  0
   24.1441  -19.4136  -17.1181 O   0  0  0  0  0  0  0  0  0  0  0  0
   17.9560  -23.0030  -12.1188 N   0  0  0  0  0  0  0  0  0  0  0  0
   19.1973  -23.6071  -12.4744 C   0  0  0  0  0  0  0  0  0  0  0  0
   19.2338  -24.8618  -12.6692 N   0  0  0  0  0  0  0  0  0  0  0  0
   20.3659  -22.8192  -12.6072 N   0  0  0  0  0  0  0  0  0  0  0  0
   20.2962  -21.3921  -12.3471 C   0  0  0  0  0  0  0  0  0  0  0  0
   20.5355  -20.6045  -13.6316 C   0  0  0  0  0  0  0  0  0  0  0  0
   22.0235  -20.3925  -13.7232 C   0  0  0  0  0  0  0  0  0  0  0  0
   22.4894  -19.7351  -14.9788 C   0  0  2  0  0  0  0  0  0  0  0  0
   23.9506  -19.5647  -14.8603 N   0  0  0  0  0  0  0  0  0  0  0  0
   21.9168  -18.3736  -15.0606 C   0  0  0  0  0  0  0  0  0  0  0  0
   20.7947  -18.0437  -15.8142 O   0  0  0  0  0  0  0  0  0  0  0  0
   22.4397  -17.4215  -14.4300 O   0  0  0  0  0  0  0  0  0  0  0  0
  2  1  1  0
  3  2  1  0
  4  3  1  0
  4  5  1  0
  5  1  1  0
  5  6  1  1
  6  7  2  0
  9  8  1  1
 10  9  1  0
 11  9  1  0
 12 11  1  6
 13  6  1  0
 13 12  1  0
 14 12  1  0
 14 15  2  0
 16 17  1  0
 17 19  1  0
 17 18  2  0
 19 20  1  0
 20 21  1  0
 21 22  1  0
 23 22  1  1
 23 24  1  0
 24 14  1  0
 25 23  1  0
 25 26  1  0
 27 25  2  0
M  END
$$$$
