PLR.pdb
     RDKit          3D

 27 27  0  0  1  0  0  0  0  0999 V2000
   30.7908  -21.4568   -9.8989 N   0  0  0  0  0  0  0  0  0  0  0  0
   32.2304  -21.2871   -9.8094 C   0  0  0  0  0  0  0  0  0  0  0  0
   32.7114  -22.6570   -9.3105 C   0  0  0  0  0  0  0  0  0  0  0  0
   31.6364  -22.9244   -8.2444 C   0  0  0  0  0  0  0  0  0  0  0  0
   30.4108  -22.4437   -8.9372 C   0  0  1  0  0  0  0  0  0  0  0  0
   29.3170  -22.0006   -8.0487 C   0  0  0  0  0  0  0  0  0  0  0  0
   28.7222  -22.8857   -7.3883 O   0  0  0  0  0  0  0  0  0  0  0  0
   29.2656  -18.2172   -4.2981 C   0  0  0  0  0  0  0  0  0  0  0  0
   29.0877  -19.5297   -5.0986 C   0  0  1  0  0  0  0  0  0  0  0  0
   28.7059  -20.5660   -4.0676 C   0  0  0  0  0  0  0  0  0  0  0  0
   28.0312  -19.2331   -6.0914 C   0  0  0  0  0  0  0  0  0  0  0  0
   27.7720  -20.1798   -7.1822 C   0  0  2  0  0  0  0  0  0  0  0  0
   28.9093  -20.6566   -7.9028 N   0  0  0  0  0  0  0  0  0  0  0  0
   26.5714  -19.8902   -8.0213 C   0  0  0  0  0  0  0  0  0  0  0  0
   26.1012  -18.7041   -8.0657 O   0  0  0  0  0  0  0  0  0  0  0  0
   26.8394  -22.8688  -15.7974 N   0  0  0  0  0  0  0  0  0  0  0  0
   25.7792  -21.9303  -15.9622 C   0  0  0  0  0  0  0  0  0  0  0  0
   25.4069  -21.6278  -17.1384 N   0  0  0  0  0  0  0  0  0  0  0  0
   25.1550  -21.3482  -14.8328 N   0  0  0  0  0  0  0  0  0  0  0  0
   25.5900  -21.7325  -13.5015 C   0  0  0  0  0  0  0  0  0  0  0  0
   24.9129  -20.8614  -12.4479 C   0  0  0  0  0  0  0  0  0  0  0  0
   25.5755  -21.1959  -11.1376 C   0  0  0  0  0  0  0  0  0  0  0  0
   25.0628  -20.4353   -9.9610 C   0  0  2  0  0  0  0  0  0  0  0  0
   25.8741  -20.8421   -8.7971 N   0  0  0  0  0  0  0  0  0  0  0  0
   23.6758  -20.8590   -9.6701 C   0  0  0  0  0  0  0  0  0  0  0  0
   22.5707  -20.4833  -10.4273 O   0  0  0  0  0  0  0  0  0  0  0  0
   23.4275  -21.6035   -8.6894 O   0  0  0  0  0  0  0  0  0  0  0  0
  2  1  1  0
  3  2  1  0
  4  3  1  0
  4  5  1  0
  5  1  1  0
  5  6  1  1
  6  7  2  0
  9  8  1  1
 10  9  1  0
 11  9  1  0
 12 11  1  6
 13  6  1  0
 13 12  1  0
 14 12  1  0
 14 15  2  0
 16 17  1  0
 17 19  1  0
 17 18  2  0
 19 20  1  0
 20 21  1  0
 21 22  1  0
 23 22  1  6
 23 24  1  0
 24 14  1  0
 25 23  1  0
 25 26  1  0
 27 25  2  0
M  END
$$$$
