PLR.pdb
     RDKit          3D

 27 27  0  0  1  0  0  0  0  0999 V2000
   27.4210  -19.1275  -15.1452 N   0  0  0  0  0  0  0  0  0  0  0  0
   28.8272  -18.7964  -14.9964 C   0  0  0  0  0  0  0  0  0  0  0  0
   29.5365  -19.9885  -15.6542 C   0  0  0  0  0  0  0  0  0  0  0  0
   28.6805  -21.1316  -15.0848 C   0  0  0  0  0  0  0  0  0  0  0  0
   27.3139  -20.5524  -15.1852 C   0  0  1  0  0  0  0  0  0  0  0  0
   26.3291  -21.0899  -14.2244 C   0  0  0  0  0  0  0  0  0  0  0  0
   25.8904  -22.2450  -14.4405 O   0  0  0  0  0  0  0  0  0  0  0  0
   26.0653  -19.8025   -8.7692 C   0  0  0  0  0  0  0  0  0  0  0  0
   26.2464  -20.5180  -10.1295 C   0  0  1  0  0  0  0  0  0  0  0  0
   26.6345  -21.9346   -9.7757 C   0  0  0  0  0  0  0  0  0  0  0  0
   24.9369  -20.3911  -10.8068 C   0  0  0  0  0  0  0  0  0  0  0  0
   24.8055  -20.7827  -12.2149 C   0  0  2  0  0  0  0  0  0  0  0  0
   25.8606  -20.3872  -13.0926 N   0  0  0  0  0  0  0  0  0  0  0  0
   23.4329  -20.6764  -12.7928 C   0  0  0  0  0  0  0  0  0  0  0  0
   23.0621  -19.5881  -13.3477 O   0  0  0  0  0  0  0  0  0  0  0  0
   16.3881  -23.3667  -16.0574 N   0  0  0  0  0  0  0  0  0  0  0  0
   17.1639  -24.4997  -16.4399 C   0  0  0  0  0  0  0  0  0  0  0  0
   16.5645  -25.5401  -16.8547 N   0  0  0  0  0  0  0  0  0  0  0  0
   18.5767  -24.4620  -16.3577 N   0  0  0  0  0  0  0  0  0  0  0  0
   19.2126  -24.3913  -15.0540 C   0  0  0  0  0  0  0  0  0  0  0  0
   19.4232  -22.9375  -14.6423 C   0  0  0  0  0  0  0  0  0  0  0  0
   20.7870  -22.8742  -14.0072 C   0  0  0  0  0  0  0  0  0  0  0  0
   21.1638  -21.5396  -13.4572 C   0  0  2  0  0  0  0  0  0  0  0  0
   22.4641  -21.7037  -12.7784 N   0  0  0  0  0  0  0  0  0  0  0  0
   20.1942  -21.1493  -12.4105 C   0  0  0  0  0  0  0  0  0  0  0  0
   18.9823  -20.5160  -12.6674 O   0  0  0  0  0  0  0  0  0  0  0  0
   20.4334  -21.3813  -11.1994 O   0  0  0  0  0  0  0  0  0  0  0  0
  2  1  1  0
  3  2  1  0
  4  3  1  0
  4  5  1  0
  5  1  1  0
  5  6  1  1
  6  7  2  0
  9  8  1  1
 10  9  1  0
 11  9  1  0
 12 11  1  1
 13  6  1  0
 13 12  1  0
 14 12  1  0
 14 15  2  0
 16 17  1  0
 17 19  1  0
 17 18  2  0
 19 20  1  0
 20 21  1  0
 21 22  1  0
 23 22  1  1
 23 24  1  0
 24 14  1  0
 25 23  1  0
 25 26  1  0
 27 25  2  0
M  END
$$$$
