PLR.pdb
     RDKit          3D

 27 27  0  0  1  0  0  0  0  0999 V2000
   31.0643  -21.3813   -9.8474 N   0  0  0  0  0  0  0  0  0  0  0  0
   32.4982  -21.3198   -9.6253 C   0  0  0  0  0  0  0  0  0  0  0  0
   32.8472  -22.7555   -9.2083 C   0  0  0  0  0  0  0  0  0  0  0  0
   31.6682  -23.0325   -8.2614 C   0  0  0  0  0  0  0  0  0  0  0  0
   30.5405  -22.4137   -9.0087 C   0  0  1  0  0  0  0  0  0  0  0  0
   29.4027  -21.9686   -8.1785 C   0  0  0  0  0  0  0  0  0  0  0  0
   28.6131  -22.8528   -7.7685 O   0  0  0  0  0  0  0  0  0  0  0  0
   29.3646  -18.2632   -4.1707 C   0  0  0  0  0  0  0  0  0  0  0  0
   29.2309  -19.5376   -5.0385 C   0  0  1  0  0  0  0  0  0  0  0  0
   28.8339  -20.6278   -4.0707 C   0  0  0  0  0  0  0  0  0  0  0  0
   28.2005  -19.2078   -6.0480 C   0  0  0  0  0  0  0  0  0  0  0  0
   27.9881  -20.1043   -7.1901 C   0  0  2  0  0  0  0  0  0  0  0  0
   29.1573  -20.6236   -7.8252 N   0  0  0  0  0  0  0  0  0  0  0  0
   26.8845  -19.7208   -8.1198 C   0  0  0  0  0  0  0  0  0  0  0  0
   26.7250  -18.4958   -8.4418 O   0  0  0  0  0  0  0  0  0  0  0  0
   23.6590  -22.7586  -14.4184 N   0  0  0  0  0  0  0  0  0  0  0  0
   24.4883  -21.9172  -15.2161 C   0  0  0  0  0  0  0  0  0  0  0  0
   24.0809  -21.5712  -16.3685 N   0  0  0  0  0  0  0  0  0  0  0  0
   25.7425  -21.4771  -14.7291 N   0  0  0  0  0  0  0  0  0  0  0  0
   26.1106  -21.7583  -13.3526 C   0  0  0  0  0  0  0  0  0  0  0  0
   25.2655  -20.9246  -12.3944 C   0  0  0  0  0  0  0  0  0  0  0  0
   25.8807  -21.0994  -11.0312 C   0  0  0  0  0  0  0  0  0  0  0  0
   25.2507  -20.2898   -9.9480 C   0  0  2  0  0  0  0  0  0  0  0  0
   25.9590  -20.6187   -8.6956 N   0  0  0  0  0  0  0  0  0  0  0  0
   23.8499  -20.7268   -9.7611 C   0  0  0  0  0  0  0  0  0  0  0  0
   22.8024  -20.3689  -10.6040 O   0  0  0  0  0  0  0  0  0  0  0  0
   23.5347  -21.4669   -8.7964 O   0  0  0  0  0  0  0  0  0  0  0  0
  2  1  1  0
  3  2  1  0
  4  3  1  0
  4  5  1  0
  5  1  1  0
  5  6  1  1
  6  7  2  0
  9  8  1  1
 10  9  1  0
 11  9  1  0
 12 11  1  6
 13  6  1  0
 13 12  1  0
 14 12  1  0
 14 15  2  0
 16 17  1  0
 17 19  1  0
 17 18  2  0
 19 20  1  0
 20 21  1  0
 21 22  1  0
 23 22  1  6
 23 24  1  0
 24 14  1  0
 25 23  1  0
 25 26  1  0
 27 25  2  0
M  END
$$$$
