GCV.pdb
     RDKit          3D

 18 17  0  0  1  0  0  0  0  0999 V2000
   12.8594   -9.6948   -7.9576 N   0  0  0  0  0  0  0  0  0  0  0  0
   13.2435   -9.7213   -9.3555 C   0  0  0  0  0  0  0  0  0  0  0  0
   13.5352   -8.3174   -9.7782 C   0  0  0  0  0  0  0  0  0  0  0  0
   12.6131   -7.4767   -9.8329 O   0  0  0  0  0  0  0  0  0  0  0  0
   14.8312   -7.8703  -10.1306 N   0  0  0  0  0  0  0  0  0  0  0  0
   15.0697   -6.4988  -10.4151 C   0  0  1  0  0  0  0  0  0  0  0  0
   15.9016   -5.7902   -9.3694 C   0  0  0  0  0  0  0  0  0  0  0  0
   17.2538   -6.8180   -8.7651 S   0  0  0  0  0  0  0  0  0  0  0  0
   15.8271   -6.4006  -11.6855 C   0  0  0  0  0  0  0  0  0  0  0  0
   16.5597   -7.3690  -12.0033 O   0  0  0  0  0  0  0  0  0  0  0  0
   16.4518   -4.8297  -16.2236 C   0  0  0  0  0  0  0  0  0  0  0  0
   15.6343   -4.9331  -14.9553 C   0  0  1  0  0  0  0  0  0  0  0  0
   14.6257   -6.0553  -15.0874 C   0  0  0  0  0  0  0  0  0  0  0  0
   16.4905   -5.2499  -13.7452 C   0  0  2  0  0  0  0  0  0  0  0  0
   15.7341   -5.2474  -12.5278 N   0  0  0  0  0  0  0  0  0  0  0  0
   17.5766   -4.2426  -13.6266 C   0  0  0  0  0  0  0  0  0  0  0  0
   18.8229   -4.5109  -14.1502 O   0  0  0  0  0  0  0  0  0  0  0  0
   17.4001   -3.1394  -13.0591 O   0  0  0  0  0  0  0  0  0  0  0  0
  1  2  1  0
  3  4  2  0
  3  2  1  0
  5  3  1  0
  6  5  1  0
  6  7  1  1
  8  7  1  0
  9  6  1  0
  9 15  1  0
 10  9  2  0
 12 11  1  6
 12 14  1  0
 13 12  1  0
 14 15  1  1
 14 16  1  0
 16 18  2  0
 16 17  1  0
M  END
$$$$
