GCV.pdb
     RDKit          3D

 18 17  0  0  1  0  0  0  0  0999 V2000
   19.8583  -16.0295  -16.8631 N   0  0  0  0  0  0  0  0  0  0  0  0
   20.5858  -14.9607  -17.5195 C   0  0  0  0  0  0  0  0  0  0  0  0
   21.1258  -14.0547  -16.4601 C   0  0  0  0  0  0  0  0  0  0  0  0
   20.4217  -13.7597  -15.4715 O   0  0  0  0  0  0  0  0  0  0  0  0
   22.4248  -13.4946  -16.5112 N   0  0  0  0  0  0  0  0  0  0  0  0
   22.8491  -12.5632  -15.5256 C   0  0  1  0  0  0  0  0  0  0  0  0
   24.3441  -12.5502  -15.2963 C   0  0  0  0  0  0  0  0  0  0  0  0
   24.9580  -14.1451  -14.7222 S   0  0  0  0  0  0  0  0  0  0  0  0
   22.4853  -11.1977  -15.9729 C   0  0  0  0  0  0  0  0  0  0  0  0
   22.8456  -10.8458  -17.1227 O   0  0  0  0  0  0  0  0  0  0  0  0
   19.0171   -9.2919  -14.8486 C   0  0  0  0  0  0  0  0  0  0  0  0
   19.9031   -8.9674  -16.0307 C   0  0  1  0  0  0  0  0  0  0  0  0
   19.6252   -7.5563  -16.5056 C   0  0  0  0  0  0  0  0  0  0  0  0
   21.3760   -9.0322  -15.6785 C   0  0  2  0  0  0  0  0  0  0  0  0
   21.7494  -10.3034  -15.1321 N   0  0  0  0  0  0  0  0  0  0  0  0
   21.6957   -7.9786  -14.6804 C   0  0  0  0  0  0  0  0  0  0  0  0
   21.8099   -6.6647  -15.0805 O   0  0  0  0  0  0  0  0  0  0  0  0
   21.8686   -8.2432  -13.4678 O   0  0  0  0  0  0  0  0  0  0  0  0
  1  2  1  0
  3  4  2  0
  3  2  1  0
  5  3  1  0
  6  5  1  0
  6  7  1  6
  8  7  1  0
  9  6  1  0
  9 15  1  0
 10  9  2  0
 12 11  1  1
 12 14  1  0
 13 12  1  0
 14 15  1  1
 14 16  1  0
 16 18  2  0
 16 17  1  0
M  END
$$$$
