GCV.pdb
     RDKit          3D

 18 17  0  0  1  0  0  0  0  0999 V2000
   21.7141  -22.7416   -7.0705 N   0  0  0  0  0  0  0  0  0  0  0  0
   20.3021  -22.4223   -6.9874 C   0  0  0  0  0  0  0  0  0  0  0  0
   19.5381  -23.7068   -7.0211 C   0  0  0  0  0  0  0  0  0  0  0  0
   20.0349  -24.7154   -7.5651 O   0  0  0  0  0  0  0  0  0  0  0  0
   18.2480  -23.8532   -6.4573 N   0  0  0  0  0  0  0  0  0  0  0  0
   17.6445  -25.1357   -6.3576 C   0  0  1  0  0  0  0  0  0  0  0  0
   16.8290  -25.3345   -5.0994 C   0  0  0  0  0  0  0  0  0  0  0  0
   17.8116  -26.0227   -3.7537 S   0  0  0  0  0  0  0  0  0  0  0  0
   16.7073  -25.3104   -7.4926 C   0  0  0  0  0  0  0  0  0  0  0  0
   15.9171  -24.3686   -7.7460 O   0  0  0  0  0  0  0  0  0  0  0  0
   17.9880  -26.4186  -10.9871 C   0  0  0  0  0  0  0  0  0  0  0  0
   16.7111  -27.1520  -10.6416 C   0  0  1  0  0  0  0  0  0  0  0  0
   17.0370  -28.5601  -10.1887 C   0  0  0  0  0  0  0  0  0  0  0  0
   15.9569  -26.4872   -9.5071 C   0  0  2  0  0  0  0  0  0  0  0  0
   16.6946  -26.5063   -8.2785 N   0  0  0  0  0  0  0  0  0  0  0  0
   14.6643  -27.1880   -9.2910 C   0  0  0  0  0  0  0  0  0  0  0  0
   13.6700  -27.1046  -10.2417 O   0  0  0  0  0  0  0  0  0  0  0  0
   14.4395  -27.8635   -8.2598 O   0  0  0  0  0  0  0  0  0  0  0  0
  1  2  1  0
  3  4  2  0
  3  2  1  0
  5  3  1  0
  6  5  1  0
  6  7  1  1
  8  7  1  0
  9  6  1  0
  9 15  1  0
 10  9  2  0
 12 11  1  1
 12 14  1  0
 13 12  1  0
 14 15  1  1
 14 16  1  0
 16 18  2  0
 16 17  1  0
M  END
$$$$
