GCV.pdb
     RDKit          3D

 18 17  0  0  1  0  0  0  0  0999 V2000
   17.7094   -9.9932  -17.6028 N   0  0  0  0  0  0  0  0  0  0  0  0
   18.7811  -10.5856  -16.8263 C   0  0  0  0  0  0  0  0  0  0  0  0
   19.1238   -9.6400  -15.7204 C   0  0  0  0  0  0  0  0  0  0  0  0
   18.2620   -9.3348  -14.8693 O   0  0  0  0  0  0  0  0  0  0  0  0
   20.4034   -9.0524  -15.5752 N   0  0  0  0  0  0  0  0  0  0  0  0
   20.6645   -8.1424  -14.5157 C   0  0  1  0  0  0  0  0  0  0  0  0
   21.8783   -8.4975  -13.6861 C   0  0  0  0  0  0  0  0  0  0  0  0
   22.2088   -7.2727  -12.4053 S   0  0  0  0  0  0  0  0  0  0  0  0
   20.9326   -6.8037  -15.0929 C   0  0  0  0  0  0  0  0  0  0  0  0
   21.7386   -6.7339  -16.0528 O   0  0  0  0  0  0  0  0  0  0  0  0
   19.7051   -2.1790  -16.0385 C   0  0  0  0  0  0  0  0  0  0  0  0
   19.3724   -3.5230  -15.4298 C   0  0  1  0  0  0  0  0  0  0  0  0
   18.4572   -4.2926  -16.3594 C   0  0  0  0  0  0  0  0  0  0  0  0
   20.6061   -4.3780  -15.2180 C   0  0  2  0  0  0  0  0  0  0  0  0
   20.3009   -5.6256  -14.5821 N   0  0  0  0  0  0  0  0  0  0  0  0
   21.5809   -3.6435  -14.3701 C   0  0  0  0  0  0  0  0  0  0  0  0
   22.5510   -2.8612  -14.9586 O   0  0  0  0  0  0  0  0  0  0  0  0
   21.5545   -3.7092  -13.1191 O   0  0  0  0  0  0  0  0  0  0  0  0
  1  2  1  0
  3  4  2  0
  3  2  1  0
  5  3  1  0
  6  5  1  0
  6  7  1  6
  8  7  1  0
  9  6  1  0
  9 15  1  0
 10  9  2  0
 12 11  1  6
 12 14  1  0
 13 12  1  0
 14 15  1  1
 14 16  1  0
 16 18  2  0
 16 17  1  0
M  END
$$$$
