GCV.pdb
     RDKit          3D

 18 17  0  0  1  0  0  0  0  0999 V2000
   16.0794  -13.4006  -17.1128 N   0  0  0  0  0  0  0  0  0  0  0  0
   15.1642  -12.2920  -16.9238 C   0  0  0  0  0  0  0  0  0  0  0  0
   15.8528  -11.2665  -16.0818 C   0  0  0  0  0  0  0  0  0  0  0  0
   15.3460  -10.9038  -14.9993 O   0  0  0  0  0  0  0  0  0  0  0  0
   17.0804  -10.6642  -16.4479 N   0  0  0  0  0  0  0  0  0  0  0  0
   17.7093   -9.7249  -15.5870 C   0  0  1  0  0  0  0  0  0  0  0  0
   19.2163   -9.8452  -15.5430 C   0  0  0  0  0  0  0  0  0  0  0  0
   19.9650   -8.6193  -14.4537 S   0  0  0  0  0  0  0  0  0  0  0  0
   17.4156   -8.3576  -16.0784 C   0  0  0  0  0  0  0  0  0  0  0  0
   17.6983   -8.0944  -17.2727 O   0  0  0  0  0  0  0  0  0  0  0  0
   14.8552   -4.2707  -16.1712 C   0  0  0  0  0  0  0  0  0  0  0  0
   15.1316   -5.6340  -15.5776 C   0  0  1  0  0  0  0  0  0  0  0  0
   14.2440   -6.6685  -16.2379 C   0  0  0  0  0  0  0  0  0  0  0  0
   16.5645   -6.0763  -15.7992 C   0  0  2  0  0  0  0  0  0  0  0  0
   16.8304   -7.3646  -15.2302 N   0  0  0  0  0  0  0  0  0  0  0  0
   17.4905   -5.0899  -15.1844 C   0  0  0  0  0  0  0  0  0  0  0  0
   17.8404   -3.9511  -15.8774 O   0  0  0  0  0  0  0  0  0  0  0  0
   17.9739   -5.2563  -14.0404 O   0  0  0  0  0  0  0  0  0  0  0  0
  1  2  1  0
  3  4  2  0
  3  2  1  0
  5  3  1  0
  6  5  1  0
  6  7  1  6
  8  7  1  0
  9  6  1  0
  9 15  1  0
 10  9  2  0
 12 11  1  6
 12 14  1  0
 13 12  1  0
 14 15  1  1
 14 16  1  0
 16 18  2  0
 16 17  1  0
M  END
$$$$
