GCV.pdb
     RDKit          3D

 18 17  0  0  1  0  0  0  0  0999 V2000
   20.6657  -22.0776   -7.0106 N   0  0  0  0  0  0  0  0  0  0  0  0
   22.0400  -22.4501   -7.2843 C   0  0  0  0  0  0  0  0  0  0  0  0
   22.6234  -21.4168   -8.1936 C   0  0  0  0  0  0  0  0  0  0  0  0
   21.9182  -20.4667   -8.5940 O   0  0  0  0  0  0  0  0  0  0  0  0
   23.9658  -21.4511   -8.6412 N   0  0  0  0  0  0  0  0  0  0  0  0
   24.4749  -20.4215   -9.4777 C   0  0  1  0  0  0  0  0  0  0  0  0
   25.9671  -20.2092   -9.3514 C   0  0  0  0  0  0  0  0  0  0  0  0
   26.3774  -19.0109   -8.0685 S   0  0  0  0  0  0  0  0  0  0  0  0
   24.2256  -20.7897  -10.8917 C   0  0  0  0  0  0  0  0  0  0  0  0
   24.6001  -21.9257  -11.2726 O   0  0  0  0  0  0  0  0  0  0  0  0
   21.6313  -20.3904  -15.0089 C   0  0  0  0  0  0  0  0  0  0  0  0
   21.9107  -19.9469  -13.5901 C   0  0  1  0  0  0  0  0  0  0  0  0
   20.9059  -20.5794  -12.6497 C   0  0  0  0  0  0  0  0  0  0  0  0
   23.2864  -20.3721  -13.1166 C   0  0  2  0  0  0  0  0  0  0  0  0
   23.5815  -19.8903  -11.7994 N   0  0  0  0  0  0  0  0  0  0  0  0
   24.3176  -19.8502  -14.0508 C   0  0  0  0  0  0  0  0  0  0  0  0
   24.5013  -20.4515  -15.2772 O   0  0  0  0  0  0  0  0  0  0  0  0
   25.0392  -18.8674  -13.7615 O   0  0  0  0  0  0  0  0  0  0  0  0
  1  2  1  0
  3  4  2  0
  3  2  1  0
  5  3  1  0
  6  5  1  0
  6  7  1  6
  8  7  1  0
  9  6  1  0
  9 15  1  0
 10  9  2  0
 12 11  1  6
 12 14  1  0
 13 12  1  0
 14 15  1  1
 14 16  1  0
 16 18  2  0
 16 17  1  0
M  END
$$$$
