ADI.pdb
     RDKit          3D

 22 21  0  0  1  0  0  0  0  0999 V2000
    8.1953  -12.2210   19.4707 C   0  0  0  0  0  0  0  0  0  0  0  0
    8.3190  -13.6875   19.0503 C   0  0  2  0  0  0  0  0  0  0  0  0
    7.1867  -13.9523   18.1675 N   0  0  0  0  0  0  0  0  0  0  0  0
    8.2702  -14.5803   20.2369 C   0  0  0  0  0  0  0  0  0  0  0  0
    7.1411  -14.8934   20.7137 O   0  0  0  0  0  0  0  0  0  0  0  0
    9.4126  -15.1059   20.8714 N   0  0  0  0  0  0  0  0  0  0  0  0
    9.2261  -16.0740   22.0067 C   0  0  1  0  0  0  0  0  0  0  0  0
   10.4546  -16.9451   21.8746 C   0  0  0  0  0  0  0  0  0  0  0  0
   10.2982  -18.3117   21.4606 C   0  0  0  0  0  0  0  0  0  0  0  0
    9.5824  -18.8068   20.5722 O   0  0  0  0  0  0  0  0  0  0  0  0
    9.2933  -15.3202   23.2602 C   0  0  0  0  0  0  0  0  0  0  0  0
   10.2608  -14.4775   23.3901 O   0  0  0  0  0  0  0  0  0  0  0  0
   11.0753  -19.2792   22.1624 O   0  0  0  0  0  0  0  0  0  0  0  0
    6.6795  -11.7495   27.3584 C   0  0  0  0  0  0  0  0  0  0  0  0
    7.7371  -12.7442   27.0664 C   0  0  0  0  0  0  0  0  0  0  0  0
    7.5308  -13.6315   25.8923 C   0  0  2  0  0  0  0  0  0  0  0  0
    6.1560  -14.2887   25.8814 C   0  0  0  0  0  0  0  0  0  0  0  0
    8.6338  -14.5822   25.5764 C   0  0  2  0  0  0  0  0  0  0  0  0
    8.4404  -15.3683   24.3752 N   0  0  0  0  0  0  0  0  0  0  0  0
    8.8067  -15.5032   26.7299 C   0  0  0  0  0  0  0  0  0  0  0  0
    9.3902  -15.1098   27.9232 O   0  0  0  0  0  0  0  0  0  0  0  0
    8.4197  -16.7049   26.6640 O   0  0  0  0  0  0  0  0  0  0  0  0
  2  1  1  1
  2  3  1  0
  4  2  1  0
  5  4  2  0
  6  4  1  0
  7  6  1  0
  7 11  1  0
  7  8  1  1
  9 10  2  0
  9  8  1  0
 11 12  2  0
 11 19  1  0
 13  9  1  0
 15 14  1  0
 16 15  1  0
 16 17  1  1
 18 16  1  0
 18 20  1  0
 18 19  1  6
 20 21  1  0
 22 20  2  0
M  END
$$$$
