ADI.pdb
     RDKit          3D

 22 21  0  0  1  0  0  0  0  0999 V2000
    7.2584  -13.1275   18.6103 C   0  0  0  0  0  0  0  0  0  0  0  0
    8.4655  -13.2263   19.5461 C   0  0  2  0  0  0  0  0  0  0  0  0
    9.5553  -13.7750   18.7443 N   0  0  0  0  0  0  0  0  0  0  0  0
    8.1678  -14.1194   20.6955 C   0  0  0  0  0  0  0  0  0  0  0  0
    7.1671  -13.8570   21.4235 O   0  0  0  0  0  0  0  0  0  0  0  0
    8.9364  -15.2513   21.0298 N   0  0  0  0  0  0  0  0  0  0  0  0
    8.4844  -16.1186   22.1719 C   0  0  1  0  0  0  0  0  0  0  0  0
    9.3141  -17.3646   21.9606 C   0  0  0  0  0  0  0  0  0  0  0  0
    8.8206  -18.3896   21.0835 C   0  0  0  0  0  0  0  0  0  0  0  0
    7.7986  -18.4197   20.3753 O   0  0  0  0  0  0  0  0  0  0  0  0
    8.8870  -15.4687   23.4208 C   0  0  0  0  0  0  0  0  0  0  0  0
   10.0982  -15.0319   23.4942 O   0  0  0  0  0  0  0  0  0  0  0  0
    9.6070  -19.5749   20.9886 O   0  0  0  0  0  0  0  0  0  0  0  0
    5.7906  -11.9054   26.0658 C   0  0  0  0  0  0  0  0  0  0  0  0
    6.8898  -12.6993   25.4701 C   0  0  0  0  0  0  0  0  0  0  0  0
    7.6528  -13.5937   26.3792 C   0  0  2  0  0  0  0  0  0  0  0  0
    8.2227  -12.8620   27.5882 C   0  0  0  0  0  0  0  0  0  0  0  0
    8.6352  -14.5116   25.7370 C   0  0  2  0  0  0  0  0  0  0  0  0
    8.1367  -15.2344   24.5849 N   0  0  0  0  0  0  0  0  0  0  0  0
    9.0992  -15.4911   26.7539 C   0  0  0  0  0  0  0  0  0  0  0  0
    8.5819  -16.7725   26.8522 O   0  0  0  0  0  0  0  0  0  0  0  0
   10.0020  -15.1853   27.5844 O   0  0  0  0  0  0  0  0  0  0  0  0
  2  1  1  6
  2  3  1  0
  4  2  1  0
  5  4  2  0
  6  4  1  0
  7  6  1  0
  7 11  1  0
  7  8  1  6
  9 10  2  0
  9  8  1  0
 11 12  2  0
 11 19  1  0
 13  9  1  0
 15 14  1  0
 16 15  1  0
 16 17  1  1
 18 16  1  0
 18 20  1  0
 18 19  1  6
 20 21  1  0
 22 20  2  0
M  END
$$$$
