ADI.pdb
     RDKit          3D

 22 21  0  0  1  0  0  0  0  0999 V2000
    7.9447  -12.2232   19.3733 C   0  0  0  0  0  0  0  0  0  0  0  0
    8.2726  -13.6779   19.0290 C   0  0  2  0  0  0  0  0  0  0  0  0
    7.3476  -14.0606   17.9662 N   0  0  0  0  0  0  0  0  0  0  0  0
    8.0887  -14.5532   20.2154 C   0  0  0  0  0  0  0  0  0  0  0  0
    6.9666  -15.1109   20.3889 O   0  0  0  0  0  0  0  0  0  0  0  0
    9.0943  -14.8044   21.1691 N   0  0  0  0  0  0  0  0  0  0  0  0
    8.8029  -15.7646   22.2889 C   0  0  1  0  0  0  0  0  0  0  0  0
    9.8493  -16.8316   22.0609 C   0  0  0  0  0  0  0  0  0  0  0  0
    9.9593  -17.9118   23.0014 C   0  0  0  0  0  0  0  0  0  0  0  0
    9.2706  -18.1817   24.0013 O   0  0  0  0  0  0  0  0  0  0  0  0
    9.0709  -15.0790   23.5546 C   0  0  0  0  0  0  0  0  0  0  0  0
   10.1954  -14.4566   23.6613 O   0  0  0  0  0  0  0  0  0  0  0  0
   11.0184  -18.8398   22.7794 O   0  0  0  0  0  0  0  0  0  0  0  0
    5.5995  -12.1911   27.0457 C   0  0  0  0  0  0  0  0  0  0  0  0
    6.3842  -13.3160   26.4869 C   0  0  0  0  0  0  0  0  0  0  0  0
    7.8250  -13.0719   26.2164 C   0  0  2  0  0  0  0  0  0  0  0  0
    8.0584  -11.9164   25.2508 C   0  0  0  0  0  0  0  0  0  0  0  0
    8.6540  -14.2697   25.9032 C   0  0  2  0  0  0  0  0  0  0  0  0
    8.2690  -14.9853   24.7040 N   0  0  0  0  0  0  0  0  0  0  0  0
    8.5909  -15.2016   27.0592 C   0  0  0  0  0  0  0  0  0  0  0  0
    8.0378  -16.4687   26.9721 O   0  0  0  0  0  0  0  0  0  0  0  0
    9.0493  -14.8660   28.1886 O   0  0  0  0  0  0  0  0  0  0  0  0
  2  1  1  1
  2  3  1  0
  4  2  1  0
  5  4  2  0
  6  4  1  0
  7  6  1  0
  7 11  1  0
  7  8  1  6
  9 10  2  0
  9  8  1  0
 11 12  2  0
 11 19  1  0
 13  9  1  0
 15 14  1  0
 16 15  1  0
 16 17  1  6
 18 16  1  0
 18 20  1  0
 18 19  1  6
 20 21  1  0
 22 20  2  0
M  END
$$$$
