ADI.pdb
     RDKit          3D

 22 21  0  0  1  0  0  0  0  0999 V2000
    8.2354  -12.4097   19.3123 C   0  0  0  0  0  0  0  0  0  0  0  0
    8.4868  -13.8815   18.9761 C   0  0  2  0  0  0  0  0  0  0  0  0
    7.5538  -14.2168   17.9043 N   0  0  0  0  0  0  0  0  0  0  0  0
    8.2423  -14.7410   20.1630 C   0  0  0  0  0  0  0  0  0  0  0  0
    7.0482  -15.0185   20.4747 O   0  0  0  0  0  0  0  0  0  0  0  0
    9.2658  -15.2722   20.9719 N   0  0  0  0  0  0  0  0  0  0  0  0
    8.8849  -16.1268   22.1489 C   0  0  1  0  0  0  0  0  0  0  0  0
    9.9454  -17.2033   22.1049 C   0  0  0  0  0  0  0  0  0  0  0  0
   11.3294  -16.8184   22.1111 C   0  0  0  0  0  0  0  0  0  0  0  0
   11.8509  -15.6899   22.1505 O   0  0  0  0  0  0  0  0  0  0  0  0
    9.0513  -15.3255   23.3630 C   0  0  0  0  0  0  0  0  0  0  0  0
    9.9300  -14.3820   23.3308 O   0  0  0  0  0  0  0  0  0  0  0  0
   12.2820  -17.8780   22.0653 O   0  0  0  0  0  0  0  0  0  0  0  0
    6.6672  -11.5094   27.2082 C   0  0  0  0  0  0  0  0  0  0  0  0
    7.6488  -12.6111   27.0818 C   0  0  0  0  0  0  0  0  0  0  0  0
    7.4783  -13.5462   25.9394 C   0  0  2  0  0  0  0  0  0  0  0  0
    6.1015  -14.1984   25.9088 C   0  0  0  0  0  0  0  0  0  0  0  0
    8.5868  -14.5131   25.7015 C   0  0  2  0  0  0  0  0  0  0  0  0
    8.3800  -15.4223   24.5930 N   0  0  0  0  0  0  0  0  0  0  0  0
    8.7936  -15.3067   26.9409 C   0  0  0  0  0  0  0  0  0  0  0  0
    8.5188  -16.6623   27.0184 O   0  0  0  0  0  0  0  0  0  0  0  0
    9.2375  -14.7632   27.9926 O   0  0  0  0  0  0  0  0  0  0  0  0
  2  1  1  1
  2  3  1  0
  4  2  1  0
  5  4  2  0
  6  4  1  0
  7  6  1  0
  7 11  1  0
  7  8  1  1
  9 10  2  0
  9  8  1  0
 11 12  2  0
 11 19  1  0
 13  9  1  0
 15 14  1  0
 16 15  1  0
 16 17  1  1
 18 16  1  0
 18 20  1  0
 18 19  1  6
 20 21  1  0
 22 20  2  0
M  END
$$$$
