ADI.pdb
     RDKit          3D

 22 21  0  0  1  0  0  0  0  0999 V2000
    7.0167  -13.1895   18.8594 C   0  0  0  0  0  0  0  0  0  0  0  0
    8.2886  -13.2833   19.7055 C   0  0  2  0  0  0  0  0  0  0  0  0
    9.3261  -13.8040   18.8202 N   0  0  0  0  0  0  0  0  0  0  0  0
    8.0860  -14.1971   20.8593 C   0  0  0  0  0  0  0  0  0  0  0  0
    7.1298  -13.9662   21.6547 O   0  0  0  0  0  0  0  0  0  0  0  0
    8.8990  -15.3158   21.1270 N   0  0  0  0  0  0  0  0  0  0  0  0
    8.5133  -16.2351   22.2526 C   0  0  1  0  0  0  0  0  0  0  0  0
    9.3783  -17.4434   21.9747 C   0  0  0  0  0  0  0  0  0  0  0  0
    9.3661  -18.5377   22.9052 C   0  0  0  0  0  0  0  0  0  0  0  0
    8.5740  -18.8017   23.8270 O   0  0  0  0  0  0  0  0  0  0  0  0
    8.9322  -15.6122   23.5098 C   0  0  0  0  0  0  0  0  0  0  0  0
   10.1632  -15.2381   23.6008 O   0  0  0  0  0  0  0  0  0  0  0  0
   10.4184  -19.4908   22.7762 O   0  0  0  0  0  0  0  0  0  0  0  0
    6.0940  -11.7820   25.8570 C   0  0  0  0  0  0  0  0  0  0  0  0
    7.1815  -12.6648   25.3760 C   0  0  0  0  0  0  0  0  0  0  0  0
    7.8012  -13.5825   26.3671 C   0  0  2  0  0  0  0  0  0  0  0  0
    8.4041  -12.8476   27.5581 C   0  0  0  0  0  0  0  0  0  0  0  0
    8.6958  -14.6422   25.8223 C   0  0  2  0  0  0  0  0  0  0  0  0
    8.1799  -15.3450   24.6654 N   0  0  0  0  0  0  0  0  0  0  0  0
    8.9691  -15.6281   26.9002 C   0  0  0  0  0  0  0  0  0  0  0  0
    9.9361  -15.4287   27.8719 O   0  0  0  0  0  0  0  0  0  0  0  0
    8.3156  -16.7080   26.9723 O   0  0  0  0  0  0  0  0  0  0  0  0
  2  1  1  6
  2  3  1  0
  4  2  1  0
  5  4  2  0
  6  4  1  0
  7  6  1  0
  7 11  1  0
  7  8  1  6
  9 10  2  0
  9  8  1  0
 11 12  2  0
 11 19  1  0
 13  9  1  0
 15 14  1  0
 16 15  1  0
 16 17  1  1
 18 16  1  0
 18 20  1  0
 18 19  1  6
 20 21  1  0
 22 20  2  0
M  END
$$$$
