ADI.pdb
     RDKit          3D

 22 21  0  0  1  0  0  0  0  0999 V2000
   10.0847  -17.3392   18.5211 C   0  0  0  0  0  0  0  0  0  0  0  0
   10.7004  -17.0542   19.8931 C   0  0  2  0  0  0  0  0  0  0  0  0
   11.2805  -18.3151   20.3461 N   0  0  0  0  0  0  0  0  0  0  0  0
    9.6623  -16.5890   20.8487 C   0  0  0  0  0  0  0  0  0  0  0  0
    9.0850  -15.4855   20.6266 O   0  0  0  0  0  0  0  0  0  0  0  0
    9.2756  -17.3055   21.9981 N   0  0  0  0  0  0  0  0  0  0  0  0
    8.0762  -16.8340   22.7727 C   0  0  1  0  0  0  0  0  0  0  0  0
    7.5487  -18.1303   23.3444 C   0  0  0  0  0  0  0  0  0  0  0  0
    6.6599  -18.9315   22.5496 C   0  0  0  0  0  0  0  0  0  0  0  0
    6.1879  -20.0623   22.7625 O   0  0  0  0  0  0  0  0  0  0  0  0
    8.5487  -15.9758   23.8609 C   0  0  0  0  0  0  0  0  0  0  0  0
    9.7805  -16.1045   24.2207 O   0  0  0  0  0  0  0  0  0  0  0  0
    6.2331  -18.3665   21.3123 O   0  0  0  0  0  0  0  0  0  0  0  0
    5.6919  -12.0489   27.3132 C   0  0  0  0  0  0  0  0  0  0  0  0
    6.4270  -13.2330   26.8125 C   0  0  0  0  0  0  0  0  0  0  0  0
    7.6601  -12.9837   26.0214 C   0  0  2  0  0  0  0  0  0  0  0  0
    7.4371  -12.0127   24.8683 C   0  0  0  0  0  0  0  0  0  0  0  0
    8.4508  -14.1838   25.6282 C   0  0  2  0  0  0  0  0  0  0  0  0
    7.8514  -15.0008   24.5931 N   0  0  0  0  0  0  0  0  0  0  0  0
    8.6669  -15.0220   26.8363 C   0  0  0  0  0  0  0  0  0  0  0  0
    9.5248  -14.6553   27.8603 O   0  0  0  0  0  0  0  0  0  0  0  0
    8.0633  -16.1239   26.9775 O   0  0  0  0  0  0  0  0  0  0  0  0
  2  1  1  6
  2  3  1  0
  4  2  1  0
  5  4  2  0
  6  4  1  0
  7  6  1  0
  7 11  1  0
  7  8  1  1
  9 10  2  0
  9  8  1  0
 11 12  2  0
 11 19  1  0
 13  9  1  0
 15 14  1  0
 16 15  1  0
 16 17  1  6
 18 16  1  0
 18 20  1  0
 18 19  1  6
 20 21  1  0
 22 20  2  0
M  END
$$$$
