QMY.pdb
     RDKit          3D

 30 30  0  0  1  0  0  0  0  0999 V2000
   24.6067  -18.1082  -17.7497 N   0  0  0  0  0  0  0  0  0  0  0  0
   25.8207  -17.3563  -17.9248 C   0  0  0  0  0  0  0  0  0  0  0  0
   26.0153  -16.6313  -18.9119 O   0  0  0  0  0  0  0  0  0  0  0  0
   26.8369  -17.4856  -16.8676 C   0  0  0  0  0  0  0  0  0  0  0  0
   26.2772  -18.3293  -15.7544 C   0  0  0  0  0  0  0  0  0  0  0  0
   27.2672  -19.3414  -15.2285 C   0  0  2  0  0  0  0  0  0  0  0  0
   27.8875  -20.0158  -16.3406 N   0  0  0  0  0  0  0  0  0  0  0  0
   26.6215  -20.2634  -14.2863 C   0  0  0  0  0  0  0  0  0  0  0  0
   25.9834  -21.2797  -14.6526 O   0  0  0  0  0  0  0  0  0  0  0  0
   27.6328  -21.1006   -7.5191 C   0  0  0  0  0  0  0  0  0  0  0  0
   25.8796  -20.7453   -7.8519 S   0  0  0  0  0  0  0  0  0  0  0  0
   25.5464  -21.2458   -9.5724 C   0  0  0  0  0  0  0  0  0  0  0  0
   26.2536  -20.3745  -10.5519 C   0  0  0  0  0  0  0  0  0  0  0  0
   25.9195  -20.8157  -11.9545 C   0  0  2  0  0  0  0  0  0  0  0  0
   26.6990  -20.0297  -12.8824 N   0  0  0  0  0  0  0  0  0  0  0  0
   24.4760  -20.5588  -12.1844 C   0  0  0  0  0  0  0  0  0  0  0  0
   24.0510  -19.3740  -12.3868 O   0  0  0  0  0  0  0  0  0  0  0  0
   16.8567  -18.2552  -14.0391 O   0  0  0  0  0  0  0  0  0  0  0  0
   18.1582  -18.6585  -13.6989 C   0  0  0  0  0  0  0  0  0  0  0  0
   18.7549  -18.1989  -12.5421 C   0  0  0  0  0  0  0  0  0  0  0  0
   20.0354  -18.6199  -12.2450 C   0  0  0  0  0  0  0  0  0  0  0  0
   20.6977  -19.4953  -13.1125 C   0  0  0  0  0  0  0  0  0  0  0  0
   22.0488  -19.9105  -12.7539 C   0  0  0  0  0  0  0  0  0  0  0  0
   22.1605  -21.3718  -12.3941 C   0  0  2  0  0  0  0  0  0  0  0  0
   23.5603  -21.6464  -12.1784 N   0  0  0  0  0  0  0  0  0  0  0  0
   21.5919  -22.2612  -13.4062 C   0  0  0  0  0  0  0  0  0  0  0  0
   22.3767  -23.1094  -14.1486 O   0  0  0  0  0  0  0  0  0  0  0  0
   20.1104  -19.9579  -14.2670 C   0  0  0  0  0  0  0  0  0  0  0  0
   18.8305  -19.5272  -14.5486 C   0  0  0  0  0  0  0  0  0  0  0  0
   20.3518  -22.2495  -13.6024 O   0  0  0  0  0  0  0  0  0  0  0  0
  2  4  1  0
  2  1  1  0
  3  2  2  0
  5  6  1  0
  5  4  1  0
  6  7  1  6
  8 15  1  0
  8  6  1  0
  9  8  2  0
 10 11  1  0
 11 12  1  0
 12 13  1  0
 14 15  1  0
 14 13  1  1
 16 14  1  0
 17 16  2  0
 18 19  1  0
 19 20  2  0
 19 29  1  0
 20 21  1  0
 21 22  2  0
 22 23  1  0
 24 23  1  6
 24 25  1  0
 25 16  1  0
 26 27  1  0
 26 24  1  0
 28 22  1  0
 29 28  2  0
 30 26  2  0
M  END
$$$$
