QMY.pdb
     RDKit          3D

 30 30  0  0  1  0  0  0  0  0999 V2000
   20.7873  -19.0686  -14.3714 N   0  0  0  0  0  0  0  0  0  0  0  0
   19.4748  -19.0032  -14.9569 C   0  0  0  0  0  0  0  0  0  0  0  0
   18.7938  -20.0168  -15.1730 O   0  0  0  0  0  0  0  0  0  0  0  0
   18.9668  -17.6631  -15.2935 C   0  0  0  0  0  0  0  0  0  0  0  0
   20.0039  -16.6401  -14.9163 C   0  0  0  0  0  0  0  0  0  0  0  0
   20.1391  -15.5355  -15.9374 C   0  0  2  0  0  0  0  0  0  0  0  0
   20.6847  -16.0823  -17.1538 N   0  0  0  0  0  0  0  0  0  0  0  0
   20.9331  -14.4230  -15.4019 C   0  0  0  0  0  0  0  0  0  0  0  0
   20.6518  -13.8362  -14.3292 O   0  0  0  0  0  0  0  0  0  0  0  0
   27.2240  -16.0165  -14.9645 C   0  0  0  0  0  0  0  0  0  0  0  0
   26.6051  -14.5992  -15.9232 S   0  0  0  0  0  0  0  0  0  0  0  0
   24.9142  -14.2515  -15.3387 C   0  0  0  0  0  0  0  0  0  0  0  0
   24.3145  -13.0800  -16.0364 C   0  0  0  0  0  0  0  0  0  0  0  0
   22.8939  -12.8862  -15.5695 C   0  0  2  0  0  0  0  0  0  0  0  0
   22.0841  -13.9573  -16.1017 N   0  0  0  0  0  0  0  0  0  0  0  0
   22.4082  -11.5900  -16.1050 C   0  0  0  0  0  0  0  0  0  0  0  0
   22.1262  -11.4626  -17.3417 O   0  0  0  0  0  0  0  0  0  0  0  0
   17.7803   -4.9267  -18.1980 O   0  0  0  0  0  0  0  0  0  0  0  0
   18.4512   -6.0777  -17.7541 C   0  0  0  0  0  0  0  0  0  0  0  0
   19.4521   -6.6444  -18.5176 C   0  0  0  0  0  0  0  0  0  0  0  0
   20.0861   -7.7754  -18.0445 C   0  0  0  0  0  0  0  0  0  0  0  0
   19.7068   -8.3208  -16.8132 C   0  0  0  0  0  0  0  0  0  0  0  0
   20.4071   -9.5161  -16.3576 C   0  0  0  0  0  0  0  0  0  0  0  0
   21.7675   -9.2359  -15.7673 C   0  0  2  0  0  0  0  0  0  0  0  0
   22.2568  -10.4813  -15.2280 N   0  0  0  0  0  0  0  0  0  0  0  0
   21.7511   -8.1840  -14.7514 C   0  0  0  0  0  0  0  0  0  0  0  0
   21.9523   -6.8638  -15.0723 O   0  0  0  0  0  0  0  0  0  0  0  0
   18.7108   -7.7626  -16.0463 C   0  0  0  0  0  0  0  0  0  0  0  0
   18.0876   -6.6327  -16.5340 C   0  0  0  0  0  0  0  0  0  0  0  0
   21.5474   -8.4960  -13.5524 O   0  0  0  0  0  0  0  0  0  0  0  0
  2  4  1  0
  2  1  1  0
  3  2  2  0
  5  6  1  0
  5  4  1  0
  6  7  1  6
  8 15  1  0
  8  6  1  0
  9  8  2  0
 10 11  1  0
 11 12  1  0
 12 13  1  0
 14 15  1  0
 14 13  1  6
 16 14  1  0
 17 16  2  0
 18 19  1  0
 19 20  2  0
 19 29  1  0
 20 21  1  0
 21 22  2  0
 22 23  1  0
 24 23  1  1
 24 25  1  0
 25 16  1  0
 26 27  1  0
 26 24  1  0
 28 22  1  0
 29 28  2  0
 30 26  2  0
M  END
$$$$
