QMY.pdb
     RDKit          3D

 30 30  0  0  1  0  0  0  0  0999 V2000
   28.6817  -23.2921  -17.1211 N   0  0  0  0  0  0  0  0  0  0  0  0
   29.2783  -22.0277  -17.4604 C   0  0  0  0  0  0  0  0  0  0  0  0
   29.8153  -21.8213  -18.5590 O   0  0  0  0  0  0  0  0  0  0  0  0
   29.2237  -20.9739  -16.4339 C   0  0  0  0  0  0  0  0  0  0  0  0
   28.4933  -21.5042  -15.2299 C   0  0  0  0  0  0  0  0  0  0  0  0
   27.2989  -20.6622  -14.8484 C   0  0  2  0  0  0  0  0  0  0  0  0
   27.7512  -19.3488  -14.4651 N   0  0  0  0  0  0  0  0  0  0  0  0
   26.5054  -21.3228  -13.8050 C   0  0  0  0  0  0  0  0  0  0  0  0
   26.0484  -22.4850  -13.9262 O   0  0  0  0  0  0  0  0  0  0  0  0
   28.9232  -21.5978   -7.8468 C   0  0  0  0  0  0  0  0  0  0  0  0
   27.2884  -20.8684   -8.1729 S   0  0  0  0  0  0  0  0  0  0  0  0
   26.8283  -21.3195   -9.8777 C   0  0  0  0  0  0  0  0  0  0  0  0
   25.5342  -20.7048  -10.2856 C   0  0  0  0  0  0  0  0  0  0  0  0
   25.1915  -21.1329  -11.6902 C   0  0  2  0  0  0  0  0  0  0  0  0
   26.2183  -20.6479  -12.5828 N   0  0  0  0  0  0  0  0  0  0  0  0
   23.8921  -20.5149  -12.0536 C   0  0  0  0  0  0  0  0  0  0  0  0
   23.8512  -19.3723  -12.6176 O   0  0  0  0  0  0  0  0  0  0  0  0
   17.7940  -20.6284  -17.7314 O   0  0  0  0  0  0  0  0  0  0  0  0
   18.8358  -20.7726  -16.8008 C   0  0  0  0  0  0  0  0  0  0  0  0
   19.5572  -19.6735  -16.3799 C   0  0  0  0  0  0  0  0  0  0  0  0
   20.5730  -19.8592  -15.4641 C   0  0  0  0  0  0  0  0  0  0  0  0
   20.8497  -21.1440  -14.9845 C   0  0  0  0  0  0  0  0  0  0  0  0
   21.9326  -21.2875  -14.0183 C   0  0  0  0  0  0  0  0  0  0  0  0
   21.5317  -20.9555  -12.6018 C   0  0  2  0  0  0  0  0  0  0  0  0
   22.6826  -21.2059  -11.7689 N   0  0  0  0  0  0  0  0  0  0  0  0
   20.3650  -21.7070  -12.1403 C   0  0  0  0  0  0  0  0  0  0  0  0
   20.4239  -23.0569  -11.8941 O   0  0  0  0  0  0  0  0  0  0  0  0
   20.1358  -22.2444  -15.3986 C   0  0  0  0  0  0  0  0  0  0  0  0
   19.1242  -22.0409  -16.3141 C   0  0  0  0  0  0  0  0  0  0  0  0
   19.2792  -21.1018  -11.9641 O   0  0  0  0  0  0  0  0  0  0  0  0
  2  4  1  0
  2  1  1  0
  3  2  2  0
  5  6  1  0
  5  4  1  0
  6  7  1  1
  8 15  1  0
  8  6  1  0
  9  8  2  0
 10 11  1  0
 11 12  1  0
 12 13  1  0
 14 15  1  0
 14 13  1  1
 16 14  1  0
 17 16  2  0
 18 19  1  0
 19 20  2  0
 19 29  1  0
 20 21  1  0
 21 22  2  0
 22 23  1  0
 24 23  1  6
 24 25  1  0
 25 16  1  0
 26 27  1  0
 26 24  1  0
 28 22  1  0
 29 28  2  0
 30 26  2  0
M  END
$$$$
