QMY.pdb
     RDKit          3D

 30 30  0  0  1  0  0  0  0  0999 V2000
   26.0213  -22.1508  -18.5785 N   0  0  0  0  0  0  0  0  0  0  0  0
   26.9952  -21.1219  -18.3282 C   0  0  0  0  0  0  0  0  0  0  0  0
   27.0938  -20.1138  -19.0435 O   0  0  0  0  0  0  0  0  0  0  0  0
   27.8828  -21.3191  -17.1703 C   0  0  0  0  0  0  0  0  0  0  0  0
   27.0870  -21.9197  -16.0432 C   0  0  0  0  0  0  0  0  0  0  0  0
   26.2845  -20.8943  -15.2780 C   0  0  2  0  0  0  0  0  0  0  0  0
   27.0487  -19.6767  -15.1782 N   0  0  0  0  0  0  0  0  0  0  0  0
   25.8726  -21.4217  -13.9715 C   0  0  0  0  0  0  0  0  0  0  0  0
   25.1521  -22.4406  -13.8416 O   0  0  0  0  0  0  0  0  0  0  0  0
   26.4684  -20.9856   -6.1575 C   0  0  0  0  0  0  0  0  0  0  0  0
   27.2249  -20.4428   -7.7208 S   0  0  0  0  0  0  0  0  0  0  0  0
   26.1702  -21.0615   -9.0722 C   0  0  0  0  0  0  0  0  0  0  0  0
   26.7029  -20.6835  -10.4109 C   0  0  0  0  0  0  0  0  0  0  0  0
   25.7796  -21.1981  -11.4863 C   0  0  2  0  0  0  0  0  0  0  0  0
   26.2885  -20.7763  -12.7706 N   0  0  0  0  0  0  0  0  0  0  0  0
   24.4404  -20.5974  -11.2668 C   0  0  0  0  0  0  0  0  0  0  0  0
   24.3242  -19.4489  -10.7259 O   0  0  0  0  0  0  0  0  0  0  0  0
   18.1804  -16.2468  -14.5221 O   0  0  0  0  0  0  0  0  0  0  0  0
   19.2598  -17.0368  -14.0944 C   0  0  0  0  0  0  0  0  0  0  0  0
   19.8873  -16.7757  -12.8928 C   0  0  0  0  0  0  0  0  0  0  0  0
   20.9442  -17.5764  -12.5099 C   0  0  0  0  0  0  0  0  0  0  0  0
   21.3557  -18.6267  -13.3376 C   0  0  0  0  0  0  0  0  0  0  0  0
   22.4770  -19.4436  -12.8882 C   0  0  0  0  0  0  0  0  0  0  0  0
   22.0783  -20.5678  -11.9637 C   0  0  2  0  0  0  0  0  0  0  0  0
   23.2774  -21.3120  -11.6644 N   0  0  0  0  0  0  0  0  0  0  0  0
   21.0384  -21.4324  -12.5205 C   0  0  0  0  0  0  0  0  0  0  0  0
   19.7153  -21.2834  -12.1835 O   0  0  0  0  0  0  0  0  0  0  0  0
   20.7360  -18.8937  -14.5361 C   0  0  0  0  0  0  0  0  0  0  0  0
   19.6816  -18.0838  -14.9036 C   0  0  0  0  0  0  0  0  0  0  0  0
   21.3638  -22.3362  -13.3289 O   0  0  0  0  0  0  0  0  0  0  0  0
  2  4  1  0
  2  1  1  0
  3  2  2  0
  5  6  1  0
  5  4  1  0
  6  7  1  1
  8 15  1  0
  8  6  1  0
  9  8  2  0
 10 11  1  0
 11 12  1  0
 12 13  1  0
 14 15  1  0
 14 13  1  1
 16 14  1  0
 17 16  2  0
 18 19  1  0
 19 20  2  0
 19 29  1  0
 20 21  1  0
 21 22  2  0
 22 23  1  0
 24 23  1  6
 24 25  1  0
 25 16  1  0
 26 27  1  0
 26 24  1  0
 28 22  1  0
 29 28  2  0
 30 26  2  0
M  END
$$$$
