QMY.pdb
     RDKit          3D

 30 30  0  0  1  0  0  0  0  0999 V2000
   27.9533  -24.4336  -16.3197 N   0  0  0  0  0  0  0  0  0  0  0  0
   28.7690  -23.4871  -17.0328 C   0  0  0  0  0  0  0  0  0  0  0  0
   29.1990  -23.7098  -18.1744 O   0  0  0  0  0  0  0  0  0  0  0  0
   29.0762  -22.2248  -16.3403 C   0  0  0  0  0  0  0  0  0  0  0  0
   28.3742  -22.2161  -15.0093 C   0  0  0  0  0  0  0  0  0  0  0  0
   27.2492  -21.2105  -14.9443 C   0  0  2  0  0  0  0  0  0  0  0  0
   27.8045  -19.8932  -14.7633 N   0  0  0  0  0  0  0  0  0  0  0  0
   26.2829  -21.5739  -13.9007 C   0  0  0  0  0  0  0  0  0  0  0  0
   25.6019  -22.6271  -13.9361 O   0  0  0  0  0  0  0  0  0  0  0  0
   26.9851  -18.8901   -8.1828 C   0  0  0  0  0  0  0  0  0  0  0  0
   26.2644  -20.5501   -7.9935 S   0  0  0  0  0  0  0  0  0  0  0  0
   26.0220  -21.2256   -9.6687 C   0  0  0  0  0  0  0  0  0  0  0  0
   25.3026  -20.2690  -10.5553 C   0  0  0  0  0  0  0  0  0  0  0  0
   24.9805  -20.9395  -11.8670 C   0  0  2  0  0  0  0  0  0  0  0  0
   26.0787  -20.7188  -12.7788 N   0  0  0  0  0  0  0  0  0  0  0  0
   23.7530  -20.3101  -12.4143 C   0  0  0  0  0  0  0  0  0  0  0  0
   23.7602  -19.0925  -12.7921 O   0  0  0  0  0  0  0  0  0  0  0  0
   19.5199  -16.2287  -17.5217 O   0  0  0  0  0  0  0  0  0  0  0  0
   20.1062  -17.2869  -16.8085 C   0  0  0  0  0  0  0  0  0  0  0  0
   21.4233  -17.2137  -16.4017 C   0  0  0  0  0  0  0  0  0  0  0  0
   21.9606  -18.2758  -15.7030 C   0  0  0  0  0  0  0  0  0  0  0  0
   21.1691  -19.3949  -15.4230 C   0  0  0  0  0  0  0  0  0  0  0  0
   21.7834  -20.4905  -14.6821 C   0  0  0  0  0  0  0  0  0  0  0  0
   21.4318  -20.5047  -13.2146 C   0  0  2  0  0  0  0  0  0  0  0  0
   22.5588  -21.0747  -12.5172 N   0  0  0  0  0  0  0  0  0  0  0  0
   20.1987  -21.2348  -12.9228 C   0  0  0  0  0  0  0  0  0  0  0  0
   19.0140  -20.5858  -12.6743 O   0  0  0  0  0  0  0  0  0  0  0  0
   19.8561  -19.4760  -15.8246 C   0  0  0  0  0  0  0  0  0  0  0  0
   19.3350  -18.4057  -16.5218 C   0  0  0  0  0  0  0  0  0  0  0  0
   20.2231  -22.4899  -12.8988 O   0  0  0  0  0  0  0  0  0  0  0  0
  2  4  1  0
  2  1  1  0
  3  2  2  0
  5  6  1  0
  5  4  1  0
  6  7  1  1
  8 15  1  0
  8  6  1  0
  9  8  2  0
 10 11  1  0
 11 12  1  0
 12 13  1  0
 14 15  1  0
 14 13  1  1
 16 14  1  0
 17 16  2  0
 18 19  1  0
 19 20  2  0
 19 29  1  0
 20 21  1  0
 21 22  2  0
 22 23  1  0
 24 23  1  6
 24 25  1  0
 25 16  1  0
 26 27  1  0
 26 24  1  0
 28 22  1  0
 29 28  2  0
 30 26  2  0
M  END
$$$$
