QMY.pdb
     RDKit          3D

 30 30  0  0  1  0  0  0  0  0999 V2000
   25.1811  -30.1171  -16.3655 N   0  0  0  0  0  0  0  0  0  0  0  0
   26.5919  -30.1539  -16.6447 C   0  0  0  0  0  0  0  0  0  0  0  0
   27.2454  -31.2076  -16.6209 O   0  0  0  0  0  0  0  0  0  0  0  0
   27.2366  -28.8696  -16.9644 C   0  0  0  0  0  0  0  0  0  0  0  0
   26.1775  -27.8060  -17.0702 C   0  0  0  0  0  0  0  0  0  0  0  0
   26.7427  -26.4430  -17.3927 C   0  0  2  0  0  0  0  0  0  0  0  0
   27.7389  -26.1012  -16.4092 N   0  0  0  0  0  0  0  0  0  0  0  0
   25.6720  -25.4441  -17.4958 C   0  0  0  0  0  0  0  0  0  0  0  0
   25.3810  -24.6549  -16.5648 O   0  0  0  0  0  0  0  0  0  0  0  0
   22.3266  -19.8074  -19.2973 C   0  0  0  0  0  0  0  0  0  0  0  0
   22.3446  -21.6267  -19.2713 S   0  0  0  0  0  0  0  0  0  0  0  0
   23.9656  -22.1579  -19.9131 C   0  0  0  0  0  0  0  0  0  0  0  0
   24.0220  -23.6304  -20.1309 C   0  0  0  0  0  0  0  0  0  0  0  0
   23.8583  -24.3433  -18.8124 C   0  0  2  0  0  0  0  0  0  0  0  0
   24.9036  -25.3327  -18.6910 N   0  0  0  0  0  0  0  0  0  0  0  0
   22.5381  -25.0212  -18.8185 C   0  0  0  0  0  0  0  0  0  0  0  0
   22.2467  -25.8681  -19.7258 O   0  0  0  0  0  0  0  0  0  0  0  0
   15.1337  -28.7434  -16.4093 O   0  0  0  0  0  0  0  0  0  0  0  0
   16.3898  -28.1205  -16.4883 C   0  0  0  0  0  0  0  0  0  0  0  0
   17.4144  -28.6972  -17.2118 C   0  0  0  0  0  0  0  0  0  0  0  0
   18.6333  -28.0518  -17.2636 C   0  0  0  0  0  0  0  0  0  0  0  0
   18.8062  -26.8383  -16.5893 C   0  0  0  0  0  0  0  0  0  0  0  0
   20.1127  -26.1961  -16.6750 C   0  0  0  0  0  0  0  0  0  0  0  0
   20.2769  -25.3109  -17.8861 C   0  0  2  0  0  0  0  0  0  0  0  0
   21.5908  -24.7213  -17.8016 N   0  0  0  0  0  0  0  0  0  0  0  0
   19.2386  -24.2870  -17.9985 C   0  0  0  0  0  0  0  0  0  0  0  0
   18.0032  -24.5634  -18.5311 O   0  0  0  0  0  0  0  0  0  0  0  0
   17.7907  -26.2568  -15.8664 C   0  0  0  0  0  0  0  0  0  0  0  0
   16.5791  -26.9151  -15.8250 C   0  0  0  0  0  0  0  0  0  0  0  0
   19.4829  -23.1227  -17.5969 O   0  0  0  0  0  0  0  0  0  0  0  0
  2  4  1  0
  2  1  1  0
  3  2  2  0
  5  6  1  0
  5  4  1  0
  6  7  1  1
  8 15  1  0
  8  6  1  0
  9  8  2  0
 10 11  1  0
 11 12  1  0
 12 13  1  0
 14 15  1  0
 14 13  1  6
 16 14  1  0
 17 16  2  0
 18 19  1  0
 19 20  2  0
 19 29  1  0
 20 21  1  0
 21 22  2  0
 22 23  1  0
 24 23  1  1
 24 25  1  0
 25 16  1  0
 26 27  1  0
 26 24  1  0
 28 22  1  0
 29 28  2  0
 30 26  2  0
M  END
$$$$
