PVS.pdb
     RDKit          3D

 21 21  0  0  1  0  0  0  0  0999 V2000
    7.0242  -14.7830   20.8897 N   0  0  0  0  0  0  0  0  0  0  0  0
    6.5696  -14.4334   19.5772 C   0  0  0  0  0  0  0  0  0  0  0  0
    7.2819  -13.1804   19.1628 C   0  0  0  0  0  0  0  0  0  0  0  0
    7.9262  -12.7192   20.4551 C   0  0  0  0  0  0  0  0  0  0  0  0
    8.2341  -14.0544   21.1114 C   0  0  1  0  0  0  0  0  0  0  0  0
    8.6049  -13.9251   22.5230 C   0  0  0  0  0  0  0  0  0  0  0  0
    9.8155  -13.7436   22.8097 O   0  0  0  0  0  0  0  0  0  0  0  0
    6.5724  -11.9216   25.3858 C   0  0  0  0  0  0  0  0  0  0  0  0
    7.0013  -13.2779   25.8531 C   0  0  2  0  0  0  0  0  0  0  0  0
    7.4507  -13.1920   27.3063 C   0  0  0  0  0  0  0  0  0  0  0  0
    8.0893  -13.8828   24.9854 C   0  0  2  0  0  0  0  0  0  0  0  0
    7.6728  -13.9923   23.6071 N   0  0  0  0  0  0  0  0  0  0  0  0
    8.4962  -15.1720   25.5689 C   0  0  0  0  0  0  0  0  0  0  0  0
    7.5992  -16.0573   25.6742 O   0  0  0  0  0  0  0  0  0  0  0  0
   11.6533  -18.5853   26.4551 O   0  0  0  0  0  0  0  0  0  0  0  0
   11.4608  -17.2869   25.9314 C   0  0  0  0  0  0  0  0  0  0  0  0
   10.1073  -16.8361   26.4376 C   0  0  2  0  0  0  0  0  0  0  0  0
    9.7829  -15.4927   26.0116 N   0  0  0  0  0  0  0  0  0  0  0  0
   10.1641  -16.8609   27.9337 C   0  0  0  0  0  0  0  0  0  0  0  0
   10.1427  -18.0596   28.6325 O   0  0  0  0  0  0  0  0  0  0  0  0
   10.2321  -15.8037   28.5873 O   0  0  0  0  0  0  0  0  0  0  0  0
  1  5  1  0
  2  3  1  0
  2  1  1  0
  3  4  1  0
  4  5  1  0
  5  6  1  1
  6  7  2  0
  9  8  1  6
  9 11  1  0
 10  9  1  0
 11 13  1  0
 12  6  1  0
 11 12  1  6
 13 18  1  0
 13 14  2  0
 17 16  1  6
 16 15  1  0
 17 19  1  0
 18 17  1  0
 19 21  2  0
 19 20  1  0
M  END
$$$$
