PVS.pdb
     RDKit          3D

 21 21  0  0  1  0  0  0  0  0999 V2000
    8.9294  -15.2634   20.8102 N   0  0  0  0  0  0  0  0  0  0  0  0
    8.5349  -16.1195   19.7318 C   0  0  0  0  0  0  0  0  0  0  0  0
    7.5204  -17.0885   20.2620 C   0  0  0  0  0  0  0  0  0  0  0  0
    7.6166  -16.8862   21.7612 C   0  0  0  0  0  0  0  0  0  0  0  0
    7.9350  -15.4022   21.8279 C   0  0  1  0  0  0  0  0  0  0  0  0
    8.3750  -14.9714   23.1575 C   0  0  0  0  0  0  0  0  0  0  0  0
    9.5866  -15.1124   23.4617 O   0  0  0  0  0  0  0  0  0  0  0  0
    6.5667  -11.9124   25.4604 C   0  0  0  0  0  0  0  0  0  0  0  0
    6.9541  -13.1637   26.1860 C   0  0  2  0  0  0  0  0  0  0  0  0
    7.4483  -12.8050   27.5817 C   0  0  0  0  0  0  0  0  0  0  0  0
    7.9914  -13.9806   25.4383 C   0  0  2  0  0  0  0  0  0  0  0  0
    7.5099  -14.3958   24.1417 N   0  0  0  0  0  0  0  0  0  0  0  0
    8.4054  -15.1096   26.2881 C   0  0  0  0  0  0  0  0  0  0  0  0
    7.5321  -15.9931   26.5255 O   0  0  0  0  0  0  0  0  0  0  0  0
   11.9856  -16.5385   26.4458 O   0  0  0  0  0  0  0  0  0  0  0  0
   10.9615  -17.3729   26.9481 C   0  0  0  0  0  0  0  0  0  0  0  0
    9.9829  -16.4499   27.6423 C   0  0  2  0  0  0  0  0  0  0  0  0
    9.6746  -15.2813   26.8483 N   0  0  0  0  0  0  0  0  0  0  0  0
   10.6261  -16.0029   28.9185 C   0  0  0  0  0  0  0  0  0  0  0  0
   11.0078  -16.9188   29.8885 O   0  0  0  0  0  0  0  0  0  0  0  0
   10.8339  -14.7957   29.1396 O   0  0  0  0  0  0  0  0  0  0  0  0
  1  5  1  0
  2  3  1  0
  2  1  1  0
  3  4  1  0
  4  5  1  0
  5  6  1  1
  6  7  2  0
  9  8  1  6
  9 11  1  0
 10  9  1  0
 11 13  1  0
 12  6  1  0
 11 12  1  6
 13 18  1  0
 13 14  2  0
 17 16  1  6
 16 15  1  0
 17 19  1  0
 18 17  1  0
 19 21  2  0
 19 20  1  0
M  END
$$$$
