PVS.pdb
     RDKit          3D

 21 21  0  0  1  0  0  0  0  0999 V2000
    7.0777  -14.9001   20.9427 N   0  0  0  0  0  0  0  0  0  0  0  0
    6.7252  -14.6128   19.5845 C   0  0  0  0  0  0  0  0  0  0  0  0
    7.5802  -13.4717   19.1195 C   0  0  0  0  0  0  0  0  0  0  0  0
    8.2043  -12.9748   20.4084 C   0  0  0  0  0  0  0  0  0  0  0  0
    8.3431  -14.2775   21.1777 C   0  0  1  0  0  0  0  0  0  0  0  0
    8.6560  -14.0737   22.5946 C   0  0  0  0  0  0  0  0  0  0  0  0
    9.8589  -13.9184   22.9255 O   0  0  0  0  0  0  0  0  0  0  0  0
    6.5068  -11.8779   25.1418 C   0  0  0  0  0  0  0  0  0  0  0  0
    6.9471  -13.1486   25.8002 C   0  0  2  0  0  0  0  0  0  0  0  0
    7.4030  -12.8481   27.2225 C   0  0  0  0  0  0  0  0  0  0  0  0
    8.0350  -13.8675   25.0241 C   0  0  2  0  0  0  0  0  0  0  0  0
    7.6751  -14.0394   23.6362 N   0  0  0  0  0  0  0  0  0  0  0  0
    8.3377  -15.1386   25.7029 C   0  0  0  0  0  0  0  0  0  0  0  0
    7.3771  -15.9481   25.8495 O   0  0  0  0  0  0  0  0  0  0  0  0
   11.9138  -16.7323   25.8302 O   0  0  0  0  0  0  0  0  0  0  0  0
   10.8472  -17.6273   26.0721 C   0  0  0  0  0  0  0  0  0  0  0  0
    9.7886  -16.8200   26.7924 C   0  0  2  0  0  0  0  0  0  0  0  0
    9.5904  -15.5187   26.1936 N   0  0  0  0  0  0  0  0  0  0  0  0
   10.2601  -16.6296   28.2009 C   0  0  0  0  0  0  0  0  0  0  0  0
   10.5054  -17.7163   29.0282 O   0  0  0  0  0  0  0  0  0  0  0  0
   10.4435  -15.4887   28.6636 O   0  0  0  0  0  0  0  0  0  0  0  0
  1  5  1  0
  2  3  1  0
  2  1  1  0
  3  4  1  0
  4  5  1  0
  5  6  1  1
  6  7  2  0
  9  8  1  6
  9 11  1  0
 10  9  1  0
 11 13  1  0
 12  6  1  0
 11 12  1  6
 13 18  1  0
 13 14  2  0
 17 16  1  6
 16 15  1  0
 17 19  1  0
 18 17  1  0
 19 21  2  0
 19 20  1  0
M  END
$$$$
