PVS.pdb
     RDKit          3D

 21 21  0  0  1  0  0  0  0  0999 V2000
    6.8198  -14.9918   21.5141 N   0  0  0  0  0  0  0  0  0  0  0  0
    6.3580  -14.6035   20.2150 C   0  0  0  0  0  0  0  0  0  0  0  0
    7.3310  -13.6058   19.6609 C   0  0  0  0  0  0  0  0  0  0  0  0
    8.1830  -13.2642   20.8671 C   0  0  0  0  0  0  0  0  0  0  0  0
    8.1915  -14.5974   21.5958 C   0  0  1  0  0  0  0  0  0  0  0  0
    8.7051  -14.4972   22.9644 C   0  0  0  0  0  0  0  0  0  0  0  0
    9.9494  -14.4371   23.1339 O   0  0  0  0  0  0  0  0  0  0  0  0
    6.1101  -13.8931   26.3692 C   0  0  0  0  0  0  0  0  0  0  0  0
    7.5126  -13.3735   26.2965 C   0  0  2  0  0  0  0  0  0  0  0  0
    7.4940  -11.9433   25.7720 C   0  0  0  0  0  0  0  0  0  0  0  0
    8.4212  -14.2474   25.4520 C   0  0  2  0  0  0  0  0  0  0  0  0
    7.8775  -14.4627   24.1316 N   0  0  0  0  0  0  0  0  0  0  0  0
    8.6808  -15.5007   26.1800 C   0  0  0  0  0  0  0  0  0  0  0  0
    7.7044  -16.2933   26.3144 O   0  0  0  0  0  0  0  0  0  0  0  0
   11.1592  -17.8527   25.4623 O   0  0  0  0  0  0  0  0  0  0  0  0
   11.2367  -17.9444   26.8704 C   0  0  0  0  0  0  0  0  0  0  0  0
   10.0591  -17.1538   27.3992 C   0  0  2  0  0  0  0  0  0  0  0  0
    9.9088  -15.8811   26.7293 N   0  0  0  0  0  0  0  0  0  0  0  0
   10.3140  -16.9001   28.8528 C   0  0  0  0  0  0  0  0  0  0  0  0
   10.4566  -17.9492   29.7498 O   0  0  0  0  0  0  0  0  0  0  0  0
   10.4043  -15.7387   29.2916 O   0  0  0  0  0  0  0  0  0  0  0  0
  1  5  1  0
  2  3  1  0
  2  1  1  0
  3  4  1  0
  4  5  1  0
  5  6  1  1
  6  7  2  0
  9  8  1  6
  9 11  1  0
 10  9  1  0
 11 13  1  0
 12  6  1  0
 11 12  1  6
 13 18  1  0
 13 14  2  0
 17 16  1  6
 16 15  1  0
 17 19  1  0
 18 17  1  0
 19 21  2  0
 19 20  1  0
M  END
$$$$
