PVS.pdb
     RDKit          3D

 21 21  0  0  1  0  0  0  0  0999 V2000
    7.9325  -16.5731   16.0492 N   0  0  0  0  0  0  0  0  0  0  0  0
    7.4700  -16.4727   14.6973 C   0  0  0  0  0  0  0  0  0  0  0  0
    8.0294  -15.2098   14.1130 C   0  0  0  0  0  0  0  0  0  0  0  0
    8.5788  -14.4929   15.3303 C   0  0  0  0  0  0  0  0  0  0  0  0
    9.0356  -15.6720   16.1724 C   0  0  1  0  0  0  0  0  0  0  0  0
    9.3524  -15.2990   17.5536 C   0  0  0  0  0  0  0  0  0  0  0  0
   10.5609  -15.1790   17.8789 O   0  0  0  0  0  0  0  0  0  0  0  0
    7.2036  -12.6251   19.8803 C   0  0  0  0  0  0  0  0  0  0  0  0
    7.5790  -13.8980   20.5737 C   0  0  2  0  0  0  0  0  0  0  0  0
    7.9109  -13.5999   22.0304 C   0  0  0  0  0  0  0  0  0  0  0  0
    8.7268  -14.6220   19.8948 C   0  0  2  0  0  0  0  0  0  0  0  0
    8.3694  -15.0600   18.5660 N   0  0  0  0  0  0  0  0  0  0  0  0
    9.1709  -15.7235   20.7650 C   0  0  0  0  0  0  0  0  0  0  0  0
    8.3770  -16.6992   20.8976 O   0  0  0  0  0  0  0  0  0  0  0  0
   12.9358  -16.1334   22.1104 O   0  0  0  0  0  0  0  0  0  0  0  0
   12.1950  -17.3348   22.0409 C   0  0  0  0  0  0  0  0  0  0  0  0
   10.7474  -16.9369   22.2351 C   0  0  2  0  0  0  0  0  0  0  0  0
   10.3884  -15.7768   21.4500 N   0  0  0  0  0  0  0  0  0  0  0  0
   10.5710  -16.6046   23.6845 C   0  0  0  0  0  0  0  0  0  0  0  0
   10.8291  -17.5443   24.6723 O   0  0  0  0  0  0  0  0  0  0  0  0
   10.1875  -15.4744   24.0379 O   0  0  0  0  0  0  0  0  0  0  0  0
  1  5  1  0
  2  3  1  0
  2  1  1  0
  3  4  1  0
  4  5  1  0
  5  6  1  1
  6  7  2  0
  9  8  1  6
  9 11  1  0
 10  9  1  0
 11 13  1  0
 12  6  1  0
 11 12  1  6
 13 18  1  0
 13 14  2  0
 17 16  1  1
 16 15  1  0
 17 19  1  0
 18 17  1  0
 19 21  2  0
 19 20  1  0
M  END
$$$$
