PVS.pdb
     RDKit          3D

 21 21  0  0  1  0  0  0  0  0999 V2000
    8.4995  -14.8381   20.5423 N   0  0  0  0  0  0  0  0  0  0  0  0
    7.9668  -15.5302   19.4070 C   0  0  0  0  0  0  0  0  0  0  0  0
    6.8535  -16.4127   19.8877 C   0  0  0  0  0  0  0  0  0  0  0  0
    7.0197  -16.3701   21.3938 C   0  0  0  0  0  0  0  0  0  0  0  0
    7.5264  -14.9505   21.5838 C   0  0  1  0  0  0  0  0  0  0  0  0
    8.0575  -14.7085   22.9278 C   0  0  0  0  0  0  0  0  0  0  0  0
    9.2566  -15.0065   23.1602 O   0  0  0  0  0  0  0  0  0  0  0  0
    6.5351  -11.8316   25.6267 C   0  0  0  0  0  0  0  0  0  0  0  0
    6.9206  -13.1552   26.2112 C   0  0  2  0  0  0  0  0  0  0  0  0
    7.5365  -12.9386   27.5877 C   0  0  0  0  0  0  0  0  0  0  0  0
    7.8595  -13.9429   25.3164 C   0  0  2  0  0  0  0  0  0  0  0  0
    7.2956  -14.1506   24.0033 N   0  0  0  0  0  0  0  0  0  0  0  0
    8.2159  -15.1995   25.9961 C   0  0  0  0  0  0  0  0  0  0  0  0
    7.2881  -16.0447   26.1525 O   0  0  0  0  0  0  0  0  0  0  0  0
   11.8129  -16.8272   25.9818 O   0  0  0  0  0  0  0  0  0  0  0  0
   10.6935  -17.6554   26.2230 C   0  0  0  0  0  0  0  0  0  0  0  0
    9.7431  -16.8278   27.0617 C   0  0  2  0  0  0  0  0  0  0  0  0
    9.4859  -15.5300   26.4779 N   0  0  0  0  0  0  0  0  0  0  0  0
   10.3902  -16.6297   28.3974 C   0  0  0  0  0  0  0  0  0  0  0  0
   10.6419  -15.3575   28.8909 O   0  0  0  0  0  0  0  0  0  0  0  0
   10.7183  -17.6047   29.0983 O   0  0  0  0  0  0  0  0  0  0  0  0
  1  5  1  0
  2  3  1  0
  2  1  1  0
  3  4  1  0
  4  5  1  0
  5  6  1  1
  6  7  2  0
  9  8  1  6
  9 11  1  0
 10  9  1  0
 11 13  1  0
 12  6  1  0
 11 12  1  6
 13 18  1  0
 13 14  2  0
 17 16  1  6
 16 15  1  0
 17 19  1  0
 18 17  1  0
 19 21  2  0
 19 20  1  0
M  END
$$$$
