PVS.pdb
     RDKit          3D

 21 21  0  0  1  0  0  0  0  0999 V2000
    6.9312  -15.5567   21.5153 N   0  0  0  0  0  0  0  0  0  0  0  0
    6.5159  -15.4414   20.1494 C   0  0  0  0  0  0  0  0  0  0  0  0
    7.4254  -14.4584   19.4741 C   0  0  0  0  0  0  0  0  0  0  0  0
    8.1673  -13.8344   20.6394 C   0  0  0  0  0  0  0  0  0  0  0  0
    8.2535  -15.0180   21.5880 C   0  0  1  0  0  0  0  0  0  0  0  0
    8.6713  -14.6373   22.9399 C   0  0  0  0  0  0  0  0  0  0  0  0
    9.8907  -14.4140   23.1489 O   0  0  0  0  0  0  0  0  0  0  0  0
    6.5169  -12.2266   25.3234 C   0  0  0  0  0  0  0  0  0  0  0  0
    7.1288  -13.3446   26.1094 C   0  0  2  0  0  0  0  0  0  0  0  0
    7.6517  -12.8028   27.4339 C   0  0  0  0  0  0  0  0  0  0  0  0
    8.2259  -14.0669   25.3497 C   0  0  2  0  0  0  0  0  0  0  0  0
    7.7759  -14.5016   24.0482 N   0  0  0  0  0  0  0  0  0  0  0  0
    8.7298  -15.1707   26.1838 C   0  0  0  0  0  0  0  0  0  0  0  0
    7.8743  -16.0010   26.6061 O   0  0  0  0  0  0  0  0  0  0  0  0
   12.6153  -15.9325   26.6377 O   0  0  0  0  0  0  0  0  0  0  0  0
   11.8115  -17.0699   26.8771 C   0  0  0  0  0  0  0  0  0  0  0  0
   10.4611  -16.5361   27.3051 C   0  0  2  0  0  0  0  0  0  0  0  0
   10.0657  -15.3724   26.5430 N   0  0  0  0  0  0  0  0  0  0  0  0
   10.5768  -16.1454   28.7460 C   0  0  0  0  0  0  0  0  0  0  0  0
   10.8917  -17.0821   29.7201 O   0  0  0  0  0  0  0  0  0  0  0  0
   10.3925  -14.9677   29.1045 O   0  0  0  0  0  0  0  0  0  0  0  0
  1  5  1  0
  2  3  1  0
  2  1  1  0
  3  4  1  0
  4  5  1  0
  5  6  1  1
  6  7  2  0
  9  8  1  6
  9 11  1  0
 10  9  1  0
 11 13  1  0
 12  6  1  0
 11 12  1  6
 13 18  1  0
 13 14  2  0
 17 16  1  6
 16 15  1  0
 17 19  1  0
 18 17  1  0
 19 21  2  0
 19 20  1  0
M  END
$$$$
