PVS.pdb
     RDKit          3D

 21 21  0  0  1  0  0  0  0  0999 V2000
    6.8612  -15.0412   21.1815 N   0  0  0  0  0  0  0  0  0  0  0  0
    6.5055  -14.7507   19.8247 C   0  0  0  0  0  0  0  0  0  0  0  0
    7.4880  -13.7480   19.2969 C   0  0  0  0  0  0  0  0  0  0  0  0
    8.2138  -13.2997   20.5498 C   0  0  0  0  0  0  0  0  0  0  0  0
    8.2045  -14.5855   21.3591 C   0  0  1  0  0  0  0  0  0  0  0  0
    8.5876  -14.3824   22.7587 C   0  0  0  0  0  0  0  0  0  0  0  0
    9.8091  -14.2719   23.0349 O   0  0  0  0  0  0  0  0  0  0  0  0
    6.4188  -12.0749   25.2472 C   0  0  0  0  0  0  0  0  0  0  0  0
    6.9589  -13.2776   25.9572 C   0  0  2  0  0  0  0  0  0  0  0  0
    7.4351  -12.8717   27.3462 C   0  0  0  0  0  0  0  0  0  0  0  0
    8.0680  -13.9681   25.1855 C   0  0  2  0  0  0  0  0  0  0  0  0
    7.6559  -14.3006   23.8421 N   0  0  0  0  0  0  0  0  0  0  0  0
    8.5212  -15.1384   25.9558 C   0  0  0  0  0  0  0  0  0  0  0  0
    7.6685  -16.0498   26.1602 O   0  0  0  0  0  0  0  0  0  0  0  0
   11.7060  -16.5625   25.5013 O   0  0  0  0  0  0  0  0  0  0  0  0
   11.4264  -17.1476   26.7569 C   0  0  0  0  0  0  0  0  0  0  0  0
   10.1393  -16.5073   27.2312 C   0  0  2  0  0  0  0  0  0  0  0  0
    9.8065  -15.3209   26.4744 N   0  0  0  0  0  0  0  0  0  0  0  0
   10.3407  -16.1182   28.6631 C   0  0  0  0  0  0  0  0  0  0  0  0
   10.6211  -17.0706   29.6325 O   0  0  0  0  0  0  0  0  0  0  0  0
   10.2610  -14.9278   29.0181 O   0  0  0  0  0  0  0  0  0  0  0  0
  1  5  1  0
  2  3  1  0
  2  1  1  0
  3  4  1  0
  4  5  1  0
  5  6  1  1
  6  7  2  0
  9  8  1  6
  9 11  1  0
 10  9  1  0
 11 13  1  0
 12  6  1  0
 11 12  1  6
 13 18  1  0
 13 14  2  0
 17 16  1  6
 16 15  1  0
 17 19  1  0
 18 17  1  0
 19 21  2  0
 19 20  1  0
M  END
$$$$
