PVS.pdb
     RDKit          3D

 21 21  0  0  1  0  0  0  0  0999 V2000
    6.7995  -15.7143   21.6349 N   0  0  0  0  0  0  0  0  0  0  0  0
    6.4302  -15.6395   20.2530 C   0  0  0  0  0  0  0  0  0  0  0  0
    7.4196  -14.7501   19.5606 C   0  0  0  0  0  0  0  0  0  0  0  0
    8.1682  -14.1185   20.7175 C   0  0  0  0  0  0  0  0  0  0  0  0
    8.1514  -15.2576   21.7226 C   0  0  1  0  0  0  0  0  0  0  0  0
    8.5558  -14.8390   23.0673 C   0  0  0  0  0  0  0  0  0  0  0  0
    9.7812  -14.6878   23.3040 O   0  0  0  0  0  0  0  0  0  0  0  0
    6.3980  -12.2448   25.2841 C   0  0  0  0  0  0  0  0  0  0  0  0
    6.9875  -13.3263   26.1356 C   0  0  2  0  0  0  0  0  0  0  0  0
    7.5070  -12.7199   27.4330 C   0  0  0  0  0  0  0  0  0  0  0  0
    8.0804  -14.1041   25.4264 C   0  0  2  0  0  0  0  0  0  0  0  0
    7.6407  -14.5884   24.1390 N   0  0  0  0  0  0  0  0  0  0  0  0
    8.5491  -15.1787   26.3172 C   0  0  0  0  0  0  0  0  0  0  0  0
    7.6971  -16.0504   26.6543 O   0  0  0  0  0  0  0  0  0  0  0  0
   12.3398  -16.2463   26.6564 O   0  0  0  0  0  0  0  0  0  0  0  0
   11.3823  -17.2210   27.0174 C   0  0  0  0  0  0  0  0  0  0  0  0
   10.2223  -16.4553   27.6171 C   0  0  2  0  0  0  0  0  0  0  0  0
    9.8486  -15.3112   26.8155 N   0  0  0  0  0  0  0  0  0  0  0  0
   10.6618  -15.9705   28.9639 C   0  0  0  0  0  0  0  0  0  0  0  0
   10.6462  -14.6195   29.2801 O   0  0  0  0  0  0  0  0  0  0  0  0
   11.0525  -16.7706   29.8338 O   0  0  0  0  0  0  0  0  0  0  0  0
  1  5  1  0
  2  3  1  0
  2  1  1  0
  3  4  1  0
  4  5  1  0
  5  6  1  1
  6  7  2  0
  9  8  1  6
  9 11  1  0
 10  9  1  0
 11 13  1  0
 12  6  1  0
 11 12  1  6
 13 18  1  0
 13 14  2  0
 17 16  1  6
 16 15  1  0
 17 19  1  0
 18 17  1  0
 19 21  2  0
 19 20  1  0
M  END
$$$$
