GYT.pdb
     RDKit          3D

 24 24  0  0  1  0  0  0  0  0999 V2000
    7.2173  -14.5405   19.5365 N   0  0  0  0  0  0  0  0  0  0  0  0
    6.6442  -14.6956   20.8585 C   0  0  0  0  0  0  0  0  0  0  0  0
    7.7215  -14.7138   21.8952 C   0  0  0  0  0  0  0  0  0  0  0  0
    8.9161  -14.7924   21.5612 O   0  0  0  0  0  0  0  0  0  0  0  0
   10.9646  -14.8609   30.0826 O   0  0  0  0  0  0  0  0  0  0  0  0
   10.1374  -14.7231   28.9738 C   0  0  0  0  0  0  0  0  0  0  0  0
   10.0351  -13.4854   28.3395 C   0  0  0  0  0  0  0  0  0  0  0  0
    9.2049  -13.3851   27.2422 C   0  0  0  0  0  0  0  0  0  0  0  0
    8.5022  -14.4854   26.7960 C   0  0  0  0  0  0  0  0  0  0  0  0
    7.6172  -14.3515   25.6151 C   0  0  0  0  0  0  0  0  0  0  0  0
    8.3241  -14.7782   24.3425 C   0  0  2  0  0  0  0  0  0  0  0  0
    7.3739  -14.6411   23.2598 N   0  0  0  0  0  0  0  0  0  0  0  0
    8.8230  -16.1736   24.4497 C   0  0  0  0  0  0  0  0  0  0  0  0
    8.0311  -17.1596   24.5830 O   0  0  0  0  0  0  0  0  0  0  0  0
    8.5967  -15.7201   27.4190 C   0  0  0  0  0  0  0  0  0  0  0  0
    9.4288  -15.8152   28.5168 C   0  0  0  0  0  0  0  0  0  0  0  0
   12.9037  -16.9455   23.4629 C   0  0  0  0  0  0  0  0  0  0  0  0
   11.7376  -17.8841   23.2580 C   0  0  1  0  0  0  0  0  0  0  0  0
   12.2534  -19.1795   23.2601 O   0  0  0  0  0  0  0  0  0  0  0  0
   10.7390  -17.8067   24.4014 C   0  0  2  0  0  0  0  0  0  0  0  0
   10.2021  -16.4751   24.4089 N   0  0  0  0  0  0  0  0  0  0  0  0
   11.4130  -18.1524   25.6809 C   0  0  0  0  0  0  0  0  0  0  0  0
   11.7897  -19.3064   25.9277 O   0  0  0  0  0  0  0  0  0  0  0  0
   11.6179  -17.1513   26.6096 O   0  0  0  0  0  0  0  0  0  0  0  0
  1  2  1  0
  2  3  1  0
  3  4  2  0
  6  5  1  0
  6  7  2  0
  8  7  1  0
  9 10  1  0
  9  8  2  0
 11 10  1  1
 11 13  1  0
 12 11  1  0
 12  3  1  0
 13 14  2  0
 15 16  2  0
 15  9  1  0
 16  6  1  0
 18 17  1  1
 18 20  1  0
 19 18  1  0
 20 22  1  0
 21 13  1  0
 20 21  1  1
 22 23  2  0
 22 24  1  0
M  END
$$$$
