GYT.pdb
     RDKit          3D

 24 24  0  0  1  0  0  0  0  0999 V2000
    6.1805  -14.7574   19.9954 N   0  0  0  0  0  0  0  0  0  0  0  0
    5.9915  -15.3721   21.2941 C   0  0  0  0  0  0  0  0  0  0  0  0
    7.2340  -15.2467   22.1163 C   0  0  0  0  0  0  0  0  0  0  0  0
    8.2393  -14.6789   21.6564 O   0  0  0  0  0  0  0  0  0  0  0  0
    5.9551  -10.3379   26.8525 O   0  0  0  0  0  0  0  0  0  0  0  0
    6.4188  -11.6188   26.5753 C   0  0  0  0  0  0  0  0  0  0  0  0
    7.7868  -11.8374   26.4162 C   0  0  0  0  0  0  0  0  0  0  0  0
    8.2114  -13.1210   26.1419 C   0  0  0  0  0  0  0  0  0  0  0  0
    7.2982  -14.1493   26.0309 C   0  0  0  0  0  0  0  0  0  0  0  0
    7.7799  -15.5191   25.7357 C   0  0  0  0  0  0  0  0  0  0  0  0
    8.3660  -15.6108   24.3395 C   0  0  2  0  0  0  0  0  0  0  0  0
    7.2596  -15.7784   23.4221 N   0  0  0  0  0  0  0  0  0  0  0  0
    9.3287  -16.7377   24.2362 C   0  0  0  0  0  0  0  0  0  0  0  0
    8.9718  -17.9430   24.4283 O   0  0  0  0  0  0  0  0  0  0  0  0
    5.9364  -13.9430   26.1872 C   0  0  0  0  0  0  0  0  0  0  0  0
    5.5166  -12.6565   26.4617 C   0  0  0  0  0  0  0  0  0  0  0  0
   13.8691  -18.0760   22.7070 C   0  0  0  0  0  0  0  0  0  0  0  0
   12.7449  -17.0772   22.8532 C   0  0  1  0  0  0  0  0  0  0  0  0
   12.1542  -16.9436   21.5972 O   0  0  0  0  0  0  0  0  0  0  0  0
   11.6626  -17.5750   23.7972 C   0  0  2  0  0  0  0  0  0  0  0  0
   10.6887  -16.5270   23.9194 N   0  0  0  0  0  0  0  0  0  0  0  0
   12.2668  -17.9414   25.1055 C   0  0  0  0  0  0  0  0  0  0  0  0
   12.2268  -17.1760   26.0787 O   0  0  0  0  0  0  0  0  0  0  0  0
   12.8857  -19.1699   25.2249 O   0  0  0  0  0  0  0  0  0  0  0  0
  1  2  1  0
  2  3  1  0
  3  4  2  0
  6  5  1  0
  6  7  2  0
  8  7  1  0
  9 10  1  0
  9  8  2  0
 11 10  1  1
 11 13  1  0
 12 11  1  0
 12  3  1  0
 13 14  2  0
 15 16  2  0
 15  9  1  0
 16  6  1  0
 18 17  1  6
 18 20  1  0
 19 18  1  0
 20 22  1  0
 21 13  1  0
 20 21  1  1
 22 23  2  0
 22 24  1  0
M  END
$$$$
