GYT.pdb
     RDKit          3D

 24 24  0  0  1  0  0  0  0  0999 V2000
    9.3260  -16.1044   17.9491 N   0  0  0  0  0  0  0  0  0  0  0  0
    8.2000  -16.1759   18.8584 C   0  0  0  0  0  0  0  0  0  0  0  0
    8.5951  -15.6927   20.2171 C   0  0  0  0  0  0  0  0  0  0  0  0
    9.7944  -15.6132   20.5334 O   0  0  0  0  0  0  0  0  0  0  0  0
    7.3284  -12.2156   28.1950 O   0  0  0  0  0  0  0  0  0  0  0  0
    7.1466  -12.7143   26.9102 C   0  0  0  0  0  0  0  0  0  0  0  0
    6.4959  -13.9344   26.7298 C   0  0  0  0  0  0  0  0  0  0  0  0
    6.3331  -14.3989   25.4410 C   0  0  0  0  0  0  0  0  0  0  0  0
    6.8052  -13.6672   24.3708 C   0  0  0  0  0  0  0  0  0  0  0  0
    6.6177  -14.1880   22.9963 C   0  0  0  0  0  0  0  0  0  0  0  0
    7.8701  -14.8785   22.4904 C   0  0  2  0  0  0  0  0  0  0  0  0
    7.5959  -15.3261   21.1419 N   0  0  0  0  0  0  0  0  0  0  0  0
    8.2474  -16.0146   23.3704 C   0  0  0  0  0  0  0  0  0  0  0  0
    7.4655  -16.9981   23.5665 O   0  0  0  0  0  0  0  0  0  0  0  0
    7.4532  -12.4535   24.5388 C   0  0  0  0  0  0  0  0  0  0  0  0
    7.6137  -11.9930   25.8307 C   0  0  0  0  0  0  0  0  0  0  0  0
   11.2646  -18.0349   22.8780 C   0  0  0  0  0  0  0  0  0  0  0  0
   11.3185  -17.5624   24.3121 C   0  0  1  0  0  0  0  0  0  0  0  0
   12.1061  -16.4119   24.3315 O   0  0  0  0  0  0  0  0  0  0  0  0
    9.9462  -17.1645   24.8306 C   0  0  2  0  0  0  0  0  0  0  0  0
    9.4934  -16.0594   24.0334 N   0  0  0  0  0  0  0  0  0  0  0  0
   10.0350  -16.8216   26.2747 C   0  0  0  0  0  0  0  0  0  0  0  0
    9.8078  -15.6758   26.6874 O   0  0  0  0  0  0  0  0  0  0  0  0
   10.3807  -17.8157   27.1683 O   0  0  0  0  0  0  0  0  0  0  0  0
  1  2  1  0
  2  3  1  0
  3  4  2  0
  6  5  1  0
  6  7  2  0
  8  7  1  0
  9 10  1  0
  9  8  2  0
 11 10  1  1
 11 13  1  0
 12 11  1  0
 12  3  1  0
 13 14  2  0
 15 16  2  0
 15  9  1  0
 16  6  1  0
 18 17  1  6
 18 20  1  0
 19 18  1  0
 20 22  1  0
 21 13  1  0
 20 21  1  6
 22 23  2  0
 22 24  1  0
M  END
$$$$
