GYT.pdb
     RDKit          3D

 24 24  0  0  1  0  0  0  0  0999 V2000
    8.1620  -15.6579   18.9216 N   0  0  0  0  0  0  0  0  0  0  0  0
    7.2438  -15.9747   19.9970 C   0  0  0  0  0  0  0  0  0  0  0  0
    7.9080  -15.7847   21.3231 C   0  0  0  0  0  0  0  0  0  0  0  0
    9.1249  -15.5405   21.3891 O   0  0  0  0  0  0  0  0  0  0  0  0
    7.2247  -10.4804   27.4450 O   0  0  0  0  0  0  0  0  0  0  0  0
    7.0329  -11.6849   26.7778 C   0  0  0  0  0  0  0  0  0  0  0  0
    5.9075  -12.4582   27.0608 C   0  0  0  0  0  0  0  0  0  0  0  0
    5.7492  -13.6475   26.3799 C   0  0  0  0  0  0  0  0  0  0  0  0
    6.6849  -14.0481   25.4484 C   0  0  0  0  0  0  0  0  0  0  0  0
    6.4918  -15.3298   24.7305 C   0  0  0  0  0  0  0  0  0  0  0  0
    7.6713  -15.6424   23.8292 C   0  0  2  0  0  0  0  0  0  0  0  0
    7.1435  -15.8843   22.5037 N   0  0  0  0  0  0  0  0  0  0  0  0
    8.4314  -16.8165   24.3303 C   0  0  0  0  0  0  0  0  0  0  0  0
    7.8587  -17.9191   24.6012 O   0  0  0  0  0  0  0  0  0  0  0  0
    7.8069  -13.2871   25.1595 C   0  0  0  0  0  0  0  0  0  0  0  0
    7.9607  -12.0976   25.8437 C   0  0  0  0  0  0  0  0  0  0  0  0
   11.3403  -18.4159   22.6778 C   0  0  0  0  0  0  0  0  0  0  0  0
   11.7897  -18.0348   24.0690 C   0  0  1  0  0  0  0  0  0  0  0  0
   12.4103  -16.7902   23.9689 O   0  0  0  0  0  0  0  0  0  0  0  0
   10.6149  -17.8650   25.0184 C   0  0  2  0  0  0  0  0  0  0  0  0
    9.8284  -16.7670   24.5311 N   0  0  0  0  0  0  0  0  0  0  0  0
   11.1147  -17.6340   26.3997 C   0  0  0  0  0  0  0  0  0  0  0  0
   10.8992  -16.5729   27.0015 O   0  0  0  0  0  0  0  0  0  0  0  0
   11.8366  -18.6368   27.0159 O   0  0  0  0  0  0  0  0  0  0  0  0
  1  2  1  0
  2  3  1  0
  3  4  2  0
  6  5  1  0
  6  7  2  0
  8  7  1  0
  9 10  1  0
  9  8  2  0
 11 10  1  1
 11 13  1  0
 12 11  1  0
 12  3  1  0
 13 14  2  0
 15 16  2  0
 15  9  1  0
 16  6  1  0
 18 17  1  6
 18 20  1  0
 19 18  1  0
 20 22  1  0
 21 13  1  0
 20 21  1  6
 22 23  2  0
 22 24  1  0
M  END
$$$$
