GYT.pdb
     RDKit          3D

 24 24  0  0  1  0  0  0  0  0999 V2000
    4.6086  -19.3297   24.1689 N   0  0  0  0  0  0  0  0  0  0  0  0
    5.8508  -18.7935   24.6881 C   0  0  0  0  0  0  0  0  0  0  0  0
    6.2131  -17.5309   23.9738 C   0  0  0  0  0  0  0  0  0  0  0  0
    5.5644  -17.1607   22.9803 O   0  0  0  0  0  0  0  0  0  0  0  0
    5.4111  -11.3819   27.9497 O   0  0  0  0  0  0  0  0  0  0  0  0
    6.1949  -12.2191   27.1640 C   0  0  0  0  0  0  0  0  0  0  0  0
    6.3404  -11.9508   25.8033 C   0  0  0  0  0  0  0  0  0  0  0  0
    7.1256  -12.8026   25.0541 C   0  0  0  0  0  0  0  0  0  0  0  0
    7.7432  -13.8847   25.6468 C   0  0  0  0  0  0  0  0  0  0  0  0
    8.5814  -14.7845   24.8202 C   0  0  0  0  0  0  0  0  0  0  0  0
    7.7468  -15.5373   23.8013 C   0  0  2  0  0  0  0  0  0  0  0  0
    7.2991  -16.7589   24.4348 N   0  0  0  0  0  0  0  0  0  0  0  0
    8.5315  -15.8224   22.5724 C   0  0  0  0  0  0  0  0  0  0  0  0
    9.3855  -16.7635   22.5264 O   0  0  0  0  0  0  0  0  0  0  0  0
    7.6053  -14.1604   26.9982 C   0  0  0  0  0  0  0  0  0  0  0  0
    6.8184  -13.3049   27.7437 C   0  0  0  0  0  0  0  0  0  0  0  0
    6.9411  -14.2047   19.2398 C   0  0  0  0  0  0  0  0  0  0  0  0
    8.4332  -14.4018   19.1070 C   0  0  1  0  0  0  0  0  0  0  0  0
    9.0315  -13.1727   19.3820 O   0  0  0  0  0  0  0  0  0  0  0  0
    8.9684  -15.3899   20.1305 C   0  0  2  0  0  0  0  0  0  0  0  0
    8.3684  -15.0626   21.3933 N   0  0  0  0  0  0  0  0  0  0  0  0
   10.4528  -15.3145   20.1729 C   0  0  0  0  0  0  0  0  0  0  0  0
   11.0558  -14.9001   21.1725 O   0  0  0  0  0  0  0  0  0  0  0  0
   11.1655  -15.7203   19.0621 O   0  0  0  0  0  0  0  0  0  0  0  0
  1  2  1  0
  2  3  1  0
  3  4  2  0
  6  5  1  0
  6  7  2  0
  8  7  1  0
  9 10  1  0
  9  8  2  0
 11 10  1  1
 11 13  1  0
 12 11  1  0
 12  3  1  0
 13 14  2  0
 15 16  2  0
 15  9  1  0
 16  6  1  0
 18 17  1  1
 18 20  1  0
 19 18  1  0
 20 22  1  0
 21 13  1  0
 20 21  1  1
 22 23  2  0
 22 24  1  0
M  END
$$$$
