GYT.pdb
     RDKit          3D

 24 24  0  0  1  0  0  0  0  0999 V2000
    5.6557  -17.4786   20.2803 N   0  0  0  0  0  0  0  0  0  0  0  0
    5.6170  -17.7448   21.7043 C   0  0  0  0  0  0  0  0  0  0  0  0
    6.6506  -16.9313   22.4153 C   0  0  0  0  0  0  0  0  0  0  0  0
    7.5894  -16.4151   21.7851 O   0  0  0  0  0  0  0  0  0  0  0  0
   10.7603  -13.5925   29.4517 O   0  0  0  0  0  0  0  0  0  0  0  0
    9.8238  -14.1493   28.5882 C   0  0  0  0  0  0  0  0  0  0  0  0
    9.6664  -15.5341   28.5419 C   0  0  0  0  0  0  0  0  0  0  0  0
    8.7279  -16.0521   27.6735 C   0  0  0  0  0  0  0  0  0  0  0  0
    7.9737  -15.2127   26.8796 C   0  0  0  0  0  0  0  0  0  0  0  0
    6.9721  -15.7940   25.9551 C   0  0  0  0  0  0  0  0  0  0  0  0
    7.5957  -16.1570   24.6207 C   0  0  2  0  0  0  0  0  0  0  0  0
    6.5547  -16.7519   23.8106 N   0  0  0  0  0  0  0  0  0  0  0  0
    8.7392  -17.0885   24.8001 C   0  0  0  0  0  0  0  0  0  0  0  0
    8.5870  -18.2465   25.3031 O   0  0  0  0  0  0  0  0  0  0  0  0
    8.1220  -13.8351   26.9178 C   0  0  0  0  0  0  0  0  0  0  0  0
    9.0626  -13.3217   27.7886 C   0  0  0  0  0  0  0  0  0  0  0  0
   11.1406  -17.7009   21.9257 C   0  0  0  0  0  0  0  0  0  0  0  0
   11.9591  -17.3992   23.1594 C   0  0  1  0  0  0  0  0  0  0  0  0
   12.2648  -16.0393   23.1216 O   0  0  0  0  0  0  0  0  0  0  0  0
   11.1697  -17.6369   24.4364 C   0  0  2  0  0  0  0  0  0  0  0  0
   10.0527  -16.7348   24.4210 N   0  0  0  0  0  0  0  0  0  0  0  0
   12.0495  -17.4283   25.6168 C   0  0  0  0  0  0  0  0  0  0  0  0
   11.8881  -16.4730   26.3888 O   0  0  0  0  0  0  0  0  0  0  0  0
   13.0691  -18.3305   25.8468 O   0  0  0  0  0  0  0  0  0  0  0  0
  1  2  1  0
  2  3  1  0
  3  4  2  0
  6  5  1  0
  6  7  2  0
  8  7  1  0
  9 10  1  0
  9  8  2  0
 11 10  1  1
 11 13  1  0
 12 11  1  0
 12  3  1  0
 13 14  2  0
 15 16  2  0
 15  9  1  0
 16  6  1  0
 18 17  1  6
 18 20  1  0
 19 18  1  0
 20 22  1  0
 21 13  1  0
 20 21  1  1
 22 23  2  0
 22 24  1  0
M  END
$$$$
