GYT.pdb
     RDKit          3D

 24 24  0  0  1  0  0  0  0  0999 V2000
    5.1926  -19.4127   24.8450 N   0  0  0  0  0  0  0  0  0  0  0  0
    6.3146  -18.6204   25.3069 C   0  0  0  0  0  0  0  0  0  0  0  0
    6.4932  -17.4145   24.4411 C   0  0  0  0  0  0  0  0  0  0  0  0
    5.7521  -17.2272   23.4610 O   0  0  0  0  0  0  0  0  0  0  0  0
    5.4574  -11.5807   28.4745 O   0  0  0  0  0  0  0  0  0  0  0  0
    6.2494  -12.2819   27.5725 C   0  0  0  0  0  0  0  0  0  0  0  0
    7.1029  -13.2822   28.0368 C   0  0  0  0  0  0  0  0  0  0  0  0
    7.8743  -13.9575   27.1137 C   0  0  0  0  0  0  0  0  0  0  0  0
    7.7937  -13.6421   25.7730 C   0  0  0  0  0  0  0  0  0  0  0  0
    8.6328  -14.3822   24.8015 C   0  0  0  0  0  0  0  0  0  0  0  0
    7.7965  -15.3140   23.9450 C   0  0  2  0  0  0  0  0  0  0  0  0
    7.5111  -16.4867   24.7433 N   0  0  0  0  0  0  0  0  0  0  0  0
    8.5098  -15.6740   22.6924 C   0  0  0  0  0  0  0  0  0  0  0  0
    9.3779  -16.6026   22.6592 O   0  0  0  0  0  0  0  0  0  0  0  0
    6.9489  -12.6498   25.3007 C   0  0  0  0  0  0  0  0  0  0  0  0
    6.1789  -11.9768   26.2287 C   0  0  0  0  0  0  0  0  0  0  0  0
    6.7344  -14.2879   19.3417 C   0  0  0  0  0  0  0  0  0  0  0  0
    8.2229  -14.4685   19.1557 C   0  0  1  0  0  0  0  0  0  0  0  0
    8.8095  -13.2160   19.3332 O   0  0  0  0  0  0  0  0  0  0  0  0
    8.8194  -15.3866   20.2100 C   0  0  2  0  0  0  0  0  0  0  0  0
    8.2594  -15.0029   21.4753 N   0  0  0  0  0  0  0  0  0  0  0  0
   10.3021  -15.2769   20.1907 C   0  0  0  0  0  0  0  0  0  0  0  0
   10.9307  -14.7772   21.1340 O   0  0  0  0  0  0  0  0  0  0  0  0
   10.9837  -15.7483   19.0863 O   0  0  0  0  0  0  0  0  0  0  0  0
  1  2  1  0
  2  3  1  0
  3  4  2  0
  6  5  1  0
  6  7  2  0
  8  7  1  0
  9 10  1  0
  9  8  2  0
 11 10  1  1
 11 13  1  0
 12 11  1  0
 12  3  1  0
 13 14  2  0
 15 16  2  0
 15  9  1  0
 16  6  1  0
 18 17  1  1
 18 20  1  0
 19 18  1  0
 20 22  1  0
 21 13  1  0
 20 21  1  1
 22 23  2  0
 22 24  1  0
M  END
$$$$
