GYT.pdb
     RDKit          3D

 24 24  0  0  1  0  0  0  0  0999 V2000
    7.2264  -19.5906   19.5387 N   0  0  0  0  0  0  0  0  0  0  0  0
    7.0619  -18.8899   20.7965 C   0  0  0  0  0  0  0  0  0  0  0  0
    8.2283  -17.9889   21.0481 C   0  0  0  0  0  0  0  0  0  0  0  0
    9.2935  -18.1491   20.4281 O   0  0  0  0  0  0  0  0  0  0  0  0
    6.9644  -12.4358   17.7520 O   0  0  0  0  0  0  0  0  0  0  0  0
    7.3681  -13.0009   18.9563 C   0  0  0  0  0  0  0  0  0  0  0  0
    6.4164  -13.5582   19.8097 C   0  0  0  0  0  0  0  0  0  0  0  0
    6.8527  -14.1103   20.9964 C   0  0  0  0  0  0  0  0  0  0  0  0
    8.1946  -14.1043   21.3169 C   0  0  0  0  0  0  0  0  0  0  0  0
    8.6377  -14.7036   22.5976 C   0  0  0  0  0  0  0  0  0  0  0  0
    9.2096  -16.0932   22.3897 C   0  0  2  0  0  0  0  0  0  0  0  0
    8.1132  -16.9519   21.9965 N   0  0  0  0  0  0  0  0  0  0  0  0
    9.8691  -16.5907   23.6247 C   0  0  0  0  0  0  0  0  0  0  0  0
    9.2957  -16.5365   24.7584 O   0  0  0  0  0  0  0  0  0  0  0  0
    9.1488  -13.5531   20.4760 C   0  0  0  0  0  0  0  0  0  0  0  0
    8.7070  -13.0018   19.2895 C   0  0  0  0  0  0  0  0  0  0  0  0
   11.0020  -20.0384   24.2322 C   0  0  0  0  0  0  0  0  0  0  0  0
   12.2102  -19.1429   24.3769 C   0  0  1  0  0  0  0  0  0  0  0  0
   12.8237  -19.0830   23.1262 O   0  0  0  0  0  0  0  0  0  0  0  0
   11.8214  -17.7201   24.7443 C   0  0  2  0  0  0  0  0  0  0  0  0
   11.1661  -17.1488   23.6015 N   0  0  0  0  0  0  0  0  0  0  0  0
   13.0327  -16.9555   25.1430 C   0  0  0  0  0  0  0  0  0  0  0  0
   13.4794  -16.0333   24.4468 O   0  0  0  0  0  0  0  0  0  0  0  0
   13.6666  -17.2926   26.3224 O   0  0  0  0  0  0  0  0  0  0  0  0
  1  2  1  0
  2  3  1  0
  3  4  2  0
  6  5  1  0
  6  7  2  0
  8  7  1  0
  9 10  1  0
  9  8  2  0
 11 10  1  1
 11 13  1  0
 12 11  1  0
 12  3  1  0
 13 14  2  0
 15 16  2  0
 15  9  1  0
 16  6  1  0
 18 17  1  6
 18 20  1  0
 19 18  1  0
 20 22  1  0
 21 13  1  0
 20 21  1  6
 22 23  2  0
 22 24  1  0
M  END
$$$$
