GYT.pdb
     RDKit          3D

 24 24  0  0  1  0  0  0  0  0999 V2000
    5.6984  -19.3488   20.1994 N   0  0  0  0  0  0  0  0  0  0  0  0
    5.3318  -18.2806   21.1075 C   0  0  0  0  0  0  0  0  0  0  0  0
    6.5454  -17.7385   21.7922 C   0  0  0  0  0  0  0  0  0  0  0  0
    7.6434  -18.3085   21.6732 O   0  0  0  0  0  0  0  0  0  0  0  0
    8.4623  -12.4280   18.2310 O   0  0  0  0  0  0  0  0  0  0  0  0
    8.2031  -12.9428   19.4961 C   0  0  0  0  0  0  0  0  0  0  0  0
    9.2538  -13.1257   20.3946 C   0  0  0  0  0  0  0  0  0  0  0  0
    8.9600  -13.6387   21.6411 C   0  0  0  0  0  0  0  0  0  0  0  0
    7.6600  -13.9571   21.9759 C   0  0  0  0  0  0  0  0  0  0  0  0
    7.3707  -14.5066   23.3212 C   0  0  0  0  0  0  0  0  0  0  0  0
    7.5279  -16.0152   23.3484 C   0  0  2  0  0  0  0  0  0  0  0  0
    6.4374  -16.5721   22.5771 N   0  0  0  0  0  0  0  0  0  0  0  0
    7.5209  -16.5290   24.7425 C   0  0  0  0  0  0  0  0  0  0  0  0
    6.5530  -16.3014   25.5352 O   0  0  0  0  0  0  0  0  0  0  0  0
    6.6083  -13.7793   21.0905 C   0  0  0  0  0  0  0  0  0  0  0  0
    6.9077  -13.2656   19.8442 C   0  0  0  0  0  0  0  0  0  0  0  0
    7.3625  -19.9086   25.6970 C   0  0  0  0  0  0  0  0  0  0  0  0
    8.6234  -19.4056   26.3603 C   0  0  1  0  0  0  0  0  0  0  0  0
    9.6774  -19.6783   25.4890 O   0  0  0  0  0  0  0  0  0  0  0  0
    8.5972  -17.8991   26.5604 C   0  0  2  0  0  0  0  0  0  0  0  0
    8.5890  -17.2961   25.2573 N   0  0  0  0  0  0  0  0  0  0  0  0
    9.7714  -17.4796   27.3706 C   0  0  0  0  0  0  0  0  0  0  0  0
   10.6627  -16.7586   26.9012 O   0  0  0  0  0  0  0  0  0  0  0  0
    9.8580  -17.9121   28.6790 O   0  0  0  0  0  0  0  0  0  0  0  0
  1  2  1  0
  2  3  1  0
  3  4  2  0
  6  5  1  0
  6  7  2  0
  8  7  1  0
  9 10  1  0
  9  8  2  0
 11 10  1  1
 11 13  1  0
 12 11  1  0
 12  3  1  0
 13 14  2  0
 15 16  2  0
 15  9  1  0
 16  6  1  0
 18 17  1  6
 18 20  1  0
 19 18  1  0
 20 22  1  0
 21 13  1  0
 20 21  1  6
 22 23  2  0
 22 24  1  0
M  END
$$$$
