YRQ.pdb
     RDKit          3D

 33 33  0  0  1  0  0  0  0  0999 V2000
   19.1597  -10.3265  -16.2113 O   0  0  0  0  0  0  0  0  0  0  0  0
   19.6504  -11.5973  -16.4578 C   0  0  0  0  0  0  0  0  0  0  0  0
   19.7595  -12.5034  -15.4474 C   0  0  0  0  0  0  0  0  0  0  0  0
   20.2477  -13.7682  -15.6924 C   0  0  0  0  0  0  0  0  0  0  0  0
   20.6443  -14.1697  -16.9597 C   0  0  0  0  0  0  0  0  0  0  0  0
   21.1533  -15.5229  -17.1203 C   0  0  0  0  0  0  0  0  0  0  0  0
   22.5013  -15.6735  -17.7324 C   0  0  2  0  0  0  0  0  0  0  0  0
   22.3755  -15.2690  -19.1241 N   0  0  0  0  0  0  0  0  0  0  0  0
   23.0935  -17.0248  -17.6269 C   0  0  0  0  0  0  0  0  0  0  0  0
   23.6097  -17.5800  -18.6288 O   0  0  0  0  0  0  0  0  0  0  0  0
   20.5182  -13.2236  -17.9550 C   0  0  0  0  0  0  0  0  0  0  0  0
   20.0341  -11.9497  -17.7462 C   0  0  0  0  0  0  0  0  0  0  0  0
   27.9217  -23.2840  -16.1875 N   0  0  0  0  0  0  0  0  0  0  0  0
   26.7787  -23.2911  -17.0297 C   0  0  0  0  0  0  0  0  0  0  0  0
   26.0664  -24.3323  -17.2845 N   0  0  0  0  0  0  0  0  0  0  0  0
   26.3128  -22.1179  -17.6793 N   0  0  0  0  0  0  0  0  0  0  0  0
   26.7271  -20.8083  -17.3443 C   0  0  0  0  0  0  0  0  0  0  0  0
   26.1085  -20.1103  -16.2316 C   0  0  0  0  0  0  0  0  0  0  0  0
   25.2214  -18.9579  -16.5589 C   0  0  0  0  0  0  0  0  0  0  0  0
   23.8015  -19.0007  -16.2426 C   0  0  2  0  0  0  0  0  0  0  0  0
   23.1032  -17.7486  -16.4021 N   0  0  0  0  0  0  0  0  0  0  0  0
   23.4578  -19.5265  -14.9031 C   0  0  0  0  0  0  0  0  0  0  0  0
   23.9212  -18.9437  -13.9034 O   0  0  0  0  0  0  0  0  0  0  0  0
   25.2724  -24.2000  -17.9660 N   0  0  0  0  0  0  0  0  0  0  0  0
   18.3190  -19.6429  -12.9696 C   0  0  0  0  0  0  0  0  0  0  0  0
   18.8191  -20.2786  -11.8042 O   0  0  0  0  0  0  0  0  0  0  0  0
   18.1413  -20.3241  -10.7517 C   0  0  0  0  0  0  0  0  0  0  0  0
   20.1858  -20.8911  -11.8828 C   0  0  0  0  0  0  0  0  0  0  0  0
   20.8085  -20.5205  -13.1845 C   0  0  1  0  0  0  0  0  0  0  0  0
   22.2021  -21.0396  -13.3634 N   0  0  0  0  0  0  0  0  0  0  0  0
   22.6365  -20.6488  -14.7194 C   0  0  0  0  0  0  0  0  0  0  0  0
   22.2286  -22.4982  -13.2534 O   0  0  0  0  0  0  0  0  0  0  0  0
   22.2502  -23.2417  -14.2708 O   0  0  0  0  0  0  0  0  0  0  0  0
  2  1  1  0
  3  2  2  0
  4  3  1  0
  5 11  1  0
  5  4  2  0
  6  5  1  0
  7  8  1  6
  7  9  1  0
  7  6  1  0
  9 21  1  0
 10  9  2  0
 11 12  2  0
 12  2  1  0
 13 14  1  0
 14 16  1  0
 14 15  2  0
 16 17  1  0
 18 17  1  0
 19 18  1  0
 20 19  1  1
 21 20  1  0
 22 30  1  0
 22 20  1  0
 23 22  2  0
 25 24  1  0
 26 25  2  0
 27 25  1  0
 28 27  1  0
 29 28  1  1
 29 30  1  0
 29 31  1  0
 31 33  1  0
 32 31  2  0
M  END
$$$$
