YRQ.pdb
     RDKit          3D

 33 33  0  0  1  0  0  0  0  0999 V2000
   31.6205  -21.8944   -9.6528 O   0  0  0  0  0  0  0  0  0  0  0  0
   30.6178  -21.3993  -10.4689 C   0  0  0  0  0  0  0  0  0  0  0  0
   30.9072  -20.5032  -11.4522 C   0  0  0  0  0  0  0  0  0  0  0  0
   29.9095  -20.0105  -12.2646 C   0  0  0  0  0  0  0  0  0  0  0  0
   28.5856  -20.3987  -12.1198 C   0  0  0  0  0  0  0  0  0  0  0  0
   27.6006  -19.8194  -13.0201 C   0  0  0  0  0  0  0  0  0  0  0  0
   27.1769  -20.6435  -14.1844 C   0  0  2  0  0  0  0  0  0  0  0  0
   28.3284  -20.7413  -15.0680 N   0  0  0  0  0  0  0  0  0  0  0  0
   25.9926  -20.1406  -14.9143 C   0  0  0  0  0  0  0  0  0  0  0  0
   26.0912  -19.1728  -15.7093 O   0  0  0  0  0  0  0  0  0  0  0  0
   28.3339  -21.3070  -11.1132 C   0  0  0  0  0  0  0  0  0  0  0  0
   29.3067  -21.8208  -10.2822 C   0  0  0  0  0  0  0  0  0  0  0  0
   20.8442  -22.9506  -20.8921 N   0  0  0  0  0  0  0  0  0  0  0  0
   22.0750  -23.1731  -20.2201 C   0  0  0  0  0  0  0  0  0  0  0  0
   23.1061  -23.7308  -20.7514 N   0  0  0  0  0  0  0  0  0  0  0  0
   22.2772  -22.7882  -18.8686 N   0  0  0  0  0  0  0  0  0  0  0  0
   21.3185  -22.1029  -18.0874 C   0  0  0  0  0  0  0  0  0  0  0  0
   21.7409  -21.0826  -17.1447 C   0  0  0  0  0  0  0  0  0  0  0  0
   23.0314  -21.3055  -16.4327 C   0  0  0  0  0  0  0  0  0  0  0  0
   23.5572  -20.3036  -15.5176 C   0  0  2  0  0  0  0  0  0  0  0  0
   24.7045  -20.7215  -14.7493 N   0  0  0  0  0  0  0  0  0  0  0  0
   22.5808  -19.7262  -14.5679 C   0  0  0  0  0  0  0  0  0  0  0  0
   22.4060  -20.3034  -13.4769 O   0  0  0  0  0  0  0  0  0  0  0  0
   23.9491  -23.8444  -20.1279 N   0  0  0  0  0  0  0  0  0  0  0  0
   19.4955  -14.4684  -15.4125 C   0  0  0  0  0  0  0  0  0  0  0  0
   18.7369  -14.9311  -14.3067 O   0  0  0  0  0  0  0  0  0  0  0  0
   17.7676  -14.2706  -13.8664 C   0  0  0  0  0  0  0  0  0  0  0  0
   19.1401  -16.2368  -13.6890 C   0  0  0  0  0  0  0  0  0  0  0  0
   20.3170  -16.7778  -14.4250 C   0  0  1  0  0  0  0  0  0  0  0  0
   20.7824  -18.1138  -13.9329 N   0  0  0  0  0  0  0  0  0  0  0  0
   21.8497  -18.5624  -14.8492 C   0  0  0  0  0  0  0  0  0  0  0  0
   19.6883  -19.0846  -13.9599 O   0  0  0  0  0  0  0  0  0  0  0  0
   19.3905  -19.7223  -15.0053 O   0  0  0  0  0  0  0  0  0  0  0  0
  2  1  1  0
  3  2  2  0
  4  3  1  0
  5 11  1  0
  5  4  2  0
  6  5  1  0
  7  8  1  6
  7  9  1  0
  7  6  1  0
  9 21  1  0
 10  9  2  0
 11 12  2  0
 12  2  1  0
 13 14  1  0
 14 16  1  0
 14 15  2  0
 16 17  1  0
 18 17  1  0
 19 18  1  0
 20 19  1  1
 21 20  1  0
 22 30  1  0
 22 20  1  0
 23 22  2  0
 25 24  1  0
 26 25  2  0
 27 25  1  0
 28 27  1  0
 29 28  1  1
 29 30  1  0
 29 31  1  0
 31 33  1  0
 32 31  2  0
M  END
$$$$
