YRQ.pdb
     RDKit          3D

 33 33  0  0  1  0  0  0  0  0999 V2000
   25.7082  -10.9127  -21.4815 O   0  0  0  0  0  0  0  0  0  0  0  0
   25.4434  -12.1319  -20.8814 C   0  0  0  0  0  0  0  0  0  0  0  0
   24.7639  -12.1884  -19.7030 C   0  0  0  0  0  0  0  0  0  0  0  0
   24.5002  -13.4016  -19.1056 C   0  0  0  0  0  0  0  0  0  0  0  0
   24.9088  -14.6018  -19.6687 C   0  0  0  0  0  0  0  0  0  0  0  0
   24.5904  -15.8324  -18.9614 C   0  0  0  0  0  0  0  0  0  0  0  0
   25.6970  -16.4952  -18.2193 C   0  0  2  0  0  0  0  0  0  0  0  0
   26.7561  -16.7452  -19.1847 N   0  0  0  0  0  0  0  0  0  0  0  0
   25.3239  -17.7391  -17.5110 C   0  0  0  0  0  0  0  0  0  0  0  0
   25.8993  -18.8248  -17.7730 O   0  0  0  0  0  0  0  0  0  0  0  0
   25.5936  -14.5019  -20.8614 C   0  0  0  0  0  0  0  0  0  0  0  0
   25.8749  -13.3060  -21.4871 C   0  0  0  0  0  0  0  0  0  0  0  0
   25.4371  -20.5698  -10.9575 N   0  0  0  0  0  0  0  0  0  0  0  0
   26.0458  -21.4124  -11.9247 C   0  0  0  0  0  0  0  0  0  0  0  0
   25.9738  -22.6974  -11.9219 N   0  0  0  0  0  0  0  0  0  0  0  0
   26.8056  -20.8938  -13.0060 N   0  0  0  0  0  0  0  0  0  0  0  0
   26.9252  -19.5165  -13.3025 C   0  0  0  0  0  0  0  0  0  0  0  0
   25.8426  -18.8183  -13.9721 C   0  0  0  0  0  0  0  0  0  0  0  0
   25.1349  -19.5461  -15.0637 C   0  0  0  0  0  0  0  0  0  0  0  0
   23.9995  -18.9418  -15.7444 C   0  0  2  0  0  0  0  0  0  0  0  0
   24.3079  -17.7622  -16.5154 N   0  0  0  0  0  0  0  0  0  0  0  0
   22.8380  -18.6143  -14.8885 C   0  0  0  0  0  0  0  0  0  0  0  0
   23.0073  -17.8215  -13.9416 O   0  0  0  0  0  0  0  0  0  0  0  0
   26.4666  -23.1947  -12.7107 N   0  0  0  0  0  0  0  0  0  0  0  0
   23.8788  -23.3479  -14.1324 C   0  0  0  0  0  0  0  0  0  0  0  0
   22.7729  -23.8093  -14.8917 O   0  0  0  0  0  0  0  0  0  0  0  0
   22.5687  -25.0342  -15.0571 C   0  0  0  0  0  0  0  0  0  0  0  0
   21.8623  -22.7763  -15.4856 C   0  0  0  0  0  0  0  0  0  0  0  0
   22.3334  -21.4232  -15.0775 C   0  0  2  0  0  0  0  0  0  0  0  0
   21.2406  -20.5133  -14.6070 N   0  0  0  0  0  0  0  0  0  0  0  0
   21.5635  -19.1603  -15.1022 C   0  0  0  0  0  0  0  0  0  0  0  0
   21.1828  -20.4874  -13.1454 O   0  0  0  0  0  0  0  0  0  0  0  0
   22.1996  -20.2383  -12.4437 O   0  0  0  0  0  0  0  0  0  0  0  0
  2  1  1  0
  3  2  2  0
  4  3  1  0
  5 11  1  0
  5  4  2  0
  6  5  1  0
  7  8  1  6
  7  9  1  0
  7  6  1  0
  9 21  1  0
 10  9  2  0
 11 12  2  0
 12  2  1  0
 13 14  1  0
 14 16  1  0
 14 15  2  0
 16 17  1  0
 18 17  1  0
 19 18  1  0
 20 19  1  1
 21 20  1  0
 22 30  1  0
 22 20  1  0
 23 22  2  0
 25 24  1  0
 26 25  2  0
 27 25  1  0
 28 27  1  0
 29 28  1  6
 29 30  1  0
 29 31  1  0
 31 33  1  0
 32 31  2  0
M  END
$$$$
