YRQ.pdb
     RDKit          3D

 33 33  0  0  1  0  0  0  0  0999 V2000
   15.3193  -19.4478  -18.5703 O   0  0  0  0  0  0  0  0  0  0  0  0
   16.6470  -19.5746  -18.1989 C   0  0  0  0  0  0  0  0  0  0  0  0
   17.6143  -18.8624  -18.8398 C   0  0  0  0  0  0  0  0  0  0  0  0
   18.9356  -18.9882  -18.4705 C   0  0  0  0  0  0  0  0  0  0  0  0
   19.3343  -19.8331  -17.4450 C   0  0  0  0  0  0  0  0  0  0  0  0
   20.7528  -19.9049  -17.1304 C   0  0  0  0  0  0  0  0  0  0  0  0
   21.1374  -19.7921  -15.6974 C   0  0  2  0  0  0  0  0  0  0  0  0
   20.8283  -18.4308  -15.2879 N   0  0  0  0  0  0  0  0  0  0  0  0
   22.5461  -20.1272  -15.3951 C   0  0  0  0  0  0  0  0  0  0  0  0
   23.4527  -19.2668  -15.5225 O   0  0  0  0  0  0  0  0  0  0  0  0
   18.3253  -20.5364  -16.8213 C   0  0  0  0  0  0  0  0  0  0  0  0
   16.9938  -20.4352  -17.1643 C   0  0  0  0  0  0  0  0  0  0  0  0
   23.3845  -19.4845   -8.9696 N   0  0  0  0  0  0  0  0  0  0  0  0
   23.1588  -20.8417   -9.3202 C   0  0  0  0  0  0  0  0  0  0  0  0
   22.2083  -21.5692   -8.8472 N   0  0  0  0  0  0  0  0  0  0  0  0
   23.9853  -21.5290  -10.2475 N   0  0  0  0  0  0  0  0  0  0  0  0
   25.0544  -20.9299  -10.9526 C   0  0  0  0  0  0  0  0  0  0  0  0
   24.9606  -20.7311  -12.3878 C   0  0  0  0  0  0  0  0  0  0  0  0
   24.5802  -21.9110  -13.2154 C   0  0  0  0  0  0  0  0  0  0  0  0
   24.2987  -21.7622  -14.6354 C   0  0  2  0  0  0  0  0  0  0  0  0
   22.9332  -21.4233  -14.9542 N   0  0  0  0  0  0  0  0  0  0  0  0
   24.6755  -22.9107  -15.4884 C   0  0  0  0  0  0  0  0  0  0  0  0
   23.7865  -23.7223  -15.8122 O   0  0  0  0  0  0  0  0  0  0  0  0
   22.1291  -22.5459   -9.2374 N   0  0  0  0  0  0  0  0  0  0  0  0
   30.2148  -23.7599  -18.0404 C   0  0  0  0  0  0  0  0  0  0  0  0
   29.3080  -22.8144  -18.5843 O   0  0  0  0  0  0  0  0  0  0  0  0
   29.6993  -21.9239  -19.3739 C   0  0  0  0  0  0  0  0  0  0  0  0
   27.8685  -22.9232  -18.1779 C   0  0  0  0  0  0  0  0  0  0  0  0
   27.7066  -24.1007  -17.2796 C   0  0  2  0  0  0  0  0  0  0  0  0
   26.3102  -24.2940  -16.7735 N   0  0  0  0  0  0  0  0  0  0  0  0
   25.9870  -23.1180  -15.9413 C   0  0  0  0  0  0  0  0  0  0  0  0
   26.2203  -25.5014  -15.9523 O   0  0  0  0  0  0  0  0  0  0  0  0
   26.0505  -25.4463  -14.7047 O   0  0  0  0  0  0  0  0  0  0  0  0
  2  1  1  0
  3  2  2  0
  4  3  1  0
  5 11  1  0
  5  4  2  0
  6  5  1  0
  7  8  1  6
  7  9  1  0
  7  6  1  0
  9 21  1  0
 10  9  2  0
 11 12  2  0
 12  2  1  0
 13 14  1  0
 14 16  1  0
 14 15  2  0
 16 17  1  0
 18 17  1  0
 19 18  1  0
 20 19  1  1
 21 20  1  0
 22 30  1  0
 22 20  1  0
 23 22  2  0
 25 24  1  0
 26 25  2  0
 27 25  1  0
 28 27  1  0
 29 28  1  6
 29 30  1  0
 29 31  1  0
 31 33  1  0
 32 31  2  0
M  END
$$$$
