YRQ.pdb
     RDKit          3D

 33 33  0  0  1  0  0  0  0  0999 V2000
   19.0444  -23.6193   -6.5869 O   0  0  0  0  0  0  0  0  0  0  0  0
   19.8412  -22.8460   -7.4138 C   0  0  0  0  0  0  0  0  0  0  0  0
   20.0977  -23.2403   -8.6914 C   0  0  0  0  0  0  0  0  0  0  0  0
   20.8906  -22.4709   -9.5146 C   0  0  0  0  0  0  0  0  0  0  0  0
   21.4549  -21.2784   -9.0857 C   0  0  0  0  0  0  0  0  0  0  0  0
   22.2836  -20.5376  -10.0242 C   0  0  0  0  0  0  0  0  0  0  0  0
   23.6637  -21.0429  -10.2574 C   0  0  2  0  0  0  0  0  0  0  0  0
   24.4149  -20.7832   -9.0390 N   0  0  0  0  0  0  0  0  0  0  0  0
   24.3531  -20.4711  -11.4346 C   0  0  0  0  0  0  0  0  0  0  0  0
   24.8787  -19.3313  -11.3804 O   0  0  0  0  0  0  0  0  0  0  0  0
   21.1713  -20.9142   -7.7863 C   0  0  0  0  0  0  0  0  0  0  0  0
   20.3826  -21.6589   -6.9352 C   0  0  0  0  0  0  0  0  0  0  0  0
   29.7260  -24.4079  -17.5071 N   0  0  0  0  0  0  0  0  0  0  0  0
   28.5263  -23.6492  -17.5383 C   0  0  0  0  0  0  0  0  0  0  0  0
   27.3938  -24.0917  -17.9606 N   0  0  0  0  0  0  0  0  0  0  0  0
   28.4736  -22.3019  -17.0939 N   0  0  0  0  0  0  0  0  0  0  0  0
   28.2459  -21.9178  -15.7524 C   0  0  0  0  0  0  0  0  0  0  0  0
   27.1116  -21.0755  -15.4178 C   0  0  0  0  0  0  0  0  0  0  0  0
   26.3533  -21.4144  -14.1800 C   0  0  0  0  0  0  0  0  0  0  0  0
   25.1665  -20.6597  -13.8063 C   0  0  2  0  0  0  0  0  0  0  0  0
   24.4490  -21.1765  -12.6664 N   0  0  0  0  0  0  0  0  0  0  0  0
   24.1775  -20.4430  -14.8850 C   0  0  0  0  0  0  0  0  0  0  0  0
   23.3631  -21.3541  -15.1310 O   0  0  0  0  0  0  0  0  0  0  0  0
   26.5856  -23.4149  -17.9266 N   0  0  0  0  0  0  0  0  0  0  0  0
   22.5279  -14.9458  -16.8635 C   0  0  0  0  0  0  0  0  0  0  0  0
   21.6167  -15.6810  -17.6644 O   0  0  0  0  0  0  0  0  0  0  0  0
   20.7437  -15.0996  -18.3495 C   0  0  0  0  0  0  0  0  0  0  0  0
   21.7400  -17.1756  -17.6579 C   0  0  0  0  0  0  0  0  0  0  0  0
   22.8099  -17.5692  -16.6989 C   0  0  1  0  0  0  0  0  0  0  0  0
   23.0411  -19.0468  -16.6160 N   0  0  0  0  0  0  0  0  0  0  0  0
   24.1244  -19.2589  -15.6354 C   0  0  0  0  0  0  0  0  0  0  0  0
   23.4584  -19.5784  -17.9135 O   0  0  0  0  0  0  0  0  0  0  0  0
   24.6534  -19.5089  -18.3077 O   0  0  0  0  0  0  0  0  0  0  0  0
  2  1  1  0
  3  2  2  0
  4  3  1  0
  5 11  1  0
  5  4  2  0
  6  5  1  0
  7  8  1  1
  7  9  1  0
  7  6  1  0
  9 21  1  0
 10  9  2  0
 11 12  2  0
 12  2  1  0
 13 14  1  0
 14 16  1  0
 14 15  2  0
 16 17  1  0
 18 17  1  0
 19 18  1  0
 20 19  1  6
 21 20  1  0
 22 30  1  0
 22 20  1  0
 23 22  2  0
 25 24  1  0
 26 25  2  0
 27 25  1  0
 28 27  1  0
 29 28  1  1
 29 30  1  0
 29 31  1  0
 31 33  1  0
 32 31  2  0
M  END
$$$$
