CNR.pdb
     RDKit          3D

 26 25  0  0  1  0  0  0  0  0999 V2000
   26.3934  -21.8885  -14.5747 N   0  0  0  0  0  0  0  0  0  0  0  0
   25.5894  -20.9831  -15.3651 C   0  0  1  0  0  0  0  0  0  0  0  0
   25.5656  -21.4658  -16.8002 C   0  0  0  0  0  0  0  0  0  0  0  0
   27.1760  -21.3787  -17.5804 S   0  0  0  0  0  0  0  0  0  0  0  0
   24.1764  -21.0011  -14.8008 C   0  0  0  0  0  0  0  0  0  0  0  0
   23.8103  -21.9657  -14.0930 O   0  0  0  0  0  0  0  0  0  0  0  0
   18.8602  -18.3231  -15.1595 N   0  0  0  0  0  0  0  0  0  0  0  0
   19.9591  -18.3389  -14.2267 C   0  0  0  0  0  0  0  0  0  0  0  0
   19.7319  -18.2658  -12.9930 O   0  0  0  0  0  0  0  0  0  0  0  0
   21.2995  -18.4450  -14.8507 C   0  0  0  0  0  0  0  0  0  0  0  0
   21.9762  -19.7816  -14.6062 C   0  0  2  0  0  0  0  0  0  0  0  0
   23.2886  -19.9451  -15.0711 N   0  0  0  0  0  0  0  0  0  0  0  0
   21.0187  -20.8490  -14.7996 C   0  0  0  0  0  0  0  0  0  0  0  0
   21.0269  -21.4179  -15.9447 O   0  0  0  0  0  0  0  0  0  0  0  0
   21.5437  -29.0421  -13.2144 N   0  0  0  0  0  0  0  0  0  0  0  0
   21.0447  -28.0577  -12.3245 C   0  0  0  0  0  0  0  0  0  0  0  0
   21.1797  -28.1874  -11.0278 N   0  0  0  0  0  0  0  0  0  0  0  0
   20.3620  -26.8931  -12.6962 N   0  0  0  0  0  0  0  0  0  0  0  0
   20.0296  -26.3283  -13.9293 C   0  0  0  0  0  0  0  0  0  0  0  0
   19.3686  -25.0497  -14.1309 C   0  0  0  0  0  0  0  0  0  0  0  0
   19.9965  -23.7726  -13.7700 C   0  0  0  0  0  0  0  0  0  0  0  0
   19.2381  -22.5214  -14.1060 C   0  0  2  0  0  0  0  0  0  0  0  0
   20.0838  -21.3334  -13.8787 N   0  0  0  0  0  0  0  0  0  0  0  0
   17.9133  -22.3505  -13.5443 C   0  0  0  0  0  0  0  0  0  0  0  0
   17.0218  -23.2765  -13.6831 O   0  0  0  0  0  0  0  0  0  0  0  0
   17.4400  -21.2613  -12.8293 O   0  0  0  0  0  0  0  0  0  0  0  0
  2  5  1  0
  2  1  1  1
  3  2  1  0
  4  3  1  0
  5  6  2  0
  7  8  1  0
  8 10  1  0
  9  8  2  0
 11 10  1  6
 12  5  1  0
 12 11  1  0
 13 23  1  0
 13 11  1  0
 14 13  2  0
 15 16  1  0
 16 18  1  0
 16 17  2  0
 18 19  1  0
 20 19  1  0
 21 20  1  0
 22 23  1  0
 22 21  1  1
 24 22  1  0
 25 24  2  0
 26 24  1  0
M  END
$$$$
