CNR.pdb
     RDKit          3D

 26 25  0  0  1  0  0  0  0  0999 V2000
   27.0303  -19.7707  -16.3294 N   0  0  0  0  0  0  0  0  0  0  0  0
   28.1137  -20.3017  -15.5322 C   0  0  1  0  0  0  0  0  0  0  0  0
   29.0681  -19.1791  -15.1828 C   0  0  0  0  0  0  0  0  0  0  0  0
   28.2233  -17.7337  -14.5451 S   0  0  0  0  0  0  0  0  0  0  0  0
   27.5156  -20.8743  -14.2556 C   0  0  0  0  0  0  0  0  0  0  0  0
   28.2620  -21.4482  -13.4316 O   0  0  0  0  0  0  0  0  0  0  0  0
   24.4938  -21.5331  -10.3562 N   0  0  0  0  0  0  0  0  0  0  0  0
   25.4577  -20.4633  -10.2903 C   0  0  0  0  0  0  0  0  0  0  0  0
   25.7123  -19.9193   -9.1866 O   0  0  0  0  0  0  0  0  0  0  0  0
   26.0734  -20.1037  -11.5900 C   0  0  0  0  0  0  0  0  0  0  0  0
   25.4773  -20.8515  -12.7689 C   0  0  2  0  0  0  0  0  0  0  0  0
   26.1374  -20.7611  -14.0023 N   0  0  0  0  0  0  0  0  0  0  0  0
   24.0349  -20.7435  -12.7285 C   0  0  0  0  0  0  0  0  0  0  0  0
   23.5486  -19.5737  -12.9012 O   0  0  0  0  0  0  0  0  0  0  0  0
   18.2705  -27.5831  -13.4726 N   0  0  0  0  0  0  0  0  0  0  0  0
   19.1434  -26.9794  -12.5326 C   0  0  0  0  0  0  0  0  0  0  0  0
   19.8034  -27.7019  -11.6615 N   0  0  0  0  0  0  0  0  0  0  0  0
   19.3835  -25.6056  -12.4075 N   0  0  0  0  0  0  0  0  0  0  0  0
   18.9541  -24.4876  -13.1255 C   0  0  0  0  0  0  0  0  0  0  0  0
   19.7102  -23.2633  -13.3295 C   0  0  0  0  0  0  0  0  0  0  0  0
   21.1106  -23.1232  -12.9108 C   0  0  0  0  0  0  0  0  0  0  0  0
   21.7356  -21.7671  -13.0658 C   0  0  2  0  0  0  0  0  0  0  0  0
   23.1082  -21.7710  -12.5233 N   0  0  0  0  0  0  0  0  0  0  0  0
   20.9862  -20.6109  -12.6172 C   0  0  0  0  0  0  0  0  0  0  0  0
   21.2177  -20.0948  -11.4546 O   0  0  0  0  0  0  0  0  0  0  0  0
   19.9925  -19.9359  -13.3090 O   0  0  0  0  0  0  0  0  0  0  0  0
  2  5  1  0
  2  1  1  6
  3  2  1  0
  4  3  1  0
  5  6  2  0
  7  8  1  0
  8 10  1  0
  9  8  2  0
 11 10  1  1
 12  5  1  0
 12 11  1  0
 13 23  1  0
 13 11  1  0
 14 13  2  0
 15 16  1  0
 16 18  1  0
 16 17  2  0
 18 19  1  0
 20 19  1  0
 21 20  1  0
 22 23  1  0
 22 21  1  1
 24 22  1  0
 25 24  2  0
 26 24  1  0
M  END
$$$$
