CNR.pdb
     RDKit          3D

 26 25  0  0  1  0  0  0  0  0999 V2000
   29.0763  -19.6449  -17.5183 N   0  0  0  0  0  0  0  0  0  0  0  0
   28.9381  -18.9359  -16.2656 C   0  0  1  0  0  0  0  0  0  0  0  0
   27.9026  -17.8427  -16.4267 C   0  0  0  0  0  0  0  0  0  0  0  0
   28.6230  -16.2856  -16.9424 S   0  0  0  0  0  0  0  0  0  0  0  0
   28.4652  -19.9313  -15.2166 C   0  0  0  0  0  0  0  0  0  0  0  0
   27.6144  -20.7942  -15.5283 O   0  0  0  0  0  0  0  0  0  0  0  0
   30.4775  -22.4822  -13.2189 N   0  0  0  0  0  0  0  0  0  0  0  0
   30.6258  -21.7992  -11.9582 C   0  0  0  0  0  0  0  0  0  0  0  0
   31.6037  -22.0652  -11.2153 O   0  0  0  0  0  0  0  0  0  0  0  0
   29.5614  -20.8115  -11.6601 C   0  0  0  0  0  0  0  0  0  0  0  0
   28.5691  -20.6310  -12.7946 C   0  0  2  0  0  0  0  0  0  0  0  0
   28.9776  -19.8839  -13.9083 N   0  0  0  0  0  0  0  0  0  0  0  0
   27.2456  -20.4215  -12.2486 C   0  0  0  0  0  0  0  0  0  0  0  0
   27.0657  -19.3354  -11.5981 O   0  0  0  0  0  0  0  0  0  0  0  0
   19.9751  -23.3799  -12.9970 N   0  0  0  0  0  0  0  0  0  0  0  0
   19.5084  -22.1237  -13.4597 C   0  0  0  0  0  0  0  0  0  0  0  0
   18.3759  -22.0208  -14.1103 N   0  0  0  0  0  0  0  0  0  0  0  0
   20.1722  -20.9003  -13.3071 N   0  0  0  0  0  0  0  0  0  0  0  0
   21.4254  -20.5453  -12.8038 C   0  0  0  0  0  0  0  0  0  0  0  0
   22.3493  -21.4305  -12.1145 C   0  0  0  0  0  0  0  0  0  0  0  0
   23.7313  -21.6338  -12.5668 C   0  0  0  0  0  0  0  0  0  0  0  0
   24.8149  -20.9742  -11.7642 C   0  0  2  0  0  0  0  0  0  0  0  0
   26.1373  -21.2688  -12.3498 N   0  0  0  0  0  0  0  0  0  0  0  0
   24.8131  -21.1587  -10.3269 C   0  0  0  0  0  0  0  0  0  0  0  0
   25.5585  -22.0655   -9.7851 O   0  0  0  0  0  0  0  0  0  0  0  0
   24.0767  -20.4486   -9.3915 O   0  0  0  0  0  0  0  0  0  0  0  0
  2  5  1  0
  2  1  1  6
  3  2  1  0
  4  3  1  0
  5  6  2  0
  7  8  1  0
  8 10  1  0
  9  8  2  0
 11 10  1  1
 12  5  1  0
 12 11  1  0
 13 23  1  0
 13 11  1  0
 14 13  2  0
 15 16  1  0
 16 18  1  0
 16 17  2  0
 18 19  1  0
 20 19  1  0
 21 20  1  0
 22 23  1  0
 22 21  1  6
 24 22  1  0
 25 24  2  0
 26 24  1  0
M  END
$$$$
