CNR.pdb
     RDKit          3D

 26 25  0  0  1  0  0  0  0  0999 V2000
   18.8347  -11.7969  -15.3736 N   0  0  0  0  0  0  0  0  0  0  0  0
   18.5731  -10.3877  -15.5655 C   0  0  1  0  0  0  0  0  0  0  0  0
   17.1061  -10.1956  -15.8884 C   0  0  0  0  0  0  0  0  0  0  0  0
   16.6933  -10.7284  -17.5483 S   0  0  0  0  0  0  0  0  0  0  0  0
   18.9037   -9.6711  -14.2646 C   0  0  0  0  0  0  0  0  0  0  0  0
   18.5409  -10.1734  -13.1776 O   0  0  0  0  0  0  0  0  0  0  0  0
   20.6938   -6.3368  -10.9595 N   0  0  0  0  0  0  0  0  0  0  0  0
   21.4028   -5.8959  -12.1346 C   0  0  0  0  0  0  0  0  0  0  0  0
   22.2388   -4.9621  -12.0458 O   0  0  0  0  0  0  0  0  0  0  0  0
   21.0544   -6.6246  -13.3776 C   0  0  0  0  0  0  0  0  0  0  0  0
   19.9329   -7.6312  -13.1944 C   0  0  2  0  0  0  0  0  0  0  0  0
   19.6099   -8.4556  -14.2812 N   0  0  0  0  0  0  0  0  0  0  0  0
   18.8681   -7.0307  -12.4204 C   0  0  0  0  0  0  0  0  0  0  0  0
   18.1197   -6.1968  -13.0365 O   0  0  0  0  0  0  0  0  0  0  0  0
   11.5717  -10.0902   -8.7954 N   0  0  0  0  0  0  0  0  0  0  0  0
   12.7253  -10.2382   -9.6060 C   0  0  0  0  0  0  0  0  0  0  0  0
   12.9183  -11.3220  -10.3164 N   0  0  0  0  0  0  0  0  0  0  0  0
   13.7612   -9.3041   -9.7289 N   0  0  0  0  0  0  0  0  0  0  0  0
   14.0452   -8.0968   -9.0872 C   0  0  0  0  0  0  0  0  0  0  0  0
   15.1538   -7.2085   -9.3939 C   0  0  0  0  0  0  0  0  0  0  0  0
   16.3514   -7.6621  -10.1121 C   0  0  0  0  0  0  0  0  0  0  0  0
   17.4180   -6.6385  -10.3730 C   0  0  2  0  0  0  0  0  0  0  0  0
   18.5600   -7.2564  -11.0747 N   0  0  0  0  0  0  0  0  0  0  0  0
   17.8546   -5.8062   -9.2699 C   0  0  0  0  0  0  0  0  0  0  0  0
   19.0588   -5.9108   -8.8112 O   0  0  0  0  0  0  0  0  0  0  0  0
   17.1117   -4.8488   -8.5969 O   0  0  0  0  0  0  0  0  0  0  0  0
  2  5  1  0
  2  1  1  1
  3  2  1  0
  4  3  1  0
  5  6  2  0
  7  8  1  0
  8 10  1  0
  9  8  2  0
 11 10  1  6
 12  5  1  0
 12 11  1  0
 13 23  1  0
 13 11  1  0
 14 13  2  0
 15 16  1  0
 16 18  1  0
 16 17  2  0
 18 19  1  0
 20 19  1  0
 21 20  1  0
 22 23  1  0
 22 21  1  1
 24 22  1  0
 25 24  2  0
 26 24  1  0
M  END
$$$$
