CNR.pdb
     RDKit          3D

 26 25  0  0  1  0  0  0  0  0999 V2000
   25.4635  -16.8301  -17.4118 N   0  0  0  0  0  0  0  0  0  0  0  0
   25.2207  -15.6753  -18.2477 C   0  0  1  0  0  0  0  0  0  0  0  0
   23.8890  -15.8424  -18.9489 C   0  0  0  0  0  0  0  0  0  0  0  0
   23.8018  -17.3551  -19.9049 S   0  0  0  0  0  0  0  0  0  0  0  0
   25.1688  -14.4504  -17.3464 C   0  0  0  0  0  0  0  0  0  0  0  0
   24.3379  -14.4107  -16.4118 O   0  0  0  0  0  0  0  0  0  0  0  0
   27.6829  -10.2830  -14.6118 N   0  0  0  0  0  0  0  0  0  0  0  0
   27.4058  -10.1824  -16.0228 C   0  0  0  0  0  0  0  0  0  0  0  0
   27.1496   -9.0618  -16.5304 O   0  0  0  0  0  0  0  0  0  0  0  0
   27.4556  -11.4692  -16.7569 C   0  0  0  0  0  0  0  0  0  0  0  0
   26.1076  -12.1600  -16.8584 C   0  0  2  0  0  0  0  0  0  0  0  0
   26.0448  -13.3719  -17.5602 N   0  0  0  0  0  0  0  0  0  0  0  0
   25.0727  -11.1695  -17.0624 C   0  0  0  0  0  0  0  0  0  0  0  0
   24.8683  -10.8032  -18.2703 O   0  0  0  0  0  0  0  0  0  0  0  0
   16.8359  -12.0625  -16.6578 N   0  0  0  0  0  0  0  0  0  0  0  0
   17.4679  -11.4151  -15.5663 C   0  0  0  0  0  0  0  0  0  0  0  0
   16.9942  -11.5228  -14.3496 N   0  0  0  0  0  0  0  0  0  0  0  0
   18.6065  -10.6041  -15.6471 N   0  0  0  0  0  0  0  0  0  0  0  0
   19.3279  -10.0675  -16.7155 C   0  0  0  0  0  0  0  0  0  0  0  0
   20.6639   -9.4999  -16.6426 C   0  0  0  0  0  0  0  0  0  0  0  0
   21.8606  -10.3256  -16.4373 C   0  0  0  0  0  0  0  0  0  0  0  0
   23.1810   -9.6128  -16.3941 C   0  0  2  0  0  0  0  0  0  0  0  0
   24.2673  -10.5651  -16.0916 N   0  0  0  0  0  0  0  0  0  0  0  0
   23.2854   -8.4098  -15.5929 C   0  0  0  0  0  0  0  0  0  0  0  0
   22.5005   -7.4072  -15.8168 O   0  0  0  0  0  0  0  0  0  0  0  0
   24.1662   -8.1715  -14.5494 O   0  0  0  0  0  0  0  0  0  0  0  0
  2  5  1  0
  2  1  1  1
  3  2  1  0
  4  3  1  0
  5  6  2  0
  7  8  1  0
  8 10  1  0
  9  8  2  0
 11 10  1  6
 12  5  1  0
 12 11  1  0
 13 23  1  0
 13 11  1  0
 14 13  2  0
 15 16  1  0
 16 18  1  0
 16 17  2  0
 18 19  1  0
 20 19  1  0
 21 20  1  0
 22 23  1  0
 22 21  1  1
 24 22  1  0
 25 24  2  0
 26 24  1  0
M  END
$$$$
