CNR.pdb
     RDKit          3D

 26 25  0  0  1  0  0  0  0  0999 V2000
   29.1952  -21.0433  -16.1790 N   0  0  0  0  0  0  0  0  0  0  0  0
   28.2860  -20.1800  -15.4585 C   0  0  1  0  0  0  0  0  0  0  0  0
   27.5009  -19.3484  -16.4511 C   0  0  0  0  0  0  0  0  0  0  0  0
   25.7634  -19.2356  -16.0294 S   0  0  0  0  0  0  0  0  0  0  0  0
   27.3306  -21.0638  -14.6702 C   0  0  0  0  0  0  0  0  0  0  0  0
   27.6437  -22.2528  -14.4387 O   0  0  0  0  0  0  0  0  0  0  0  0
   25.9054  -20.5706   -9.3286 N   0  0  0  0  0  0  0  0  0  0  0  0
   25.6429  -21.3263  -10.5277 C   0  0  0  0  0  0  0  0  0  0  0  0
   24.8605  -22.3088  -10.4878 O   0  0  0  0  0  0  0  0  0  0  0  0
   26.3555  -20.8414  -11.7337 C   0  0  0  0  0  0  0  0  0  0  0  0
   25.4819  -20.7948  -12.9743 C   0  0  2  0  0  0  0  0  0  0  0  0
   26.1067  -20.5515  -14.2055 N   0  0  0  0  0  0  0  0  0  0  0  0
   24.2407  -20.1188  -12.6647 C   0  0  0  0  0  0  0  0  0  0  0  0
   24.3163  -18.8585  -12.4620 O   0  0  0  0  0  0  0  0  0  0  0  0
   22.2184  -16.1181  -16.2824 N   0  0  0  0  0  0  0  0  0  0  0  0
   21.8586  -16.9070  -17.4041 C   0  0  0  0  0  0  0  0  0  0  0  0
   22.4308  -16.7272  -18.5688 N   0  0  0  0  0  0  0  0  0  0  0  0
   20.8833  -17.9117  -17.4157 N   0  0  0  0  0  0  0  0  0  0  0  0
   20.4711  -18.8591  -16.4763 C   0  0  0  0  0  0  0  0  0  0  0  0
   20.7756  -18.8394  -15.0554 C   0  0  0  0  0  0  0  0  0  0  0  0
   21.8697  -19.6267  -14.4731 C   0  0  0  0  0  0  0  0  0  0  0  0
   21.7298  -20.0266  -13.0329 C   0  0  2  0  0  0  0  0  0  0  0  0
   22.9649  -20.6830  -12.5616 N   0  0  0  0  0  0  0  0  0  0  0  0
   20.5472  -20.7647  -12.6375 C   0  0  0  0  0  0  0  0  0  0  0  0
   19.3708  -20.3225  -12.9410 O   0  0  0  0  0  0  0  0  0  0  0  0
   20.5002  -21.9592  -11.9357 O   0  0  0  0  0  0  0  0  0  0  0  0
  2  5  1  0
  2  1  1  6
  3  2  1  0
  4  3  1  0
  5  6  2  0
  7  8  1  0
  8 10  1  0
  9  8  2  0
 11 10  1  1
 12  5  1  0
 12 11  1  0
 13 23  1  0
 13 11  1  0
 14 13  2  0
 15 16  1  0
 16 18  1  0
 16 17  2  0
 18 19  1  0
 20 19  1  0
 21 20  1  0
 22 23  1  0
 22 21  1  6
 24 22  1  0
 25 24  2  0
 26 24  1  0
M  END
$$$$
