MML.pdb
     RDKit          3D

 25 24  0  0  1  0  0  0  0  0999 V2000
    5.6630  -18.4833   27.9048 C   0  0  0  0  0  0  0  0  0  0  0  0
    7.3152  -19.1631   27.6759 S   0  0  0  0  0  0  0  0  0  0  0  0
    7.4946  -19.6854   25.9251 C   0  0  0  0  0  0  0  0  0  0  0  0
    6.3695  -19.0644   25.1582 C   0  0  0  0  0  0  0  0  0  0  0  0
    6.4820  -19.1770   23.6679 C   0  0  2  0  0  0  0  0  0  0  0  0
    6.9445  -20.5337   23.3828 N   0  0  0  0  0  0  0  0  0  0  0  0
    7.4891  -18.2582   23.0859 C   0  0  0  0  0  0  0  0  0  0  0  0
    8.6680  -18.6951   22.9735 O   0  0  0  0  0  0  0  0  0  0  0  0
    5.6898  -12.8745   20.1258 C   0  0  0  0  0  0  0  0  0  0  0  0
    7.4538  -12.7007   19.7350 S   0  0  0  0  0  0  0  0  0  0  0  0
    8.3532  -13.9137   20.7285 C   0  0  0  0  0  0  0  0  0  0  0  0
    7.4922  -14.9252   21.3721 C   0  0  0  0  0  0  0  0  0  0  0  0
    8.1914  -16.0119   22.1558 C   0  0  2  0  0  0  0  0  0  0  0  0
    7.1749  -16.9471   22.6663 N   0  0  0  0  0  0  0  0  0  0  0  0
    8.9286  -15.5236   23.3360 C   0  0  0  0  0  0  0  0  0  0  0  0
   10.0896  -15.0137   23.1518 O   0  0  0  0  0  0  0  0  0  0  0  0
    7.8101  -12.1365   25.5056 C   0  0  0  0  0  0  0  0  0  0  0  0
    7.1581  -13.4270   26.0230 C   0  0  2  0  0  0  0  0  0  0  0  0
    6.1182  -12.9729   27.0479 C   0  0  0  0  0  0  0  0  0  0  0  0
    8.2400  -14.2026   26.6892 C   0  0  0  0  0  0  0  0  0  0  0  0
    9.1661  -14.9479   25.7891 C   0  0  2  0  0  0  0  0  0  0  0  0
    8.4692  -15.5616   24.6767 N   0  0  0  0  0  0  0  0  0  0  0  0
   10.0784  -15.8879   26.4563 C   0  0  0  0  0  0  0  0  0  0  0  0
   10.8197  -15.5304   27.4342 O   0  0  0  0  0  0  0  0  0  0  0  0
   10.1967  -17.2159   26.0744 O   0  0  0  0  0  0  0  0  0  0  0  0
  1  2  1  0
  3  2  1  0
  4  3  1  0
  5  6  1  1
  5  4  1  0
  7  5  1  0
  8  7  2  0
 10  9  1  0
 10 11  1  0
 11 12  1  0
 13 12  1  1
 13 14  1  0
 14  7  1  0
 15 13  1  0
 15 16  2  0
 18 17  1  1
 18 20  1  0
 18 19  1  0
 21 20  1  1
 21 22  1  0
 22 15  1  0
 23 21  1  0
 24 23  2  0
 25 23  1  0
M  END
$$$$
