MML.pdb
     RDKit          3D

 25 24  0  0  1  0  0  0  0  0999 V2000
    7.2644  -12.2785   20.0105 C   0  0  0  0  0  0  0  0  0  0  0  0
    8.1728  -13.1651   18.7327 S   0  0  0  0  0  0  0  0  0  0  0  0
    7.3007  -14.7424   18.3836 C   0  0  0  0  0  0  0  0  0  0  0  0
    6.6903  -15.2068   19.6687 C   0  0  0  0  0  0  0  0  0  0  0  0
    7.6045  -16.0001   20.5526 C   0  0  2  0  0  0  0  0  0  0  0  0
    7.6479  -17.3544   20.0048 N   0  0  0  0  0  0  0  0  0  0  0  0
    7.1099  -16.1251   21.9444 C   0  0  0  0  0  0  0  0  0  0  0  0
    6.1607  -15.3667   22.2869 O   0  0  0  0  0  0  0  0  0  0  0  0
    7.4267  -20.5040   28.5409 C   0  0  0  0  0  0  0  0  0  0  0  0
    7.6491  -20.4266   26.7411 S   0  0  0  0  0  0  0  0  0  0  0  0
    7.2441  -18.7455   26.2147 C   0  0  0  0  0  0  0  0  0  0  0  0
    7.3528  -18.5255   24.7593 C   0  0  0  0  0  0  0  0  0  0  0  0
    7.2271  -17.0986   24.2774 C   0  0  2  0  0  0  0  0  0  0  0  0
    7.6553  -17.0418   22.8695 N   0  0  0  0  0  0  0  0  0  0  0  0
    8.0805  -16.1403   25.0042 C   0  0  0  0  0  0  0  0  0  0  0  0
    9.3364  -16.1401   24.7502 O   0  0  0  0  0  0  0  0  0  0  0  0
    7.8874  -11.8650   24.9562 C   0  0  0  0  0  0  0  0  0  0  0  0
    6.9793  -12.4595   26.0426 C   0  0  2  0  0  0  0  0  0  0  0  0
    6.2067  -11.2726   26.6191 C   0  0  0  0  0  0  0  0  0  0  0  0
    7.8851  -13.0392   27.0718 C   0  0  0  0  0  0  0  0  0  0  0  0
    8.5257  -14.3409   26.7274 C   0  0  2  0  0  0  0  0  0  0  0  0
    7.6391  -15.2019   25.9708 N   0  0  0  0  0  0  0  0  0  0  0  0
    9.1623  -15.0497   27.8468 C   0  0  0  0  0  0  0  0  0  0  0  0
    8.6541  -16.1078   28.3526 O   0  0  0  0  0  0  0  0  0  0  0  0
   10.3481  -14.6235   28.4262 O   0  0  0  0  0  0  0  0  0  0  0  0
  1  2  1  0
  3  2  1  0
  4  3  1  0
  5  6  1  6
  5  4  1  0
  7  5  1  0
  8  7  2  0
 10  9  1  0
 10 11  1  0
 11 12  1  0
 13 12  1  1
 13 14  1  0
 14  7  1  0
 15 13  1  0
 15 16  2  0
 18 17  1  6
 18 20  1  0
 18 19  1  0
 21 20  1  1
 21 22  1  0
 22 15  1  0
 23 21  1  0
 24 23  2  0
 25 23  1  0
M  END
$$$$
