MML.pdb
     RDKit          3D

 25 24  0  0  1  0  0  0  0  0999 V2000
    8.2093  -19.4345   28.6865 C   0  0  0  0  0  0  0  0  0  0  0  0
    6.6416  -18.9200   27.9642 S   0  0  0  0  0  0  0  0  0  0  0  0
    6.9568  -18.2988   26.2656 C   0  0  0  0  0  0  0  0  0  0  0  0
    6.6847  -19.4277   25.3217 C   0  0  0  0  0  0  0  0  0  0  0  0
    6.3868  -19.0154   23.9119 C   0  0  2  0  0  0  0  0  0  0  0  0
    6.3861  -20.2362   23.1083 N   0  0  0  0  0  0  0  0  0  0  0  0
    7.4227  -18.1292   23.3299 C   0  0  0  0  0  0  0  0  0  0  0  0
    8.5562  -18.6388   23.1087 O   0  0  0  0  0  0  0  0  0  0  0  0
    5.8745  -13.0501   19.9414 C   0  0  0  0  0  0  0  0  0  0  0  0
    7.6626  -12.7897   19.7688 S   0  0  0  0  0  0  0  0  0  0  0  0
    8.4884  -13.8923   20.9391 C   0  0  0  0  0  0  0  0  0  0  0  0
    7.5861  -14.8526   21.6042 C   0  0  0  0  0  0  0  0  0  0  0  0
    8.2324  -15.8767   22.5083 C   0  0  2  0  0  0  0  0  0  0  0  0
    7.1832  -16.7715   23.0253 N   0  0  0  0  0  0  0  0  0  0  0  0
    8.8988  -15.3004   23.6909 C   0  0  0  0  0  0  0  0  0  0  0  0
    9.9573  -14.6028   23.5047 O   0  0  0  0  0  0  0  0  0  0  0  0
    7.5722  -11.9889   25.7043 C   0  0  0  0  0  0  0  0  0  0  0  0
    6.9579  -13.3098   26.1904 C   0  0  2  0  0  0  0  0  0  0  0  0
    5.8114  -12.9063   27.1182 C   0  0  0  0  0  0  0  0  0  0  0  0
    8.0254  -14.0088   26.9570 C   0  0  0  0  0  0  0  0  0  0  0  0
    9.0563  -14.7223   26.1499 C   0  0  2  0  0  0  0  0  0  0  0  0
    8.4739  -15.4432   25.0358 N   0  0  0  0  0  0  0  0  0  0  0  0
    9.9969  -15.5532   26.9150 C   0  0  0  0  0  0  0  0  0  0  0  0
   10.6198  -15.1025   27.9361 O   0  0  0  0  0  0  0  0  0  0  0  0
   10.2710  -16.8721   26.5852 O   0  0  0  0  0  0  0  0  0  0  0  0
  1  2  1  0
  3  2  1  0
  4  3  1  0
  5  6  1  6
  5  4  1  0
  7  5  1  0
  8  7  2  0
 10  9  1  0
 10 11  1  0
 11 12  1  0
 13 12  1  6
 13 14  1  0
 14  7  1  0
 15 13  1  0
 15 16  2  0
 18 17  1  1
 18 20  1  0
 18 19  1  0
 21 20  1  1
 21 22  1  0
 22 15  1  0
 23 21  1  0
 24 23  2  0
 25 23  1  0
M  END
$$$$
