MML.pdb
     RDKit          3D

 25 24  0  0  1  0  0  0  0  0999 V2000
   10.9983  -21.5610   21.3311 C   0  0  0  0  0  0  0  0  0  0  0  0
   12.2254  -20.6856   20.3450 S   0  0  0  0  0  0  0  0  0  0  0  0
   11.5081  -19.0834   19.8077 C   0  0  0  0  0  0  0  0  0  0  0  0
   10.7262  -18.5371   20.9609 C   0  0  0  0  0  0  0  0  0  0  0  0
   10.0498  -17.2252   20.7015 C   0  0  2  0  0  0  0  0  0  0  0  0
   10.8897  -16.5003   19.7501 N   0  0  0  0  0  0  0  0  0  0  0  0
    9.9474  -16.3706   21.9083 C   0  0  0  0  0  0  0  0  0  0  0  0
   10.9227  -15.6089   22.1572 O   0  0  0  0  0  0  0  0  0  0  0  0
    6.6659  -11.9211   26.8567 C   0  0  0  0  0  0  0  0  0  0  0  0
    7.1083  -12.6084   25.2360 S   0  0  0  0  0  0  0  0  0  0  0  0
    6.8740  -14.3986   25.3219 C   0  0  0  0  0  0  0  0  0  0  0  0
    7.2409  -15.1159   24.0852 C   0  0  0  0  0  0  0  0  0  0  0  0
    8.6962  -15.4905   23.9243 C   0  0  2  0  0  0  0  0  0  0  0  0
    8.8223  -16.3850   22.7613 N   0  0  0  0  0  0  0  0  0  0  0  0
    9.2585  -16.2276   25.0712 C   0  0  0  0  0  0  0  0  0  0  0  0
    8.9739  -17.4717   25.1848 O   0  0  0  0  0  0  0  0  0  0  0  0
   11.0662  -13.4128   27.4157 C   0  0  0  0  0  0  0  0  0  0  0  0
   10.3843  -14.3457   28.4271 C   0  0  2  0  0  0  0  0  0  0  0  0
   10.6509  -13.7218   29.7975 C   0  0  0  0  0  0  0  0  0  0  0  0
   11.0730  -15.6604   28.3119 C   0  0  0  0  0  0  0  0  0  0  0  0
   10.7403  -16.4749   27.1080 C   0  0  2  0  0  0  0  0  0  0  0  0
   10.0995  -15.6854   26.0755 N   0  0  0  0  0  0  0  0  0  0  0  0
   10.0211  -17.7297   27.3709 C   0  0  0  0  0  0  0  0  0  0  0  0
   10.4886  -18.6245   28.1547 O   0  0  0  0  0  0  0  0  0  0  0  0
    8.7963  -18.0267   26.7920 O   0  0  0  0  0  0  0  0  0  0  0  0
  1  2  1  0
  3  2  1  0
  4  3  1  0
  5  6  1  6
  5  4  1  0
  7  5  1  0
  8  7  2  0
 10  9  1  0
 10 11  1  0
 11 12  1  0
 13 12  1  1
 13 14  1  0
 14  7  1  0
 15 13  1  0
 15 16  2  0
 18 17  1  6
 18 20  1  0
 18 19  1  0
 21 20  1  1
 21 22  1  0
 22 15  1  0
 23 21  1  0
 24 23  2  0
 25 23  1  0
M  END
$$$$
