MML.pdb
     RDKit          3D

 25 24  0  0  1  0  0  0  0  0999 V2000
    9.3457  -20.8728   21.9378 C   0  0  0  0  0  0  0  0  0  0  0  0
    8.7219  -20.7720   20.2511 S   0  0  0  0  0  0  0  0  0  0  0  0
    7.7936  -19.1992   20.0647 C   0  0  0  0  0  0  0  0  0  0  0  0
    8.5910  -18.1292   20.7420 C   0  0  0  0  0  0  0  0  0  0  0  0
    7.8983  -16.8057   20.8640 C   0  0  2  0  0  0  0  0  0  0  0  0
    8.2331  -16.0439   19.6625 N   0  0  0  0  0  0  0  0  0  0  0  0
    8.3702  -16.0021   22.0167 C   0  0  0  0  0  0  0  0  0  0  0  0
    9.5519  -15.5613   21.9642 O   0  0  0  0  0  0  0  0  0  0  0  0
    7.7192  -11.2145   27.6012 C   0  0  0  0  0  0  0  0  0  0  0  0
    6.5653  -12.0842   26.5027 S   0  0  0  0  0  0  0  0  0  0  0  0
    7.1316  -13.7952   26.3637 C   0  0  0  0  0  0  0  0  0  0  0  0
    6.8602  -14.4167   25.0527 C   0  0  0  0  0  0  0  0  0  0  0  0
    8.0496  -14.9789   24.3090 C   0  0  2  0  0  0  0  0  0  0  0  0
    7.5583  -15.7246   23.1380 N   0  0  0  0  0  0  0  0  0  0  0  0
    8.8546  -15.9330   25.0942 C   0  0  0  0  0  0  0  0  0  0  0  0
    8.3501  -17.0844   25.3424 O   0  0  0  0  0  0  0  0  0  0  0  0
   12.5392  -17.7765   23.8716 C   0  0  0  0  0  0  0  0  0  0  0  0
   12.7344  -16.4062   24.5368 C   0  0  2  0  0  0  0  0  0  0  0  0
   14.2207  -16.0853   24.3753 C   0  0  0  0  0  0  0  0  0  0  0  0
   12.3956  -16.5887   25.9748 C   0  0  0  0  0  0  0  0  0  0  0  0
   10.9445  -16.6951   26.3012 C   0  0  2  0  0  0  0  0  0  0  0  0
   10.1549  -15.6975   25.6075 N   0  0  0  0  0  0  0  0  0  0  0  0
   10.6201  -16.7591   27.7334 C   0  0  0  0  0  0  0  0  0  0  0  0
    9.8540  -15.9014   28.2912 O   0  0  0  0  0  0  0  0  0  0  0  0
   11.1181  -17.7458   28.5711 O   0  0  0  0  0  0  0  0  0  0  0  0
  1  2  1  0
  3  2  1  0
  4  3  1  0
  5  6  1  6
  5  4  1  0
  7  5  1  0
  8  7  2  0
 10  9  1  0
 10 11  1  0
 11 12  1  0
 13 12  1  1
 13 14  1  0
 14  7  1  0
 15 13  1  0
 15 16  2  0
 18 17  1  6
 18 20  1  0
 18 19  1  0
 21 20  1  1
 21 22  1  0
 22 15  1  0
 23 21  1  0
 24 23  2  0
 25 23  1  0
M  END
$$$$
