MML.pdb
     RDKit          3D

 25 24  0  0  1  0  0  0  0  0999 V2000
    8.0092  -11.4777   20.3295 C   0  0  0  0  0  0  0  0  0  0  0  0
    7.1061  -12.3693   19.0513 S   0  0  0  0  0  0  0  0  0  0  0  0
    7.7707  -14.0776   18.9501 C   0  0  0  0  0  0  0  0  0  0  0  0
    7.6439  -14.6855   20.3117 C   0  0  0  0  0  0  0  0  0  0  0  0
    8.1043  -16.1081   20.4144 C   0  0  2  0  0  0  0  0  0  0  0  0
    7.1109  -16.9226   19.7173 N   0  0  0  0  0  0  0  0  0  0  0  0
    8.1542  -16.6079   21.8090 C   0  0  0  0  0  0  0  0  0  0  0  0
    7.0745  -17.0335   22.3056 O   0  0  0  0  0  0  0  0  0  0  0  0
   13.0216  -19.9561   22.0467 C   0  0  0  0  0  0  0  0  0  0  0  0
   11.7720  -20.4131   23.2814 S   0  0  0  0  0  0  0  0  0  0  0  0
   10.4040  -19.2415   23.1302 C   0  0  0  0  0  0  0  0  0  0  0  0
   10.4450  -18.1355   24.1068 C   0  0  0  0  0  0  0  0  0  0  0  0
    9.3778  -17.0737   23.9747 C   0  0  2  0  0  0  0  0  0  0  0  0
    9.3409  -16.6205   22.5740 N   0  0  0  0  0  0  0  0  0  0  0  0
    9.6232  -15.8689   24.7890 C   0  0  0  0  0  0  0  0  0  0  0  0
   10.5341  -15.0556   24.4008 O   0  0  0  0  0  0  0  0  0  0  0  0
    8.5159  -11.9774   25.2676 C   0  0  0  0  0  0  0  0  0  0  0  0
    7.6089  -12.9875   25.9854 C   0  0  2  0  0  0  0  0  0  0  0  0
    6.3821  -12.1884   26.4265 C   0  0  0  0  0  0  0  0  0  0  0  0
    8.3723  -13.4642   27.1711 C   0  0  0  0  0  0  0  0  0  0  0  0
    9.4016  -14.5120   26.9139 C   0  0  2  0  0  0  0  0  0  0  0  0
    8.9363  -15.5155   25.9777 N   0  0  0  0  0  0  0  0  0  0  0  0
   10.0082  -15.1118   28.1110 C   0  0  0  0  0  0  0  0  0  0  0  0
   10.5612  -14.3995   29.0168 O   0  0  0  0  0  0  0  0  0  0  0  0
   10.0220  -16.4797   28.3387 O   0  0  0  0  0  0  0  0  0  0  0  0
  1  2  1  0
  3  2  1  0
  4  3  1  0
  5  6  1  6
  5  4  1  0
  7  5  1  0
  8  7  2  0
 10  9  1  0
 10 11  1  0
 11 12  1  0
 13 12  1  6
 13 14  1  0
 14  7  1  0
 15 13  1  0
 15 16  2  0
 18 17  1  6
 18 20  1  0
 18 19  1  0
 21 20  1  1
 21 22  1  0
 22 15  1  0
 23 21  1  0
 24 23  2  0
 25 23  1  0
M  END
$$$$
