MML.pdb
     RDKit          3D

 25 24  0  0  1  0  0  0  0  0999 V2000
    6.4089  -13.0993   26.8580 C   0  0  0  0  0  0  0  0  0  0  0  0
    7.0467  -14.6278   26.1501 S   0  0  0  0  0  0  0  0  0  0  0  0
    5.8963  -15.9936   26.5762 C   0  0  0  0  0  0  0  0  0  0  0  0
    6.4341  -17.2405   25.9471 C   0  0  0  0  0  0  0  0  0  0  0  0
    6.2257  -17.3422   24.4665 C   0  0  2  0  0  0  0  0  0  0  0  0
    5.6917  -18.6780   24.2081 N   0  0  0  0  0  0  0  0  0  0  0  0
    7.4835  -17.2346   23.6896 C   0  0  0  0  0  0  0  0  0  0  0  0
    8.1365  -18.2987   23.5035 O   0  0  0  0  0  0  0  0  0  0  0  0
    8.6103  -11.6139   20.7934 C   0  0  0  0  0  0  0  0  0  0  0  0
    8.3611  -13.0138   19.6651 S   0  0  0  0  0  0  0  0  0  0  0  0
    8.2530  -14.5112   20.6717 C   0  0  0  0  0  0  0  0  0  0  0  0
    9.2975  -14.6185   21.7092 C   0  0  0  0  0  0  0  0  0  0  0  0
    9.2882  -15.8713   22.5544 C   0  0  2  0  0  0  0  0  0  0  0  0
    7.9567  -16.0109   23.1678 N   0  0  0  0  0  0  0  0  0  0  0  0
   10.2531  -15.8523   23.6694 C   0  0  0  0  0  0  0  0  0  0  0  0
   11.4943  -15.7024   23.3887 O   0  0  0  0  0  0  0  0  0  0  0  0
   10.2986  -13.2213   27.1690 C   0  0  0  0  0  0  0  0  0  0  0  0
    9.4305  -14.4664   27.4023 C   0  0  2  0  0  0  0  0  0  0  0  0
    8.7992  -14.2678   28.7809 C   0  0  0  0  0  0  0  0  0  0  0  0
   10.3624  -15.6271   27.4200 C   0  0  0  0  0  0  0  0  0  0  0  0
   10.9250  -16.0400   26.1023 C   0  0  2  0  0  0  0  0  0  0  0  0
    9.9358  -15.9833   25.0449 N   0  0  0  0  0  0  0  0  0  0  0  0
   11.6653  -17.3099   26.0993 C   0  0  0  0  0  0  0  0  0  0  0  0
   11.3666  -18.2638   25.3026 O   0  0  0  0  0  0  0  0  0  0  0  0
   12.7298  -17.5588   26.9526 O   0  0  0  0  0  0  0  0  0  0  0  0
  1  2  1  0
  3  2  1  0
  4  3  1  0
  5  6  1  1
  5  4  1  0
  7  5  1  0
  8  7  2  0
 10  9  1  0
 10 11  1  0
 11 12  1  0
 13 12  1  1
 13 14  1  0
 14  7  1  0
 15 13  1  0
 15 16  2  0
 18 17  1  1
 18 20  1  0
 18 19  1  0
 21 20  1  1
 21 22  1  0
 22 15  1  0
 23 21  1  0
 24 23  2  0
 25 23  1  0
M  END
$$$$
