MML.pdb
     RDKit          3D

 25 24  0  0  1  0  0  0  0  0999 V2000
    6.1994  -21.8011   17.9406 C   0  0  0  0  0  0  0  0  0  0  0  0
    7.0228  -20.2572   18.3680 S   0  0  0  0  0  0  0  0  0  0  0  0
    6.8653  -19.9927   20.1779 C   0  0  0  0  0  0  0  0  0  0  0  0
    7.5167  -18.6830   20.4942 C   0  0  0  0  0  0  0  0  0  0  0  0
    8.0186  -18.5497   21.9001 C   0  0  2  0  0  0  0  0  0  0  0  0
    6.8684  -18.7550   22.7781 N   0  0  0  0  0  0  0  0  0  0  0  0
    8.5467  -17.1992   22.2074 C   0  0  0  0  0  0  0  0  0  0  0  0
    9.5341  -16.8006   21.5294 O   0  0  0  0  0  0  0  0  0  0  0  0
    5.8530  -12.9948   26.7467 C   0  0  0  0  0  0  0  0  0  0  0  0
    6.4531  -11.9486   25.3902 S   0  0  0  0  0  0  0  0  0  0  0  0
    7.7910  -12.8413   24.5655 C   0  0  0  0  0  0  0  0  0  0  0  0
    7.4286  -14.2036   24.1280 C   0  0  0  0  0  0  0  0  0  0  0  0
    8.5348  -15.0405   23.5281 C   0  0  2  0  0  0  0  0  0  0  0  0
    7.9920  -16.3715   23.2078 N   0  0  0  0  0  0  0  0  0  0  0  0
    9.6751  -15.2702   24.4346 C   0  0  0  0  0  0  0  0  0  0  0  0
   10.7275  -14.5580   24.2701 O   0  0  0  0  0  0  0  0  0  0  0  0
   10.8616  -13.5755   27.6163 C   0  0  0  0  0  0  0  0  0  0  0  0
    9.8315  -14.6713   27.9267 C   0  0  2  0  0  0  0  0  0  0  0  0
    9.4335  -14.4514   29.3867 C   0  0  0  0  0  0  0  0  0  0  0  0
   10.5440  -15.9691   27.7722 C   0  0  0  0  0  0  0  0  0  0  0  0
   10.8543  -16.3879   26.3752 C   0  0  2  0  0  0  0  0  0  0  0  0
    9.7201  -16.2160   25.4897 N   0  0  0  0  0  0  0  0  0  0  0  0
   11.4703  -17.7149   26.2334 C   0  0  0  0  0  0  0  0  0  0  0  0
   12.5439  -18.0306   26.8510 O   0  0  0  0  0  0  0  0  0  0  0  0
   10.9339  -18.7077   25.4271 O   0  0  0  0  0  0  0  0  0  0  0  0
  1  2  1  0
  3  2  1  0
  4  3  1  0
  5  6  1  1
  5  4  1  0
  7  5  1  0
  8  7  2  0
 10  9  1  0
 10 11  1  0
 11 12  1  0
 13 12  1  1
 13 14  1  0
 14  7  1  0
 15 13  1  0
 15 16  2  0
 18 17  1  1
 18 20  1  0
 18 19  1  0
 21 20  1  1
 21 22  1  0
 22 15  1  0
 23 21  1  0
 24 23  2  0
 25 23  1  0
M  END
$$$$
