MML.pdb
     RDKit          3D

 25 24  0  0  1  0  0  0  0  0999 V2000
    9.2033  -12.0066   19.9675 C   0  0  0  0  0  0  0  0  0  0  0  0
    7.9287  -12.1382   18.7017 S   0  0  0  0  0  0  0  0  0  0  0  0
    7.7738  -13.9001   18.2096 C   0  0  0  0  0  0  0  0  0  0  0  0
    7.5845  -14.6967   19.4623 C   0  0  0  0  0  0  0  0  0  0  0  0
    8.8422  -14.9835   20.2253 C   0  0  2  0  0  0  0  0  0  0  0  0
    9.6719  -15.8261   19.3664 N   0  0  0  0  0  0  0  0  0  0  0  0
    8.6088  -15.7531   21.4705 C   0  0  0  0  0  0  0  0  0  0  0  0
    7.4485  -15.7065   21.9655 O   0  0  0  0  0  0  0  0  0  0  0  0
   13.0942  -19.8808   22.9115 C   0  0  0  0  0  0  0  0  0  0  0  0
   11.5013  -20.7327   22.7337 S   0  0  0  0  0  0  0  0  0  0  0  0
   10.2182  -19.4660   22.6065 C   0  0  0  0  0  0  0  0  0  0  0  0
   10.4142  -18.3147   23.5091 C   0  0  0  0  0  0  0  0  0  0  0  0
    9.4170  -17.1849   23.3943 C   0  0  2  0  0  0  0  0  0  0  0  0
    9.6185  -16.5140   22.0989 N   0  0  0  0  0  0  0  0  0  0  0  0
    9.5688  -16.1408   24.4246 C   0  0  0  0  0  0  0  0  0  0  0  0
   10.7317  -15.6317   24.5984 O   0  0  0  0  0  0  0  0  0  0  0  0
    8.1359  -11.9997   25.4454 C   0  0  0  0  0  0  0  0  0  0  0  0
    7.1127  -13.1268   25.6478 C   0  0  2  0  0  0  0  0  0  0  0  0
    5.8136  -12.4275   26.0495 C   0  0  0  0  0  0  0  0  0  0  0  0
    7.6246  -13.9577   26.7719 C   0  0  0  0  0  0  0  0  0  0  0  0
    8.7685  -14.8604   26.4558 C   0  0  2  0  0  0  0  0  0  0  0  0
    8.5358  -15.6352   25.2535 N   0  0  0  0  0  0  0  0  0  0  0  0
    9.2430  -15.6956   27.5685 C   0  0  0  0  0  0  0  0  0  0  0  0
    9.0575  -16.9600   27.5907 O   0  0  0  0  0  0  0  0  0  0  0  0
    9.9191  -15.1741   28.6613 O   0  0  0  0  0  0  0  0  0  0  0  0
  1  2  1  0
  3  2  1  0
  4  3  1  0
  5  6  1  6
  5  4  1  0
  7  5  1  0
  8  7  2  0
 10  9  1  0
 10 11  1  0
 11 12  1  0
 13 12  1  1
 13 14  1  0
 14  7  1  0
 15 13  1  0
 15 16  2  0
 18 17  1  1
 18 20  1  0
 18 19  1  0
 21 20  1  1
 21 22  1  0
 22 15  1  0
 23 21  1  0
 24 23  2  0
 25 23  1  0
M  END
$$$$
