IAI.pdb
     RDKit          3D

 22 21  0  0  1  0  0  0  0  0999 V2000
   21.0517  -16.9770  -20.3609 C   0  0  0  0  0  0  0  0  0  0  0  0
   20.0057  -16.1229  -19.6365 C   0  0  0  0  0  0  0  0  0  0  0  0
   20.5935  -14.7640  -19.4305 C   0  0  2  0  0  0  0  0  0  0  0  0
   21.8887  -14.9181  -18.6618 C   0  0  0  0  0  0  0  0  0  0  0  0
   19.6827  -13.7570  -18.8097 C   0  0  2  0  0  0  0  0  0  0  0  0
   18.5119  -13.6569  -19.6608 N   0  0  0  0  0  0  0  0  0  0  0  0
   20.3308  -12.4335  -18.6226 C   0  0  0  0  0  0  0  0  0  0  0  0
   21.3503  -12.3276  -17.9008 O   0  0  0  0  0  0  0  0  0  0  0  0
   19.7125   -8.9380  -19.8244 C   0  0  0  0  0  0  0  0  0  0  0  0
   20.4495   -9.9557  -18.9586 C   0  0  2  0  0  0  0  0  0  0  0  0
   19.8572  -11.2431  -19.2262 N   0  0  0  0  0  0  0  0  0  0  0  0
   20.3874   -9.5915  -17.5254 C   0  0  0  0  0  0  0  0  0  0  0  0
   19.3711   -9.8947  -16.8652 O   0  0  0  0  0  0  0  0  0  0  0  0
   23.5167  -11.3016  -14.0216 C   0  0  0  0  0  0  0  0  0  0  0  0
   22.3715  -10.6428  -14.6947 C   0  0  0  0  0  0  0  0  0  0  0  0
   22.2743   -9.1665  -14.5485 C   0  0  2  0  0  0  0  0  0  0  0  0
   21.9848   -8.7916  -13.0813 C   0  0  0  0  0  0  0  0  0  0  0  0
   21.3432   -8.4524  -15.4660 C   0  0  2  0  0  0  0  0  0  0  0  0
   21.4281   -8.9081  -16.8441 N   0  0  0  0  0  0  0  0  0  0  0  0
   21.2885   -6.9949  -15.3447 C   0  0  0  0  0  0  0  0  0  0  0  0
   20.8232   -6.3890  -14.3436 O   0  0  0  0  0  0  0  0  0  0  0  0
   21.7593   -6.1282  -16.3567 O   0  0  0  0  0  0  0  0  0  0  0  0
  2  1  1  0
  3  5  1  0
  3  2  1  0
  3  4  1  1
  5  6  1  6
  7 11  1  0
  7  5  1  0
  8  7  2  0
 10  9  1  6
 10 12  1  0
 10 11  1  0
 12 19  1  0
 13 12  2  0
 14 15  1  0
 16 15  1  0
 16 17  1  1
 18 20  1  0
 18 16  1  0
 18 19  1  6
 20 22  1  0
 21 20  2  0
M  END
$$$$
