IAI.pdb
     RDKit          3D

 22 21  0  0  1  0  0  0  0  0999 V2000
   15.3608  -14.5894  -15.9664 C   0  0  0  0  0  0  0  0  0  0  0  0
   15.2977  -13.0760  -16.1985 C   0  0  0  0  0  0  0  0  0  0  0  0
   15.5462  -12.4051  -14.8860 C   0  0  2  0  0  0  0  0  0  0  0  0
   14.5103  -12.8966  -13.8974 C   0  0  0  0  0  0  0  0  0  0  0  0
   15.6245  -10.9148  -14.9306 C   0  0  2  0  0  0  0  0  0  0  0  0
   16.4678  -10.5642  -16.0581 N   0  0  0  0  0  0  0  0  0  0  0  0
   16.1389  -10.3279  -13.6666 C   0  0  0  0  0  0  0  0  0  0  0  0
   15.5844  -10.5979  -12.5751 O   0  0  0  0  0  0  0  0  0  0  0  0
   19.0318   -8.1699  -12.6755 C   0  0  0  0  0  0  0  0  0  0  0  0
   17.7050   -8.8618  -12.3766 C   0  0  2  0  0  0  0  0  0  0  0  0
   17.2519   -9.4541  -13.6110 N   0  0  0  0  0  0  0  0  0  0  0  0
   16.7187   -7.9165  -11.8074 C   0  0  0  0  0  0  0  0  0  0  0  0
   16.0023   -7.2470  -12.5814 O   0  0  0  0  0  0  0  0  0  0  0  0
   12.0894   -6.7693   -8.3741 C   0  0  0  0  0  0  0  0  0  0  0  0
   13.4357   -6.2561   -8.7245 C   0  0  0  0  0  0  0  0  0  0  0  0
   14.3860   -7.2336   -9.3174 C   0  0  2  0  0  0  0  0  0  0  0  0
   14.6369   -8.3979   -8.3384 C   0  0  0  0  0  0  0  0  0  0  0  0
   15.6752   -6.6986   -9.8376 C   0  0  2  0  0  0  0  0  0  0  0  0
   16.5338   -7.7207  -10.4139 N   0  0  0  0  0  0  0  0  0  0  0  0
   16.3958   -5.7623   -8.9738 C   0  0  0  0  0  0  0  0  0  0  0  0
   15.9238   -4.6637   -8.5785 O   0  0  0  0  0  0  0  0  0  0  0  0
   17.7041   -6.0135   -8.5025 O   0  0  0  0  0  0  0  0  0  0  0  0
  2  1  1  0
  3  5  1  0
  3  2  1  0
  3  4  1  1
  5  6  1  6
  7 11  1  0
  7  5  1  0
  8  7  2  0
 10  9  1  6
 10 12  1  0
 10 11  1  0
 12 19  1  0
 13 12  2  0
 14 15  1  0
 16 15  1  0
 16 17  1  1
 18 20  1  0
 18 16  1  0
 18 19  1  1
 20 22  1  0
 21 20  2  0
M  END
$$$$
