IAI.pdb
     RDKit          3D

 22 21  0  0  1  0  0  0  0  0999 V2000
   23.4163  -16.3121  -18.2175 C   0  0  0  0  0  0  0  0  0  0  0  0
   24.7158  -17.0859  -18.4642 C   0  0  0  0  0  0  0  0  0  0  0  0
   24.9308  -17.9951  -17.2973 C   0  0  2  0  0  0  0  0  0  0  0  0
   24.7550  -17.1888  -16.0280 C   0  0  0  0  0  0  0  0  0  0  0  0
   26.2112  -18.7629  -17.3079 C   0  0  2  0  0  0  0  0  0  0  0  0
   26.2259  -19.5533  -18.5247 N   0  0  0  0  0  0  0  0  0  0  0  0
   26.3791  -19.6180  -16.1049 C   0  0  0  0  0  0  0  0  0  0  0  0
   25.4347  -20.3413  -15.7092 O   0  0  0  0  0  0  0  0  0  0  0  0
   29.1595  -20.3985  -13.7198 C   0  0  0  0  0  0  0  0  0  0  0  0
   27.7018  -20.4822  -14.1633 C   0  0  2  0  0  0  0  0  0  0  0  0
   27.5758  -19.6719  -15.3497 N   0  0  0  0  0  0  0  0  0  0  0  0
   26.7834  -20.0527  -13.0850 C   0  0  0  0  0  0  0  0  0  0  0  0
   26.6659  -18.8340  -12.8368 O   0  0  0  0  0  0  0  0  0  0  0  0
   21.7513  -20.6486  -12.7375 C   0  0  0  0  0  0  0  0  0  0  0  0
   23.1455  -20.2187  -12.4729 C   0  0  0  0  0  0  0  0  0  0  0  0
   23.7950  -20.7799  -11.2591 C   0  0  2  0  0  0  0  0  0  0  0  0
   23.0568  -20.3086   -9.9903 C   0  0  0  0  0  0  0  0  0  0  0  0
   25.2637  -20.5756  -11.1180 C   0  0  2  0  0  0  0  0  0  0  0  0
   26.0158  -20.9548  -12.3032 N   0  0  0  0  0  0  0  0  0  0  0  0
   25.8768  -21.0431   -9.8740 C   0  0  0  0  0  0  0  0  0  0  0  0
   25.6593  -20.5283   -8.7455 O   0  0  0  0  0  0  0  0  0  0  0  0
   26.7807  -22.1285   -9.8312 O   0  0  0  0  0  0  0  0  0  0  0  0
  2  1  1  0
  3  5  1  0
  3  2  1  0
  3  4  1  1
  5  6  1  6
  7 11  1  0
  7  5  1  0
  8  7  2  0
 10  9  1  1
 10 12  1  0
 10 11  1  0
 12 19  1  0
 13 12  2  0
 14 15  1  0
 16 15  1  0
 16 17  1  1
 18 20  1  0
 18 16  1  0
 18 19  1  6
 20 22  1  0
 21 20  2  0
M  END
$$$$
