IAI.pdb
     RDKit          3D

 22 21  0  0  1  0  0  0  0  0999 V2000
   19.1812  -14.8428  -15.1733 C   0  0  0  0  0  0  0  0  0  0  0  0
   18.3406  -14.3440  -16.3535 C   0  0  0  0  0  0  0  0  0  0  0  0
   18.2903  -12.8520  -16.2759 C   0  0  2  0  0  0  0  0  0  0  0  0
   17.6203  -12.4661  -14.9742 C   0  0  0  0  0  0  0  0  0  0  0  0
   17.6780  -12.1673  -17.4529 C   0  0  2  0  0  0  0  0  0  0  0  0
   18.3232  -12.6975  -18.6395 N   0  0  0  0  0  0  0  0  0  0  0  0
   17.7997  -10.6884  -17.3855 C   0  0  0  0  0  0  0  0  0  0  0  0
   18.9237  -10.1432  -17.4915 O   0  0  0  0  0  0  0  0  0  0  0  0
   15.4130   -7.8188  -17.3842 C   0  0  0  0  0  0  0  0  0  0  0  0
   16.8217   -8.3884  -17.2445 C   0  0  2  0  0  0  0  0  0  0  0  0
   16.6927   -9.8243  -17.2032 N   0  0  0  0  0  0  0  0  0  0  0  0
   17.5071   -7.8477  -16.0493 C   0  0  0  0  0  0  0  0  0  0  0  0
   17.2687   -8.3528  -14.9319 O   0  0  0  0  0  0  0  0  0  0  0  0
   22.6512   -6.8926  -13.4763 C   0  0  0  0  0  0  0  0  0  0  0  0
   21.4270   -6.1265  -13.8124 C   0  0  0  0  0  0  0  0  0  0  0  0
   20.5917   -6.6609  -14.9201 C   0  0  2  0  0  0  0  0  0  0  0  0
   21.2553   -6.3680  -16.2806 C   0  0  0  0  0  0  0  0  0  0  0  0
   19.1558   -6.2651  -14.9406 C   0  0  2  0  0  0  0  0  0  0  0  0
   18.4334   -6.7734  -16.0955 N   0  0  0  0  0  0  0  0  0  0  0  0
   18.8551   -4.8635  -14.6455 C   0  0  0  0  0  0  0  0  0  0  0  0
   19.1847   -4.2828  -13.5778 O   0  0  0  0  0  0  0  0  0  0  0  0
   18.1571   -4.0282  -15.5465 O   0  0  0  0  0  0  0  0  0  0  0  0
  2  1  1  0
  3  5  1  0
  3  2  1  0
  3  4  1  1
  5  6  1  6
  7 11  1  0
  7  5  1  0
  8  7  2  0
 10  9  1  1
 10 12  1  0
 10 11  1  0
 12 19  1  0
 13 12  2  0
 14 15  1  0
 16 15  1  0
 16 17  1  6
 18 20  1  0
 18 16  1  0
 18 19  1  6
 20 22  1  0
 21 20  2  0
M  END
$$$$
