IAI.pdb
     RDKit          3D

 22 21  0  0  1  0  0  0  0  0999 V2000
   20.9102  -20.5578  -12.6467 C   0  0  0  0  0  0  0  0  0  0  0  0
   22.2684  -20.6410  -13.3514 C   0  0  0  0  0  0  0  0  0  0  0  0
   23.2890  -21.0176  -12.3262 C   0  0  2  0  0  0  0  0  0  0  0  0
   23.1118  -20.1136  -11.1247 C   0  0  0  0  0  0  0  0  0  0  0  0
   24.7020  -21.0499  -12.8073 C   0  0  2  0  0  0  0  0  0  0  0  0
   24.7563  -21.9883  -13.9126 N   0  0  0  0  0  0  0  0  0  0  0  0
   25.6655  -21.4167  -11.7379 C   0  0  0  0  0  0  0  0  0  0  0  0
   25.5056  -22.4723  -11.0808 O   0  0  0  0  0  0  0  0  0  0  0  0
   29.1028  -20.5874  -10.8120 C   0  0  0  0  0  0  0  0  0  0  0  0
   27.7078  -21.0002  -10.3516 C   0  0  2  0  0  0  0  0  0  0  0  0
   26.7909  -20.6262  -11.4001 N   0  0  0  0  0  0  0  0  0  0  0  0
   27.3629  -20.3823   -9.0517 C   0  0  0  0  0  0  0  0  0  0  0  0
   26.5222  -19.4589   -9.0222 O   0  0  0  0  0  0  0  0  0  0  0  0
   28.7172  -20.8083   -2.8922 C   0  0  0  0  0  0  0  0  0  0  0  0
   27.9699  -20.2480   -4.0439 C   0  0  0  0  0  0  0  0  0  0  0  0
   28.3211  -20.7807   -5.3867 C   0  0  2  0  0  0  0  0  0  0  0  0
   29.8470  -20.9652   -5.5074 C   0  0  0  0  0  0  0  0  0  0  0  0
   27.7857  -20.0500   -6.5692 C   0  0  2  0  0  0  0  0  0  0  0  0
   27.9379  -20.7809   -7.8168 N   0  0  0  0  0  0  0  0  0  0  0  0
   28.1409  -18.6349   -6.6847 C   0  0  0  0  0  0  0  0  0  0  0  0
   29.0288  -18.1933   -7.4609 O   0  0  0  0  0  0  0  0  0  0  0  0
   27.5093  -17.6264   -5.9225 O   0  0  0  0  0  0  0  0  0  0  0  0
  2  1  1  0
  3  5  1  0
  3  2  1  0
  3  4  1  1
  5  6  1  6
  7 11  1  0
  7  5  1  0
  8  7  2  0
 10  9  1  6
 10 12  1  0
 10 11  1  0
 12 19  1  0
 13 12  2  0
 14 15  1  0
 16 15  1  0
 16 17  1  6
 18 20  1  0
 18 16  1  0
 18 19  1  6
 20 22  1  0
 21 20  2  0
M  END
$$$$
