IAI.pdb
     RDKit          3D

 22 21  0  0  1  0  0  0  0  0999 V2000
   16.4850  -14.7677  -18.0438 C   0  0  0  0  0  0  0  0  0  0  0  0
   17.7421  -14.6140  -18.9066 C   0  0  0  0  0  0  0  0  0  0  0  0
   18.5203  -13.4551  -18.3719 C   0  0  2  0  0  0  0  0  0  0  0  0
   17.6181  -12.2393  -18.3653 C   0  0  0  0  0  0  0  0  0  0  0  0
   19.8243  -13.1893  -19.0486 C   0  0  2  0  0  0  0  0  0  0  0  0
   20.6140  -14.4023  -18.9474 N   0  0  0  0  0  0  0  0  0  0  0  0
   20.5444  -12.0248  -18.4725 C   0  0  0  0  0  0  0  0  0  0  0  0
   21.0483  -12.0994  -17.3270 O   0  0  0  0  0  0  0  0  0  0  0  0
   21.5656   -8.6291  -19.6685 C   0  0  0  0  0  0  0  0  0  0  0  0
   21.3989   -9.6739  -18.5689 C   0  0  2  0  0  0  0  0  0  0  0  0
   20.7049  -10.7942  -19.1547 N   0  0  0  0  0  0  0  0  0  0  0  0
   20.6860   -9.1167  -17.3976 C   0  0  0  0  0  0  0  0  0  0  0  0
   19.4369   -9.1001  -17.3983 O   0  0  0  0  0  0  0  0  0  0  0  0
   19.9154   -9.6445  -11.5996 C   0  0  0  0  0  0  0  0  0  0  0  0
   19.9719   -8.6419  -12.6907 C   0  0  0  0  0  0  0  0  0  0  0  0
   20.6918   -9.0454  -13.9273 C   0  0  2  0  0  0  0  0  0  0  0  0
   22.1422   -9.4491  -13.5951 C   0  0  0  0  0  0  0  0  0  0  0  0
   20.6613   -8.0937  -15.0728 C   0  0  2  0  0  0  0  0  0  0  0  0
   21.3449   -8.5917  -16.2554 N   0  0  0  0  0  0  0  0  0  0  0  0
   20.9727   -6.6950  -14.7749 C   0  0  0  0  0  0  0  0  0  0  0  0
   22.0599   -6.1362  -15.0776 O   0  0  0  0  0  0  0  0  0  0  0  0
   20.0667   -5.8378  -14.1105 O   0  0  0  0  0  0  0  0  0  0  0  0
  2  1  1  0
  3  5  1  0
  3  2  1  0
  3  4  1  6
  5  6  1  1
  7 11  1  0
  7  5  1  0
  8  7  2  0
 10  9  1  6
 10 12  1  0
 10 11  1  0
 12 19  1  0
 13 12  2  0
 14 15  1  0
 16 15  1  0
 16 17  1  1
 18 20  1  0
 18 16  1  0
 18 19  1  6
 20 22  1  0
 21 20  2  0
M  END
$$$$
