IAI.pdb
     RDKit          3D

 22 21  0  0  1  0  0  0  0  0999 V2000
   27.7518  -24.2594  -19.8892 C   0  0  0  0  0  0  0  0  0  0  0  0
   27.7065  -24.0196  -18.3763 C   0  0  0  0  0  0  0  0  0  0  0  0
   26.4045  -24.5529  -17.8714 C   0  0  2  0  0  0  0  0  0  0  0  0
   25.2989  -24.0312  -18.7645 C   0  0  0  0  0  0  0  0  0  0  0  0
   26.1272  -24.3082  -16.4249 C   0  0  2  0  0  0  0  0  0  0  0  0
   27.1635  -24.9874  -15.6698 N   0  0  0  0  0  0  0  0  0  0  0  0
   24.7733  -24.7608  -16.0142 C   0  0  0  0  0  0  0  0  0  0  0  0
   23.7533  -24.2022  -16.4825 O   0  0  0  0  0  0  0  0  0  0  0  0
   23.3945  -27.4361  -13.7808 C   0  0  0  0  0  0  0  0  0  0  0  0
   23.2270  -26.2857  -14.7693 C   0  0  2  0  0  0  0  0  0  0  0  0
   24.5509  -25.8172  -15.0978 N   0  0  0  0  0  0  0  0  0  0  0  0
   22.3703  -25.2151  -14.2122 C   0  0  0  0  0  0  0  0  0  0  0  0
   22.8745  -24.3757  -13.4364 O   0  0  0  0  0  0  0  0  0  0  0  0
   19.6673  -22.1043  -17.3041 C   0  0  0  0  0  0  0  0  0  0  0  0
   20.3525  -22.6686  -16.1163 C   0  0  0  0  0  0  0  0  0  0  0  0
   19.4806  -23.2120  -15.0418 C   0  0  2  0  0  0  0  0  0  0  0  0
   18.6379  -22.0838  -14.4141 C   0  0  0  0  0  0  0  0  0  0  0  0
   20.1361  -24.0287  -13.9824 C   0  0  2  0  0  0  0  0  0  0  0  0
   20.9892  -25.0813  -14.5100 N   0  0  0  0  0  0  0  0  0  0  0  0
   19.2878  -24.4761  -12.8769 C   0  0  0  0  0  0  0  0  0  0  0  0
   18.7085  -23.6972  -12.0746 O   0  0  0  0  0  0  0  0  0  0  0  0
   19.0427  -25.8418  -12.6092 O   0  0  0  0  0  0  0  0  0  0  0  0
  2  1  1  0
  3  5  1  0
  3  2  1  0
  3  4  1  6
  5  6  1  1
  7 11  1  0
  7  5  1  0
  8  7  2  0
 10  9  1  1
 10 12  1  0
 10 11  1  0
 12 19  1  0
 13 12  2  0
 14 15  1  0
 16 15  1  0
 16 17  1  1
 18 20  1  0
 18 16  1  0
 18 19  1  6
 20 22  1  0
 21 20  2  0
M  END
$$$$
