IAI.pdb
     RDKit          3D

 22 21  0  0  1  0  0  0  0  0999 V2000
   13.5546  -12.5911  -14.3228 C   0  0  0  0  0  0  0  0  0  0  0  0
   14.8949  -12.1312  -14.9062 C   0  0  0  0  0  0  0  0  0  0  0  0
   15.3882  -10.9955  -14.0689 C   0  0  2  0  0  0  0  0  0  0  0  0
   14.3016   -9.9430  -14.0078 C   0  0  0  0  0  0  0  0  0  0  0  0
   16.7075  -10.4248  -14.4725 C   0  0  2  0  0  0  0  0  0  0  0  0
   17.6773  -11.5021  -14.4080 N   0  0  0  0  0  0  0  0  0  0  0  0
   17.1192   -9.2744  -13.6278 C   0  0  0  0  0  0  0  0  0  0  0  0
   17.3262   -9.4352  -12.4018 O   0  0  0  0  0  0  0  0  0  0  0  0
   18.0897   -5.7131  -14.1868 C   0  0  0  0  0  0  0  0  0  0  0  0
   17.6231   -6.8473  -13.2789 C   0  0  2  0  0  0  0  0  0  0  0  0
   17.2996   -7.9637  -14.1327 N   0  0  0  0  0  0  0  0  0  0  0  0
   16.4801   -6.4298  -12.4365 C   0  0  0  0  0  0  0  0  0  0  0  0
   15.3205   -6.5408  -12.8878 O   0  0  0  0  0  0  0  0  0  0  0  0
   15.1148   -8.2452   -7.7491 C   0  0  0  0  0  0  0  0  0  0  0  0
   15.0505   -7.5264   -9.0444 C   0  0  0  0  0  0  0  0  0  0  0  0
   15.3709   -6.0749   -9.0157 C   0  0  2  0  0  0  0  0  0  0  0  0
   14.3663   -5.3223   -8.1206 C   0  0  0  0  0  0  0  0  0  0  0  0
   15.5230   -5.3863  -10.3277 C   0  0  2  0  0  0  0  0  0  0  0  0
   16.6227   -5.9025  -11.1266 N   0  0  0  0  0  0  0  0  0  0  0  0
   15.4584   -3.9242  -10.3150 C   0  0  0  0  0  0  0  0  0  0  0  0
   16.4685   -3.1757  -10.2430 O   0  0  0  0  0  0  0  0  0  0  0  0
   14.2379   -3.2151  -10.3824 O   0  0  0  0  0  0  0  0  0  0  0  0
  2  1  1  0
  3  5  1  0
  3  2  1  0
  3  4  1  6
  5  6  1  1
  7 11  1  0
  7  5  1  0
  8  7  2  0
 10  9  1  6
 10 12  1  0
 10 11  1  0
 12 19  1  0
 13 12  2  0
 14 15  1  0
 16 15  1  0
 16 17  1  1
 18 20  1  0
 18 16  1  0
 18 19  1  1
 20 22  1  0
 21 20  2  0
M  END
$$$$
