IYE.pdb
     RDKit          3D

 30 30  0  0  1  0  0  0  0  0999 V2000
    7.4938  -11.6776   19.8906 C   0  0  0  0  0  0  0  0  0  0  0  0
    7.5117  -12.9701   20.6631 C   0  0  0  0  0  0  0  0  0  0  0  0
    8.0963  -14.0578   19.8348 C   0  0  2  0  0  0  0  0  0  0  0  0
    7.3088  -14.2376   18.5452 C   0  0  0  0  0  0  0  0  0  0  0  0
    8.2525  -15.3786   20.5186 C   0  0  2  0  0  0  0  0  0  0  0  0
    6.8895  -15.8725   20.7792 N   0  0  0  0  0  0  0  0  0  0  0  0
    9.0418  -15.3390   21.7492 C   0  0  0  0  0  0  0  0  0  0  0  0
   10.2812  -15.1794   21.7052 O   0  0  0  0  0  0  0  0  0  0  0  0
   10.6278  -14.8217   30.5015 O   0  0  0  0  0  0  0  0  0  0  0  0
   10.0225  -14.8380   29.2394 C   0  0  0  0  0  0  0  0  0  0  0  0
    9.7980  -13.6702   28.5436 C   0  0  0  0  0  0  0  0  0  0  0  0
    9.1963  -13.6887   27.2894 C   0  0  0  0  0  0  0  0  0  0  0  0
    8.8022  -14.8677   26.6946 C   0  0  0  0  0  0  0  0  0  0  0  0
    8.1591  -14.8965   25.3630 C   0  0  0  0  0  0  0  0  0  0  0  0
    9.0842  -15.4151   24.2759 C   0  0  2  0  0  0  0  0  0  0  0  0
    8.3997  -15.4822   22.9996 N   0  0  0  0  0  0  0  0  0  0  0  0
    9.7257  -16.6945   24.6008 C   0  0  0  0  0  0  0  0  0  0  0  0
    9.1172  -17.7866   24.6750 O   0  0  0  0  0  0  0  0  0  0  0  0
    9.0406  -16.0323   27.4185 C   0  0  0  0  0  0  0  0  0  0  0  0
    9.6309  -16.0288   28.6514 C   0  0  0  0  0  0  0  0  0  0  0  0
   11.1250  -16.7171   24.8498 N   0  0  0  0  0  0  0  0  0  0  0  0
   11.8425  -18.0001   24.9855 C   0  0  1  0  0  0  0  0  0  0  0  0
   13.0437  -17.9969   24.0858 C   0  0  0  0  0  0  0  0  0  0  0  0
   13.8966  -16.7822   24.1609 C   0  0  0  0  0  0  0  0  0  0  0  0
   15.0343  -16.7595   23.2222 C   0  0  0  0  0  0  0  0  0  0  0  0
   15.2817  -17.6626   22.3842 O   0  0  0  0  0  0  0  0  0  0  0  0
   12.1521  -18.2509   26.4022 C   0  0  0  0  0  0  0  0  0  0  0  0
   11.8859  -17.3999   27.2661 O   0  0  0  0  0  0  0  0  0  0  0  0
   15.9411  -15.6841   23.2122 O   0  0  0  0  0  0  0  0  0  0  0  0
   12.7423  -19.4398   26.7739 O   0  0  0  0  0  0  0  0  0  0  0  0
  2  1  1  0
  3  2  1  0
  3  4  1  6
  5  7  1  0
  5  3  1  0
  5  6  1  1
  7  8  2  0
  9 10  1  0
 10 20  2  0
 10 11  1  0
 11 12  2  0
 12 13  1  0
 13 14  1  0
 15 14  1  1
 16 15  1  0
 16  7  1  0
 17 15  1  0
 18 17  2  0
 19 13  2  0
 20 19  1  0
 21 17  1  0
 22 27  1  0
 22 21  1  0
 22 23  1  6
 24 25  1  0
 24 23  1  0
 25 26  2  0
 27 30  1  0
 28 27  2  0
 29 25  1  0
M  END
$$$$
