IYE.pdb
     RDKit          3D

 30 30  0  0  1  0  0  0  0  0999 V2000
    6.8842  -18.7860   18.1077 C   0  0  0  0  0  0  0  0  0  0  0  0
    7.1454  -17.3216   18.3423 C   0  0  0  0  0  0  0  0  0  0  0  0
    7.7701  -17.1165   19.6759 C   0  0  2  0  0  0  0  0  0  0  0  0
    6.9933  -17.8552   20.7559 C   0  0  0  0  0  0  0  0  0  0  0  0
    7.9703  -15.6917   20.0840 C   0  0  2  0  0  0  0  0  0  0  0  0
    8.7210  -15.0506   18.9908 N   0  0  0  0  0  0  0  0  0  0  0  0
    8.6526  -15.5142   21.3653 C   0  0  0  0  0  0  0  0  0  0  0  0
    9.8652  -15.7948   21.4847 O   0  0  0  0  0  0  0  0  0  0  0  0
    9.6062  -13.5122   30.0057 O   0  0  0  0  0  0  0  0  0  0  0  0
    9.1106  -13.6477   28.7036 C   0  0  0  0  0  0  0  0  0  0  0  0
    9.3215  -12.6688   27.7572 C   0  0  0  0  0  0  0  0  0  0  0  0
    8.8280  -12.8056   26.4638 C   0  0  0  0  0  0  0  0  0  0  0  0
    8.1124  -13.9182   26.0775 C   0  0  0  0  0  0  0  0  0  0  0  0
    7.5814  -14.0705   24.7055 C   0  0  0  0  0  0  0  0  0  0  0  0
    8.4973  -14.8856   23.8092 C   0  0  2  0  0  0  0  0  0  0  0  0
    7.9365  -15.0214   22.4791 N   0  0  0  0  0  0  0  0  0  0  0  0
    8.8646  -16.1932   24.3652 C   0  0  0  0  0  0  0  0  0  0  0  0
    8.0728  -17.1573   24.4751 O   0  0  0  0  0  0  0  0  0  0  0  0
    7.9137  -14.8914   27.0523 C   0  0  0  0  0  0  0  0  0  0  0  0
    8.3930  -14.7702   28.3267 C   0  0  0  0  0  0  0  0  0  0  0  0
   10.1980  -16.3989   24.8126 N   0  0  0  0  0  0  0  0  0  0  0  0
   10.6078  -17.6997   25.3777 C   0  0  1  0  0  0  0  0  0  0  0  0
   11.7905  -18.2233   24.6165 C   0  0  0  0  0  0  0  0  0  0  0  0
   11.7761  -17.9639   23.1533 C   0  0  0  0  0  0  0  0  0  0  0  0
   12.9909  -18.3882   22.4322 C   0  0  0  0  0  0  0  0  0  0  0  0
   12.9911  -19.1190   21.4099 O   0  0  0  0  0  0  0  0  0  0  0  0
   10.8352  -17.5651   26.8253 C   0  0  0  0  0  0  0  0  0  0  0  0
   10.8101  -16.4480   27.3665 O   0  0  0  0  0  0  0  0  0  0  0  0
   14.2665  -17.9830   22.8651 O   0  0  0  0  0  0  0  0  0  0  0  0
   11.0780  -18.6877   27.5875 O   0  0  0  0  0  0  0  0  0  0  0  0
  2  1  1  0
  3  2  1  0
  3  4  1  1
  5  7  1  0
  5  3  1  0
  5  6  1  6
  7  8  2  0
  9 10  1  0
 10 20  2  0
 10 11  1  0
 11 12  2  0
 12 13  1  0
 13 14  1  0
 15 14  1  1
 16 15  1  0
 16  7  1  0
 17 15  1  0
 18 17  2  0
 19 13  2  0
 20 19  1  0
 21 17  1  0
 22 27  1  0
 22 21  1  0
 22 23  1  6
 24 25  1  0
 24 23  1  0
 25 26  2  0
 27 30  1  0
 28 27  2  0
 29 25  1  0
M  END
$$$$
