IYE.pdb
     RDKit          3D

 30 30  0  0  1  0  0  0  0  0999 V2000
   10.3036  -14.3747   30.0627 C   0  0  0  0  0  0  0  0  0  0  0  0
    9.2401  -15.2884   29.5133 C   0  0  0  0  0  0  0  0  0  0  0  0
    9.3500  -15.3761   28.0331 C   0  0  2  0  0  0  0  0  0  0  0  0
    9.4705  -13.9898   27.4171 C   0  0  0  0  0  0  0  0  0  0  0  0
    8.2617  -16.1395   27.3479 C   0  0  2  0  0  0  0  0  0  0  0  0
    8.2274  -17.4686   27.9818 N   0  0  0  0  0  0  0  0  0  0  0  0
    8.4152  -16.2521   25.8979 C   0  0  0  0  0  0  0  0  0  0  0  0
    9.0666  -17.1953   25.3984 O   0  0  0  0  0  0  0  0  0  0  0  0
    7.6680  -13.9749   17.3131 O   0  0  0  0  0  0  0  0  0  0  0  0
    7.5433  -14.0166   18.7068 C   0  0  0  0  0  0  0  0  0  0  0  0
    8.1579  -13.0757   19.5039 C   0  0  0  0  0  0  0  0  0  0  0  0
    8.0326  -13.1191   20.8887 C   0  0  0  0  0  0  0  0  0  0  0  0
    7.2939  -14.0983   21.5169 C   0  0  0  0  0  0  0  0  0  0  0  0
    7.1578  -14.1539   22.9886 C   0  0  0  0  0  0  0  0  0  0  0  0
    8.0153  -15.2389   23.6164 C   0  0  2  0  0  0  0  0  0  0  0  0
    7.8229  -15.2873   25.0526 N   0  0  0  0  0  0  0  0  0  0  0  0
    9.4397  -15.1434   23.2757 C   0  0  0  0  0  0  0  0  0  0  0  0
   10.2526  -14.3905   23.8594 O   0  0  0  0  0  0  0  0  0  0  0  0
    6.6838  -15.0358   20.6888 C   0  0  0  0  0  0  0  0  0  0  0  0
    6.7983  -15.0051   19.3270 C   0  0  0  0  0  0  0  0  0  0  0  0
    9.9484  -15.9480   22.2201 N   0  0  0  0  0  0  0  0  0  0  0  0
   11.3904  -15.9470   21.9038 C   0  0  1  0  0  0  0  0  0  0  0  0
   12.1698  -16.3232   23.1300 C   0  0  0  0  0  0  0  0  0  0  0  0
   13.6300  -16.5111   22.9278 C   0  0  0  0  0  0  0  0  0  0  0  0
   14.3844  -16.8865   24.1385 C   0  0  0  0  0  0  0  0  0  0  0  0
   14.2633  -17.9837   24.7390 O   0  0  0  0  0  0  0  0  0  0  0  0
   11.6461  -16.8101   20.7397 C   0  0  0  0  0  0  0  0  0  0  0  0
   10.8221  -17.6756   20.4031 O   0  0  0  0  0  0  0  0  0  0  0  0
   15.3178  -16.0033   24.7109 O   0  0  0  0  0  0  0  0  0  0  0  0
   12.8096  -16.6571   20.0164 O   0  0  0  0  0  0  0  0  0  0  0  0
  2  1  1  0
  3  2  1  0
  3  4  1  6
  5  7  1  0
  5  3  1  0
  5  6  1  1
  7  8  2  0
  9 10  1  0
 10 20  2  0
 10 11  1  0
 11 12  2  0
 12 13  1  0
 13 14  1  0
 15 14  1  1
 16 15  1  0
 16  7  1  0
 17 15  1  0
 18 17  2  0
 19 13  2  0
 20 19  1  0
 21 17  1  0
 22 27  1  0
 22 21  1  0
 22 23  1  1
 24 25  1  0
 24 23  1  0
 25 26  2  0
 27 30  1  0
 28 27  2  0
 29 25  1  0
M  END
$$$$
