IYE.pdb
     RDKit          3D

 30 30  0  0  1  0  0  0  0  0999 V2000
    6.6170  -17.5971   17.8584 C   0  0  0  0  0  0  0  0  0  0  0  0
    6.4067  -16.2702   18.5388 C   0  0  0  0  0  0  0  0  0  0  0  0
    7.3310  -16.1315   19.6951 C   0  0  2  0  0  0  0  0  0  0  0  0
    7.3040  -17.3822   20.5616 C   0  0  0  0  0  0  0  0  0  0  0  0
    7.1214  -14.9218   20.5491 C   0  0  2  0  0  0  0  0  0  0  0  0
    7.1914  -13.7610   19.6451 N   0  0  0  0  0  0  0  0  0  0  0  0
    8.0679  -14.7846   21.6556 C   0  0  0  0  0  0  0  0  0  0  0  0
    9.2742  -14.5409   21.4345 O   0  0  0  0  0  0  0  0  0  0  0  0
   10.8470  -14.6997   30.1400 O   0  0  0  0  0  0  0  0  0  0  0  0
   10.0669  -14.6711   28.9780 C   0  0  0  0  0  0  0  0  0  0  0  0
    9.8046  -13.4855   28.3270 C   0  0  0  0  0  0  0  0  0  0  0  0
    9.0292  -13.4595   27.1723 C   0  0  0  0  0  0  0  0  0  0  0  0
    8.4945  -14.6104   26.6351 C   0  0  0  0  0  0  0  0  0  0  0  0
    7.6664  -14.5917   25.4097 C   0  0  0  0  0  0  0  0  0  0  0  0
    8.4776  -14.8387   24.1497 C   0  0  2  0  0  0  0  0  0  0  0  0
    7.6167  -14.9286   22.9867 N   0  0  0  0  0  0  0  0  0  0  0  0
    9.3736  -15.9979   24.2365 C   0  0  0  0  0  0  0  0  0  0  0  0
    8.9962  -17.1871   24.1275 O   0  0  0  0  0  0  0  0  0  0  0  0
    8.7746  -15.7937   27.3120 C   0  0  0  0  0  0  0  0  0  0  0  0
    9.5350  -15.8340   28.4472 C   0  0  0  0  0  0  0  0  0  0  0  0
   10.7605  -15.7785   24.4573 N   0  0  0  0  0  0  0  0  0  0  0  0
   11.7161  -16.9025   24.4032 C   0  0  1  0  0  0  0  0  0  0  0  0
   12.9050  -16.5065   23.5774 C   0  0  0  0  0  0  0  0  0  0  0  0
   14.0027  -17.5062   23.5148 C   0  0  0  0  0  0  0  0  0  0  0  0
   15.2548  -17.0209   22.9043 C   0  0  0  0  0  0  0  0  0  0  0  0
   15.5279  -15.8096   22.7115 O   0  0  0  0  0  0  0  0  0  0  0  0
   12.0498  -17.3395   25.7682 C   0  0  0  0  0  0  0  0  0  0  0  0
   11.9931  -16.5414   26.7175 O   0  0  0  0  0  0  0  0  0  0  0  0
   16.2518  -17.9216   22.4877 O   0  0  0  0  0  0  0  0  0  0  0  0
   12.4284  -18.6453   25.9956 O   0  0  0  0  0  0  0  0  0  0  0  0
  2  1  1  0
  3  2  1  0
  3  4  1  1
  5  7  1  0
  5  3  1  0
  5  6  1  6
  7  8  2  0
  9 10  1  0
 10 20  2  0
 10 11  1  0
 11 12  2  0
 12 13  1  0
 13 14  1  0
 15 14  1  1
 16 15  1  0
 16  7  1  0
 17 15  1  0
 18 17  2  0
 19 13  2  0
 20 19  1  0
 21 17  1  0
 22 27  1  0
 22 21  1  0
 22 23  1  1
 24 25  1  0
 24 23  1  0
 25 26  2  0
 27 30  1  0
 28 27  2  0
 29 25  1  0
M  END
$$$$
