IYE.pdb
     RDKit          3D

 30 30  0  0  1  0  0  0  0  0999 V2000
    7.3080  -19.7560   17.6736 C   0  0  0  0  0  0  0  0  0  0  0  0
    7.3856  -18.2542   17.5947 C   0  0  0  0  0  0  0  0  0  0  0  0
    7.8547  -17.6934   18.8895 C   0  0  2  0  0  0  0  0  0  0  0  0
    7.0444  -18.2571   20.0477 C   0  0  0  0  0  0  0  0  0  0  0  0
    7.8851  -16.2007   18.9746 C   0  0  2  0  0  0  0  0  0  0  0  0
    8.7199  -15.7399   17.8520 N   0  0  0  0  0  0  0  0  0  0  0  0
    8.3759  -15.6720   20.2468 C   0  0  0  0  0  0  0  0  0  0  0  0
    9.5897  -15.7415   20.5388 O   0  0  0  0  0  0  0  0  0  0  0  0
    7.7271  -12.5319   28.5727 O   0  0  0  0  0  0  0  0  0  0  0  0
    7.4771  -12.8483   27.2322 C   0  0  0  0  0  0  0  0  0  0  0  0
    6.6833  -13.9216   26.8914 C   0  0  0  0  0  0  0  0  0  0  0  0
    6.4361  -14.2342   25.5585 C   0  0  0  0  0  0  0  0  0  0  0  0
    6.9712  -13.4887   24.5304 C   0  0  0  0  0  0  0  0  0  0  0  0
    6.7162  -13.8156   23.1107 C   0  0  0  0  0  0  0  0  0  0  0  0
    7.8330  -14.6348   22.4876 C   0  0  2  0  0  0  0  0  0  0  0  0
    7.4717  -15.0772   21.1551 N   0  0  0  0  0  0  0  0  0  0  0  0
    8.2789  -15.7608   23.3168 C   0  0  0  0  0  0  0  0  0  0  0  0
    7.5701  -16.7567   23.5891 O   0  0  0  0  0  0  0  0  0  0  0  0
    7.7689  -12.4105   24.9021 C   0  0  0  0  0  0  0  0  0  0  0  0
    8.0200  -12.0919   26.2075 C   0  0  0  0  0  0  0  0  0  0  0  0
    9.5948  -15.7389   23.8538 N   0  0  0  0  0  0  0  0  0  0  0  0
   10.1152  -16.8937   24.6122 C   0  0  1  0  0  0  0  0  0  0  0  0
   11.5968  -17.0027   24.3995 C   0  0  0  0  0  0  0  0  0  0  0  0
   12.2692  -18.1069   25.1323 C   0  0  0  0  0  0  0  0  0  0  0  0
   13.4946  -18.6241   24.4943 C   0  0  0  0  0  0  0  0  0  0  0  0
   14.6315  -18.6158   25.0295 O   0  0  0  0  0  0  0  0  0  0  0  0
    9.7162  -16.7836   26.0244 C   0  0  0  0  0  0  0  0  0  0  0  0
    9.6713  -17.7918   26.7475 O   0  0  0  0  0  0  0  0  0  0  0  0
   13.4577  -19.1768   23.2013 O   0  0  0  0  0  0  0  0  0  0  0  0
    9.3894  -15.5517   26.5494 O   0  0  0  0  0  0  0  0  0  0  0  0
  2  1  1  0
  3  2  1  0
  3  4  1  1
  5  7  1  0
  5  3  1  0
  5  6  1  6
  7  8  2  0
  9 10  1  0
 10 20  2  0
 10 11  1  0
 11 12  2  0
 12 13  1  0
 13 14  1  0
 15 14  1  1
 16 15  1  0
 16  7  1  0
 17 15  1  0
 18 17  2  0
 19 13  2  0
 20 19  1  0
 21 17  1  0
 22 27  1  0
 22 21  1  0
 22 23  1  1
 24 25  1  0
 24 23  1  0
 25 26  2  0
 27 30  1  0
 28 27  2  0
 29 25  1  0
M  END
$$$$
