IYE.pdb
     RDKit          3D

 30 30  0  0  1  0  0  0  0  0999 V2000
    7.4876  -11.5543   20.2201 C   0  0  0  0  0  0  0  0  0  0  0  0
    6.9318  -12.9193   20.5289 C   0  0  0  0  0  0  0  0  0  0  0  0
    7.9195  -13.9714   20.1707 C   0  0  2  0  0  0  0  0  0  0  0  0
    7.8236  -14.3220   18.6930 C   0  0  0  0  0  0  0  0  0  0  0  0
    7.8594  -15.2209   20.9903 C   0  0  2  0  0  0  0  0  0  0  0  0
    6.5904  -15.8826   20.6420 N   0  0  0  0  0  0  0  0  0  0  0  0
    7.9634  -15.0094   22.4337 C   0  0  0  0  0  0  0  0  0  0  0  0
    7.3340  -14.0819   22.9878 O   0  0  0  0  0  0  0  0  0  0  0  0
   10.6473  -14.8105   30.7193 O   0  0  0  0  0  0  0  0  0  0  0  0
   10.1179  -14.8320   29.4236 C   0  0  0  0  0  0  0  0  0  0  0  0
   10.0179  -13.6780   28.6774 C   0  0  0  0  0  0  0  0  0  0  0  0
    9.4915  -13.7018   27.3899 C   0  0  0  0  0  0  0  0  0  0  0  0
    9.0509  -14.8721   26.8111 C   0  0  0  0  0  0  0  0  0  0  0  0
    8.4870  -14.9061   25.4441 C   0  0  0  0  0  0  0  0  0  0  0  0
    9.4685  -15.4447   24.4179 C   0  0  2  0  0  0  0  0  0  0  0  0
    8.7821  -15.8597   23.2102 N   0  0  0  0  0  0  0  0  0  0  0  0
   10.3361  -16.5130   24.9278 C   0  0  0  0  0  0  0  0  0  0  0  0
    9.9466  -17.6779   25.1718 O   0  0  0  0  0  0  0  0  0  0  0  0
    9.1632  -16.0227   27.5860 C   0  0  0  0  0  0  0  0  0  0  0  0
    9.6785  -16.0140   28.8521 C   0  0  0  0  0  0  0  0  0  0  0  0
   11.7082  -16.2280   25.1658 N   0  0  0  0  0  0  0  0  0  0  0  0
   12.6951  -17.3212   25.2677 C   0  0  1  0  0  0  0  0  0  0  0  0
   14.0142  -16.8540   24.7254 C   0  0  0  0  0  0  0  0  0  0  0  0
   13.9586  -16.1711   23.4067 C   0  0  0  0  0  0  0  0  0  0  0  0
   15.2592  -15.7045   22.8901 C   0  0  0  0  0  0  0  0  0  0  0  0
   16.2580  -15.4484   23.6084 O   0  0  0  0  0  0  0  0  0  0  0  0
   12.7538  -17.8124   26.6536 C   0  0  0  0  0  0  0  0  0  0  0  0
   13.4625  -18.7887   26.9472 O   0  0  0  0  0  0  0  0  0  0  0  0
   15.4620  -15.5127   21.5114 O   0  0  0  0  0  0  0  0  0  0  0  0
   12.0165  -17.1843   27.6344 O   0  0  0  0  0  0  0  0  0  0  0  0
  2  1  1  0
  3  2  1  0
  3  4  1  6
  5  7  1  0
  5  3  1  0
  5  6  1  1
  7  8  2  0
  9 10  1  0
 10 20  2  0
 10 11  1  0
 11 12  2  0
 12 13  1  0
 13 14  1  0
 15 14  1  1
 16 15  1  0
 16  7  1  0
 17 15  1  0
 18 17  2  0
 19 13  2  0
 20 19  1  0
 21 17  1  0
 22 27  1  0
 22 21  1  0
 22 23  1  1
 24 25  1  0
 24 23  1  0
 25 26  2  0
 27 30  1  0
 28 27  2  0
 29 25  1  0
M  END
$$$$
