IYE.pdb
     RDKit          3D

 30 30  0  0  1  0  0  0  0  0999 V2000
    2.4443  -22.4176   21.5847 C   0  0  0  0  0  0  0  0  0  0  0  0
    3.9316  -22.6359   21.6740 C   0  0  0  0  0  0  0  0  0  0  0  0
    4.6591  -21.4587   21.1302 C   0  0  2  0  0  0  0  0  0  0  0  0
    5.3677  -21.8141   19.8313 C   0  0  0  0  0  0  0  0  0  0  0  0
    5.6231  -20.8045   22.0679 C   0  0  2  0  0  0  0  0  0  0  0  0
    4.8582  -20.4742   23.2825 N   0  0  0  0  0  0  0  0  0  0  0  0
    6.2908  -19.6204   21.5285 C   0  0  0  0  0  0  0  0  0  0  0  0
    6.5311  -19.5275   20.3050 O   0  0  0  0  0  0  0  0  0  0  0  0
    8.4901  -11.5783   19.3532 O   0  0  0  0  0  0  0  0  0  0  0  0
    7.9708  -12.7094   19.9939 C   0  0  0  0  0  0  0  0  0  0  0  0
    7.5173  -13.7908   19.2704 C   0  0  0  0  0  0  0  0  0  0  0  0
    7.0017  -14.9138   19.9093 C   0  0  0  0  0  0  0  0  0  0  0  0
    6.9231  -14.9912   21.2829 C   0  0  0  0  0  0  0  0  0  0  0  0
    6.3735  -16.1800   21.9703 C   0  0  0  0  0  0  0  0  0  0  0  0
    7.3322  -17.3578   21.9621 C   0  0  2  0  0  0  0  0  0  0  0  0
    6.6682  -18.5713   22.3963 N   0  0  0  0  0  0  0  0  0  0  0  0
    8.5652  -17.1270   22.7241 C   0  0  0  0  0  0  0  0  0  0  0  0
    8.6256  -17.1124   23.9749 O   0  0  0  0  0  0  0  0  0  0  0  0
    7.3877  -13.8859   21.9895 C   0  0  0  0  0  0  0  0  0  0  0  0
    7.8969  -12.7761   21.3749 C   0  0  0  0  0  0  0  0  0  0  0  0
    9.7778  -16.9042   22.0166 N   0  0  0  0  0  0  0  0  0  0  0  0
   11.0513  -16.7371   22.7443 C   0  0  1  0  0  0  0  0  0  0  0  0
   12.1827  -16.6726   21.7603 C   0  0  0  0  0  0  0  0  0  0  0  0
   12.3612  -15.3664   21.0746 C   0  0  0  0  0  0  0  0  0  0  0  0
   13.5194  -15.2926   20.1640 C   0  0  0  0  0  0  0  0  0  0  0  0
   13.5177  -14.6920   19.0602 O   0  0  0  0  0  0  0  0  0  0  0  0
   10.9650  -15.5723   23.6395 C   0  0  0  0  0  0  0  0  0  0  0  0
   10.0426  -14.7503   23.5177 O   0  0  0  0  0  0  0  0  0  0  0  0
   14.7376  -15.9142   20.4929 O   0  0  0  0  0  0  0  0  0  0  0  0
   11.9153  -15.3918   24.6215 O   0  0  0  0  0  0  0  0  0  0  0  0
  2  1  1  0
  3  2  1  0
  3  4  1  6
  5  7  1  0
  5  3  1  0
  5  6  1  1
  7  8  2  0
  9 10  1  0
 10 20  2  0
 10 11  1  0
 11 12  2  0
 12 13  1  0
 13 14  1  0
 15 14  1  1
 16 15  1  0
 16  7  1  0
 17 15  1  0
 18 17  2  0
 19 13  2  0
 20 19  1  0
 21 17  1  0
 22 27  1  0
 22 21  1  0
 22 23  1  6
 24 25  1  0
 24 23  1  0
 25 26  2  0
 27 30  1  0
 28 27  2  0
 29 25  1  0
M  END
$$$$
