IYE.pdb
     RDKit          3D

 30 30  0  0  1  0  0  0  0  0999 V2000
   11.0883  -19.0785   17.7616 C   0  0  0  0  0  0  0  0  0  0  0  0
   10.6110  -17.6504   17.7387 C   0  0  0  0  0  0  0  0  0  0  0  0
   10.8431  -17.0079   19.0593 C   0  0  2  0  0  0  0  0  0  0  0  0
   12.2797  -17.2156   19.5162 C   0  0  0  0  0  0  0  0  0  0  0  0
    9.9035  -17.4136   20.1499 C   0  0  2  0  0  0  0  0  0  0  0  0
    8.5574  -17.4249   19.5521 N   0  0  0  0  0  0  0  0  0  0  0  0
    9.9442  -16.5621   21.3382 C   0  0  0  0  0  0  0  0  0  0  0  0
   10.9968  -16.4477   22.0032 O   0  0  0  0  0  0  0  0  0  0  0  0
    6.5953  -11.6649   28.0087 O   0  0  0  0  0  0  0  0  0  0  0  0
    6.7947  -12.3112   26.7831 C   0  0  0  0  0  0  0  0  0  0  0  0
    7.6015  -11.7599   25.8118 C   0  0  0  0  0  0  0  0  0  0  0  0
    7.7983  -12.4040   24.5946 C   0  0  0  0  0  0  0  0  0  0  0  0
    7.1984  -13.6119   24.3111 C   0  0  0  0  0  0  0  0  0  0  0  0
    7.3995  -14.3021   23.0185 C   0  0  0  0  0  0  0  0  0  0  0  0
    8.6630  -15.1444   22.9937 C   0  0  2  0  0  0  0  0  0  0  0  0
    8.7844  -15.8622   21.7399 N   0  0  0  0  0  0  0  0  0  0  0  0
    8.7955  -16.0526   24.1389 C   0  0  0  0  0  0  0  0  0  0  0  0
    8.0866  -17.0700   24.3143 O   0  0  0  0  0  0  0  0  0  0  0  0
    6.3889  -14.1465   25.3090 C   0  0  0  0  0  0  0  0  0  0  0  0
    6.1869  -13.5247   26.5095 C   0  0  0  0  0  0  0  0  0  0  0  0
    9.7848  -15.7780   25.1219 N   0  0  0  0  0  0  0  0  0  0  0  0
   10.1759  -16.8104   26.1020 C   0  0  1  0  0  0  0  0  0  0  0  0
   11.4214  -17.5009   25.6281 C   0  0  0  0  0  0  0  0  0  0  0  0
   12.0066  -18.4862   26.5743 C   0  0  0  0  0  0  0  0  0  0  0  0
   13.2637  -19.1131   26.1242 C   0  0  0  0  0  0  0  0  0  0  0  0
   13.6004  -20.2955   26.3843 O   0  0  0  0  0  0  0  0  0  0  0  0
   10.2929  -16.2091   27.4399 C   0  0  0  0  0  0  0  0  0  0  0  0
   10.2389  -14.9772   27.5847 O   0  0  0  0  0  0  0  0  0  0  0  0
   14.1918  -18.3949   25.3486 O   0  0  0  0  0  0  0  0  0  0  0  0
   10.4636  -17.0192   28.5420 O   0  0  0  0  0  0  0  0  0  0  0  0
  2  1  1  0
  3  2  1  0
  3  4  1  1
  5  7  1  0
  5  3  1  0
  5  6  1  6
  7  8  2  0
  9 10  1  0
 10 20  2  0
 10 11  1  0
 11 12  2  0
 12 13  1  0
 13 14  1  0
 15 14  1  6
 16 15  1  0
 16  7  1  0
 17 15  1  0
 18 17  2  0
 19 13  2  0
 20 19  1  0
 21 17  1  0
 22 27  1  0
 22 21  1  0
 22 23  1  6
 24 25  1  0
 24 23  1  0
 25 26  2  0
 27 30  1  0
 28 27  2  0
 29 25  1  0
M  END
$$$$
