IYE.pdb
     RDKit          3D

 30 30  0  0  1  0  0  0  0  0999 V2000
    7.1961  -14.0360   16.1991 C   0  0  0  0  0  0  0  0  0  0  0  0
    8.0583  -14.9522   17.0267 C   0  0  0  0  0  0  0  0  0  0  0  0
    8.1245  -14.4688   18.4312 C   0  0  2  0  0  0  0  0  0  0  0  0
    8.6787  -13.0528   18.4897 C   0  0  0  0  0  0  0  0  0  0  0  0
    8.8769  -15.3445   19.3818 C   0  0  2  0  0  0  0  0  0  0  0  0
    8.1106  -16.5984   19.4828 N   0  0  0  0  0  0  0  0  0  0  0  0
    9.1031  -14.7585   20.7025 C   0  0  0  0  0  0  0  0  0  0  0  0
   10.0506  -13.9651   20.8926 O   0  0  0  0  0  0  0  0  0  0  0  0
    7.0861  -12.1933   28.9836 O   0  0  0  0  0  0  0  0  0  0  0  0
    7.0561  -12.7611   27.7044 C   0  0  0  0  0  0  0  0  0  0  0  0
    6.6533  -12.0271   26.6102 C   0  0  0  0  0  0  0  0  0  0  0  0
    6.6243  -12.5934   25.3399 C   0  0  0  0  0  0  0  0  0  0  0  0
    6.9945  -13.9032   25.1242 C   0  0  0  0  0  0  0  0  0  0  0  0
    6.9638  -14.5144   23.7777 C   0  0  0  0  0  0  0  0  0  0  0  0
    8.3177  -14.4874   23.0903 C   0  0  2  0  0  0  0  0  0  0  0  0
    8.2444  -15.0909   21.7741 N   0  0  0  0  0  0  0  0  0  0  0  0
    9.4004  -15.0795   23.8848 C   0  0  0  0  0  0  0  0  0  0  0  0
    9.8865  -14.5533   24.9121 O   0  0  0  0  0  0  0  0  0  0  0  0
    7.3970  -14.6220   26.2459 C   0  0  0  0  0  0  0  0  0  0  0  0
    7.4305  -14.0783   27.4997 C   0  0  0  0  0  0  0  0  0  0  0  0
    9.9451  -16.3285   23.4800 N   0  0  0  0  0  0  0  0  0  0  0  0
   10.9853  -16.9918   24.2907 C   0  0  1  0  0  0  0  0  0  0  0  0
   10.3683  -18.1165   25.0696 C   0  0  0  0  0  0  0  0  0  0  0  0
   11.3151  -18.9360   25.8698 C   0  0  0  0  0  0  0  0  0  0  0  0
   10.9287  -19.1384   27.2789 C   0  0  0  0  0  0  0  0  0  0  0  0
    9.7789  -19.4745   27.6587 O   0  0  0  0  0  0  0  0  0  0  0  0
   12.1050  -17.4004   23.4277 C   0  0  0  0  0  0  0  0  0  0  0  0
   13.2788  -17.2164   23.7881 O   0  0  0  0  0  0  0  0  0  0  0  0
   11.8615  -18.9595   28.3166 O   0  0  0  0  0  0  0  0  0  0  0  0
   11.8497  -17.9921   22.2092 O   0  0  0  0  0  0  0  0  0  0  0  0
  2  1  1  0
  3  2  1  0
  3  4  1  6
  5  7  1  0
  5  3  1  0
  5  6  1  1
  7  8  2  0
  9 10  1  0
 10 20  2  0
 10 11  1  0
 11 12  2  0
 12 13  1  0
 13 14  1  0
 15 14  1  1
 16 15  1  0
 16  7  1  0
 17 15  1  0
 18 17  2  0
 19 13  2  0
 20 19  1  0
 21 17  1  0
 22 27  1  0
 22 21  1  0
 22 23  1  6
 24 25  1  0
 24 23  1  0
 25 26  2  0
 27 30  1  0
 28 27  2  0
 29 25  1  0
M  END
$$$$
