IYE.pdb
     RDKit          3D

 30 30  0  0  1  0  0  0  0  0999 V2000
    7.0021  -13.1479   18.1846 C   0  0  0  0  0  0  0  0  0  0  0  0
    7.6141  -14.3867   18.7833 C   0  0  0  0  0  0  0  0  0  0  0  0
    8.1200  -14.1019   20.1522 C   0  0  2  0  0  0  0  0  0  0  0  0
    9.0156  -12.8716   20.1522 C   0  0  0  0  0  0  0  0  0  0  0  0
    8.8201  -15.2353   20.8317 C   0  0  2  0  0  0  0  0  0  0  0  0
    7.8608  -16.3525   20.8657 N   0  0  0  0  0  0  0  0  0  0  0  0
    9.3184  -14.9290   22.1721 C   0  0  0  0  0  0  0  0  0  0  0  0
   10.2436  -14.1036   22.3338 O   0  0  0  0  0  0  0  0  0  0  0  0
    5.6693  -10.3067   27.0259 O   0  0  0  0  0  0  0  0  0  0  0  0
    6.2030  -11.5495   26.6650 C   0  0  0  0  0  0  0  0  0  0  0  0
    5.4075  -12.5334   26.1196 C   0  0  0  0  0  0  0  0  0  0  0  0
    5.9401  -13.7677   25.7616 C   0  0  0  0  0  0  0  0  0  0  0  0
    7.2763  -14.0561   25.9365 C   0  0  0  0  0  0  0  0  0  0  0  0
    7.8504  -15.3666   25.5616 C   0  0  0  0  0  0  0  0  0  0  0  0
    9.0726  -15.2380   24.6693 C   0  0  2  0  0  0  0  0  0  0  0  0
    8.7503  -15.5706   23.2955 N   0  0  0  0  0  0  0  0  0  0  0  0
   10.2357  -15.9996   25.1398 C   0  0  0  0  0  0  0  0  0  0  0  0
   10.7209  -15.9017   26.2901 O   0  0  0  0  0  0  0  0  0  0  0  0
    8.0572  -13.0452   26.4889 C   0  0  0  0  0  0  0  0  0  0  0  0
    7.5473  -11.8279   26.8450 C   0  0  0  0  0  0  0  0  0  0  0  0
   10.8651  -16.9114   24.2492 N   0  0  0  0  0  0  0  0  0  0  0  0
   11.6907  -18.0193   24.7691 C   0  0  1  0  0  0  0  0  0  0  0  0
   10.8338  -18.9350   25.5934 C   0  0  0  0  0  0  0  0  0  0  0  0
   11.5119  -20.1509   26.1133 C   0  0  0  0  0  0  0  0  0  0  0  0
   10.6873  -20.9952   26.9982 C   0  0  0  0  0  0  0  0  0  0  0  0
    9.7924  -20.5585   27.7647 O   0  0  0  0  0  0  0  0  0  0  0  0
   12.3881  -18.6856   23.6577 C   0  0  0  0  0  0  0  0  0  0  0  0
   12.0399  -18.4838   22.4832 O   0  0  0  0  0  0  0  0  0  0  0  0
   10.8634  -22.3904   27.0353 O   0  0  0  0  0  0  0  0  0  0  0  0
   13.4364  -19.5407   23.9218 O   0  0  0  0  0  0  0  0  0  0  0  0
  2  1  1  0
  3  2  1  0
  3  4  1  6
  5  7  1  0
  5  3  1  0
  5  6  1  1
  7  8  2  0
  9 10  1  0
 10 20  2  0
 10 11  1  0
 11 12  2  0
 12 13  1  0
 13 14  1  0
 15 14  1  1
 16 15  1  0
 16  7  1  0
 17 15  1  0
 18 17  2  0
 19 13  2  0
 20 19  1  0
 21 17  1  0
 22 27  1  0
 22 21  1  0
 22 23  1  6
 24 25  1  0
 24 23  1  0
 25 26  2  0
 27 30  1  0
 28 27  2  0
 29 25  1  0
M  END
$$$$
