RKT.pdb
     RDKit          3D

 28 27  0  0  1  0  0  0  0  0999 V2000
   27.0252  -21.3635  -11.8806 N   0  0  0  0  0  0  0  0  0  0  0  0
   27.6135  -20.8057  -13.0302 C   0  0  0  0  0  0  0  0  0  0  0  0
   28.2316  -21.5437  -13.8780 N   0  0  0  0  0  0  0  0  0  0  0  0
   27.5032  -19.4023  -13.2246 N   0  0  0  0  0  0  0  0  0  0  0  0
   26.2032  -18.7727  -13.1219 C   0  0  0  0  0  0  0  0  0  0  0  0
   25.3675  -19.0375  -14.3420 C   0  0  0  0  0  0  0  0  0  0  0  0
   24.2689  -20.0032  -14.0873 C   0  0  0  0  0  0  0  0  0  0  0  0
   22.8784  -19.5031  -14.2135 C   0  0  2  0  0  0  0  0  0  0  0  0
   21.8989  -20.5266  -13.9619 N   0  0  0  0  0  0  0  0  0  0  0  0
   22.6042  -18.8910  -15.5437 C   0  0  0  0  0  0  0  0  0  0  0  0
   22.6822  -19.5642  -16.6075 O   0  0  0  0  0  0  0  0  0  0  0  0
   28.7249  -21.2030  -14.7125 N   0  0  0  0  0  0  0  0  0  0  0  0
   22.2429  -17.5267  -15.6827 C   0  0  2  0  0  0  0  0  0  0  0  0
   21.9554  -16.9272  -16.9982 C   0  0  0  0  0  0  0  0  0  0  0  0
   21.0051  -15.7798  -16.8125 C   0  0  0  0  0  0  0  0  0  0  0  0
   20.6073  -15.1825  -18.1158 C   0  0  0  0  0  0  0  0  0  0  0  0
   19.5171  -14.1050  -17.9151 C   0  0  0  0  0  0  0  0  0  0  0  0
   19.1114  -13.5239  -19.2451 N   0  0  0  0  0  0  0  0  0  0  0  0
   17.9657  -12.6302  -19.0100 C   0  0  0  0  0  0  0  0  0  0  0  0
   23.2456  -16.4774  -17.5474 O   0  0  0  0  0  0  0  0  0  0  0  0
   24.0814  -15.8924  -16.7711 C   0  0  0  0  0  0  0  0  0  0  0  0
   24.9941  -17.7395  -21.2358 C   0  0  2  0  0  0  0  0  0  0  0  0
   25.7036  -17.2794  -20.0015 O   0  0  0  0  0  0  0  0  0  0  0  0
   26.9619  -16.7673  -20.3862 C   0  0  1  0  0  0  0  0  0  0  0  0
   24.9664  -16.1293  -19.3501 N   0  0  0  0  0  0  0  0  0  0  0  0
   23.6858  -16.6269  -18.8790 C   0  0  0  0  0  0  0  0  0  0  0  0
   24.8313  -14.9698  -20.2341 O   0  0  0  0  0  0  0  0  0  0  0  0
   25.8482  -14.3780  -20.6765 O   0  0  0  0  0  0  0  0  0  0  0  0
  2  4  1  0
  2  1  1  0
  3  2  2  0
  5  4  1  0
  6  5  1  0
  7  6  1  0
  7  8  1  0
  8  9  1  6
 10 11  2  0
 10  8  1  0
 12 10  1  0
 13 12  1  0
 14 15  1  0
 13 14  1  1
 15 16  1  0
 16 17  1  0
 17 18  1  0
 19 25  1  0
 19 13  1  0
 20 19  2  0
 22 21  1  1
 22 23  1  0
 22 24  1  0
 24 25  1  1
 24 26  1  0
 26 28  1  0
 27 26  2  0
M  END
$$$$
