RKT.pdb
     RDKit          3D

 28 27  0  0  1  0  0  0  0  0999 V2000
   22.2524  -22.0421  -15.3935 N   0  0  0  0  0  0  0  0  0  0  0  0
   20.9322  -21.6335  -15.1310 C   0  0  0  0  0  0  0  0  0  0  0  0
   20.3558  -20.7553  -15.8672 N   0  0  0  0  0  0  0  0  0  0  0  0
   20.2566  -22.2213  -14.0276 N   0  0  0  0  0  0  0  0  0  0  0  0
   20.7650  -23.4525  -13.4595 C   0  0  0  0  0  0  0  0  0  0  0  0
   20.3435  -24.6455  -14.2694 C   0  0  0  0  0  0  0  0  0  0  0  0
   19.4967  -25.5919  -13.5002 C   0  0  0  0  0  0  0  0  0  0  0  0
   20.1199  -26.2788  -12.3430 C   0  0  2  0  0  0  0  0  0  0  0  0
   20.8482  -27.4584  -12.7283 N   0  0  0  0  0  0  0  0  0  0  0  0
   19.1324  -26.6455  -11.2897 C   0  0  0  0  0  0  0  0  0  0  0  0
   18.3200  -27.5969  -11.4506 O   0  0  0  0  0  0  0  0  0  0  0  0
   19.4084  -20.3862  -15.7187 N   0  0  0  0  0  0  0  0  0  0  0  0
   19.0545  -25.9478  -10.0575 C   0  0  2  0  0  0  0  0  0  0  0  0
   18.0621  -26.2981   -9.0254 C   0  0  0  0  0  0  0  0  0  0  0  0
   18.6280  -25.9675   -7.6746 C   0  0  0  0  0  0  0  0  0  0  0  0
   17.6523  -26.2524   -6.5881 C   0  0  0  0  0  0  0  0  0  0  0  0
   18.2734  -25.9604   -5.2030 C   0  0  0  0  0  0  0  0  0  0  0  0
   17.3037  -26.3325   -4.1110 N   0  0  0  0  0  0  0  0  0  0  0  0
   17.9713  -26.0922   -2.8213 C   0  0  0  0  0  0  0  0  0  0  0  0
   16.8552  -25.5057   -9.3150 O   0  0  0  0  0  0  0  0  0  0  0  0
   16.9851  -24.2741   -9.6464 C   0  0  0  0  0  0  0  0  0  0  0  0
   12.1214  -25.1916  -10.6072 C   0  0  2  0  0  0  0  0  0  0  0  0
   13.3693  -25.9698  -10.3317 O   0  0  0  0  0  0  0  0  0  0  0  0
   13.9623  -26.2972  -11.5705 C   0  0  1  0  0  0  0  0  0  0  0  0
   14.3839  -25.1228   -9.5942 N   0  0  0  0  0  0  0  0  0  0  0  0
   15.5225  -25.9653   -9.2729 C   0  0  0  0  0  0  0  0  0  0  0  0
   13.8202  -24.4614   -8.4158 O   0  0  0  0  0  0  0  0  0  0  0  0
   13.6267  -25.1015   -7.3514 O   0  0  0  0  0  0  0  0  0  0  0  0
  2  4  1  0
  2  1  1  0
  3  2  2  0
  5  4  1  0
  6  5  1  0
  7  6  1  0
  7  8  1  0
  8  9  1  6
 10 11  2  0
 10  8  1  0
 12 10  1  0
 13 12  1  0
 14 15  1  0
 13 14  1  1
 15 16  1  0
 16 17  1  0
 17 18  1  0
 19 25  1  0
 19 13  1  0
 20 19  2  0
 22 21  1  6
 22 23  1  0
 22 24  1  0
 24 25  1  1
 24 26  1  0
 26 28  1  0
 27 26  2  0
M  END
$$$$
