RKT.pdb
     RDKit          3D

 28 27  0  0  1  0  0  0  0  0999 V2000
   29.1408  -16.8610  -17.9082 N   0  0  0  0  0  0  0  0  0  0  0  0
   28.5435  -18.0682  -18.3142 C   0  0  0  0  0  0  0  0  0  0  0  0
   28.8062  -18.5801  -19.4606 N   0  0  0  0  0  0  0  0  0  0  0  0
   27.6416  -18.7032  -17.4182 N   0  0  0  0  0  0  0  0  0  0  0  0
   28.1629  -19.3792  -16.2486 C   0  0  0  0  0  0  0  0  0  0  0  0
   27.7661  -18.6722  -14.9838 C   0  0  0  0  0  0  0  0  0  0  0  0
   26.5147  -19.2104  -14.3932 C   0  0  0  0  0  0  0  0  0  0  0  0
   26.5958  -20.5181  -13.6986 C   0  0  2  0  0  0  0  0  0  0  0  0
   26.9832  -21.5878  -14.5796 N   0  0  0  0  0  0  0  0  0  0  0  0
   25.3232  -20.8906  -13.0198 C   0  0  0  0  0  0  0  0  0  0  0  0
   24.4914  -21.6696  -13.5605 O   0  0  0  0  0  0  0  0  0  0  0  0
   28.3773  -19.4325  -19.8420 N   0  0  0  0  0  0  0  0  0  0  0  0
   24.9820  -20.3915  -11.7369 C   0  0  1  0  0  0  0  0  0  0  0  0
   23.7073  -20.7346  -11.0813 C   0  0  0  0  0  0  0  0  0  0  0  0
   23.7484  -20.2576   -9.6583 C   0  0  0  0  0  0  0  0  0  0  0  0
   22.4164  -20.3695   -9.0051 C   0  0  0  0  0  0  0  0  0  0  0  0
   22.3107  -21.6829   -8.1967 C   0  0  0  0  0  0  0  0  0  0  0  0
   20.9108  -21.8536   -7.6653 N   0  0  0  0  0  0  0  0  0  0  0  0
   20.8494  -23.1555   -6.9814 C   0  0  0  0  0  0  0  0  0  0  0  0
   22.6449  -20.0611  -11.8470 O   0  0  0  0  0  0  0  0  0  0  0  0
   22.6282  -18.7800  -11.8921 C   0  0  0  0  0  0  0  0  0  0  0  0
   21.6041  -20.1342  -15.4327 C   0  0  2  0  0  0  0  0  0  0  0  0
   20.3896  -20.4627  -14.6232 O   0  0  0  0  0  0  0  0  0  0  0  0
   20.2980  -21.8681  -14.5236 C   0  0  2  0  0  0  0  0  0  0  0  0
   20.5294  -19.9521  -13.2053 N   0  0  0  0  0  0  0  0  0  0  0  0
   21.6074  -20.6879  -12.5681 C   0  0  0  0  0  0  0  0  0  0  0  0
   19.2757  -20.0215  -12.4520 O   0  0  0  0  0  0  0  0  0  0  0  0
   19.1268  -20.8623  -11.5295 O   0  0  0  0  0  0  0  0  0  0  0  0
  2  4  1  0
  2  1  1  0
  3  2  2  0
  5  4  1  0
  6  5  1  0
  7  6  1  0
  7  8  1  0
  8  9  1  6
 10 11  2  0
 10  8  1  0
 12 10  1  0
 13 12  1  0
 14 15  1  0
 13 14  1  6
 15 16  1  0
 16 17  1  0
 17 18  1  0
 19 25  1  0
 19 13  1  0
 20 19  2  0
 22 21  1  6
 22 23  1  0
 22 24  1  0
 24 25  1  1
 24 26  1  0
 26 28  1  0
 27 26  2  0
M  END
$$$$
