RKT.pdb
     RDKit          3D

 28 27  0  0  1  0  0  0  0  0999 V2000
   18.4595  -22.2553  -10.5766 N   0  0  0  0  0  0  0  0  0  0  0  0
   18.9889  -22.4219  -11.8693 C   0  0  0  0  0  0  0  0  0  0  0  0
   18.5158  -23.3095  -12.6654 N   0  0  0  0  0  0  0  0  0  0  0  0
   20.0618  -21.5792  -12.2669 N   0  0  0  0  0  0  0  0  0  0  0  0
   21.3841  -21.8119  -11.7246 C   0  0  0  0  0  0  0  0  0  0  0  0
   21.7549  -20.7638  -10.7142 C   0  0  0  0  0  0  0  0  0  0  0  0
   23.0260  -20.0713  -11.0448 C   0  0  0  0  0  0  0  0  0  0  0  0
   24.2660  -20.8847  -11.0443 C   0  0  2  0  0  0  0  0  0  0  0  0
   24.9298  -20.8779   -9.7677 N   0  0  0  0  0  0  0  0  0  0  0  0
   25.2349  -20.4599  -12.0930 C   0  0  0  0  0  0  0  0  0  0  0  0
   26.0599  -19.5278  -11.8891 O   0  0  0  0  0  0  0  0  0  0  0  0
   18.8542  -23.4926  -13.6182 N   0  0  0  0  0  0  0  0  0  0  0  0
   25.2802  -21.0779  -13.3686 C   0  0  2  0  0  0  0  0  0  0  0  0
   26.3109  -20.7339  -14.3646 C   0  0  0  0  0  0  0  0  0  0  0  0
   26.5837  -21.9386  -15.2181 C   0  0  0  0  0  0  0  0  0  0  0  0
   27.6980  -21.6919  -16.1725 C   0  0  0  0  0  0  0  0  0  0  0  0
   27.9603  -22.9415  -17.0439 C   0  0  0  0  0  0  0  0  0  0  0  0
   29.1681  -22.7202  -17.9177 N   0  0  0  0  0  0  0  0  0  0  0  0
   29.3060  -23.8953  -18.7933 C   0  0  0  0  0  0  0  0  0  0  0  0
   25.7722  -19.6181  -15.1604 O   0  0  0  0  0  0  0  0  0  0  0  0
   24.5086  -19.5557  -15.3675 C   0  0  0  0  0  0  0  0  0  0  0  0
   26.5908  -15.8369  -14.7288 C   0  0  2  0  0  0  0  0  0  0  0  0
   26.6956  -16.2146  -16.1727 O   0  0  0  0  0  0  0  0  0  0  0  0
   28.0435  -16.5365  -16.4433 C   0  0  2  0  0  0  0  0  0  0  0  0
   25.9005  -17.4692  -16.4634 N   0  0  0  0  0  0  0  0  0  0  0  0
   26.5148  -18.5674  -15.7382 C   0  0  0  0  0  0  0  0  0  0  0  0
   25.7733  -17.7398  -17.8968 O   0  0  0  0  0  0  0  0  0  0  0  0
   25.1029  -16.9764  -18.6371 O   0  0  0  0  0  0  0  0  0  0  0  0
  2  4  1  0
  2  1  1  0
  3  2  2  0
  5  4  1  0
  6  5  1  0
  7  6  1  0
  7  8  1  0
  8  9  1  1
 10 11  2  0
 10  8  1  0
 12 10  1  0
 13 12  1  0
 14 15  1  0
 13 14  1  1
 15 16  1  0
 16 17  1  0
 17 18  1  0
 19 25  1  0
 19 13  1  0
 20 19  2  0
 22 21  1  6
 22 23  1  0
 22 24  1  0
 24 25  1  6
 24 26  1  0
 26 28  1  0
 27 26  2  0
M  END
$$$$
