RKT.pdb
     RDKit          3D

 28 27  0  0  1  0  0  0  0  0999 V2000
   19.1875  -24.3619   -8.7889 N   0  0  0  0  0  0  0  0  0  0  0  0
   17.8335  -24.1643   -9.1152 C   0  0  0  0  0  0  0  0  0  0  0  0
   16.9167  -24.8924   -8.5909 N   0  0  0  0  0  0  0  0  0  0  0  0
   17.5115  -23.1359  -10.0415 N   0  0  0  0  0  0  0  0  0  0  0  0
   18.5602  -22.5684  -10.8630 C   0  0  0  0  0  0  0  0  0  0  0  0
   18.6006  -21.0713  -10.7440 C   0  0  0  0  0  0  0  0  0  0  0  0
   19.6927  -20.4607  -11.5434 C   0  0  0  0  0  0  0  0  0  0  0  0
   21.0861  -20.7387  -11.1188 C   0  0  2  0  0  0  0  0  0  0  0  0
   21.3774  -20.2205   -9.8085 N   0  0  0  0  0  0  0  0  0  0  0  0
   22.0972  -20.2148  -12.0792 C   0  0  0  0  0  0  0  0  0  0  0  0
   22.7539  -19.1654  -11.8375 O   0  0  0  0  0  0  0  0  0  0  0  0
   15.9138  -24.8294   -8.8059 N   0  0  0  0  0  0  0  0  0  0  0  0
   22.3727  -20.8650  -13.3091 C   0  0  2  0  0  0  0  0  0  0  0  0
   23.4333  -20.3948  -14.2183 C   0  0  0  0  0  0  0  0  0  0  0  0
   24.3156  -21.5553  -14.5774 C   0  0  0  0  0  0  0  0  0  0  0  0
   25.4005  -21.1492  -15.5110 C   0  0  0  0  0  0  0  0  0  0  0  0
   26.2254  -22.3770  -15.9603 C   0  0  0  0  0  0  0  0  0  0  0  0
   27.3750  -21.9391  -16.8307 N   0  0  0  0  0  0  0  0  0  0  0  0
   28.1467  -23.1406  -17.1876 C   0  0  0  0  0  0  0  0  0  0  0  0
   22.7575  -19.8419  -15.4040 O   0  0  0  0  0  0  0  0  0  0  0  0
   21.7664  -20.4797  -15.9083 C   0  0  0  0  0  0  0  0  0  0  0  0
   20.7419  -16.8265  -16.0258 C   0  0  2  0  0  0  0  0  0  0  0  0
   21.8719  -16.7959  -17.0059 O   0  0  0  0  0  0  0  0  0  0  0  0
   22.9387  -16.0799  -16.4203 C   0  0  2  0  0  0  0  0  0  0  0  0
   22.3993  -18.1901  -17.2682 N   0  0  0  0  0  0  0  0  0  0  0  0
   23.0848  -18.6428  -16.0705 C   0  0  0  0  0  0  0  0  0  0  0  0
   23.2428  -18.2612  -18.4630 O   0  0  0  0  0  0  0  0  0  0  0  0
   24.4658  -18.5363  -18.3698 O   0  0  0  0  0  0  0  0  0  0  0  0
  2  4  1  0
  2  1  1  0
  3  2  2  0
  5  4  1  0
  6  5  1  0
  7  6  1  0
  7  8  1  0
  8  9  1  1
 10 11  2  0
 10  8  1  0
 12 10  1  0
 13 12  1  0
 14 15  1  0
 13 14  1  1
 15 16  1  0
 16 17  1  0
 17 18  1  0
 19 25  1  0
 19 13  1  0
 20 19  2  0
 22 21  1  6
 22 23  1  0
 22 24  1  0
 24 25  1  6
 24 26  1  0
 26 28  1  0
 27 26  2  0
M  END
$$$$
