RKT.pdb
     RDKit          3D

 28 27  0  0  1  0  0  0  0  0999 V2000
   25.5206  -25.8881  -16.5890 N   0  0  0  0  0  0  0  0  0  0  0  0
   25.3050  -24.8579  -15.6557 C   0  0  0  0  0  0  0  0  0  0  0  0
   24.2789  -24.8705  -14.8861 N   0  0  0  0  0  0  0  0  0  0  0  0
   26.2562  -23.8041  -15.5905 N   0  0  0  0  0  0  0  0  0  0  0  0
   27.4356  -23.8612  -16.4286 C   0  0  0  0  0  0  0  0  0  0  0  0
   27.5935  -22.6064  -17.2396 C   0  0  0  0  0  0  0  0  0  0  0  0
   27.4434  -21.3737  -16.4258 C   0  0  0  0  0  0  0  0  0  0  0  0
   27.4271  -20.0781  -17.1472 C   0  0  2  0  0  0  0  0  0  0  0  0
   28.6638  -19.3553  -17.0113 N   0  0  0  0  0  0  0  0  0  0  0  0
   26.3047  -19.1955  -16.7225 C   0  0  0  0  0  0  0  0  0  0  0  0
   26.3555  -18.5353  -15.6490 O   0  0  0  0  0  0  0  0  0  0  0  0
   24.1061  -24.2113  -14.1170 N   0  0  0  0  0  0  0  0  0  0  0  0
   25.1266  -19.0523  -17.4988 C   0  0  2  0  0  0  0  0  0  0  0  0
   24.0178  -18.1772  -17.0777 C   0  0  0  0  0  0  0  0  0  0  0  0
   23.5749  -17.3539  -18.2525 C   0  0  0  0  0  0  0  0  0  0  0  0
   23.8280  -15.9045  -18.0313 C   0  0  0  0  0  0  0  0  0  0  0  0
   23.4726  -15.0869  -19.2942 C   0  0  0  0  0  0  0  0  0  0  0  0
   23.8688  -13.6449  -19.1068 N   0  0  0  0  0  0  0  0  0  0  0  0
   23.5217  -12.9234  -20.3419 C   0  0  0  0  0  0  0  0  0  0  0  0
   22.9412  -19.0612  -16.6001 O   0  0  0  0  0  0  0  0  0  0  0  0
   22.6040  -20.0713  -17.3139 C   0  0  0  0  0  0  0  0  0  0  0  0
   21.8152  -19.4543  -12.6337 C   0  0  2  0  0  0  0  0  0  0  0  0
   21.5890  -20.4871  -13.6922 O   0  0  0  0  0  0  0  0  0  0  0  0
   20.5041  -21.2957  -13.2888 C   0  0  1  0  0  0  0  0  0  0  0  0
   21.1676  -19.8435  -14.9957 N   0  0  0  0  0  0  0  0  0  0  0  0
   22.2146  -18.9215  -15.3994 C   0  0  0  0  0  0  0  0  0  0  0  0
   19.8529  -19.2042  -14.9127 O   0  0  0  0  0  0  0  0  0  0  0  0
   18.8214  -19.8851  -14.6833 O   0  0  0  0  0  0  0  0  0  0  0  0
  2  4  1  0
  2  1  1  0
  3  2  2  0
  5  4  1  0
  6  5  1  0
  7  6  1  0
  7  8  1  0
  8  9  1  1
 10 11  2  0
 10  8  1  0
 12 10  1  0
 13 12  1  0
 14 15  1  0
 13 14  1  6
 15 16  1  0
 16 17  1  0
 17 18  1  0
 19 25  1  0
 19 13  1  0
 20 19  2  0
 22 21  1  1
 22 23  1  0
 22 24  1  0
 24 25  1  1
 24 26  1  0
 26 28  1  0
 27 26  2  0
M  END
$$$$
