RKT.pdb
     RDKit          3D

 28 27  0  0  1  0  0  0  0  0999 V2000
   18.4567  -24.6574   -6.5950 N   0  0  0  0  0  0  0  0  0  0  0  0
   17.0922  -24.8898   -6.8460 C   0  0  0  0  0  0  0  0  0  0  0  0
   16.2377  -24.8929   -5.8894 N   0  0  0  0  0  0  0  0  0  0  0  0
   16.6887  -25.1207   -8.1889 N   0  0  0  0  0  0  0  0  0  0  0  0
   17.5238  -25.9317   -9.0502 C   0  0  0  0  0  0  0  0  0  0  0  0
   18.3114  -25.0832  -10.0076 C   0  0  0  0  0  0  0  0  0  0  0  0
   19.0717  -25.8880  -10.9969 C   0  0  0  0  0  0  0  0  0  0  0  0
   20.2692  -26.6142  -10.5092 C   0  0  2  0  0  0  0  0  0  0  0  0
   21.4295  -26.3766  -11.3264 N   0  0  0  0  0  0  0  0  0  0  0  0
   20.0488  -28.0836  -10.4019 C   0  0  0  0  0  0  0  0  0  0  0  0
   19.0993  -28.5595   -9.7215 O   0  0  0  0  0  0  0  0  0  0  0  0
   15.2420  -25.1284   -5.9842 N   0  0  0  0  0  0  0  0  0  0  0  0
   20.8905  -29.0192  -11.0556 C   0  0  2  0  0  0  0  0  0  0  0  0
   20.7326  -30.4727  -10.8685 C   0  0  0  0  0  0  0  0  0  0  0  0
   21.8393  -31.1798  -11.5960 C   0  0  0  0  0  0  0  0  0  0  0  0
   21.7116  -32.6577  -11.4828 C   0  0  0  0  0  0  0  0  0  0  0  0
   22.8507  -33.3669  -12.2504 C   0  0  0  0  0  0  0  0  0  0  0  0
   22.7251  -34.8612  -12.1005 N   0  0  0  0  0  0  0  0  0  0  0  0
   23.7903  -35.4809  -12.9056 C   0  0  0  0  0  0  0  0  0  0  0  0
   20.7941  -30.7201   -9.4182 O   0  0  0  0  0  0  0  0  0  0  0  0
   21.3596  -29.8520   -8.6631 C   0  0  0  0  0  0  0  0  0  0  0  0
   18.9897  -32.4440   -5.2848 C   0  0  2  0  0  0  0  0  0  0  0  0
   18.9669  -32.1769   -6.7567 O   0  0  0  0  0  0  0  0  0  0  0  0
   18.3169  -30.9412   -6.9664 C   0  0  1  0  0  0  0  0  0  0  0  0
   20.3700  -32.0076   -7.2982 N   0  0  0  0  0  0  0  0  0  0  0  0
   20.2781  -31.8428   -8.7382 C   0  0  0  0  0  0  0  0  0  0  0  0
   21.2625  -33.1019   -6.9106 O   0  0  0  0  0  0  0  0  0  0  0  0
   21.2695  -34.1825   -7.5526 O   0  0  0  0  0  0  0  0  0  0  0  0
  2  4  1  0
  2  1  1  0
  3  2  2  0
  5  4  1  0
  6  5  1  0
  7  6  1  0
  7  8  1  0
  8  9  1  6
 10 11  2  0
 10  8  1  0
 12 10  1  0
 13 12  1  0
 14 15  1  0
 13 14  1  1
 15 16  1  0
 16 17  1  0
 17 18  1  0
 19 25  1  0
 19 13  1  0
 20 19  2  0
 22 21  1  6
 22 23  1  0
 22 24  1  0
 24 25  1  6
 24 26  1  0
 26 28  1  0
 27 26  2  0
M  END
$$$$
