RKT.pdb
     RDKit          3D

 28 27  0  0  1  0  0  0  0  0999 V2000
   22.7418  -20.7201   -9.8821 N   0  0  0  0  0  0  0  0  0  0  0  0
   23.8493  -20.7038   -9.0149 C   0  0  0  0  0  0  0  0  0  0  0  0
   23.6892  -20.6928   -7.7423 N   0  0  0  0  0  0  0  0  0  0  0  0
   25.1491  -20.6998   -9.5894 N   0  0  0  0  0  0  0  0  0  0  0  0
   25.2873  -20.6283  -11.0291 C   0  0  0  0  0  0  0  0  0  0  0  0
   26.7317  -20.6316  -11.4423 C   0  0  0  0  0  0  0  0  0  0  0  0
   26.9089  -20.5241  -12.9125 C   0  0  0  0  0  0  0  0  0  0  0  0
   25.9274  -21.2303  -13.7711 C   0  0  2  0  0  0  0  0  0  0  0  0
   26.2049  -22.6377  -13.8839 N   0  0  0  0  0  0  0  0  0  0  0  0
   25.8328  -20.6473  -15.1387 C   0  0  0  0  0  0  0  0  0  0  0  0
   26.7549  -20.8005  -15.9855 O   0  0  0  0  0  0  0  0  0  0  0  0
   24.4453  -20.6227   -7.0499 N   0  0  0  0  0  0  0  0  0  0  0  0
   24.7070  -19.8936  -15.5577 C   0  0  2  0  0  0  0  0  0  0  0  0
   24.5124  -19.5010  -16.9651 C   0  0  0  0  0  0  0  0  0  0  0  0
   23.0442  -19.3180  -17.2204 C   0  0  0  0  0  0  0  0  0  0  0  0
   22.3251  -20.6204  -17.2361 C   0  0  0  0  0  0  0  0  0  0  0  0
   20.8130  -20.4089  -17.4774 C   0  0  0  0  0  0  0  0  0  0  0  0
   20.5664  -20.0180  -18.9119 N   0  0  0  0  0  0  0  0  0  0  0  0
   19.1156  -19.8361  -19.0812 C   0  0  0  0  0  0  0  0  0  0  0  0
   25.2558  -18.2448  -17.1589 O   0  0  0  0  0  0  0  0  0  0  0  0
   25.0047  -17.2493  -16.3912 C   0  0  0  0  0  0  0  0  0  0  0  0
   28.7568  -17.5713  -16.7813 C   0  0  2  0  0  0  0  0  0  0  0  0
   28.4297  -16.9922  -18.1215 O   0  0  0  0  0  0  0  0  0  0  0  0
   28.7432  -17.9577  -19.1028 C   0  0  2  0  0  0  0  0  0  0  0  0
   26.9443  -16.7323  -18.2512 N   0  0  0  0  0  0  0  0  0  0  0  0
   26.2540  -18.0039  -18.1258 C   0  0  0  0  0  0  0  0  0  0  0  0
   26.5993  -16.0213  -19.4839 O   0  0  0  0  0  0  0  0  0  0  0  0
   27.0117  -14.8514  -19.6871 O   0  0  0  0  0  0  0  0  0  0  0  0
  2  4  1  0
  2  1  1  0
  3  2  2  0
  5  4  1  0
  6  5  1  0
  7  6  1  0
  7  8  1  0
  8  9  1  6
 10 11  2  0
 10  8  1  0
 12 10  1  0
 13 12  1  0
 14 15  1  0
 13 14  1  6
 15 16  1  0
 16 17  1  0
 17 18  1  0
 19 25  1  0
 19 13  1  0
 20 19  2  0
 22 21  1  6
 22 23  1  0
 22 24  1  0
 24 25  1  6
 24 26  1  0
 26 28  1  0
 27 26  2  0
M  END
$$$$
