RKT.pdb
     RDKit          3D

 28 27  0  0  1  0  0  0  0  0999 V2000
   21.1155  -20.8100   -8.8516 N   0  0  0  0  0  0  0  0  0  0  0  0
   21.7638  -21.2125   -7.6698 C   0  0  0  0  0  0  0  0  0  0  0  0
   21.1286  -21.8467   -6.7534 N   0  0  0  0  0  0  0  0  0  0  0  0
   23.1412  -20.8962   -7.5211 N   0  0  0  0  0  0  0  0  0  0  0  0
   23.8826  -20.4040   -8.6634 C   0  0  0  0  0  0  0  0  0  0  0  0
   24.9001  -21.4059   -9.1301 C   0  0  0  0  0  0  0  0  0  0  0  0
   25.5304  -21.0265  -10.4198 C   0  0  0  0  0  0  0  0  0  0  0  0
   24.6279  -20.7297  -11.5586 C   0  0  2  0  0  0  0  0  0  0  0  0
   23.6906  -21.7918  -11.8112 N   0  0  0  0  0  0  0  0  0  0  0  0
   25.3666  -20.4302  -12.8171 C   0  0  0  0  0  0  0  0  0  0  0  0
   26.3714  -19.6677  -12.8258 O   0  0  0  0  0  0  0  0  0  0  0  0
   21.5170  -22.1178   -5.8415 N   0  0  0  0  0  0  0  0  0  0  0  0
   24.9809  -20.9838  -14.0644 C   0  0  1  0  0  0  0  0  0  0  0  0
   25.7051  -20.6756  -15.3107 C   0  0  0  0  0  0  0  0  0  0  0  0
   25.3731  -21.7199  -16.3370 C   0  0  0  0  0  0  0  0  0  0  0  0
   26.0688  -23.0044  -16.0553 C   0  0  0  0  0  0  0  0  0  0  0  0
   25.7269  -24.0606  -17.1310 C   0  0  0  0  0  0  0  0  0  0  0  0
   26.4817  -25.3372  -16.8628 N   0  0  0  0  0  0  0  0  0  0  0  0
   26.0575  -26.3253  -17.8679 C   0  0  0  0  0  0  0  0  0  0  0  0
   25.2604  -19.3380  -15.7368 O   0  0  0  0  0  0  0  0  0  0  0  0
   24.0448  -18.9903  -15.5245 C   0  0  0  0  0  0  0  0  0  0  0  0
   26.0730  -14.6408  -16.7589 C   0  0  2  0  0  0  0  0  0  0  0  0
   26.5489  -16.0094  -16.3861 O   0  0  0  0  0  0  0  0  0  0  0  0
   26.6536  -16.0673  -14.9792 C   0  0  1  0  0  0  0  0  0  0  0  0
   25.5310  -17.0607  -16.7725 N   0  0  0  0  0  0  0  0  0  0  0  0
   26.0500  -18.3563  -16.3708 C   0  0  0  0  0  0  0  0  0  0  0  0
   25.1752  -17.0099  -18.1919 O   0  0  0  0  0  0  0  0  0  0  0  0
   25.9118  -17.5463  -19.0579 O   0  0  0  0  0  0  0  0  0  0  0  0
  2  4  1  0
  2  1  1  0
  3  2  2  0
  5  4  1  0
  6  5  1  0
  7  6  1  0
  7  8  1  0
  8  9  1  6
 10 11  2  0
 10  8  1  0
 12 10  1  0
 13 12  1  0
 14 15  1  0
 13 14  1  1
 15 16  1  0
 16 17  1  0
 17 18  1  0
 19 25  1  0
 19 13  1  0
 20 19  2  0
 22 21  1  6
 22 23  1  0
 22 24  1  0
 24 25  1  6
 24 26  1  0
 26 28  1  0
 27 26  2  0
M  END
$$$$
