QTP.pdb
     RDKit          3D

 24 24  0  0  1  0  0  0  0  0999 V2000
   22.2457  -21.8810  -13.4011 N   0  0  0  0  0  0  0  0  0  0  0  0
   21.8152  -20.5361  -13.1752 C   0  0  0  0  0  0  0  0  0  0  0  0
   20.9700  -19.9579  -13.8941 O   0  0  0  0  0  0  0  0  0  0  0  0
   22.4179  -19.8226  -12.0271 C   0  0  0  0  0  0  0  0  0  0  0  0
   23.2250  -20.7400  -11.1440 C   0  0  0  0  0  0  0  0  0  0  0  0
   24.6910  -20.5270  -11.4255 C   0  0  2  0  0  0  0  0  0  0  0  0
   24.9536  -21.1504  -12.7263 N   0  0  0  0  0  0  0  0  0  0  0  0
   25.5732  -21.1033  -10.3808 C   0  0  0  0  0  0  0  0  0  0  0  0
   25.5798  -22.3502  -10.1735 O   0  0  0  0  0  0  0  0  0  0  0  0
   28.7149  -22.1850  -10.2350 C   0  0  0  0  0  0  0  0  0  0  0  0
   28.7168  -21.0583   -9.2486 C   0  0  1  0  0  0  0  0  0  0  0  0
   28.9742  -19.8906  -10.0089 O   0  0  0  0  0  0  0  0  0  0  0  0
   27.3688  -20.9131   -8.5947 C   0  0  2  0  0  0  0  0  0  0  0  0
   26.4345  -20.3351   -9.5748 N   0  0  0  0  0  0  0  0  0  0  0  0
   27.4580  -20.0258   -7.4336 C   0  0  0  0  0  0  0  0  0  0  0  0
   26.7412  -18.9469   -7.5271 O   0  0  0  0  0  0  0  0  0  0  0  0
   28.1928  -20.1812   -6.2548 N   0  0  0  0  0  0  0  0  0  0  0  0
   29.0349  -21.2762   -5.8709 C   0  0  0  0  0  0  0  0  0  0  0  0
   28.5457  -21.5226   -4.4350 C   0  0  0  0  0  0  0  0  0  0  0  0
   27.9666  -20.2015   -3.9704 C   0  0  0  0  0  0  0  0  0  0  0  0
   28.1896  -19.2658   -5.1393 C   0  0  1  0  0  0  0  0  0  0  0  0
   29.5099  -18.5975   -4.9398 C   0  0  0  0  0  0  0  0  0  0  0  0
   29.6490  -17.6773   -3.9150 O   0  0  0  0  0  0  0  0  0  0  0  0
   30.5204  -18.8222   -5.6568 O   0  0  0  0  0  0  0  0  0  0  0  0
  2  3  2  0
  2  1  1  0
  4  2  1  0
  5  4  1  0
  6  8  1  0
  6  5  1  0
  6  7  1  6
  8 14  1  0
  8  9  2  0
 11 10  1  6
 11 12  1  0
 13 11  1  0
 13 14  1  6
 15 17  1  0
 15 13  1  0
 16 15  2  0
 17 21  1  0
 18 17  1  0
 18 19  1  0
 19 20  1  0
 21 20  1  0
 22 23  1  0
 21 22  1  1
 24 22  2  0
M  END
$$$$
