QTP.pdb
     RDKit          3D

 24 24  0  0  1  0  0  0  0  0999 V2000
   20.8476  -14.8933  -18.5202 N   0  0  0  0  0  0  0  0  0  0  0  0
   20.2562  -15.4413  -17.3390 C   0  0  0  0  0  0  0  0  0  0  0  0
   20.3362  -16.6516  -17.0316 O   0  0  0  0  0  0  0  0  0  0  0  0
   19.5220  -14.5044  -16.4596 C   0  0  0  0  0  0  0  0  0  0  0  0
   19.5639  -13.0874  -16.9725 C   0  0  0  0  0  0  0  0  0  0  0  0
   18.9216  -12.1784  -15.9552 C   0  0  2  0  0  0  0  0  0  0  0  0
   17.5362  -12.6367  -15.8125 N   0  0  0  0  0  0  0  0  0  0  0  0
   18.9624  -10.7476  -16.3462 C   0  0  0  0  0  0  0  0  0  0  0  0
   18.2231  -10.3241  -17.2799 O   0  0  0  0  0  0  0  0  0  0  0  0
   17.3410   -8.5088  -16.6741 C   0  0  0  0  0  0  0  0  0  0  0  0
   18.3094   -7.8870  -15.7161 C   0  0  1  0  0  0  0  0  0  0  0  0
   17.9305   -8.3598  -14.4352 O   0  0  0  0  0  0  0  0  0  0  0  0
   19.7148   -8.3471  -15.9967 C   0  0  2  0  0  0  0  0  0  0  0  0
   19.7943   -9.7930  -15.7311 N   0  0  0  0  0  0  0  0  0  0  0  0
   20.6639   -7.6458  -15.1301 C   0  0  0  0  0  0  0  0  0  0  0  0
   21.0797   -8.3425  -14.1161 O   0  0  0  0  0  0  0  0  0  0  0  0
   21.1796   -6.3519  -15.2462 N   0  0  0  0  0  0  0  0  0  0  0  0
   20.9013   -5.3720  -16.2551 C   0  0  0  0  0  0  0  0  0  0  0  0
   22.3249   -4.9109  -16.6054 C   0  0  0  0  0  0  0  0  0  0  0  0
   23.1598   -5.1975  -15.3735 C   0  0  0  0  0  0  0  0  0  0  0  0
   22.1710   -5.7647  -14.3775 C   0  0  1  0  0  0  0  0  0  0  0  0
   21.6314   -4.6264  -13.5757 C   0  0  0  0  0  0  0  0  0  0  0  0
   22.3855   -4.1255  -12.5284 O   0  0  0  0  0  0  0  0  0  0  0  0
   20.5160   -4.0853  -13.7961 O   0  0  0  0  0  0  0  0  0  0  0  0
  2  3  2  0
  2  1  1  0
  4  2  1  0
  5  4  1  0
  6  8  1  0
  6  5  1  0
  6  7  1  6
  8 14  1  0
  8  9  2  0
 11 10  1  6
 11 12  1  0
 13 11  1  0
 13 14  1  1
 15 17  1  0
 15 13  1  0
 16 15  2  0
 17 21  1  0
 18 17  1  0
 18 19  1  0
 19 20  1  0
 21 20  1  0
 22 23  1  0
 21 22  1  6
 24 22  2  0
M  END
$$$$
