QTP.pdb
     RDKit          3D

 24 24  0  0  1  0  0  0  0  0999 V2000
   21.8950  -18.5892  -14.4410 N   0  0  0  0  0  0  0  0  0  0  0  0
   20.6496  -18.6566  -15.1407 C   0  0  0  0  0  0  0  0  0  0  0  0
   19.7053  -19.3978  -14.7877 O   0  0  0  0  0  0  0  0  0  0  0  0
   20.5035  -17.7949  -16.3350 C   0  0  0  0  0  0  0  0  0  0  0  0
   21.6416  -16.8163  -16.4764 C   0  0  0  0  0  0  0  0  0  0  0  0
   21.4050  -15.9618  -17.6961 C   0  0  2  0  0  0  0  0  0  0  0  0
   21.4952  -16.8611  -18.8505 N   0  0  0  0  0  0  0  0  0  0  0  0
   22.3768  -14.8477  -17.8227 C   0  0  0  0  0  0  0  0  0  0  0  0
   23.5785  -15.0866  -18.1334 O   0  0  0  0  0  0  0  0  0  0  0  0
   23.1431  -12.3562  -20.1372 C   0  0  0  0  0  0  0  0  0  0  0  0
   22.7682  -11.5867  -18.9085 C   0  0  1  0  0  0  0  0  0  0  0  0
   21.3736  -11.3603  -19.0150 O   0  0  0  0  0  0  0  0  0  0  0  0
   23.0255  -12.3971  -17.6665 C   0  0  2  0  0  0  0  0  0  0  0  0
   22.0462  -13.4953  -17.6146 N   0  0  0  0  0  0  0  0  0  0  0  0
   22.8762  -11.5626  -16.4727 C   0  0  0  0  0  0  0  0  0  0  0  0
   21.7887  -11.7821  -15.7978 O   0  0  0  0  0  0  0  0  0  0  0  0
   23.7331  -10.5818  -15.9654 N   0  0  0  0  0  0  0  0  0  0  0  0
   25.0048  -10.1621  -16.4774 C   0  0  0  0  0  0  0  0  0  0  0  0
   25.8451  -10.1635  -15.1906 C   0  0  0  0  0  0  0  0  0  0  0  0
   24.8559   -9.9697  -14.0589 C   0  0  0  0  0  0  0  0  0  0  0  0
   23.5185   -9.8280  -14.7537 C   0  0  1  0  0  0  0  0  0  0  0  0
   23.2937   -8.3747  -15.0127 C   0  0  0  0  0  0  0  0  0  0  0  0
   22.9147   -7.5560  -13.9627 O   0  0  0  0  0  0  0  0  0  0  0  0
   23.4295   -7.8389  -16.1441 O   0  0  0  0  0  0  0  0  0  0  0  0
  2  3  2  0
  2  1  1  0
  4  2  1  0
  5  4  1  0
  6  8  1  0
  6  5  1  0
  6  7  1  6
  8 14  1  0
  8  9  2  0
 11 10  1  6
 11 12  1  0
 13 11  1  0
 13 14  1  1
 15 17  1  0
 15 13  1  0
 16 15  2  0
 17 21  1  0
 18 17  1  0
 18 19  1  0
 19 20  1  0
 21 20  1  0
 22 23  1  0
 21 22  1  6
 24 22  2  0
M  END
$$$$
