QTP.pdb
     RDKit          3D

 24 24  0  0  1  0  0  0  0  0999 V2000
   32.4618   -4.1142  -17.2848 N   0  0  0  0  0  0  0  0  0  0  0  0
   31.8902   -4.9152  -16.2471 C   0  0  0  0  0  0  0  0  0  0  0  0
   31.7945   -4.5312  -15.0601 O   0  0  0  0  0  0  0  0  0  0  0  0
   31.3974   -6.2571  -16.6298 C   0  0  0  0  0  0  0  0  0  0  0  0
   31.6012   -6.5442  -18.0958 C   0  0  0  0  0  0  0  0  0  0  0  0
   31.3496   -8.0094  -18.3482 C   0  0  2  0  0  0  0  0  0  0  0  0
   29.9471   -8.2513  -17.9957 N   0  0  0  0  0  0  0  0  0  0  0  0
   32.2466   -8.8962  -17.5669 C   0  0  0  0  0  0  0  0  0  0  0  0
   31.7939   -9.5487  -16.5835 O   0  0  0  0  0  0  0  0  0  0  0  0
   36.0575  -11.9069  -17.5726 C   0  0  0  0  0  0  0  0  0  0  0  0
   35.2172  -10.8427  -18.2081 C   0  0  1  0  0  0  0  0  0  0  0  0
   34.2718  -11.5336  -19.0059 O   0  0  0  0  0  0  0  0  0  0  0  0
   34.4731  -10.0508  -17.1665 C   0  0  2  0  0  0  0  0  0  0  0  0
   33.6143   -9.0703  -17.8510 N   0  0  0  0  0  0  0  0  0  0  0  0
   35.4133   -9.3422  -16.2962 C   0  0  0  0  0  0  0  0  0  0  0  0
   35.6979   -8.1360  -16.6839 O   0  0  0  0  0  0  0  0  0  0  0  0
   36.0322   -9.7776  -15.1210 N   0  0  0  0  0  0  0  0  0  0  0  0
   35.9150  -11.0521  -14.4749 C   0  0  0  0  0  0  0  0  0  0  0  0
   35.6780  -10.6142  -13.0209 C   0  0  0  0  0  0  0  0  0  0  0  0
   36.2952   -9.2349  -12.9059 C   0  0  0  0  0  0  0  0  0  0  0  0
   36.8836   -8.9751  -14.2763 C   0  0  1  0  0  0  0  0  0  0  0  0
   38.2971   -9.4559  -14.2616 C   0  0  0  0  0  0  0  0  0  0  0  0
   38.6121  -10.6360  -14.9131 O   0  0  0  0  0  0  0  0  0  0  0  0
   39.2353   -8.8455  -13.6845 O   0  0  0  0  0  0  0  0  0  0  0  0
  2  3  2  0
  2  1  1  0
  4  2  1  0
  5  4  1  0
  6  8  1  0
  6  5  1  0
  6  7  1  1
  8 14  1  0
  8  9  2  0
 11 10  1  1
 11 12  1  0
 13 11  1  0
 13 14  1  6
 15 17  1  0
 15 13  1  0
 16 15  2  0
 17 21  1  0
 18 17  1  0
 18 19  1  0
 19 20  1  0
 21 20  1  0
 22 23  1  0
 21 22  1  1
 24 22  2  0
M  END
$$$$
