QTP.pdb
     RDKit          3D

 24 24  0  0  1  0  0  0  0  0999 V2000
   18.1248  -22.1191  -13.1673 N   0  0  0  0  0  0  0  0  0  0  0  0
   18.8305  -21.8588  -14.3836 C   0  0  0  0  0  0  0  0  0  0  0  0
   18.5567  -22.4206  -15.4676 O   0  0  0  0  0  0  0  0  0  0  0  0
   19.9315  -20.8718  -14.3224 C   0  0  0  0  0  0  0  0  0  0  0  0
   20.1473  -20.3421  -12.9275 C   0  0  0  0  0  0  0  0  0  0  0  0
   21.1588  -21.2113  -12.2239 C   0  0  2  0  0  0  0  0  0  0  0  0
   20.6928  -21.3449  -10.8402 N   0  0  0  0  0  0  0  0  0  0  0  0
   22.5326  -20.6519  -12.2622 C   0  0  0  0  0  0  0  0  0  0  0  0
   22.8489  -19.6942  -11.5003 O   0  0  0  0  0  0  0  0  0  0  0  0
   27.2908  -21.1443  -12.8437 C   0  0  0  0  0  0  0  0  0  0  0  0
   25.8827  -21.6517  -12.7953 C   0  0  1  0  0  0  0  0  0  0  0  0
   25.6594  -22.0189  -11.4451 O   0  0  0  0  0  0  0  0  0  0  0  0
   24.9065  -20.5660  -13.1611 C   0  0  2  0  0  0  0  0  0  0  0  0
   23.5460  -21.1271  -13.1159 N   0  0  0  0  0  0  0  0  0  0  0  0
   25.1776  -20.0699  -14.5117 C   0  0  0  0  0  0  0  0  0  0  0  0
   24.3053  -20.4345  -15.4019 O   0  0  0  0  0  0  0  0  0  0  0  0
   26.2271  -19.2659  -14.9654 N   0  0  0  0  0  0  0  0  0  0  0  0
   27.3140  -18.7143  -14.2104 C   0  0  0  0  0  0  0  0  0  0  0  0
   27.2928  -17.2583  -14.7018 C   0  0  0  0  0  0  0  0  0  0  0  0
   26.6532  -17.3019  -16.0750 C   0  0  0  0  0  0  0  0  0  0  0  0
   26.3814  -18.7720  -16.3125 C   0  0  1  0  0  0  0  0  0  0  0  0
   27.5735  -19.3478  -17.0032 C   0  0  0  0  0  0  0  0  0  0  0  0
   27.8148  -19.0069  -18.3230 O   0  0  0  0  0  0  0  0  0  0  0  0
   28.3856  -20.1363  -16.4515 O   0  0  0  0  0  0  0  0  0  0  0  0
  2  3  2  0
  2  1  1  0
  4  2  1  0
  5  4  1  0
  6  8  1  0
  6  5  1  0
  6  7  1  1
  8 14  1  0
  8  9  2  0
 11 10  1  1
 11 12  1  0
 13 11  1  0
 13 14  1  6
 15 17  1  0
 15 13  1  0
 16 15  2  0
 17 21  1  0
 18 17  1  0
 18 19  1  0
 19 20  1  0
 21 20  1  0
 22 23  1  0
 21 22  1  1
 24 22  2  0
M  END
$$$$
