HSL.pdb
     RDKit          3D

 25 25  0  0  1  0  0  0  0  0999 V2000
   17.4698  -14.4135  -18.0118 N   0  0  0  0  0  0  0  0  0  0  0  0
   17.4885  -13.3455  -17.0360 C   0  0  1  0  0  0  0  0  0  0  0  0
   17.7354  -13.9368  -15.6613 C   0  0  0  0  0  0  0  0  0  0  0  0
   16.6489  -14.8798  -15.3216 C   0  0  0  0  0  0  0  0  0  0  0  0
   15.3286  -14.5480  -15.0470 C   0  0  0  0  0  0  0  0  0  0  0  0
   14.6458  -15.6942  -14.7694 N   0  0  0  0  0  0  0  0  0  0  0  0
   15.5146  -16.6974  -14.8690 C   0  0  0  0  0  0  0  0  0  0  0  0
   16.7262  -16.2139  -15.2022 N   0  0  0  0  0  0  0  0  0  0  0  0
   18.4572  -12.2845  -17.3149 C   0  0  0  0  0  0  0  0  0  0  0  0
   19.6243  -12.6882  -17.6703 O   0  0  0  0  0  0  0  0  0  0  0  0
   18.0147   -8.2298  -16.7107 O   0  0  0  0  0  0  0  0  0  0  0  0
   18.6935   -8.6404  -17.8576 C   0  0  0  0  0  0  0  0  0  0  0  0
   19.3291   -9.9866  -17.5571 C   0  0  2  0  0  0  0  0  0  0  0  0
   18.2591  -10.9016  -17.2399 N   0  0  0  0  0  0  0  0  0  0  0  0
   20.3239   -9.9046  -16.4818 C   0  0  0  0  0  0  0  0  0  0  0  0
   20.0445  -10.2641  -15.2815 O   0  0  0  0  0  0  0  0  0  0  0  0
   24.7519  -10.7705  -13.8232 C   0  0  0  0  0  0  0  0  0  0  0  0
   24.9780   -9.8203  -14.9808 C   0  0  1  0  0  0  0  0  0  0  0  0
   26.2967  -10.2096  -15.6412 C   0  0  0  0  0  0  0  0  0  0  0  0
   23.9264   -9.8873  -16.0316 C   0  0  0  0  0  0  0  0  0  0  0  0
   22.6103   -9.2750  -15.6494 C   0  0  2  0  0  0  0  0  0  0  0  0
   21.6341   -9.4231  -16.7282 N   0  0  0  0  0  0  0  0  0  0  0  0
   22.7138   -7.8448  -15.2419 C   0  0  0  0  0  0  0  0  0  0  0  0
   22.9472   -7.4285  -13.9482 O   0  0  0  0  0  0  0  0  0  0  0  0
   22.5822   -6.9268  -16.1224 O   0  0  0  0  0  0  0  0  0  0  0  0
  2  1  1  6
  3  2  1  0
  4  3  1  0
  5  4  2  0
  6  5  1  0
  7  6  1  0
  7  8  2  0
  8  4  1  0
  9  2  1  0
  9 10  2  0
 12 11  1  0
 13 12  1  1
 13 14  1  0
 14  9  1  0
 15 13  1  0
 16 15  2  0
 18 19  1  6
 18 17  1  0
 20 18  1  0
 21 22  1  0
 21 20  1  6
 22 15  1  0
 23 21  1  0
 24 23  1  0
 25 23  2  0
M  END
$$$$
