HSL.pdb
     RDKit          3D

 25 25  0  0  1  0  0  0  0  0999 V2000
   24.6392  -19.8644  -17.5796 N   0  0  0  0  0  0  0  0  0  0  0  0
   25.7868  -19.7684  -16.7038 C   0  0  1  0  0  0  0  0  0  0  0  0
   26.8008  -18.8239  -17.3203 C   0  0  0  0  0  0  0  0  0  0  0  0
   27.3346  -19.4104  -18.5678 C   0  0  0  0  0  0  0  0  0  0  0  0
   26.6398  -19.5834  -19.7577 C   0  0  0  0  0  0  0  0  0  0  0  0
   27.4752  -20.1660  -20.6630 N   0  0  0  0  0  0  0  0  0  0  0  0
   28.6441  -20.3460  -20.0527 C   0  0  0  0  0  0  0  0  0  0  0  0
   28.5673  -19.8923  -18.7874 N   0  0  0  0  0  0  0  0  0  0  0  0
   25.4738  -19.3557  -15.3350 C   0  0  0  0  0  0  0  0  0  0  0  0
   24.8679  -18.2275  -15.2283 O   0  0  0  0  0  0  0  0  0  0  0  0
   22.7000  -20.5244  -12.3147 O   0  0  0  0  0  0  0  0  0  0  0  0
   23.5423  -20.5562  -13.4256 C   0  0  0  0  0  0  0  0  0  0  0  0
   24.8684  -19.9413  -13.0135 C   0  0  2  0  0  0  0  0  0  0  0  0
   25.7549  -20.0405  -14.1478 N   0  0  0  0  0  0  0  0  0  0  0  0
   25.4286  -20.5779  -11.8162 C   0  0  0  0  0  0  0  0  0  0  0  0
   25.6574  -21.8404  -11.7733 O   0  0  0  0  0  0  0  0  0  0  0  0
   28.6168  -20.8698   -7.4742 C   0  0  0  0  0  0  0  0  0  0  0  0
   27.3799  -20.0263   -7.2455 C   0  0  1  0  0  0  0  0  0  0  0  0
   27.7846  -18.8514   -6.3609 C   0  0  0  0  0  0  0  0  0  0  0  0
   26.7990  -19.4557   -8.4911 C   0  0  0  0  0  0  0  0  0  0  0  0
   26.1900  -20.4619   -9.4237 C   0  0  2  0  0  0  0  0  0  0  0  0
   25.7382  -19.8212  -10.6583 N   0  0  0  0  0  0  0  0  0  0  0  0
   25.0776  -21.2443   -8.8132 C   0  0  0  0  0  0  0  0  0  0  0  0
   25.2458  -22.4623   -8.1891 O   0  0  0  0  0  0  0  0  0  0  0  0
   23.8852  -20.7840   -8.8555 O   0  0  0  0  0  0  0  0  0  0  0  0
  2  1  1  6
  3  2  1  0
  4  3  1  0
  5  4  2  0
  6  5  1  0
  7  6  1  0
  7  8  2  0
  8  4  1  0
  9  2  1  0
  9 10  2  0
 12 11  1  0
 13 12  1  6
 13 14  1  0
 14  9  1  0
 15 13  1  0
 16 15  2  0
 18 19  1  1
 18 17  1  0
 20 18  1  0
 21 22  1  0
 21 20  1  1
 22 15  1  0
 23 21  1  0
 24 23  1  0
 25 23  2  0
M  END
$$$$
