HSL.pdb
     RDKit          3D

 25 25  0  0  1  0  0  0  0  0999 V2000
   29.3811   -9.7775  -17.7046 N   0  0  0  0  0  0  0  0  0  0  0  0
   30.7257   -9.4644  -18.1372 C   0  0  1  0  0  0  0  0  0  0  0  0
   30.6590   -8.7169  -19.4552 C   0  0  0  0  0  0  0  0  0  0  0  0
   30.1416   -9.6128  -20.5111 C   0  0  0  0  0  0  0  0  0  0  0  0
   30.7628  -10.7565  -20.9956 C   0  0  0  0  0  0  0  0  0  0  0  0
   29.9749  -11.2946  -21.9685 N   0  0  0  0  0  0  0  0  0  0  0  0
   28.9057  -10.5102  -22.0802 C   0  0  0  0  0  0  0  0  0  0  0  0
   28.9988   -9.4925  -21.2035 N   0  0  0  0  0  0  0  0  0  0  0  0
   31.5170   -8.7103  -17.1641 C   0  0  0  0  0  0  0  0  0  0  0  0
   30.8720   -7.8074  -16.5158 O   0  0  0  0  0  0  0  0  0  0  0  0
   35.3163   -8.0428  -14.3542 O   0  0  0  0  0  0  0  0  0  0  0  0
   34.7523   -8.7775  -15.3967 C   0  0  0  0  0  0  0  0  0  0  0  0
   33.4969   -8.0494  -15.8442 C   0  0  2  0  0  0  0  0  0  0  0  0
   32.8754   -8.8593  -16.8642 N   0  0  0  0  0  0  0  0  0  0  0  0
   33.7806   -6.6889  -16.3146 C   0  0  0  0  0  0  0  0  0  0  0  0
   34.1612   -6.4621  -17.5195 O   0  0  0  0  0  0  0  0  0  0  0  0
   30.7767   -2.8373  -17.4498 C   0  0  0  0  0  0  0  0  0  0  0  0
   32.0620   -3.6297  -17.3310 C   0  0  1  0  0  0  0  0  0  0  0  0
   32.9574   -3.2266  -18.4982 C   0  0  0  0  0  0  0  0  0  0  0  0
   32.8246   -3.3603  -16.0818 C   0  0  0  0  0  0  0  0  0  0  0  0
   34.0336   -4.2265  -15.8794 C   0  0  2  0  0  0  0  0  0  0  0  0
   33.6458   -5.5708  -15.4538 N   0  0  0  0  0  0  0  0  0  0  0  0
   35.0264   -3.6518  -14.9274 C   0  0  0  0  0  0  0  0  0  0  0  0
   36.2642   -3.1737  -15.3023 O   0  0  0  0  0  0  0  0  0  0  0  0
   34.7415   -3.5854  -13.6824 O   0  0  0  0  0  0  0  0  0  0  0  0
  2  1  1  1
  3  2  1  0
  4  3  1  0
  5  4  2  0
  6  5  1  0
  7  6  1  0
  7  8  2  0
  8  4  1  0
  9  2  1  0
  9 10  2  0
 12 11  1  0
 13 12  1  6
 13 14  1  0
 14  9  1  0
 15 13  1  0
 16 15  2  0
 18 19  1  6
 18 17  1  0
 20 18  1  0
 21 22  1  0
 21 20  1  1
 22 15  1  0
 23 21  1  0
 24 23  1  0
 25 23  2  0
M  END
$$$$
