HSL.pdb
     RDKit          3D

 25 25  0  0  1  0  0  0  0  0999 V2000
   26.5101  -17.7554  -17.6590 N   0  0  0  0  0  0  0  0  0  0  0  0
   27.1320  -18.4874  -16.5771 C   0  0  1  0  0  0  0  0  0  0  0  0
   28.4469  -17.8203  -16.2213 C   0  0  0  0  0  0  0  0  0  0  0  0
   29.3760  -17.9059  -17.3679 C   0  0  0  0  0  0  0  0  0  0  0  0
   29.7617  -16.8577  -18.1932 C   0  0  0  0  0  0  0  0  0  0  0  0
   30.6165  -17.3448  -19.1361 N   0  0  0  0  0  0  0  0  0  0  0  0
   30.7530  -18.6474  -18.9006 C   0  0  0  0  0  0  0  0  0  0  0  0
   30.0072  -18.9940  -17.8345 N   0  0  0  0  0  0  0  0  0  0  0  0
   26.2972  -18.6347  -15.3842 C   0  0  0  0  0  0  0  0  0  0  0  0
   25.7686  -17.5476  -14.9481 O   0  0  0  0  0  0  0  0  0  0  0  0
   22.9771  -20.4851  -12.8734 O   0  0  0  0  0  0  0  0  0  0  0  0
   23.8290  -20.4571  -13.9771 C   0  0  0  0  0  0  0  0  0  0  0  0
   25.1199  -19.7852  -13.5431 C   0  0  2  0  0  0  0  0  0  0  0  0
   26.0135  -19.8075  -14.6761 N   0  0  0  0  0  0  0  0  0  0  0  0
   25.7094  -20.4237  -12.3609 C   0  0  0  0  0  0  0  0  0  0  0  0
   26.3022  -21.5598  -12.4384 O   0  0  0  0  0  0  0  0  0  0  0  0
   28.1199  -19.1345   -6.8434 C   0  0  0  0  0  0  0  0  0  0  0  0
   27.3364  -20.1052   -7.7023 C   0  0  1  0  0  0  0  0  0  0  0  0
   26.1072  -20.5314   -6.9059 C   0  0  0  0  0  0  0  0  0  0  0  0
   26.8478  -19.5218   -8.9812 C   0  0  0  0  0  0  0  0  0  0  0  0
   26.1352  -20.4855   -9.8847 C   0  0  2  0  0  0  0  0  0  0  0  0
   25.6455  -19.8091  -11.0852 N   0  0  0  0  0  0  0  0  0  0  0  0
   25.0219  -21.2178   -9.2164 C   0  0  0  0  0  0  0  0  0  0  0  0
   25.1486  -22.4772   -8.6693 O   0  0  0  0  0  0  0  0  0  0  0  0
   23.8691  -20.6711   -9.1304 O   0  0  0  0  0  0  0  0  0  0  0  0
  2  1  1  6
  3  2  1  0
  4  3  1  0
  5  4  2  0
  6  5  1  0
  7  6  1  0
  7  8  2  0
  8  4  1  0
  9  2  1  0
  9 10  2  0
 12 11  1  0
 13 12  1  6
 13 14  1  0
 14  9  1  0
 15 13  1  0
 16 15  2  0
 18 19  1  1
 18 17  1  0
 20 18  1  0
 21 22  1  0
 21 20  1  1
 22 15  1  0
 23 21  1  0
 24 23  1  0
 25 23  2  0
M  END
$$$$
