HSL.pdb
     RDKit          3D

 25 25  0  0  1  0  0  0  0  0999 V2000
   16.0480  -10.9835  -18.4525 N   0  0  0  0  0  0  0  0  0  0  0  0
   16.0593   -9.8500  -17.5535 C   0  0  1  0  0  0  0  0  0  0  0  0
   15.6396  -10.3119  -16.1712 C   0  0  0  0  0  0  0  0  0  0  0  0
   16.3765  -11.5417  -15.8111 C   0  0  0  0  0  0  0  0  0  0  0  0
   17.7323  -11.6333  -15.5247 C   0  0  0  0  0  0  0  0  0  0  0  0
   18.0275  -12.9354  -15.2525 N   0  0  0  0  0  0  0  0  0  0  0  0
   16.8936  -13.6227  -15.3671 C   0  0  0  0  0  0  0  0  0  0  0  0
   15.8921  -12.7883  -15.7040 N   0  0  0  0  0  0  0  0  0  0  0  0
   17.3374   -9.1403  -17.4864 C   0  0  0  0  0  0  0  0  0  0  0  0
   18.3692   -9.8397  -17.7992 O   0  0  0  0  0  0  0  0  0  0  0  0
   17.6521   -5.2199  -17.5291 O   0  0  0  0  0  0  0  0  0  0  0  0
   18.7029   -5.9481  -18.0860 C   0  0  0  0  0  0  0  0  0  0  0  0
   18.8684   -7.2152  -17.2653 C   0  0  2  0  0  0  0  0  0  0  0  0
   17.5595   -7.8067  -17.1263 N   0  0  0  0  0  0  0  0  0  0  0  0
   19.5001   -6.9581  -15.9662 C   0  0  0  0  0  0  0  0  0  0  0  0
   18.8043   -6.6529  -14.9314 O   0  0  0  0  0  0  0  0  0  0  0  0
   23.9246   -9.8853  -14.5450 C   0  0  0  0  0  0  0  0  0  0  0  0
   22.6322   -9.0992  -14.6189 C   0  0  1  0  0  0  0  0  0  0  0  0
   21.7137   -9.6245  -13.5202 C   0  0  0  0  0  0  0  0  0  0  0  0
   22.7994   -7.6387  -14.3876 C   0  0  0  0  0  0  0  0  0  0  0  0
   21.5390   -6.8316  -14.5022 C   0  0  2  0  0  0  0  0  0  0  0  0
   20.9061   -7.0361  -15.8045 N   0  0  0  0  0  0  0  0  0  0  0  0
   21.7379   -5.3759  -14.2496 C   0  0  0  0  0  0  0  0  0  0  0  0
   21.4655   -4.3904  -15.1747 O   0  0  0  0  0  0  0  0  0  0  0  0
   22.1871   -4.9877  -13.1169 O   0  0  0  0  0  0  0  0  0  0  0  0
  2  1  1  6
  3  2  1  0
  4  3  1  0
  5  4  2  0
  6  5  1  0
  7  6  1  0
  7  8  2  0
  8  4  1  0
  9  2  1  0
  9 10  2  0
 12 11  1  0
 13 12  1  1
 13 14  1  0
 14  9  1  0
 15 13  1  0
 16 15  2  0
 18 19  1  1
 18 17  1  0
 20 18  1  0
 21 22  1  0
 21 20  1  6
 22 15  1  0
 23 21  1  0
 24 23  1  0
 25 23  2  0
M  END
$$$$
