HSL.pdb
     RDKit          3D

 25 25  0  0  1  0  0  0  0  0999 V2000
   18.5112  -13.3105  -18.1410 N   0  0  0  0  0  0  0  0  0  0  0  0
   18.4202  -12.5629  -16.9057 C   0  0  1  0  0  0  0  0  0  0  0  0
   19.4862  -13.0598  -15.9481 C   0  0  0  0  0  0  0  0  0  0  0  0
   19.2587  -14.4889  -15.6463 C   0  0  0  0  0  0  0  0  0  0  0  0
   18.1646  -15.0239  -14.9788 C   0  0  0  0  0  0  0  0  0  0  0  0
   18.3323  -16.3733  -14.8905 N   0  0  0  0  0  0  0  0  0  0  0  0
   19.4891  -16.6603  -15.4826 C   0  0  0  0  0  0  0  0  0  0  0  0
   20.0545  -15.5279  -15.9416 N   0  0  0  0  0  0  0  0  0  0  0  0
   18.5165  -11.1113  -17.0653 C   0  0  0  0  0  0  0  0  0  0  0  0
   19.5221  -10.7016  -17.7525 O   0  0  0  0  0  0  0  0  0  0  0  0
   15.5854   -8.4849  -16.2307 O   0  0  0  0  0  0  0  0  0  0  0  0
   16.4460   -8.2114  -17.2934 C   0  0  0  0  0  0  0  0  0  0  0  0
   17.8178   -8.7469  -16.9223 C   0  0  2  0  0  0  0  0  0  0  0  0
   17.6504  -10.1344  -16.5624 N   0  0  0  0  0  0  0  0  0  0  0  0
   18.4470   -7.9691  -15.8490 C   0  0  0  0  0  0  0  0  0  0  0  0
   18.3552   -8.3271  -14.6196 O   0  0  0  0  0  0  0  0  0  0  0  0
   22.2812   -5.0985  -13.3597 C   0  0  0  0  0  0  0  0  0  0  0  0
   21.6408   -4.3845  -14.5319 C   0  0  1  0  0  0  0  0  0  0  0  0
   22.7420   -3.6178  -15.2574 C   0  0  0  0  0  0  0  0  0  0  0  0
   21.0155   -5.2974  -15.5269 C   0  0  0  0  0  0  0  0  0  0  0  0
   19.7603   -5.9763  -15.0613 C   0  0  2  0  0  0  0  0  0  0  0  0
   19.1809   -6.7894  -16.1298 N   0  0  0  0  0  0  0  0  0  0  0  0
   18.7391   -5.0352  -14.5194 C   0  0  0  0  0  0  0  0  0  0  0  0
   18.5266   -4.8220  -13.1737 O   0  0  0  0  0  0  0  0  0  0  0  0
   18.0008   -4.3724  -15.3262 O   0  0  0  0  0  0  0  0  0  0  0  0
  2  1  1  6
  3  2  1  0
  4  3  1  0
  5  4  2  0
  6  5  1  0
  7  6  1  0
  7  8  2  0
  8  4  1  0
  9  2  1  0
  9 10  2  0
 12 11  1  0
 13 12  1  1
 13 14  1  0
 14  9  1  0
 15 13  1  0
 16 15  2  0
 18 19  1  6
 18 17  1  0
 20 18  1  0
 21 22  1  0
 21 20  1  6
 22 15  1  0
 23 21  1  0
 24 23  1  0
 25 23  2  0
M  END
$$$$
