HSL.pdb
     RDKit          3D

 25 25  0  0  1  0  0  0  0  0999 V2000
   18.5632  -13.4223  -17.3669 N   0  0  0  0  0  0  0  0  0  0  0  0
   17.9536  -12.5004  -16.4333 C   0  0  1  0  0  0  0  0  0  0  0  0
   18.4382  -12.8233  -15.0328 C   0  0  0  0  0  0  0  0  0  0  0  0
   17.8516  -14.1041  -14.5849 C   0  0  0  0  0  0  0  0  0  0  0  0
   16.9072  -14.8590  -15.2682 C   0  0  0  0  0  0  0  0  0  0  0  0
   16.6150  -15.9607  -14.5213 N   0  0  0  0  0  0  0  0  0  0  0  0
   17.3531  -15.8876  -13.4164 C   0  0  0  0  0  0  0  0  0  0  0  0
   18.1026  -14.7696  -13.4473 N   0  0  0  0  0  0  0  0  0  0  0  0
   18.1823  -11.0873  -16.7375 C   0  0  0  0  0  0  0  0  0  0  0  0
   19.4068  -10.7658  -16.9576 O   0  0  0  0  0  0  0  0  0  0  0  0
   15.4142   -8.0805  -16.6953 O   0  0  0  0  0  0  0  0  0  0  0  0
   16.3848   -8.0156  -17.6945 C   0  0  0  0  0  0  0  0  0  0  0  0
   17.6252   -8.7215  -17.1756 C   0  0  2  0  0  0  0  0  0  0  0  0
   17.2328  -10.0627  -16.8151 N   0  0  0  0  0  0  0  0  0  0  0  0
   18.2444   -8.0061  -16.0542 C   0  0  0  0  0  0  0  0  0  0  0  0
   18.0819   -8.3927  -14.8409 O   0  0  0  0  0  0  0  0  0  0  0  0
   22.3297   -5.6575  -13.3544 C   0  0  0  0  0  0  0  0  0  0  0  0
   21.7039   -4.8391  -14.4646 C   0  0  1  0  0  0  0  0  0  0  0  0
   22.8256   -4.0668  -15.1516 C   0  0  0  0  0  0  0  0  0  0  0  0
   21.0307   -5.6554  -15.5110 C   0  0  0  0  0  0  0  0  0  0  0  0
   19.6510   -6.1273  -15.1551 C   0  0  2  0  0  0  0  0  0  0  0  0
   19.0467   -6.8573  -16.2688 N   0  0  0  0  0  0  0  0  0  0  0  0
   18.7442   -5.0332  -14.7046 C   0  0  0  0  0  0  0  0  0  0  0  0
   18.6049   -4.6418  -13.3897 O   0  0  0  0  0  0  0  0  0  0  0  0
   18.0407   -4.4019  -15.5660 O   0  0  0  0  0  0  0  0  0  0  0  0
  2  1  1  6
  3  2  1  0
  4  3  1  0
  5  4  2  0
  6  5  1  0
  7  6  1  0
  7  8  2  0
  8  4  1  0
  9  2  1  0
  9 10  2  0
 12 11  1  0
 13 12  1  1
 13 14  1  0
 14  9  1  0
 15 13  1  0
 16 15  2  0
 18 19  1  6
 18 17  1  0
 20 18  1  0
 21 22  1  0
 21 20  1  6
 22 15  1  0
 23 21  1  0
 24 23  1  0
 25 23  2  0
M  END
$$$$
