HSL.pdb
     RDKit          3D

 25 25  0  0  1  0  0  0  0  0999 V2000
   13.6693  -11.4545  -16.6352 N   0  0  0  0  0  0  0  0  0  0  0  0
   14.1291  -10.2066  -16.0655 C   0  0  1  0  0  0  0  0  0  0  0  0
   14.0803  -10.3067  -14.5529 C   0  0  0  0  0  0  0  0  0  0  0  0
   12.6750  -10.4042  -14.1045 C   0  0  0  0  0  0  0  0  0  0  0  0
   11.5464  -10.2544  -14.8998 C   0  0  0  0  0  0  0  0  0  0  0  0
   10.4434  -10.4044  -14.1138 N   0  0  0  0  0  0  0  0  0  0  0  0
   10.8766  -10.6382  -12.8774 C   0  0  0  0  0  0  0  0  0  0  0  0
   12.2229  -10.6397  -12.8635 N   0  0  0  0  0  0  0  0  0  0  0  0
   15.4622   -9.7925  -16.5050 C   0  0  0  0  0  0  0  0  0  0  0  0
   16.3299  -10.7369  -16.5862 O   0  0  0  0  0  0  0  0  0  0  0  0
   16.8155   -5.9620  -17.0336 O   0  0  0  0  0  0  0  0  0  0  0  0
   17.2994   -6.9161  -17.9280 C   0  0  0  0  0  0  0  0  0  0  0  0
   17.2616   -8.2628  -17.2271 C   0  0  2  0  0  0  0  0  0  0  0  0
   15.8918   -8.5045  -16.8423 N   0  0  0  0  0  0  0  0  0  0  0  0
   18.1763   -8.3195  -16.0813 C   0  0  0  0  0  0  0  0  0  0  0  0
   17.7477   -8.2142  -14.8758 O   0  0  0  0  0  0  0  0  0  0  0  0
   22.0190  -10.2079  -12.9262 C   0  0  0  0  0  0  0  0  0  0  0  0
   22.5549   -9.6671  -14.2355 C   0  0  1  0  0  0  0  0  0  0  0  0
   23.6435  -10.6226  -14.7136 C   0  0  0  0  0  0  0  0  0  0  0  0
   21.5370   -9.5874  -15.3180 C   0  0  0  0  0  0  0  0  0  0  0  0
   20.4922   -8.5267  -15.1272 C   0  0  2  0  0  0  0  0  0  0  0  0
   19.5714   -8.4922  -16.2628 N   0  0  0  0  0  0  0  0  0  0  0  0
   21.0580   -7.1694  -14.8821 C   0  0  0  0  0  0  0  0  0  0  0  0
   21.5006   -6.7311  -13.6519 O   0  0  0  0  0  0  0  0  0  0  0  0
   21.1507   -6.3402  -15.8512 O   0  0  0  0  0  0  0  0  0  0  0  0
  2  1  1  6
  3  2  1  0
  4  3  1  0
  5  4  2  0
  6  5  1  0
  7  6  1  0
  7  8  2  0
  8  4  1  0
  9  2  1  0
  9 10  2  0
 12 11  1  0
 13 12  1  1
 13 14  1  0
 14  9  1  0
 15 13  1  0
 16 15  2  0
 18 19  1  6
 18 17  1  0
 20 18  1  0
 21 22  1  0
 21 20  1  6
 22 15  1  0
 23 21  1  0
 24 23  1  0
 25 23  2  0
M  END
$$$$
