EKQ.pdb
     RDKit          3D

 28 27  0  0  1  0  0  0  0  0999 V2000
   16.0683  -23.3392    0.0123 N   0  0  0  0  0  0  0  0  0  0  0  0
   15.6173  -22.0219    0.4220 C   0  0  1  0  0  0  0  0  0  0  0  0
   14.1091  -22.0380    0.2804 C   0  0  0  0  0  0  0  0  0  0  0  0
   13.7279  -21.9466   -1.1976 C   0  0  0  0  0  0  0  0  0  0  0  0
   13.8973  -23.2537   -1.8565 C   0  0  0  0  0  0  0  0  0  0  0  0
   13.1835  -24.2341   -1.5481 O   0  0  0  0  0  0  0  0  0  0  0  0
   16.0360  -21.8360    1.8315 C   0  0  0  0  0  0  0  0  0  0  0  0
   16.0576  -22.7999    2.6344 O   0  0  0  0  0  0  0  0  0  0  0  0
   14.8661  -23.3928   -2.8338 O   0  0  0  0  0  0  0  0  0  0  0  0
   16.4364  -20.5594    2.3565 N   0  0  0  0  0  0  0  0  0  0  0  0
   16.7977  -20.3494    3.7229 C   0  0  1  0  0  0  0  0  0  0  0  0
   17.8451  -19.2470    3.8324 C   0  0  0  0  0  0  0  0  0  0  0  0
   18.2018  -18.9513    5.2534 C   0  0  0  0  0  0  0  0  0  0  0  0
   19.6902  -19.0795    5.4635 C   0  0  0  0  0  0  0  0  0  0  0  0
   20.1523  -18.7406    6.8412 C   0  0  0  0  0  0  0  0  0  0  0  0
   21.5854  -19.0501    6.9055 N   0  0  0  0  0  0  0  0  0  0  0  0
   15.6331  -19.9916    4.5740 C   0  0  0  0  0  0  0  0  0  0  0  0
   14.8596  -19.0285    4.2443 O   0  0  0  0  0  0  0  0  0  0  0  0
   12.4727  -23.7663    8.4493 N   0  0  0  0  0  0  0  0  0  0  0  0
   12.2025  -23.4911    7.0637 C   0  0  0  0  0  0  0  0  0  0  0  0
   11.4650  -24.3138    6.4718 O   0  0  0  0  0  0  0  0  0  0  0  0
   12.7719  -22.3019    6.3913 C   0  0  0  0  0  0  0  0  0  0  0  0
   13.6372  -21.5011    7.3047 C   0  0  0  0  0  0  0  0  0  0  0  0
   14.2446  -20.2870    6.6723 C   0  0  2  0  0  0  0  0  0  0  0  0
   15.3325  -20.6914    5.7710 N   0  0  0  0  0  0  0  0  0  0  0  0
   14.7309  -19.2787    7.6380 C   0  0  0  0  0  0  0  0  0  0  0  0
   13.9230  -18.6592    8.4123 O   0  0  0  0  0  0  0  0  0  0  0  0
   16.0559  -18.9426    7.7723 O   0  0  0  0  0  0  0  0  0  0  0  0
  2  1  1  1
  2  3  1  0
  4  3  1  0
  5  4  1  0
  6  5  2  0
  7  2  1  0
  7 10  1  0
  8  7  2  0
  9  5  1  0
 11 10  1  0
 11 12  1  6
 13 12  1  0
 14 13  1  0
 15 14  1  0
 16 15  1  0
 17 11  1  0
 18 17  2  0
 20 19  1  0
 20 22  1  0
 21 20  2  0
 23 22  1  0
 24 23  1  1
 24 25  1  0
 25 17  1  0
 26 24  1  0
 27 26  2  0
 28 26  1  0
M  END
$$$$
