EKQ.pdb
     RDKit          3D

 28 27  0  0  1  0  0  0  0  0999 V2000
   27.5950  -13.1474  -19.0544 N   0  0  0  0  0  0  0  0  0  0  0  0
   27.1663  -12.5716  -17.7930 C   0  0  1  0  0  0  0  0  0  0  0  0
   27.6457  -11.1346  -17.8096 C   0  0  0  0  0  0  0  0  0  0  0  0
   29.1723  -11.0983  -17.7299 C   0  0  0  0  0  0  0  0  0  0  0  0
   29.6576   -9.7071  -17.7508 C   0  0  0  0  0  0  0  0  0  0  0  0
   30.4006   -9.2644  -16.8465 O   0  0  0  0  0  0  0  0  0  0  0  0
   25.6873  -12.6582  -17.7538 C   0  0  0  0  0  0  0  0  0  0  0  0
   24.9810  -12.0910  -18.6219 O   0  0  0  0  0  0  0  0  0  0  0  0
   29.2807   -8.8798  -18.7932 O   0  0  0  0  0  0  0  0  0  0  0  0
   24.9827  -13.3860  -16.7342 N   0  0  0  0  0  0  0  0  0  0  0  0
   23.5608  -13.3681  -16.5956 C   0  0  1  0  0  0  0  0  0  0  0  0
   23.0660  -14.6908  -16.0212 C   0  0  0  0  0  0  0  0  0  0  0  0
   21.5735  -14.7622  -15.9824 C   0  0  0  0  0  0  0  0  0  0  0  0
   21.1205  -16.1218  -15.5112 C   0  0  0  0  0  0  0  0  0  0  0  0
   19.6408  -16.3141  -15.5070 C   0  0  0  0  0  0  0  0  0  0  0  0
   19.3798  -17.6526  -14.9647 N   0  0  0  0  0  0  0  0  0  0  0  0
   23.0845  -12.2595  -15.7278 C   0  0  0  0  0  0  0  0  0  0  0  0
   23.8465  -11.7668  -14.8273 O   0  0  0  0  0  0  0  0  0  0  0  0
   24.0063   -7.3490  -16.7926 N   0  0  0  0  0  0  0  0  0  0  0  0
   22.9814   -6.9741  -15.8557 C   0  0  0  0  0  0  0  0  0  0  0  0
   22.9260   -5.7583  -15.5563 O   0  0  0  0  0  0  0  0  0  0  0  0
   22.0558   -7.9791  -15.2867 C   0  0  0  0  0  0  0  0  0  0  0  0
   22.3963   -9.3650  -15.7201 C   0  0  0  0  0  0  0  0  0  0  0  0
   21.4147  -10.4074  -15.2812 C   0  0  2  0  0  0  0  0  0  0  0  0
   21.7839  -11.7076  -15.8578 N   0  0  0  0  0  0  0  0  0  0  0  0
   20.0071  -10.0888  -15.6020 C   0  0  0  0  0  0  0  0  0  0  0  0
   19.4534  -10.5326  -16.6661 O   0  0  0  0  0  0  0  0  0  0  0  0
   19.2092   -9.3119  -14.7982 O   0  0  0  0  0  0  0  0  0  0  0  0
  2  1  1  6
  2  3  1  0
  4  3  1  0
  5  4  1  0
  6  5  2  0
  7  2  1  0
  7 10  1  0
  8  7  2  0
  9  5  1  0
 11 10  1  0
 11 12  1  1
 13 12  1  0
 14 13  1  0
 15 14  1  0
 16 15  1  0
 17 11  1  0
 18 17  2  0
 20 19  1  0
 20 22  1  0
 21 20  2  0
 23 22  1  0
 24 23  1  6
 24 25  1  0
 25 17  1  0
 26 24  1  0
 27 26  2  0
 28 26  1  0
M  END
$$$$
