EKQ.pdb
     RDKit          3D

 28 27  0  0  1  0  0  0  0  0999 V2000
   16.5103  -14.0921  -17.9921 N   0  0  0  0  0  0  0  0  0  0  0  0
   16.8846  -13.7810  -16.6248 C   0  0  1  0  0  0  0  0  0  0  0  0
   18.2623  -14.3791  -16.4263 C   0  0  0  0  0  0  0  0  0  0  0  0
   18.1455  -15.8906  -16.2266 C   0  0  0  0  0  0  0  0  0  0  0  0
   17.5723  -16.1940  -14.9035 C   0  0  0  0  0  0  0  0  0  0  0  0
   18.2228  -15.9972  -13.8528 O   0  0  0  0  0  0  0  0  0  0  0  0
   16.9026  -12.3041  -16.5023 C   0  0  0  0  0  0  0  0  0  0  0  0
   17.5895  -11.5971  -17.2786 O   0  0  0  0  0  0  0  0  0  0  0  0
   16.2896  -16.7061  -14.8286 O   0  0  0  0  0  0  0  0  0  0  0  0
   16.1462  -11.6025  -15.5017 N   0  0  0  0  0  0  0  0  0  0  0  0
   16.0970  -10.1776  -15.4084 C   0  0  1  0  0  0  0  0  0  0  0  0
   14.8862   -9.7397  -14.5922 C   0  0  0  0  0  0  0  0  0  0  0  0
   13.6071   -9.9233  -15.3434 C   0  0  0  0  0  0  0  0  0  0  0  0
   12.4358   -9.4512  -14.5180 C   0  0  0  0  0  0  0  0  0  0  0  0
   11.1145   -9.5524  -15.2039 C   0  0  0  0  0  0  0  0  0  0  0  0
   10.0897   -9.1615  -14.2288 N   0  0  0  0  0  0  0  0  0  0  0  0
   17.3227   -9.6019  -14.7960 C   0  0  0  0  0  0  0  0  0  0  0  0
   17.9505  -10.2363  -13.8806 O   0  0  0  0  0  0  0  0  0  0  0  0
   23.1323   -8.9298  -16.5563 N   0  0  0  0  0  0  0  0  0  0  0  0
   22.3973   -7.9595  -15.7902 C   0  0  0  0  0  0  0  0  0  0  0  0
   22.4929   -6.7692  -16.1710 O   0  0  0  0  0  0  0  0  0  0  0  0
   21.5819   -8.3607  -14.6220 C   0  0  0  0  0  0  0  0  0  0  0  0
   20.2159   -8.8093  -15.0182 C   0  0  0  0  0  0  0  0  0  0  0  0
   19.1290   -7.8278  -14.7046 C   0  0  2  0  0  0  0  0  0  0  0  0
   17.8423   -8.3428  -15.1932 N   0  0  0  0  0  0  0  0  0  0  0  0
   19.3679   -6.4683  -15.2340 C   0  0  0  0  0  0  0  0  0  0  0  0
   18.9382   -6.1216  -16.3877 O   0  0  0  0  0  0  0  0  0  0  0  0
   20.0520   -5.4999  -14.5406 O   0  0  0  0  0  0  0  0  0  0  0  0
  2  1  1  6
  2  3  1  0
  4  3  1  0
  5  4  1  0
  6  5  2  0
  7  2  1  0
  7 10  1  0
  8  7  2  0
  9  5  1  0
 11 10  1  0
 11 12  1  1
 13 12  1  0
 14 13  1  0
 15 14  1  0
 16 15  1  0
 17 11  1  0
 18 17  2  0
 20 19  1  0
 20 22  1  0
 21 20  2  0
 23 22  1  0
 24 23  1  6
 24 25  1  0
 25 17  1  0
 26 24  1  0
 27 26  2  0
 28 26  1  0
M  END
$$$$
