EKQ.pdb
     RDKit          3D

 28 27  0  0  1  0  0  0  0  0999 V2000
   19.1964  -11.6159  -15.6260 N   0  0  0  0  0  0  0  0  0  0  0  0
   20.0936  -10.7318  -16.3472 C   0  0  1  0  0  0  0  0  0  0  0  0
   20.3861  -11.4227  -17.6634 C   0  0  0  0  0  0  0  0  0  0  0  0
   19.2046  -12.3112  -18.0543 C   0  0  0  0  0  0  0  0  0  0  0  0
   19.4844  -13.0160  -19.3178 C   0  0  0  0  0  0  0  0  0  0  0  0
   20.1114  -14.0988  -19.3327 O   0  0  0  0  0  0  0  0  0  0  0  0
   19.3771   -9.4497  -16.5455 C   0  0  0  0  0  0  0  0  0  0  0  0
   19.9721   -8.4348  -16.9816 O   0  0  0  0  0  0  0  0  0  0  0  0
   19.0425  -12.4644  -20.5067 O   0  0  0  0  0  0  0  0  0  0  0  0
   17.9784   -9.2932  -16.2544 N   0  0  0  0  0  0  0  0  0  0  0  0
   17.2867   -8.0479  -16.3651 C   0  0  1  0  0  0  0  0  0  0  0  0
   15.7825   -8.2624  -16.2408 C   0  0  0  0  0  0  0  0  0  0  0  0
   15.2131   -8.9512  -17.4389 C   0  0  0  0  0  0  0  0  0  0  0  0
   13.7367   -9.2006  -17.2546 C   0  0  0  0  0  0  0  0  0  0  0  0
   13.0654   -9.8362  -18.4259 C   0  0  0  0  0  0  0  0  0  0  0  0
   11.6480   -9.9935  -18.0795 N   0  0  0  0  0  0  0  0  0  0  0  0
   17.7174   -7.0614  -15.3404 C   0  0  0  0  0  0  0  0  0  0  0  0
   18.0223   -7.4435  -14.1591 O   0  0  0  0  0  0  0  0  0  0  0  0
   22.2513   -5.8128  -13.2872 N   0  0  0  0  0  0  0  0  0  0  0  0
   22.1269   -4.6772  -14.1610 C   0  0  0  0  0  0  0  0  0  0  0  0
   23.1966   -4.1072  -14.4801 O   0  0  0  0  0  0  0  0  0  0  0  0
   20.8045   -4.2209  -14.6442 C   0  0  0  0  0  0  0  0  0  0  0  0
   19.7043   -5.1304  -14.2120 C   0  0  0  0  0  0  0  0  0  0  0  0
   18.3396   -4.7027  -14.6566 C   0  0  2  0  0  0  0  0  0  0  0  0
   17.8078   -5.6739  -15.6227 N   0  0  0  0  0  0  0  0  0  0  0  0
   18.2860   -3.3383  -15.2234 C   0  0  0  0  0  0  0  0  0  0  0  0
   18.0640   -3.1464  -16.4684 O   0  0  0  0  0  0  0  0  0  0  0  0
   18.4651   -2.2031  -14.4713 O   0  0  0  0  0  0  0  0  0  0  0  0
  2  1  1  1
  2  3  1  0
  4  3  1  0
  5  4  1  0
  6  5  2  0
  7  2  1  0
  7 10  1  0
  8  7  2  0
  9  5  1  0
 11 10  1  0
 11 12  1  1
 13 12  1  0
 14 13  1  0
 15 14  1  0
 16 15  1  0
 17 11  1  0
 18 17  2  0
 20 19  1  0
 20 22  1  0
 21 20  2  0
 23 22  1  0
 24 23  1  6
 24 25  1  0
 25 17  1  0
 26 24  1  0
 27 26  2  0
 28 26  1  0
M  END
$$$$
