EKQ.pdb
     RDKit          3D

 28 27  0  0  1  0  0  0  0  0999 V2000
   17.9456  -13.7382  -15.9665 N   0  0  0  0  0  0  0  0  0  0  0  0
   17.6745  -12.4914  -16.6583 C   0  0  1  0  0  0  0  0  0  0  0  0
   16.4103  -11.9376  -16.0336 C   0  0  0  0  0  0  0  0  0  0  0  0
   15.2165  -12.8101  -16.4230 C   0  0  0  0  0  0  0  0  0  0  0  0
   14.7830  -12.5082  -17.7986 C   0  0  0  0  0  0  0  0  0  0  0  0
   15.3655  -11.6414  -18.4879 O   0  0  0  0  0  0  0  0  0  0  0  0
   18.8377  -11.6024  -16.4278 C   0  0  0  0  0  0  0  0  0  0  0  0
   19.1686  -11.2544  -15.2687 O   0  0  0  0  0  0  0  0  0  0  0  0
   13.7107  -13.2000  -18.3321 O   0  0  0  0  0  0  0  0  0  0  0  0
   19.6449  -11.0921  -17.5019 N   0  0  0  0  0  0  0  0  0  0  0  0
   20.7431  -10.1996  -17.3048 C   0  0  1  0  0  0  0  0  0  0  0  0
   21.8084  -10.4235  -18.3720 C   0  0  0  0  0  0  0  0  0  0  0  0
   22.5065  -11.7342  -18.2016 C   0  0  0  0  0  0  0  0  0  0  0  0
   23.6470  -11.8581  -19.1813 C   0  0  0  0  0  0  0  0  0  0  0  0
   24.2956  -13.2015  -19.2093 C   0  0  0  0  0  0  0  0  0  0  0  0
   25.4367  -13.1121  -20.1278 N   0  0  0  0  0  0  0  0  0  0  0  0
   20.3312   -8.7718  -17.3295 C   0  0  0  0  0  0  0  0  0  0  0  0
   19.7859   -8.2714  -18.3720 O   0  0  0  0  0  0  0  0  0  0  0  0
   16.4337   -3.4804  -14.6304 N   0  0  0  0  0  0  0  0  0  0  0  0
   17.0467   -4.7651  -14.8363 C   0  0  0  0  0  0  0  0  0  0  0  0
   16.3850   -5.7591  -14.4555 O   0  0  0  0  0  0  0  0  0  0  0  0
   18.3827   -4.8876  -15.4612 C   0  0  0  0  0  0  0  0  0  0  0  0
   18.8150   -6.3094  -15.5880 C   0  0  0  0  0  0  0  0  0  0  0  0
   20.1514   -6.4922  -16.2389 C   0  0  2  0  0  0  0  0  0  0  0  0
   20.5218   -7.9141  -16.2155 N   0  0  0  0  0  0  0  0  0  0  0  0
   21.2315   -5.6744  -15.6471 C   0  0  0  0  0  0  0  0  0  0  0  0
   21.1539   -4.3981  -15.6143 O   0  0  0  0  0  0  0  0  0  0  0  0
   22.3704   -6.2133  -15.1003 O   0  0  0  0  0  0  0  0  0  0  0  0
  2  1  1  1
  2  3  1  0
  4  3  1  0
  5  4  1  0
  6  5  2  0
  7  2  1  0
  7 10  1  0
  8  7  2  0
  9  5  1  0
 11 10  1  0
 11 12  1  6
 13 12  1  0
 14 13  1  0
 15 14  1  0
 16 15  1  0
 17 11  1  0
 18 17  2  0
 20 19  1  0
 20 22  1  0
 21 20  2  0
 23 22  1  0
 24 23  1  1
 24 25  1  0
 25 17  1  0
 26 24  1  0
 27 26  2  0
 28 26  1  0
M  END
$$$$
