EKQ.pdb
     RDKit          3D

 28 27  0  0  1  0  0  0  0  0999 V2000
   18.6807  -11.1630  -17.0998 N   0  0  0  0  0  0  0  0  0  0  0  0
   18.2722  -10.3547  -15.9656 C   0  0  1  0  0  0  0  0  0  0  0  0
   17.5353  -11.2934  -15.0322 C   0  0  0  0  0  0  0  0  0  0  0  0
   16.3486  -11.9225  -15.7631 C   0  0  0  0  0  0  0  0  0  0  0  0
   15.6152  -12.8345  -14.8677 C   0  0  0  0  0  0  0  0  0  0  0  0
   14.5683  -12.4715  -14.2863 O   0  0  0  0  0  0  0  0  0  0  0  0
   19.5063   -9.8178  -15.3451 C   0  0  0  0  0  0  0  0  0  0  0  0
   19.4776   -9.2589  -14.2221 O   0  0  0  0  0  0  0  0  0  0  0  0
   16.0989  -14.1152  -14.6705 O   0  0  0  0  0  0  0  0  0  0  0  0
   20.7917   -9.9029  -15.9825 N   0  0  0  0  0  0  0  0  0  0  0  0
   21.9669   -9.2723  -15.4699 C   0  0  1  0  0  0  0  0  0  0  0  0
   23.2129   -9.8575  -16.1249 C   0  0  0  0  0  0  0  0  0  0  0  0
   23.4650  -11.2660  -15.6928 C   0  0  0  0  0  0  0  0  0  0  0  0
   24.6461  -11.8435  -16.4326 C   0  0  0  0  0  0  0  0  0  0  0  0
   24.9764  -13.2522  -16.0677 C   0  0  0  0  0  0  0  0  0  0  0  0
   26.1243  -13.6542  -16.8889 N   0  0  0  0  0  0  0  0  0  0  0  0
   21.9623   -7.8004  -15.6758 C   0  0  0  0  0  0  0  0  0  0  0  0
   21.7371   -7.3076  -16.8338 O   0  0  0  0  0  0  0  0  0  0  0  0
   18.0324   -4.4957  -15.9524 N   0  0  0  0  0  0  0  0  0  0  0  0
   18.9151   -3.4170  -15.5977 C   0  0  0  0  0  0  0  0  0  0  0  0
   18.4170   -2.2671  -15.6196 O   0  0  0  0  0  0  0  0  0  0  0  0
   20.3272   -3.6683  -15.2327 C   0  0  0  0  0  0  0  0  0  0  0  0
   20.6462   -5.1247  -15.1925 C   0  0  0  0  0  0  0  0  0  0  0  0
   22.0469   -5.4380  -14.7649 C   0  0  2  0  0  0  0  0  0  0  0  0
   22.2038   -6.8912  -14.6138 N   0  0  0  0  0  0  0  0  0  0  0  0
   22.4726   -4.7480  -13.5286 C   0  0  0  0  0  0  0  0  0  0  0  0
   22.5405   -5.3696  -12.4129 O   0  0  0  0  0  0  0  0  0  0  0  0
   22.8198   -3.4197  -13.4893 O   0  0  0  0  0  0  0  0  0  0  0  0
  2  1  1  6
  2  3  1  0
  4  3  1  0
  5  4  1  0
  6  5  2  0
  7  2  1  0
  7 10  1  0
  8  7  2  0
  9  5  1  0
 11 10  1  0
 11 12  1  6
 13 12  1  0
 14 13  1  0
 15 14  1  0
 16 15  1  0
 17 11  1  0
 18 17  2  0
 20 19  1  0
 20 22  1  0
 21 20  2  0
 23 22  1  0
 24 23  1  1
 24 25  1  0
 25 17  1  0
 26 24  1  0
 27 26  2  0
 28 26  1  0
M  END
$$$$
