ETC.pdb
     RDKit          3D

 23 22  0  0  1  0  0  0  0  0999 V2000
   12.6152  -11.1911  -10.2113 N   0  0  0  0  0  0  0  0  0  0  0  0
   13.8414  -10.6539  -10.7848 C   0  0  1  0  0  0  0  0  0  0  0  0
   13.8937  -11.0136  -12.2327 C   0  0  0  0  0  0  0  0  0  0  0  0
   14.1356  -12.5046  -12.3438 C   0  0  0  0  0  0  0  0  0  0  0  0
   15.5767  -12.8331  -12.4401 C   0  0  0  0  0  0  0  0  0  0  0  0
   16.3176  -12.8913  -11.4263 O   0  0  0  0  0  0  0  0  0  0  0  0
   13.8808   -9.1646  -10.6115 C   0  0  0  0  0  0  0  0  0  0  0  0
   12.8939   -8.4391  -10.8590 O   0  0  0  0  0  0  0  0  0  0  0  0
   16.1135  -13.0833  -13.7012 O   0  0  0  0  0  0  0  0  0  0  0  0
   14.4662   -7.2964   -7.5913 C   0  0  0  0  0  0  0  0  0  0  0  0
   15.5564   -6.8545   -8.5431 C   0  0  1  0  0  0  0  0  0  0  0  0
   16.7117   -7.6009   -8.2078 O   0  0  0  0  0  0  0  0  0  0  0  0
   15.1960   -7.1205   -9.9649 C   0  0  2  0  0  0  0  0  0  0  0  0
   15.0717   -8.5524  -10.1533 N   0  0  0  0  0  0  0  0  0  0  0  0
   16.0955   -6.5005  -10.9443 C   0  0  0  0  0  0  0  0  0  0  0  0
   16.9104   -7.2133  -11.5739 O   0  0  0  0  0  0  0  0  0  0  0  0
   16.0869   -5.1081  -11.2158 N   0  0  0  0  0  0  0  0  0  0  0  0
   16.9839   -4.5238  -12.1934 C   0  0  1  0  0  0  0  0  0  0  0  0
   16.7063   -5.1571  -13.5303 C   0  0  0  0  0  0  0  0  0  0  0  0
   17.6030   -4.3717  -14.8726 S   0  0  0  0  0  0  0  0  0  0  0  0
   16.6452   -3.0594  -12.2835 C   0  0  0  0  0  0  0  0  0  0  0  0
   17.5980   -2.1011  -12.6024 O   0  0  0  0  0  0  0  0  0  0  0  0
   15.4736   -2.6479  -12.0707 O   0  0  0  0  0  0  0  0  0  0  0  0
  2  1  1  6
  2  3  1  0
  4  3  1  0
  5  4  1  0
  6  5  2  0
  7  2  1  0
  7  8  2  0
  9  5  1  0
 11 10  1  1
 11 12  1  0
 11 13  1  0
 13 14  1  1
 14  7  1  0
 15 13  1  0
 16 15  2  0
 17 15  1  0
 18 17  1  0
 18 21  1  0
 19 20  1  0
 18 19  1  6
 21 22  1  0
 23 21  2  0
M  END
$$$$
