ETC.pdb
     RDKit          3D

 23 22  0  0  1  0  0  0  0  0999 V2000
   28.0775  -24.1749  -17.8141 N   0  0  0  0  0  0  0  0  0  0  0  0
   26.9371  -23.4935  -17.2173 C   0  0  1  0  0  0  0  0  0  0  0  0
   26.0554  -24.5084  -16.5683 C   0  0  0  0  0  0  0  0  0  0  0  0
   25.0068  -24.9392  -17.5726 C   0  0  0  0  0  0  0  0  0  0  0  0
   24.0978  -25.9729  -17.0256 C   0  0  0  0  0  0  0  0  0  0  0  0
   23.1759  -26.4821  -17.7117 O   0  0  0  0  0  0  0  0  0  0  0  0
   27.4087  -22.4865  -16.2109 C   0  0  0  0  0  0  0  0  0  0  0  0
   28.3176  -21.6671  -16.4642 O   0  0  0  0  0  0  0  0  0  0  0  0
   24.2834  -26.3837  -15.7073 O   0  0  0  0  0  0  0  0  0  0  0  0
   27.7068  -19.9307  -15.8492 C   0  0  0  0  0  0  0  0  0  0  0  0
   26.8832  -20.0924  -14.5901 C   0  0  1  0  0  0  0  0  0  0  0  0
   25.5268  -19.9719  -14.9770 O   0  0  0  0  0  0  0  0  0  0  0  0
   27.0953  -21.4234  -13.9531 C   0  0  2  0  0  0  0  0  0  0  0  0
   26.8103  -22.4569  -14.9287 N   0  0  0  0  0  0  0  0  0  0  0  0
   26.3618  -21.6179  -12.6973 C   0  0  0  0  0  0  0  0  0  0  0  0
   25.3523  -22.3589  -12.6789 O   0  0  0  0  0  0  0  0  0  0  0  0
   26.7475  -20.9950  -11.4825 N   0  0  0  0  0  0  0  0  0  0  0  0
   25.9726  -21.1625  -10.2687 C   0  0  1  0  0  0  0  0  0  0  0  0
   26.6599  -20.4123   -9.1596 C   0  0  0  0  0  0  0  0  0  0  0  0
   25.7062  -20.3897   -7.6389 S   0  0  0  0  0  0  0  0  0  0  0  0
   24.6300  -20.5251  -10.5107 C   0  0  0  0  0  0  0  0  0  0  0  0
   23.4557  -21.0661  -10.0046 O   0  0  0  0  0  0  0  0  0  0  0  0
   24.5238  -19.4679  -11.1875 O   0  0  0  0  0  0  0  0  0  0  0  0
  2  1  1  1
  2  3  1  0
  4  3  1  0
  5  4  1  0
  6  5  2  0
  7  2  1  0
  7  8  2  0
  9  5  1  0
 11 10  1  6
 11 12  1  0
 11 13  1  0
 13 14  1  6
 14  7  1  0
 15 13  1  0
 16 15  2  0
 17 15  1  0
 18 17  1  0
 18 21  1  0
 19 20  1  0
 18 19  1  1
 21 22  1  0
 23 21  2  0
M  END
$$$$
