ETC.pdb
     RDKit          3D

 23 22  0  0  1  0  0  0  0  0999 V2000
   15.1380  -10.3367  -17.3096 N   0  0  0  0  0  0  0  0  0  0  0  0
   15.5154   -9.3606  -16.2968 C   0  0  1  0  0  0  0  0  0  0  0  0
   15.5581  -10.0382  -14.9673 C   0  0  0  0  0  0  0  0  0  0  0  0
   14.1935  -10.6359  -14.6942 C   0  0  0  0  0  0  0  0  0  0  0  0
   14.2628  -12.0901  -14.4214 C   0  0  0  0  0  0  0  0  0  0  0  0
   15.1441  -12.5886  -13.6764 O   0  0  0  0  0  0  0  0  0  0  0  0
   16.8526   -8.7673  -16.6275 C   0  0  0  0  0  0  0  0  0  0  0  0
   17.6993   -9.3760  -17.3162 O   0  0  0  0  0  0  0  0  0  0  0  0
   13.3139  -12.9189  -15.0163 O   0  0  0  0  0  0  0  0  0  0  0  0
   17.4873   -6.0708  -18.6732 C   0  0  0  0  0  0  0  0  0  0  0  0
   18.1022   -5.6377  -17.3602 C   0  0  1  0  0  0  0  0  0  0  0  0
   17.1470   -4.8116  -16.7204 O   0  0  0  0  0  0  0  0  0  0  0  0
   18.4131   -6.8002  -16.4804 C   0  0  2  0  0  0  0  0  0  0  0  0
   17.1746   -7.4757  -16.1470 N   0  0  0  0  0  0  0  0  0  0  0  0
   19.2087   -6.4664  -15.2937 C   0  0  0  0  0  0  0  0  0  0  0  0
   18.6339   -6.0603  -14.2577 O   0  0  0  0  0  0  0  0  0  0  0  0
   20.6223   -6.5826  -15.2637 N   0  0  0  0  0  0  0  0  0  0  0  0
   21.3792   -6.2838  -14.0639 C   0  0  1  0  0  0  0  0  0  0  0  0
   22.6865   -7.0266  -14.1302 C   0  0  0  0  0  0  0  0  0  0  0  0
   22.4879   -8.8024  -13.9580 S   0  0  0  0  0  0  0  0  0  0  0  0
   21.6720   -4.8069  -14.0833 C   0  0  0  0  0  0  0  0  0  0  0  0
   22.0335   -4.1124  -12.9367 O   0  0  0  0  0  0  0  0  0  0  0  0
   21.5989   -4.1427  -15.1513 O   0  0  0  0  0  0  0  0  0  0  0  0
  2  1  1  6
  2  3  1  0
  4  3  1  0
  5  4  1  0
  6  5  2  0
  7  2  1  0
  7  8  2  0
  9  5  1  0
 11 10  1  6
 11 12  1  0
 11 13  1  0
 13 14  1  1
 14  7  1  0
 15 13  1  0
 16 15  2  0
 17 15  1  0
 18 17  1  0
 18 21  1  0
 19 20  1  0
 18 19  1  6
 21 22  1  0
 23 21  2  0
M  END
$$$$
