ETC.pdb
     RDKit          3D

 23 22  0  0  1  0  0  0  0  0999 V2000
   19.6136  -13.2596  -16.4632 N   0  0  0  0  0  0  0  0  0  0  0  0
   19.1342  -11.9232  -16.7876 C   0  0  1  0  0  0  0  0  0  0  0  0
   17.9304  -11.6283  -15.9555 C   0  0  0  0  0  0  0  0  0  0  0  0
   16.8167  -12.5614  -16.3830 C   0  0  0  0  0  0  0  0  0  0  0  0
   15.5751  -12.3462  -15.6046 C   0  0  0  0  0  0  0  0  0  0  0  0
   15.2609  -13.0785  -14.6325 O   0  0  0  0  0  0  0  0  0  0  0  0
   20.2124  -10.9133  -16.5286 C   0  0  0  0  0  0  0  0  0  0  0  0
   21.1462  -11.1269  -15.7261 O   0  0  0  0  0  0  0  0  0  0  0  0
   14.7392  -11.2943  -15.9735 O   0  0  0  0  0  0  0  0  0  0  0  0
   22.7252   -7.1991  -18.4166 C   0  0  0  0  0  0  0  0  0  0  0  0
   21.6112   -8.2224  -18.4562 C   0  0  1  0  0  0  0  0  0  0  0  0
   22.1011   -9.3237  -19.1985 O   0  0  0  0  0  0  0  0  0  0  0  0
   21.2286   -8.6822  -17.0908 C   0  0  2  0  0  0  0  0  0  0  0  0
   20.1782   -9.6740  -17.2112 N   0  0  0  0  0  0  0  0  0  0  0  0
   20.8773   -7.6009  -16.1634 C   0  0  0  0  0  0  0  0  0  0  0  0
   19.7824   -7.0068  -16.2921 O   0  0  0  0  0  0  0  0  0  0  0  0
   21.7340   -7.1884  -15.1105 N   0  0  0  0  0  0  0  0  0  0  0  0
   21.3278   -6.1710  -14.1610 C   0  0  1  0  0  0  0  0  0  0  0  0
   21.7454   -6.6130  -12.7842 C   0  0  0  0  0  0  0  0  0  0  0  0
   20.9159   -8.1139  -12.2532 S   0  0  0  0  0  0  0  0  0  0  0  0
   22.0863   -4.9169  -14.5064 C   0  0  0  0  0  0  0  0  0  0  0  0
   21.8062   -3.6973  -13.9049 O   0  0  0  0  0  0  0  0  0  0  0  0
   23.0112   -4.9303  -15.3616 O   0  0  0  0  0  0  0  0  0  0  0  0
  2  1  1  1
  2  3  1  0
  4  3  1  0
  5  4  1  0
  6  5  2  0
  7  2  1  0
  7  8  2  0
  9  5  1  0
 11 10  1  1
 11 12  1  0
 11 13  1  0
 13 14  1  6
 14  7  1  0
 15 13  1  0
 16 15  2  0
 17 15  1  0
 18 17  1  0
 18 21  1  0
 19 20  1  0
 18 19  1  1
 21 22  1  0
 23 21  2  0
M  END
$$$$
