ETC.pdb
     RDKit          3D

 23 22  0  0  1  0  0  0  0  0999 V2000
   22.4968  -13.9239  -17.7289 N   0  0  0  0  0  0  0  0  0  0  0  0
   21.7576  -12.7016  -18.0129 C   0  0  1  0  0  0  0  0  0  0  0  0
   20.3626  -12.8532  -17.5034 C   0  0  0  0  0  0  0  0  0  0  0  0
   20.0967  -14.3269  -17.2766 C   0  0  0  0  0  0  0  0  0  0  0  0
   18.7144  -14.5819  -16.8097 C   0  0  0  0  0  0  0  0  0  0  0  0
   18.2956  -15.7413  -16.5642 O   0  0  0  0  0  0  0  0  0  0  0  0
   22.4308  -11.5304  -17.3613 C   0  0  0  0  0  0  0  0  0  0  0  0
   23.1801  -11.6600  -16.3697 O   0  0  0  0  0  0  0  0  0  0  0  0
   17.8631  -13.4917  -16.6418 O   0  0  0  0  0  0  0  0  0  0  0  0
   24.2572   -7.0862  -17.8892 C   0  0  0  0  0  0  0  0  0  0  0  0
   23.6088   -8.3585  -18.3896 C   0  0  1  0  0  0  0  0  0  0  0  0
   24.6588   -9.2029  -18.8238 O   0  0  0  0  0  0  0  0  0  0  0  0
   22.8358   -9.0485  -17.3178 C   0  0  2  0  0  0  0  0  0  0  0  0
   22.2149  -10.2315  -17.8800 N   0  0  0  0  0  0  0  0  0  0  0  0
   21.8761   -8.1900  -16.6144 C   0  0  0  0  0  0  0  0  0  0  0  0
   20.7568   -7.9630  -17.1283 O   0  0  0  0  0  0  0  0  0  0  0  0
   22.1610   -7.5936  -15.3591 N   0  0  0  0  0  0  0  0  0  0  0  0
   21.1790   -6.7801  -14.6693 C   0  0  1  0  0  0  0  0  0  0  0  0
   20.6798   -7.5491  -13.4757 C   0  0  0  0  0  0  0  0  0  0  0  0
   19.7197   -6.5362  -12.3466 S   0  0  0  0  0  0  0  0  0  0  0  0
   21.8935   -5.5501  -14.1754 C   0  0  0  0  0  0  0  0  0  0  0  0
   21.2684   -4.3122  -14.1082 O   0  0  0  0  0  0  0  0  0  0  0  0
   23.0955   -5.6014  -13.8017 O   0  0  0  0  0  0  0  0  0  0  0  0
  2  1  1  1
  2  3  1  0
  4  3  1  0
  5  4  1  0
  6  5  2  0
  7  2  1  0
  7  8  2  0
  9  5  1  0
 11 10  1  1
 11 12  1  0
 11 13  1  0
 13 14  1  6
 14  7  1  0
 15 13  1  0
 16 15  2  0
 17 15  1  0
 18 17  1  0
 18 21  1  0
 19 20  1  0
 18 19  1  1
 21 22  1  0
 23 21  2  0
M  END
$$$$
