ETC.pdb
     RDKit          3D

 23 22  0  0  1  0  0  0  0  0999 V2000
   20.0656  -10.8574  -15.8355 N   0  0  0  0  0  0  0  0  0  0  0  0
   19.2020   -9.7285  -15.5180 C   0  0  1  0  0  0  0  0  0  0  0  0
   17.7972  -10.0798  -15.8811 C   0  0  0  0  0  0  0  0  0  0  0  0
   17.7515  -10.3848  -17.3639 C   0  0  0  0  0  0  0  0  0  0  0  0
   16.3742  -10.6519  -17.8391 C   0  0  0  0  0  0  0  0  0  0  0  0
   15.3913  -10.6801  -17.0561 O   0  0  0  0  0  0  0  0  0  0  0  0
   19.3010   -9.4000  -14.0579 C   0  0  0  0  0  0  0  0  0  0  0  0
   19.6673  -10.2412  -13.2095 O   0  0  0  0  0  0  0  0  0  0  0  0
   16.1780  -10.8768  -19.2000 O   0  0  0  0  0  0  0  0  0  0  0  0
   21.5184   -7.3636  -12.4562 C   0  0  0  0  0  0  0  0  0  0  0  0
   20.1943   -6.7324  -12.0847 C   0  0  1  0  0  0  0  0  0  0  0  0
   20.0024   -5.6457  -12.9715 O   0  0  0  0  0  0  0  0  0  0  0  0
   19.0609   -7.6898  -12.2294 C   0  0  2  0  0  0  0  0  0  0  0  0
   18.9697   -8.0964  -13.6178 N   0  0  0  0  0  0  0  0  0  0  0  0
   17.7825   -7.1995  -11.7019 C   0  0  0  0  0  0  0  0  0  0  0  0
   16.8783   -6.8518  -12.4957 O   0  0  0  0  0  0  0  0  0  0  0  0
   17.5178   -7.0977  -10.3119 N   0  0  0  0  0  0  0  0  0  0  0  0
   16.2981   -6.4892   -9.8181 C   0  0  1  0  0  0  0  0  0  0  0  0
   15.8794   -7.2134   -8.5668 C   0  0  0  0  0  0  0  0  0  0  0  0
   14.4737   -6.4463   -7.7556 S   0  0  0  0  0  0  0  0  0  0  0  0
   16.6310   -5.0667   -9.4532 C   0  0  0  0  0  0  0  0  0  0  0  0
   15.7170   -4.0332   -9.6084 O   0  0  0  0  0  0  0  0  0  0  0  0
   17.7618   -4.7612   -8.9895 O   0  0  0  0  0  0  0  0  0  0  0  0
  2  1  1  1
  2  3  1  0
  4  3  1  0
  5  4  1  0
  6  5  2  0
  7  2  1  0
  7  8  2  0
  9  5  1  0
 11 10  1  6
 11 12  1  0
 11 13  1  0
 13 14  1  6
 14  7  1  0
 15 13  1  0
 16 15  2  0
 17 15  1  0
 18 17  1  0
 18 21  1  0
 19 20  1  0
 18 19  1  1
 21 22  1  0
 23 21  2  0
M  END
$$$$
