ETC.pdb
     RDKit          3D

 23 22  0  0  1  0  0  0  0  0999 V2000
   18.1310  -12.2755  -17.4726 N   0  0  0  0  0  0  0  0  0  0  0  0
   17.6857  -10.9048  -17.2630 C   0  0  1  0  0  0  0  0  0  0  0  0
   16.7688  -10.8711  -16.0855 C   0  0  0  0  0  0  0  0  0  0  0  0
   15.5617  -11.7307  -16.3981 C   0  0  0  0  0  0  0  0  0  0  0  0
   15.4503  -12.8934  -15.4872 C   0  0  0  0  0  0  0  0  0  0  0  0
   14.5020  -13.7147  -15.5655 O   0  0  0  0  0  0  0  0  0  0  0  0
   18.8672  -10.0095  -17.0349 C   0  0  0  0  0  0  0  0  0  0  0  0
   19.9778  -10.4522  -16.6711 O   0  0  0  0  0  0  0  0  0  0  0  0
   16.4358  -13.0690  -14.5181 O   0  0  0  0  0  0  0  0  0  0  0  0
   20.8464   -5.6590  -18.1488 C   0  0  0  0  0  0  0  0  0  0  0  0
   19.7515   -6.7001  -18.2327 C   0  0  1  0  0  0  0  0  0  0  0  0
   19.9237   -7.3680  -19.4690 O   0  0  0  0  0  0  0  0  0  0  0  0
   19.8394   -7.6915  -17.1230 C   0  0  2  0  0  0  0  0  0  0  0  0
   18.7281   -8.6155  -17.2355 N   0  0  0  0  0  0  0  0  0  0  0  0
   19.9430   -7.0967  -15.7858 C   0  0  0  0  0  0  0  0  0  0  0  0
   18.9541   -6.5074  -15.2925 O   0  0  0  0  0  0  0  0  0  0  0  0
   21.1306   -7.1573  -15.0121 N   0  0  0  0  0  0  0  0  0  0  0  0
   21.2301   -6.4919  -13.7280 C   0  0  1  0  0  0  0  0  0  0  0  0
   21.7995   -7.4658  -12.7317 C   0  0  0  0  0  0  0  0  0  0  0  0
   20.6221   -7.9268  -11.4573 S   0  0  0  0  0  0  0  0  0  0  0  0
   22.2066   -5.3577  -13.8930 C   0  0  0  0  0  0  0  0  0  0  0  0
   22.2077   -4.2573  -13.0463 O   0  0  0  0  0  0  0  0  0  0  0  0
   23.0659   -5.3674  -14.8143 O   0  0  0  0  0  0  0  0  0  0  0  0
  2  1  1  1
  2  3  1  0
  4  3  1  0
  5  4  1  0
  6  5  2  0
  7  2  1  0
  7  8  2  0
  9  5  1  0
 11 10  1  1
 11 12  1  0
 11 13  1  0
 13 14  1  1
 14  7  1  0
 15 13  1  0
 16 15  2  0
 17 15  1  0
 18 17  1  0
 18 21  1  0
 19 20  1  0
 18 19  1  1
 21 22  1  0
 23 21  2  0
M  END
$$$$
