IIQ.pdb
     RDKit          3D

 26 25  0  0  1  0  0  0  0  0999 V2000
   14.1555  -13.4607    6.9436 C   0  0  0  0  0  0  0  0  0  0  0  0
   15.1456  -12.6863    6.1121 C   0  0  0  0  0  0  0  0  0  0  0  0
   16.5748  -12.9791    6.5215 C   0  0  2  0  0  0  0  0  0  0  0  0
   16.7501  -12.6799    7.9766 C   0  0  0  0  0  0  0  0  0  0  0  0
   17.5442  -12.1214    5.7060 C   0  0  2  0  0  0  0  0  0  0  0  0
   17.4284  -12.5357    4.3415 N   0  0  0  0  0  0  0  0  0  0  0  0
   18.9103  -12.3591    6.2602 C   0  0  0  0  0  0  0  0  0  0  0  0
   19.5016  -13.4182    6.0170 O   0  0  0  0  0  0  0  0  0  0  0  0
   23.7642   -9.0065    8.1700 C   0  0  0  0  0  0  0  0  0  0  0  0
   23.0081  -10.3527    8.2715 C   0  0  0  0  0  0  0  0  0  0  0  0
   21.6310  -10.1904    7.6326 C   0  0  2  0  0  0  0  0  0  0  0  0
   20.9098   -9.2038    8.5520 C   0  0  0  0  0  0  0  0  0  0  0  0
   20.8328  -11.4556    7.6368 C   0  0  2  0  0  0  0  0  0  0  0  0
   19.5338  -11.3954    7.0548 N   0  0  0  0  0  0  0  0  0  0  0  0
   20.7513  -12.0304    8.9792 C   0  0  0  0  0  0  0  0  0  0  0  0
   19.8636  -11.6601    9.7797 O   0  0  0  0  0  0  0  0  0  0  0  0
   18.7807  -15.7302    9.1916 N   0  0  0  0  0  0  0  0  0  0  0  0
   18.9112  -15.9937   10.5971 C   0  0  0  0  0  0  0  0  0  0  0  0
   17.9188  -16.4683   11.2347 O   0  0  0  0  0  0  0  0  0  0  0  0
   20.1764  -15.7278   11.2987 C   0  0  0  0  0  0  0  0  0  0  0  0
   21.2591  -15.1234   10.4889 C   0  0  0  0  0  0  0  0  0  0  0  0
   21.4591  -13.6676   10.7118 C   0  0  2  0  0  0  0  0  0  0  0  0
   21.6708  -13.0145    9.4020 N   0  0  0  0  0  0  0  0  0  0  0  0
   22.5672  -13.2396   11.5618 C   0  0  0  0  0  0  0  0  0  0  0  0
   22.5077  -13.3308   12.9681 O   0  0  0  0  0  0  0  0  0  0  0  0
   23.6190  -12.7604   11.0422 O   0  0  0  0  0  0  0  0  0  0  0  0
  2  1  1  0
  3  2  1  0
  3  5  1  0
  3  4  1  1
  5  7  1  0
  5  6  1  6
  7  8  2  0
  9 10  1  0
 10 11  1  0
 11 13  1  0
 11 12  1  1
 13 14  1  1
 14  7  1  0
 15 16  2  0
 15 13  1  0
 17 18  1  0
 18 20  1  0
 18 19  2  0
 20 21  1  0
 22 21  1  6
 22 23  1  0
 22 24  1  0
 23 15  1  0
 24 25  1  0
 26 24  2  0
M  END
$$$$
