IIQ.pdb
     RDKit          3D

 26 25  0  0  1  0  0  0  0  0999 V2000
   27.4210  -15.0287  -15.4960 C   0  0  0  0  0  0  0  0  0  0  0  0
   25.9340  -15.2001  -15.3203 C   0  0  0  0  0  0  0  0  0  0  0  0
   25.1604  -14.0367  -15.9068 C   0  0  2  0  0  0  0  0  0  0  0  0
   25.5370  -12.7758  -15.1956 C   0  0  0  0  0  0  0  0  0  0  0  0
   23.6564  -14.2740  -15.7584 C   0  0  2  0  0  0  0  0  0  0  0  0
   23.3721  -15.5520  -16.3354 N   0  0  0  0  0  0  0  0  0  0  0  0
   22.9657  -13.1593  -16.4728 C   0  0  0  0  0  0  0  0  0  0  0  0
   23.1371  -13.0021  -17.6879 O   0  0  0  0  0  0  0  0  0  0  0  0
   17.5444  -11.0947  -17.3525 C   0  0  0  0  0  0  0  0  0  0  0  0
   18.9760  -10.5611  -17.1077 C   0  0  0  0  0  0  0  0  0  0  0  0
   19.8457  -11.7079  -16.5985 C   0  0  2  0  0  0  0  0  0  0  0  0
   19.2253  -12.0727  -15.2491 C   0  0  0  0  0  0  0  0  0  0  0  0
   21.2589  -11.2953  -16.3327 C   0  0  2  0  0  0  0  0  0  0  0  0
   22.1228  -12.2859  -15.7831 N   0  0  0  0  0  0  0  0  0  0  0  0
   21.3160  -10.0791  -15.5224 C   0  0  0  0  0  0  0  0  0  0  0  0
   21.4932  -10.1436  -14.2853 O   0  0  0  0  0  0  0  0  0  0  0  0
   23.1716   -4.4819  -17.8488 N   0  0  0  0  0  0  0  0  0  0  0  0
   22.8929   -4.2174  -16.4652 C   0  0  0  0  0  0  0  0  0  0  0  0
   23.1130   -3.0553  -15.9985 O   0  0  0  0  0  0  0  0  0  0  0  0
   22.3521   -5.2700  -15.5916 C   0  0  0  0  0  0  0  0  0  0  0  0
   22.0371   -6.5625  -16.2424 C   0  0  0  0  0  0  0  0  0  0  0  0
   21.5215   -7.6091  -15.3216 C   0  0  2  0  0  0  0  0  0  0  0  0
   21.1728   -8.8065  -16.1163 N   0  0  0  0  0  0  0  0  0  0  0  0
   20.3456   -7.3044  -14.5105 C   0  0  0  0  0  0  0  0  0  0  0  0
   20.4544   -6.8073  -13.1950 O   0  0  0  0  0  0  0  0  0  0  0  0
   19.1834   -7.4936  -14.9792 O   0  0  0  0  0  0  0  0  0  0  0  0
  2  1  1  0
  3  2  1  0
  3  5  1  0
  3  4  1  1
  5  7  1  0
  5  6  1  6
  7  8  2  0
  9 10  1  0
 10 11  1  0
 11 13  1  0
 11 12  1  1
 13 14  1  1
 14  7  1  0
 15 16  2  0
 15 13  1  0
 17 18  1  0
 18 20  1  0
 18 19  2  0
 20 21  1  0
 22 21  1  6
 22 23  1  0
 22 24  1  0
 23 15  1  0
 24 25  1  0
 26 24  2  0
M  END
$$$$
