IIQ.pdb
     RDKit          3D

 26 25  0  0  1  0  0  0  0  0999 V2000
   20.7572  -12.7047  -22.8012 C   0  0  0  0  0  0  0  0  0  0  0  0
   21.9322  -13.2294  -22.0167 C   0  0  0  0  0  0  0  0  0  0  0  0
   22.0722  -12.5318  -20.6789 C   0  0  2  0  0  0  0  0  0  0  0  0
   22.2136  -11.0584  -20.8949 C   0  0  0  0  0  0  0  0  0  0  0  0
   23.3020  -13.0567  -19.9356 C   0  0  2  0  0  0  0  0  0  0  0  0
   23.1443  -14.4728  -19.8066 N   0  0  0  0  0  0  0  0  0  0  0  0
   23.3415  -12.3645  -18.6130 C   0  0  0  0  0  0  0  0  0  0  0  0
   22.4434  -12.5595  -17.7848 O   0  0  0  0  0  0  0  0  0  0  0  0
   28.0885  -11.7651  -15.9254 C   0  0  0  0  0  0  0  0  0  0  0  0
   26.6014  -11.9877  -16.2900 C   0  0  0  0  0  0  0  0  0  0  0  0
   25.9583  -10.6322  -16.5731 C   0  0  2  0  0  0  0  0  0  0  0  0
   25.8680   -9.9702  -15.1974 C   0  0  0  0  0  0  0  0  0  0  0  0
   24.5613  -10.7466  -17.0958 C   0  0  2  0  0  0  0  0  0  0  0  0
   24.3857  -11.4939  -18.2960 N   0  0  0  0  0  0  0  0  0  0  0  0
   23.9329   -9.4328  -17.2303 C   0  0  0  0  0  0  0  0  0  0  0  0
   24.1331   -8.7300  -18.2461 O   0  0  0  0  0  0  0  0  0  0  0  0
   21.1457   -6.4456  -20.2598 N   0  0  0  0  0  0  0  0  0  0  0  0
   20.8096   -5.9542  -18.9531 C   0  0  0  0  0  0  0  0  0  0  0  0
   20.8583   -4.7037  -18.7284 O   0  0  0  0  0  0  0  0  0  0  0  0
   20.4053   -6.8782  -17.8823 C   0  0  0  0  0  0  0  0  0  0  0  0
   21.3430   -7.9853  -17.5849 C   0  0  0  0  0  0  0  0  0  0  0  0
   22.3086   -7.7010  -16.4914 C   0  0  2  0  0  0  0  0  0  0  0  0
   23.0874   -8.9283  -16.2187 N   0  0  0  0  0  0  0  0  0  0  0  0
   21.7877   -7.2566  -15.2012 C   0  0  0  0  0  0  0  0  0  0  0  0
   21.4812   -5.9037  -14.9457 O   0  0  0  0  0  0  0  0  0  0  0  0
   21.6069   -8.0928  -14.2662 O   0  0  0  0  0  0  0  0  0  0  0  0
  2  1  1  0
  3  2  1  0
  3  5  1  0
  3  4  1  6
  5  7  1  0
  5  6  1  1
  7  8  2  0
  9 10  1  0
 10 11  1  0
 11 13  1  0
 11 12  1  1
 13 14  1  6
 14  7  1  0
 15 16  2  0
 15 13  1  0
 17 18  1  0
 18 20  1  0
 18 19  2  0
 20 21  1  0
 22 21  1  6
 22 23  1  0
 22 24  1  0
 23 15  1  0
 24 25  1  0
 26 24  2  0
M  END
$$$$
