IIQ.pdb
     RDKit          3D

 26 25  0  0  1  0  0  0  0  0999 V2000
   28.4263  -17.7757  -17.4674 C   0  0  0  0  0  0  0  0  0  0  0  0
   28.8312  -18.7049  -16.3520 C   0  0  0  0  0  0  0  0  0  0  0  0
   27.6304  -19.2167  -15.5824 C   0  0  2  0  0  0  0  0  0  0  0  0
   26.9075  -18.0652  -14.9587 C   0  0  0  0  0  0  0  0  0  0  0  0
   28.0788  -20.1877  -14.4886 C   0  0  2  0  0  0  0  0  0  0  0  0
   28.8336  -21.2222  -15.1265 N   0  0  0  0  0  0  0  0  0  0  0  0
   26.8423  -20.7065  -13.8313 C   0  0  0  0  0  0  0  0  0  0  0  0
   26.1125  -21.5070  -14.4288 O   0  0  0  0  0  0  0  0  0  0  0  0
   26.8172  -20.3310   -8.2317 C   0  0  0  0  0  0  0  0  0  0  0  0
   26.5750  -21.0763   -9.5658 C   0  0  0  0  0  0  0  0  0  0  0  0
   25.4210  -20.4002  -10.3022 C   0  0  2  0  0  0  0  0  0  0  0  0
   24.1696  -21.0157   -9.6746 C   0  0  0  0  0  0  0  0  0  0  0  0
   25.3862  -20.7301  -11.7609 C   0  0  2  0  0  0  0  0  0  0  0  0
   26.4962  -20.2975  -12.5421 N   0  0  0  0  0  0  0  0  0  0  0  0
   24.1378  -20.2844  -12.3789 C   0  0  0  0  0  0  0  0  0  0  0  0
   23.8967  -19.0651  -12.5240 O   0  0  0  0  0  0  0  0  0  0  0  0
   18.5227  -22.2773  -16.2396 N   0  0  0  0  0  0  0  0  0  0  0  0
   19.9480  -22.1078  -16.2828 C   0  0  0  0  0  0  0  0  0  0  0  0
   20.6497  -22.9210  -16.9632 O   0  0  0  0  0  0  0  0  0  0  0  0
   20.5973  -21.0050  -15.5578 C   0  0  0  0  0  0  0  0  0  0  0  0
   21.8354  -21.3463  -14.8202 C   0  0  0  0  0  0  0  0  0  0  0  0
   21.9499  -20.7161  -13.4791 C   0  0  2  0  0  0  0  0  0  0  0  0
   23.1777  -21.2181  -12.8251 N   0  0  0  0  0  0  0  0  0  0  0  0
   20.8676  -20.9199  -12.5197 C   0  0  0  0  0  0  0  0  0  0  0  0
   19.7365  -20.0780  -12.4802 O   0  0  0  0  0  0  0  0  0  0  0  0
   20.9300  -21.8693  -11.6826 O   0  0  0  0  0  0  0  0  0  0  0  0
  2  1  1  0
  3  2  1  0
  3  5  1  0
  3  4  1  1
  5  7  1  0
  5  6  1  6
  7  8  2  0
  9 10  1  0
 10 11  1  0
 11 13  1  0
 11 12  1  1
 13 14  1  6
 14  7  1  0
 15 16  2  0
 15 13  1  0
 17 18  1  0
 18 20  1  0
 18 19  2  0
 20 21  1  0
 22 21  1  6
 22 23  1  0
 22 24  1  0
 23 15  1  0
 24 25  1  0
 26 24  2  0
M  END
$$$$
