IIQ.pdb
     RDKit          3D

 26 25  0  0  1  0  0  0  0  0999 V2000
   28.0747  -17.5844  -17.1567 C   0  0  0  0  0  0  0  0  0  0  0  0
   28.6541  -18.0996  -15.8644 C   0  0  0  0  0  0  0  0  0  0  0  0
   27.6691  -18.9740  -15.1153 C   0  0  2  0  0  0  0  0  0  0  0  0
   26.4318  -18.1894  -14.8136 C   0  0  0  0  0  0  0  0  0  0  0  0
   28.2895  -19.4674  -13.8068 C   0  0  2  0  0  0  0  0  0  0  0  0
   29.5120  -20.1302  -14.1433 N   0  0  0  0  0  0  0  0  0  0  0  0
   27.2982  -20.3866  -13.1725 C   0  0  0  0  0  0  0  0  0  0  0  0
   27.0498  -21.4822  -13.6905 O   0  0  0  0  0  0  0  0  0  0  0  0
   26.4207  -19.6503   -7.6742 C   0  0  0  0  0  0  0  0  0  0  0  0
   26.6373  -20.5087   -8.9432 C   0  0  0  0  0  0  0  0  0  0  0  0
   25.4215  -20.3526   -9.8534 C   0  0  2  0  0  0  0  0  0  0  0  0
   24.3964  -21.3278   -9.2730 C   0  0  0  0  0  0  0  0  0  0  0  0
   25.6870  -20.7838  -11.2611 C   0  0  2  0  0  0  0  0  0  0  0  0
   26.6433  -20.0237  -11.9943 N   0  0  0  0  0  0  0  0  0  0  0  0
   24.4465  -20.8964  -12.0274 C   0  0  0  0  0  0  0  0  0  0  0  0
   23.8602  -19.8738  -12.4476 O   0  0  0  0  0  0  0  0  0  0  0  0
   22.9007  -26.0058  -15.4587 N   0  0  0  0  0  0  0  0  0  0  0  0
   21.8265  -25.0798  -15.6838 C   0  0  0  0  0  0  0  0  0  0  0  0
   20.9095  -25.3817  -16.5112 O   0  0  0  0  0  0  0  0  0  0  0  0
   21.7748  -23.7975  -14.9650 C   0  0  0  0  0  0  0  0  0  0  0  0
   22.8672  -23.5455  -13.9972 C   0  0  0  0  0  0  0  0  0  0  0  0
   22.7793  -22.2404  -13.2915 C   0  0  2  0  0  0  0  0  0  0  0  0
   23.8828  -22.1594  -12.3103 N   0  0  0  0  0  0  0  0  0  0  0  0
   21.5576  -21.9290  -12.5539 C   0  0  0  0  0  0  0  0  0  0  0  0
   20.4539  -21.3016  -13.1684 O   0  0  0  0  0  0  0  0  0  0  0  0
   21.4683  -22.2137  -11.3222 O   0  0  0  0  0  0  0  0  0  0  0  0
  2  1  1  0
  3  2  1  0
  3  5  1  0
  3  4  1  1
  5  7  1  0
  5  6  1  6
  7  8  2  0
  9 10  1  0
 10 11  1  0
 11 13  1  0
 11 12  1  1
 13 14  1  6
 14  7  1  0
 15 16  2  0
 15 13  1  0
 17 18  1  0
 18 20  1  0
 18 19  2  0
 20 21  1  0
 22 21  1  1
 22 23  1  0
 22 24  1  0
 23 15  1  0
 24 25  1  0
 26 24  2  0
M  END
$$$$
