IIQ.pdb
     RDKit          3D

 26 25  0  0  1  0  0  0  0  0999 V2000
   28.3695  -18.2610  -17.9110 C   0  0  0  0  0  0  0  0  0  0  0  0
   28.7479  -19.2388  -16.8283 C   0  0  0  0  0  0  0  0  0  0  0  0
   27.5405  -19.6925  -16.0330 C   0  0  2  0  0  0  0  0  0  0  0  0
   26.8305  -18.4994  -15.4764 C   0  0  0  0  0  0  0  0  0  0  0  0
   27.9765  -20.6054  -14.8855 C   0  0  2  0  0  0  0  0  0  0  0  0
   28.6405  -21.7298  -15.4701 N   0  0  0  0  0  0  0  0  0  0  0  0
   26.7406  -20.9954  -14.1437 C   0  0  0  0  0  0  0  0  0  0  0  0
   25.9125  -21.7475  -14.6719 O   0  0  0  0  0  0  0  0  0  0  0  0
   26.9362  -20.6079   -8.5048 C   0  0  0  0  0  0  0  0  0  0  0  0
   26.6524  -21.2430   -9.8869 C   0  0  0  0  0  0  0  0  0  0  0  0
   25.5314  -20.4594  -10.5652 C   0  0  2  0  0  0  0  0  0  0  0  0
   24.2622  -20.9464   -9.8645 C   0  0  0  0  0  0  0  0  0  0  0  0
   25.3836  -20.7899  -12.0167 C   0  0  2  0  0  0  0  0  0  0  0  0
   26.5051  -20.5191  -12.8527 N   0  0  0  0  0  0  0  0  0  0  0  0
   24.1811  -20.1797  -12.5829 C   0  0  0  0  0  0  0  0  0  0  0  0
   24.0269  -18.9380  -12.5670 O   0  0  0  0  0  0  0  0  0  0  0  0
   21.3343  -21.5687  -17.8387 N   0  0  0  0  0  0  0  0  0  0  0  0
   20.3588  -20.7507  -17.1745 C   0  0  0  0  0  0  0  0  0  0  0  0
   19.2848  -20.4469  -17.7835 O   0  0  0  0  0  0  0  0  0  0  0  0
   20.5867  -20.2710  -15.8028 C   0  0  0  0  0  0  0  0  0  0  0  0
   21.8349  -20.7272  -15.1491 C   0  0  0  0  0  0  0  0  0  0  0  0
   21.9787  -20.3085  -13.7303 C   0  0  2  0  0  0  0  0  0  0  0  0
   23.1684  -20.9763  -13.1596 N   0  0  0  0  0  0  0  0  0  0  0  0
   20.8790  -20.5828  -12.8090 C   0  0  0  0  0  0  0  0  0  0  0  0
   20.7396  -21.8288  -12.1627 O   0  0  0  0  0  0  0  0  0  0  0  0
   20.0077  -19.6926  -12.5758 O   0  0  0  0  0  0  0  0  0  0  0  0
  2  1  1  0
  3  2  1  0
  3  5  1  0
  3  4  1  1
  5  7  1  0
  5  6  1  6
  7  8  2  0
  9 10  1  0
 10 11  1  0
 11 13  1  0
 11 12  1  1
 13 14  1  6
 14  7  1  0
 15 16  2  0
 15 13  1  0
 17 18  1  0
 18 20  1  0
 18 19  2  0
 20 21  1  0
 22 21  1  6
 22 23  1  0
 22 24  1  0
 23 15  1  0
 24 25  1  0
 26 24  2  0
M  END
$$$$
