IIQ.pdb
     RDKit          3D

 26 25  0  0  1  0  0  0  0  0999 V2000
   27.4957  -20.0955  -18.5872 C   0  0  0  0  0  0  0  0  0  0  0  0
   28.0723  -20.1500  -17.1958 C   0  0  0  0  0  0  0  0  0  0  0  0
   27.0228  -20.5156  -16.1658 C   0  0  2  0  0  0  0  0  0  0  0  0
   26.2296  -19.2995  -15.8059 C   0  0  0  0  0  0  0  0  0  0  0  0
   27.6894  -21.0778  -14.9089 C   0  0  2  0  0  0  0  0  0  0  0  0
   28.4511  -22.2204  -15.3106 N   0  0  0  0  0  0  0  0  0  0  0  0
   26.5961  -21.4282  -13.9540 C   0  0  0  0  0  0  0  0  0  0  0  0
   25.8308  -22.3669  -14.2062 O   0  0  0  0  0  0  0  0  0  0  0  0
   27.5399  -20.4220   -8.5877 C   0  0  0  0  0  0  0  0  0  0  0  0
   27.0461  -21.1790   -9.8436 C   0  0  0  0  0  0  0  0  0  0  0  0
   25.7967  -20.4815  -10.3761 C   0  0  2  0  0  0  0  0  0  0  0  0
   24.6781  -20.9706   -9.4552 C   0  0  0  0  0  0  0  0  0  0  0  0
   25.4376  -20.9072  -11.7646 C   0  0  2  0  0  0  0  0  0  0  0  0
   26.4247  -20.7056  -12.7719 N   0  0  0  0  0  0  0  0  0  0  0  0
   24.1657  -20.3233  -12.1892 C   0  0  0  0  0  0  0  0  0  0  0  0
   24.1141  -19.1502  -12.6216 O   0  0  0  0  0  0  0  0  0  0  0  0
   21.8106  -17.9937  -15.9512 N   0  0  0  0  0  0  0  0  0  0  0  0
   20.8154  -18.8811  -15.4180 C   0  0  0  0  0  0  0  0  0  0  0  0
   19.6911  -18.4087  -15.0579 O   0  0  0  0  0  0  0  0  0  0  0  0
   21.0812  -20.3223  -15.2928 C   0  0  0  0  0  0  0  0  0  0  0  0
   22.1674  -20.7090  -14.3634 C   0  0  0  0  0  0  0  0  0  0  0  0
   21.8089  -20.6237  -12.9235 C   0  0  2  0  0  0  0  0  0  0  0  0
   22.9688  -21.0688  -12.1213 N   0  0  0  0  0  0  0  0  0  0  0  0
   20.6648  -21.3950  -12.4444 C   0  0  0  0  0  0  0  0  0  0  0  0
   19.3892  -20.8156  -12.2814 O   0  0  0  0  0  0  0  0  0  0  0  0
   20.8017  -22.6205  -12.1516 O   0  0  0  0  0  0  0  0  0  0  0  0
  2  1  1  0
  3  2  1  0
  3  5  1  0
  3  4  1  1
  5  7  1  0
  5  6  1  6
  7  8  2  0
  9 10  1  0
 10 11  1  0
 11 13  1  0
 11 12  1  1
 13 14  1  6
 14  7  1  0
 15 16  2  0
 15 13  1  0
 17 18  1  0
 18 20  1  0
 18 19  2  0
 20 21  1  0
 22 21  1  6
 22 23  1  0
 22 24  1  0
 23 15  1  0
 24 25  1  0
 26 24  2  0
M  END
$$$$
