IIQ.pdb
     RDKit          3D

 26 25  0  0  1  0  0  0  0  0999 V2000
   19.5558  -22.0106  -15.6520 C   0  0  0  0  0  0  0  0  0  0  0  0
   20.0719  -22.0198  -14.2361 C   0  0  0  0  0  0  0  0  0  0  0  0
   21.4247  -21.3461  -14.1259 C   0  0  2  0  0  0  0  0  0  0  0  0
   22.4109  -22.0581  -14.9966 C   0  0  0  0  0  0  0  0  0  0  0  0
   21.9128  -21.3750  -12.6764 C   0  0  2  0  0  0  0  0  0  0  0  0
   20.9171  -20.7222  -11.8830 N   0  0  0  0  0  0  0  0  0  0  0  0
   23.2253  -20.6635  -12.6431 C   0  0  0  0  0  0  0  0  0  0  0  0
   23.2652  -19.4320  -12.7536 O   0  0  0  0  0  0  0  0  0  0  0  0
   26.5179  -20.9336   -8.6708 C   0  0  0  0  0  0  0  0  0  0  0  0
   25.8357  -20.4103   -9.9572 C   0  0  0  0  0  0  0  0  0  0  0  0
   26.5000  -21.0661  -11.1654 C   0  0  2  0  0  0  0  0  0  0  0  0
   27.8285  -20.3218  -11.3072 C   0  0  0  0  0  0  0  0  0  0  0  0
   25.7411  -20.8519  -12.4367 C   0  0  2  0  0  0  0  0  0  0  0  0
   24.4167  -21.3744  -12.4877 N   0  0  0  0  0  0  0  0  0  0  0  0
   26.5034  -21.3119  -13.5969 C   0  0  0  0  0  0  0  0  0  0  0  0
   26.7808  -22.5238  -13.7393 O   0  0  0  0  0  0  0  0  0  0  0  0
   27.2173  -24.2359  -16.2639 N   0  0  0  0  0  0  0  0  0  0  0  0
   26.8045  -23.7272  -17.5418 C   0  0  0  0  0  0  0  0  0  0  0  0
   27.0037  -24.4289  -18.5832 O   0  0  0  0  0  0  0  0  0  0  0  0
   26.1513  -22.4141  -17.6541 C   0  0  0  0  0  0  0  0  0  0  0  0
   25.9759  -21.6605  -16.3913 C   0  0  0  0  0  0  0  0  0  0  0  0
   27.1740  -20.8969  -15.9552 C   0  0  2  0  0  0  0  0  0  0  0  0
   26.9431  -20.4007  -14.5814 N   0  0  0  0  0  0  0  0  0  0  0  0
   27.5837  -19.7362  -16.7417 C   0  0  0  0  0  0  0  0  0  0  0  0
   28.6042  -19.8145  -17.7123 O   0  0  0  0  0  0  0  0  0  0  0  0
   27.0257  -18.6135  -16.5567 O   0  0  0  0  0  0  0  0  0  0  0  0
  2  1  1  0
  3  2  1  0
  3  5  1  0
  3  4  1  6
  5  7  1  0
  5  6  1  1
  7  8  2  0
  9 10  1  0
 10 11  1  0
 11 13  1  0
 11 12  1  6
 13 14  1  1
 14  7  1  0
 15 16  2  0
 15 13  1  0
 17 18  1  0
 18 20  1  0
 18 19  2  0
 20 21  1  0
 22 21  1  6
 22 23  1  0
 22 24  1  0
 23 15  1  0
 24 25  1  0
 26 24  2  0
M  END
$$$$
