IIQ.pdb
     RDKit          3D

 26 25  0  0  1  0  0  0  0  0999 V2000
   19.2636  -16.4522  -19.1384 C   0  0  0  0  0  0  0  0  0  0  0  0
   20.6602  -16.7249  -18.6418 C   0  0  0  0  0  0  0  0  0  0  0  0
   21.1595  -15.6208  -17.7320 C   0  0  2  0  0  0  0  0  0  0  0  0
   21.1222  -14.3156  -18.4618 C   0  0  0  0  0  0  0  0  0  0  0  0
   22.5932  -15.9123  -17.2852 C   0  0  2  0  0  0  0  0  0  0  0  0
   22.5805  -17.1845  -16.6306 N   0  0  0  0  0  0  0  0  0  0  0  0
   22.9996  -14.8043  -16.3703 C   0  0  0  0  0  0  0  0  0  0  0  0
   22.4024  -14.6341  -15.3002 O   0  0  0  0  0  0  0  0  0  0  0  0
   28.3000  -13.5035  -15.6443 C   0  0  0  0  0  0  0  0  0  0  0  0
   26.7926  -13.7544  -15.4020 C   0  0  0  0  0  0  0  0  0  0  0  0
   26.0015  -12.5869  -15.9869 C   0  0  2  0  0  0  0  0  0  0  0  0
   26.2749  -11.4331  -15.0210 C   0  0  0  0  0  0  0  0  0  0  0  0
   24.5240  -12.8215  -15.9807 C   0  0  2  0  0  0  0  0  0  0  0  0
   24.0519  -13.9515  -16.7085 N   0  0  0  0  0  0  0  0  0  0  0  0
   23.7920  -11.6234  -16.3904 C   0  0  0  0  0  0  0  0  0  0  0  0
   23.8023  -11.2454  -17.5832 O   0  0  0  0  0  0  0  0  0  0  0  0
   18.0012  -10.5245  -15.4527 N   0  0  0  0  0  0  0  0  0  0  0  0
   18.4505   -9.2113  -15.8210 C   0  0  0  0  0  0  0  0  0  0  0  0
   17.5926   -8.2926  -16.0127 O   0  0  0  0  0  0  0  0  0  0  0  0
   19.8846   -8.9205  -15.9700 C   0  0  0  0  0  0  0  0  0  0  0  0
   20.8099  -10.0521  -15.7317 C   0  0  0  0  0  0  0  0  0  0  0  0
   22.2465   -9.7295  -15.9343 C   0  0  2  0  0  0  0  0  0  0  0  0
   23.0583  -10.8672  -15.4510 N   0  0  0  0  0  0  0  0  0  0  0  0
   22.7906   -8.5391  -15.2860 C   0  0  0  0  0  0  0  0  0  0  0  0
   22.7162   -7.2636  -15.8835 O   0  0  0  0  0  0  0  0  0  0  0  0
   23.3588   -8.6333  -14.1571 O   0  0  0  0  0  0  0  0  0  0  0  0
  2  1  1  0
  3  2  1  0
  3  5  1  0
  3  4  1  6
  5  7  1  0
  5  6  1  1
  7  8  2  0
  9 10  1  0
 10 11  1  0
 11 13  1  0
 11 12  1  1
 13 14  1  6
 14  7  1  0
 15 16  2  0
 15 13  1  0
 17 18  1  0
 18 20  1  0
 18 19  2  0
 20 21  1  0
 22 21  1  1
 22 23  1  0
 22 24  1  0
 23 15  1  0
 24 25  1  0
 26 24  2  0
M  END
$$$$
