LTS.pdb
     RDKit          3D

 22 21  0  0  1  0  0  0  0  0999 V2000
   19.2965  -17.1067  -17.5308 C   0  0  0  0  0  0  0  0  0  0  0  0
   20.2433  -17.4221  -18.6990 C   0  0  2  0  0  0  0  0  0  0  0  0
   19.5306  -18.5087  -19.4900 C   0  0  0  0  0  0  0  0  0  0  0  0
   21.4715  -18.0123  -18.0976 C   0  0  0  0  0  0  0  0  0  0  0  0
   22.2681  -17.1078  -17.2197 C   0  0  2  0  0  0  0  0  0  0  0  0
   22.6931  -15.9315  -17.9109 N   0  0  0  0  0  0  0  0  0  0  0  0
   23.4161  -17.9013  -16.6872 C   0  0  0  0  0  0  0  0  0  0  0  0
   23.6159  -19.0518  -17.1741 O   0  0  0  0  0  0  0  0  0  0  0  0
   27.0192  -16.9953  -16.7747 C   0  0  0  0  0  0  0  0  0  0  0  0
   26.6558  -17.3181  -15.3281 C   0  0  1  0  0  0  0  0  0  0  0  0
   26.4025  -16.1260  -14.6506 O   0  0  0  0  0  0  0  0  0  0  0  0
   25.4634  -18.2504  -15.2677 C   0  0  2  0  0  0  0  0  0  0  0  0
   24.2977  -17.4690  -15.6817 N   0  0  0  0  0  0  0  0  0  0  0  0
   25.3075  -18.7120  -13.8539 C   0  0  0  0  0  0  0  0  0  0  0  0
   24.6741  -18.0109  -13.0254 O   0  0  0  0  0  0  0  0  0  0  0  0
   25.1714  -22.3510  -12.8558 O   0  0  0  0  0  0  0  0  0  0  0  0
   24.9305  -21.4768  -11.7885 C   0  0  0  0  0  0  0  0  0  0  0  0
   25.8870  -20.2938  -11.9780 C   0  0  2  0  0  0  0  0  0  0  0  0
   25.8508  -19.9361  -13.3764 N   0  0  0  0  0  0  0  0  0  0  0  0
   27.2411  -20.7330  -11.6121 C   0  0  0  0  0  0  0  0  0  0  0  0
   27.4724  -21.1051  -10.4491 O   0  0  0  0  0  0  0  0  0  0  0  0
   28.2462  -20.7339  -12.5450 O   0  0  0  0  0  0  0  0  0  0  0  0
  2  1  1  1
  2  4  1  0
  2  3  1  0
  4  5  1  0
  5  7  1  0
  5  6  1  6
  7  8  2  0
 10  9  1  6
 10 12  1  0
 11 10  1  0
 12 14  1  0
 12 13  1  1
 13  7  1  0
 14 19  1  0
 14 15  2  0
 16 17  1  0
 18 17  1  6
 18 20  1  0
 19 18  1  0
 20 21  2  0
 20 22  1  0
M  END
$$$$
