LTS.pdb
     RDKit          3D

 22 21  0  0  1  0  0  0  0  0999 V2000
   25.5936  -14.1763  -15.8215 C   0  0  0  0  0  0  0  0  0  0  0  0
   25.5320  -13.6201  -17.2524 C   0  0  2  0  0  0  0  0  0  0  0  0
   26.9801  -13.3253  -17.6138 C   0  0  0  0  0  0  0  0  0  0  0  0
   24.7992  -12.3261  -17.1697 C   0  0  0  0  0  0  0  0  0  0  0  0
   23.3522  -12.4163  -16.8210 C   0  0  2  0  0  0  0  0  0  0  0  0
   22.6779  -13.4108  -17.5946 N   0  0  0  0  0  0  0  0  0  0  0  0
   22.7638  -11.0559  -17.0054 C   0  0  0  0  0  0  0  0  0  0  0  0
   22.8781  -10.5114  -18.1417 O   0  0  0  0  0  0  0  0  0  0  0  0
   19.2089  -10.0768  -16.7182 C   0  0  0  0  0  0  0  0  0  0  0  0
   20.0134   -9.1635  -15.7976 C   0  0  1  0  0  0  0  0  0  0  0  0
   19.9552   -9.6684  -14.4992 O   0  0  0  0  0  0  0  0  0  0  0  0
   21.4449   -9.0411  -16.2776 C   0  0  2  0  0  0  0  0  0  0  0  0
   22.0890  -10.3275  -16.0108 N   0  0  0  0  0  0  0  0  0  0  0  0
   22.1054   -7.9535  -15.4921 C   0  0  0  0  0  0  0  0  0  0  0  0
   22.7679   -8.2304  -14.4607 O   0  0  0  0  0  0  0  0  0  0  0  0
   23.1689   -3.2326  -15.1973 O   0  0  0  0  0  0  0  0  0  0  0  0
   22.5092   -4.2349  -15.9198 C   0  0  0  0  0  0  0  0  0  0  0  0
   22.6772   -5.5274  -15.1127 C   0  0  2  0  0  0  0  0  0  0  0  0
   22.0257   -6.5810  -15.8545 N   0  0  0  0  0  0  0  0  0  0  0  0
   22.0122   -5.3493  -13.8141 C   0  0  0  0  0  0  0  0  0  0  0  0
   20.8087   -5.6363  -13.6963 O   0  0  0  0  0  0  0  0  0  0  0  0
   22.7114   -4.8696  -12.7363 O   0  0  0  0  0  0  0  0  0  0  0  0
  2  1  1  1
  2  4  1  0
  2  3  1  0
  4  5  1  0
  5  7  1  0
  5  6  1  6
  7  8  2  0
 10  9  1  6
 10 12  1  0
 11 10  1  0
 12 14  1  0
 12 13  1  1
 13  7  1  0
 14 19  1  0
 14 15  2  0
 16 17  1  0
 18 17  1  6
 18 20  1  0
 19 18  1  0
 20 21  2  0
 20 22  1  0
M  END
$$$$
