LTS.pdb
     RDKit          3D

 22 21  0  0  1  0  0  0  0  0999 V2000
   24.5454  -35.2777   -9.5803 C   0  0  0  0  0  0  0  0  0  0  0  0
   25.3878  -34.1329  -10.1637 C   0  0  2  0  0  0  0  0  0  0  0  0
   26.4138  -34.8227  -11.0503 C   0  0  0  0  0  0  0  0  0  0  0  0
   26.1057  -33.5117   -9.0160 C   0  0  0  0  0  0  0  0  0  0  0  0
   25.2497  -32.8374   -7.9982 C   0  0  2  0  0  0  0  0  0  0  0  0
   24.8733  -31.5203   -8.4054 N   0  0  0  0  0  0  0  0  0  0  0  0
   26.0037  -32.8410   -6.7089 C   0  0  0  0  0  0  0  0  0  0  0  0
   26.9301  -31.9916   -6.5635 O   0  0  0  0  0  0  0  0  0  0  0  0
   25.1101  -31.7657   -3.4186 C   0  0  0  0  0  0  0  0  0  0  0  0
   25.4703  -33.2450   -3.3141 C   0  0  1  0  0  0  0  0  0  0  0  0
   24.3056  -34.0019   -3.4356 O   0  0  0  0  0  0  0  0  0  0  0  0
   26.4883  -33.6270   -4.3688 C   0  0  2  0  0  0  0  0  0  0  0  0
   25.7649  -33.7185   -5.6374 N   0  0  0  0  0  0  0  0  0  0  0  0
   27.0625  -34.9571   -3.9981 C   0  0  0  0  0  0  0  0  0  0  0  0
   26.5784  -36.0120   -4.4796 O   0  0  0  0  0  0  0  0  0  0  0  0
   30.5007  -37.3683   -1.5856 O   0  0  0  0  0  0  0  0  0  0  0  0
   29.9226  -36.1180   -1.8390 C   0  0  0  0  0  0  0  0  0  0  0  0
   28.6746  -36.3860   -2.6881 C   0  0  2  0  0  0  0  0  0  0  0  0
   28.1588  -35.1033   -3.1045 N   0  0  0  0  0  0  0  0  0  0  0  0
   27.6833  -37.0710   -1.8463 C   0  0  0  0  0  0  0  0  0  0  0  0
   26.8893  -36.4009   -1.1643 O   0  0  0  0  0  0  0  0  0  0  0  0
   27.6311  -38.4408   -1.8106 O   0  0  0  0  0  0  0  0  0  0  0  0
  2  1  1  1
  2  4  1  0
  2  3  1  0
  4  5  1  0
  5  7  1  0
  5  6  1  6
  7  8  2  0
 10  9  1  6
 10 12  1  0
 11 10  1  0
 12 14  1  0
 12 13  1  6
 13  7  1  0
 14 19  1  0
 14 15  2  0
 16 17  1  0
 18 17  1  1
 18 20  1  0
 19 18  1  0
 20 21  2  0
 20 22  1  0
M  END
$$$$
