LTS.pdb
     RDKit          3D

 22 21  0  0  1  0  0  0  0  0999 V2000
   19.6866  -15.0771  -15.6145 C   0  0  0  0  0  0  0  0  0  0  0  0
   19.6180  -14.6671  -17.0936 C   0  0  2  0  0  0  0  0  0  0  0  0
   20.6700  -15.5251  -17.7804 C   0  0  0  0  0  0  0  0  0  0  0  0
   20.0606  -13.2464  -17.1574 C   0  0  0  0  0  0  0  0  0  0  0  0
   19.1545  -12.2508  -16.5162 C   0  0  2  0  0  0  0  0  0  0  0  0
   17.8000  -12.4093  -16.9432 N   0  0  0  0  0  0  0  0  0  0  0  0
   19.6939  -10.8929  -16.8261 C   0  0  0  0  0  0  0  0  0  0  0  0
   20.7643  -10.8210  -17.4967 O   0  0  0  0  0  0  0  0  0  0  0  0
   17.7219   -8.1866  -18.5885 C   0  0  0  0  0  0  0  0  0  0  0  0
   18.3405   -7.6002  -17.3226 C   0  0  1  0  0  0  0  0  0  0  0  0
   17.3809   -7.5991  -16.3111 O   0  0  0  0  0  0  0  0  0  0  0  0
   19.5719   -8.3817  -16.9133 C   0  0  2  0  0  0  0  0  0  0  0  0
   19.1034   -9.6808  -16.4296 N   0  0  0  0  0  0  0  0  0  0  0  0
   20.2534   -7.6302  -15.8147 C   0  0  0  0  0  0  0  0  0  0  0  0
   20.0282   -7.9225  -14.6134 O   0  0  0  0  0  0  0  0  0  0  0  0
   23.7693   -4.4955  -14.6835 O   0  0  0  0  0  0  0  0  0  0  0  0
   22.9762   -5.0357  -15.7037 C   0  0  0  0  0  0  0  0  0  0  0  0
   21.9584   -5.9533  -15.0163 C   0  0  2  0  0  0  0  0  0  0  0  0
   21.1703   -6.5708  -16.0566 N   0  0  0  0  0  0  0  0  0  0  0  0
   21.0942   -5.1252  -14.1632 C   0  0  0  0  0  0  0  0  0  0  0  0
   20.1201   -4.5372  -14.6632 O   0  0  0  0  0  0  0  0  0  0  0  0
   21.3573   -4.9991  -12.8232 O   0  0  0  0  0  0  0  0  0  0  0  0
  2  1  1  1
  2  4  1  0
  2  3  1  0
  4  5  1  0
  5  7  1  0
  5  6  1  6
  7  8  2  0
 10  9  1  6
 10 12  1  0
 11 10  1  0
 12 14  1  0
 12 13  1  1
 13  7  1  0
 14 19  1  0
 14 15  2  0
 16 17  1  0
 18 17  1  6
 18 20  1  0
 19 18  1  0
 20 21  2  0
 20 22  1  0
M  END
$$$$
