LTS.pdb
     RDKit          3D

 22 21  0  0  1  0  0  0  0  0999 V2000
   15.8870  -11.9974  -16.3861 C   0  0  0  0  0  0  0  0  0  0  0  0
   16.7948  -12.7399  -15.3935 C   0  0  2  0  0  0  0  0  0  0  0  0
   16.1002  -12.5880  -14.0485 C   0  0  0  0  0  0  0  0  0  0  0  0
   18.0753  -11.9806  -15.3455 C   0  0  0  0  0  0  0  0  0  0  0  0
   18.8535  -11.9319  -16.6165 C   0  0  2  0  0  0  0  0  0  0  0  0
   19.3189  -13.2253  -17.0072 N   0  0  0  0  0  0  0  0  0  0  0  0
   19.9709  -10.9609  -16.4179 C   0  0  0  0  0  0  0  0  0  0  0  0
   20.9849  -11.3510  -15.7695 O   0  0  0  0  0  0  0  0  0  0  0  0
   22.0477   -9.2941  -19.0092 C   0  0  0  0  0  0  0  0  0  0  0  0
   21.4621   -8.2072  -18.1122 C   0  0  1  0  0  0  0  0  0  0  0  0
   20.3253   -7.6815  -18.7250 O   0  0  0  0  0  0  0  0  0  0  0  0
   21.1425   -8.7578  -16.7377 C   0  0  2  0  0  0  0  0  0  0  0  0
   19.9859   -9.6397  -16.8969 N   0  0  0  0  0  0  0  0  0  0  0  0
   20.8029   -7.6071  -15.8452 C   0  0  0  0  0  0  0  0  0  0  0  0
   19.6246   -7.1738  -15.7917 O   0  0  0  0  0  0  0  0  0  0  0  0
   22.3828   -4.4455  -12.5223 O   0  0  0  0  0  0  0  0  0  0  0  0
   22.7322   -5.4610  -13.4214 C   0  0  0  0  0  0  0  0  0  0  0  0
   21.4389   -5.8619  -14.1402 C   0  0  2  0  0  0  0  0  0  0  0  0
   21.7650   -6.9533  -15.0275 N   0  0  0  0  0  0  0  0  0  0  0  0
   20.9699   -4.7089  -14.9219 C   0  0  0  0  0  0  0  0  0  0  0  0
   21.4576   -4.4884  -16.0435 O   0  0  0  0  0  0  0  0  0  0  0  0
   20.0002   -3.8788  -14.4206 O   0  0  0  0  0  0  0  0  0  0  0  0
  2  1  1  6
  2  4  1  0
  2  3  1  0
  4  5  1  0
  5  7  1  0
  5  6  1  1
  7  8  2  0
 10  9  1  6
 10 12  1  0
 11 10  1  0
 12 14  1  0
 12 13  1  6
 13  7  1  0
 14 19  1  0
 14 15  2  0
 16 17  1  0
 18 17  1  6
 18 20  1  0
 19 18  1  0
 20 21  2  0
 20 22  1  0
M  END
$$$$
