LTS.pdb
     RDKit          3D

 22 21  0  0  1  0  0  0  0  0999 V2000
   28.8715  -18.6374  -17.7095 C   0  0  0  0  0  0  0  0  0  0  0  0
   27.8228  -17.5150  -17.6772 C   0  0  2  0  0  0  0  0  0  0  0  0
   28.6353  -16.2288  -17.6714 C   0  0  0  0  0  0  0  0  0  0  0  0
   27.1230  -17.6306  -16.3675 C   0  0  0  0  0  0  0  0  0  0  0  0
   26.4355  -18.9279  -16.1069 C   0  0  2  0  0  0  0  0  0  0  0  0
   25.5646  -19.2951  -17.1787 N   0  0  0  0  0  0  0  0  0  0  0  0
   25.7132  -18.7959  -14.8062 C   0  0  0  0  0  0  0  0  0  0  0  0
   25.0357  -17.7455  -14.6102 O   0  0  0  0  0  0  0  0  0  0  0  0
   22.8198  -19.6176  -13.9959 C   0  0  0  0  0  0  0  0  0  0  0  0
   23.5862  -20.3464  -12.8956 C   0  0  1  0  0  0  0  0  0  0  0  0
   23.8120  -21.6618  -13.2993 O   0  0  0  0  0  0  0  0  0  0  0  0
   24.8865  -19.6348  -12.5833 C   0  0  2  0  0  0  0  0  0  0  0  0
   25.7262  -19.7515  -13.7759 N   0  0  0  0  0  0  0  0  0  0  0  0
   25.5270  -20.3283  -11.4236 C   0  0  0  0  0  0  0  0  0  0  0  0
   26.0741  -21.4489  -11.5797 O   0  0  0  0  0  0  0  0  0  0  0  0
   27.0130  -20.2836   -6.8638 O   0  0  0  0  0  0  0  0  0  0  0  0
   26.5416  -19.5269   -7.9440 C   0  0  0  0  0  0  0  0  0  0  0  0
   25.9578  -20.5281   -8.9475 C   0  0  2  0  0  0  0  0  0  0  0  0
   25.5546  -19.7775  -10.1132 N   0  0  0  0  0  0  0  0  0  0  0  0
   24.7826  -21.1629   -8.3341 C   0  0  0  0  0  0  0  0  0  0  0  0
   24.9391  -22.1019   -7.5352 O   0  0  0  0  0  0  0  0  0  0  0  0
   23.5192  -20.7251   -8.6385 O   0  0  0  0  0  0  0  0  0  0  0  0
  2  1  1  1
  2  4  1  0
  2  3  1  0
  4  5  1  0
  5  7  1  0
  5  6  1  6
  7  8  2  0
 10  9  1  6
 10 12  1  0
 11 10  1  0
 12 14  1  0
 12 13  1  6
 13  7  1  0
 14 19  1  0
 14 15  2  0
 16 17  1  0
 18 17  1  1
 18 20  1  0
 19 18  1  0
 20 21  2  0
 20 22  1  0
M  END
$$$$
