LTS.pdb
     RDKit          3D

 22 21  0  0  1  0  0  0  0  0999 V2000
   18.5231  -12.0378  -20.6477 C   0  0  0  0  0  0  0  0  0  0  0  0
   19.0868  -12.9527  -19.5496 C   0  0  2  0  0  0  0  0  0  0  0  0
   17.9718  -13.9488  -19.2683 C   0  0  0  0  0  0  0  0  0  0  0  0
   19.2657  -12.0996  -18.3419 C   0  0  0  0  0  0  0  0  0  0  0  0
   20.2415  -10.9796  -18.4725 C   0  0  2  0  0  0  0  0  0  0  0  0
   21.5154  -11.4329  -18.9351 N   0  0  0  0  0  0  0  0  0  0  0  0
   20.3259  -10.3049  -17.1426 C   0  0  0  0  0  0  0  0  0  0  0  0
   19.2727  -10.2407  -16.4445 O   0  0  0  0  0  0  0  0  0  0  0  0
   22.6045  -11.2087  -14.3247 C   0  0  0  0  0  0  0  0  0  0  0  0
   22.7605   -9.7119  -14.5785 C   0  0  1  0  0  0  0  0  0  0  0  0
   23.9052   -9.5023  -15.3465 O   0  0  0  0  0  0  0  0  0  0  0  0
   21.5295   -9.1502  -15.2594 C   0  0  2  0  0  0  0  0  0  0  0  0
   21.4894   -9.7317  -16.6015 N   0  0  0  0  0  0  0  0  0  0  0  0
   21.6811   -7.6646  -15.3383 C   0  0  0  0  0  0  0  0  0  0  0  0
   22.4705   -7.1522  -16.1712 O   0  0  0  0  0  0  0  0  0  0  0  0
   19.9113   -3.3358  -14.2604 O   0  0  0  0  0  0  0  0  0  0  0  0
   19.7648   -4.7239  -14.1450 C   0  0  0  0  0  0  0  0  0  0  0  0
   21.1064   -5.3339  -14.5675 C   0  0  2  0  0  0  0  0  0  0  0  0
   20.9622   -6.7690  -14.5001 N   0  0  0  0  0  0  0  0  0  0  0  0
   22.1339   -4.8922  -13.6138 C   0  0  0  0  0  0  0  0  0  0  0  0
   22.3360   -5.5518  -12.5800 O   0  0  0  0  0  0  0  0  0  0  0  0
   22.8675   -3.7599  -13.8591 O   0  0  0  0  0  0  0  0  0  0  0  0
  2  1  1  6
  2  4  1  0
  2  3  1  0
  4  5  1  0
  5  7  1  0
  5  6  1  1
  7  8  2  0
 10  9  1  6
 10 12  1  0
 11 10  1  0
 12 14  1  0
 12 13  1  6
 13  7  1  0
 14 19  1  0
 14 15  2  0
 16 17  1  0
 18 17  1  1
 18 20  1  0
 19 18  1  0
 20 21  2  0
 20 22  1  0
M  END
$$$$
