LTS.pdb
     RDKit          3D

 22 21  0  0  1  0  0  0  0  0999 V2000
   10.0801  -10.7606  -10.7201 C   0  0  0  0  0  0  0  0  0  0  0  0
   10.8221  -11.6085   -9.6757 C   0  0  2  0  0  0  0  0  0  0  0  0
   10.1717  -11.2428   -8.3499 C   0  0  0  0  0  0  0  0  0  0  0  0
   12.2281  -11.1171   -9.6567 C   0  0  0  0  0  0  0  0  0  0  0  0
   13.0129  -11.3351  -10.9057 C   0  0  2  0  0  0  0  0  0  0  0  0
   13.3313  -12.7142  -11.1020 N   0  0  0  0  0  0  0  0  0  0  0  0
   14.2316  -10.4757  -10.8218 C   0  0  0  0  0  0  0  0  0  0  0  0
   15.1143  -10.7833   -9.9693 O   0  0  0  0  0  0  0  0  0  0  0  0
   16.8334   -9.9295  -13.3286 C   0  0  0  0  0  0  0  0  0  0  0  0
   16.3087   -8.5520  -12.9336 C   0  0  1  0  0  0  0  0  0  0  0  0
   15.3630   -8.1437  -13.8734 O   0  0  0  0  0  0  0  0  0  0  0  0
   15.7218   -8.5794  -11.5374 C   0  0  2  0  0  0  0  0  0  0  0  0
   14.4777   -9.3451  -11.6196 N   0  0  0  0  0  0  0  0  0  0  0  0
   15.4411   -7.1697  -11.1251 C   0  0  0  0  0  0  0  0  0  0  0  0
   14.3847   -6.5998  -11.4971 O   0  0  0  0  0  0  0  0  0  0  0  0
   17.9105   -5.5071   -8.5553 O   0  0  0  0  0  0  0  0  0  0  0  0
   16.7045   -4.7956   -8.5828 C   0  0  0  0  0  0  0  0  0  0  0  0
   16.1012   -5.0263   -9.9732 C   0  0  2  0  0  0  0  0  0  0  0  0
   16.3270   -6.4117  -10.3113 N   0  0  0  0  0  0  0  0  0  0  0  0
   16.8045   -4.1600  -10.9299 C   0  0  0  0  0  0  0  0  0  0  0  0
   17.5877   -4.6636  -11.7531 O   0  0  0  0  0  0  0  0  0  0  0  0
   16.6008   -2.8040  -10.9181 O   0  0  0  0  0  0  0  0  0  0  0  0
  2  1  1  6
  2  4  1  0
  2  3  1  0
  4  5  1  0
  5  7  1  0
  5  6  1  1
  7  8  2  0
 10  9  1  6
 10 12  1  0
 11 10  1  0
 12 14  1  0
 12 13  1  6
 13  7  1  0
 14 19  1  0
 14 15  2  0
 16 17  1  0
 18 17  1  1
 18 20  1  0
 19 18  1  0
 20 21  2  0
 20 22  1  0
M  END
$$$$
