LTS.pdb
     RDKit          3D

 22 21  0  0  1  0  0  0  0  0999 V2000
   21.8059  -21.5756  -17.1525 C   0  0  0  0  0  0  0  0  0  0  0  0
   21.4353  -21.6100  -15.6618 C   0  0  2  0  0  0  0  0  0  0  0  0
   19.9167  -21.6996  -15.6443 C   0  0  0  0  0  0  0  0  0  0  0  0
   21.8311  -20.2889  -15.0992 C   0  0  0  0  0  0  0  0  0  0  0  0
   23.2719  -19.9282  -15.2314 C   0  0  2  0  0  0  0  0  0  0  0  0
   24.1074  -20.7652  -14.4292 N   0  0  0  0  0  0  0  0  0  0  0  0
   23.4040  -18.4836  -14.8757 C   0  0  0  0  0  0  0  0  0  0  0  0
   23.2381  -18.1553  -13.6651 O   0  0  0  0  0  0  0  0  0  0  0  0
   26.2904  -16.4128  -14.6932 C   0  0  0  0  0  0  0  0  0  0  0  0
   25.3458  -15.7249  -15.6748 C   0  0  1  0  0  0  0  0  0  0  0  0
   25.6886  -16.1055  -16.9716 O   0  0  0  0  0  0  0  0  0  0  0  0
   23.9033  -16.0667  -15.3633 C   0  0  2  0  0  0  0  0  0  0  0  0
   23.6996  -17.4531  -15.7844 N   0  0  0  0  0  0  0  0  0  0  0  0
   23.0284  -15.1469  -16.1535 C   0  0  0  0  0  0  0  0  0  0  0  0
   22.5871  -15.5015  -17.2755 O   0  0  0  0  0  0  0  0  0  0  0  0
   22.1853  -11.5136  -14.6440 O   0  0  0  0  0  0  0  0  0  0  0  0
   21.1271  -12.0306  -15.4020 C   0  0  0  0  0  0  0  0  0  0  0  0
   21.7564  -12.9866  -16.4220 C   0  0  2  0  0  0  0  0  0  0  0  0
   22.6543  -13.8536  -15.6961 N   0  0  0  0  0  0  0  0  0  0  0  0
   22.5150  -12.1878  -17.3950 C   0  0  0  0  0  0  0  0  0  0  0  0
   23.7567  -12.2399  -17.3970 O   0  0  0  0  0  0  0  0  0  0  0  0
   21.8608  -11.3884  -18.2970 O   0  0  0  0  0  0  0  0  0  0  0  0
  2  1  1  6
  2  4  1  0
  2  3  1  0
  4  5  1  0
  5  7  1  0
  5  6  1  1
  7  8  2  0
 10  9  1  1
 10 12  1  0
 11 10  1  0
 12 14  1  0
 12 13  1  6
 13  7  1  0
 14 19  1  0
 14 15  2  0
 16 17  1  0
 18 17  1  1
 18 20  1  0
 19 18  1  0
 20 21  2  0
 20 22  1  0
M  END
$$$$
