DTI.pdb
     RDKit          3D

 24 23  0  0  1  0  0  0  0  0999 V2000
   11.0848  -15.2561   17.9425 N   0  0  0  0  0  0  0  0  0  0  0  0
   11.4146  -15.3446   19.3674 C   0  0  1  0  0  0  0  0  0  0  0  0
   12.5418  -14.4314   19.7118 C   0  0  0  0  0  0  0  0  0  0  0  0
   13.8553  -14.8051   19.1560 C   0  0  0  0  0  0  0  0  0  0  0  0
   14.4648  -13.9701   18.3938 O   0  0  0  0  0  0  0  0  0  0  0  0
   10.2032  -15.0610   20.1788 C   0  0  0  0  0  0  0  0  0  0  0  0
    9.5336  -14.0458   19.9275 O   0  0  0  0  0  0  0  0  0  0  0  0
   14.4904  -16.0114   19.3960 O   0  0  0  0  0  0  0  0  0  0  0  0
    7.0802  -16.8967   20.6497 C   0  0  0  0  0  0  0  0  0  0  0  0
    7.5842  -16.7306   22.0683 C   0  0  1  0  0  0  0  0  0  0  0  0
    8.2747  -17.9066   22.3798 O   0  0  0  0  0  0  0  0  0  0  0  0
    8.6041  -15.6267   22.0511 C   0  0  2  0  0  0  0  0  0  0  0  0
    9.7543  -15.8851   21.2376 N   0  0  0  0  0  0  0  0  0  0  0  0
    8.9936  -15.3384   23.4617 C   0  0  0  0  0  0  0  0  0  0  0  0
   10.1409  -15.6598   23.8251 O   0  0  0  0  0  0  0  0  0  0  0  0
    6.0855  -11.3619   26.0211 C   0  0  0  0  0  0  0  0  0  0  0  0
    7.2291  -12.1791   25.5341 C   0  0  0  0  0  0  0  0  0  0  0  0
    7.6034  -13.3731   26.3386 C   0  0  2  0  0  0  0  0  0  0  0  0
    8.0941  -12.8930   27.7064 C   0  0  0  0  0  0  0  0  0  0  0  0
    8.4805  -14.4067   25.7735 C   0  0  2  0  0  0  0  0  0  0  0  0
    8.1233  -14.7234   24.3880 N   0  0  0  0  0  0  0  0  0  0  0  0
    8.6952  -15.6489   26.5253 C   0  0  0  0  0  0  0  0  0  0  0  0
    9.5851  -15.8776   27.3728 O   0  0  0  0  0  0  0  0  0  0  0  0
    7.8305  -16.7554   26.3139 O   0  0  0  0  0  0  0  0  0  0  0  0
  2  1  1  6
  2  6  1  0
  3  2  1  0
  3  4  1  0
  4  5  2  0
  4  8  1  0
  6  7  2  0
 10  9  1  6
 10 12  1  0
 11 10  1  0
 12 14  1  0
 12 13  1  6
 13  6  1  0
 14 21  1  0
 15 14  2  0
 16 17  1  0
 18 19  1  1
 18 17  1  0
 20 21  1  6
 20 18  1  0
 22 20  1  0
 23 22  2  0
 24 22  1  0
M  END
$$$$
