DTI.pdb
     RDKit          3D

 24 23  0  0  1  0  0  0  0  0999 V2000
   11.7209  -16.4351   19.3074 N   0  0  0  0  0  0  0  0  0  0  0  0
   12.3026  -15.2522   19.9472 C   0  0  1  0  0  0  0  0  0  0  0  0
   12.9821  -14.3831   18.9441 C   0  0  0  0  0  0  0  0  0  0  0  0
   14.1937  -14.9526   18.3266 C   0  0  0  0  0  0  0  0  0  0  0  0
   14.8252  -15.8834   18.9467 O   0  0  0  0  0  0  0  0  0  0  0  0
   11.2482  -14.5186   20.6931 C   0  0  0  0  0  0  0  0  0  0  0  0
   11.5587  -13.4972   21.3275 O   0  0  0  0  0  0  0  0  0  0  0  0
   14.7124  -14.5497   17.1080 O   0  0  0  0  0  0  0  0  0  0  0  0
    7.5346  -13.8414   19.3922 C   0  0  0  0  0  0  0  0  0  0  0  0
    7.4768  -14.3803   20.8065 C   0  0  1  0  0  0  0  0  0  0  0  0
    7.2647  -15.7584   20.6932 O   0  0  0  0  0  0  0  0  0  0  0  0
    8.8445  -14.2052   21.4048 C   0  0  2  0  0  0  0  0  0  0  0  0
    9.8901  -14.9137   20.7296 N   0  0  0  0  0  0  0  0  0  0  0  0
    8.7703  -14.5931   22.8431 C   0  0  0  0  0  0  0  0  0  0  0  0
    9.5090  -15.5164   23.2349 O   0  0  0  0  0  0  0  0  0  0  0  0
    6.4565  -10.9560   26.4984 C   0  0  0  0  0  0  0  0  0  0  0  0
    7.3888  -11.9355   25.8784 C   0  0  0  0  0  0  0  0  0  0  0  0
    7.0076  -13.3719   25.9425 C   0  0  2  0  0  0  0  0  0  0  0  0
    6.8891  -13.7696   27.4156 C   0  0  0  0  0  0  0  0  0  0  0  0
    7.7455  -14.3736   25.1621 C   0  0  2  0  0  0  0  0  0  0  0  0
    7.9065  -13.9622   23.7648 N   0  0  0  0  0  0  0  0  0  0  0  0
    7.3194  -15.7771   25.2185 C   0  0  0  0  0  0  0  0  0  0  0  0
    6.4369  -16.3296   24.5268 O   0  0  0  0  0  0  0  0  0  0  0  0
    7.9385  -16.6618   26.1410 O   0  0  0  0  0  0  0  0  0  0  0  0
  2  1  1  6
  2  6  1  0
  3  2  1  0
  3  4  1  0
  4  5  2  0
  4  8  1  0
  6  7  2  0
 10  9  1  6
 10 12  1  0
 11 10  1  0
 12 14  1  0
 12 13  1  6
 13  6  1  0
 14 21  1  0
 15 14  2  0
 16 17  1  0
 18 19  1  1
 18 17  1  0
 20 21  1  6
 20 18  1  0
 22 20  1  0
 23 22  2  0
 24 22  1  0
M  END
$$$$
