DTI.pdb
     RDKit          3D

 24 23  0  0  1  0  0  0  0  0999 V2000
   10.8552  -18.5479   20.2691 N   0  0  0  0  0  0  0  0  0  0  0  0
   11.5214  -17.2475   20.3797 C   0  0  1  0  0  0  0  0  0  0  0  0
   12.0049  -16.7810   19.0487 C   0  0  0  0  0  0  0  0  0  0  0  0
   13.2283  -17.4364   18.5512 C   0  0  0  0  0  0  0  0  0  0  0  0
   13.7642  -18.3647   19.2588 O   0  0  0  0  0  0  0  0  0  0  0  0
   10.6010  -16.2670   21.0105 C   0  0  0  0  0  0  0  0  0  0  0  0
   10.9461  -15.0763   21.0820 O   0  0  0  0  0  0  0  0  0  0  0  0
   13.8552  -17.1183   17.3588 O   0  0  0  0  0  0  0  0  0  0  0  0
    6.6519  -16.0887   20.5249 C   0  0  0  0  0  0  0  0  0  0  0  0
    6.9694  -16.0550   22.0055 C   0  0  1  0  0  0  0  0  0  0  0  0
    6.8536  -17.3722   22.4619 O   0  0  0  0  0  0  0  0  0  0  0  0
    8.4189  -15.6808   22.1405 C   0  0  2  0  0  0  0  0  0  0  0  0
    9.3356  -16.6060   21.5447 N   0  0  0  0  0  0  0  0  0  0  0  0
    8.7110  -15.4885   23.5904 C   0  0  0  0  0  0  0  0  0  0  0  0
    9.6440  -16.1473   24.0877 O   0  0  0  0  0  0  0  0  0  0  0  0
    6.4976  -10.9733   26.0960 C   0  0  0  0  0  0  0  0  0  0  0  0
    7.4891  -12.0040   25.6868 C   0  0  0  0  0  0  0  0  0  0  0  0
    7.4442  -13.3106   26.3965 C   0  0  2  0  0  0  0  0  0  0  0  0
    7.7779  -13.0658   27.8698 C   0  0  0  0  0  0  0  0  0  0  0  0
    8.1596  -14.4750   25.8586 C   0  0  2  0  0  0  0  0  0  0  0  0
    7.9803  -14.6004   24.4096 N   0  0  0  0  0  0  0  0  0  0  0  0
    7.9717  -15.7841   26.4954 C   0  0  0  0  0  0  0  0  0  0  0  0
    7.0329  -16.5886   26.3113 O   0  0  0  0  0  0  0  0  0  0  0  0
    8.9273  -16.2500   27.4370 O   0  0  0  0  0  0  0  0  0  0  0  0
  2  1  1  6
  2  6  1  0
  3  2  1  0
  3  4  1  0
  4  5  2  0
  4  8  1  0
  6  7  2  0
 10  9  1  6
 10 12  1  0
 11 10  1  0
 12 14  1  0
 12 13  1  1
 13  6  1  0
 14 21  1  0
 15 14  2  0
 16 17  1  0
 18 19  1  1
 18 17  1  0
 20 21  1  6
 20 18  1  0
 22 20  1  0
 23 22  2  0
 24 22  1  0
M  END
$$$$
