DTI.pdb
     RDKit          3D

 24 23  0  0  1  0  0  0  0  0999 V2000
    8.7991  -18.9610   21.8396 N   0  0  0  0  0  0  0  0  0  0  0  0
   10.0153  -18.3842   21.2606 C   0  0  1  0  0  0  0  0  0  0  0  0
   10.2109  -18.8497   19.8577 C   0  0  0  0  0  0  0  0  0  0  0  0
    9.4116  -20.0230   19.4599 C   0  0  0  0  0  0  0  0  0  0  0  0
    8.6294  -20.5609   20.3251 O   0  0  0  0  0  0  0  0  0  0  0  0
    9.9570  -16.9027   21.3505 C   0  0  0  0  0  0  0  0  0  0  0  0
   11.0156  -16.2639   21.4663 O   0  0  0  0  0  0  0  0  0  0  0  0
    9.4441  -20.6002   18.2021 O   0  0  0  0  0  0  0  0  0  0  0  0
    7.5315  -12.6649   20.7721 C   0  0  0  0  0  0  0  0  0  0  0  0
    7.3519  -14.1629   20.9064 C   0  0  1  0  0  0  0  0  0  0  0  0
    7.1307  -14.6493   19.6136 O   0  0  0  0  0  0  0  0  0  0  0  0
    8.6688  -14.7295   21.3579 C   0  0  2  0  0  0  0  0  0  0  0  0
    8.7543  -16.1585   21.3127 N   0  0  0  0  0  0  0  0  0  0  0  0
    8.9445  -14.2147   22.7304 C   0  0  0  0  0  0  0  0  0  0  0  0
    9.1886  -12.9998   22.8572 O   0  0  0  0  0  0  0  0  0  0  0  0
    6.5618  -11.8198   26.7700 C   0  0  0  0  0  0  0  0  0  0  0  0
    7.7456  -12.7092   26.6280 C   0  0  0  0  0  0  0  0  0  0  0  0
    7.7544  -13.6514   25.4769 C   0  0  2  0  0  0  0  0  0  0  0  0
    6.4274  -14.4138   25.4733 C   0  0  0  0  0  0  0  0  0  0  0  0
    8.8996  -14.5434   25.2534 C   0  0  2  0  0  0  0  0  0  0  0  0
    8.9394  -15.0407   23.8756 N   0  0  0  0  0  0  0  0  0  0  0  0
    9.1326  -15.6523   26.1865 C   0  0  0  0  0  0  0  0  0  0  0  0
    9.4068  -15.5738   27.4035 O   0  0  0  0  0  0  0  0  0  0  0  0
    9.0531  -16.9910   25.7191 O   0  0  0  0  0  0  0  0  0  0  0  0
  2  1  1  6
  2  6  1  0
  3  2  1  0
  3  4  1  0
  4  5  2  0
  4  8  1  0
  6  7  2  0
 10  9  1  6
 10 12  1  0
 11 10  1  0
 12 14  1  0
 12 13  1  1
 13  6  1  0
 14 21  1  0
 15 14  2  0
 16 17  1  0
 18 19  1  1
 18 17  1  0
 20 21  1  6
 20 18  1  0
 22 20  1  0
 23 22  2  0
 24 22  1  0
M  END
$$$$
