DTI.pdb
     RDKit          3D

 24 23  0  0  1  0  0  0  0  0999 V2000
   10.5384  -18.4832   19.4781 N   0  0  0  0  0  0  0  0  0  0  0  0
   10.1194  -17.1306   19.1016 C   0  0  1  0  0  0  0  0  0  0  0  0
    9.5516  -17.1122   17.7230 C   0  0  0  0  0  0  0  0  0  0  0  0
   10.5006  -17.4299   16.6404 C   0  0  0  0  0  0  0  0  0  0  0  0
   10.4036  -16.7968   15.5270 O   0  0  0  0  0  0  0  0  0  0  0  0
    9.1566  -16.6086   20.1051 C   0  0  0  0  0  0  0  0  0  0  0  0
    8.6848  -15.4701   19.9521 O   0  0  0  0  0  0  0  0  0  0  0  0
   11.5043  -18.3785   16.7348 O   0  0  0  0  0  0  0  0  0  0  0  0
    6.2159  -18.7330   21.7371 C   0  0  0  0  0  0  0  0  0  0  0  0
    6.9622  -18.0016   22.8336 C   0  0  1  0  0  0  0  0  0  0  0  0
    7.9009  -18.9065   23.3405 O   0  0  0  0  0  0  0  0  0  0  0  0
    7.7428  -16.8965   22.1788 C   0  0  2  0  0  0  0  0  0  0  0  0
    8.7347  -17.3351   21.2434 N   0  0  0  0  0  0  0  0  0  0  0  0
    8.3477  -16.0604   23.2556 C   0  0  0  0  0  0  0  0  0  0  0  0
    9.5894  -16.0497   23.3548 O   0  0  0  0  0  0  0  0  0  0  0  0
    6.8950  -11.1763   26.8387 C   0  0  0  0  0  0  0  0  0  0  0  0
    7.7922  -12.3299   26.5610 C   0  0  0  0  0  0  0  0  0  0  0  0
    7.3186  -13.3381   25.5751 C   0  0  2  0  0  0  0  0  0  0  0  0
    5.8771  -13.7113   25.9283 C   0  0  0  0  0  0  0  0  0  0  0  0
    8.1327  -14.5222   25.2715 C   0  0  2  0  0  0  0  0  0  0  0  0
    7.5771  -15.2909   24.1544 N   0  0  0  0  0  0  0  0  0  0  0  0
    8.5029  -15.4319   26.3623 C   0  0  0  0  0  0  0  0  0  0  0  0
    7.9644  -16.5209   26.6566 O   0  0  0  0  0  0  0  0  0  0  0  0
    9.5860  -15.0974   27.2177 O   0  0  0  0  0  0  0  0  0  0  0  0
  2  1  1  1
  2  6  1  0
  3  2  1  0
  3  4  1  0
  4  5  2  0
  4  8  1  0
  6  7  2  0
 10  9  1  6
 10 12  1  0
 11 10  1  0
 12 14  1  0
 12 13  1  6
 13  6  1  0
 14 21  1  0
 15 14  2  0
 16 17  1  0
 18 19  1  1
 18 17  1  0
 20 21  1  6
 20 18  1  0
 22 20  1  0
 23 22  2  0
 24 22  1  0
M  END
$$$$
