DTI.pdb
     RDKit          3D

 24 23  0  0  1  0  0  0  0  0999 V2000
   11.5730  -17.2903   18.6097 N   0  0  0  0  0  0  0  0  0  0  0  0
   11.6128  -17.3541   20.0730 C   0  0  1  0  0  0  0  0  0  0  0  0
   12.9742  -17.0252   20.5846 C   0  0  0  0  0  0  0  0  0  0  0  0
   14.0459  -17.9548   20.1831 C   0  0  0  0  0  0  0  0  0  0  0  0
   13.8904  -19.2105   20.4035 O   0  0  0  0  0  0  0  0  0  0  0  0
   10.5750  -16.4556   20.6404 C   0  0  0  0  0  0  0  0  0  0  0  0
   10.5197  -15.2776   20.2513 O   0  0  0  0  0  0  0  0  0  0  0  0
   15.2295  -17.5679   19.5784 O   0  0  0  0  0  0  0  0  0  0  0  0
    6.8344  -17.0167   20.7069 C   0  0  0  0  0  0  0  0  0  0  0  0
    7.2181  -16.7180   22.1413 C   0  0  1  0  0  0  0  0  0  0  0  0
    7.4060  -17.9567   22.7635 O   0  0  0  0  0  0  0  0  0  0  0  0
    8.5620  -16.0457   22.1109 C   0  0  2  0  0  0  0  0  0  0  0  0
    9.6293  -16.8601   21.6119 N   0  0  0  0  0  0  0  0  0  0  0  0
    8.8587  -15.5486   23.4855 C   0  0  0  0  0  0  0  0  0  0  0  0
    9.9204  -15.9197   24.0212 O   0  0  0  0  0  0  0  0  0  0  0  0
    6.7369  -11.0500   27.3065 C   0  0  0  0  0  0  0  0  0  0  0  0
    7.5998  -12.2447   27.1045 C   0  0  0  0  0  0  0  0  0  0  0  0
    7.3642  -13.0547   25.8793 C   0  0  2  0  0  0  0  0  0  0  0  0
    5.8953  -13.4840   25.8654 C   0  0  0  0  0  0  0  0  0  0  0  0
    8.2628  -14.1646   25.5361 C   0  0  2  0  0  0  0  0  0  0  0  0
    7.9940  -14.6852   24.1930 N   0  0  0  0  0  0  0  0  0  0  0  0
    8.4105  -15.2801   26.4786 C   0  0  0  0  0  0  0  0  0  0  0  0
    9.0961  -15.3037   27.5236 O   0  0  0  0  0  0  0  0  0  0  0  0
    7.7245  -16.4996   26.2355 O   0  0  0  0  0  0  0  0  0  0  0  0
  2  1  1  6
  2  6  1  0
  3  2  1  0
  3  4  1  0
  4  5  2  0
  4  8  1  0
  6  7  2  0
 10  9  1  6
 10 12  1  0
 11 10  1  0
 12 14  1  0
 12 13  1  1
 13  6  1  0
 14 21  1  0
 15 14  2  0
 16 17  1  0
 18 19  1  1
 18 17  1  0
 20 21  1  6
 20 18  1  0
 22 20  1  0
 23 22  2  0
 24 22  1  0
M  END
$$$$
