DTI.pdb
     RDKit          3D

 24 23  0  0  1  0  0  0  0  0999 V2000
    9.8300  -14.3753   18.7148 N   0  0  0  0  0  0  0  0  0  0  0  0
    8.6547  -13.5261   18.9256 C   0  0  1  0  0  0  0  0  0  0  0  0
    7.7968  -13.4901   17.7067 C   0  0  0  0  0  0  0  0  0  0  0  0
    8.2658  -14.3103   16.5749 C   0  0  0  0  0  0  0  0  0  0  0  0
    7.6297  -14.2486   15.4607 O   0  0  0  0  0  0  0  0  0  0  0  0
    7.9050  -13.9982   20.1179 C   0  0  0  0  0  0  0  0  0  0  0  0
    6.9077  -13.3608   20.4939 O   0  0  0  0  0  0  0  0  0  0  0  0
    9.3579  -15.1594   16.6252 O   0  0  0  0  0  0  0  0  0  0  0  0
    6.5317  -17.5049   20.9196 C   0  0  0  0  0  0  0  0  0  0  0  0
    7.3879  -17.1023   22.1024 C   0  0  1  0  0  0  0  0  0  0  0  0
    8.6485  -17.6684   21.8854 O   0  0  0  0  0  0  0  0  0  0  0  0
    7.5697  -15.6119   22.0325 C   0  0  2  0  0  0  0  0  0  0  0  0
    8.2584  -15.1455   20.8666 N   0  0  0  0  0  0  0  0  0  0  0  0
    8.2606  -15.1740   23.2797 C   0  0  0  0  0  0  0  0  0  0  0  0
    9.4790  -14.9240   23.2120 O   0  0  0  0  0  0  0  0  0  0  0  0
    5.9108  -11.5820   26.4852 C   0  0  0  0  0  0  0  0  0  0  0  0
    6.8586  -12.4518   25.7383 C   0  0  0  0  0  0  0  0  0  0  0  0
    7.4502  -13.6017   26.4734 C   0  0  2  0  0  0  0  0  0  0  0  0
    8.1862  -13.0572   27.6998 C   0  0  0  0  0  0  0  0  0  0  0  0
    8.2440  -14.6117   25.7615 C   0  0  2  0  0  0  0  0  0  0  0  0
    7.5952  -15.0337   24.5172 N   0  0  0  0  0  0  0  0  0  0  0  0
    8.7217  -15.7902   26.4946 C   0  0  0  0  0  0  0  0  0  0  0  0
    8.1346  -16.8848   26.6348 O   0  0  0  0  0  0  0  0  0  0  0  0
    9.9854  -15.7495   27.1414 O   0  0  0  0  0  0  0  0  0  0  0  0
  2  1  1  6
  2  6  1  0
  3  2  1  0
  3  4  1  0
  4  5  2  0
  4  8  1  0
  6  7  2  0
 10  9  1  6
 10 12  1  0
 11 10  1  0
 12 14  1  0
 12 13  1  6
 13  6  1  0
 14 21  1  0
 15 14  2  0
 16 17  1  0
 18 19  1  1
 18 17  1  0
 20 21  1  6
 20 18  1  0
 22 20  1  0
 23 22  2  0
 24 22  1  0
M  END
$$$$
