DTI.pdb
     RDKit          3D

 24 23  0  0  1  0  0  0  0  0999 V2000
   10.8251  -16.8352   18.3201 N   0  0  0  0  0  0  0  0  0  0  0  0
   11.1220  -16.8874   19.7540 C   0  0  1  0  0  0  0  0  0  0  0  0
   12.5146  -16.4303   20.0274 C   0  0  0  0  0  0  0  0  0  0  0  0
   13.5836  -17.2950   19.4952 C   0  0  0  0  0  0  0  0  0  0  0  0
   14.4486  -16.7868   18.6932 O   0  0  0  0  0  0  0  0  0  0  0  0
   10.1185  -16.0867   20.5012 C   0  0  0  0  0  0  0  0  0  0  0  0
    9.8851  -14.9223   20.1380 O   0  0  0  0  0  0  0  0  0  0  0  0
   13.7252  -18.6382   19.7983 O   0  0  0  0  0  0  0  0  0  0  0  0
    6.5589  -16.7922   20.9819 C   0  0  0  0  0  0  0  0  0  0  0  0
    7.0522  -16.5790   22.3981 C   0  0  1  0  0  0  0  0  0  0  0  0
    7.3317  -17.8497   22.9119 O   0  0  0  0  0  0  0  0  0  0  0  0
    8.3664  -15.8553   22.3065 C   0  0  2  0  0  0  0  0  0  0  0  0
    9.3990  -16.5712   21.6189 N   0  0  0  0  0  0  0  0  0  0  0  0
    8.7893  -15.4932   23.6902 C   0  0  0  0  0  0  0  0  0  0  0  0
    9.9169  -15.8632   24.0689 O   0  0  0  0  0  0  0  0  0  0  0  0
    5.8746  -11.3785   26.2208 C   0  0  0  0  0  0  0  0  0  0  0  0
    6.9857  -12.2006   25.6707 C   0  0  0  0  0  0  0  0  0  0  0  0
    7.4465  -13.3552   26.4876 C   0  0  2  0  0  0  0  0  0  0  0  0
    7.9334  -12.8219   27.8369 C   0  0  0  0  0  0  0  0  0  0  0  0
    8.3733  -14.3444   25.9225 C   0  0  2  0  0  0  0  0  0  0  0  0
    7.9716  -14.7568   24.5749 N   0  0  0  0  0  0  0  0  0  0  0  0
    8.7258  -15.5271   26.7172 C   0  0  0  0  0  0  0  0  0  0  0  0
    9.6496  -15.6308   27.5528 O   0  0  0  0  0  0  0  0  0  0  0  0
    7.9730  -16.7221   26.5686 O   0  0  0  0  0  0  0  0  0  0  0  0
  2  1  1  6
  2  6  1  0
  3  2  1  0
  3  4  1  0
  4  5  2  0
  4  8  1  0
  6  7  2  0
 10  9  1  6
 10 12  1  0
 11 10  1  0
 12 14  1  0
 12 13  1  1
 13  6  1  0
 14 21  1  0
 15 14  2  0
 16 17  1  0
 18 19  1  1
 18 17  1  0
 20 21  1  6
 20 18  1  0
 22 20  1  0
 23 22  2  0
 24 22  1  0
M  END
$$$$
