DTI.pdb
     RDKit          3D

 24 23  0  0  1  0  0  0  0  0999 V2000
    9.7191  -14.9565   18.3095 N   0  0  0  0  0  0  0  0  0  0  0  0
    8.8436  -13.8301   18.6435 C   0  0  1  0  0  0  0  0  0  0  0  0
    7.9222  -13.5172   17.5137 C   0  0  0  0  0  0  0  0  0  0  0  0
    8.2886  -14.1063   16.2128 C   0  0  0  0  0  0  0  0  0  0  0  0
    8.7889  -15.2890   16.1882 O   0  0  0  0  0  0  0  0  0  0  0  0
    8.1037  -14.1272   19.8968 C   0  0  0  0  0  0  0  0  0  0  0  0
    7.3649  -13.2548   20.3816 O   0  0  0  0  0  0  0  0  0  0  0  0
    8.1336  -13.4674   14.9946 O   0  0  0  0  0  0  0  0  0  0  0  0
    6.4712  -17.6935   20.7707 C   0  0  0  0  0  0  0  0  0  0  0  0
    7.2319  -17.1716   21.9720 C   0  0  1  0  0  0  0  0  0  0  0  0
    8.4983  -17.7637   21.9223 O   0  0  0  0  0  0  0  0  0  0  0  0
    7.4394  -15.6980   21.7605 C   0  0  2  0  0  0  0  0  0  0  0  0
    8.1869  -15.3596   20.5866 N   0  0  0  0  0  0  0  0  0  0  0  0
    8.0801  -15.1431   22.9878 C   0  0  0  0  0  0  0  0  0  0  0  0
    9.3007  -14.8980   22.9461 O   0  0  0  0  0  0  0  0  0  0  0  0
    6.8742  -11.2298   27.4900 C   0  0  0  0  0  0  0  0  0  0  0  0
    7.7201  -12.3602   27.0217 C   0  0  0  0  0  0  0  0  0  0  0  0
    7.1929  -13.1863   25.9026 C   0  0  2  0  0  0  0  0  0  0  0  0
    5.7471  -13.5669   26.2295 C   0  0  0  0  0  0  0  0  0  0  0  0
    7.9603  -14.3318   25.3968 C   0  0  2  0  0  0  0  0  0  0  0  0
    7.3655  -14.8883   24.1787 N   0  0  0  0  0  0  0  0  0  0  0  0
    8.3089  -15.4196   26.3186 C   0  0  0  0  0  0  0  0  0  0  0  0
    7.7975  -16.5588   26.3744 O   0  0  0  0  0  0  0  0  0  0  0  0
    9.3342  -15.2221   27.2812 O   0  0  0  0  0  0  0  0  0  0  0  0
  2  1  1  6
  2  6  1  0
  3  2  1  0
  3  4  1  0
  4  5  2  0
  4  8  1  0
  6  7  2  0
 10  9  1  6
 10 12  1  0
 11 10  1  0
 12 14  1  0
 12 13  1  6
 13  6  1  0
 14 21  1  0
 15 14  2  0
 16 17  1  0
 18 19  1  1
 18 17  1  0
 20 21  1  6
 20 18  1  0
 22 20  1  0
 23 22  2  0
 24 22  1  0
M  END
$$$$
