DTI.pdb
     RDKit          3D

 24 23  0  0  1  0  0  0  0  0999 V2000
    9.2961  -18.1422   19.7109 N   0  0  0  0  0  0  0  0  0  0  0  0
    8.3724  -17.0375   19.4403 C   0  0  1  0  0  0  0  0  0  0  0  0
    7.4178  -17.3947   18.3521 C   0  0  0  0  0  0  0  0  0  0  0  0
    8.0323  -17.8446   17.0897 C   0  0  0  0  0  0  0  0  0  0  0  0
    9.0467  -18.6307   17.1411 O   0  0  0  0  0  0  0  0  0  0  0  0
    7.6693  -16.6565   20.6921 C   0  0  0  0  0  0  0  0  0  0  0  0
    6.8053  -15.7654   20.6506 O   0  0  0  0  0  0  0  0  0  0  0  0
    7.5916  -17.4740   15.8308 O   0  0  0  0  0  0  0  0  0  0  0  0
    5.8089  -18.9405   23.0146 C   0  0  0  0  0  0  0  0  0  0  0  0
    6.7466  -18.1704   23.9212 C   0  0  1  0  0  0  0  0  0  0  0  0
    7.8713  -18.9820   24.1031 O   0  0  0  0  0  0  0  0  0  0  0  0
    7.2097  -16.9615   23.1574 C   0  0  2  0  0  0  0  0  0  0  0  0
    7.9236  -17.2516   21.9502 N   0  0  0  0  0  0  0  0  0  0  0  0
    8.0263  -16.1202   24.0793 C   0  0  0  0  0  0  0  0  0  0  0  0
    9.2414  -15.9992   23.8329 O   0  0  0  0  0  0  0  0  0  0  0  0
    5.5838  -11.8301   26.4790 C   0  0  0  0  0  0  0  0  0  0  0  0
    6.6350  -12.6583   25.8295 C   0  0  0  0  0  0  0  0  0  0  0  0
    7.4321  -13.5567   26.7072 C   0  0  2  0  0  0  0  0  0  0  0  0
    8.2307  -12.6876   27.6813 C   0  0  0  0  0  0  0  0  0  0  0  0
    8.2538  -14.6271   26.1274 C   0  0  2  0  0  0  0  0  0  0  0  0
    7.4821  -15.4646   25.2053 N   0  0  0  0  0  0  0  0  0  0  0  0
    9.0500  -15.4779   27.0199 C   0  0  0  0  0  0  0  0  0  0  0  0
   10.1691  -15.2201   27.5135 O   0  0  0  0  0  0  0  0  0  0  0  0
    8.5514  -16.7504   27.4055 O   0  0  0  0  0  0  0  0  0  0  0  0
  2  1  1  1
  2  6  1  0
  3  2  1  0
  3  4  1  0
  4  5  2  0
  4  8  1  0
  6  7  2  0
 10  9  1  6
 10 12  1  0
 11 10  1  0
 12 14  1  0
 12 13  1  6
 13  6  1  0
 14 21  1  0
 15 14  2  0
 16 17  1  0
 18 19  1  6
 18 17  1  0
 20 21  1  1
 20 18  1  0
 22 20  1  0
 23 22  2  0
 24 22  1  0
M  END
$$$$
