DTI.pdb
     RDKit          3D

 24 23  0  0  1  0  0  0  0  0999 V2000
    9.5413  -15.7863   18.4722 N   0  0  0  0  0  0  0  0  0  0  0  0
    8.6451  -14.6411   18.6518 C   0  0  1  0  0  0  0  0  0  0  0  0
    7.6802  -14.5362   17.5199 C   0  0  0  0  0  0  0  0  0  0  0  0
    8.2817  -14.4785   16.1751 C   0  0  0  0  0  0  0  0  0  0  0  0
    9.3670  -15.1289   15.9544 O   0  0  0  0  0  0  0  0  0  0  0  0
    7.9536  -14.7488   19.9620 C   0  0  0  0  0  0  0  0  0  0  0  0
    7.1209  -13.8830   20.2768 O   0  0  0  0  0  0  0  0  0  0  0  0
    7.7563  -13.7605   15.1146 O   0  0  0  0  0  0  0  0  0  0  0  0
    6.1912  -17.8864   21.3236 C   0  0  0  0  0  0  0  0  0  0  0  0
    7.1105  -17.4035   22.4262 C   0  0  1  0  0  0  0  0  0  0  0  0
    8.2913  -18.1438   22.3052 O   0  0  0  0  0  0  0  0  0  0  0  0
    7.4658  -15.9765   22.1154 C   0  0  2  0  0  0  0  0  0  0  0  0
    8.1854  -15.7903   20.8911 N   0  0  0  0  0  0  0  0  0  0  0  0
    8.2240  -15.4280   23.2767 C   0  0  0  0  0  0  0  0  0  0  0  0
    9.4566  -15.2941   23.1553 O   0  0  0  0  0  0  0  0  0  0  0  0
    5.8272  -11.5686   26.2101 C   0  0  0  0  0  0  0  0  0  0  0  0
    6.8498  -12.3942   25.5132 C   0  0  0  0  0  0  0  0  0  0  0  0
    7.5292  -13.4508   26.3098 C   0  0  2  0  0  0  0  0  0  0  0  0
    8.3164  -12.7710   27.4324 C   0  0  0  0  0  0  0  0  0  0  0  0
    8.3171  -14.4954   25.6426 C   0  0  2  0  0  0  0  0  0  0  0  0
    7.6065  -15.0595   24.4919 N   0  0  0  0  0  0  0  0  0  0  0  0
    8.8923  -15.5790   26.4485 C   0  0  0  0  0  0  0  0  0  0  0  0
    8.3854  -16.6961   26.6885 O   0  0  0  0  0  0  0  0  0  0  0  0
   10.1656  -15.4042   27.0527 O   0  0  0  0  0  0  0  0  0  0  0  0
  2  1  1  6
  2  6  1  0
  3  2  1  0
  3  4  1  0
  4  5  2  0
  4  8  1  0
  6  7  2  0
 10  9  1  6
 10 12  1  0
 11 10  1  0
 12 14  1  0
 12 13  1  6
 13  6  1  0
 14 21  1  0
 15 14  2  0
 16 17  1  0
 18 19  1  1
 18 17  1  0
 20 21  1  6
 20 18  1  0
 22 20  1  0
 23 22  2  0
 24 22  1  0
M  END
$$$$
