DTI.pdb
     RDKit          3D

 24 23  0  0  1  0  0  0  0  0999 V2000
   10.6394  -17.9274   18.4262 N   0  0  0  0  0  0  0  0  0  0  0  0
   11.1303  -17.4877   19.7349 C   0  0  1  0  0  0  0  0  0  0  0  0
   12.3938  -16.7083   19.5965 C   0  0  0  0  0  0  0  0  0  0  0  0
   13.5524  -17.4616   19.0829 C   0  0  0  0  0  0  0  0  0  0  0  0
   14.2235  -18.1948   19.8963 O   0  0  0  0  0  0  0  0  0  0  0  0
   10.0722  -16.7104   20.4297 C   0  0  0  0  0  0  0  0  0  0  0  0
    9.6219  -15.6877   19.8880 O   0  0  0  0  0  0  0  0  0  0  0  0
   13.9804  -17.4347   17.7667 O   0  0  0  0  0  0  0  0  0  0  0  0
    6.6798  -17.3915   21.0930 C   0  0  0  0  0  0  0  0  0  0  0  0
    7.1975  -17.1379   22.4937 C   0  0  1  0  0  0  0  0  0  0  0  0
    7.5388  -18.3888   23.0186 O   0  0  0  0  0  0  0  0  0  0  0  0
    8.4797  -16.3650   22.3602 C   0  0  2  0  0  0  0  0  0  0  0  0
    9.5347  -17.0641   21.6897 N   0  0  0  0  0  0  0  0  0  0  0  0
    8.8997  -15.9320   23.7242 C   0  0  0  0  0  0  0  0  0  0  0  0
   10.0068  -16.3211   24.1423 O   0  0  0  0  0  0  0  0  0  0  0  0
    5.9502  -11.7074   26.0885 C   0  0  0  0  0  0  0  0  0  0  0  0
    7.0571  -12.5442   25.5523 C   0  0  0  0  0  0  0  0  0  0  0  0
    7.5492  -13.6536   26.4125 C   0  0  2  0  0  0  0  0  0  0  0  0
    8.0331  -13.0542   27.7349 C   0  0  0  0  0  0  0  0  0  0  0  0
    8.4942  -14.6445   25.8815 C   0  0  2  0  0  0  0  0  0  0  0  0
    8.1014  -15.1091   24.5484 N   0  0  0  0  0  0  0  0  0  0  0  0
    8.8669  -15.7932   26.7158 C   0  0  0  0  0  0  0  0  0  0  0  0
    8.2435  -16.8687   26.8467 O   0  0  0  0  0  0  0  0  0  0  0  0
   10.0582  -15.7430   27.4872 O   0  0  0  0  0  0  0  0  0  0  0  0
  2  1  1  6
  2  6  1  0
  3  2  1  0
  3  4  1  0
  4  5  2  0
  4  8  1  0
  6  7  2  0
 10  9  1  6
 10 12  1  0
 11 10  1  0
 12 14  1  0
 12 13  1  1
 13  6  1  0
 14 21  1  0
 15 14  2  0
 16 17  1  0
 18 19  1  1
 18 17  1  0
 20 21  1  6
 20 18  1  0
 22 20  1  0
 23 22  2  0
 24 22  1  0
M  END
$$$$
