DTI.pdb
     RDKit          3D

 24 23  0  0  1  0  0  0  0  0999 V2000
   11.1616  -18.7295   20.4490 N   0  0  0  0  0  0  0  0  0  0  0  0
   11.5143  -17.3424   20.1351 C   0  0  1  0  0  0  0  0  0  0  0  0
   11.6699  -17.1512   18.6646 C   0  0  0  0  0  0  0  0  0  0  0  0
   12.8703  -17.7644   18.0673 C   0  0  0  0  0  0  0  0  0  0  0  0
   12.7206  -18.6918   17.1914 O   0  0  0  0  0  0  0  0  0  0  0  0
   10.4958  -16.4260   20.7090 C   0  0  0  0  0  0  0  0  0  0  0  0
   10.5833  -15.2086   20.4800 O   0  0  0  0  0  0  0  0  0  0  0  0
   14.1697  -17.4111   18.3881 O   0  0  0  0  0  0  0  0  0  0  0  0
    6.6173  -16.8463   20.6484 C   0  0  0  0  0  0  0  0  0  0  0  0
    7.0230  -16.5937   22.0857 C   0  0  1  0  0  0  0  0  0  0  0  0
    7.1404  -17.8511   22.6873 O   0  0  0  0  0  0  0  0  0  0  0  0
    8.4038  -16.0005   22.0599 C   0  0  2  0  0  0  0  0  0  0  0  0
    9.4143  -16.8559   21.5134 N   0  0  0  0  0  0  0  0  0  0  0  0
    8.7478  -15.5758   23.4476 C   0  0  0  0  0  0  0  0  0  0  0  0
    9.7791  -16.0493   23.9615 O   0  0  0  0  0  0  0  0  0  0  0  0
    7.0564  -11.0789   27.4661 C   0  0  0  0  0  0  0  0  0  0  0  0
    7.8424  -12.3082   27.1765 C   0  0  0  0  0  0  0  0  0  0  0  0
    7.4686  -13.0848   25.9641 C   0  0  2  0  0  0  0  0  0  0  0  0
    5.9670  -13.3742   26.0262 C   0  0  0  0  0  0  0  0  0  0  0  0
    8.2398  -14.2719   25.5731 C   0  0  2  0  0  0  0  0  0  0  0  0
    7.9601  -14.6698   24.1908 N   0  0  0  0  0  0  0  0  0  0  0  0
    8.2182  -15.4546   26.4422 C   0  0  0  0  0  0  0  0  0  0  0  0
    7.4687  -16.4505   26.3483 O   0  0  0  0  0  0  0  0  0  0  0  0
    9.1249  -15.5411   27.5318 O   0  0  0  0  0  0  0  0  0  0  0  0
  2  1  1  6
  2  6  1  0
  3  2  1  0
  3  4  1  0
  4  5  2  0
  4  8  1  0
  6  7  2  0
 10  9  1  6
 10 12  1  0
 11 10  1  0
 12 14  1  0
 12 13  1  1
 13  6  1  0
 14 21  1  0
 15 14  2  0
 16 17  1  0
 18 19  1  1
 18 17  1  0
 20 21  1  6
 20 18  1  0
 22 20  1  0
 23 22  2  0
 24 22  1  0
M  END
$$$$
