TFD.pdb
     RDKit          3D

 27 27  0  0  1  0  0  0  0  0999 V2000
    8.3068  -18.5876   20.8887 C   0  0  0  0  0  0  0  0  0  0  0  0
    9.1893  -17.9604   19.8506 C   0  0  1  0  0  0  0  0  0  0  0  0
    9.1915  -18.6782   18.6503 O   0  0  0  0  0  0  0  0  0  0  0  0
    8.9269  -16.5017   19.6287 C   0  0  2  0  0  0  0  0  0  0  0  0
    9.6814  -15.9117   18.5701 N   0  0  0  0  0  0  0  0  0  0  0  0
    9.0654  -15.7945   20.9195 C   0  0  0  0  0  0  0  0  0  0  0  0
   10.2342  -15.5720   21.3284 O   0  0  0  0  0  0  0  0  0  0  0  0
    7.9626  -15.3600   21.7100 N   0  0  0  0  0  0  0  0  0  0  0  0
    8.0941  -14.7711   23.0080 C   0  0  1  0  0  0  0  0  0  0  0  0
    6.8249  -14.1080   23.4927 C   0  0  0  0  0  0  0  0  0  0  0  0
    6.9816  -13.4928   24.8362 C   0  0  0  0  0  0  0  0  0  0  0  0
    7.6351  -12.2835   24.9808 C   0  0  0  0  0  0  0  0  0  0  0  0
    7.7936  -11.6918   26.2205 C   0  0  0  0  0  0  0  0  0  0  0  0
    7.2970  -12.3009   27.3637 C   0  0  0  0  0  0  0  0  0  0  0  0
    6.6424  -13.5088   27.2332 C   0  0  0  0  0  0  0  0  0  0  0  0
    6.4974  -14.0782   25.9846 C   0  0  0  0  0  0  0  0  0  0  0  0
    8.5367  -15.7417   24.0348 C   0  0  0  0  0  0  0  0  0  0  0  0
    7.9037  -16.8104   24.2007 O   0  0  0  0  0  0  0  0  0  0  0  0
    9.6699  -15.5042   24.8521 N   0  0  0  0  0  0  0  0  0  0  0  0
   10.2186  -16.5591   25.7197 C   0  0  1  0  0  0  0  0  0  0  0  0
   11.7053  -16.4961   25.5790 C   0  0  0  0  0  0  0  0  0  0  0  0
   12.2211  -17.2384   24.4228 C   0  0  0  0  0  0  0  0  0  0  0  0
   11.5433  -18.0506   23.7621 O   0  0  0  0  0  0  0  0  0  0  0  0
    9.7906  -16.3074   27.1134 C   0  0  0  0  0  0  0  0  0  0  0  0
    9.9282  -17.2458   28.1233 O   0  0  0  0  0  0  0  0  0  0  0  0
   13.5439  -17.0314   24.0320 O   0  0  0  0  0  0  0  0  0  0  0  0
    9.2683  -15.1798   27.4177 O   0  0  0  0  0  0  0  0  0  0  0  0
  2  1  1  1
  2  4  1  0
  3  2  1  0
  4  5  1  6
  4  6  1  0
  6  7  2  0
  8  6  1  0
  8  9  1  0
  9 10  1  1
 11 10  1  0
 12 11  2  0
 13 12  1  0
 14 15  1  0
 14 13  2  0
 15 16  2  0
 16 11  1  0
 17 19  1  0
 17  9  1  0
 18 17  2  0
 20 19  1  0
 20 21  1  1
 22 26  1  0
 22 21  1  0
 23 22  2  0
 24 25  1  0
 24 20  1  0
 27 24  2  0
M  END
$$$$
