TFD.pdb
     RDKit          3D

 27 27  0  0  1  0  0  0  0  0999 V2000
    6.5979  -15.0519   18.1516 C   0  0  0  0  0  0  0  0  0  0  0  0
    7.2435  -14.9889   19.5040 C   0  0  1  0  0  0  0  0  0  0  0  0
    8.4266  -15.7323   19.5637 O   0  0  0  0  0  0  0  0  0  0  0  0
    7.4320  -13.5963   20.0246 C   0  0  2  0  0  0  0  0  0  0  0  0
    8.1690  -12.7292   19.1626 N   0  0  0  0  0  0  0  0  0  0  0  0
    7.9806  -13.6740   21.3953 C   0  0  0  0  0  0  0  0  0  0  0  0
    9.2218  -13.5150   21.5255 O   0  0  0  0  0  0  0  0  0  0  0  0
    7.1897  -13.9155   22.5554 N   0  0  0  0  0  0  0  0  0  0  0  0
    7.7279  -14.0446   23.8755 C   0  0  1  0  0  0  0  0  0  0  0  0
    6.7019  -13.8166   24.9620 C   0  0  0  0  0  0  0  0  0  0  0  0
    7.3063  -13.7924   26.3194 C   0  0  0  0  0  0  0  0  0  0  0  0
    7.8854  -12.6363   26.8076 C   0  0  0  0  0  0  0  0  0  0  0  0
    8.4545  -12.5895   28.0669 C   0  0  0  0  0  0  0  0  0  0  0  0
    8.4601  -13.7116   28.8826 C   0  0  0  0  0  0  0  0  0  0  0  0
    7.8852  -14.8726   28.4071 C   0  0  0  0  0  0  0  0  0  0  0  0
    7.3239  -14.8929   27.1467 C   0  0  0  0  0  0  0  0  0  0  0  0
    8.3696  -15.3590   24.1060 C   0  0  0  0  0  0  0  0  0  0  0  0
    7.7891  -16.4107   23.7491 O   0  0  0  0  0  0  0  0  0  0  0  0
    9.6387  -15.4754   24.7260 N   0  0  0  0  0  0  0  0  0  0  0  0
   10.3043  -16.7813   24.8609 C   0  0  1  0  0  0  0  0  0  0  0  0
   11.6382  -16.6500   24.1993 C   0  0  0  0  0  0  0  0  0  0  0  0
   12.4363  -17.8813   24.2297 C   0  0  0  0  0  0  0  0  0  0  0  0
   12.0591  -18.9385   24.7732 O   0  0  0  0  0  0  0  0  0  0  0  0
   10.4369  -17.1081   26.2977 C   0  0  0  0  0  0  0  0  0  0  0  0
   10.2348  -16.1761   27.3026 O   0  0  0  0  0  0  0  0  0  0  0  0
   13.6901  -17.8798   23.6187 O   0  0  0  0  0  0  0  0  0  0  0  0
   10.7515  -18.2983   26.6463 O   0  0  0  0  0  0  0  0  0  0  0  0
  2  1  1  6
  2  4  1  0
  3  2  1  0
  4  5  1  6
  4  6  1  0
  6  7  2  0
  8  6  1  0
  8  9  1  0
  9 10  1  1
 11 10  1  0
 12 11  2  0
 13 12  1  0
 14 15  1  0
 14 13  2  0
 15 16  2  0
 16 11  1  0
 17 19  1  0
 17  9  1  0
 18 17  2  0
 20 19  1  0
 20 21  1  1
 22 26  1  0
 22 21  1  0
 23 22  2  0
 24 25  1  0
 24 20  1  0
 27 24  2  0
M  END
$$$$
