TFD.pdb
     RDKit          3D

 27 27  0  0  1  0  0  0  0  0999 V2000
    7.7018  -18.6596   18.9925 C   0  0  0  0  0  0  0  0  0  0  0  0
    8.1810  -17.8668   20.1721 C   0  0  1  0  0  0  0  0  0  0  0  0
    9.3349  -18.4107   20.7452 O   0  0  0  0  0  0  0  0  0  0  0  0
    8.3301  -16.4006   19.9005 C   0  0  2  0  0  0  0  0  0  0  0  0
    9.2458  -16.0753   18.8546 N   0  0  0  0  0  0  0  0  0  0  0  0
    8.6189  -15.7103   21.1756 C   0  0  0  0  0  0  0  0  0  0  0  0
    9.8171  -15.3988   21.3999 O   0  0  0  0  0  0  0  0  0  0  0  0
    7.6275  -15.3857   22.1458 N   0  0  0  0  0  0  0  0  0  0  0  0
    7.9162  -14.7779   23.4092 C   0  0  1  0  0  0  0  0  0  0  0  0
    6.6819  -14.2826   24.1279 C   0  0  0  0  0  0  0  0  0  0  0  0
    7.0014  -13.6315   25.4249 C   0  0  0  0  0  0  0  0  0  0  0  0
    7.5474  -12.3622   25.4556 C   0  0  0  0  0  0  0  0  0  0  0  0
    7.8536  -11.7361   26.6499 C   0  0  0  0  0  0  0  0  0  0  0  0
    7.6193  -12.3703   27.8613 C   0  0  0  0  0  0  0  0  0  0  0  0
    7.0746  -13.6382   27.8447 C   0  0  0  0  0  0  0  0  0  0  0  0
    6.7780  -14.2409   26.6393 C   0  0  0  0  0  0  0  0  0  0  0  0
    8.6594  -15.6774   24.3207 C   0  0  0  0  0  0  0  0  0  0  0  0
    8.2867  -16.8644   24.4708 O   0  0  0  0  0  0  0  0  0  0  0  0
    9.7973  -15.2395   25.0431 N   0  0  0  0  0  0  0  0  0  0  0  0
   10.6877  -16.1983   25.7174 C   0  0  1  0  0  0  0  0  0  0  0  0
   12.0863  -15.7601   25.4238 C   0  0  0  0  0  0  0  0  0  0  0  0
   13.1119  -16.6786   25.9319 C   0  0  0  0  0  0  0  0  0  0  0  0
   12.8547  -17.7488   26.5184 O   0  0  0  0  0  0  0  0  0  0  0  0
   10.4032  -16.1810   27.1692 C   0  0  0  0  0  0  0  0  0  0  0  0
   10.8962  -15.2055   28.0204 O   0  0  0  0  0  0  0  0  0  0  0  0
   14.4546  -16.3451   25.7541 O   0  0  0  0  0  0  0  0  0  0  0  0
    9.6720  -17.0991   27.6784 O   0  0  0  0  0  0  0  0  0  0  0  0
  2  1  1  6
  2  4  1  0
  3  2  1  0
  4  5  1  6
  4  6  1  0
  6  7  2  0
  8  6  1  0
  8  9  1  0
  9 10  1  1
 11 10  1  0
 12 11  2  0
 13 12  1  0
 14 15  1  0
 14 13  2  0
 15 16  2  0
 16 11  1  0
 17 19  1  0
 17  9  1  0
 18 17  2  0
 20 19  1  0
 20 21  1  1
 22 26  1  0
 22 21  1  0
 23 22  2  0
 24 25  1  0
 24 20  1  0
 27 24  2  0
M  END
$$$$
