TFD.pdb
     RDKit          3D

 27 27  0  0  1  0  0  0  0  0999 V2000
    8.4400  -18.8218   18.7113 C   0  0  0  0  0  0  0  0  0  0  0  0
    8.7199  -18.0536   19.9688 C   0  0  1  0  0  0  0  0  0  0  0  0
    9.6236  -18.7153   20.8063 O   0  0  0  0  0  0  0  0  0  0  0  0
    9.1159  -16.6271   19.7358 C   0  0  2  0  0  0  0  0  0  0  0  0
   10.2620  -16.4522   18.9027 N   0  0  0  0  0  0  0  0  0  0  0  0
    9.2260  -15.9471   21.0439 C   0  0  0  0  0  0  0  0  0  0  0  0
   10.3731  -15.8702   21.5550 O   0  0  0  0  0  0  0  0  0  0  0  0
    8.1192  -15.3846   21.7428 N   0  0  0  0  0  0  0  0  0  0  0  0
    8.2161  -14.7809   23.0370 C   0  0  1  0  0  0  0  0  0  0  0  0
    6.9590  -14.0489   23.4485 C   0  0  0  0  0  0  0  0  0  0  0  0
    7.1132  -13.3369   24.7437 C   0  0  0  0  0  0  0  0  0  0  0  0
    6.3682  -13.7161   25.8443 C   0  0  0  0  0  0  0  0  0  0  0  0
    6.4939  -13.0687   27.0597 C   0  0  0  0  0  0  0  0  0  0  0  0
    7.3791  -12.0110   27.2094 C   0  0  0  0  0  0  0  0  0  0  0  0
    8.1290  -11.6222   26.1181 C   0  0  0  0  0  0  0  0  0  0  0  0
    7.9848  -12.2850   24.9164 C   0  0  0  0  0  0  0  0  0  0  0  0
    8.5596  -15.7544   24.0985 C   0  0  0  0  0  0  0  0  0  0  0  0
    7.8625  -16.7841   24.2536 O   0  0  0  0  0  0  0  0  0  0  0  0
    9.6673  -15.5628   24.9615 N   0  0  0  0  0  0  0  0  0  0  0  0
   10.1026  -16.6196   25.8892 C   0  0  1  0  0  0  0  0  0  0  0  0
   11.5911  -16.6981   25.7774 C   0  0  0  0  0  0  0  0  0  0  0  0
   12.0570  -17.5950   24.7133 C   0  0  0  0  0  0  0  0  0  0  0  0
   11.2938  -18.2407   23.9676 O   0  0  0  0  0  0  0  0  0  0  0  0
    9.6757  -16.2628   27.2601 C   0  0  0  0  0  0  0  0  0  0  0  0
    9.2983  -17.2080   28.2000 O   0  0  0  0  0  0  0  0  0  0  0  0
   13.4300  -17.7409   24.5162 O   0  0  0  0  0  0  0  0  0  0  0  0
    9.6474  -15.0327   27.6106 O   0  0  0  0  0  0  0  0  0  0  0  0
  2  1  1  6
  2  4  1  0
  3  2  1  0
  4  5  1  1
  4  6  1  0
  6  7  2  0
  8  6  1  0
  8  9  1  0
  9 10  1  1
 11 10  1  0
 12 11  2  0
 13 12  1  0
 14 15  1  0
 14 13  2  0
 15 16  2  0
 16 11  1  0
 17 19  1  0
 17  9  1  0
 18 17  2  0
 20 19  1  0
 20 21  1  1
 22 26  1  0
 22 21  1  0
 23 22  2  0
 24 25  1  0
 24 20  1  0
 27 24  2  0
M  END
$$$$
