TFD.pdb
     RDKit          3D

 27 27  0  0  1  0  0  0  0  0999 V2000
    7.0973  -15.0844   17.1075 C   0  0  0  0  0  0  0  0  0  0  0  0
    7.6092  -14.9806   18.5136 C   0  0  1  0  0  0  0  0  0  0  0  0
    8.8451  -15.6141   18.6778 O   0  0  0  0  0  0  0  0  0  0  0  0
    7.6211  -13.5836   19.0558 C   0  0  2  0  0  0  0  0  0  0  0  0
    8.3525  -12.6424   18.2700 N   0  0  0  0  0  0  0  0  0  0  0  0
    8.0456  -13.6291   20.4712 C   0  0  0  0  0  0  0  0  0  0  0  0
    9.2653  -13.4340   20.7102 O   0  0  0  0  0  0  0  0  0  0  0  0
    7.1599  -13.8784   21.5589 N   0  0  0  0  0  0  0  0  0  0  0  0
    7.5615  -13.8717   22.9328 C   0  0  1  0  0  0  0  0  0  0  0  0
    6.4207  -13.5958   23.8856 C   0  0  0  0  0  0  0  0  0  0  0  0
    6.8815  -13.4086   25.2859 C   0  0  0  0  0  0  0  0  0  0  0  0
    7.4248  -12.2035   25.6892 C   0  0  0  0  0  0  0  0  0  0  0  0
    7.8608  -12.0057   26.9864 C   0  0  0  0  0  0  0  0  0  0  0  0
    7.7645  -13.0204   27.9275 C   0  0  0  0  0  0  0  0  0  0  0  0
    7.2240  -14.2289   27.5377 C   0  0  0  0  0  0  0  0  0  0  0  0
    6.7961  -14.4005   26.2371 C   0  0  0  0  0  0  0  0  0  0  0  0
    8.2194  -15.1332   23.3430 C   0  0  0  0  0  0  0  0  0  0  0  0
    7.7732  -16.2324   22.9395 O   0  0  0  0  0  0  0  0  0  0  0  0
    9.3556  -15.1452   24.1900 N   0  0  0  0  0  0  0  0  0  0  0  0
   10.0854  -16.3928   24.4689 C   0  0  1  0  0  0  0  0  0  0  0  0
   11.5021  -16.1597   24.0532 C   0  0  0  0  0  0  0  0  0  0  0  0
   12.3853  -17.3062   24.2968 C   0  0  0  0  0  0  0  0  0  0  0  0
   12.9765  -17.5087   25.3761 O   0  0  0  0  0  0  0  0  0  0  0  0
    9.9829  -16.6982   25.9129 C   0  0  0  0  0  0  0  0  0  0  0  0
   10.0089  -17.9903   26.4118 O   0  0  0  0  0  0  0  0  0  0  0  0
   12.5818  -18.2283   23.2688 O   0  0  0  0  0  0  0  0  0  0  0  0
    9.8643  -15.7398   26.7522 O   0  0  0  0  0  0  0  0  0  0  0  0
  2  1  1  6
  2  4  1  0
  3  2  1  0
  4  5  1  6
  4  6  1  0
  6  7  2  0
  8  6  1  0
  8  9  1  0
  9 10  1  1
 11 10  1  0
 12 11  2  0
 13 12  1  0
 14 15  1  0
 14 13  2  0
 15 16  2  0
 16 11  1  0
 17 19  1  0
 17  9  1  0
 18 17  2  0
 20 19  1  0
 20 21  1  1
 22 26  1  0
 22 21  1  0
 23 22  2  0
 24 25  1  0
 24 20  1  0
 27 24  2  0
M  END
$$$$
