TFD.pdb
     RDKit          3D

 27 27  0  0  1  0  0  0  0  0999 V2000
    9.1788  -18.9859   19.1928 C   0  0  0  0  0  0  0  0  0  0  0  0
    9.1770  -18.1149   20.4139 C   0  0  1  0  0  0  0  0  0  0  0  0
   10.0617  -18.5730   21.3953 O   0  0  0  0  0  0  0  0  0  0  0  0
    9.3715  -16.6577   20.1228 C   0  0  2  0  0  0  0  0  0  0  0  0
   10.4764  -16.3597   19.2693 N   0  0  0  0  0  0  0  0  0  0  0  0
    9.3968  -15.9189   21.4032 C   0  0  0  0  0  0  0  0  0  0  0  0
   10.5265  -15.6569   21.8912 O   0  0  0  0  0  0  0  0  0  0  0  0
    8.2284  -15.4963   22.1002 N   0  0  0  0  0  0  0  0  0  0  0  0
    8.2502  -14.8596   23.3820 C   0  0  1  0  0  0  0  0  0  0  0  0
    6.9386  -14.1997   23.7418 C   0  0  0  0  0  0  0  0  0  0  0  0
    6.9822  -13.5332   25.0692 C   0  0  0  0  0  0  0  0  0  0  0  0
    7.6953  -12.3619   25.2417 C   0  0  0  0  0  0  0  0  0  0  0  0
    7.7511  -11.7238   26.4672 C   0  0  0  0  0  0  0  0  0  0  0  0
    7.0870  -12.2463   27.5674 C   0  0  0  0  0  0  0  0  0  0  0  0
    6.3713  -13.4155   27.4088 C   0  0  0  0  0  0  0  0  0  0  0  0
    6.3315  -14.0326   26.1752 C   0  0  0  0  0  0  0  0  0  0  0  0
    8.6234  -15.7861   24.4750 C   0  0  0  0  0  0  0  0  0  0  0  0
    7.9542  -16.8276   24.6693 O   0  0  0  0  0  0  0  0  0  0  0  0
    9.7291  -15.5357   25.3255 N   0  0  0  0  0  0  0  0  0  0  0  0
   10.1696  -16.5311   26.3163 C   0  0  1  0  0  0  0  0  0  0  0  0
   11.6625  -16.5652   26.2513 C   0  0  0  0  0  0  0  0  0  0  0  0
   12.1873  -17.3823   25.1509 C   0  0  0  0  0  0  0  0  0  0  0  0
   11.4690  -18.0448   24.3759 O   0  0  0  0  0  0  0  0  0  0  0  0
    9.6902  -16.1229   27.6551 C   0  0  0  0  0  0  0  0  0  0  0  0
    9.2132  -17.0264   28.5907 O   0  0  0  0  0  0  0  0  0  0  0  0
   13.5670  -17.4277   24.9517 O   0  0  0  0  0  0  0  0  0  0  0  0
    9.7093  -14.8856   27.9804 O   0  0  0  0  0  0  0  0  0  0  0  0
  2  1  1  6
  2  4  1  0
  3  2  1  0
  4  5  1  1
  4  6  1  0
  6  7  2  0
  8  6  1  0
  8  9  1  0
  9 10  1  1
 11 10  1  0
 12 11  2  0
 13 12  1  0
 14 15  1  0
 14 13  2  0
 15 16  2  0
 16 11  1  0
 17 19  1  0
 17  9  1  0
 18 17  2  0
 20 19  1  0
 20 21  1  1
 22 26  1  0
 22 21  1  0
 23 22  2  0
 24 25  1  0
 24 20  1  0
 27 24  2  0
M  END
$$$$
