ERR.pdb
     RDKit          3D

 32 31  0  0  1  0  0  0  0  0999 V2000
   28.1072  -23.8281  -16.6388 N   0  0  0  0  0  0  0  0  0  0  0  0
   27.8853  -22.4974  -16.0636 C   0  0  1  0  0  0  0  0  0  0  0  0
   27.5385  -21.6256  -17.2582 C   0  0  0  0  0  0  0  0  0  0  0  0
   28.7143  -21.2726  -18.1121 C   0  0  0  0  0  0  0  0  0  0  0  0
   28.2311  -20.4594  -19.2637 C   0  0  0  0  0  0  0  0  0  0  0  0
   27.0252  -20.1743  -19.4322 O   0  0  0  0  0  0  0  0  0  0  0  0
   26.7612  -22.6236  -15.1012 C   0  0  0  0  0  0  0  0  0  0  0  0
   25.7756  -23.3909  -15.3779 O   0  0  0  0  0  0  0  0  0  0  0  0
   29.1710  -20.0023  -20.1798 O   0  0  0  0  0  0  0  0  0  0  0  0
   27.1022  -20.2025   -6.8880 N   0  0  0  0  0  0  0  0  0  0  0  0
   26.6667  -19.3514   -7.9563 C   0  0  0  0  0  0  0  0  0  0  0  0
   26.9167  -18.0738   -7.8648 N   0  0  0  0  0  0  0  0  0  0  0  0
   25.9863  -19.8418   -9.0836 N   0  0  0  0  0  0  0  0  0  0  0  0
   25.6021  -21.2462   -9.1752 C   0  0  0  0  0  0  0  0  0  0  0  0
   25.0367  -21.5338  -10.5468 C   0  0  0  0  0  0  0  0  0  0  0  0
   26.0566  -21.5421  -11.6280 C   0  0  0  0  0  0  0  0  0  0  0  0
   25.5327  -22.1214  -12.9546 C   0  0  2  0  0  0  0  0  0  0  0  0
   26.6769  -21.9558  -13.8666 N   0  0  0  0  0  0  0  0  0  0  0  0
   24.3850  -21.2963  -13.3587 C   0  0  0  0  0  0  0  0  0  0  0  0
   24.5740  -20.0603  -13.6335 O   0  0  0  0  0  0  0  0  0  0  0  0
   26.6460  -17.3929   -8.5953 N   0  0  0  0  0  0  0  0  0  0  0  0
   19.7726  -26.5788  -15.8067 C   0  0  0  0  0  0  0  0  0  0  0  0
   20.5662  -25.9564  -16.8345 N   0  0  0  0  0  0  0  0  0  0  0  0
   20.9241  -26.6476  -17.8378 N   0  0  0  0  0  0  0  0  0  0  0  0
   20.9529  -24.5952  -16.7430 C   0  0  0  0  0  0  0  0  0  0  0  0
   20.6996  -23.8125  -15.5753 C   0  0  0  0  0  0  0  0  0  0  0  0
   21.0760  -22.3354  -15.7897 C   0  0  0  0  0  0  0  0  0  0  0  0
   20.8230  -21.6360  -14.5307 C   0  0  2  0  0  0  0  0  0  0  0  0
   21.9451  -20.8552  -13.9139 N   0  0  0  0  0  0  0  0  0  0  0  0
   23.0422  -21.7219  -13.4854 C   0  0  0  0  0  0  0  0  0  0  0  0
   21.5668  -19.8742  -12.9113 O   0  0  0  0  0  0  0  0  0  0  0  0
   21.4464  -20.2080  -11.7001 O   0  0  0  0  0  0  0  0  0  0  0  0
  2  1  1  6
  3  2  1  0
  3  4  1  0
  5  9  1  0
  5  4  1  0
  6  5  2  0
  7  2  1  0
  7  8  2  0
 10 11  1  0
 11 13  1  0
 11 12  2  0
 13 14  1  0
 14 15  1  0
 15 16  1  0
 17 16  1  1
 17 18  1  0
 18  7  1  0
 19 29  1  0
 19 17  1  0
 20 19  2  0
 21 22  1  0
 22 23  2  0
 24 22  1  0
 24 25  1  0
 25 26  1  0
 26 27  1  0
 28 27  1  6
 28 29  1  0
 28 30  1  0
 30 32  1  0
 31 30  2  0
M  END
$$$$
