ERR.pdb
     RDKit          3D

 32 31  0  0  1  0  0  0  0  0999 V2000
   26.3844  -20.7800  -17.0523 N   0  0  0  0  0  0  0  0  0  0  0  0
   25.8583  -22.1480  -17.1032 C   0  0  1  0  0  0  0  0  0  0  0  0
   27.0762  -23.0268  -16.8756 C   0  0  0  0  0  0  0  0  0  0  0  0
   26.7841  -24.4925  -16.9286 C   0  0  0  0  0  0  0  0  0  0  0  0
   28.0388  -25.2331  -16.6156 C   0  0  0  0  0  0  0  0  0  0  0  0
   29.1182  -24.6570  -16.3570 O   0  0  0  0  0  0  0  0  0  0  0  0
   24.8549  -22.2668  -16.0146 C   0  0  0  0  0  0  0  0  0  0  0  0
   24.2263  -23.3691  -15.8522 O   0  0  0  0  0  0  0  0  0  0  0  0
   27.9929  -26.6221  -16.6111 O   0  0  0  0  0  0  0  0  0  0  0  0
   24.4198  -20.7817   -7.9355 N   0  0  0  0  0  0  0  0  0  0  0  0
   23.4986  -20.3958   -8.9641 C   0  0  0  0  0  0  0  0  0  0  0  0
   22.3088  -19.9975   -8.6052 N   0  0  0  0  0  0  0  0  0  0  0  0
   23.8305  -20.4340  -10.3288 N   0  0  0  0  0  0  0  0  0  0  0  0
   25.0355  -21.1158  -10.7886 C   0  0  0  0  0  0  0  0  0  0  0  0
   25.1745  -20.9565  -12.2849 C   0  0  0  0  0  0  0  0  0  0  0  0
   23.9381  -20.4767  -12.9560 C   0  0  0  0  0  0  0  0  0  0  0  0
   23.4661  -21.3994  -14.0943 C   0  0  2  0  0  0  0  0  0  0  0  0
   24.5206  -21.2434  -15.1100 N   0  0  0  0  0  0  0  0  0  0  0  0
   22.1733  -20.8773  -14.5607 C   0  0  0  0  0  0  0  0  0  0  0  0
   22.1587  -19.8814  -15.3650 O   0  0  0  0  0  0  0  0  0  0  0  0
   21.5733  -19.7362   -9.2845 N   0  0  0  0  0  0  0  0  0  0  0  0
   14.3038  -24.6134  -14.4958 C   0  0  0  0  0  0  0  0  0  0  0  0
   14.6487  -23.9548  -15.7290 N   0  0  0  0  0  0  0  0  0  0  0  0
   14.1369  -24.3732  -16.8132 N   0  0  0  0  0  0  0  0  0  0  0  0
   15.5456  -22.8567  -15.7512 C   0  0  0  0  0  0  0  0  0  0  0  0
   16.1494  -22.3474  -14.5612 C   0  0  0  0  0  0  0  0  0  0  0  0
   17.1449  -21.2147  -14.8700 C   0  0  0  0  0  0  0  0  0  0  0  0
   18.4749  -21.6908  -14.4920 C   0  0  1  0  0  0  0  0  0  0  0  0
   19.6372  -20.7578  -14.6585 N   0  0  0  0  0  0  0  0  0  0  0  0
   20.8915  -21.3635  -14.2131 C   0  0  0  0  0  0  0  0  0  0  0  0
   19.4482  -19.4052  -14.1633 O   0  0  0  0  0  0  0  0  0  0  0  0
   19.9266  -19.0572  -13.0484 O   0  0  0  0  0  0  0  0  0  0  0  0
  2  1  1  1
  3  2  1  0
  3  4  1  0
  5  9  1  0
  5  4  1  0
  6  5  2  0
  7  2  1  0
  7  8  2  0
 10 11  1  0
 11 13  1  0
 11 12  2  0
 13 14  1  0
 14 15  1  0
 15 16  1  0
 17 16  1  1
 17 18  1  0
 18  7  1  0
 19 29  1  0
 19 17  1  0
 20 19  2  0
 21 22  1  0
 22 23  2  0
 24 22  1  0
 24 25  1  0
 25 26  1  0
 26 27  1  0
 28 27  1  6
 28 29  1  0
 28 30  1  0
 30 32  1  0
 31 30  2  0
M  END
$$$$
