ERR.pdb
     RDKit          3D

 32 31  0  0  1  0  0  0  0  0999 V2000
   25.7659  -14.7790  -17.7969 N   0  0  0  0  0  0  0  0  0  0  0  0
   25.4282  -15.1303  -16.4136 C   0  0  1  0  0  0  0  0  0  0  0  0
   24.4996  -14.0171  -15.9600 C   0  0  0  0  0  0  0  0  0  0  0  0
   23.1816  -14.0022  -16.6664 C   0  0  0  0  0  0  0  0  0  0  0  0
   22.3711  -12.8750  -16.1248 C   0  0  0  0  0  0  0  0  0  0  0  0
   22.8199  -12.0583  -15.2908 O   0  0  0  0  0  0  0  0  0  0  0  0
   24.7573  -16.4547  -16.4546 C   0  0  0  0  0  0  0  0  0  0  0  0
   23.9339  -16.7169  -17.3980 O   0  0  0  0  0  0  0  0  0  0  0  0
   21.0642  -12.7349  -16.5764 O   0  0  0  0  0  0  0  0  0  0  0  0
   27.4667  -23.3870  -16.0451 N   0  0  0  0  0  0  0  0  0  0  0  0
   28.5274  -22.4226  -16.0616 C   0  0  0  0  0  0  0  0  0  0  0  0
   29.5208  -22.6161  -16.8855 N   0  0  0  0  0  0  0  0  0  0  0  0
   28.5329  -21.2910  -15.2287 N   0  0  0  0  0  0  0  0  0  0  0  0
   27.3372  -20.8969  -14.4915 C   0  0  0  0  0  0  0  0  0  0  0  0
   26.4135  -20.1136  -15.3954 C   0  0  0  0  0  0  0  0  0  0  0  0
   25.1387  -19.7086  -14.7472 C   0  0  0  0  0  0  0  0  0  0  0  0
   24.2731  -18.7895  -15.6280 C   0  0  2  0  0  0  0  0  0  0  0  0
   24.9517  -17.4872  -15.5200 N   0  0  0  0  0  0  0  0  0  0  0  0
   22.9313  -18.7606  -15.0278 C   0  0  0  0  0  0  0  0  0  0  0  0
   22.5675  -17.7255  -14.3682 O   0  0  0  0  0  0  0  0  0  0  0  0
   30.2965  -21.9413  -17.0014 N   0  0  0  0  0  0  0  0  0  0  0  0
   16.5450  -15.7853  -12.8928 C   0  0  0  0  0  0  0  0  0  0  0  0
   17.7598  -15.1058  -13.2614 N   0  0  0  0  0  0  0  0  0  0  0  0
   18.0885  -14.0512  -12.6349 N   0  0  0  0  0  0  0  0  0  0  0  0
   18.5868  -15.5910  -14.3062 C   0  0  0  0  0  0  0  0  0  0  0  0
   18.2051  -16.6997  -15.1217 C   0  0  0  0  0  0  0  0  0  0  0  0
   18.6239  -18.0394  -14.4900 C   0  0  0  0  0  0  0  0  0  0  0  0
   19.9909  -18.3175  -14.9285 C   0  0  1  0  0  0  0  0  0  0  0  0
   20.5924  -19.6463  -14.5798 N   0  0  0  0  0  0  0  0  0  0  0  0
   21.9544  -19.7811  -15.0948 C   0  0  0  0  0  0  0  0  0  0  0  0
   19.7650  -20.8115  -14.8404 O   0  0  0  0  0  0  0  0  0  0  0  0
   20.0561  -21.6097  -15.7738 O   0  0  0  0  0  0  0  0  0  0  0  0
  2  1  1  6
  3  2  1  0
  3  4  1  0
  5  9  1  0
  5  4  1  0
  6  5  2  0
  7  2  1  0
  7  8  2  0
 10 11  1  0
 11 13  1  0
 11 12  2  0
 13 14  1  0
 14 15  1  0
 15 16  1  0
 17 16  1  1
 17 18  1  0
 18  7  1  0
 19 29  1  0
 19 17  1  0
 20 19  2  0
 21 22  1  0
 22 23  2  0
 24 22  1  0
 24 25  1  0
 25 26  1  0
 26 27  1  0
 28 27  1  1
 28 29  1  0
 28 30  1  0
 30 32  1  0
 31 30  2  0
M  END
$$$$
