ERR.pdb
     RDKit          3D

 32 31  0  0  1  0  0  0  0  0999 V2000
   26.6153  -23.3979  -17.7623 N   0  0  0  0  0  0  0  0  0  0  0  0
   26.7378  -22.1022  -17.0863 C   0  0  1  0  0  0  0  0  0  0  0  0
   26.2015  -21.1009  -18.0949 C   0  0  0  0  0  0  0  0  0  0  0  0
   27.2266  -20.6139  -19.0687 C   0  0  0  0  0  0  0  0  0  0  0  0
   28.0919  -19.6152  -18.3796 C   0  0  0  0  0  0  0  0  0  0  0  0
   27.6367  -18.5820  -17.8418 O   0  0  0  0  0  0  0  0  0  0  0  0
   25.9089  -22.1756  -15.8561 C   0  0  0  0  0  0  0  0  0  0  0  0
   24.7749  -22.7667  -15.8926 O   0  0  0  0  0  0  0  0  0  0  0  0
   29.4601  -19.8559  -18.3373 O   0  0  0  0  0  0  0  0  0  0  0  0
   23.8775  -21.0955   -7.2169 N   0  0  0  0  0  0  0  0  0  0  0  0
   24.9930  -20.6607   -8.0057 C   0  0  0  0  0  0  0  0  0  0  0  0
   25.1033  -19.3862   -8.2636 N   0  0  0  0  0  0  0  0  0  0  0  0
   25.9580  -21.5514   -8.5052 N   0  0  0  0  0  0  0  0  0  0  0  0
   26.6407  -21.2868   -9.7671 C   0  0  0  0  0  0  0  0  0  0  0  0
   25.7216  -21.6070  -10.9232 C   0  0  0  0  0  0  0  0  0  0  0  0
   26.3523  -21.4351  -12.2581 C   0  0  0  0  0  0  0  0  0  0  0  0
   25.3935  -21.7280  -13.4265 C   0  0  2  0  0  0  0  0  0  0  0  0
   26.2687  -21.6385  -14.6073 N   0  0  0  0  0  0  0  0  0  0  0  0
   24.3728  -20.6699  -13.4185 C   0  0  0  0  0  0  0  0  0  0  0  0
   24.6654  -19.5203  -13.8998 O   0  0  0  0  0  0  0  0  0  0  0  0
   25.8493  -18.9955   -8.8648 N   0  0  0  0  0  0  0  0  0  0  0  0
   22.6542  -19.5886  -19.6953 C   0  0  0  0  0  0  0  0  0  0  0  0
   22.5670  -18.3346  -18.9930 N   0  0  0  0  0  0  0  0  0  0  0  0
   22.0449  -17.3367  -19.5795 N   0  0  0  0  0  0  0  0  0  0  0  0
   23.0533  -18.1975  -17.6680 C   0  0  0  0  0  0  0  0  0  0  0  0
   23.1498  -19.3101  -16.7775 C   0  0  0  0  0  0  0  0  0  0  0  0
   21.8014  -19.6132  -16.1000 C   0  0  0  0  0  0  0  0  0  0  0  0
   22.0274  -20.7031  -15.1516 C   0  0  2  0  0  0  0  0  0  0  0  0
   21.8590  -20.4184  -13.6889 N   0  0  0  0  0  0  0  0  0  0  0  0
   23.0525  -20.7743  -12.9225 C   0  0  0  0  0  0  0  0  0  0  0  0
   20.6275  -20.8934  -13.0820 O   0  0  0  0  0  0  0  0  0  0  0  0
   19.5152  -20.3992  -13.4160 O   0  0  0  0  0  0  0  0  0  0  0  0
  2  1  1  6
  3  2  1  0
  3  4  1  0
  5  9  1  0
  5  4  1  0
  6  5  2  0
  7  2  1  0
  7  8  2  0
 10 11  1  0
 11 13  1  0
 11 12  2  0
 13 14  1  0
 14 15  1  0
 15 16  1  0
 17 16  1  1
 17 18  1  0
 18  7  1  0
 19 29  1  0
 19 17  1  0
 20 19  2  0
 21 22  1  0
 22 23  2  0
 24 22  1  0
 24 25  1  0
 25 26  1  0
 26 27  1  0
 28 27  1  6
 28 29  1  0
 28 30  1  0
 30 32  1  0
 31 30  2  0
M  END
$$$$
