CEF.pdb
     RDKit          3D

 27 27  0  0  1  0  0  0  0  0999 V2000
    7.6570  -16.9911   19.8292 N   0  0  0  0  0  0  0  0  0  0  0  0
    7.7601  -16.0912   20.9505 C   0  0  1  0  0  0  0  0  0  0  0  0
    6.4333  -15.5642   21.4078 C   0  0  0  0  0  0  0  0  0  0  0  0
    6.4873  -14.4579   22.8109 S   0  0  0  0  0  0  0  0  0  0  0  0
    8.5280  -16.7432   22.0293 C   0  0  0  0  0  0  0  0  0  0  0  0
    8.2476  -17.8859   22.4846 O   0  0  0  0  0  0  0  0  0  0  0  0
    9.6431  -16.0941   22.6161 N   0  0  0  0  0  0  0  0  0  0  0  0
   10.4695  -16.6480   23.6587 C   0  0  1  0  0  0  0  0  0  0  0  0
   11.8172  -17.0982   23.2475 C   0  0  0  0  0  0  0  0  0  0  0  0
   12.2047  -16.7979   21.8465 C   0  0  0  0  0  0  0  0  0  0  0  0
   13.6005  -17.2740   21.6057 C   0  0  0  0  0  0  0  0  0  0  0  0
   14.1076  -18.2455   22.2751 O   0  0  0  0  0  0  0  0  0  0  0  0
   10.4286  -15.8239   24.9094 C   0  0  0  0  0  0  0  0  0  0  0  0
   10.7572  -14.6157   24.9285 O   0  0  0  0  0  0  0  0  0  0  0  0
   14.4386  -16.7101   20.6530 O   0  0  0  0  0  0  0  0  0  0  0  0
   10.0124  -16.3805   26.1515 N   0  0  0  0  0  0  0  0  0  0  0  0
    9.9753  -15.6593   27.4057 C   0  0  1  0  0  0  0  0  0  0  0  0
    8.5516  -15.4175   27.8530 C   0  0  0  0  0  0  0  0  0  0  0  0
    7.9082  -14.2995   27.1640 C   0  0  0  0  0  0  0  0  0  0  0  0
    6.9718  -14.5600   26.1799 C   0  0  0  0  0  0  0  0  0  0  0  0
    6.3784  -13.4820   25.5604 C   0  0  0  0  0  0  0  0  0  0  0  0
    6.6646  -12.1665   25.8663 C   0  0  0  0  0  0  0  0  0  0  0  0
    7.6073  -11.9095   26.8573 C   0  0  0  0  0  0  0  0  0  0  0  0
    8.2062  -12.9801   27.4821 C   0  0  0  0  0  0  0  0  0  0  0  0
   10.7880  -16.4013   28.3958 C   0  0  0  0  0  0  0  0  0  0  0  0
   10.9596  -15.8743   29.5445 O   0  0  0  0  0  0  0  0  0  0  0  0
   11.3796  -17.6320   28.1664 O   0  0  0  0  0  0  0  0  0  0  0  0
  2  1  1  6
  3  2  1  0
  4  3  1  0
  5  6  2  0
  5  2  1  0
  7  5  1  0
  8  7  1  0
  8  9  1  6
 10  9  1  0
 11 10  1  0
 12 11  2  0
 13  8  1  0
 14 13  2  0
 15 11  1  0
 16 13  1  0
 17 18  1  1
 17 16  1  0
 18 19  1  0
 19 24  2  0
 19 20  1  0
 20 21  2  0
 21 22  1  0
 23 22  2  0
 24 23  1  0
 25 17  1  0
 26 25  2  0
 27 25  1  0
M  END
$$$$
