CEF.pdb
     RDKit          3D

 27 27  0  0  1  0  0  0  0  0999 V2000
    6.8800  -14.8676   19.2005 N   0  0  0  0  0  0  0  0  0  0  0  0
    8.0965  -14.5052   19.8835 C   0  0  1  0  0  0  0  0  0  0  0  0
    8.1408  -13.0611   20.2833 C   0  0  0  0  0  0  0  0  0  0  0  0
    8.0854  -11.8879   18.9357 S   0  0  0  0  0  0  0  0  0  0  0  0
    8.3126  -15.4272   21.0157 C   0  0  0  0  0  0  0  0  0  0  0  0
    7.3705  -15.9787   21.6480 O   0  0  0  0  0  0  0  0  0  0  0  0
    9.6243  -15.7393   21.4528 N   0  0  0  0  0  0  0  0  0  0  0  0
    9.9535  -16.7422   22.4339 C   0  0  1  0  0  0  0  0  0  0  0  0
   11.1636  -17.5468   22.1578 C   0  0  0  0  0  0  0  0  0  0  0  0
   11.4688  -18.6205   23.1361 C   0  0  0  0  0  0  0  0  0  0  0  0
   12.7540  -19.2834   22.7592 C   0  0  0  0  0  0  0  0  0  0  0  0
   12.8068  -20.5295   22.4533 O   0  0  0  0  0  0  0  0  0  0  0  0
    9.8431  -16.2201   23.8341 C   0  0  0  0  0  0  0  0  0  0  0  0
   10.4345  -15.1834   24.2128 O   0  0  0  0  0  0  0  0  0  0  0  0
   13.9672  -18.6098   22.7110 O   0  0  0  0  0  0  0  0  0  0  0  0
    9.0540  -16.8856   24.8140 N   0  0  0  0  0  0  0  0  0  0  0  0
    8.9606  -16.4903   26.2031 C   0  0  1  0  0  0  0  0  0  0  0  0
    7.5611  -16.0333   26.5464 C   0  0  0  0  0  0  0  0  0  0  0  0
    7.3679  -14.5914   26.3971 C   0  0  0  0  0  0  0  0  0  0  0  0
    8.3120  -13.7248   26.9174 C   0  0  0  0  0  0  0  0  0  0  0  0
    8.1021  -12.3738   26.7480 C   0  0  0  0  0  0  0  0  0  0  0  0
    7.0101  -11.8420   26.0918 C   0  0  0  0  0  0  0  0  0  0  0  0
    6.0629  -12.7181   25.5698 C   0  0  0  0  0  0  0  0  0  0  0  0
    6.2634  -14.0700   25.7343 C   0  0  0  0  0  0  0  0  0  0  0  0
    9.4382  -17.6129   27.0416 C   0  0  0  0  0  0  0  0  0  0  0  0
    9.5310  -18.7650   26.5024 O   0  0  0  0  0  0  0  0  0  0  0  0
    9.7936  -17.5049   28.3754 O   0  0  0  0  0  0  0  0  0  0  0  0
  2  1  1  1
  3  2  1  0
  4  3  1  0
  5  6  2  0
  5  2  1  0
  7  5  1  0
  8  7  1  0
  8  9  1  6
 10  9  1  0
 11 10  1  0
 12 11  2  0
 13  8  1  0
 14 13  2  0
 15 11  1  0
 16 13  1  0
 17 18  1  1
 17 16  1  0
 18 19  1  0
 19 24  2  0
 19 20  1  0
 20 21  2  0
 21 22  1  0
 23 22  2  0
 24 23  1  0
 25 17  1  0
 26 25  2  0
 27 25  1  0
M  END
$$$$
