CEF.pdb
     RDKit          3D

 27 27  0  0  1  0  0  0  0  0999 V2000
    6.9323  -14.6003   19.2466 N   0  0  0  0  0  0  0  0  0  0  0  0
    8.1414  -14.4069   20.0072 C   0  0  1  0  0  0  0  0  0  0  0  0
    8.3932  -12.9719   20.3599 C   0  0  0  0  0  0  0  0  0  0  0  0
    8.5786  -11.8600   18.9724 S   0  0  0  0  0  0  0  0  0  0  0  0
    8.1250  -15.2987   21.1832 C   0  0  0  0  0  0  0  0  0  0  0  0
    7.1099  -15.9597   21.5359 O   0  0  0  0  0  0  0  0  0  0  0  0
    9.2809  -15.4532   21.9888 N   0  0  0  0  0  0  0  0  0  0  0  0
    9.5297  -16.5609   22.8764 C   0  0  1  0  0  0  0  0  0  0  0  0
    9.2972  -17.9085   22.3125 C   0  0  0  0  0  0  0  0  0  0  0  0
    9.5717  -19.0504   23.2203 C   0  0  0  0  0  0  0  0  0  0  0  0
    9.3727  -20.3320   22.4782 C   0  0  0  0  0  0  0  0  0  0  0  0
    9.0739  -20.3500   21.2293 O   0  0  0  0  0  0  0  0  0  0  0  0
   10.8132  -16.4011   23.6328 C   0  0  0  0  0  0  0  0  0  0  0  0
   11.8564  -17.0209   23.3238 O   0  0  0  0  0  0  0  0  0  0  0  0
    9.4963  -21.5794   23.0755 O   0  0  0  0  0  0  0  0  0  0  0  0
   10.9102  -15.5294   24.7537 N   0  0  0  0  0  0  0  0  0  0  0  0
    9.8569  -15.3138   25.7227 C   0  0  1  0  0  0  0  0  0  0  0  0
    8.5440  -15.0044   25.0403 C   0  0  0  0  0  0  0  0  0  0  0  0
    7.8793  -13.8149   25.5714 C   0  0  0  0  0  0  0  0  0  0  0  0
    8.5399  -13.0271   26.4965 C   0  0  0  0  0  0  0  0  0  0  0  0
    7.8870  -11.9086   26.9663 C   0  0  0  0  0  0  0  0  0  0  0  0
    6.6198  -11.5338   26.5666 C   0  0  0  0  0  0  0  0  0  0  0  0
    5.9593  -12.3297   25.6354 C   0  0  0  0  0  0  0  0  0  0  0  0
    6.6032  -13.4498   25.1602 C   0  0  0  0  0  0  0  0  0  0  0  0
    9.7954  -16.4924   26.6162 C   0  0  0  0  0  0  0  0  0  0  0  0
    9.4778  -17.6161   26.1032 O   0  0  0  0  0  0  0  0  0  0  0  0
   10.0583  -16.4659   27.9753 O   0  0  0  0  0  0  0  0  0  0  0  0
  2  1  1  1
  3  2  1  0
  4  3  1  0
  5  6  2  0
  5  2  1  0
  7  5  1  0
  8  7  1  0
  8  9  1  6
 10  9  1  0
 11 10  1  0
 12 11  2  0
 13  8  1  0
 14 13  2  0
 15 11  1  0
 16 13  1  0
 17 18  1  6
 17 16  1  0
 18 19  1  0
 19 24  2  0
 19 20  1  0
 20 21  2  0
 21 22  1  0
 23 22  2  0
 24 23  1  0
 25 17  1  0
 26 25  2  0
 27 25  1  0
M  END
$$$$
