CEF.pdb
     RDKit          3D

 27 27  0  0  1  0  0  0  0  0999 V2000
    6.6693  -14.1923   18.9717 N   0  0  0  0  0  0  0  0  0  0  0  0
    8.0039  -14.6276   19.2991 C   0  0  1  0  0  0  0  0  0  0  0  0
    9.0272  -13.5396   19.1712 C   0  0  0  0  0  0  0  0  0  0  0  0
    8.7270  -12.0813   20.1605 S   0  0  0  0  0  0  0  0  0  0  0  0
    7.9960  -15.2625   20.6316 C   0  0  0  0  0  0  0  0  0  0  0  0
    7.2201  -14.9091   21.5615 O   0  0  0  0  0  0  0  0  0  0  0  0
    8.8856  -16.3246   20.9309 N   0  0  0  0  0  0  0  0  0  0  0  0
    8.9500  -17.0205   22.1912 C   0  0  1  0  0  0  0  0  0  0  0  0
    9.2196  -18.4731   22.1167 C   0  0  0  0  0  0  0  0  0  0  0  0
    9.2798  -19.1915   23.4142 C   0  0  0  0  0  0  0  0  0  0  0  0
    9.6542  -20.6180   23.1736 C   0  0  0  0  0  0  0  0  0  0  0  0
   10.7041  -21.1385   23.6990 O   0  0  0  0  0  0  0  0  0  0  0  0
    9.7604  -16.2748   23.2072 C   0  0  0  0  0  0  0  0  0  0  0  0
   10.9009  -15.8229   22.9561 O   0  0  0  0  0  0  0  0  0  0  0  0
    8.9042  -21.4733   22.3774 O   0  0  0  0  0  0  0  0  0  0  0  0
    9.2696  -16.0433   24.5230 N   0  0  0  0  0  0  0  0  0  0  0  0
   10.0097  -15.3756   25.5723 C   0  0  1  0  0  0  0  0  0  0  0  0
    9.7624  -13.8844   25.5490 C   0  0  0  0  0  0  0  0  0  0  0  0
    8.3963  -13.5163   25.9192 C   0  0  0  0  0  0  0  0  0  0  0  0
    7.3770  -13.6864   24.9999 C   0  0  0  0  0  0  0  0  0  0  0  0
    6.1015  -13.3392   25.3876 C   0  0  0  0  0  0  0  0  0  0  0  0
    5.7875  -12.8354   26.6341 C   0  0  0  0  0  0  0  0  0  0  0  0
    6.8165  -12.6663   27.5558 C   0  0  0  0  0  0  0  0  0  0  0  0
    8.0947  -13.0100   27.1776 C   0  0  0  0  0  0  0  0  0  0  0  0
    9.6662  -16.0118   26.8640 C   0  0  0  0  0  0  0  0  0  0  0  0
    8.7618  -16.9111   26.8662 O   0  0  0  0  0  0  0  0  0  0  0  0
   10.2566  -15.7014   28.0773 O   0  0  0  0  0  0  0  0  0  0  0  0
  2  1  1  1
  3  2  1  0
  4  3  1  0
  5  6  2  0
  5  2  1  0
  7  5  1  0
  8  7  1  0
  8  9  1  6
 10  9  1  0
 11 10  1  0
 12 11  2  0
 13  8  1  0
 14 13  2  0
 15 11  1  0
 16 13  1  0
 17 18  1  1
 17 16  1  0
 18 19  1  0
 19 24  2  0
 19 20  1  0
 20 21  2  0
 21 22  1  0
 23 22  2  0
 24 23  1  0
 25 17  1  0
 26 25  2  0
 27 25  1  0
M  END
$$$$
