CEF.pdb
     RDKit          3D

 27 27  0  0  1  0  0  0  0  0999 V2000
    7.3911  -14.3239   17.9835 N   0  0  0  0  0  0  0  0  0  0  0  0
    8.6961  -14.5057   18.5681 C   0  0  1  0  0  0  0  0  0  0  0  0
    9.4245  -13.2157   18.7974 C   0  0  0  0  0  0  0  0  0  0  0  0
    8.7264  -12.1507   20.0520 S   0  0  0  0  0  0  0  0  0  0  0  0
    8.5730  -15.3269   19.7883 C   0  0  0  0  0  0  0  0  0  0  0  0
    7.5241  -15.3736   20.4878 O   0  0  0  0  0  0  0  0  0  0  0  0
    9.6590  -16.1186   20.2387 N   0  0  0  0  0  0  0  0  0  0  0  0
    9.6535  -16.9322   21.4281 C   0  0  1  0  0  0  0  0  0  0  0  0
   10.5539  -18.1058   21.4152 C   0  0  0  0  0  0  0  0  0  0  0  0
   10.4481  -18.9946   20.2311 C   0  0  0  0  0  0  0  0  0  0  0  0
   10.8670  -20.3778   20.6110 C   0  0  0  0  0  0  0  0  0  0  0  0
   11.9254  -20.5963   21.3048 O   0  0  0  0  0  0  0  0  0  0  0  0
    9.7034  -16.1064   22.6773 C   0  0  0  0  0  0  0  0  0  0  0  0
   10.3200  -15.0182   22.7387 O   0  0  0  0  0  0  0  0  0  0  0  0
   10.1519  -21.5114   20.2486 O   0  0  0  0  0  0  0  0  0  0  0  0
    9.0476  -16.5239   23.8695 N   0  0  0  0  0  0  0  0  0  0  0  0
    8.6418  -15.6379   24.9396 C   0  0  1  0  0  0  0  0  0  0  0  0
    7.7860  -14.5073   24.4157 C   0  0  0  0  0  0  0  0  0  0  0  0
    7.3542  -13.5751   25.4565 C   0  0  0  0  0  0  0  0  0  0  0  0
    6.0853  -13.6998   25.9925 C   0  0  0  0  0  0  0  0  0  0  0  0
    5.7175  -12.8110   26.9787 C   0  0  0  0  0  0  0  0  0  0  0  0
    6.5400  -11.8110   27.4578 C   0  0  0  0  0  0  0  0  0  0  0  0
    7.8160  -11.6896   26.9154 C   0  0  0  0  0  0  0  0  0  0  0  0
    8.1928  -12.5729   25.9291 C   0  0  0  0  0  0  0  0  0  0  0  0
    7.9781  -16.4449   25.9881 C   0  0  0  0  0  0  0  0  0  0  0  0
    8.3325  -16.2602   27.1993 O   0  0  0  0  0  0  0  0  0  0  0  0
    6.9955  -17.3912   25.7508 O   0  0  0  0  0  0  0  0  0  0  0  0
  2  1  1  1
  3  2  1  0
  4  3  1  0
  5  6  2  0
  5  2  1  0
  7  5  1  0
  8  7  1  0
  8  9  1  6
 10  9  1  0
 11 10  1  0
 12 11  2  0
 13  8  1  0
 14 13  2  0
 15 11  1  0
 16 13  1  0
 17 18  1  6
 17 16  1  0
 18 19  1  0
 19 24  2  0
 19 20  1  0
 20 21  2  0
 21 22  1  0
 23 22  2  0
 24 23  1  0
 25 17  1  0
 26 25  2  0
 27 25  1  0
M  END
$$$$
