CEF.pdb
     RDKit          3D

 27 27  0  0  1  0  0  0  0  0999 V2000
    6.3468  -17.3050   18.9831 N   0  0  0  0  0  0  0  0  0  0  0  0
    7.4134  -16.3760   19.2607 C   0  0  1  0  0  0  0  0  0  0  0  0
    6.9912  -14.9421   19.1467 C   0  0  0  0  0  0  0  0  0  0  0  0
    8.2891  -13.7367   19.3878 S   0  0  0  0  0  0  0  0  0  0  0  0
    8.0145  -16.7012   20.5689 C   0  0  0  0  0  0  0  0  0  0  0  0
    7.3333  -16.9168   21.6087 O   0  0  0  0  0  0  0  0  0  0  0  0
    9.4217  -16.7862   20.7161 N   0  0  0  0  0  0  0  0  0  0  0  0
   10.1129  -16.9912   21.9639 C   0  0  1  0  0  0  0  0  0  0  0  0
   11.5173  -17.4439   21.8604 C   0  0  0  0  0  0  0  0  0  0  0  0
   12.2062  -17.7277   23.1442 C   0  0  0  0  0  0  0  0  0  0  0  0
   13.6370  -18.0641   22.8748 C   0  0  0  0  0  0  0  0  0  0  0  0
   14.5515  -17.8813   23.7576 O   0  0  0  0  0  0  0  0  0  0  0  0
    9.8753  -15.8720   22.9315 C   0  0  0  0  0  0  0  0  0  0  0  0
    9.9778  -14.6679   22.6037 O   0  0  0  0  0  0  0  0  0  0  0  0
   14.0758  -18.5931   21.6683 O   0  0  0  0  0  0  0  0  0  0  0  0
    9.5203  -16.1253   24.2863 N   0  0  0  0  0  0  0  0  0  0  0  0
    9.2048  -15.1020   25.2600 C   0  0  1  0  0  0  0  0  0  0  0  0
    7.8232  -14.5349   25.0259 C   0  0  0  0  0  0  0  0  0  0  0  0
    7.4497  -13.4992   25.9884 C   0  0  0  0  0  0  0  0  0  0  0  0
    8.1338  -13.4112   27.1873 C   0  0  0  0  0  0  0  0  0  0  0  0
    7.7617  -12.4161   28.0644 C   0  0  0  0  0  0  0  0  0  0  0  0
    6.7518  -11.5088   27.8137 C   0  0  0  0  0  0  0  0  0  0  0  0
    6.0665  -11.6013   26.6059 C   0  0  0  0  0  0  0  0  0  0  0  0
    6.4307  -12.5925   25.7229 C   0  0  0  0  0  0  0  0  0  0  0  0
    9.3882  -15.6725   26.6136 C   0  0  0  0  0  0  0  0  0  0  0  0
    9.5835  -14.8652   27.5816 O   0  0  0  0  0  0  0  0  0  0  0  0
    9.3637  -17.0249   26.9090 O   0  0  0  0  0  0  0  0  0  0  0  0
  2  1  1  1
  3  2  1  0
  4  3  1  0
  5  6  2  0
  5  2  1  0
  7  5  1  0
  8  7  1  0
  8  9  1  6
 10  9  1  0
 11 10  1  0
 12 11  2  0
 13  8  1  0
 14 13  2  0
 15 11  1  0
 16 13  1  0
 17 18  1  1
 17 16  1  0
 18 19  1  0
 19 24  2  0
 19 20  1  0
 20 21  2  0
 21 22  1  0
 23 22  2  0
 24 23  1  0
 25 17  1  0
 26 25  2  0
 27 25  1  0
M  END
$$$$
