CEF.pdb
     RDKit          3D

 27 27  0  0  1  0  0  0  0  0999 V2000
    6.4457  -21.1242   21.6687 N   0  0  0  0  0  0  0  0  0  0  0  0
    5.8568  -19.8372   21.3954 C   0  0  1  0  0  0  0  0  0  0  0  0
    4.7356  -19.4915   22.3284 C   0  0  0  0  0  0  0  0  0  0  0  0
    5.2013  -19.2628   24.0391 S   0  0  0  0  0  0  0  0  0  0  0  0
    6.9191  -18.8130   21.3609 C   0  0  0  0  0  0  0  0  0  0  0  0
    8.0626  -18.9852   21.8653 O   0  0  0  0  0  0  0  0  0  0  0  0
    6.6921  -17.5575   20.7434 N   0  0  0  0  0  0  0  0  0  0  0  0
    7.5645  -16.4150   20.8449 C   0  0  1  0  0  0  0  0  0  0  0  0
    7.5741  -15.5011   19.6818 C   0  0  0  0  0  0  0  0  0  0  0  0
    8.5917  -14.4210   19.7108 C   0  0  0  0  0  0  0  0  0  0  0  0
    8.6222  -13.7333   18.3845 C   0  0  0  0  0  0  0  0  0  0  0  0
    7.7442  -13.9739   17.4787 O   0  0  0  0  0  0  0  0  0  0  0  0
    7.4621  -15.7432   22.1804 C   0  0  0  0  0  0  0  0  0  0  0  0
    6.3750  -15.6231   22.7900 O   0  0  0  0  0  0  0  0  0  0  0  0
    9.5870  -12.7961   18.0399 O   0  0  0  0  0  0  0  0  0  0  0  0
    8.6076  -15.2003   22.8275 N   0  0  0  0  0  0  0  0  0  0  0  0
    8.5832  -14.4998   24.0938 C   0  0  1  0  0  0  0  0  0  0  0  0
    7.3377  -13.6530   24.2239 C   0  0  0  0  0  0  0  0  0  0  0  0
    7.1938  -13.0297   25.5390 C   0  0  0  0  0  0  0  0  0  0  0  0
    8.1928  -12.1941   26.0047 C   0  0  0  0  0  0  0  0  0  0  0  0
    8.0176  -11.6160   27.2429 C   0  0  0  0  0  0  0  0  0  0  0  0
    6.9078  -11.8230   28.0375 C   0  0  0  0  0  0  0  0  0  0  0  0
    5.9052  -12.6645   27.5645 C   0  0  0  0  0  0  0  0  0  0  0  0
    6.0711  -13.2472   26.3285 C   0  0  0  0  0  0  0  0  0  0  0  0
    8.7391  -15.4929   25.1804 C   0  0  0  0  0  0  0  0  0  0  0  0
    8.9241  -15.0591   26.3654 O   0  0  0  0  0  0  0  0  0  0  0  0
    8.6989  -16.8658   25.0053 O   0  0  0  0  0  0  0  0  0  0  0  0
  2  1  1  1
  3  2  1  0
  4  3  1  0
  5  6  2  0
  5  2  1  0
  7  5  1  0
  8  7  1  0
  8  9  1  6
 10  9  1  0
 11 10  1  0
 12 11  2  0
 13  8  1  0
 14 13  2  0
 15 11  1  0
 16 13  1  0
 17 18  1  1
 17 16  1  0
 18 19  1  0
 19 24  2  0
 19 20  1  0
 20 21  2  0
 21 22  1  0
 23 22  2  0
 24 23  1  0
 25 17  1  0
 26 25  2  0
 27 25  1  0
M  END
$$$$
