CEF.pdb
     RDKit          3D

 27 27  0  0  1  0  0  0  0  0999 V2000
    6.2615  -17.3855   19.4900 N   0  0  0  0  0  0  0  0  0  0  0  0
    7.5224  -16.6885   19.5363 C   0  0  1  0  0  0  0  0  0  0  0  0
    7.3901  -15.2137   19.3021 C   0  0  0  0  0  0  0  0  0  0  0  0
    7.3154  -14.2046   20.7757 S   0  0  0  0  0  0  0  0  0  0  0  0
    8.2135  -17.0153   20.7989 C   0  0  0  0  0  0  0  0  0  0  0  0
    7.6058  -17.3340   21.8576 O   0  0  0  0  0  0  0  0  0  0  0  0
    9.6283  -16.9826   20.8773 N   0  0  0  0  0  0  0  0  0  0  0  0
   10.3997  -17.2885   22.0555 C   0  0  1  0  0  0  0  0  0  0  0  0
   11.7221  -17.9087   21.8218 C   0  0  0  0  0  0  0  0  0  0  0  0
   12.5442  -18.1643   23.0309 C   0  0  0  0  0  0  0  0  0  0  0  0
   13.8498  -18.7667   22.6239 C   0  0  0  0  0  0  0  0  0  0  0  0
   14.8031  -18.0521   22.1445 O   0  0  0  0  0  0  0  0  0  0  0  0
   10.3914  -16.1624   23.0439 C   0  0  0  0  0  0  0  0  0  0  0  0
   10.5889  -14.9724   22.7077 O   0  0  0  0  0  0  0  0  0  0  0  0
   14.1245  -20.1233   22.7344 O   0  0  0  0  0  0  0  0  0  0  0  0
   10.1589  -16.3926   24.4290 N   0  0  0  0  0  0  0  0  0  0  0  0
    9.6612  -15.3994   25.3566 C   0  0  1  0  0  0  0  0  0  0  0  0
    8.4102  -14.7370   24.8260 C   0  0  0  0  0  0  0  0  0  0  0  0
    7.8305  -13.7645   25.7516 C   0  0  0  0  0  0  0  0  0  0  0  0
    6.4580  -13.5960   25.7839 C   0  0  0  0  0  0  0  0  0  0  0  0
    5.9471  -12.6792   26.6763 C   0  0  0  0  0  0  0  0  0  0  0  0
    6.7240  -11.9260   27.5337 C   0  0  0  0  0  0  0  0  0  0  0  0
    8.1045  -12.0992   27.4976 C   0  0  0  0  0  0  0  0  0  0  0  0
    8.6247  -13.0128   26.6090 C   0  0  0  0  0  0  0  0  0  0  0  0
    9.4744  -16.0442   26.6760 C   0  0  0  0  0  0  0  0  0  0  0  0
    9.6657  -15.3369   27.7200 O   0  0  0  0  0  0  0  0  0  0  0  0
    9.1057  -17.3657   26.8625 O   0  0  0  0  0  0  0  0  0  0  0  0
  2  1  1  1
  3  2  1  0
  4  3  1  0
  5  6  2  0
  5  2  1  0
  7  5  1  0
  8  7  1  0
  8  9  1  6
 10  9  1  0
 11 10  1  0
 12 11  2  0
 13  8  1  0
 14 13  2  0
 15 11  1  0
 16 13  1  0
 17 18  1  6
 17 16  1  0
 18 19  1  0
 19 24  2  0
 19 20  1  0
 20 21  2  0
 21 22  1  0
 23 22  2  0
 24 23  1  0
 25 17  1  0
 26 25  2  0
 27 25  1  0
M  END
$$$$
