CEF.pdb
     RDKit          3D

 27 27  0  0  1  0  0  0  0  0999 V2000
    7.4045  -15.9170   18.2465 N   0  0  0  0  0  0  0  0  0  0  0  0
    8.4828  -15.2652   18.9466 C   0  0  1  0  0  0  0  0  0  0  0  0
    8.2011  -13.8253   19.2542 C   0  0  0  0  0  0  0  0  0  0  0  0
    8.2274  -12.7194   17.8499 S   0  0  0  0  0  0  0  0  0  0  0  0
    8.8351  -16.0553   20.1424 C   0  0  0  0  0  0  0  0  0  0  0  0
    7.9770  -16.6093   20.8829 O   0  0  0  0  0  0  0  0  0  0  0  0
   10.1902  -16.2286   20.5202 N   0  0  0  0  0  0  0  0  0  0  0  0
   10.6370  -16.8723   21.7297 C   0  0  1  0  0  0  0  0  0  0  0  0
   11.8637  -17.6907   21.6136 C   0  0  0  0  0  0  0  0  0  0  0  0
   11.7933  -18.8403   20.6773 C   0  0  0  0  0  0  0  0  0  0  0  0
   13.1264  -19.5126   20.6173 C   0  0  0  0  0  0  0  0  0  0  0  0
   13.4469  -20.4510   21.4333 O   0  0  0  0  0  0  0  0  0  0  0  0
   10.5984  -15.9481   22.9085 C   0  0  0  0  0  0  0  0  0  0  0  0
   11.0533  -14.7823   22.8629 O   0  0  0  0  0  0  0  0  0  0  0  0
   14.1015  -19.1781   19.6871 O   0  0  0  0  0  0  0  0  0  0  0  0
   10.0393  -16.3551   24.1524 N   0  0  0  0  0  0  0  0  0  0  0  0
    9.4192  -15.4623   25.1079 C   0  0  1  0  0  0  0  0  0  0  0  0
    8.3663  -14.6026   24.4464 C   0  0  0  0  0  0  0  0  0  0  0  0
    7.7025  -13.6834   25.3700 C   0  0  0  0  0  0  0  0  0  0  0  0
    6.3629  -13.8670   25.6612 C   0  0  0  0  0  0  0  0  0  0  0  0
    5.7741  -12.9884   26.5440 C   0  0  0  0  0  0  0  0  0  0  0  0
    6.4429  -11.9435   27.1494 C   0  0  0  0  0  0  0  0  0  0  0  0
    7.7908  -11.7629   26.8533 C   0  0  0  0  0  0  0  0  0  0  0  0
    8.3882  -12.6354   25.9721 C   0  0  0  0  0  0  0  0  0  0  0  0
    8.9003  -16.2706   26.2343 C   0  0  0  0  0  0  0  0  0  0  0  0
    8.1462  -17.2624   25.9614 O   0  0  0  0  0  0  0  0  0  0  0  0
    9.1737  -16.0288   27.5699 O   0  0  0  0  0  0  0  0  0  0  0  0
  2  1  1  1
  3  2  1  0
  4  3  1  0
  5  6  2  0
  5  2  1  0
  7  5  1  0
  8  7  1  0
  8  9  1  6
 10  9  1  0
 11 10  1  0
 12 11  2  0
 13  8  1  0
 14 13  2  0
 15 11  1  0
 16 13  1  0
 17 18  1  6
 17 16  1  0
 18 19  1  0
 19 24  2  0
 19 20  1  0
 20 21  2  0
 21 22  1  0
 23 22  2  0
 24 23  1  0
 25 17  1  0
 26 25  2  0
 27 25  1  0
M  END
$$$$
