IQE.pdb
     RDKit          3D

 27 26  0  0  1  0  0  0  0  0999 V2000
    5.2744  -11.8780   27.0023 C   0  0  0  0  0  0  0  0  0  0  0  0
    6.3565  -12.7899   27.4746 C   0  0  0  0  0  0  0  0  0  0  0  0
    7.1470  -13.4120   26.3672 C   0  0  2  0  0  0  0  0  0  0  0  0
    7.7776  -12.3272   25.5454 C   0  0  0  0  0  0  0  0  0  0  0  0
    6.3524  -14.3722   25.5174 C   0  0  2  0  0  0  0  0  0  0  0  0
    5.7903  -15.4051   26.3551 N   0  0  0  0  0  0  0  0  0  0  0  0
    7.1049  -14.9850   24.4243 C   0  0  0  0  0  0  0  0  0  0  0  0
    7.6229  -16.1387   24.4893 O   0  0  0  0  0  0  0  0  0  0  0  0
    7.0459  -13.3065   18.0903 N   0  0  0  0  0  0  0  0  0  0  0  0
    8.3639  -13.6828   18.4378 C   0  0  0  0  0  0  0  0  0  0  0  0
    9.3049  -13.3415   17.6840 O   0  0  0  0  0  0  0  0  0  0  0  0
    8.6206  -14.4665   19.6725 C   0  0  0  0  0  0  0  0  0  0  0  0
    7.8515  -13.9205   20.8376 C   0  0  0  0  0  0  0  0  0  0  0  0
    7.9892  -14.7349   22.0777 C   0  0  2  0  0  0  0  0  0  0  0  0
    7.2723  -14.2549   23.2142 N   0  0  0  0  0  0  0  0  0  0  0  0
    9.4205  -14.9554   22.4196 C   0  0  0  0  0  0  0  0  0  0  0  0
   10.0042  -13.9452   22.9371 O   0  0  0  0  0  0  0  0  0  0  0  0
   10.0908  -16.1733   22.1964 N   0  0  0  0  0  0  0  0  0  0  0  0
   11.0592  -16.6550   23.1489 C   0  0  1  0  0  0  0  0  0  0  0  0
   10.5541  -16.6598   24.5397 C   0  0  0  0  0  0  0  0  0  0  0  0
   11.3312  -17.2691   25.6162 C   0  0  0  0  0  0  0  0  0  0  0  0
   10.8515  -17.2559   26.9874 C   0  0  0  0  0  0  0  0  0  0  0  0
   11.4010  -16.6700   27.9228 O   0  0  0  0  0  0  0  0  0  0  0  0
   11.6376  -17.9165   22.6929 C   0  0  0  0  0  0  0  0  0  0  0  0
   12.7275  -18.3107   23.1505 O   0  0  0  0  0  0  0  0  0  0  0  0
    9.6642  -17.9493   27.3539 O   0  0  0  0  0  0  0  0  0  0  0  0
   10.9717  -18.6727   21.7505 O   0  0  0  0  0  0  0  0  0  0  0  0
  2  1  1  0
  2  3  1  0
  3  4  1  6
  5  3  1  0
  5  6  1  1
  7  5  1  0
  7  8  2  0
  9 10  1  0
 10 12  1  0
 11 10  2  0
 12 13  1  0
 14 13  1  6
 14 15  1  0
 15  7  1  0
 16 14  1  0
 16 18  1  0
 17 16  2  0
 19 18  1  0
 19 24  1  0
 19 20  1  1
 21 20  1  0
 22 23  2  0
 22 21  1  0
 24 25  2  0
 24 27  1  0
 26 22  1  0
M  END
$$$$
