IQE.pdb
     RDKit          3D

 27 26  0  0  1  0  0  0  0  0999 V2000
    7.3110  -11.8757   20.5764 C   0  0  0  0  0  0  0  0  0  0  0  0
    7.3622  -13.1071   19.7359 C   0  0  0  0  0  0  0  0  0  0  0  0
    8.2220  -14.1909   20.3055 C   0  0  2  0  0  0  0  0  0  0  0  0
    9.5867  -13.6365   20.5883 C   0  0  0  0  0  0  0  0  0  0  0  0
    8.2846  -15.4311   19.4490 C   0  0  2  0  0  0  0  0  0  0  0  0
    6.9493  -15.9373   19.2360 N   0  0  0  0  0  0  0  0  0  0  0  0
    9.1322  -16.4968   19.9808 C   0  0  0  0  0  0  0  0  0  0  0  0
    8.7244  -17.3783   20.7932 O   0  0  0  0  0  0  0  0  0  0  0  0
   12.0865  -20.5260   18.1741 N   0  0  0  0  0  0  0  0  0  0  0  0
   13.1821  -20.2899   19.0364 C   0  0  0  0  0  0  0  0  0  0  0  0
   13.9060  -21.2577   19.3671 O   0  0  0  0  0  0  0  0  0  0  0  0
   13.4632  -18.9203   19.5361 C   0  0  0  0  0  0  0  0  0  0  0  0
   12.4680  -17.9304   19.0101 C   0  0  0  0  0  0  0  0  0  0  0  0
   11.4186  -17.5563   19.9996 C   0  0  2  0  0  0  0  0  0  0  0  0
   10.4936  -16.5581   19.5707 N   0  0  0  0  0  0  0  0  0  0  0  0
   12.0222  -17.1802   21.3066 C   0  0  0  0  0  0  0  0  0  0  0  0
   12.5415  -16.0146   21.3355 O   0  0  0  0  0  0  0  0  0  0  0  0
   12.0281  -18.0296   22.4295 N   0  0  0  0  0  0  0  0  0  0  0  0
   12.5507  -17.5649   23.6896 C   0  0  1  0  0  0  0  0  0  0  0  0
   12.0470  -18.3359   24.8478 C   0  0  0  0  0  0  0  0  0  0  0  0
   12.4500  -17.9911   26.2089 C   0  0  0  0  0  0  0  0  0  0  0  0
   11.9231  -18.7150   27.3529 C   0  0  0  0  0  0  0  0  0  0  0  0
   11.1131  -19.6423   27.2906 O   0  0  0  0  0  0  0  0  0  0  0  0
   14.0032  -17.4271   23.6184 C   0  0  0  0  0  0  0  0  0  0  0  0
   14.5634  -16.4186   24.0894 O   0  0  0  0  0  0  0  0  0  0  0  0
   12.3267  -18.3845   28.6769 O   0  0  0  0  0  0  0  0  0  0  0  0
   14.7558  -18.4200   23.0258 O   0  0  0  0  0  0  0  0  0  0  0  0
  2  1  1  0
  2  3  1  0
  3  4  1  6
  5  3  1  0
  5  6  1  1
  7  5  1  0
  7  8  2  0
  9 10  1  0
 10 12  1  0
 11 10  2  0
 12 13  1  0
 14 13  1  6
 14 15  1  0
 15  7  1  0
 16 14  1  0
 16 18  1  0
 17 16  2  0
 19 18  1  0
 19 24  1  0
 19 20  1  1
 21 20  1  0
 22 23  2  0
 22 21  1  0
 24 25  2  0
 24 27  1  0
 26 22  1  0
M  END
$$$$
