IQE.pdb
     RDKit          3D

 27 26  0  0  1  0  0  0  0  0999 V2000
    6.9702  -12.1931   19.8899 C   0  0  0  0  0  0  0  0  0  0  0  0
    7.6310  -12.9704   18.8015 C   0  0  0  0  0  0  0  0  0  0  0  0
    8.9520  -13.5536   19.1933 C   0  0  2  0  0  0  0  0  0  0  0  0
    9.8592  -12.4498   19.6501 C   0  0  0  0  0  0  0  0  0  0  0  0
    9.5886  -14.3960   18.1160 C   0  0  2  0  0  0  0  0  0  0  0  0
    8.6254  -15.3493   17.6179 N   0  0  0  0  0  0  0  0  0  0  0  0
   10.8025  -15.0980   18.5289 C   0  0  0  0  0  0  0  0  0  0  0  0
   10.7981  -16.1771   19.1915 O   0  0  0  0  0  0  0  0  0  0  0  0
   15.8352  -17.1341   16.4328 N   0  0  0  0  0  0  0  0  0  0  0  0
   14.7746  -16.6796   15.6152 C   0  0  0  0  0  0  0  0  0  0  0  0
   14.5591  -17.2661   14.5292 O   0  0  0  0  0  0  0  0  0  0  0  0
   13.9372  -15.5299   16.0414 C   0  0  0  0  0  0  0  0  0  0  0  0
   14.3589  -15.0130   17.3838 C   0  0  0  0  0  0  0  0  0  0  0  0
   13.3197  -15.1758   18.4391 C   0  0  2  0  0  0  0  0  0  0  0  0
   12.0661  -14.5485   18.1731 N   0  0  0  0  0  0  0  0  0  0  0  0
   13.8373  -14.7616   19.7713 C   0  0  0  0  0  0  0  0  0  0  0  0
   13.9744  -13.5012   19.9188 O   0  0  0  0  0  0  0  0  0  0  0  0
   14.1548  -15.6734   20.7960 N   0  0  0  0  0  0  0  0  0  0  0  0
   14.5147  -15.1964   22.1075 C   0  0  1  0  0  0  0  0  0  0  0  0
   13.5987  -15.6682   23.1694 C   0  0  0  0  0  0  0  0  0  0  0  0
   13.2789  -17.0870   23.3063 C   0  0  0  0  0  0  0  0  0  0  0  0
   12.3945  -17.5582   24.3580 C   0  0  0  0  0  0  0  0  0  0  0  0
   11.9695  -16.8672   25.2865 O   0  0  0  0  0  0  0  0  0  0  0  0
   15.9342  -15.4294   22.3619 C   0  0  0  0  0  0  0  0  0  0  0  0
   16.4702  -14.9815   23.3938 O   0  0  0  0  0  0  0  0  0  0  0  0
   11.9428  -18.9074   24.3843 O   0  0  0  0  0  0  0  0  0  0  0  0
   16.6825  -16.1488   21.4531 O   0  0  0  0  0  0  0  0  0  0  0  0
  2  1  1  0
  2  3  1  0
  3  4  1  6
  5  3  1  0
  5  6  1  1
  7  5  1  0
  7  8  2  0
  9 10  1  0
 10 12  1  0
 11 10  2  0
 12 13  1  0
 14 13  1  6
 14 15  1  0
 15  7  1  0
 16 14  1  0
 16 18  1  0
 17 16  2  0
 19 18  1  0
 19 24  1  0
 19 20  1  1
 21 20  1  0
 22 23  2  0
 22 21  1  0
 24 25  2  0
 24 27  1  0
 26 22  1  0
M  END
$$$$
