IQE.pdb
     RDKit          3D

 27 26  0  0  1  0  0  0  0  0999 V2000
    7.1488  -16.4822   16.9830 C   0  0  0  0  0  0  0  0  0  0  0  0
    7.1054  -15.1819   17.7130 C   0  0  0  0  0  0  0  0  0  0  0  0
    7.7290  -15.2322   19.0721 C   0  0  2  0  0  0  0  0  0  0  0  0
    7.0993  -16.3425   19.8598 C   0  0  0  0  0  0  0  0  0  0  0  0
    7.6805  -13.9188   19.8126 C   0  0  2  0  0  0  0  0  0  0  0  0
    8.2916  -12.8886   19.0066 N   0  0  0  0  0  0  0  0  0  0  0  0
    8.3054  -13.9408   21.1339 C   0  0  0  0  0  0  0  0  0  0  0  0
    9.5455  -14.1163   21.3208 O   0  0  0  0  0  0  0  0  0  0  0  0
    5.5348  -11.8952   26.5527 N   0  0  0  0  0  0  0  0  0  0  0  0
    6.7711  -12.4315   26.9814 C   0  0  0  0  0  0  0  0  0  0  0  0
    7.1090  -12.2801   28.1785 O   0  0  0  0  0  0  0  0  0  0  0  0
    7.6462  -13.1581   26.0271 C   0  0  0  0  0  0  0  0  0  0  0  0
    7.1095  -13.0878   24.6292 C   0  0  0  0  0  0  0  0  0  0  0  0
    7.9659  -13.7805   23.6258 C   0  0  2  0  0  0  0  0  0  0  0  0
    7.4856  -13.7561   22.2824 N   0  0  0  0  0  0  0  0  0  0  0  0
    8.2652  -15.1759   24.0468 C   0  0  0  0  0  0  0  0  0  0  0  0
    7.3281  -16.0118   23.8182 O   0  0  0  0  0  0  0  0  0  0  0  0
    9.4785  -15.5591   24.6497 N   0  0  0  0  0  0  0  0  0  0  0  0
    9.7281  -16.9430   24.9652 C   0  0  1  0  0  0  0  0  0  0  0  0
   10.6668  -17.5937   24.0246 C   0  0  0  0  0  0  0  0  0  0  0  0
   12.0995  -17.3148   24.0838 C   0  0  0  0  0  0  0  0  0  0  0  0
   13.0218  -17.9256   23.1423 C   0  0  0  0  0  0  0  0  0  0  0  0
   12.7093  -18.7501   22.2805 O   0  0  0  0  0  0  0  0  0  0  0  0
   10.0629  -17.0902   26.3795 C   0  0  0  0  0  0  0  0  0  0  0  0
   10.1992  -16.0840   27.1017 O   0  0  0  0  0  0  0  0  0  0  0  0
   14.4062  -17.5964   23.1560 O   0  0  0  0  0  0  0  0  0  0  0  0
   10.2288  -18.3507   26.9151 O   0  0  0  0  0  0  0  0  0  0  0  0
  2  1  1  0
  2  3  1  0
  3  4  1  1
  5  3  1  0
  5  6  1  6
  7  5  1  0
  7  8  2  0
  9 10  1  0
 10 12  1  0
 11 10  2  0
 12 13  1  0
 14 13  1  1
 14 15  1  0
 15  7  1  0
 16 14  1  0
 16 18  1  0
 17 16  2  0
 19 18  1  0
 19 24  1  0
 19 20  1  6
 21 20  1  0
 22 23  2  0
 22 21  1  0
 24 25  2  0
 24 27  1  0
 26 22  1  0
M  END
$$$$
