IQE.pdb
     RDKit          3D

 27 26  0  0  1  0  0  0  0  0999 V2000
   13.3583  -17.6362   14.1199 C   0  0  0  0  0  0  0  0  0  0  0  0
   12.2316  -17.2916   15.0349 C   0  0  0  0  0  0  0  0  0  0  0  0
   12.6639  -16.9777   16.4324 C   0  0  2  0  0  0  0  0  0  0  0  0
   13.6021  -18.0473   16.9074 C   0  0  0  0  0  0  0  0  0  0  0  0
   11.5182  -16.7676   17.3909 C   0  0  2  0  0  0  0  0  0  0  0  0
   10.6304  -15.7571   16.8662 N   0  0  0  0  0  0  0  0  0  0  0  0
   11.9187  -16.4084   18.7501 C   0  0  0  0  0  0  0  0  0  0  0  0
   12.6056  -15.3824   19.0312 O   0  0  0  0  0  0  0  0  0  0  0  0
    9.9269  -19.4505   24.0822 N   0  0  0  0  0  0  0  0  0  0  0  0
   10.6740  -18.3495   24.5612 C   0  0  0  0  0  0  0  0  0  0  0  0
   10.7605  -18.1748   25.7989 O   0  0  0  0  0  0  0  0  0  0  0  0
   11.3400  -17.4232   23.6109 C   0  0  0  0  0  0  0  0  0  0  0  0
   11.0732  -17.8129   22.1883 C   0  0  0  0  0  0  0  0  0  0  0  0
   11.8430  -17.0112   21.1958 C   0  0  2  0  0  0  0  0  0  0  0  0
   11.5212  -17.2503   19.8264 N   0  0  0  0  0  0  0  0  0  0  0  0
   13.3083  -17.1449   21.4177 C   0  0  0  0  0  0  0  0  0  0  0  0
   13.8640  -18.0767   20.7454 O   0  0  0  0  0  0  0  0  0  0  0  0
   14.0368  -16.3186   22.2945 N   0  0  0  0  0  0  0  0  0  0  0  0
   15.4673  -16.4567   22.4030 C   0  0  1  0  0  0  0  0  0  0  0  0
   16.1990  -15.2187   22.0545 C   0  0  0  0  0  0  0  0  0  0  0  0
   17.6555  -15.1584   22.1487 C   0  0  0  0  0  0  0  0  0  0  0  0
   18.3751  -13.9292   21.8632 C   0  0  0  0  0  0  0  0  0  0  0  0
   18.5224  -13.4408   20.7408 O   0  0  0  0  0  0  0  0  0  0  0  0
   15.8251  -17.0495   23.6893 C   0  0  0  0  0  0  0  0  0  0  0  0
   15.1533  -16.7959   24.7076 O   0  0  0  0  0  0  0  0  0  0  0  0
   18.9826  -13.1776   22.9078 O   0  0  0  0  0  0  0  0  0  0  0  0
   16.9132  -17.8936   23.7738 O   0  0  0  0  0  0  0  0  0  0  0  0
  2  1  1  0
  2  3  1  0
  3  4  1  1
  5  3  1  0
  5  6  1  6
  7  5  1  0
  7  8  2  0
  9 10  1  0
 10 12  1  0
 11 10  2  0
 12 13  1  0
 14 13  1  1
 14 15  1  0
 15  7  1  0
 16 14  1  0
 16 18  1  0
 17 16  2  0
 19 18  1  0
 19 24  1  0
 19 20  1  1
 21 20  1  0
 22 23  2  0
 22 21  1  0
 24 25  2  0
 24 27  1  0
 26 22  1  0
M  END
$$$$
