IQE.pdb
     RDKit          3D

 27 26  0  0  1  0  0  0  0  0999 V2000
    7.6967  -11.8193   27.4002 C   0  0  0  0  0  0  0  0  0  0  0  0
    6.9459  -13.0512   27.0204 C   0  0  0  0  0  0  0  0  0  0  0  0
    7.6815  -13.9345   26.0626 C   0  0  2  0  0  0  0  0  0  0  0  0
    8.0498  -13.1389   24.8457 C   0  0  0  0  0  0  0  0  0  0  0  0
    6.9375  -15.1973   25.7057 C   0  0  2  0  0  0  0  0  0  0  0  0
    6.5680  -15.8965   26.9137 N   0  0  0  0  0  0  0  0  0  0  0  0
    7.6656  -16.1038   24.8196 C   0  0  0  0  0  0  0  0  0  0  0  0
    8.5123  -16.9530   25.2263 O   0  0  0  0  0  0  0  0  0  0  0  0
    6.0511  -17.7260   18.8683 N   0  0  0  0  0  0  0  0  0  0  0  0
    7.3802  -18.1949   18.9840 C   0  0  0  0  0  0  0  0  0  0  0  0
    7.8593  -18.8796   18.0504 O   0  0  0  0  0  0  0  0  0  0  0  0
    8.1861  -17.8783   20.1901 C   0  0  0  0  0  0  0  0  0  0  0  0
    7.4060  -17.0539   21.1693 C   0  0  0  0  0  0  0  0  0  0  0  0
    8.1367  -16.7871   22.4401 C   0  0  2  0  0  0  0  0  0  0  0  0
    7.4184  -16.0383   23.4196 N   0  0  0  0  0  0  0  0  0  0  0  0
    9.4623  -16.1646   22.1772 C   0  0  0  0  0  0  0  0  0  0  0  0
    9.6029  -14.9915   22.6602 O   0  0  0  0  0  0  0  0  0  0  0  0
   10.4885  -16.8042   21.4560 N   0  0  0  0  0  0  0  0  0  0  0  0
   11.8694  -16.4911   21.7243 C   0  0  1  0  0  0  0  0  0  0  0  0
   12.2100  -16.5494   23.1630 C   0  0  0  0  0  0  0  0  0  0  0  0
   13.5966  -16.4390   23.6092 C   0  0  0  0  0  0  0  0  0  0  0  0
   13.9388  -16.5133   25.0190 C   0  0  0  0  0  0  0  0  0  0  0  0
   13.8631  -15.5750   25.8151 O   0  0  0  0  0  0  0  0  0  0  0  0
   12.7460  -17.2618   20.8459 C   0  0  0  0  0  0  0  0  0  0  0  0
   13.7984  -16.7585   20.4081 O   0  0  0  0  0  0  0  0  0  0  0  0
   14.4039  -17.7282   25.5959 O   0  0  0  0  0  0  0  0  0  0  0  0
   12.4039  -18.5531   20.5008 O   0  0  0  0  0  0  0  0  0  0  0  0
  2  1  1  0
  2  3  1  0
  3  4  1  6
  5  3  1  0
  5  6  1  1
  7  5  1  0
  7  8  2  0
  9 10  1  0
 10 12  1  0
 11 10  2  0
 12 13  1  0
 14 13  1  6
 14 15  1  0
 15  7  1  0
 16 14  1  0
 16 18  1  0
 17 16  2  0
 19 18  1  0
 19 24  1  0
 19 20  1  1
 21 20  1  0
 22 23  2  0
 22 21  1  0
 24 25  2  0
 24 27  1  0
 26 22  1  0
M  END
$$$$
