IQE.pdb
     RDKit          3D

 27 26  0  0  1  0  0  0  0  0999 V2000
    8.6013  -11.8069   27.0573 C   0  0  0  0  0  0  0  0  0  0  0  0
    7.8094  -13.0318   26.7443 C   0  0  0  0  0  0  0  0  0  0  0  0
    6.7999  -12.8360   25.6575 C   0  0  2  0  0  0  0  0  0  0  0  0
    5.8128  -11.7918   26.0875 C   0  0  0  0  0  0  0  0  0  0  0  0
    6.1186  -14.1099   25.2235 C   0  0  2  0  0  0  0  0  0  0  0  0
    5.5113  -14.7457   26.3687 N   0  0  0  0  0  0  0  0  0  0  0  0
    6.9894  -15.0642   24.5394 C   0  0  0  0  0  0  0  0  0  0  0  0
    7.4156  -16.1315   25.0711 O   0  0  0  0  0  0  0  0  0  0  0  0
    8.5735  -18.4021   18.6237 N   0  0  0  0  0  0  0  0  0  0  0  0
    8.0167  -17.2994   19.3120 C   0  0  0  0  0  0  0  0  0  0  0  0
    6.7806  -17.1079   19.2400 O   0  0  0  0  0  0  0  0  0  0  0  0
    8.8854  -16.3908   20.1023 C   0  0  0  0  0  0  0  0  0  0  0  0
    8.0743  -15.4288   20.9169 C   0  0  0  0  0  0  0  0  0  0  0  0
    8.1313  -15.6920   22.3824 C   0  0  2  0  0  0  0  0  0  0  0  0
    7.3880  -14.7901   23.2010 N   0  0  0  0  0  0  0  0  0  0  0  0
    9.5384  -15.7873   22.8568 C   0  0  0  0  0  0  0  0  0  0  0  0
   10.1057  -14.6629   23.0644 O   0  0  0  0  0  0  0  0  0  0  0  0
   10.2041  -17.0104   23.0646 N   0  0  0  0  0  0  0  0  0  0  0  0
   11.5540  -17.0266   23.5691 C   0  0  1  0  0  0  0  0  0  0  0  0
   11.7680  -18.0411   24.6248 C   0  0  0  0  0  0  0  0  0  0  0  0
   10.7815  -18.2389   25.6839 C   0  0  0  0  0  0  0  0  0  0  0  0
   10.9849  -19.2350   26.7215 C   0  0  0  0  0  0  0  0  0  0  0  0
   11.9051  -20.0553   26.7431 O   0  0  0  0  0  0  0  0  0  0  0  0
   12.5095  -17.0670   22.4649 C   0  0  0  0  0  0  0  0  0  0  0  0
   12.1119  -17.2210   21.2941 O   0  0  0  0  0  0  0  0  0  0  0  0
   10.0951  -19.3313   27.8278 O   0  0  0  0  0  0  0  0  0  0  0  0
   13.8583  -16.9342   22.7229 O   0  0  0  0  0  0  0  0  0  0  0  0
  2  1  1  0
  2  3  1  0
  3  4  1  1
  5  3  1  0
  5  6  1  1
  7  5  1  0
  7  8  2  0
  9 10  1  0
 10 12  1  0
 11 10  2  0
 12 13  1  0
 14 13  1  6
 14 15  1  0
 15  7  1  0
 16 14  1  0
 16 18  1  0
 17 16  2  0
 19 18  1  0
 19 24  1  0
 19 20  1  1
 21 20  1  0
 22 23  2  0
 22 21  1  0
 24 25  2  0
 24 27  1  0
 26 22  1  0
M  END
$$$$
