RLH.pdb
     RDKit          3D

 30 30  0  0  1  0  0  0  0  0999 V2000
   10.0101  -13.4680   19.1594 N   0  0  0  0  0  0  0  0  0  0  0  0
    8.9169  -12.6119   18.8702 C   0  0  0  0  0  0  0  0  0  0  0  0
    8.9752  -11.6982   17.9702 N   0  0  0  0  0  0  0  0  0  0  0  0
    7.6912  -12.7726   19.6150 N   0  0  0  0  0  0  0  0  0  0  0  0
    7.6060  -13.7624   20.6275 C   0  0  0  0  0  0  0  0  0  0  0  0
    7.6670  -15.1811   20.2671 C   0  0  0  0  0  0  0  0  0  0  0  0
    8.6877  -16.0629   20.8038 C   0  0  0  0  0  0  0  0  0  0  0  0
    8.3676  -16.8460   22.0213 C   0  0  2  0  0  0  0  0  0  0  0  0
    7.0819  -17.4007   22.1543 N   0  0  0  0  0  0  0  0  0  0  0  0
    8.8075  -16.1088   23.2557 C   0  0  0  0  0  0  0  0  0  0  0  0
    9.9676  -15.6328   23.2274 O   0  0  0  0  0  0  0  0  0  0  0  0
    8.1954  -11.0530   17.8078 C   0  0  0  0  0  0  0  0  0  0  0  0
    8.3925  -12.4388   25.0966 C   0  0  2  0  0  0  0  0  0  0  0  0
    7.2147  -13.3323   25.4940 C   0  0  0  0  0  0  0  0  0  0  0  0
    6.0192  -12.6071   25.9594 C   0  0  0  0  0  0  0  0  0  0  0  0
    7.6917  -14.5022   26.2450 C   0  0  2  0  0  0  0  0  0  0  0  0
    8.6583  -15.4432   25.6477 N   0  0  0  0  0  0  0  0  0  0  0  0
    8.0216  -15.9268   24.4014 C   0  0  0  0  0  0  0  0  0  0  0  0
    8.8676  -16.6239   26.5196 O   0  0  0  0  0  0  0  0  0  0  0  0
    7.9444  -17.4247   26.8179 N   0  0  0  0  0  0  0  0  0  0  0  0
   10.1420  -16.9042   27.0632 C   0  0  1  0  0  0  0  0  0  0  0  0
   10.5607  -18.2806   27.2693 C   0  0  0  0  0  0  0  0  0  0  0  0
   10.8801  -18.9643   25.9871 C   0  0  0  0  0  0  0  0  0  0  0  0
   11.2395  -20.3772   26.2380 C   0  0  0  0  0  0  0  0  0  0  0  0
   10.8505  -21.1065   27.3719 N   0  0  0  0  0  0  0  0  0  0  0  0
   11.3441  -22.3407   27.2795 C   0  0  0  0  0  0  0  0  0  0  0  0
   12.0215  -22.4111   26.1401 N   0  0  0  0  0  0  0  0  0  0  0  0
   11.9607  -21.2382   25.5151 C   0  0  0  0  0  0  0  0  0  0  0  0
   11.7037  -18.3341   28.1891 O   0  0  0  0  0  0  0  0  0  0  0  0
   12.0028  -19.4551   28.7190 O   0  0  0  0  0  0  0  0  0  0  0  0
  2  1  1  0
  3  2  2  0
  4  2  1  0
  5  4  1  0
  6  5  1  0
  7  6  1  0
  8  7  1  0
  8  9  1  1
 10  8  1  0
 11 10  2  0
 13 12  1  6
 13 15  1  0
 14 13  1  0
 16 15  1  6
 16 18  1  0
 16 17  1  0
 17 10  1  0
 18 20  1  0
 19 18  2  0
 20 21  1  0
 21 22  1  1
 21 28  1  0
 22 23  1  0
 23 24  2  0
 25 24  1  0
 26 25  1  0
 27 26  2  0
 27 23  1  0
 28 29  2  0
 28 30  1  0
M  END
$$$$
