RLH.pdb
     RDKit          3D

 30 30  0  0  1  0  0  0  0  0999 V2000
    7.8949  -12.7128   18.5805 N   0  0  0  0  0  0  0  0  0  0  0  0
    8.1936  -13.5313   17.4615 C   0  0  0  0  0  0  0  0  0  0  0  0
    7.7151  -13.3031   16.2922 N   0  0  0  0  0  0  0  0  0  0  0  0
    9.0689  -14.6645   17.6421 N   0  0  0  0  0  0  0  0  0  0  0  0
    9.5305  -14.9990   18.9409 C   0  0  0  0  0  0  0  0  0  0  0  0
    9.0549  -16.2228   19.5909 C   0  0  0  0  0  0  0  0  0  0  0  0
    9.5386  -16.6322   20.8970 C   0  0  0  0  0  0  0  0  0  0  0  0
    8.5484  -16.8151   21.9852 C   0  0  2  0  0  0  0  0  0  0  0  0
    7.1787  -16.7132   21.6822 N   0  0  0  0  0  0  0  0  0  0  0  0
    8.9331  -16.0057   23.1925 C   0  0  0  0  0  0  0  0  0  0  0  0
   10.0257  -15.3941   23.1187 O   0  0  0  0  0  0  0  0  0  0  0  0
    7.9809  -13.8721   15.4821 C   0  0  0  0  0  0  0  0  0  0  0  0
    7.8605  -12.3243   24.9638 C   0  0  2  0  0  0  0  0  0  0  0  0
    6.8409  -13.3586   25.4476 C   0  0  0  0  0  0  0  0  0  0  0  0
    5.6187  -12.7892   26.0422 C   0  0  0  0  0  0  0  0  0  0  0  0
    7.5236  -14.4730   26.1201 C   0  0  2  0  0  0  0  0  0  0  0  0
    8.6968  -15.1237   25.5062 N   0  0  0  0  0  0  0  0  0  0  0  0
    8.1661  -15.8966   24.3601 C   0  0  0  0  0  0  0  0  0  0  0  0
    9.3215  -16.0938   26.4373 O   0  0  0  0  0  0  0  0  0  0  0  0
    9.8197  -15.7563   27.5420 N   0  0  0  0  0  0  0  0  0  0  0  0
    9.3839  -17.4686   26.1141 C   0  0  1  0  0  0  0  0  0  0  0  0
   10.1168  -18.3867   26.9697 C   0  0  0  0  0  0  0  0  0  0  0  0
    9.6002  -19.7781   26.8665 C   0  0  0  0  0  0  0  0  0  0  0  0
    8.1786  -19.8258   27.2729 C   0  0  0  0  0  0  0  0  0  0  0  0
    7.6557  -19.1920   28.4103 N   0  0  0  0  0  0  0  0  0  0  0  0
    6.3481  -19.4394   28.4776 C   0  0  0  0  0  0  0  0  0  0  0  0
    6.0353  -20.1977   27.4340 N   0  0  0  0  0  0  0  0  0  0  0  0
    7.1280  -20.4304   26.7117 C   0  0  0  0  0  0  0  0  0  0  0  0
   11.5511  -18.3374   26.6608 O   0  0  0  0  0  0  0  0  0  0  0  0
   12.3438  -19.0643   27.3463 O   0  0  0  0  0  0  0  0  0  0  0  0
  2  1  1  0
  3  2  2  0
  4  2  1  0
  5  4  1  0
  6  5  1  0
  7  6  1  0
  8  7  1  0
  8  9  1  6
 10  8  1  0
 11 10  2  0
 13 12  1  6
 13 15  1  0
 14 13  1  0
 16 15  1  6
 16 18  1  0
 16 17  1  0
 17 10  1  0
 18 20  1  0
 19 18  2  0
 20 21  1  0
 21 22  1  1
 21 28  1  0
 22 23  1  0
 23 24  2  0
 25 24  1  0
 26 25  1  0
 27 26  2  0
 27 23  1  0
 28 29  2  0
 28 30  1  0
M  END
$$$$
