RLH.pdb
     RDKit          3D

 30 30  0  0  1  0  0  0  0  0999 V2000
   17.3307  -13.5854   16.1310 N   0  0  0  0  0  0  0  0  0  0  0  0
   17.2463  -13.9041   17.5105 C   0  0  0  0  0  0  0  0  0  0  0  0
   18.1366  -13.5364   18.3594 N   0  0  0  0  0  0  0  0  0  0  0  0
   16.1173  -14.6708   17.9798 N   0  0  0  0  0  0  0  0  0  0  0  0
   15.1650  -15.1640   17.0514 C   0  0  0  0  0  0  0  0  0  0  0  0
   13.7345  -14.9755   17.3048 C   0  0  0  0  0  0  0  0  0  0  0  0
   12.8773  -16.0769   17.7041 C   0  0  0  0  0  0  0  0  0  0  0  0
   11.4126  -15.8491   17.7359 C   0  0  2  0  0  0  0  0  0  0  0  0
   10.7733  -15.3734   16.5769 N   0  0  0  0  0  0  0  0  0  0  0  0
   11.0235  -15.0776   18.9664 C   0  0  0  0  0  0  0  0  0  0  0  0
   11.5381  -13.9402   19.0874 O   0  0  0  0  0  0  0  0  0  0  0  0
   18.0593  -13.7699   19.3545 C   0  0  0  0  0  0  0  0  0  0  0  0
    8.5350  -12.6420   19.4638 C   0  0  2  0  0  0  0  0  0  0  0  0
    7.7462  -13.8598   19.9518 C   0  0  0  0  0  0  0  0  0  0  0  0
    6.2827  -13.6873   19.9530 C   0  0  0  0  0  0  0  0  0  0  0  0
    8.4067  -14.4622   21.1186 C   0  0  2  0  0  0  0  0  0  0  0  0
    9.8650  -14.6850   21.1321 N   0  0  0  0  0  0  0  0  0  0  0  0
   10.1458  -15.5397   19.9561 C   0  0  0  0  0  0  0  0  0  0  0  0
   10.2811  -15.4448   22.3354 O   0  0  0  0  0  0  0  0  0  0  0  0
   10.0366  -15.0564   23.5066 N   0  0  0  0  0  0  0  0  0  0  0  0
   10.9853  -16.6644   22.2124 C   0  0  1  0  0  0  0  0  0  0  0  0
   11.5458  -17.3052   23.3902 C   0  0  0  0  0  0  0  0  0  0  0  0
   11.8147  -18.7509   23.1639 C   0  0  0  0  0  0  0  0  0  0  0  0
   10.6014  -19.4206   22.6465 C   0  0  0  0  0  0  0  0  0  0  0  0
    9.2928  -18.9507   22.8356 N   0  0  0  0  0  0  0  0  0  0  0  0
    8.4446  -19.7901   22.2426 C   0  0  0  0  0  0  0  0  0  0  0  0
    9.1667  -20.7593   21.6940 N   0  0  0  0  0  0  0  0  0  0  0  0
   10.4569  -20.5410   21.9339 C   0  0  0  0  0  0  0  0  0  0  0  0
   12.7642  -16.6078   23.8195 O   0  0  0  0  0  0  0  0  0  0  0  0
   13.3694  -17.0302   24.8599 O   0  0  0  0  0  0  0  0  0  0  0  0
  2  1  1  0
  3  2  2  0
  4  2  1  0
  5  4  1  0
  6  5  1  0
  7  6  1  0
  8  7  1  0
  8  9  1  6
 10  8  1  0
 11 10  2  0
 13 12  1  6
 13 15  1  0
 14 13  1  0
 16 15  1  6
 16 18  1  0
 16 17  1  0
 17 10  1  0
 18 20  1  0
 19 18  2  0
 20 21  1  0
 21 22  1  1
 21 28  1  0
 22 23  1  0
 23 24  2  0
 25 24  1  0
 26 25  1  0
 27 26  2  0
 27 23  1  0
 28 29  2  0
 28 30  1  0
M  END
$$$$
