RLH.pdb
     RDKit          3D

 30 30  0  0  1  0  0  0  0  0999 V2000
    9.9782  -14.5391   15.8183 N   0  0  0  0  0  0  0  0  0  0  0  0
    8.6869  -14.0749   16.1769 C   0  0  0  0  0  0  0  0  0  0  0  0
    8.3705  -12.8308   16.1563 N   0  0  0  0  0  0  0  0  0  0  0  0
    7.6890  -15.0363   16.5804 N   0  0  0  0  0  0  0  0  0  0  0  0
    7.7785  -15.6527   17.8548 C   0  0  0  0  0  0  0  0  0  0  0  0
    7.4596  -14.8839   19.0604 C   0  0  0  0  0  0  0  0  0  0  0  0
    8.3296  -14.8888   20.2225 C   0  0  0  0  0  0  0  0  0  0  0  0
    8.1336  -15.9490   21.2401 C   0  0  2  0  0  0  0  0  0  0  0  0
    6.9862  -16.7591   21.1656 N   0  0  0  0  0  0  0  0  0  0  0  0
    8.3662  -15.4053   22.6225 C   0  0  0  0  0  0  0  0  0  0  0  0
    9.5055  -14.9285   22.8411 O   0  0  0  0  0  0  0  0  0  0  0  0
    7.4183  -12.5148   16.3664 C   0  0  0  0  0  0  0  0  0  0  0  0
    5.9413  -12.2159   26.9474 C   0  0  1  0  0  0  0  0  0  0  0  0
    7.1090  -12.6407   26.0534 C   0  0  0  0  0  0  0  0  0  0  0  0
    7.7960  -11.5323   25.3670 C   0  0  0  0  0  0  0  0  0  0  0  0
    6.7616  -13.8552   25.3020 C   0  0  2  0  0  0  0  0  0  0  0  0
    7.7868  -14.8663   24.9806 N   0  0  0  0  0  0  0  0  0  0  0  0
    7.4139  -15.3992   23.6504 C   0  0  0  0  0  0  0  0  0  0  0  0
    7.7412  -15.9998   25.9353 O   0  0  0  0  0  0  0  0  0  0  0  0
    6.7375  -16.7479   26.0596 N   0  0  0  0  0  0  0  0  0  0  0  0
    8.8490  -16.2926   26.7632 C   0  0  1  0  0  0  0  0  0  0  0  0
    9.7174  -17.4150   26.4501 C   0  0  0  0  0  0  0  0  0  0  0  0
   10.3031  -17.3036   25.0870 C   0  0  0  0  0  0  0  0  0  0  0  0
   11.1707  -18.4689   24.8078 C   0  0  0  0  0  0  0  0  0  0  0  0
   11.3677  -19.5421   25.6900 N   0  0  0  0  0  0  0  0  0  0  0  0
   12.2047  -20.4131   25.1274 C   0  0  0  0  0  0  0  0  0  0  0  0
   12.5360  -19.9298   23.9364 N   0  0  0  0  0  0  0  0  0  0  0  0
   11.9192  -18.7671   23.7425 C   0  0  0  0  0  0  0  0  0  0  0  0
   10.7720  -17.5425   27.4634 O   0  0  0  0  0  0  0  0  0  0  0  0
   10.9534  -18.6811   28.0090 O   0  0  0  0  0  0  0  0  0  0  0  0
  2  1  1  0
  3  2  2  0
  4  2  1  0
  5  4  1  0
  6  5  1  0
  7  6  1  0
  8  7  1  0
  8  9  1  1
 10  8  1  0
 11 10  2  0
 13 12  1  1
 13 15  1  0
 14 13  1  0
 16 15  1  6
 16 18  1  0
 16 17  1  0
 17 10  1  0
 18 20  1  0
 19 18  2  0
 20 21  1  0
 21 22  1  1
 21 28  1  0
 22 23  1  0
 23 24  2  0
 25 24  1  0
 26 25  1  0
 27 26  2  0
 27 23  1  0
 28 29  2  0
 28 30  1  0
M  END
$$$$
