RLH.pdb
     RDKit          3D

 30 30  0  0  1  0  0  0  0  0999 V2000
    7.4876  -16.6124   13.0310 N   0  0  0  0  0  0  0  0  0  0  0  0
    8.7206  -15.9643   12.7643 C   0  0  0  0  0  0  0  0  0  0  0  0
    9.4173  -16.2115   11.7146 N   0  0  0  0  0  0  0  0  0  0  0  0
    9.2126  -14.9893   13.7078 N   0  0  0  0  0  0  0  0  0  0  0  0
    8.4848  -14.7295   14.8973 C   0  0  0  0  0  0  0  0  0  0  0  0
    8.5318  -15.6875   16.0047 C   0  0  0  0  0  0  0  0  0  0  0  0
    9.7837  -16.2542   16.4726 C   0  0  0  0  0  0  0  0  0  0  0  0
    9.7457  -17.1731   17.6355 C   0  0  2  0  0  0  0  0  0  0  0  0
    8.6701  -18.0711   17.7574 N   0  0  0  0  0  0  0  0  0  0  0  0
   10.0186  -16.4246   18.9107 C   0  0  0  0  0  0  0  0  0  0  0  0
   11.1730  -15.9498   19.0329 O   0  0  0  0  0  0  0  0  0  0  0  0
   10.3385  -15.7863   11.5684 C   0  0  0  0  0  0  0  0  0  0  0  0
    8.8035  -12.6203   20.2983 C   0  0  2  0  0  0  0  0  0  0  0  0
    7.6948  -13.6091   20.6678 C   0  0  0  0  0  0  0  0  0  0  0  0
    6.4073  -12.9877   21.0252 C   0  0  0  0  0  0  0  0  0  0  0  0
    8.2338  -14.6926   21.5021 C   0  0  2  0  0  0  0  0  0  0  0  0
    9.4633  -15.4087   21.1121 N   0  0  0  0  0  0  0  0  0  0  0  0
    9.0873  -16.2312   19.9396 C   0  0  0  0  0  0  0  0  0  0  0  0
    9.9031  -16.3405   22.1781 O   0  0  0  0  0  0  0  0  0  0  0  0
    9.3205  -17.4297   22.4162 N   0  0  0  0  0  0  0  0  0  0  0  0
   11.0207  -16.0360   22.9886 C   0  0  1  0  0  0  0  0  0  0  0  0
   11.4880  -16.9936   23.9768 C   0  0  0  0  0  0  0  0  0  0  0  0
   12.9580  -16.9045   24.1883 C   0  0  0  0  0  0  0  0  0  0  0  0
   13.6748  -17.5498   23.0667 C   0  0  0  0  0  0  0  0  0  0  0  0
   13.2996  -17.4448   21.7187 N   0  0  0  0  0  0  0  0  0  0  0  0
   14.1570  -18.1459   20.9778 C   0  0  0  0  0  0  0  0  0  0  0  0
   15.0473  -18.6812   21.8041 N   0  0  0  0  0  0  0  0  0  0  0  0
   14.7615  -18.3265   23.0540 C   0  0  0  0  0  0  0  0  0  0  0  0
   10.7659  -16.8145   25.2424 O   0  0  0  0  0  0  0  0  0  0  0  0
    9.9231  -15.8610   25.3293 O   0  0  0  0  0  0  0  0  0  0  0  0
  2  1  1  0
  3  2  2  0
  4  2  1  0
  5  4  1  0
  6  5  1  0
  7  6  1  0
  8  7  1  0
  8  9  1  1
 10  8  1  0
 11 10  2  0
 13 12  1  6
 13 15  1  0
 14 13  1  0
 16 15  1  6
 16 18  1  0
 16 17  1  0
 17 10  1  0
 18 20  1  0
 19 18  2  0
 20 21  1  0
 21 22  1  1
 21 28  1  0
 22 23  1  0
 23 24  2  0
 25 24  1  0
 26 25  1  0
 27 26  2  0
 27 23  1  0
 28 29  2  0
 28 30  1  0
M  END
$$$$
