RLH.pdb
     RDKit          3D

 30 30  0  0  1  0  0  0  0  0999 V2000
    9.3657  -13.5696   15.7290 N   0  0  0  0  0  0  0  0  0  0  0  0
    7.9594  -13.6459   15.5616 C   0  0  0  0  0  0  0  0  0  0  0  0
    7.3232  -12.9103   14.7235 N   0  0  0  0  0  0  0  0  0  0  0  0
    7.2132  -14.5860   16.3630 N   0  0  0  0  0  0  0  0  0  0  0  0
    7.8715  -15.3244   17.3796 C   0  0  0  0  0  0  0  0  0  0  0  0
    8.2616  -14.6608   18.6261 C   0  0  0  0  0  0  0  0  0  0  0  0
    8.9791  -15.3637   19.6742 C   0  0  0  0  0  0  0  0  0  0  0  0
    8.1897  -16.0542   20.7221 C   0  0  2  0  0  0  0  0  0  0  0  0
    6.7997  -16.1845   20.5510 N   0  0  0  0  0  0  0  0  0  0  0  0
    8.5563  -15.5393   22.0864 C   0  0  0  0  0  0  0  0  0  0  0  0
    9.7837  -15.4583   22.3316 O   0  0  0  0  0  0  0  0  0  0  0  0
    6.3230  -13.0427   14.5430 C   0  0  0  0  0  0  0  0  0  0  0  0
    5.7351  -12.8459   26.7686 C   0  0  1  0  0  0  0  0  0  0  0  0
    7.1267  -13.1892   26.2309 C   0  0  0  0  0  0  0  0  0  0  0  0
    8.1517  -12.1571   26.4673 C   0  0  0  0  0  0  0  0  0  0  0  0
    7.0218  -13.8176   24.9064 C   0  0  2  0  0  0  0  0  0  0  0  0
    8.1328  -14.6185   24.3579 N   0  0  0  0  0  0  0  0  0  0  0  0
    7.6358  -15.1555   23.0706 C   0  0  0  0  0  0  0  0  0  0  0  0
    8.4389  -15.7792   25.2280 O   0  0  0  0  0  0  0  0  0  0  0  0
    7.5872  -16.6582   25.5185 N   0  0  0  0  0  0  0  0  0  0  0  0
    9.7297  -15.9492   25.7788 C   0  0  1  0  0  0  0  0  0  0  0  0
   10.2000  -17.2761   26.1397 C   0  0  0  0  0  0  0  0  0  0  0  0
   11.1933  -17.8003   25.1640 C   0  0  0  0  0  0  0  0  0  0  0  0
   11.5814  -19.1818   25.5234 C   0  0  0  0  0  0  0  0  0  0  0  0
   10.7846  -20.0616   26.2717 N   0  0  0  0  0  0  0  0  0  0  0  0
   11.4343  -21.2166   26.4117 C   0  0  0  0  0  0  0  0  0  0  0  0
   12.5977  -21.0941   25.7845 N   0  0  0  0  0  0  0  0  0  0  0  0
   12.6885  -19.8782   25.2523 C   0  0  0  0  0  0  0  0  0  0  0  0
   10.7557  -17.2685   27.4985 O   0  0  0  0  0  0  0  0  0  0  0  0
   10.9702  -16.1430   28.0591 O   0  0  0  0  0  0  0  0  0  0  0  0
  2  1  1  0
  3  2  2  0
  4  2  1  0
  5  4  1  0
  6  5  1  0
  7  6  1  0
  8  7  1  0
  8  9  1  6
 10  8  1  0
 11 10  2  0
 13 12  1  1
 13 15  1  0
 14 13  1  0
 16 15  1  6
 16 18  1  0
 16 17  1  0
 17 10  1  0
 18 20  1  0
 19 18  2  0
 20 21  1  0
 21 22  1  1
 21 28  1  0
 22 23  1  0
 23 24  2  0
 25 24  1  0
 26 25  1  0
 27 26  2  0
 27 23  1  0
 28 29  2  0
 28 30  1  0
M  END
$$$$
