RLH.pdb
     RDKit          3D

 30 30  0  0  1  0  0  0  0  0999 V2000
    8.2562  -11.8913   18.4388 N   0  0  0  0  0  0  0  0  0  0  0  0
    9.3467  -12.7913   18.5503 C   0  0  0  0  0  0  0  0  0  0  0  0
   10.5430  -12.3982   18.8005 N   0  0  0  0  0  0  0  0  0  0  0  0
    9.1042  -14.2033   18.3764 N   0  0  0  0  0  0  0  0  0  0  0  0
    7.8113  -14.7322   18.6224 C   0  0  0  0  0  0  0  0  0  0  0  0
    7.5908  -15.6138   19.7715 C   0  0  0  0  0  0  0  0  0  0  0  0
    8.5820  -15.7632   20.8216 C   0  0  0  0  0  0  0  0  0  0  0  0
    8.2851  -16.6920   21.9385 C   0  0  2  0  0  0  0  0  0  0  0  0
    7.0003  -17.2570   22.0296 N   0  0  0  0  0  0  0  0  0  0  0  0
    8.7550  -16.1156   23.2453 C   0  0  0  0  0  0  0  0  0  0  0  0
    9.9334  -15.6866   23.2647 O   0  0  0  0  0  0  0  0  0  0  0  0
   11.3420  -13.0378   18.7435 C   0  0  0  0  0  0  0  0  0  0  0  0
    8.2667  -12.5211   25.7746 C   0  0  2  0  0  0  0  0  0  0  0  0
    7.0603  -13.4532   25.9130 C   0  0  0  0  0  0  0  0  0  0  0  0
    5.8723  -12.8377   26.5305 C   0  0  0  0  0  0  0  0  0  0  0  0
    7.4939  -14.7888   26.3470 C   0  0  2  0  0  0  0  0  0  0  0  0
    8.5840  -15.4956   25.6481 N   0  0  0  0  0  0  0  0  0  0  0  0
    7.9774  -16.0310   24.4079 C   0  0  0  0  0  0  0  0  0  0  0  0
    9.0648  -16.6553   26.4368 O   0  0  0  0  0  0  0  0  0  0  0  0
    8.2920  -17.5317   26.9029 N   0  0  0  0  0  0  0  0  0  0  0  0
   10.4425  -16.8272   26.7031 C   0  0  1  0  0  0  0  0  0  0  0  0
   10.8989  -17.9685   27.4785 C   0  0  0  0  0  0  0  0  0  0  0  0
   12.2688  -18.3969   27.0868 C   0  0  0  0  0  0  0  0  0  0  0  0
   12.2792  -18.8477   25.6780 C   0  0  0  0  0  0  0  0  0  0  0  0
   11.1654  -19.3696   25.0027 N   0  0  0  0  0  0  0  0  0  0  0  0
   11.5227  -19.6747   23.7557 C   0  0  0  0  0  0  0  0  0  0  0  0
   12.8071  -19.3659   23.6260 N   0  0  0  0  0  0  0  0  0  0  0  0
   13.2622  -18.8711   24.7740 C   0  0  0  0  0  0  0  0  0  0  0  0
   10.8354  -17.6684   28.9141 O   0  0  0  0  0  0  0  0  0  0  0  0
   10.4733  -16.4992   29.2732 O   0  0  0  0  0  0  0  0  0  0  0  0
  2  1  1  0
  3  2  2  0
  4  2  1  0
  5  4  1  0
  6  5  1  0
  7  6  1  0
  8  7  1  0
  8  9  1  1
 10  8  1  0
 11 10  2  0
 13 12  1  6
 13 15  1  0
 14 13  1  0
 16 15  1  6
 16 18  1  0
 16 17  1  0
 17 10  1  0
 18 20  1  0
 19 18  2  0
 20 21  1  0
 21 22  1  1
 21 28  1  0
 22 23  1  0
 23 24  2  0
 25 24  1  0
 26 25  1  0
 27 26  2  0
 27 23  1  0
 28 29  2  0
 28 30  1  0
M  END
$$$$
