RLH.pdb
     RDKit          3D

 30 30  0  0  1  0  0  0  0  0999 V2000
    7.7733  -16.0490   13.5250 N   0  0  0  0  0  0  0  0  0  0  0  0
    9.0519  -15.4352   13.5263 C   0  0  0  0  0  0  0  0  0  0  0  0
    9.3124  -14.3820   12.8398 N   0  0  0  0  0  0  0  0  0  0  0  0
   10.1014  -16.0150   14.3295 N   0  0  0  0  0  0  0  0  0  0  0  0
    9.8544  -17.2058   15.0595 C   0  0  0  0  0  0  0  0  0  0  0  0
    9.5127  -17.1312   16.4822 C   0  0  0  0  0  0  0  0  0  0  0  0
   10.5252  -17.2314   17.5177 C   0  0  0  0  0  0  0  0  0  0  0  0
   10.1123  -17.7151   18.8570 C   0  0  2  0  0  0  0  0  0  0  0  0
    8.9877  -18.5534   18.9600 N   0  0  0  0  0  0  0  0  0  0  0  0
   10.0766  -16.5797   19.8420 C   0  0  0  0  0  0  0  0  0  0  0  0
   11.1428  -15.9321   19.9731 O   0  0  0  0  0  0  0  0  0  0  0  0
   10.2647  -14.0100   12.7666 C   0  0  0  0  0  0  0  0  0  0  0  0
    8.9635  -12.7586   19.7072 C   0  0  2  0  0  0  0  0  0  0  0  0
    7.7020  -13.5469   20.0687 C   0  0  0  0  0  0  0  0  0  0  0  0
    6.4359  -12.8396   19.8071 C   0  0  0  0  0  0  0  0  0  0  0  0
    7.8886  -14.2525   21.3445 C   0  0  2  0  0  0  0  0  0  0  0  0
    9.0719  -15.1034   21.5735 N   0  0  0  0  0  0  0  0  0  0  0  0
    8.9563  -16.2125   20.5993 C   0  0  0  0  0  0  0  0  0  0  0  0
    9.0465  -15.7055   22.9281 O   0  0  0  0  0  0  0  0  0  0  0  0
    7.9796  -15.9312   23.5551 N   0  0  0  0  0  0  0  0  0  0  0  0
   10.2475  -16.0587   23.5848 C   0  0  1  0  0  0  0  0  0  0  0  0
   10.2185  -16.9627   24.7223 C   0  0  0  0  0  0  0  0  0  0  0  0
    9.7348  -18.3182   24.3452 C   0  0  0  0  0  0  0  0  0  0  0  0
    8.2590  -18.3752   24.4306 C   0  0  0  0  0  0  0  0  0  0  0  0
    7.4519  -17.3437   24.9340 N   0  0  0  0  0  0  0  0  0  0  0  0
    6.1766  -17.7239   24.8668 C   0  0  0  0  0  0  0  0  0  0  0  0
    6.1550  -18.9440   24.3446 N   0  0  0  0  0  0  0  0  0  0  0  0
    7.3990  -19.3362   24.0827 C   0  0  0  0  0  0  0  0  0  0  0  0
   11.5437  -17.0364   25.3496 O   0  0  0  0  0  0  0  0  0  0  0  0
   11.6105  -17.3030   26.5951 O   0  0  0  0  0  0  0  0  0  0  0  0
  2  1  1  0
  3  2  2  0
  4  2  1  0
  5  4  1  0
  6  5  1  0
  7  6  1  0
  8  7  1  0
  8  9  1  6
 10  8  1  0
 11 10  2  0
 13 12  1  6
 13 15  1  0
 14 13  1  0
 16 15  1  6
 16 18  1  0
 16 17  1  0
 17 10  1  0
 18 20  1  0
 19 18  2  0
 20 21  1  0
 21 22  1  1
 21 28  1  0
 22 23  1  0
 23 24  2  0
 25 24  1  0
 26 25  1  0
 27 26  2  0
 27 23  1  0
 28 29  2  0
 28 30  1  0
M  END
$$$$
