MIL.pdb
     RDKit          3D

 25 24  0  0  1  0  0  0  0  0999 V2000
   18.8139  -19.6427  -11.6465 C   0  0  0  0  0  0  0  0  0  0  0  0
   19.2945  -18.1951  -12.5868 S   0  0  0  0  0  0  0  0  0  0  0  0
   20.7372  -18.5093  -13.6385 C   0  0  0  0  0  0  0  0  0  0  0  0
   21.6864  -19.4365  -12.8715 C   0  0  0  0  0  0  0  0  0  0  0  0
   22.9669  -19.6466  -13.6324 C   0  0  2  0  0  0  0  0  0  0  0  0
   22.6742  -20.2186  -14.9071 N   0  0  0  0  0  0  0  0  0  0  0  0
   23.9673  -20.4310  -12.9194 C   0  0  0  0  0  0  0  0  0  0  0  0
   23.6897  -21.6113  -12.5880 O   0  0  0  0  0  0  0  0  0  0  0  0
   29.8005  -21.6745  -12.5268 C   0  0  0  0  0  0  0  0  0  0  0  0
   28.4657  -21.7348  -11.8557 C   0  0  0  0  0  0  0  0  0  0  0  0
   27.5051  -20.7761  -12.5194 C   0  0  2  0  0  0  0  0  0  0  0  0
   28.1481  -19.4178  -12.6852 C   0  0  0  0  0  0  0  0  0  0  0  0
   26.2140  -20.7208  -11.7734 C   0  0  2  0  0  0  0  0  0  0  0  0
   25.2629  -19.9620  -12.5585 N   0  0  0  0  0  0  0  0  0  0  0  0
   26.3712  -20.1536  -10.4025 C   0  0  0  0  0  0  0  0  0  0  0  0
   27.1807  -19.2121  -10.2036 O   0  0  0  0  0  0  0  0  0  0  0  0
   27.1671  -20.2499   -5.0863 C   0  0  0  0  0  0  0  0  0  0  0  0
   27.9017  -19.8743   -6.3193 C   0  0  2  0  0  0  0  0  0  0  0  0
   28.5628  -18.5125   -6.0886 C   0  0  0  0  0  0  0  0  0  0  0  0
   27.1690  -19.8367   -7.6049 C   0  0  0  0  0  0  0  0  0  0  0  0
   26.3942  -21.0035   -8.0664 C   0  0  2  0  0  0  0  0  0  0  0  0
   25.6444  -20.6279   -9.2961 N   0  0  0  0  0  0  0  0  0  0  0  0
   25.4134  -21.6111   -7.1699 C   0  0  0  0  0  0  0  0  0  0  0  0
   25.6770  -22.3139   -6.1572 O   0  0  0  0  0  0  0  0  0  0  0  0
   24.0480  -21.4078   -7.4388 O   0  0  0  0  0  0  0  0  0  0  0  0
  1  2  1  0
  2  3  1  0
  3  4  1  0
  5  4  1  0
  5  6  1  6
  7  5  1  0
  8  7  2  0
 10 11  1  0
 10  9  1  0
 11 13  1  0
 11 12  1  1
 13 14  1  6
 14  7  1  0
 15 22  1  0
 15 13  1  0
 16 15  2  0
 18 19  1  1
 18 17  1  0
 21 20  1  1
 20 18  1  0
 21 22  1  0
 23 21  1  0
 24 23  2  0
 25 23  1  0
M  END
$$$$
