MIL.pdb
     RDKit          3D

 25 24  0  0  1  0  0  0  0  0999 V2000
   27.7609  -16.6722  -16.6508 C   0  0  0  0  0  0  0  0  0  0  0  0
   28.5170  -18.1935  -17.2203 S   0  0  0  0  0  0  0  0  0  0  0  0
   28.2454  -19.5666  -16.0682 C   0  0  0  0  0  0  0  0  0  0  0  0
   27.9649  -18.9716  -14.6839 C   0  0  0  0  0  0  0  0  0  0  0  0
   27.8737  -20.0517  -13.6410 C   0  0  2  0  0  0  0  0  0  0  0  0
   27.2990  -21.2237  -14.2192 N   0  0  0  0  0  0  0  0  0  0  0  0
   27.1643  -19.6588  -12.4299 C   0  0  0  0  0  0  0  0  0  0  0  0
   27.1840  -18.4518  -12.0797 O   0  0  0  0  0  0  0  0  0  0  0  0
   22.2576  -20.6538  -11.8631 C   0  0  0  0  0  0  0  0  0  0  0  0
   23.6216  -20.0601  -11.7134 C   0  0  0  0  0  0  0  0  0  0  0  0
   24.3127  -20.6411  -10.5021 C   0  0  2  0  0  0  0  0  0  0  0  0
   23.5011  -20.3735   -9.2549 C   0  0  0  0  0  0  0  0  0  0  0  0
   25.7144  -20.1393  -10.4021 C   0  0  2  0  0  0  0  0  0  0  0  0
   26.4337  -20.5480  -11.5905 N   0  0  0  0  0  0  0  0  0  0  0  0
   26.3985  -20.6020   -9.1597 C   0  0  0  0  0  0  0  0  0  0  0  0
   26.6921  -21.8170   -9.0221 O   0  0  0  0  0  0  0  0  0  0  0  0
   29.5784  -18.3586   -4.3425 C   0  0  0  0  0  0  0  0  0  0  0  0
   29.0853  -19.5263   -5.1133 C   0  0  2  0  0  0  0  0  0  0  0  0
   30.2695  -20.4586   -5.3833 C   0  0  0  0  0  0  0  0  0  0  0  0
   28.3644  -19.2912   -6.3846 C   0  0  0  0  0  0  0  0  0  0  0  0
   27.4242  -20.2955   -6.9160 C   0  0  2  0  0  0  0  0  0  0  0  0
   26.7399  -19.7300   -8.1107 N   0  0  0  0  0  0  0  0  0  0  0  0
   26.3629  -20.8091   -6.0530 C   0  0  0  0  0  0  0  0  0  0  0  0
   25.2506  -20.2542   -5.8434 O   0  0  0  0  0  0  0  0  0  0  0  0
   26.5767  -22.0291   -5.3867 O   0  0  0  0  0  0  0  0  0  0  0  0
  1  2  1  0
  2  3  1  0
  3  4  1  0
  5  4  1  0
  5  6  1  6
  7  5  1  0
  8  7  2  0
 10 11  1  0
 10  9  1  0
 11 13  1  0
 11 12  1  1
 13 14  1  6
 14  7  1  0
 15 22  1  0
 15 13  1  0
 16 15  2  0
 18 19  1  6
 18 17  1  0
 21 20  1  1
 20 18  1  0
 21 22  1  0
 23 21  1  0
 24 23  2  0
 25 23  1  0
M  END
$$$$
