MIL.pdb
     RDKit          3D

 25 24  0  0  1  0  0  0  0  0999 V2000
   22.1605  -13.1117    8.0532 C   0  0  0  0  0  0  0  0  0  0  0  0
   20.8331  -12.0103    8.5385 S   0  0  0  0  0  0  0  0  0  0  0  0
   19.7288  -11.6174    7.1555 C   0  0  0  0  0  0  0  0  0  0  0  0
   19.1157  -12.9297    6.6547 C   0  0  0  0  0  0  0  0  0  0  0  0
   18.2777  -12.6995    5.4269 C   0  0  2  0  0  0  0  0  0  0  0  0
   17.1514  -11.8902    5.7648 N   0  0  0  0  0  0  0  0  0  0  0  0
   17.8649  -13.9193    4.7442 C   0  0  0  0  0  0  0  0  0  0  0  0
   16.6484  -14.2355    4.7494 O   0  0  0  0  0  0  0  0  0  0  0  0
   21.0205  -15.6370    0.8370 C   0  0  0  0  0  0  0  0  0  0  0  0
   19.7792  -15.3036    1.6010 C   0  0  0  0  0  0  0  0  0  0  0  0
   19.3724  -16.4709    2.4693 C   0  0  2  0  0  0  0  0  0  0  0  0
   18.9368  -17.6376    1.6118 C   0  0  0  0  0  0  0  0  0  0  0  0
   18.3347  -16.0574    3.4585 C   0  0  2  0  0  0  0  0  0  0  0  0
   18.7442  -14.8035    4.0557 N   0  0  0  0  0  0  0  0  0  0  0  0
   18.0842  -17.1026    4.4932 C   0  0  0  0  0  0  0  0  0  0  0  0
   17.4816  -18.1611    4.1806 O   0  0  0  0  0  0  0  0  0  0  0  0
   21.6565  -18.8903    9.0526 C   0  0  0  0  0  0  0  0  0  0  0  0
   20.6105  -19.2250    8.0553 C   0  0  2  0  0  0  0  0  0  0  0  0
   21.1122  -20.3976    7.2080 C   0  0  0  0  0  0  0  0  0  0  0  0
   20.1170  -18.1612    7.1521 C   0  0  0  0  0  0  0  0  0  0  0  0
   18.7389  -18.1951    6.6281 C   0  0  2  0  0  0  0  0  0  0  0  0
   18.4965  -16.9622    5.8302 N   0  0  0  0  0  0  0  0  0  0  0  0
   17.6203  -18.2928    7.5630 C   0  0  0  0  0  0  0  0  0  0  0  0
   17.0053  -17.3214    8.0799 O   0  0  0  0  0  0  0  0  0  0  0  0
   17.1709  -19.5727    7.9341 O   0  0  0  0  0  0  0  0  0  0  0  0
  1  2  1  0
  2  3  1  0
  3  4  1  0
  5  4  1  0
  5  6  1  1
  7  5  1  0
  8  7  2  0
 10 11  1  0
 10  9  1  0
 11 13  1  0
 11 12  1  6
 13 14  1  1
 14  7  1  0
 15 22  1  0
 15 13  1  0
 16 15  2  0
 18 19  1  6
 18 17  1  0
 21 20  1  1
 20 18  1  0
 21 22  1  0
 23 21  1  0
 24 23  2  0
 25 23  1  0
M  END
$$$$
