MIL.pdb
     RDKit          3D

 25 24  0  0  1  0  0  0  0  0999 V2000
   33.9134  -29.2761    5.3975 C   0  0  0  0  0  0  0  0  0  0  0  0
   35.3844  -29.4615    4.3914 S   0  0  0  0  0  0  0  0  0  0  0  0
   36.1423  -27.8655    3.9855 C   0  0  0  0  0  0  0  0  0  0  0  0
   35.9138  -26.9206    5.1703 C   0  0  0  0  0  0  0  0  0  0  0  0
   36.3704  -25.5252    4.8431 C   0  0  2  0  0  0  0  0  0  0  0  0
   37.7958  -25.4959    4.7711 N   0  0  0  0  0  0  0  0  0  0  0  0
   35.8669  -24.5006    5.7493 C   0  0  0  0  0  0  0  0  0  0  0  0
   36.6300  -24.0514    6.6414 O   0  0  0  0  0  0  0  0  0  0  0  0
   32.1558  -21.0249    4.0734 C   0  0  0  0  0  0  0  0  0  0  0  0
   33.3341  -21.6201    4.7753 C   0  0  0  0  0  0  0  0  0  0  0  0
   32.8970  -22.2728    6.0657 C   0  0  2  0  0  0  0  0  0  0  0  0
   32.2912  -21.2459    6.9956 C   0  0  0  0  0  0  0  0  0  0  0  0
   34.0263  -23.0246    6.6868 C   0  0  2  0  0  0  0  0  0  0  0  0
   34.5527  -23.9527    5.7079 N   0  0  0  0  0  0  0  0  0  0  0  0
   33.6252  -23.7209    7.9437 C   0  0  0  0  0  0  0  0  0  0  0  0
   33.4075  -23.0534    8.9870 O   0  0  0  0  0  0  0  0  0  0  0  0
   29.9710  -25.1756   10.2592 C   0  0  0  0  0  0  0  0  0  0  0  0
   30.4976  -25.8435    9.0437 C   0  0  2  0  0  0  0  0  0  0  0  0
   29.4619  -26.8677    8.5713 C   0  0  0  0  0  0  0  0  0  0  0  0
   31.8229  -26.4998    9.1057 C   0  0  0  0  0  0  0  0  0  0  0  0
   33.0480  -25.7078    9.3219 C   0  0  2  0  0  0  0  0  0  0  0  0
   33.4746  -25.1167    8.0243 N   0  0  0  0  0  0  0  0  0  0  0  0
   34.2335  -26.3599    9.8733 C   0  0  0  0  0  0  0  0  0  0  0  0
   35.3246  -26.5389    9.2678 O   0  0  0  0  0  0  0  0  0  0  0  0
   34.1779  -26.8384   11.1947 O   0  0  0  0  0  0  0  0  0  0  0  0
  1  2  1  0
  2  3  1  0
  3  4  1  0
  5  4  1  0
  5  6  1  1
  7  5  1  0
  8  7  2  0
 10 11  1  0
 10  9  1  0
 11 13  1  0
 11 12  1  1
 13 14  1  6
 14  7  1  0
 15 22  1  0
 15 13  1  0
 16 15  2  0
 18 19  1  1
 18 17  1  0
 21 20  1  6
 20 18  1  0
 21 22  1  0
 23 21  1  0
 24 23  2  0
 25 23  1  0
M  END
$$$$
