MIL.pdb
     RDKit          3D

 25 24  0  0  1  0  0  0  0  0999 V2000
   18.8560  -20.3108  -13.4522 C   0  0  0  0  0  0  0  0  0  0  0  0
   18.3015  -20.4450  -15.1507 S   0  0  0  0  0  0  0  0  0  0  0  0
   19.5306  -21.2522  -16.2109 C   0  0  0  0  0  0  0  0  0  0  0  0
   20.7001  -21.6940  -15.3243 C   0  0  0  0  0  0  0  0  0  0  0  0
   21.7871  -22.3332  -16.1443 C   0  0  2  0  0  0  0  0  0  0  0  0
   21.3257  -23.5848  -16.6526 N   0  0  0  0  0  0  0  0  0  0  0  0
   23.0571  -22.4837  -15.4451 C   0  0  0  0  0  0  0  0  0  0  0  0
   23.2806  -23.5485  -14.8155 O   0  0  0  0  0  0  0  0  0  0  0  0
   27.0268  -21.7106  -17.9046 C   0  0  0  0  0  0  0  0  0  0  0  0
   26.5938  -22.3562  -16.6274 C   0  0  0  0  0  0  0  0  0  0  0  0
   26.4654  -21.3190  -15.5366 C   0  0  2  0  0  0  0  0  0  0  0  0
   27.7698  -21.1828  -14.7842 C   0  0  0  0  0  0  0  0  0  0  0  0
   25.3101  -21.6299  -14.6450 C   0  0  2  0  0  0  0  0  0  0  0  0
   24.0900  -21.5034  -15.4145 N   0  0  0  0  0  0  0  0  0  0  0  0
   25.2824  -20.7700  -13.4262 C   0  0  0  0  0  0  0  0  0  0  0  0
   24.8639  -19.5867  -13.5043 O   0  0  0  0  0  0  0  0  0  0  0  0
   26.8769  -19.1847   -8.2464 C   0  0  0  0  0  0  0  0  0  0  0  0
   25.8230  -20.1983   -8.4970 C   0  0  2  0  0  0  0  0  0  0  0  0
   25.8362  -21.2013   -7.3401 C   0  0  0  0  0  0  0  0  0  0  0  0
   25.8382  -20.9447   -9.7751 C   0  0  0  0  0  0  0  0  0  0  0  0
   25.8466  -20.2312  -11.0658 C   0  0  2  0  0  0  0  0  0  0  0  0
   25.7098  -21.2244  -12.1660 N   0  0  0  0  0  0  0  0  0  0  0  0
   26.9967  -19.4013  -11.4169 C   0  0  0  0  0  0  0  0  0  0  0  0
   27.0228  -18.1410  -11.4183 O   0  0  0  0  0  0  0  0  0  0  0  0
   28.1924  -20.0415  -11.7892 O   0  0  0  0  0  0  0  0  0  0  0  0
  1  2  1  0
  2  3  1  0
  3  4  1  0
  5  4  1  0
  5  6  1  1
  7  5  1  0
  8  7  2  0
 10 11  1  0
 10  9  1  0
 11 13  1  0
 11 12  1  1
 13 14  1  6
 14  7  1  0
 15 22  1  0
 15 13  1  0
 16 15  2  0
 18 19  1  1
 18 17  1  0
 21 20  1  1
 20 18  1  0
 21 22  1  0
 23 21  1  0
 24 23  2  0
 25 23  1  0
M  END
$$$$
