MIL.pdb
     RDKit          3D

 25 24  0  0  1  0  0  0  0  0999 V2000
   19.3927  -19.6505  -14.3509 C   0  0  0  0  0  0  0  0  0  0  0  0
   19.2753  -19.1670  -16.0722 S   0  0  0  0  0  0  0  0  0  0  0  0
   20.8438  -19.3870  -16.9541 C   0  0  0  0  0  0  0  0  0  0  0  0
   21.7511  -20.2687  -16.0889 C   0  0  0  0  0  0  0  0  0  0  0  0
   23.1350  -20.3544  -16.6721 C   0  0  2  0  0  0  0  0  0  0  0  0
   23.0952  -21.1111  -17.8819 N   0  0  0  0  0  0  0  0  0  0  0  0
   24.1413  -20.8766  -15.7562 C   0  0  0  0  0  0  0  0  0  0  0  0
   24.2992  -22.1209  -15.6735 O   0  0  0  0  0  0  0  0  0  0  0  0
   29.0652  -19.5021  -15.5582 C   0  0  0  0  0  0  0  0  0  0  0  0
   27.7279  -20.1582  -15.4294 C   0  0  0  0  0  0  0  0  0  0  0  0
   27.1884  -19.9715  -14.0307 C   0  0  2  0  0  0  0  0  0  0  0  0
   28.1846  -20.4756  -13.0112 C   0  0  0  0  0  0  0  0  0  0  0  0
   25.8448  -20.6058  -13.8935 C   0  0  2  0  0  0  0  0  0  0  0  0
   24.9803  -20.0773  -14.9278 N   0  0  0  0  0  0  0  0  0  0  0  0
   25.2585  -20.4118  -12.5354 C   0  0  0  0  0  0  0  0  0  0  0  0
   24.8333  -19.2789  -12.1932 O   0  0  0  0  0  0  0  0  0  0  0  0
   26.4850  -21.7557   -7.8442 C   0  0  0  0  0  0  0  0  0  0  0  0
   26.6318  -20.6522   -8.8248 C   0  0  2  0  0  0  0  0  0  0  0  0
   27.2637  -19.4548   -8.1096 C   0  0  0  0  0  0  0  0  0  0  0  0
   25.4361  -20.1889   -9.5643 C   0  0  0  0  0  0  0  0  0  0  0  0
   24.5633  -21.1490  -10.2653 C   0  0  2  0  0  0  0  0  0  0  0  0
   25.1543  -21.4538  -11.5969 N   0  0  0  0  0  0  0  0  0  0  0  0
   23.1685  -20.7951  -10.5184 C   0  0  0  0  0  0  0  0  0  0  0  0
   22.2393  -20.8066   -9.6666 O   0  0  0  0  0  0  0  0  0  0  0  0
   22.8053  -20.4030  -11.8192 O   0  0  0  0  0  0  0  0  0  0  0  0
  1  2  1  0
  2  3  1  0
  3  4  1  0
  5  4  1  0
  5  6  1  6
  7  5  1  0
  8  7  2  0
 10 11  1  0
 10  9  1  0
 11 13  1  0
 11 12  1  1
 13 14  1  6
 14  7  1  0
 15 22  1  0
 15 13  1  0
 16 15  2  0
 18 19  1  1
 18 17  1  0
 21 20  1  6
 20 18  1  0
 21 22  1  0
 23 21  1  0
 24 23  2  0
 25 23  1  0
M  END
$$$$
