MIL.pdb
     RDKit          3D

 25 24  0  0  1  0  0  0  0  0999 V2000
   20.4776  -18.2328  -13.6225 C   0  0  0  0  0  0  0  0  0  0  0  0
   20.8783  -17.9538  -15.3466 S   0  0  0  0  0  0  0  0  0  0  0  0
   22.1360  -19.1098  -15.9533 C   0  0  0  0  0  0  0  0  0  0  0  0
   22.8067  -19.7575  -14.7368 C   0  0  0  0  0  0  0  0  0  0  0  0
   23.9285  -20.6660  -15.1595 C   0  0  2  0  0  0  0  0  0  0  0  0
   23.4037  -21.7350  -15.9467 N   0  0  0  0  0  0  0  0  0  0  0  0
   24.7398  -21.1706  -14.0587 C   0  0  0  0  0  0  0  0  0  0  0  0
   24.3793  -22.2219  -13.4715 O   0  0  0  0  0  0  0  0  0  0  0  0
   28.4102  -21.0917  -15.0566 C   0  0  0  0  0  0  0  0  0  0  0  0
   28.6497  -21.6776  -13.7021 C   0  0  0  0  0  0  0  0  0  0  0  0
   28.1145  -20.7543  -12.6328 C   0  0  2  0  0  0  0  0  0  0  0  0
   28.9356  -20.8807  -11.3696 C   0  0  0  0  0  0  0  0  0  0  0  0
   26.6594  -20.9951  -12.4067 C   0  0  2  0  0  0  0  0  0  0  0  0
   25.9343  -20.5586  -13.5815 N   0  0  0  0  0  0  0  0  0  0  0  0
   26.1560  -20.3275  -11.1711 C   0  0  0  0  0  0  0  0  0  0  0  0
   26.0301  -19.0766  -11.1424 O   0  0  0  0  0  0  0  0  0  0  0  0
   22.1057  -19.7625   -9.1190 C   0  0  0  0  0  0  0  0  0  0  0  0
   22.8081  -21.0529   -8.9131 C   0  0  2  0  0  0  0  0  0  0  0  0
   21.8827  -21.9828   -8.1233 C   0  0  0  0  0  0  0  0  0  0  0  0
   24.1407  -21.0469   -8.2688 C   0  0  0  0  0  0  0  0  0  0  0  0
   25.2582  -20.2825   -8.8533 C   0  0  2  0  0  0  0  0  0  0  0  0
   25.8071  -21.0407  -10.0105 N   0  0  0  0  0  0  0  0  0  0  0  0
   26.4070  -19.9422   -8.0170 C   0  0  0  0  0  0  0  0  0  0  0  0
   27.5172  -20.5392   -8.0121 O   0  0  0  0  0  0  0  0  0  0  0  0
   26.2889  -18.8561   -7.1313 O   0  0  0  0  0  0  0  0  0  0  0  0
  1  2  1  0
  2  3  1  0
  3  4  1  0
  5  4  1  0
  5  6  1  1
  7  5  1  0
  8  7  2  0
 10 11  1  0
 10  9  1  0
 11 13  1  0
 11 12  1  1
 13 14  1  6
 14  7  1  0
 15 22  1  0
 15 13  1  0
 16 15  2  0
 18 19  1  1
 18 17  1  0
 21 20  1  1
 20 18  1  0
 21 22  1  0
 23 21  1  0
 24 23  2  0
 25 23  1  0
M  END
$$$$
