MIL.pdb
     RDKit          3D

 25 24  0  0  1  0  0  0  0  0999 V2000
   32.3236  -23.9718  -13.5591 C   0  0  0  0  0  0  0  0  0  0  0  0
   32.3390  -24.8357  -15.1288 S   0  0  0  0  0  0  0  0  0  0  0  0
   30.9976  -24.2947  -16.2217 C   0  0  0  0  0  0  0  0  0  0  0  0
   30.2860  -23.1169  -15.5467 C   0  0  0  0  0  0  0  0  0  0  0  0
   29.1155  -22.6513  -16.3687 C   0  0  2  0  0  0  0  0  0  0  0  0
   29.5704  -22.2560  -17.6628 N   0  0  0  0  0  0  0  0  0  0  0  0
   28.3236  -21.5992  -15.7439 C   0  0  0  0  0  0  0  0  0  0  0  0
   28.6298  -20.3995  -15.9605 O   0  0  0  0  0  0  0  0  0  0  0  0
   25.7360  -20.2173  -17.8991 C   0  0  0  0  0  0  0  0  0  0  0  0
   26.1094  -19.6436  -16.5699 C   0  0  0  0  0  0  0  0  0  0  0  0
   25.3925  -20.3817  -15.4638 C   0  0  2  0  0  0  0  0  0  0  0  0
   24.2281  -19.5632  -14.9539 C   0  0  0  0  0  0  0  0  0  0  0  0
   26.3459  -20.7714  -14.3842 C   0  0  2  0  0  0  0  0  0  0  0  0
   27.2061  -21.8211  -14.8888 N   0  0  0  0  0  0  0  0  0  0  0  0
   25.6503  -21.1862  -13.1312 C   0  0  0  0  0  0  0  0  0  0  0  0
   25.0038  -22.2644  -13.1017 O   0  0  0  0  0  0  0  0  0  0  0  0
   27.5910  -21.6857   -9.0577 C   0  0  0  0  0  0  0  0  0  0  0  0
   26.9599  -20.3640   -9.2933 C   0  0  2  0  0  0  0  0  0  0  0  0
   27.2867  -19.4566   -8.1040 C   0  0  0  0  0  0  0  0  0  0  0  0
   25.5040  -20.3029   -9.5534 C   0  0  0  0  0  0  0  0  0  0  0  0
   24.9283  -20.9085  -10.7686 C   0  0  2  0  0  0  0  0  0  0  0  0
   25.6809  -20.4165  -11.9548 N   0  0  0  0  0  0  0  0  0  0  0  0
   23.5157  -20.6944  -11.0743 C   0  0  0  0  0  0  0  0  0  0  0  0
   23.0576  -19.8407  -11.8808 O   0  0  0  0  0  0  0  0  0  0  0  0
   22.5631  -21.4999  -10.4249 O   0  0  0  0  0  0  0  0  0  0  0  0
  1  2  1  0
  2  3  1  0
  3  4  1  0
  5  4  1  0
  5  6  1  6
  7  5  1  0
  8  7  2  0
 10 11  1  0
 10  9  1  0
 11 13  1  0
 11 12  1  1
 13 14  1  6
 14  7  1  0
 15 22  1  0
 15 13  1  0
 16 15  2  0
 18 19  1  1
 18 17  1  0
 21 20  1  1
 20 18  1  0
 21 22  1  0
 23 21  1  0
 24 23  2  0
 25 23  1  0
M  END
$$$$
