HMA.pdb
     RDKit          3D

 24 24  0  0  1  0  0  0  0  0999 V2000
    9.4692  -16.3954   19.6705 N   0  0  0  0  0  0  0  0  0  0  0  0
    8.5945  -16.7080   20.7480 C   0  0  1  0  0  0  0  0  0  0  0  0
    8.2044  -18.1366   20.8870 C   0  0  0  0  0  0  0  0  0  0  0  0
    7.4834  -18.7262   19.7396 C   0  0  0  0  0  0  0  0  0  0  0  0
    6.4216  -18.2259   19.0305 C   0  0  0  0  0  0  0  0  0  0  0  0
    6.1543  -19.1452   18.0601 N   0  0  0  0  0  0  0  0  0  0  0  0
    7.0072  -20.1708   18.1560 C   0  0  0  0  0  0  0  0  0  0  0  0
    7.8319  -19.9386   19.1767 N   0  0  0  0  0  0  0  0  0  0  0  0
    9.0939  -16.1167   22.0117 C   0  0  0  0  0  0  0  0  0  0  0  0
   10.3537  -16.1013   22.2656 O   0  0  0  0  0  0  0  0  0  0  0  0
    6.7446  -11.7625   28.1461 C   0  0  0  0  0  0  0  0  0  0  0  0
    6.4876  -12.5028   26.5048 S   0  0  0  0  0  0  0  0  0  0  0  0
    7.9280  -13.5798   26.1182 C   0  0  0  0  0  0  0  0  0  0  0  0
    7.7205  -14.1246   24.7558 C   0  0  0  0  0  0  0  0  0  0  0  0
    8.8002  -15.0293   24.2275 C   0  0  2  0  0  0  0  0  0  0  0  0
    8.2302  -15.5650   22.9605 N   0  0  0  0  0  0  0  0  0  0  0  0
    9.1026  -16.1801   25.1147 C   0  0  0  0  0  0  0  0  0  0  0  0
    8.1569  -16.9544   25.4103 O   0  0  0  0  0  0  0  0  0  0  0  0
   11.9064  -18.2007   26.4489 C   0  0  0  0  0  0  0  0  0  0  0  0
   10.5344  -17.6257   26.5295 C   0  0  2  0  0  0  0  0  0  0  0  0
   10.3739  -16.4684   25.6474 N   0  0  0  0  0  0  0  0  0  0  0  0
   10.2977  -17.2278   27.9555 C   0  0  0  0  0  0  0  0  0  0  0  0
   10.0411  -16.0470   28.2802 O   0  0  0  0  0  0  0  0  0  0  0  0
   10.3733  -18.2250   28.9165 O   0  0  0  0  0  0  0  0  0  0  0  0
  2  1  1  6
  2  9  1  0
  3  2  1  0
  4  3  1  0
  5  4  2  0
  6  7  1  0
  6  5  1  0
  7  8  2  0
  8  4  1  0
  9 10  2  0
 11 12  1  0
 13 12  1  0
 13 14  1  0
 15 14  1  1
 15 17  1  0
 16 15  1  0
 16  9  1  0
 17 21  1  0
 17 18  2  0
 20 19  1  1
 20 22  1  0
 21 20  1  0
 22 23  2  0
 22 24  1  0
M  END
$$$$
