HMA.pdb
     RDKit          3D

 24 24  0  0  1  0  0  0  0  0999 V2000
    7.4618  -15.7714   20.3021 N   0  0  0  0  0  0  0  0  0  0  0  0
    8.7068  -15.1339   20.5620 C   0  0  1  0  0  0  0  0  0  0  0  0
    9.0239  -13.9431   19.7291 C   0  0  0  0  0  0  0  0  0  0  0  0
    8.5640  -13.9926   18.3256 C   0  0  0  0  0  0  0  0  0  0  0  0
    7.6550  -13.1940   17.6803 C   0  0  0  0  0  0  0  0  0  0  0  0
    7.6119  -13.6418   16.3934 N   0  0  0  0  0  0  0  0  0  0  0  0
    8.4530  -14.6700   16.2397 C   0  0  0  0  0  0  0  0  0  0  0  0
    9.0489  -14.9048   17.4084 N   0  0  0  0  0  0  0  0  0  0  0  0
    8.8722  -14.8879   22.0139 C   0  0  0  0  0  0  0  0  0  0  0  0
    9.9370  -14.3209   22.4570 O   0  0  0  0  0  0  0  0  0  0  0  0
    6.9440  -11.3678   27.3736 C   0  0  0  0  0  0  0  0  0  0  0  0
    7.8269  -12.6943   26.4968 S   0  0  0  0  0  0  0  0  0  0  0  0
    6.6864  -14.1243   26.3008 C   0  0  0  0  0  0  0  0  0  0  0  0
    6.7613  -14.5600   24.8864 C   0  0  0  0  0  0  0  0  0  0  0  0
    8.1215  -14.9590   24.3825 C   0  0  2  0  0  0  0  0  0  0  0  0
    7.8957  -15.2581   22.9413 N   0  0  0  0  0  0  0  0  0  0  0  0
    8.6607  -16.1840   25.0240 C   0  0  0  0  0  0  0  0  0  0  0  0
    7.9454  -17.2180   25.0027 O   0  0  0  0  0  0  0  0  0  0  0  0
   11.7362  -17.9038   25.7982 C   0  0  0  0  0  0  0  0  0  0  0  0
   10.3491  -17.5534   26.2137 C   0  0  2  0  0  0  0  0  0  0  0  0
    9.9175  -16.2718   25.6530 N   0  0  0  0  0  0  0  0  0  0  0  0
   10.3301  -17.4968   27.7118 C   0  0  0  0  0  0  0  0  0  0  0  0
    9.9962  -16.4625   28.3317 O   0  0  0  0  0  0  0  0  0  0  0  0
   10.6999  -18.6441   28.3979 O   0  0  0  0  0  0  0  0  0  0  0  0
  2  1  1  1
  2  9  1  0
  3  2  1  0
  4  3  1  0
  5  4  2  0
  6  7  1  0
  6  5  1  0
  7  8  2  0
  8  4  1  0
  9 10  2  0
 11 12  1  0
 13 12  1  0
 13 14  1  0
 15 14  1  1
 15 17  1  0
 16 15  1  0
 16  9  1  0
 17 21  1  0
 17 18  2  0
 20 19  1  6
 20 22  1  0
 21 20  1  0
 22 23  2  0
 22 24  1  0
M  END
$$$$
