HMA.pdb
     RDKit          3D

 24 24  0  0  1  0  0  0  0  0999 V2000
   10.2678  -16.0938   20.3761 N   0  0  0  0  0  0  0  0  0  0  0  0
    9.8374  -16.7924   21.5383 C   0  0  1  0  0  0  0  0  0  0  0  0
   10.6230  -17.9994   21.9104 C   0  0  0  0  0  0  0  0  0  0  0  0
   10.5318  -19.1443   20.9804 C   0  0  0  0  0  0  0  0  0  0  0  0
    9.4198  -19.7488   20.4528 C   0  0  0  0  0  0  0  0  0  0  0  0
    9.8838  -20.7359   19.6350 N   0  0  0  0  0  0  0  0  0  0  0  0
   11.2210  -20.7486   19.6489 C   0  0  0  0  0  0  0  0  0  0  0  0
   11.6429  -19.7833   20.4652 N   0  0  0  0  0  0  0  0  0  0  0  0
    9.6451  -15.8534   22.6684 C   0  0  0  0  0  0  0  0  0  0  0  0
   10.4474  -14.8625   22.8300 O   0  0  0  0  0  0  0  0  0  0  0  0
    6.3519  -11.4232   27.1260 C   0  0  0  0  0  0  0  0  0  0  0  0
    6.9220  -12.4485   25.7361 S   0  0  0  0  0  0  0  0  0  0  0  0
    6.4806  -14.2003   26.0835 C   0  0  0  0  0  0  0  0  0  0  0  0
    6.9455  -15.0105   24.9331 C   0  0  0  0  0  0  0  0  0  0  0  0
    8.4221  -14.9775   24.6471 C   0  0  2  0  0  0  0  0  0  0  0  0
    8.6045  -16.0072   23.5870 N   0  0  0  0  0  0  0  0  0  0  0  0
    9.2642  -15.3623   25.8071 C   0  0  0  0  0  0  0  0  0  0  0  0
    9.5437  -16.5802   25.9479 O   0  0  0  0  0  0  0  0  0  0  0  0
   10.7706  -13.9408   28.9354 C   0  0  0  0  0  0  0  0  0  0  0  0
   10.5597  -14.9749   27.8839 C   0  0  2  0  0  0  0  0  0  0  0  0
    9.7746  -14.4603   26.7605 N   0  0  0  0  0  0  0  0  0  0  0  0
    9.8513  -16.1298   28.5259 C   0  0  0  0  0  0  0  0  0  0  0  0
    8.6486  -16.3828   28.2914 O   0  0  0  0  0  0  0  0  0  0  0  0
   10.5826  -16.9198   29.4004 O   0  0  0  0  0  0  0  0  0  0  0  0
  2  1  1  6
  2  9  1  0
  3  2  1  0
  4  3  1  0
  5  4  2  0
  6  7  1  0
  6  5  1  0
  7  8  2  0
  8  4  1  0
  9 10  2  0
 11 12  1  0
 13 12  1  0
 13 14  1  0
 15 14  1  1
 15 17  1  0
 16 15  1  0
 16  9  1  0
 17 21  1  0
 17 18  2  0
 20 19  1  1
 20 22  1  0
 21 20  1  0
 22 23  2  0
 22 24  1  0
M  END
$$$$
