HMA.pdb
     RDKit          3D

 24 24  0  0  1  0  0  0  0  0999 V2000
   10.6329  -13.5991   20.2495 N   0  0  0  0  0  0  0  0  0  0  0  0
    9.3842  -14.1203   20.6889 C   0  0  1  0  0  0  0  0  0  0  0  0
    8.7965  -15.2081   19.8621 C   0  0  0  0  0  0  0  0  0  0  0  0
    8.3529  -14.8240   18.5058 C   0  0  0  0  0  0  0  0  0  0  0  0
    8.4996  -13.6289   17.8495 C   0  0  0  0  0  0  0  0  0  0  0  0
    7.9397  -13.8072   16.6194 N   0  0  0  0  0  0  0  0  0  0  0  0
    7.4661  -15.0530   16.5100 C   0  0  0  0  0  0  0  0  0  0  0  0
    7.7068  -15.6968   17.6519 N   0  0  0  0  0  0  0  0  0  0  0  0
    9.4378  -14.4521   22.1321 C   0  0  0  0  0  0  0  0  0  0  0  0
   10.5484  -14.8047   22.6743 O   0  0  0  0  0  0  0  0  0  0  0  0
    7.5877  -11.4543   27.4575 C   0  0  0  0  0  0  0  0  0  0  0  0
    6.1868  -12.0501   26.4623 S   0  0  0  0  0  0  0  0  0  0  0  0
    6.8281  -12.6247   24.8367 C   0  0  0  0  0  0  0  0  0  0  0  0
    7.1408  -14.0672   24.9688 C   0  0  0  0  0  0  0  0  0  0  0  0
    8.4680  -14.5151   24.4199 C   0  0  2  0  0  0  0  0  0  0  0  0
    8.3032  -14.3979   22.9446 N   0  0  0  0  0  0  0  0  0  0  0  0
    8.7973  -15.9284   24.7316 C   0  0  0  0  0  0  0  0  0  0  0  0
    7.9635  -16.8094   24.4004 O   0  0  0  0  0  0  0  0  0  0  0  0
   11.5758  -18.2048   25.2571 C   0  0  0  0  0  0  0  0  0  0  0  0
   10.1900  -17.7829   25.6050 C   0  0  2  0  0  0  0  0  0  0  0  0
    9.9783  -16.3535   25.3700 N   0  0  0  0  0  0  0  0  0  0  0  0
    9.9716  -18.1086   27.0520 C   0  0  0  0  0  0  0  0  0  0  0  0
    9.6394  -17.2359   27.8850 O   0  0  0  0  0  0  0  0  0  0  0  0
   10.1521  -19.4270   27.4430 O   0  0  0  0  0  0  0  0  0  0  0  0
  2  1  1  6
  2  9  1  0
  3  2  1  0
  4  3  1  0
  5  4  2  0
  6  7  1  0
  6  5  1  0
  7  8  2  0
  8  4  1  0
  9 10  2  0
 11 12  1  0
 13 12  1  0
 13 14  1  0
 15 14  1  1
 15 17  1  0
 16 15  1  0
 16  9  1  0
 17 21  1  0
 17 18  2  0
 20 19  1  1
 20 22  1  0
 21 20  1  0
 22 23  2  0
 22 24  1  0
M  END
$$$$
