HMA.pdb
     RDKit          3D

 24 24  0  0  1  0  0  0  0  0999 V2000
    9.4577  -16.5230   19.7250 N   0  0  0  0  0  0  0  0  0  0  0  0
    8.7574  -16.9869   20.8731 C   0  0  1  0  0  0  0  0  0  0  0  0
    8.6408  -18.4622   21.0225 C   0  0  0  0  0  0  0  0  0  0  0  0
    8.6516  -19.2436   19.7682 C   0  0  0  0  0  0  0  0  0  0  0  0
    9.5069  -19.1598   18.6995 C   0  0  0  0  0  0  0  0  0  0  0  0
    9.0987  -20.1169   17.8187 N   0  0  0  0  0  0  0  0  0  0  0  0
    8.0402  -20.7688   18.3116 C   0  0  0  0  0  0  0  0  0  0  0  0
    7.7463  -20.2533   19.5049 N   0  0  0  0  0  0  0  0  0  0  0  0
    9.2610  -16.3174   22.0954 C   0  0  0  0  0  0  0  0  0  0  0  0
   10.5211  -16.1193   22.2523 O   0  0  0  0  0  0  0  0  0  0  0  0
    7.1278  -11.4546   27.8299 C   0  0  0  0  0  0  0  0  0  0  0  0
    6.7474  -12.4889   26.3830 S   0  0  0  0  0  0  0  0  0  0  0  0
    8.1770  -13.6036   26.0703 C   0  0  0  0  0  0  0  0  0  0  0  0
    7.9121  -14.3174   24.7989 C   0  0  0  0  0  0  0  0  0  0  0  0
    8.9833  -15.2638   24.3295 C   0  0  2  0  0  0  0  0  0  0  0  0
    8.4015  -15.8854   23.1078 N   0  0  0  0  0  0  0  0  0  0  0  0
    9.2858  -16.3500   25.2946 C   0  0  0  0  0  0  0  0  0  0  0  0
    8.3594  -17.1497   25.5836 O   0  0  0  0  0  0  0  0  0  0  0  0
   12.1443  -18.2407   26.6517 C   0  0  0  0  0  0  0  0  0  0  0  0
   10.7447  -17.7378   26.7393 C   0  0  2  0  0  0  0  0  0  0  0  0
   10.5372  -16.5505   25.9084 N   0  0  0  0  0  0  0  0  0  0  0  0
   10.4720  -17.4179   28.1784 C   0  0  0  0  0  0  0  0  0  0  0  0
   10.5850  -18.2768   29.0813 O   0  0  0  0  0  0  0  0  0  0  0  0
   10.0852  -16.1207   28.4809 O   0  0  0  0  0  0  0  0  0  0  0  0
  2  1  1  6
  2  9  1  0
  3  2  1  0
  4  3  1  0
  5  4  2  0
  6  7  1  0
  6  5  1  0
  7  8  2  0
  8  4  1  0
  9 10  2  0
 11 12  1  0
 13 12  1  0
 13 14  1  0
 15 14  1  1
 15 17  1  0
 16 15  1  0
 16  9  1  0
 17 21  1  0
 17 18  2  0
 20 19  1  1
 20 22  1  0
 21 20  1  0
 22 23  2  0
 22 24  1  0
M  END
$$$$
