HMA.pdb
     RDKit          3D

 24 24  0  0  1  0  0  0  0  0999 V2000
    8.8903  -16.2919   19.8884 N   0  0  0  0  0  0  0  0  0  0  0  0
    8.0612  -16.7779   20.9374 C   0  0  1  0  0  0  0  0  0  0  0  0
    7.8939  -18.2538   21.0151 C   0  0  0  0  0  0  0  0  0  0  0  0
    7.2585  -18.8966   19.8459 C   0  0  0  0  0  0  0  0  0  0  0  0
    6.9103  -18.3511   18.6369 C   0  0  0  0  0  0  0  0  0  0  0  0
    6.3840  -19.3730   17.9039 N   0  0  0  0  0  0  0  0  0  0  0  0
    6.4022  -20.5033   18.6184 C   0  0  0  0  0  0  0  0  0  0  0  0
    6.9332  -20.2388   19.8117 N   0  0  0  0  0  0  0  0  0  0  0  0
    8.4484  -16.1683   22.2314 C   0  0  0  0  0  0  0  0  0  0  0  0
    9.6889  -15.9971   22.5206 O   0  0  0  0  0  0  0  0  0  0  0  0
    8.2230  -11.8146   27.9340 C   0  0  0  0  0  0  0  0  0  0  0  0
    8.1117  -12.6026   26.2985 S   0  0  0  0  0  0  0  0  0  0  0  0
    6.8587  -13.9468   26.3823 C   0  0  0  0  0  0  0  0  0  0  0  0
    6.7330  -14.5205   25.0217 C   0  0  0  0  0  0  0  0  0  0  0  0
    7.9617  -15.1829   24.4608 C   0  0  2  0  0  0  0  0  0  0  0  0
    7.4974  -15.7654   23.1715 N   0  0  0  0  0  0  0  0  0  0  0  0
    8.4800  -16.2906   25.3019 C   0  0  0  0  0  0  0  0  0  0  0  0
    7.6738  -17.1945   25.6395 O   0  0  0  0  0  0  0  0  0  0  0  0
   11.6267  -17.9884   26.1737 C   0  0  0  0  0  0  0  0  0  0  0  0
   10.2215  -17.6008   26.4816 C   0  0  2  0  0  0  0  0  0  0  0  0
    9.8113  -16.4028   25.7471 N   0  0  0  0  0  0  0  0  0  0  0  0
   10.1363  -17.3582   27.9587 C   0  0  0  0  0  0  0  0  0  0  0  0
   10.4046  -18.2508   28.7935 O   0  0  0  0  0  0  0  0  0  0  0  0
    9.7451  -16.0946   28.3756 O   0  0  0  0  0  0  0  0  0  0  0  0
  2  1  1  6
  2  9  1  0
  3  2  1  0
  4  3  1  0
  5  4  2  0
  6  7  1  0
  6  5  1  0
  7  8  2  0
  8  4  1  0
  9 10  2  0
 11 12  1  0
 13 12  1  0
 13 14  1  0
 15 14  1  1
 15 17  1  0
 16 15  1  0
 16  9  1  0
 17 21  1  0
 17 18  2  0
 20 19  1  1
 20 22  1  0
 21 20  1  0
 22 23  2  0
 22 24  1  0
M  END
$$$$
