HMA.pdb
     RDKit          3D

 24 24  0  0  1  0  0  0  0  0999 V2000
    7.7055  -16.7707   20.6771 N   0  0  0  0  0  0  0  0  0  0  0  0
    9.0472  -16.3186   20.8157 C   0  0  1  0  0  0  0  0  0  0  0  0
    9.5849  -15.4977   19.6980 C   0  0  0  0  0  0  0  0  0  0  0  0
    8.6295  -14.5703   19.0569 C   0  0  0  0  0  0  0  0  0  0  0  0
    8.2150  -13.3292   19.4670 C   0  0  0  0  0  0  0  0  0  0  0  0
    7.3515  -12.8883   18.5087 N   0  0  0  0  0  0  0  0  0  0  0  0
    7.2314  -13.8078   17.5450 C   0  0  0  0  0  0  0  0  0  0  0  0
    8.0042  -14.8478   17.8567 N   0  0  0  0  0  0  0  0  0  0  0  0
    9.2516  -15.6955   22.1446 C   0  0  0  0  0  0  0  0  0  0  0  0
   10.3717  -15.1342   22.4308 O   0  0  0  0  0  0  0  0  0  0  0  0
    8.1037  -11.9067   27.9266 C   0  0  0  0  0  0  0  0  0  0  0  0
    6.9894  -12.5513   26.6417 S   0  0  0  0  0  0  0  0  0  0  0  0
    7.2767  -14.3606   26.4741 C   0  0  0  0  0  0  0  0  0  0  0  0
    7.3148  -14.6706   25.0254 C   0  0  0  0  0  0  0  0  0  0  0  0
    8.5974  -15.2574   24.5022 C   0  0  2  0  0  0  0  0  0  0  0  0
    8.2534  -15.6959   23.1214 N   0  0  0  0  0  0  0  0  0  0  0  0
    9.0615  -16.4480   25.2571 C   0  0  0  0  0  0  0  0  0  0  0  0
    8.3171  -17.4615   25.2651 O   0  0  0  0  0  0  0  0  0  0  0  0
   12.0763  -18.1239   26.4089 C   0  0  0  0  0  0  0  0  0  0  0  0
   10.6430  -17.7789   26.6242 C   0  0  2  0  0  0  0  0  0  0  0  0
   10.2772  -16.5248   25.9635 N   0  0  0  0  0  0  0  0  0  0  0  0
   10.4253  -17.6685   28.1035 C   0  0  0  0  0  0  0  0  0  0  0  0
   10.0177  -16.6123   28.6364 O   0  0  0  0  0  0  0  0  0  0  0  0
   10.6940  -18.7908   28.8729 O   0  0  0  0  0  0  0  0  0  0  0  0
  2  1  1  6
  2  9  1  0
  3  2  1  0
  4  3  1  0
  5  4  2  0
  6  7  1  0
  6  5  1  0
  7  8  2  0
  8  4  1  0
  9 10  2  0
 11 12  1  0
 13 12  1  0
 13 14  1  0
 15 14  1  1
 15 17  1  0
 16 15  1  0
 16  9  1  0
 17 21  1  0
 17 18  2  0
 20 19  1  1
 20 22  1  0
 21 20  1  0
 22 23  2  0
 22 24  1  0
M  END
$$$$
