RMA.pdb
     RDKit          3D

 25 24  0  0  1  0  0  0  0  0999 V2000
   29.7818  -20.2931  -18.6284 N   0  0  0  0  0  0  0  0  0  0  0  0
   29.1833  -19.0992  -19.1500 C   0  0  0  0  0  0  0  0  0  0  0  0
   29.0758  -18.9773  -20.4175 N   0  0  0  0  0  0  0  0  0  0  0  0
   28.7212  -18.0746  -18.2896 N   0  0  0  0  0  0  0  0  0  0  0  0
   28.1497  -18.3071  -17.0053 C   0  0  0  0  0  0  0  0  0  0  0  0
   26.7653  -18.8600  -17.0430 C   0  0  0  0  0  0  0  0  0  0  0  0
   26.1325  -19.1214  -15.7201 C   0  0  0  0  0  0  0  0  0  0  0  0
   26.5084  -20.4030  -15.0566 C   0  0  2  0  0  0  0  0  0  0  0  0
   27.0847  -21.3836  -15.9150 N   0  0  0  0  0  0  0  0  0  0  0  0
   25.3540  -20.9060  -14.2715 C   0  0  0  0  0  0  0  0  0  0  0  0
   24.7105  -21.8918  -14.6799 O   0  0  0  0  0  0  0  0  0  0  0  0
   28.6662  -18.1282  -20.8247 C   0  0  0  0  0  0  0  0  0  0  0  0
   22.2934  -21.5296   -7.0325 S   0  0  0  0  0  0  0  0  0  0  0  0
   23.6211  -20.9245   -8.1390 C   0  0  0  0  0  0  0  0  0  0  0  0
   23.1611  -21.2508   -9.8812 C   0  0  0  0  0  0  0  0  0  0  0  0
   24.1947  -20.7319  -10.8136 C   0  0  1  0  0  0  0  0  0  0  0  0
   23.8843  -20.9185  -12.2638 N   0  0  0  0  0  0  0  0  0  0  0  0
   24.9598  -20.2944  -13.0634 C   0  0  0  0  0  0  0  0  0  0  0  0
   22.6230  -20.2120  -12.6362 O   0  0  0  0  0  0  0  0  0  0  0  0
   22.6372  -18.9323  -12.7660 C   0  0  0  0  0  0  0  0  0  0  0  0
   19.3397  -20.8672  -14.2614 C   0  0  2  0  0  0  0  0  0  0  0  0
   20.2273  -20.1029  -13.3175 N   0  0  0  0  0  0  0  0  0  0  0  0
   21.3827  -20.8535  -12.8675 C   0  0  0  0  0  0  0  0  0  0  0  0
   19.3971  -19.5933  -12.1830 O   0  0  0  0  0  0  0  0  0  0  0  0
   19.5083  -19.9228  -11.0028 O   0  0  0  0  0  0  0  0  0  0  0  0
  2  1  1  0
  2  3  2  0
  4  2  1  0
  5  4  1  0
  6  5  1  0
  7  6  1  0
  7  8  1  0
  8  9  1  6
 10  8  1  0
 10 17  1  0
 11 10  2  0
 13 12  1  0
 14 13  1  0
 16 15  1  1
 15 14  1  0
 16 17  1  0
 18 16  1  0
 19 18  2  0
 21 20  1  6
 21 23  1  0
 21 22  1  0
 22 18  1  0
 23 25  1  0
 24 23  2  0
M  END
$$$$
