RMA.pdb
     RDKit          3D

 25 24  0  0  1  0  0  0  0  0999 V2000
   27.0119  -17.5525  -18.3358 N   0  0  0  0  0  0  0  0  0  0  0  0
   26.5282  -16.4619  -17.5405 C   0  0  0  0  0  0  0  0  0  0  0  0
   25.8032  -15.5736  -18.1045 N   0  0  0  0  0  0  0  0  0  0  0  0
   26.8422  -16.3628  -16.1638 N   0  0  0  0  0  0  0  0  0  0  0  0
   27.7633  -17.2166  -15.4910 C   0  0  0  0  0  0  0  0  0  0  0  0
   27.4164  -18.6653  -15.5592 C   0  0  0  0  0  0  0  0  0  0  0  0
   26.7983  -19.2450  -14.3343 C   0  0  0  0  0  0  0  0  0  0  0  0
   27.6309  -20.2284  -13.5836 C   0  0  2  0  0  0  0  0  0  0  0  0
   28.6959  -20.8138  -14.3278 N   0  0  0  0  0  0  0  0  0  0  0  0
   26.7452  -21.2242  -12.9310 C   0  0  0  0  0  0  0  0  0  0  0  0
   27.2248  -22.2910  -12.5013 O   0  0  0  0  0  0  0  0  0  0  0  0
   25.5214  -14.7303  -17.5906 C   0  0  0  0  0  0  0  0  0  0  0  0
   27.5070  -20.9948   -8.1330 S   0  0  0  0  0  0  0  0  0  0  0  0
   25.6850  -21.1781   -8.1176 C   0  0  0  0  0  0  0  0  0  0  0  0
   24.9328  -19.8989   -9.1906 C   0  0  0  0  0  0  0  0  0  0  0  0
   25.4443  -19.9992  -10.5817 C   0  0  1  0  0  0  0  0  0  0  0  0
   24.7732  -21.0345  -11.4255 N   0  0  0  0  0  0  0  0  0  0  0  0
   25.3616  -20.9960  -12.7812 C   0  0  0  0  0  0  0  0  0  0  0  0
   23.3211  -20.7306  -11.5913 O   0  0  0  0  0  0  0  0  0  0  0  0
   22.5561  -20.7467  -10.5572 C   0  0  0  0  0  0  0  0  0  0  0  0
   20.8267  -19.6195  -14.2260 C   0  0  2  0  0  0  0  0  0  0  0  0
   21.2741  -20.1893  -12.9076 N   0  0  0  0  0  0  0  0  0  0  0  0
   22.7036  -20.4144  -12.8251 C   0  0  0  0  0  0  0  0  0  0  0  0
   20.4818  -21.4254  -12.6241 O   0  0  0  0  0  0  0  0  0  0  0  0
   20.9271  -22.5709  -12.5693 O   0  0  0  0  0  0  0  0  0  0  0  0
  2  1  1  0
  2  3  2  0
  4  2  1  0
  5  4  1  0
  6  5  1  0
  7  6  1  0
  7  8  1  0
  8  9  1  6
 10  8  1  0
 10 17  1  0
 11 10  2  0
 13 12  1  0
 14 13  1  0
 16 15  1  1
 15 14  1  0
 16 17  1  0
 18 16  1  0
 19 18  2  0
 21 20  1  1
 21 23  1  0
 21 22  1  0
 22 18  1  0
 23 25  1  0
 24 23  2  0
M  END
$$$$
