RMA.pdb
     RDKit          3D

 25 24  0  0  1  0  0  0  0  0999 V2000
   26.1887  -17.3544  -17.6845 N   0  0  0  0  0  0  0  0  0  0  0  0
   27.3724  -18.1405  -17.8762 C   0  0  0  0  0  0  0  0  0  0  0  0
   28.0247  -18.0005  -18.9661 N   0  0  0  0  0  0  0  0  0  0  0  0
   27.8143  -19.0530  -16.8884 N   0  0  0  0  0  0  0  0  0  0  0  0
   26.9900  -19.5593  -15.8424 C   0  0  0  0  0  0  0  0  0  0  0  0
   26.7946  -18.6140  -14.7057 C   0  0  0  0  0  0  0  0  0  0  0  0
   26.3484  -19.2233  -13.4218 C   0  0  0  0  0  0  0  0  0  0  0  0
   27.2500  -20.2593  -12.8408 C   0  0  2  0  0  0  0  0  0  0  0  0
   27.7448  -21.2212  -13.7684 N   0  0  0  0  0  0  0  0  0  0  0  0
   26.6016  -20.8620  -11.6498 C   0  0  0  0  0  0  0  0  0  0  0  0
   26.4304  -22.0950  -11.5962 O   0  0  0  0  0  0  0  0  0  0  0  0
   28.8777  -18.5469  -19.1346 C   0  0  0  0  0  0  0  0  0  0  0  0
   27.0562  -19.5022   -5.1552 S   0  0  0  0  0  0  0  0  0  0  0  0
   28.3560  -19.7750   -6.4160 C   0  0  0  0  0  0  0  0  0  0  0  0
   27.6352  -20.6406   -7.8599 C   0  0  0  0  0  0  0  0  0  0  0  0
   26.2657  -20.1446   -8.1519 C   0  0  2  0  0  0  0  0  0  0  0  0
   25.6260  -20.7409   -9.3641 N   0  0  0  0  0  0  0  0  0  0  0  0
   26.1689  -20.0713  -10.5651 C   0  0  0  0  0  0  0  0  0  0  0  0
   24.1550  -20.4865   -9.3727 O   0  0  0  0  0  0  0  0  0  0  0  0
   23.7191  -19.3479   -9.7832 C   0  0  0  0  0  0  0  0  0  0  0  0
   21.4059  -19.8099   -8.3408 C   0  0  1  0  0  0  0  0  0  0  0  0
   21.7645  -21.1019   -9.0227 N   0  0  0  0  0  0  0  0  0  0  0  0
   23.1767  -21.4220   -8.9590 C   0  0  0  0  0  0  0  0  0  0  0  0
   21.2477  -21.0652  -10.4254 O   0  0  0  0  0  0  0  0  0  0  0  0
   21.9290  -21.1367  -11.4474 O   0  0  0  0  0  0  0  0  0  0  0  0
  2  1  1  0
  2  3  2  0
  4  2  1  0
  5  4  1  0
  6  5  1  0
  7  6  1  0
  7  8  1  0
  8  9  1  6
 10  8  1  0
 10 17  1  0
 11 10  2  0
 13 12  1  0
 14 13  1  0
 16 15  1  6
 15 14  1  0
 16 17  1  0
 18 16  1  0
 19 18  2  0
 21 20  1  1
 21 23  1  0
 21 22  1  0
 22 18  1  0
 23 25  1  0
 24 23  2  0
M  END
$$$$
