RMA.pdb
     RDKit          3D

 25 24  0  0  1  0  0  0  0  0999 V2000
   13.4695  -13.6994   -9.2043 N   0  0  0  0  0  0  0  0  0  0  0  0
   13.6470  -13.9973  -10.5955 C   0  0  0  0  0  0  0  0  0  0  0  0
   12.8587  -14.8421  -11.1412 N   0  0  0  0  0  0  0  0  0  0  0  0
   14.6688  -13.3767  -11.3535 N   0  0  0  0  0  0  0  0  0  0  0  0
   15.3446  -12.1859  -10.9595 C   0  0  0  0  0  0  0  0  0  0  0  0
   14.4766  -10.9739  -10.9221 C   0  0  0  0  0  0  0  0  0  0  0  0
   15.1775   -9.6778  -10.7040 C   0  0  0  0  0  0  0  0  0  0  0  0
   14.3043   -8.4773  -10.5621 C   0  0  2  0  0  0  0  0  0  0  0  0
   13.1439   -8.4708  -11.3891 N   0  0  0  0  0  0  0  0  0  0  0  0
   15.1309   -7.2515  -10.6895 C   0  0  0  0  0  0  0  0  0  0  0  0
   15.2325   -6.6860  -11.7951 O   0  0  0  0  0  0  0  0  0  0  0  0
   12.9674  -15.0889  -12.1322 C   0  0  0  0  0  0  0  0  0  0  0  0
   15.3552   -3.1190   -5.8161 S   0  0  0  0  0  0  0  0  0  0  0  0
   14.1030   -3.7168   -7.0112 C   0  0  0  0  0  0  0  0  0  0  0  0
   14.8645   -3.8692   -8.6696 C   0  0  0  0  0  0  0  0  0  0  0  0
   16.1914   -4.5323   -8.5901 C   0  0  2  0  0  0  0  0  0  0  0  0
   16.5232   -5.4163   -9.7488 N   0  0  0  0  0  0  0  0  0  0  0  0
   15.8122   -6.7020   -9.5837 C   0  0  0  0  0  0  0  0  0  0  0  0
   17.9794   -5.7441   -9.7720 O   0  0  0  0  0  0  0  0  0  0  0  0
   18.6080   -5.8817   -8.6581 C   0  0  0  0  0  0  0  0  0  0  0  0
   20.4456   -7.6677  -11.3692 C   0  0  2  0  0  0  0  0  0  0  0  0
   20.1469   -6.2756  -10.8834 N   0  0  0  0  0  0  0  0  0  0  0  0
   18.7424   -5.9238  -10.9505 C   0  0  0  0  0  0  0  0  0  0  0  0
   21.0158   -5.3106  -11.6250 O   0  0  0  0  0  0  0  0  0  0  0  0
   22.2454   -5.2802  -11.5993 O   0  0  0  0  0  0  0  0  0  0  0  0
  2  1  1  0
  2  3  2  0
  4  2  1  0
  5  4  1  0
  6  5  1  0
  7  6  1  0
  7  8  1  0
  8  9  1  6
 10  8  1  0
 10 17  1  0
 11 10  2  0
 13 12  1  0
 14 13  1  0
 16 15  1  6
 15 14  1  0
 16 17  1  0
 18 16  1  0
 19 18  2  0
 21 20  1  1
 21 23  1  0
 21 22  1  0
 22 18  1  0
 23 25  1  0
 24 23  2  0
M  END
$$$$
