RMA.pdb
     RDKit          3D

 25 24  0  0  1  0  0  0  0  0999 V2000
   18.2386  -22.7337  -10.8659 N   0  0  0  0  0  0  0  0  0  0  0  0
   17.7681  -23.1766  -12.1458 C   0  0  0  0  0  0  0  0  0  0  0  0
   16.9416  -24.1504  -12.1854 N   0  0  0  0  0  0  0  0  0  0  0  0
   18.2042  -22.5573  -13.3416 N   0  0  0  0  0  0  0  0  0  0  0  0
   19.5581  -22.2050  -13.6111 C   0  0  0  0  0  0  0  0  0  0  0  0
   20.1772  -21.3228  -12.5805 C   0  0  0  0  0  0  0  0  0  0  0  0
   21.4154  -20.6063  -12.9957 C   0  0  0  0  0  0  0  0  0  0  0  0
   22.3138  -21.3409  -13.9322 C   0  0  2  0  0  0  0  0  0  0  0  0
   22.3307  -22.7566  -13.7705 N   0  0  0  0  0  0  0  0  0  0  0  0
   23.6630  -20.7239  -13.9032 C   0  0  0  0  0  0  0  0  0  0  0  0
   23.7878  -19.4998  -14.0997 O   0  0  0  0  0  0  0  0  0  0  0  0
   16.5655  -24.4762  -13.0838 C   0  0  0  0  0  0  0  0  0  0  0  0
   29.6990  -21.5389  -10.7415 S   0  0  0  0  0  0  0  0  0  0  0  0
   27.9861  -21.6803  -10.1094 C   0  0  0  0  0  0  0  0  0  0  0  0
   26.8306  -20.8963  -11.2941 C   0  0  0  0  0  0  0  0  0  0  0  0
   27.0233  -21.4347  -12.6652 C   0  0  2  0  0  0  0  0  0  0  0  0
   26.1414  -20.8285  -13.7087 N   0  0  0  0  0  0  0  0  0  0  0  0
   24.8207  -21.4907  -13.6569 C   0  0  0  0  0  0  0  0  0  0  0  0
   26.6815  -21.0797  -15.0775 O   0  0  0  0  0  0  0  0  0  0  0  0
   26.8963  -22.2911  -15.4532 C   0  0  0  0  0  0  0  0  0  0  0  0
   26.5924  -20.4400  -18.4343 C   0  0  2  0  0  0  0  0  0  0  0  0
   27.5788  -20.3920  -17.2996 N   0  0  0  0  0  0  0  0  0  0  0  0
   26.9801  -20.0670  -16.0203 C   0  0  0  0  0  0  0  0  0  0  0  0
   28.6890  -19.4597  -17.6665 O   0  0  0  0  0  0  0  0  0  0  0  0
   28.9576  -18.4003  -17.1017 O   0  0  0  0  0  0  0  0  0  0  0  0
  2  1  1  0
  2  3  2  0
  4  2  1  0
  5  4  1  0
  6  5  1  0
  7  6  1  0
  7  8  1  0
  8  9  1  1
 10  8  1  0
 10 17  1  0
 11 10  2  0
 13 12  1  0
 14 13  1  0
 16 15  1  1
 15 14  1  0
 16 17  1  0
 18 16  1  0
 19 18  2  0
 21 20  1  1
 21 23  1  0
 21 22  1  0
 22 18  1  0
 23 25  1  0
 24 23  2  0
M  END
$$$$
