RMA.pdb
     RDKit          3D

 25 24  0  0  1  0  0  0  0  0999 V2000
   27.2282  -30.6631  -16.3845 N   0  0  0  0  0  0  0  0  0  0  0  0
   27.7839  -29.4053  -15.9782 C   0  0  0  0  0  0  0  0  0  0  0  0
   28.9305  -29.4016  -15.4143 N   0  0  0  0  0  0  0  0  0  0  0  0
   27.0857  -28.1925  -16.1911 N   0  0  0  0  0  0  0  0  0  0  0  0
   25.8915  -28.0825  -16.9604 C   0  0  0  0  0  0  0  0  0  0  0  0
   25.4356  -26.6806  -17.1849 C   0  0  0  0  0  0  0  0  0  0  0  0
   25.6632  -25.7337  -16.0578 C   0  0  0  0  0  0  0  0  0  0  0  0
   24.9996  -24.4035  -16.1764 C   0  0  2  0  0  0  0  0  0  0  0  0
   23.6904  -24.4273  -16.7387 N   0  0  0  0  0  0  0  0  0  0  0  0
   25.9189  -23.4550  -16.8525 C   0  0  0  0  0  0  0  0  0  0  0  0
   25.6230  -22.9999  -17.9741 O   0  0  0  0  0  0  0  0  0  0  0  0
   29.3736  -28.5153  -15.1442 C   0  0  0  0  0  0  0  0  0  0  0  0
   26.4470  -18.4560  -13.7594 S   0  0  0  0  0  0  0  0  0  0  0  0
   27.9271  -18.4238  -14.8373 C   0  0  0  0  0  0  0  0  0  0  0  0
   27.6928  -19.5866  -16.2325 C   0  0  0  0  0  0  0  0  0  0  0  0
   28.2373  -20.9298  -15.9066 C   0  0  2  0  0  0  0  0  0  0  0  0
   27.9315  -21.9932  -16.9115 N   0  0  0  0  0  0  0  0  0  0  0  0
   27.1308  -23.0492  -16.2563 C   0  0  0  0  0  0  0  0  0  0  0  0
   29.1823  -22.6532  -17.3895 O   0  0  0  0  0  0  0  0  0  0  0  0
   29.9012  -23.3136  -16.5518 C   0  0  0  0  0  0  0  0  0  0  0  0
   30.8336  -24.0889  -20.3180 C   0  0  2  0  0  0  0  0  0  0  0  0
   30.9135  -23.2226  -19.0908 N   0  0  0  0  0  0  0  0  0  0  0  0
   29.6505  -22.6130  -18.7247 C   0  0  0  0  0  0  0  0  0  0  0  0
   32.0019  -22.2154  -19.2831 O   0  0  0  0  0  0  0  0  0  0  0  0
   31.8600  -20.9933  -19.2953 O   0  0  0  0  0  0  0  0  0  0  0  0
  2  1  1  0
  2  3  2  0
  4  2  1  0
  5  4  1  0
  6  5  1  0
  7  6  1  0
  7  8  1  0
  8  9  1  6
 10  8  1  0
 10 17  1  0
 11 10  2  0
 13 12  1  0
 14 13  1  0
 16 15  1  6
 15 14  1  0
 16 17  1  0
 18 16  1  0
 19 18  2  0
 21 20  1  1
 21 23  1  0
 21 22  1  0
 22 18  1  0
 23 25  1  0
 24 23  2  0
M  END
$$$$
