RMA.pdb
     RDKit          3D

 25 24  0  0  1  0  0  0  0  0999 V2000
   30.1018  -25.3563  -16.4186 N   0  0  0  0  0  0  0  0  0  0  0  0
   30.6533  -24.2299  -17.1135 C   0  0  0  0  0  0  0  0  0  0  0  0
   31.7620  -24.3803  -17.7307 N   0  0  0  0  0  0  0  0  0  0  0  0
   29.9933  -22.9777  -17.1199 N   0  0  0  0  0  0  0  0  0  0  0  0
   28.5854  -22.8158  -16.9732 C   0  0  0  0  0  0  0  0  0  0  0  0
   28.1373  -22.6041  -15.5668 C   0  0  0  0  0  0  0  0  0  0  0  0
   28.5071  -21.2970  -14.9556 C   0  0  0  0  0  0  0  0  0  0  0  0
   27.3963  -20.3168  -14.7847 C   0  0  2  0  0  0  0  0  0  0  0  0
   27.7992  -19.0056  -14.3988 N   0  0  0  0  0  0  0  0  0  0  0  0
   26.3567  -20.9022  -13.9023 C   0  0  0  0  0  0  0  0  0  0  0  0
   25.7637  -21.9414  -14.2501 O   0  0  0  0  0  0  0  0  0  0  0  0
   32.1611  -23.6078  -18.2772 C   0  0  0  0  0  0  0  0  0  0  0  0
   25.6281  -19.8753   -7.2692 S   0  0  0  0  0  0  0  0  0  0  0  0
   27.1271  -20.1604   -8.2818 C   0  0  0  0  0  0  0  0  0  0  0  0
   26.6747  -21.0838   -9.7971 C   0  0  0  0  0  0  0  0  0  0  0  0
   25.3854  -20.5994  -10.3538 C   0  0  2  0  0  0  0  0  0  0  0  0
   25.1037  -21.0321  -11.7565 N   0  0  0  0  0  0  0  0  0  0  0  0
   26.0168  -20.3104  -12.6682 C   0  0  0  0  0  0  0  0  0  0  0  0
   23.7190  -20.6530  -12.1656 O   0  0  0  0  0  0  0  0  0  0  0  0
   23.4074  -19.4072  -12.2411 C   0  0  0  0  0  0  0  0  0  0  0  0
   20.6218  -22.1607  -13.7017 C   0  0  2  0  0  0  0  0  0  0  0  0
   21.3941  -21.1232  -12.9335 N   0  0  0  0  0  0  0  0  0  0  0  0
   22.6968  -21.5772  -12.4889 C   0  0  0  0  0  0  0  0  0  0  0  0
   20.5446  -20.6273  -11.8073 O   0  0  0  0  0  0  0  0  0  0  0  0
   20.7946  -20.7462  -10.6085 O   0  0  0  0  0  0  0  0  0  0  0  0
  2  1  1  0
  2  3  2  0
  4  2  1  0
  5  4  1  0
  6  5  1  0
  7  6  1  0
  7  8  1  0
  8  9  1  1
 10  8  1  0
 10 17  1  0
 11 10  2  0
 13 12  1  0
 14 13  1  0
 16 15  1  1
 15 14  1  0
 16 17  1  0
 18 16  1  0
 19 18  2  0
 21 20  1  6
 21 23  1  0
 21 22  1  0
 22 18  1  0
 23 25  1  0
 24 23  2  0
M  END
$$$$
