RMA.pdb
     RDKit          3D

 25 24  0  0  1  0  0  0  0  0999 V2000
   21.4325  -20.3507  -16.0553 N   0  0  0  0  0  0  0  0  0  0  0  0
   21.1786  -18.9775  -15.7305 C   0  0  0  0  0  0  0  0  0  0  0  0
   20.2720  -18.3565  -16.3828 N   0  0  0  0  0  0  0  0  0  0  0  0
   21.9104  -18.3170  -14.7146 N   0  0  0  0  0  0  0  0  0  0  0  0
   23.2764  -18.5852  -14.4110 C   0  0  0  0  0  0  0  0  0  0  0  0
   23.5852  -20.0297  -14.2060 C   0  0  0  0  0  0  0  0  0  0  0  0
   23.8231  -20.4508  -12.7972 C   0  0  0  0  0  0  0  0  0  0  0  0
   25.2435  -20.4446  -12.3432 C   0  0  2  0  0  0  0  0  0  0  0  0
   26.1689  -21.0541  -13.2393 N   0  0  0  0  0  0  0  0  0  0  0  0
   25.3188  -20.9763  -10.9598 C   0  0  0  0  0  0  0  0  0  0  0  0
   25.3493  -22.2076  -10.7711 O   0  0  0  0  0  0  0  0  0  0  0  0
   20.0723  -17.3693  -16.1828 C   0  0  0  0  0  0  0  0  0  0  0  0
   28.7026  -18.5647   -6.3615 S   0  0  0  0  0  0  0  0  0  0  0  0
   27.4850  -19.3278   -5.2263 C   0  0  0  0  0  0  0  0  0  0  0  0
   26.3053  -20.3450   -6.1892 C   0  0  0  0  0  0  0  0  0  0  0  0
   26.2187  -19.8758   -7.5960 C   0  0  1  0  0  0  0  0  0  0  0  0
   25.3567  -20.7119   -8.4860 N   0  0  0  0  0  0  0  0  0  0  0  0
   25.3574  -20.1193   -9.8404 C   0  0  0  0  0  0  0  0  0  0  0  0
   23.9373  -20.6970   -8.0240 O   0  0  0  0  0  0  0  0  0  0  0  0
   23.2067  -19.6695   -8.2791 C   0  0  0  0  0  0  0  0  0  0  0  0
   21.0434  -22.7291   -7.3784 C   0  0  2  0  0  0  0  0  0  0  0  0
   21.9407  -21.6369   -6.8637 N   0  0  0  0  0  0  0  0  0  0  0  0
   23.3139  -21.7506   -7.3134 C   0  0  0  0  0  0  0  0  0  0  0  0
   21.8279  -21.5839   -5.3736 O   0  0  0  0  0  0  0  0  0  0  0  0
   22.7538  -21.7195   -4.5748 O   0  0  0  0  0  0  0  0  0  0  0  0
  2  1  1  0
  2  3  2  0
  4  2  1  0
  5  4  1  0
  6  5  1  0
  7  6  1  0
  7  8  1  0
  8  9  1  6
 10  8  1  0
 10 17  1  0
 11 10  2  0
 13 12  1  0
 14 13  1  0
 16 15  1  6
 15 14  1  0
 16 17  1  0
 18 16  1  0
 19 18  2  0
 21 20  1  6
 21 23  1  0
 21 22  1  0
 22 18  1  0
 23 25  1  0
 24 23  2  0
M  END
$$$$
