AES.pdb
     RDKit          3D

 21 20  0  0  1  0  0  0  0  0999 V2000
   25.6467  -23.3439  -16.3247 C   0  0  0  0  0  0  0  0  0  0  0  0
   26.9996  -23.4304  -17.0317 C   0  0  2  0  0  0  0  0  0  0  0  0
   26.9826  -22.4328  -18.0848 N   0  0  0  0  0  0  0  0  0  0  0  0
   27.1502  -24.7746  -17.6079 C   0  0  0  0  0  0  0  0  0  0  0  0
   26.5212  -25.0557  -18.6793 O   0  0  0  0  0  0  0  0  0  0  0  0
   27.9529  -25.7916  -17.0517 N   0  0  0  0  0  0  0  0  0  0  0  0
   28.0247  -27.1652  -17.5608 C   0  0  1  0  0  0  0  0  0  0  0  0
   29.4672  -27.5520  -17.5816 C   0  0  0  0  0  0  0  0  0  0  0  0
   29.7611  -28.9469  -18.0197 C   0  0  0  0  0  0  0  0  0  0  0  0
   31.2377  -29.1232  -17.9695 C   0  0  0  0  0  0  0  0  0  0  0  0
   31.9704  -28.4322  -17.1891 O   0  0  0  0  0  0  0  0  0  0  0  0
   27.1537  -28.0633  -16.7710 C   0  0  0  0  0  0  0  0  0  0  0  0
   27.2586  -28.0951  -15.5423 O   0  0  0  0  0  0  0  0  0  0  0  0
   31.8696  -30.0527  -18.7773 O   0  0  0  0  0  0  0  0  0  0  0  0
   24.3832  -30.5154  -18.7491 O   0  0  0  0  0  0  0  0  0  0  0  0
   24.0051  -30.0159  -17.5057 C   0  0  0  0  0  0  0  0  0  0  0  0
   25.2607  -29.7328  -16.7364 C   0  0  2  0  0  0  0  0  0  0  0  0
   26.1996  -28.8907  -17.3951 N   0  0  0  0  0  0  0  0  0  0  0  0
   25.8859  -30.9834  -16.2917 C   0  0  0  0  0  0  0  0  0  0  0  0
   27.0537  -31.3330  -16.5982 O   0  0  0  0  0  0  0  0  0  0  0  0
   25.1597  -31.8456  -15.4840 O   0  0  0  0  0  0  0  0  0  0  0  0
  2  1  1  6
  3  2  1  0
  4  2  1  0
  5  4  2  0
  6  4  1  0
  7 12  1  0
  7  6  1  0
  7  8  1  1
  9  8  1  0
 10  9  1  0
 10 11  2  0
 12 18  1  0
 13 12  2  0
 14 10  1  0
 16 15  1  0
 17 16  1  6
 18 17  1  0
 19 21  1  0
 19 17  1  0
 20 19  2  0
M  END
$$$$
