AES.pdb
     RDKit          3D

 21 20  0  0  1  0  0  0  0  0999 V2000
   15.6043  -14.1607  -16.7146 C   0  0  0  0  0  0  0  0  0  0  0  0
   16.3530  -13.5705  -15.5193 C   0  0  2  0  0  0  0  0  0  0  0  0
   15.3719  -13.3787  -14.4681 N   0  0  0  0  0  0  0  0  0  0  0  0
   16.9348  -12.2790  -15.9128 C   0  0  0  0  0  0  0  0  0  0  0  0
   17.9313  -12.2723  -16.7062 O   0  0  0  0  0  0  0  0  0  0  0  0
   16.4624  -11.0270  -15.4686 N   0  0  0  0  0  0  0  0  0  0  0  0
   17.0764   -9.7391  -15.8083 C   0  0  1  0  0  0  0  0  0  0  0  0
   16.0534   -8.6820  -15.5498 C   0  0  0  0  0  0  0  0  0  0  0  0
   16.5063   -7.2750  -15.7487 C   0  0  0  0  0  0  0  0  0  0  0  0
   15.3413   -6.3929  -15.4686 C   0  0  0  0  0  0  0  0  0  0  0  0
   14.9841   -6.1097  -14.2789 O   0  0  0  0  0  0  0  0  0  0  0  0
   18.3520   -9.5582  -15.0807 C   0  0  0  0  0  0  0  0  0  0  0  0
   18.4525   -9.9442  -13.9135 O   0  0  0  0  0  0  0  0  0  0  0  0
   14.6003   -5.8460  -16.5019 O   0  0  0  0  0  0  0  0  0  0  0  0
   23.0540   -9.2056  -15.1982 O   0  0  0  0  0  0  0  0  0  0  0  0
   21.8694   -9.4717  -15.8797 C   0  0  0  0  0  0  0  0  0  0  0  0
   20.7596   -8.8011  -15.1265 C   0  0  2  0  0  0  0  0  0  0  0  0
   19.4637   -8.9492  -15.6952 N   0  0  0  0  0  0  0  0  0  0  0  0
   21.0787   -7.3893  -14.8868 C   0  0  0  0  0  0  0  0  0  0  0  0
   20.8268   -6.4640  -15.6994 O   0  0  0  0  0  0  0  0  0  0  0  0
   21.6967   -7.0345  -13.6971 O   0  0  0  0  0  0  0  0  0  0  0  0
  2  1  1  6
  3  2  1  0
  4  2  1  0
  5  4  2  0
  6  4  1  0
  7 12  1  0
  7  6  1  0
  7  8  1  1
  9  8  1  0
 10  9  1  0
 10 11  2  0
 12 18  1  0
 13 12  2  0
 14 10  1  0
 16 15  1  0
 17 16  1  6
 18 17  1  0
 19 21  1  0
 19 17  1  0
 20 19  2  0
M  END
$$$$
