AES.pdb
     RDKit          3D

 21 20  0  0  1  0  0  0  0  0999 V2000
   16.4733   -7.3949  -20.5861 C   0  0  0  0  0  0  0  0  0  0  0  0
   17.7212   -6.5539  -20.3157 C   0  0  2  0  0  0  0  0  0  0  0  0
   18.7978   -7.1489  -21.0846 N   0  0  0  0  0  0  0  0  0  0  0  0
   18.0311   -6.6108  -18.8797 C   0  0  0  0  0  0  0  0  0  0  0  0
   17.1652   -6.1839  -18.0487 O   0  0  0  0  0  0  0  0  0  0  0  0
   19.2367   -7.1113  -18.3467 N   0  0  0  0  0  0  0  0  0  0  0  0
   19.5597   -7.1512  -16.9167 C   0  0  1  0  0  0  0  0  0  0  0  0
   20.1439   -8.4966  -16.6347 C   0  0  0  0  0  0  0  0  0  0  0  0
   19.1638   -9.6004  -16.4216 C   0  0  0  0  0  0  0  0  0  0  0  0
   19.9401  -10.8134  -16.0478 C   0  0  0  0  0  0  0  0  0  0  0  0
   19.9248  -11.2819  -14.8630 O   0  0  0  0  0  0  0  0  0  0  0  0
   20.4235   -6.0098  -16.5421 C   0  0  0  0  0  0  0  0  0  0  0  0
   21.2672   -5.5917  -17.3390 O   0  0  0  0  0  0  0  0  0  0  0  0
   20.7119  -11.4790  -16.9844 O   0  0  0  0  0  0  0  0  0  0  0  0
   21.1392   -2.1923  -13.7645 O   0  0  0  0  0  0  0  0  0  0  0  0
   20.2478   -3.1768  -14.1823 C   0  0  0  0  0  0  0  0  0  0  0  0
   21.0525   -4.2623  -14.8327 C   0  0  2  0  0  0  0  0  0  0  0  0
   20.3042   -5.3846  -15.2855 N   0  0  0  0  0  0  0  0  0  0  0  0
   22.1595   -4.6750  -13.9628 C   0  0  0  0  0  0  0  0  0  0  0  0
   23.2032   -3.9977  -13.7846 O   0  0  0  0  0  0  0  0  0  0  0  0
   22.0674   -5.8831  -13.2882 O   0  0  0  0  0  0  0  0  0  0  0  0
  2  1  1  1
  3  2  1  0
  4  2  1  0
  5  4  2  0
  6  4  1  0
  7 12  1  0
  7  6  1  0
  7  8  1  6
  9  8  1  0
 10  9  1  0
 10 11  2  0
 12 18  1  0
 13 12  2  0
 14 10  1  0
 16 15  1  0
 17 16  1  1
 18 17  1  0
 19 21  1  0
 19 17  1  0
 20 19  2  0
M  END
$$$$
