AES.pdb
     RDKit          3D

 21 20  0  0  1  0  0  0  0  0999 V2000
   20.2716  -12.2521  -18.1412 C   0  0  0  0  0  0  0  0  0  0  0  0
   20.6969  -11.6030  -16.8239 C   0  0  2  0  0  0  0  0  0  0  0  0
   20.0026  -12.3140  -15.7671 N   0  0  0  0  0  0  0  0  0  0  0  0
   20.2911  -10.1900  -16.8370 C   0  0  0  0  0  0  0  0  0  0  0  0
   20.9159   -9.3802  -17.5962 O   0  0  0  0  0  0  0  0  0  0  0  0
   19.2439   -9.6573  -16.0575 N   0  0  0  0  0  0  0  0  0  0  0  0
   18.9000   -8.2332  -15.9897 C   0  0  1  0  0  0  0  0  0  0  0  0
   17.4142   -8.1447  -15.8657 C   0  0  0  0  0  0  0  0  0  0  0  0
   16.6379   -8.4547  -17.1009 C   0  0  0  0  0  0  0  0  0  0  0  0
   15.1955   -8.3284  -16.7587 C   0  0  0  0  0  0  0  0  0  0  0  0
   14.5318   -9.3033  -16.2765 O   0  0  0  0  0  0  0  0  0  0  0  0
   19.6532   -7.5628  -14.9070 C   0  0  0  0  0  0  0  0  0  0  0  0
   20.0141   -8.2087  -13.9199 O   0  0  0  0  0  0  0  0  0  0  0  0
   14.5210   -7.1358  -16.9552 O   0  0  0  0  0  0  0  0  0  0  0  0
   22.9295   -5.3107  -13.0625 O   0  0  0  0  0  0  0  0  0  0  0  0
   22.1955   -6.1354  -13.9108 C   0  0  0  0  0  0  0  0  0  0  0  0
   20.8569   -5.4907  -14.1139 C   0  0  2  0  0  0  0  0  0  0  0  0
   19.9699   -6.1920  -14.9775 N   0  0  0  0  0  0  0  0  0  0  0  0
   21.0158   -4.0935  -14.5327 C   0  0  0  0  0  0  0  0  0  0  0  0
   20.7235   -3.6656  -15.6778 O   0  0  0  0  0  0  0  0  0  0  0  0
   21.5182   -3.1744  -13.6239 O   0  0  0  0  0  0  0  0  0  0  0  0
  2  1  1  6
  3  2  1  0
  4  2  1  0
  5  4  2  0
  6  4  1  0
  7 12  1  0
  7  6  1  0
  7  8  1  1
  9  8  1  0
 10  9  1  0
 10 11  2  0
 12 18  1  0
 13 12  2  0
 14 10  1  0
 16 15  1  0
 17 16  1  6
 18 17  1  0
 19 21  1  0
 19 17  1  0
 20 19  2  0
M  END
$$$$
