AES.pdb
     RDKit          3D

 21 20  0  0  1  0  0  0  0  0999 V2000
   16.9547  -11.7893  -15.2194 C   0  0  0  0  0  0  0  0  0  0  0  0
   16.9794  -10.2761  -15.4363 C   0  0  2  0  0  0  0  0  0  0  0  0
   16.6255  -10.0495  -16.8248 N   0  0  0  0  0  0  0  0  0  0  0  0
   18.3375   -9.7795  -15.1709 C   0  0  0  0  0  0  0  0  0  0  0  0
   18.7868   -9.8313  -13.9801 O   0  0  0  0  0  0  0  0  0  0  0  0
   19.1925   -9.2413  -16.1544 N   0  0  0  0  0  0  0  0  0  0  0  0
   20.5576   -8.7692  -15.9003 C   0  0  1  0  0  0  0  0  0  0  0  0
   21.4352   -9.3774  -16.9448 C   0  0  0  0  0  0  0  0  0  0  0  0
   22.0458  -10.6929  -16.5970 C   0  0  0  0  0  0  0  0  0  0  0  0
   22.7941  -11.1622  -17.7943 C   0  0  0  0  0  0  0  0  0  0  0  0
   23.5110  -10.3718  -18.4905 O   0  0  0  0  0  0  0  0  0  0  0  0
   20.5988   -7.2914  -15.8402 C   0  0  0  0  0  0  0  0  0  0  0  0
   20.0568   -6.6261  -16.7264 O   0  0  0  0  0  0  0  0  0  0  0  0
   22.7351  -12.4859  -18.1946 O   0  0  0  0  0  0  0  0  0  0  0  0
   19.2749   -4.9048  -13.4101 O   0  0  0  0  0  0  0  0  0  0  0  0
   19.9293   -4.5441  -14.5849 C   0  0  0  0  0  0  0  0  0  0  0  0
   21.2709   -5.2140  -14.5736 C   0  0  2  0  0  0  0  0  0  0  0  0
   21.2490   -6.6208  -14.7858 N   0  0  0  0  0  0  0  0  0  0  0  0
   22.0086   -4.8700  -13.3529 C   0  0  0  0  0  0  0  0  0  0  0  0
   22.4396   -5.7168  -12.5302 O   0  0  0  0  0  0  0  0  0  0  0  0
   22.2546   -3.5343  -13.0724 O   0  0  0  0  0  0  0  0  0  0  0  0
  2  1  1  6
  3  2  1  0
  4  2  1  0
  5  4  2  0
  6  4  1  0
  7 12  1  0
  7  6  1  0
  7  8  1  6
  9  8  1  0
 10  9  1  0
 10 11  2  0
 12 18  1  0
 13 12  2  0
 14 10  1  0
 16 15  1  0
 17 16  1  1
 18 17  1  0
 19 21  1  0
 19 17  1  0
 20 19  2  0
M  END
$$$$
