AES.pdb
     RDKit          3D

 21 20  0  0  1  0  0  0  0  0999 V2000
   17.0884   -9.9594  -10.8906 C   0  0  0  0  0  0  0  0  0  0  0  0
   16.3668   -9.8405  -12.2333 C   0  0  2  0  0  0  0  0  0  0  0  0
   16.2012  -11.1908  -12.7369 N   0  0  0  0  0  0  0  0  0  0  0  0
   17.2010   -9.0539  -13.1536 C   0  0  0  0  0  0  0  0  0  0  0  0
   18.0357   -9.6644  -13.8973 O   0  0  0  0  0  0  0  0  0  0  0  0
   17.1435   -7.6504  -13.2747 N   0  0  0  0  0  0  0  0  0  0  0  0
   17.8662   -6.8734  -14.2871 C   0  0  1  0  0  0  0  0  0  0  0  0
   17.0452   -5.6605  -14.5800 C   0  0  0  0  0  0  0  0  0  0  0  0
   15.7955   -5.8929  -15.3601 C   0  0  0  0  0  0  0  0  0  0  0  0
   14.8106   -4.8629  -14.9325 C   0  0  0  0  0  0  0  0  0  0  0  0
   13.7483   -5.1711  -14.3002 O   0  0  0  0  0  0  0  0  0  0  0  0
   19.2497   -6.5930  -13.8439 C   0  0  0  0  0  0  0  0  0  0  0  0
   19.4729   -6.3292  -12.6597 O   0  0  0  0  0  0  0  0  0  0  0  0
   15.0186   -3.5230  -15.2106 O   0  0  0  0  0  0  0  0  0  0  0  0
   23.9346   -6.3389  -15.0727 O   0  0  0  0  0  0  0  0  0  0  0  0
   22.6535   -6.5531  -15.5742 C   0  0  0  0  0  0  0  0  0  0  0  0
   21.6910   -6.3580  -14.4410 C   0  0  2  0  0  0  0  0  0  0  0  0
   20.3271   -6.6196  -14.7509 N   0  0  0  0  0  0  0  0  0  0  0  0
   21.8571   -5.0268  -13.8468 C   0  0  0  0  0  0  0  0  0  0  0  0
   21.3595   -3.9765  -14.3254 O   0  0  0  0  0  0  0  0  0  0  0  0
   22.6061   -4.8994  -12.6866 O   0  0  0  0  0  0  0  0  0  0  0  0
  2  1  1  1
  3  2  1  0
  4  2  1  0
  5  4  2  0
  6  4  1  0
  7 12  1  0
  7  6  1  0
  7  8  1  1
  9  8  1  0
 10  9  1  0
 10 11  2  0
 12 18  1  0
 13 12  2  0
 14 10  1  0
 16 15  1  0
 17 16  1  6
 18 17  1  0
 19 21  1  0
 19 17  1  0
 20 19  2  0
M  END
$$$$
