AES.pdb
     RDKit          3D

 21 20  0  0  1  0  0  0  0  0999 V2000
   15.7036  -10.1374  -14.4228 C   0  0  0  0  0  0  0  0  0  0  0  0
   16.5656  -10.5660  -15.6106 C   0  0  2  0  0  0  0  0  0  0  0  0
   16.4863  -12.0127  -15.6811 N   0  0  0  0  0  0  0  0  0  0  0  0
   17.9531  -10.1447  -15.3681 C   0  0  0  0  0  0  0  0  0  0  0  0
   18.4616  -10.3440  -14.2174 O   0  0  0  0  0  0  0  0  0  0  0  0
   18.7751   -9.5258  -16.3322 N   0  0  0  0  0  0  0  0  0  0  0  0
   20.1480   -9.0725  -16.0859 C   0  0  1  0  0  0  0  0  0  0  0  0
   20.9889   -9.5857  -17.2085 C   0  0  0  0  0  0  0  0  0  0  0  0
   22.4387   -9.2413  -17.1463 C   0  0  0  0  0  0  0  0  0  0  0  0
   23.0914   -9.8653  -18.3288 C   0  0  0  0  0  0  0  0  0  0  0  0
   24.2869   -9.5799  -18.6646 O   0  0  0  0  0  0  0  0  0  0  0  0
   20.1905   -7.6053  -15.9003 C   0  0  0  0  0  0  0  0  0  0  0  0
   19.4124   -6.8845  -16.5302 O   0  0  0  0  0  0  0  0  0  0  0  0
   22.4142  -10.7853  -19.1105 O   0  0  0  0  0  0  0  0  0  0  0  0
   21.5718   -3.8311  -13.3122 O   0  0  0  0  0  0  0  0  0  0  0  0
   21.5192   -5.2216  -13.3596 C   0  0  0  0  0  0  0  0  0  0  0  0
   21.2639   -5.6115  -14.7849 C   0  0  2  0  0  0  0  0  0  0  0  0
   21.1074   -7.0071  -15.0140 N   0  0  0  0  0  0  0  0  0  0  0  0
   22.2858   -5.0373  -15.6674 C   0  0  0  0  0  0  0  0  0  0  0  0
   23.3974   -5.5762  -15.8991 O   0  0  0  0  0  0  0  0  0  0  0  0
   22.0280   -3.8266  -16.2925 O   0  0  0  0  0  0  0  0  0  0  0  0
  2  1  1  1
  3  2  1  0
  4  2  1  0
  5  4  2  0
  6  4  1  0
  7 12  1  0
  7  6  1  0
  7  8  1  6
  9  8  1  0
 10  9  1  0
 10 11  2  0
 12 18  1  0
 13 12  2  0
 14 10  1  0
 16 15  1  0
 17 16  1  1
 18 17  1  0
 19 21  1  0
 19 17  1  0
 20 19  2  0
M  END
$$$$
