TSG.pdb
     RDKit          3D

 18 17  0  0  1  0  0  0  0  0999 V2000
    7.9293  -16.7321   17.5191 C   0  0  0  0  0  0  0  0  0  0  0  0
    8.2914  -15.4291   16.8610 C   0  0  1  0  0  0  0  0  0  0  0  0
    7.6230  -15.4014   15.6252 O   0  0  0  0  0  0  0  0  0  0  0  0
    7.6678  -14.3040   17.6709 C   0  0  2  0  0  0  0  0  0  0  0  0
    7.8328  -13.0397   16.9043 N   0  0  0  0  0  0  0  0  0  0  0  0
    8.3474  -14.0709   18.9621 C   0  0  0  0  0  0  0  0  0  0  0  0
    9.5110  -13.5524   18.9551 O   0  0  0  0  0  0  0  0  0  0  0  0
    6.6566  -15.2806   22.5356 O   0  0  0  0  0  0  0  0  0  0  0  0
    7.5642  -14.2213   22.5955 C   0  0  0  0  0  0  0  0  0  0  0  0
    8.5640  -14.2845   21.4597 C   0  0  2  0  0  0  0  0  0  0  0  0
    7.8113  -14.3752   20.2161 N   0  0  0  0  0  0  0  0  0  0  0  0
    9.3877  -15.5156   21.6638 C   0  0  0  0  0  0  0  0  0  0  0  0
    9.0865  -16.6228   21.1305 O   0  0  0  0  0  0  0  0  0  0  0  0
   10.5596  -15.5010   22.4744 N   0  0  0  0  0  0  0  0  0  0  0  0
   11.3590  -16.6907   22.6613 C   0  0  0  0  0  0  0  0  0  0  0  0
   12.4943  -16.4564   23.5676 C   0  0  0  0  0  0  0  0  0  0  0  0
   13.6415  -16.3118   23.0780 O   0  0  0  0  0  0  0  0  0  0  0  0
   12.3660  -16.3858   24.9441 O   0  0  0  0  0  0  0  0  0  0  0  0
  2  1  1  1
  3  2  1  0
  4  6  1  0
  4  2  1  0
  4  5  1  6
  6  7  2  0
  8  9  1  0
 10  9  1  1
 11 10  1  0
 11  6  1  0
 12 14  1  0
 12 10  1  0
 13 12  2  0
 15 14  1  0
 15 16  1  0
 16 18  1  0
 17 16  2  0
M  END
$$$$
