TSG.pdb
     RDKit          3D

 18 17  0  0  1  0  0  0  0  0999 V2000
    2.6929  -26.2879   22.9347 C   0  0  0  0  0  0  0  0  0  0  0  0
    3.0664  -25.2809   21.8818 C   0  0  1  0  0  0  0  0  0  0  0  0
    3.4942  -26.0101   20.7594 O   0  0  0  0  0  0  0  0  0  0  0  0
    1.7961  -24.5769   21.4330 C   0  0  2  0  0  0  0  0  0  0  0  0
    2.1678  -23.5719   20.4009 N   0  0  0  0  0  0  0  0  0  0  0  0
    1.1449  -23.8071   22.5131 C   0  0  0  0  0  0  0  0  0  0  0  0
    1.6292  -22.6729   22.8322 O   0  0  0  0  0  0  0  0  0  0  0  0
   -2.7680  -24.3798   23.8228 O   0  0  0  0  0  0  0  0  0  0  0  0
   -2.0410  -23.1893   23.8838 C   0  0  0  0  0  0  0  0  0  0  0  0
   -0.6024  -23.4394   24.2856 C   0  0  2  0  0  0  0  0  0  0  0  0
    0.0192  -24.2244   23.2280 N   0  0  0  0  0  0  0  0  0  0  0  0
   -0.6290  -24.2132   25.5649 C   0  0  0  0  0  0  0  0  0  0  0  0
   -0.5890  -25.4776   25.5874 O   0  0  0  0  0  0  0  0  0  0  0  0
   -0.7010  -23.5591   26.8288 N   0  0  0  0  0  0  0  0  0  0  0  0
   -0.5801  -24.2979   28.0654 C   0  0  0  0  0  0  0  0  0  0  0  0
   -1.8890  -24.7294   28.5810 C   0  0  0  0  0  0  0  0  0  0  0  0
   -2.9188  -24.4789   27.9075 O   0  0  0  0  0  0  0  0  0  0  0  0
   -2.0493  -25.4031   29.7795 O   0  0  0  0  0  0  0  0  0  0  0  0
  2  1  1  1
  3  2  1  0
  4  6  1  0
  4  2  1  0
  4  5  1  6
  6  7  2  0
  8  9  1  0
 10  9  1  6
 11 10  1  0
 11  6  1  0
 12 14  1  0
 12 10  1  0
 13 12  2  0
 15 14  1  0
 15 16  1  0
 16 18  1  0
 17 16  2  0
M  END
$$$$
