TSG.pdb
     RDKit          3D

 18 17  0  0  1  0  0  0  0  0999 V2000
    9.2646  -16.3416   18.4423 C   0  0  0  0  0  0  0  0  0  0  0  0
    9.1842  -14.9257   17.9413 C   0  0  1  0  0  0  0  0  0  0  0  0
    8.8710  -14.9987   16.5734 O   0  0  0  0  0  0  0  0  0  0  0  0
    7.9763  -14.2664   18.5870 C   0  0  2  0  0  0  0  0  0  0  0  0
    7.7857  -12.9345   17.9522 N   0  0  0  0  0  0  0  0  0  0  0  0
    8.1638  -13.9914   20.0266 C   0  0  0  0  0  0  0  0  0  0  0  0
    8.7959  -12.9402   20.3703 O   0  0  0  0  0  0  0  0  0  0  0  0
    6.8885  -14.9904   24.6152 O   0  0  0  0  0  0  0  0  0  0  0  0
    6.8379  -15.2820   23.2507 C   0  0  0  0  0  0  0  0  0  0  0  0
    7.8655  -14.4837   22.4759 C   0  0  2  0  0  0  0  0  0  0  0  0
    7.6960  -14.8014   21.0647 N   0  0  0  0  0  0  0  0  0  0  0  0
    9.2144  -14.9193   22.9520 C   0  0  0  0  0  0  0  0  0  0  0  0
    9.6461  -14.6308   24.1058 O   0  0  0  0  0  0  0  0  0  0  0  0
   10.0844  -15.6854   22.1233 N   0  0  0  0  0  0  0  0  0  0  0  0
   11.3875  -16.1054   22.5873 C   0  0  0  0  0  0  0  0  0  0  0  0
   12.0773  -16.9535   21.6025 C   0  0  0  0  0  0  0  0  0  0  0  0
   11.9283  -16.7077   20.3801 O   0  0  0  0  0  0  0  0  0  0  0  0
   12.8896  -18.0182   21.9526 O   0  0  0  0  0  0  0  0  0  0  0  0
  2  1  1  1
  3  2  1  0
  4  6  1  0
  4  2  1  0
  4  5  1  6
  6  7  2  0
  8  9  1  0
 10  9  1  1
 11 10  1  0
 11  6  1  0
 12 14  1  0
 12 10  1  0
 13 12  2  0
 15 14  1  0
 15 16  1  0
 16 18  1  0
 17 16  2  0
M  END
$$$$
