TSG.pdb
     RDKit          3D

 18 17  0  0  1  0  0  0  0  0999 V2000
    8.0639  -16.8421   16.6160 C   0  0  0  0  0  0  0  0  0  0  0  0
    8.4284  -15.5471   15.9436 C   0  0  1  0  0  0  0  0  0  0  0  0
    7.8104  -15.5595   14.6817 O   0  0  0  0  0  0  0  0  0  0  0  0
    7.7518  -14.4168   16.7021 C   0  0  2  0  0  0  0  0  0  0  0  0
    7.9872  -13.1541   15.9514 N   0  0  0  0  0  0  0  0  0  0  0  0
    8.3287  -14.1890   18.0432 C   0  0  0  0  0  0  0  0  0  0  0  0
    9.4803  -13.6512   18.1293 O   0  0  0  0  0  0  0  0  0  0  0  0
    6.3513  -15.3728   21.4766 O   0  0  0  0  0  0  0  0  0  0  0  0
    7.2869  -14.3443   21.6037 C   0  0  0  0  0  0  0  0  0  0  0  0
    8.3662  -14.4442   20.5459 C   0  0  2  0  0  0  0  0  0  0  0  0
    7.7058  -14.5180   19.2499 N   0  0  0  0  0  0  0  0  0  0  0  0
    9.1335  -15.6992   20.8145 C   0  0  0  0  0  0  0  0  0  0  0  0
    8.7904  -16.8151   20.3267 O   0  0  0  0  0  0  0  0  0  0  0  0
   10.2961  -15.6987   21.6385 N   0  0  0  0  0  0  0  0  0  0  0  0
   10.9899  -16.9253   21.9601 C   0  0  0  0  0  0  0  0  0  0  0  0
   12.2684  -16.6737   22.6436 C   0  0  0  0  0  0  0  0  0  0  0  0
   12.6635  -15.4889   22.7741 O   0  0  0  0  0  0  0  0  0  0  0  0
   13.0678  -17.6810   23.1558 O   0  0  0  0  0  0  0  0  0  0  0  0
  2  1  1  1
  3  2  1  0
  4  6  1  0
  4  2  1  0
  4  5  1  6
  6  7  2  0
  8  9  1  0
 10  9  1  1
 11 10  1  0
 11  6  1  0
 12 14  1  0
 12 10  1  0
 13 12  2  0
 15 14  1  0
 15 16  1  0
 16 18  1  0
 17 16  2  0
M  END
$$$$
