TSG.pdb
     RDKit          3D

 18 17  0  0  1  0  0  0  0  0999 V2000
    6.9392  -16.1630   19.4074 C   0  0  0  0  0  0  0  0  0  0  0  0
    7.7321  -15.0917   18.7103 C   0  0  1  0  0  0  0  0  0  0  0  0
    7.1021  -14.8622   17.4754 O   0  0  0  0  0  0  0  0  0  0  0  0
    7.5579  -13.7970   19.4876 C   0  0  2  0  0  0  0  0  0  0  0  0
    8.1047  -12.6876   18.6609 N   0  0  0  0  0  0  0  0  0  0  0  0
    8.3309  -13.7657   20.7464 C   0  0  0  0  0  0  0  0  0  0  0  0
    9.5721  -13.4837   20.6941 O   0  0  0  0  0  0  0  0  0  0  0  0
    6.6298  -14.8670   24.3545 O   0  0  0  0  0  0  0  0  0  0  0  0
    7.6982  -13.9698   24.4098 C   0  0  0  0  0  0  0  0  0  0  0  0
    8.6194  -14.1325   23.2188 C   0  0  2  0  0  0  0  0  0  0  0  0
    7.8060  -14.0224   22.0157 N   0  0  0  0  0  0  0  0  0  0  0  0
    9.2300  -15.4940   23.3149 C   0  0  0  0  0  0  0  0  0  0  0  0
    8.5382  -16.5496   23.2249 O   0  0  0  0  0  0  0  0  0  0  0  0
   10.6301  -15.6694   23.5140 N   0  0  0  0  0  0  0  0  0  0  0  0
   11.2161  -16.9872   23.6118 C   0  0  0  0  0  0  0  0  0  0  0  0
   12.6544  -16.9306   23.9173 C   0  0  0  0  0  0  0  0  0  0  0  0
   13.2927  -18.0058   24.0327 O   0  0  0  0  0  0  0  0  0  0  0  0
   13.3496  -15.7455   24.0861 O   0  0  0  0  0  0  0  0  0  0  0  0
  2  1  1  1
  3  2  1  0
  4  6  1  0
  4  2  1  0
  4  5  1  6
  6  7  2  0
  8  9  1  0
 10  9  1  1
 11 10  1  0
 11  6  1  0
 12 14  1  0
 12 10  1  0
 13 12  2  0
 15 14  1  0
 15 16  1  0
 16 18  1  0
 17 16  2  0
M  END
$$$$
