TSG.pdb
     RDKit          3D

 18 17  0  0  1  0  0  0  0  0999 V2000
   -5.5613  -26.9683   24.7508 C   0  0  0  0  0  0  0  0  0  0  0  0
   -4.3324  -27.6346   25.3058 C   0  0  1  0  0  0  0  0  0  0  0  0
   -3.7919  -28.4131   24.2683 O   0  0  0  0  0  0  0  0  0  0  0  0
   -3.2933  -26.5576   25.5721 C   0  0  2  0  0  0  0  0  0  0  0  0
   -2.0638  -27.2216   26.0831 N   0  0  0  0  0  0  0  0  0  0  0  0
   -3.6961  -25.6099   26.6316 C   0  0  0  0  0  0  0  0  0  0  0  0
   -3.7117  -26.0145   27.8394 O   0  0  0  0  0  0  0  0  0  0  0  0
   -4.6985  -21.0304   27.9471 O   0  0  0  0  0  0  0  0  0  0  0  0
   -4.2582  -21.9640   27.0069 C   0  0  0  0  0  0  0  0  0  0  0  0
   -4.5012  -23.3821   27.4798 C   0  0  2  0  0  0  0  0  0  0  0  0
   -4.0675  -24.2798   26.4181 N   0  0  0  0  0  0  0  0  0  0  0  0
   -5.9708  -23.5234   27.7168 C   0  0  0  0  0  0  0  0  0  0  0  0
   -6.7992  -23.6237   26.7657 O   0  0  0  0  0  0  0  0  0  0  0  0
   -6.5127  -23.5521   29.0344 N   0  0  0  0  0  0  0  0  0  0  0  0
   -7.9325  -23.7034   29.2600 C   0  0  0  0  0  0  0  0  0  0  0  0
   -8.4495  -22.7077   30.2121 C   0  0  0  0  0  0  0  0  0  0  0  0
   -7.6451  -21.9062   30.7482 O   0  0  0  0  0  0  0  0  0  0  0  0
   -9.7872  -22.6047   30.5529 O   0  0  0  0  0  0  0  0  0  0  0  0
  2  1  1  6
  3  2  1  0
  4  6  1  0
  4  2  1  0
  4  5  1  1
  6  7  2  0
  8  9  1  0
 10  9  1  6
 11 10  1  0
 11  6  1  0
 12 14  1  0
 12 10  1  0
 13 12  2  0
 15 14  1  0
 15 16  1  0
 16 18  1  0
 17 16  2  0
M  END
$$$$
