TSG.pdb
     RDKit          3D

 18 17  0  0  1  0  0  0  0  0999 V2000
    3.7895  -24.5200   22.2069 C   0  0  0  0  0  0  0  0  0  0  0  0
    4.2807  -24.6214   20.7889 C   0  0  1  0  0  0  0  0  0  0  0  0
    3.9156  -25.8967   20.3253 O   0  0  0  0  0  0  0  0  0  0  0  0
    3.4755  -23.6493   19.9419 C   0  0  2  0  0  0  0  0  0  0  0  0
    3.8242  -23.8854   18.5149 N   0  0  0  0  0  0  0  0  0  0  0  0
    3.8146  -22.2344   20.1994 C   0  0  0  0  0  0  0  0  0  0  0  0
    4.8426  -21.7398   19.6324 O   0  0  0  0  0  0  0  0  0  0  0  0
    1.3181  -19.8590   22.3292 O   0  0  0  0  0  0  0  0  0  0  0  0
    2.2619  -19.1859   21.5508 C   0  0  0  0  0  0  0  0  0  0  0  0
    3.5110  -20.0190   21.3527 C   0  0  2  0  0  0  0  0  0  0  0  0
    3.0884  -21.3742   21.0271 N   0  0  0  0  0  0  0  0  0  0  0  0
    4.2635  -20.0016   22.6447 C   0  0  0  0  0  0  0  0  0  0  0  0
    4.8321  -18.9578   23.0782 O   0  0  0  0  0  0  0  0  0  0  0  0
    4.3771  -21.1680   23.4554 N   0  0  0  0  0  0  0  0  0  0  0  0
    5.0850  -21.1414   24.7155 C   0  0  0  0  0  0  0  0  0  0  0  0
    6.1647  -22.1400   24.7634 C   0  0  0  0  0  0  0  0  0  0  0  0
    7.0496  -22.1197   23.8727 O   0  0  0  0  0  0  0  0  0  0  0  0
    6.2596  -23.1102   25.7461 O   0  0  0  0  0  0  0  0  0  0  0  0
  2  1  1  1
  3  2  1  0
  4  6  1  0
  4  2  1  0
  4  5  1  6
  6  7  2  0
  8  9  1  0
 10  9  1  1
 11 10  1  0
 11  6  1  0
 12 14  1  0
 12 10  1  0
 13 12  2  0
 15 14  1  0
 15 16  1  0
 16 18  1  0
 17 16  2  0
M  END
$$$$
