NRQ.pdb
     RDKit          3D

 29 28  0  0  1  0  0  0  0  0999 V2000
   28.6132  -19.3553  -16.4546 N   0  0  0  0  0  0  0  0  0  0  0  0
   27.6463  -18.6199  -15.7160 C   0  0  0  0  0  0  0  0  0  0  0  0
   27.9350  -17.5287  -15.1403 O   0  0  0  0  0  0  0  0  0  0  0  0
   26.2533  -19.1259  -15.6034 C   0  0  0  0  0  0  0  0  0  0  0  0
   26.1341  -20.5100  -16.2134 C   0  0  2  0  0  0  0  0  0  0  0  0
   26.2711  -20.3179  -17.6530 N   0  0  0  0  0  0  0  0  0  0  0  0
   24.8165  -21.0763  -15.9313 C   0  0  0  0  0  0  0  0  0  0  0  0
   23.8016  -20.5952  -16.5071 O   0  0  0  0  0  0  0  0  0  0  0  0
   21.5432  -27.1733  -11.1232 N   0  0  0  0  0  0  0  0  0  0  0  0
   20.4508  -27.0510  -12.0258 C   0  0  0  0  0  0  0  0  0  0  0  0
   19.2564  -27.2067  -11.5759 N   0  0  0  0  0  0  0  0  0  0  0  0
   20.7386  -26.7618  -13.3842 N   0  0  0  0  0  0  0  0  0  0  0  0
   22.1257  -26.3025  -13.6621 C   0  0  0  0  0  0  0  0  0  0  0  0
   22.0773  -24.8661  -14.0466 C   0  0  0  0  0  0  0  0  0  0  0  0
   23.3331  -24.1924  -14.3711 C   0  0  0  0  0  0  0  0  0  0  0  0
   23.3875  -22.7727  -14.7570 C   0  0  2  0  0  0  0  0  0  0  0  0
   24.6500  -22.1770  -15.0061 N   0  0  0  0  0  0  0  0  0  0  0  0
   22.5310  -21.8966  -13.8824 C   0  0  0  0  0  0  0  0  0  0  0  0
   22.9246  -21.7011  -12.7145 O   0  0  0  0  0  0  0  0  0  0  0  0
   18.4275  -27.0783  -12.1903 N   0  0  0  0  0  0  0  0  0  0  0  0
   20.1163  -16.4899  -15.4738 C   0  0  0  0  0  0  0  0  0  0  0  0
   19.4932  -16.7458  -14.2242 O   0  0  0  0  0  0  0  0  0  0  0  0
   18.7347  -15.8502  -13.7716 C   0  0  0  0  0  0  0  0  0  0  0  0
   19.7063  -17.9852  -13.4765 C   0  0  0  0  0  0  0  0  0  0  0  0
   20.5633  -19.0027  -14.1238 C   0  0  1  0  0  0  0  0  0  0  0  0
   20.5598  -20.3691  -13.5172 N   0  0  0  0  0  0  0  0  0  0  0  0
   21.3298  -21.3090  -14.3401 C   0  0  0  0  0  0  0  0  0  0  0  0
   19.1806  -20.8880  -13.4320 O   0  0  0  0  0  0  0  0  0  0  0  0
   18.7293  -21.5996  -14.3527 O   0  0  0  0  0  0  0  0  0  0  0  0
  1  2  1  0
  2  3  2  0
  4  5  1  0
  4  2  1  0
  5  7  1  0
  5  6  1  6
  7  8  2  0
 10 12  1  0
 10  9  1  0
 11 10  2  0
 13 14  1  0
 13 12  1  0
 14 15  1  0
 16 15  1  1
 17 16  1  0
 17  7  1  0
 18 19  2  0
 18 16  1  0
 20 21  1  0
 21 22  2  0
 23 21  1  0
 23 24  1  0
 25 24  1  1
 25 27  1  0
 25 26  1  0
 26 18  1  0
 27 29  1  0
 28 27  2  0
M  END
$$$$
