NRQ.pdb
     RDKit          3D

 29 28  0  0  1  0  0  0  0  0999 V2000
   26.3287  -21.4049  -14.4140 N   0  0  0  0  0  0  0  0  0  0  0  0
   25.5853  -20.2276  -14.7008 C   0  0  0  0  0  0  0  0  0  0  0  0
   26.1518  -19.1098  -14.8881 O   0  0  0  0  0  0  0  0  0  0  0  0
   24.1027  -20.2865  -14.7883 C   0  0  0  0  0  0  0  0  0  0  0  0
   23.6034  -21.6898  -14.4994 C   0  0  2  0  0  0  0  0  0  0  0  0
   24.1259  -22.5224  -15.5773 N   0  0  0  0  0  0  0  0  0  0  0  0
   22.1427  -21.7253  -14.5350 C   0  0  0  0  0  0  0  0  0  0  0  0
   21.5398  -21.3060  -15.5615 O   0  0  0  0  0  0  0  0  0  0  0  0
   19.2325  -25.5402   -9.2740 N   0  0  0  0  0  0  0  0  0  0  0  0
   18.8225  -24.3945   -8.5376 C   0  0  0  0  0  0  0  0  0  0  0  0
   18.8269  -24.4508   -7.2531 N   0  0  0  0  0  0  0  0  0  0  0  0
   18.4273  -23.2423   -9.2643 N   0  0  0  0  0  0  0  0  0  0  0  0
   17.6719  -23.5032  -10.5186 C   0  0  0  0  0  0  0  0  0  0  0  0
   18.2099  -22.6159  -11.5848 C   0  0  0  0  0  0  0  0  0  0  0  0
   19.2628  -23.1368  -12.4545 C   0  0  0  0  0  0  0  0  0  0  0  0
   19.9557  -22.2937  -13.4429 C   0  0  2  0  0  0  0  0  0  0  0  0
   21.3721  -22.2310  -13.4188 N   0  0  0  0  0  0  0  0  0  0  0  0
   19.3482  -20.9222  -13.5686 C   0  0  0  0  0  0  0  0  0  0  0  0
   19.9512  -19.9805  -13.0145 O   0  0  0  0  0  0  0  0  0  0  0  0
   18.5339  -23.6366   -6.6765 N   0  0  0  0  0  0  0  0  0  0  0  0
   18.9765  -16.3017  -12.4751 C   0  0  0  0  0  0  0  0  0  0  0  0
   18.6365  -15.9668  -13.8121 O   0  0  0  0  0  0  0  0  0  0  0  0
   18.3664  -14.7608  -14.0464 C   0  0  0  0  0  0  0  0  0  0  0  0
   18.5943  -16.9588  -14.8866 C   0  0  0  0  0  0  0  0  0  0  0  0
   18.8598  -18.3609  -14.4958 C   0  0  1  0  0  0  0  0  0  0  0  0
   17.7458  -19.3373  -14.6967 N   0  0  0  0  0  0  0  0  0  0  0  0
   18.1489  -20.6847  -14.2777 C   0  0  0  0  0  0  0  0  0  0  0  0
   17.3819  -19.4122  -16.1252 O   0  0  0  0  0  0  0  0  0  0  0  0
   17.9548  -20.2362  -16.8673 O   0  0  0  0  0  0  0  0  0  0  0  0
  1  2  1  0
  2  3  2  0
  4  5  1  0
  4  2  1  0
  5  7  1  0
  5  6  1  6
  7  8  2  0
 10 12  1  0
 10  9  1  0
 11 10  2  0
 13 14  1  0
 13 12  1  0
 14 15  1  0
 16 15  1  1
 17 16  1  0
 17  7  1  0
 18 19  2  0
 18 16  1  0
 20 21  1  0
 21 22  2  0
 23 21  1  0
 23 24  1  0
 25 24  1  1
 25 27  1  0
 25 26  1  0
 26 18  1  0
 27 29  1  0
 28 27  2  0
M  END
$$$$
