NRQ.pdb
     RDKit          3D

 29 28  0  0  1  0  0  0  0  0999 V2000
   28.9851  -19.0621  -17.9731 N   0  0  0  0  0  0  0  0  0  0  0  0
   27.6429  -18.9681  -18.4321 C   0  0  0  0  0  0  0  0  0  0  0  0
   27.2671  -18.0412  -19.2100 O   0  0  0  0  0  0  0  0  0  0  0  0
   26.6368  -19.9735  -18.0009 C   0  0  0  0  0  0  0  0  0  0  0  0
   27.2471  -20.9567  -17.0195 C   0  0  2  0  0  0  0  0  0  0  0  0
   27.5537  -22.1508  -17.7994 N   0  0  0  0  0  0  0  0  0  0  0  0
   26.2794  -21.3019  -15.9800 C   0  0  0  0  0  0  0  0  0  0  0  0
   25.2277  -21.9234  -16.2973 O   0  0  0  0  0  0  0  0  0  0  0  0
   23.2506  -19.4678   -9.7776 N   0  0  0  0  0  0  0  0  0  0  0  0
   23.2135  -20.5203   -8.8216 C   0  0  0  0  0  0  0  0  0  0  0  0
   22.1877  -20.6218   -8.0531 N   0  0  0  0  0  0  0  0  0  0  0  0
   24.3180  -21.4084   -8.7659 N   0  0  0  0  0  0  0  0  0  0  0  0
   25.4406  -21.0942   -9.6896 C   0  0  0  0  0  0  0  0  0  0  0  0
   24.9532  -21.2373  -11.0880 C   0  0  0  0  0  0  0  0  0  0  0  0
   25.9047  -21.0326  -12.1783 C   0  0  0  0  0  0  0  0  0  0  0  0
   25.5168  -21.1507  -13.5937 C   0  0  2  0  0  0  0  0  0  0  0  0
   26.5006  -20.9465  -14.5943 N   0  0  0  0  0  0  0  0  0  0  0  0
   24.2464  -20.4098  -13.9147 C   0  0  0  0  0  0  0  0  0  0  0  0
   24.3159  -19.1658  -13.9844 O   0  0  0  0  0  0  0  0  0  0  0  0
   22.1210  -21.3749   -7.3393 N   0  0  0  0  0  0  0  0  0  0  0  0
   19.9367  -21.7562  -18.1641 C   0  0  0  0  0  0  0  0  0  0  0  0
   19.3172  -20.7440  -17.3850 O   0  0  0  0  0  0  0  0  0  0  0  0
   18.2128  -20.3041  -17.7962 C   0  0  0  0  0  0  0  0  0  0  0  0
   19.9141  -20.2190  -16.1567 C   0  0  0  0  0  0  0  0  0  0  0  0
   21.2023  -20.8189  -15.7449 C   0  0  1  0  0  0  0  0  0  0  0  0
   21.7856  -20.3389  -14.4548 N   0  0  0  0  0  0  0  0  0  0  0  0
   23.0161  -21.0706  -14.1324 C   0  0  0  0  0  0  0  0  0  0  0  0
   20.8364  -20.5666  -13.3476 O   0  0  0  0  0  0  0  0  0  0  0  0
   20.9885  -21.5505  -12.5948 O   0  0  0  0  0  0  0  0  0  0  0  0
  1  2  1  0
  2  3  2  0
  4  5  1  0
  4  2  1  0
  5  7  1  0
  5  6  1  6
  7  8  2  0
 10 12  1  0
 10  9  1  0
 11 10  2  0
 13 14  1  0
 13 12  1  0
 14 15  1  0
 16 15  1  1
 17 16  1  0
 17  7  1  0
 18 19  2  0
 18 16  1  0
 20 21  1  0
 21 22  2  0
 23 21  1  0
 23 24  1  0
 25 24  1  6
 25 27  1  0
 25 26  1  0
 26 18  1  0
 27 29  1  0
 28 27  2  0
M  END
$$$$
