ARF.pdb
     RDKit          3D

 28 28  0  0  1  0  0  0  0  0999 V2000
   30.4812  -23.1627  -18.1185 C   0  0  0  0  0  0  0  0  0  0  0  0
   29.3045  -23.6430  -17.2695 C   0  0  2  0  0  0  0  0  0  0  0  0
   28.6048  -24.6274  -18.0431 N   0  0  0  0  0  0  0  0  0  0  0  0
   28.4134  -22.4835  -16.9291 C   0  0  0  0  0  0  0  0  0  0  0  0
   28.8913  -21.5801  -16.1976 O   0  0  0  0  0  0  0  0  0  0  0  0
   21.4210  -22.0465  -17.8470 N   0  0  0  0  0  0  0  0  0  0  0  0
   20.9499  -20.6930  -17.8694 C   0  0  0  0  0  0  0  0  0  0  0  0
   19.7928  -20.3898  -17.3970 N   0  0  0  0  0  0  0  0  0  0  0  0
   21.7977  -19.7141  -18.4249 N   0  0  0  0  0  0  0  0  0  0  0  0
   23.0685  -20.1090  -18.9721 C   0  0  0  0  0  0  0  0  0  0  0  0
   24.0612  -20.1881  -17.8067 C   0  0  0  0  0  0  0  0  0  0  0  0
   25.1491  -21.1714  -18.1053 C   0  0  0  0  0  0  0  0  0  0  0  0
   26.1765  -21.3282  -17.0163 C   0  0  2  0  0  0  0  0  0  0  0  0
   27.0926  -22.3947  -17.4013 N   0  0  0  0  0  0  0  0  0  0  0  0
   25.6044  -21.5836  -15.6716 C   0  0  0  0  0  0  0  0  0  0  0  0
   25.1629  -22.7339  -15.4425 O   0  0  0  0  0  0  0  0  0  0  0  0
   19.3964  -19.4447  -17.4909 N   0  0  0  0  0  0  0  0  0  0  0  0
   25.5494  -20.5807  -14.6705 C   0  0  2  0  0  0  0  0  0  0  0  0
   25.1157  -20.9471  -13.3307 C   0  0  0  0  0  0  0  0  0  0  0  0
   25.7635  -20.0865  -12.2920 C   0  0  0  0  0  0  0  0  0  0  0  0
   25.2909  -20.4292  -10.9539 C   0  0  0  0  0  0  0  0  0  0  0  0
   26.1030  -20.9878   -9.9780 C   0  0  0  0  0  0  0  0  0  0  0  0
   25.6521  -21.2820   -8.7145 C   0  0  0  0  0  0  0  0  0  0  0  0
   24.3481  -21.0287   -8.3587 C   0  0  0  0  0  0  0  0  0  0  0  0
   23.5140  -20.4745   -9.3025 C   0  0  0  0  0  0  0  0  0  0  0  0
   23.9699  -20.1806  -10.5683 C   0  0  0  0  0  0  0  0  0  0  0  0
   23.6500  -20.8136  -13.2624 O   0  0  0  0  0  0  0  0  0  0  0  0
   22.9068  -21.7591  -12.5325 O   0  0  0  0  0  0  0  0  0  0  0  0
  2  1  1  6
  3  2  1  0
  4  5  2  0
  4  2  1  0
  7  6  1  0
  8  7  2  0
  9  7  1  0
 10  9  1  0
 10 11  1  0
 11 12  1  0
 13 12  1  6
 13 14  1  0
 14  4  1  0
 15 13  1  0
 16 15  2  0
 17 15  1  0
 18 17  1  0
 18 26  1  0
 18 19  1  6
 20 25  2  0
 20 19  1  0
 21 20  1  0
 22 23  1  0
 22 21  2  0
 23 24  2  0
 24 25  1  0
 26 27  1  0
 28 26  2  0
M  END
$$$$
