ARF.pdb
     RDKit          3D

 28 28  0  0  1  0  0  0  0  0999 V2000
   25.8453  -23.9632  -16.5280 C   0  0  0  0  0  0  0  0  0  0  0  0
   25.9216  -24.2300  -15.0249 C   0  0  2  0  0  0  0  0  0  0  0  0
   24.6482  -24.7578  -14.6286 N   0  0  0  0  0  0  0  0  0  0  0  0
   26.2342  -22.9556  -14.2951 C   0  0  0  0  0  0  0  0  0  0  0  0
   27.3189  -22.3824  -14.5678 O   0  0  0  0  0  0  0  0  0  0  0  0
   20.8251  -17.4520  -15.0941 N   0  0  0  0  0  0  0  0  0  0  0  0
   20.9189  -18.8724  -14.9264 C   0  0  0  0  0  0  0  0  0  0  0  0
   19.9156  -19.6344  -15.1845 N   0  0  0  0  0  0  0  0  0  0  0  0
   22.1445  -19.3980  -14.4712 N   0  0  0  0  0  0  0  0  0  0  0  0
   23.2638  -18.5144  -14.2792 C   0  0  0  0  0  0  0  0  0  0  0  0
   24.5140  -19.3889  -14.1307 C   0  0  0  0  0  0  0  0  0  0  0  0
   24.4189  -20.2427  -12.9052 C   0  0  0  0  0  0  0  0  0  0  0  0
   25.6034  -21.1404  -12.6663 C   0  0  2  0  0  0  0  0  0  0  0  0
   25.3593  -22.4096  -13.3402 N   0  0  0  0  0  0  0  0  0  0  0  0
   25.9247  -21.3565  -11.2342 C   0  0  0  0  0  0  0  0  0  0  0  0
   25.2629  -22.2258  -10.6203 O   0  0  0  0  0  0  0  0  0  0  0  0
   19.9631  -20.6560  -15.0685 N   0  0  0  0  0  0  0  0  0  0  0  0
   26.9362  -20.6199  -10.5669 C   0  0  2  0  0  0  0  0  0  0  0  0
   27.0810  -20.7692   -9.1266 C   0  0  0  0  0  0  0  0  0  0  0  0
   28.2496  -19.9895   -8.6110 C   0  0  0  0  0  0  0  0  0  0  0  0
   28.3044  -20.0245   -7.1526 C   0  0  0  0  0  0  0  0  0  0  0  0
   29.0552  -20.9473   -6.4394 C   0  0  0  0  0  0  0  0  0  0  0  0
   29.1183  -20.9532   -5.0675 C   0  0  0  0  0  0  0  0  0  0  0  0
   28.4238  -20.0235   -4.3295 C   0  0  0  0  0  0  0  0  0  0  0  0
   27.6682  -19.0925   -5.0047 C   0  0  0  0  0  0  0  0  0  0  0  0
   27.6077  -19.0895   -6.3806 C   0  0  0  0  0  0  0  0  0  0  0  0
   25.8375  -20.3105   -8.4830 O   0  0  0  0  0  0  0  0  0  0  0  0
   25.2498  -19.1039   -8.9045 O   0  0  0  0  0  0  0  0  0  0  0  0
  2  1  1  6
  3  2  1  0
  4  5  2  0
  4  2  1  0
  7  6  1  0
  8  7  2  0
  9  7  1  0
 10  9  1  0
 10 11  1  0
 11 12  1  0
 13 12  1  1
 13 14  1  0
 14  4  1  0
 15 13  1  0
 16 15  2  0
 17 15  1  0
 18 17  1  0
 18 26  1  0
 18 19  1  6
 20 25  2  0
 20 19  1  0
 21 20  1  0
 22 23  1  0
 22 21  2  0
 23 24  2  0
 24 25  1  0
 26 27  1  0
 28 26  2  0
M  END
$$$$
