ARF.pdb
     RDKit          3D

 28 28  0  0  1  0  0  0  0  0999 V2000
   32.6040  -36.0136   -6.4375 C   0  0  0  0  0  0  0  0  0  0  0  0
   31.8201  -35.2627   -7.5135 C   0  0  2  0  0  0  0  0  0  0  0  0
   32.7344  -34.3503   -8.1371 N   0  0  0  0  0  0  0  0  0  0  0  0
   30.6647  -34.5347   -6.8893 C   0  0  0  0  0  0  0  0  0  0  0  0
   30.4430  -33.3594   -7.2755 O   0  0  0  0  0  0  0  0  0  0  0  0
   27.0615  -33.8404   -9.9642 N   0  0  0  0  0  0  0  0  0  0  0  0
   26.7062  -32.5311   -9.5016 C   0  0  0  0  0  0  0  0  0  0  0  0
   27.0263  -31.4842  -10.1764 N   0  0  0  0  0  0  0  0  0  0  0  0
   25.9973  -32.4361   -8.2875 N   0  0  0  0  0  0  0  0  0  0  0  0
   25.5327  -33.6370   -7.6454 C   0  0  0  0  0  0  0  0  0  0  0  0
   26.3453  -33.8080   -6.3570 C   0  0  0  0  0  0  0  0  0  0  0  0
   27.6829  -34.4109   -6.6522 C   0  0  0  0  0  0  0  0  0  0  0  0
   28.5906  -34.5513   -5.4596 C   0  0  2  0  0  0  0  0  0  0  0  0
   29.8512  -35.1288   -5.9092 N   0  0  0  0  0  0  0  0  0  0  0  0
   28.0145  -35.3438   -4.3457 C   0  0  0  0  0  0  0  0  0  0  0  0
   27.7789  -36.5554   -4.5625 O   0  0  0  0  0  0  0  0  0  0  0  0
   26.7472  -30.5387   -9.8806 N   0  0  0  0  0  0  0  0  0  0  0  0
   27.7338  -34.7731   -3.0782 C   0  0  1  0  0  0  0  0  0  0  0  0
   27.7903  -35.6211   -1.8969 C   0  0  0  0  0  0  0  0  0  0  0  0
   29.1672  -36.1655   -1.6802 C   0  0  0  0  0  0  0  0  0  0  0  0
   29.2238  -36.9930   -0.4789 C   0  0  0  0  0  0  0  0  0  0  0  0
   30.0498  -36.7153    0.6003 C   0  0  0  0  0  0  0  0  0  0  0  0
   30.0748  -37.4879    1.7355 C   0  0  0  0  0  0  0  0  0  0  0  0
   29.2638  -38.5925    1.8500 C   0  0  0  0  0  0  0  0  0  0  0  0
   28.4310  -38.8977    0.7979 C   0  0  0  0  0  0  0  0  0  0  0  0
   28.4085  -38.1205   -0.3388 C   0  0  0  0  0  0  0  0  0  0  0  0
   27.3669  -34.8254   -0.7313 O   0  0  0  0  0  0  0  0  0  0  0  0
   26.5350  -35.4149    0.2380 O   0  0  0  0  0  0  0  0  0  0  0  0
  2  1  1  1
  3  2  1  0
  4  5  2  0
  4  2  1  0
  7  6  1  0
  8  7  2  0
  9  7  1  0
 10  9  1  0
 10 11  1  0
 11 12  1  0
 13 12  1  6
 13 14  1  0
 14  4  1  0
 15 13  1  0
 16 15  2  0
 17 15  1  0
 18 17  1  0
 18 26  1  0
 18 19  1  1
 20 25  2  0
 20 19  1  0
 21 20  1  0
 22 23  1  0
 22 21  2  0
 23 24  2  0
 24 25  1  0
 26 27  1  0
 28 26  2  0
M  END
$$$$
