ARF.pdb
     RDKit          3D

 28 28  0  0  1  0  0  0  0  0999 V2000
   23.1613  -14.2968  -15.1718 C   0  0  0  0  0  0  0  0  0  0  0  0
   24.0686  -15.1869  -16.0207 C   0  0  2  0  0  0  0  0  0  0  0  0
   24.0181  -14.6786  -17.3609 N   0  0  0  0  0  0  0  0  0  0  0  0
   23.5914  -16.6093  -15.9591 C   0  0  0  0  0  0  0  0  0  0  0  0
   22.5197  -16.8875  -16.5535 O   0  0  0  0  0  0  0  0  0  0  0  0
   27.4345  -20.2798  -12.5998 N   0  0  0  0  0  0  0  0  0  0  0  0
   26.5854  -21.1939  -11.8941 C   0  0  0  0  0  0  0  0  0  0  0  0
   26.5029  -21.1606  -10.6111 N   0  0  0  0  0  0  0  0  0  0  0  0
   25.8493  -22.1237  -12.6552 N   0  0  0  0  0  0  0  0  0  0  0  0
   25.9132  -22.0685  -14.0915 C   0  0  0  0  0  0  0  0  0  0  0  0
   24.6809  -21.2939  -14.5726 C   0  0  0  0  0  0  0  0  0  0  0  0
   24.9937  -19.8370  -14.7114 C   0  0  0  0  0  0  0  0  0  0  0  0
   23.8332  -18.9787  -15.1386 C   0  0  2  0  0  0  0  0  0  0  0  0
   24.3030  -17.6049  -15.2680 N   0  0  0  0  0  0  0  0  0  0  0  0
   22.6573  -19.0518  -14.2371 C   0  0  0  0  0  0  0  0  0  0  0  0
   22.8317  -18.7375  -13.0365 O   0  0  0  0  0  0  0  0  0  0  0  0
   25.9253  -21.8302  -10.0846 N   0  0  0  0  0  0  0  0  0  0  0  0
   21.3781  -19.4584  -14.6946 C   0  0  1  0  0  0  0  0  0  0  0  0
   20.2589  -19.4368  -13.7649 C   0  0  0  0  0  0  0  0  0  0  0  0
   19.8897  -18.0369  -13.3863 C   0  0  0  0  0  0  0  0  0  0  0  0
   19.3295  -17.3136  -14.5238 C   0  0  0  0  0  0  0  0  0  0  0  0
   20.0812  -16.4911  -15.3498 C   0  0  0  0  0  0  0  0  0  0  0  0
   19.5469  -15.8361  -16.4323 C   0  0  0  0  0  0  0  0  0  0  0  0
   18.2153  -15.9726  -16.7474 C   0  0  0  0  0  0  0  0  0  0  0  0
   17.4394  -16.7815  -15.9490 C   0  0  0  0  0  0  0  0  0  0  0  0
   17.9788  -17.4369  -14.8645 C   0  0  0  0  0  0  0  0  0  0  0  0
   19.1135  -20.1131  -14.3985 O   0  0  0  0  0  0  0  0  0  0  0  0
   19.2812  -20.7137  -15.6595 O   0  0  0  0  0  0  0  0  0  0  0  0
  2  1  1  1
  3  2  1  0
  4  5  2  0
  4  2  1  0
  7  6  1  0
  8  7  2  0
  9  7  1  0
 10  9  1  0
 10 11  1  0
 11 12  1  0
 13 12  1  1
 13 14  1  0
 14  4  1  0
 15 13  1  0
 16 15  2  0
 17 15  1  0
 18 17  1  0
 18 26  1  0
 18 19  1  1
 20 25  2  0
 20 19  1  0
 21 20  1  0
 22 23  1  0
 22 21  2  0
 23 24  2  0
 24 25  1  0
 26 27  1  0
 28 26  2  0
M  END
$$$$
