ARF.pdb
     RDKit          3D

 28 28  0  0  1  0  0  0  0  0999 V2000
   21.9083  -19.6927  -12.3458 C   0  0  0  0  0  0  0  0  0  0  0  0
   22.9559  -19.9065  -13.4380 C   0  0  2  0  0  0  0  0  0  0  0  0
   22.3162  -20.6361  -14.4941 N   0  0  0  0  0  0  0  0  0  0  0  0
   24.1258  -20.6659  -12.8821 C   0  0  0  0  0  0  0  0  0  0  0  0
   23.9721  -21.8954  -12.6721 O   0  0  0  0  0  0  0  0  0  0  0  0
   29.7604  -21.5604  -15.5946 N   0  0  0  0  0  0  0  0  0  0  0  0
   30.6783  -22.2204  -14.7136 C   0  0  0  0  0  0  0  0  0  0  0  0
   31.2249  -23.3360  -15.0462 N   0  0  0  0  0  0  0  0  0  0  0  0
   30.9571  -21.6039  -13.4775 N   0  0  0  0  0  0  0  0  0  0  0  0
   30.2020  -20.4452  -13.0804 C   0  0  0  0  0  0  0  0  0  0  0  0
   29.0026  -20.9411  -12.2647 C   0  0  0  0  0  0  0  0  0  0  0  0
   27.7332  -20.3260  -12.7646 C   0  0  0  0  0  0  0  0  0  0  0  0
   26.4923  -20.7445  -12.0222 C   0  0  2  0  0  0  0  0  0  0  0  0
   25.3537  -20.0424  -12.6013 N   0  0  0  0  0  0  0  0  0  0  0  0
   26.5570  -20.5264  -10.5562 C   0  0  0  0  0  0  0  0  0  0  0  0
   26.5153  -19.3424  -10.1477 O   0  0  0  0  0  0  0  0  0  0  0  0
   31.9208  -23.8018  -14.4479 N   0  0  0  0  0  0  0  0  0  0  0  0
   26.6621  -21.6003   -9.6361 C   0  0  1  0  0  0  0  0  0  0  0  0
   26.7967  -21.3013   -8.2183 C   0  0  0  0  0  0  0  0  0  0  0  0
   27.9500  -20.3834   -7.9604 C   0  0  0  0  0  0  0  0  0  0  0  0
   28.0698  -20.0739   -6.5388 C   0  0  0  0  0  0  0  0  0  0  0  0
   28.1682  -21.0443   -5.5526 C   0  0  0  0  0  0  0  0  0  0  0  0
   28.3060  -20.7394   -4.2206 C   0  0  0  0  0  0  0  0  0  0  0  0
   28.3531  -19.4302   -3.8021 C   0  0  0  0  0  0  0  0  0  0  0  0
   28.2583  -18.4411   -4.7541 C   0  0  0  0  0  0  0  0  0  0  0  0
   28.1204  -18.7508   -6.0889 C   0  0  0  0  0  0  0  0  0  0  0  0
   25.5416  -20.6879   -7.7501 O   0  0  0  0  0  0  0  0  0  0  0  0
   25.0848  -19.5055   -8.3602 O   0  0  0  0  0  0  0  0  0  0  0  0
  2  1  1  1
  3  2  1  0
  4  5  2  0
  4  2  1  0
  7  6  1  0
  8  7  2  0
  9  7  1  0
 10  9  1  0
 10 11  1  0
 11 12  1  0
 13 12  1  6
 13 14  1  0
 14  4  1  0
 15 13  1  0
 16 15  2  0
 17 15  1  0
 18 17  1  0
 18 26  1  0
 18 19  1  1
 20 25  2  0
 20 19  1  0
 21 20  1  0
 22 23  1  0
 22 21  2  0
 23 24  2  0
 24 25  1  0
 26 27  1  0
 28 26  2  0
M  END
$$$$
