ARF.pdb
     RDKit          3D

 28 28  0  0  1  0  0  0  0  0999 V2000
   21.7281  -19.8073    7.3970 C   0  0  0  0  0  0  0  0  0  0  0  0
   20.8852  -20.2235    8.6022 C   0  0  2  0  0  0  0  0  0  0  0  0
   19.8909  -21.1385    8.1213 N   0  0  0  0  0  0  0  0  0  0  0  0
   20.2546  -19.0126    9.2271 C   0  0  0  0  0  0  0  0  0  0  0  0
   19.0775  -18.7317    8.8881 O   0  0  0  0  0  0  0  0  0  0  0  0
   19.3033  -16.2972   15.7087 N   0  0  0  0  0  0  0  0  0  0  0  0
   19.9894  -17.4630   16.1826 C   0  0  0  0  0  0  0  0  0  0  0  0
   19.4960  -18.1786   17.1305 N   0  0  0  0  0  0  0  0  0  0  0  0
   21.2167  -17.7927   15.5739 N   0  0  0  0  0  0  0  0  0  0  0  0
   21.6599  -17.0440   14.4278 C   0  0  0  0  0  0  0  0  0  0  0  0
   20.7730  -17.4528   13.2463 C   0  0  0  0  0  0  0  0  0  0  0  0
   21.1586  -16.7005   12.0113 C   0  0  0  0  0  0  0  0  0  0  0  0
   20.3497  -17.0370   10.7872 C   0  0  2  0  0  0  0  0  0  0  0  0
   20.9392  -18.2121   10.1577 N   0  0  0  0  0  0  0  0  0  0  0  0
   20.2251  -15.9237    9.8146 C   0  0  0  0  0  0  0  0  0  0  0  0
   21.2491  -15.6103    9.1637 O   0  0  0  0  0  0  0  0  0  0  0  0
   19.9709  -19.0219   17.4805 N   0  0  0  0  0  0  0  0  0  0  0  0
   19.0056  -15.2285    9.6136 C   0  0  2  0  0  0  0  0  0  0  0  0
   18.9629  -14.1510    8.6365 C   0  0  0  0  0  0  0  0  0  0  0  0
   19.3032  -14.6431    7.2649 C   0  0  0  0  0  0  0  0  0  0  0  0
   19.1838  -13.5750    6.2769 C   0  0  0  0  0  0  0  0  0  0  0  0
   20.0057  -12.4579    6.2583 C   0  0  0  0  0  0  0  0  0  0  0  0
   19.8993  -11.4723    5.3077 C   0  0  0  0  0  0  0  0  0  0  0  0
   18.9523  -11.5558    4.3140 C   0  0  0  0  0  0  0  0  0  0  0  0
   18.1195  -12.6512    4.3019 C   0  0  0  0  0  0  0  0  0  0  0  0
   18.2294  -13.6376    5.2567 C   0  0  0  0  0  0  0  0  0  0  0  0
   17.6112  -13.5648    8.6476 O   0  0  0  0  0  0  0  0  0  0  0  0
   16.5698  -14.2506    9.2989 O   0  0  0  0  0  0  0  0  0  0  0  0
  2  1  1  6
  3  2  1  0
  4  5  2  0
  4  2  1  0
  7  6  1  0
  8  7  2  0
  9  7  1  0
 10  9  1  0
 10 11  1  0
 11 12  1  0
 13 12  1  1
 13 14  1  0
 14  4  1  0
 15 13  1  0
 16 15  2  0
 17 15  1  0
 18 17  1  0
 18 26  1  0
 18 19  1  6
 20 25  2  0
 20 19  1  0
 21 20  1  0
 22 23  1  0
 22 21  2  0
 23 24  2  0
 24 25  1  0
 26 27  1  0
 28 26  2  0
M  END
$$$$
