FIE.pdb
     RDKit          3D

 29 29  0  0  1  0  0  0  0  0999 V2000
    6.0136  -18.2923   25.5204 N   0  0  0  0  0  0  0  0  0  0  0  0
    6.4005  -16.9269   25.3396 C   0  0  1  0  0  0  0  0  0  0  0  0
    6.8572  -16.3390   26.6578 C   0  0  0  0  0  0  0  0  0  0  0  0
    6.8349  -14.8768   26.6318 C   0  0  0  0  0  0  0  0  0  0  0  0
    5.6800  -14.1495   26.4409 C   0  0  0  0  0  0  0  0  0  0  0  0
    5.6607  -12.7683   26.4142 C   0  0  0  0  0  0  0  0  0  0  0  0
    6.8350  -12.0689   26.5835 C   0  0  0  0  0  0  0  0  0  0  0  0
    7.9920  -12.7686   26.7741 C   0  0  0  0  0  0  0  0  0  0  0  0
    7.9972  -14.1405   26.7985 C   0  0  0  0  0  0  0  0  0  0  0  0
    7.5231  -16.7886   24.3190 C   0  0  0  0  0  0  0  0  0  0  0  0
    8.3448  -17.7216   24.2109 O   0  0  0  0  0  0  0  0  0  0  0  0
    8.3490  -12.7737   19.5166 C   0  0  0  0  0  0  0  0  0  0  0  0
    8.9803  -13.8618   20.4048 C   0  0  0  0  0  0  0  0  0  0  0  0
    8.0155  -14.3327   21.4431 C   0  0  2  0  0  0  0  0  0  0  0  0
    6.9197  -13.3747   21.7848 C   0  0  0  0  0  0  0  0  0  0  0  0
    8.4984  -15.2731   22.4686 C   0  0  2  0  0  0  0  0  0  0  0  0
    7.6028  -15.6364   23.5410 N   0  0  0  0  0  0  0  0  0  0  0  0
    9.8378  -15.1322   23.0067 C   0  0  0  0  0  0  0  0  0  0  0  0
   10.0150  -14.6862   24.2048 O   0  0  0  0  0  0  0  0  0  0  0  0
   11.0522  -15.4456   22.3455 N   0  0  0  0  0  0  0  0  0  0  0  0
   12.2364  -15.9423   23.0564 C   0  0  1  0  0  0  0  0  0  0  0  0
   11.9009  -17.1539   23.8543 C   0  0  0  0  0  0  0  0  0  0  0  0
   13.1205  -17.6967   24.5357 C   0  0  0  0  0  0  0  0  0  0  0  0
   12.7954  -18.9284   25.3294 C   0  0  0  0  0  0  0  0  0  0  0  0
   13.2724  -20.0307   24.9704 O   0  0  0  0  0  0  0  0  0  0  0  0
   13.3462  -16.2027   22.1407 C   0  0  0  0  0  0  0  0  0  0  0  0
   14.5574  -16.1655   22.3843 O   0  0  0  0  0  0  0  0  0  0  0  0
   11.9732  -18.7701   26.4309 O   0  0  0  0  0  0  0  0  0  0  0  0
   13.0077  -16.5398   20.8128 O   0  0  0  0  0  0  0  0  0  0  0  0
  2  1  1  1
  2  3  1  0
  4  3  1  0
  5  4  2  0
  6  7  2  0
  6  5  1  0
  7  8  1  0
  8  9  2  0
  9  4  1  0
 10  2  1  0
 11 10  2  0
 12 13  1  0
 13 14  1  0
 14 15  1  1
 16 14  1  0
 16 17  1  1
 17 10  1  0
 18 16  1  0
 19 18  2  0
 20 18  1  0
 21 22  1  6
 21 20  1  0
 23 22  1  0
 24 25  2  0
 24 23  1  0
 26 21  1  0
 26 29  1  0
 27 26  2  0
 28 24  1  0
M  END
$$$$
