FIE.pdb
     RDKit          3D

 29 29  0  0  1  0  0  0  0  0999 V2000
   10.3673  -16.5553   20.9486 N   0  0  0  0  0  0  0  0  0  0  0  0
    9.4363  -15.7026   21.6217 C   0  0  1  0  0  0  0  0  0  0  0  0
    8.0604  -15.8514   21.0080 C   0  0  0  0  0  0  0  0  0  0  0  0
    7.5902  -14.5933   20.4287 C   0  0  0  0  0  0  0  0  0  0  0  0
    6.6117  -13.8196   21.0144 C   0  0  0  0  0  0  0  0  0  0  0  0
    6.1668  -12.6326   20.4650 C   0  0  0  0  0  0  0  0  0  0  0  0
    6.7114  -12.1853   19.2817 C   0  0  0  0  0  0  0  0  0  0  0  0
    7.6826  -12.9357   18.6830 C   0  0  0  0  0  0  0  0  0  0  0  0
    8.1154  -14.1129   19.2395 C   0  0  0  0  0  0  0  0  0  0  0  0
    9.3532  -16.0203   23.1093 C   0  0  0  0  0  0  0  0  0  0  0  0
   10.0571  -16.9479   23.5580 O   0  0  0  0  0  0  0  0  0  0  0  0
    6.4674  -11.7703   25.5666 C   0  0  0  0  0  0  0  0  0  0  0  0
    7.6320  -12.6556   25.0857 C   0  0  0  0  0  0  0  0  0  0  0  0
    7.7014  -13.9236   25.8719 C   0  0  2  0  0  0  0  0  0  0  0  0
    7.5387  -13.7735   27.3506 C   0  0  0  0  0  0  0  0  0  0  0  0
    8.5210  -15.0276   25.3440 C   0  0  2  0  0  0  0  0  0  0  0  0
    8.5025  -15.2752   23.9219 N   0  0  0  0  0  0  0  0  0  0  0  0
    8.5553  -16.3001   26.0388 C   0  0  0  0  0  0  0  0  0  0  0  0
    7.4616  -16.9431   26.2751 O   0  0  0  0  0  0  0  0  0  0  0  0
    9.7088  -16.9717   26.5171 N   0  0  0  0  0  0  0  0  0  0  0  0
    9.6458  -18.2769   27.1858 C   0  0  1  0  0  0  0  0  0  0  0  0
   10.3655  -19.3102   26.3910 C   0  0  0  0  0  0  0  0  0  0  0  0
   11.8383  -19.0339   26.3687 C   0  0  0  0  0  0  0  0  0  0  0  0
   12.5451  -19.9371   25.4005 C   0  0  0  0  0  0  0  0  0  0  0  0
   13.3309  -19.4381   24.5608 O   0  0  0  0  0  0  0  0  0  0  0  0
   10.1596  -18.2086   28.5530 C   0  0  0  0  0  0  0  0  0  0  0  0
   10.7212  -17.2572   29.1073 O   0  0  0  0  0  0  0  0  0  0  0  0
   12.2819  -21.2922   25.4948 O   0  0  0  0  0  0  0  0  0  0  0  0
   10.0009  -19.3630   29.3491 O   0  0  0  0  0  0  0  0  0  0  0  0
  2  1  1  6
  2  3  1  0
  4  3  1  0
  5  4  2  0
  6  7  2  0
  6  5  1  0
  7  8  1  0
  8  9  2  0
  9  4  1  0
 10  2  1  0
 11 10  2  0
 12 13  1  0
 13 14  1  0
 14 15  1  1
 16 14  1  0
 16 17  1  6
 17 10  1  0
 18 16  1  0
 19 18  2  0
 20 18  1  0
 21 22  1  6
 21 20  1  0
 23 22  1  0
 24 25  2  0
 24 23  1  0
 26 21  1  0
 26 29  1  0
 27 26  2  0
 28 24  1  0
M  END
$$$$
