FIE.pdb
     RDKit          3D

 29 29  0  0  1  0  0  0  0  0999 V2000
    5.6188  -18.0953   25.2862 N   0  0  0  0  0  0  0  0  0  0  0  0
    6.1986  -16.7971   25.1271 C   0  0  1  0  0  0  0  0  0  0  0  0
    6.6493  -16.2630   26.4701 C   0  0  0  0  0  0  0  0  0  0  0  0
    6.8517  -14.8150   26.4333 C   0  0  0  0  0  0  0  0  0  0  0  0
    5.8204  -13.9200   26.2469 C   0  0  0  0  0  0  0  0  0  0  0  0
    6.0133  -12.5524   26.2099 C   0  0  0  0  0  0  0  0  0  0  0  0
    7.2827  -12.0408   26.3639 C   0  0  0  0  0  0  0  0  0  0  0  0
    8.3203  -12.9088   26.5498 C   0  0  0  0  0  0  0  0  0  0  0  0
    8.1148  -14.2651   26.5845 C   0  0  0  0  0  0  0  0  0  0  0  0
    7.3902  -16.8234   24.1783 C   0  0  0  0  0  0  0  0  0  0  0  0
    8.0332  -17.8866   24.0627 O   0  0  0  0  0  0  0  0  0  0  0  0
    6.7156  -12.9244   20.0722 C   0  0  0  0  0  0  0  0  0  0  0  0
    6.8749  -14.2173   20.8935 C   0  0  0  0  0  0  0  0  0  0  0  0
    8.2690  -14.3549   21.4116 C   0  0  2  0  0  0  0  0  0  0  0  0
    9.3432  -13.8265   20.5160 C   0  0  0  0  0  0  0  0  0  0  0  0
    8.5696  -15.4788   22.3147 C   0  0  2  0  0  0  0  0  0  0  0  0
    7.7280  -15.6720   23.4716 N   0  0  0  0  0  0  0  0  0  0  0  0
    9.9429  -15.7634   22.6839 C   0  0  0  0  0  0  0  0  0  0  0  0
   10.8683  -15.7845   21.7845 O   0  0  0  0  0  0  0  0  0  0  0  0
   10.4295  -16.0334   23.9879 N   0  0  0  0  0  0  0  0  0  0  0  0
   11.8353  -16.3581   24.2578 C   0  0  1  0  0  0  0  0  0  0  0  0
   11.9383  -17.5254   25.1766 C   0  0  0  0  0  0  0  0  0  0  0  0
   13.3677  -17.7923   25.5395 C   0  0  0  0  0  0  0  0  0  0  0  0
   13.4804  -18.9579   26.4784 C   0  0  0  0  0  0  0  0  0  0  0  0
   14.2473  -19.9057   26.1870 O   0  0  0  0  0  0  0  0  0  0  0  0
   12.5828  -16.5897   23.0226 C   0  0  0  0  0  0  0  0  0  0  0  0
   12.2440  -17.2650   22.0444 O   0  0  0  0  0  0  0  0  0  0  0  0
   12.7165  -18.9153   27.6312 O   0  0  0  0  0  0  0  0  0  0  0  0
   13.8476  -15.9720   22.9209 O   0  0  0  0  0  0  0  0  0  0  0  0
  2  1  1  1
  2  3  1  0
  4  3  1  0
  5  4  2  0
  6  7  2  0
  6  5  1  0
  7  8  1  0
  8  9  2  0
  9  4  1  0
 10  2  1  0
 11 10  2  0
 12 13  1  0
 13 14  1  0
 14 15  1  6
 16 14  1  0
 16 17  1  1
 17 10  1  0
 18 16  1  0
 19 18  2  0
 20 18  1  0
 21 22  1  1
 21 20  1  0
 23 22  1  0
 24 25  2  0
 24 23  1  0
 26 21  1  0
 26 29  1  0
 27 26  2  0
 28 24  1  0
M  END
$$$$
