FIE.pdb
     RDKit          3D

 29 29  0  0  1  0  0  0  0  0999 V2000
    9.9527  -15.3978   20.8888 N   0  0  0  0  0  0  0  0  0  0  0  0
    8.9559  -14.7957   21.7199 C   0  0  1  0  0  0  0  0  0  0  0  0
    7.5746  -15.1621   21.2202 C   0  0  0  0  0  0  0  0  0  0  0  0
    7.1804  -14.3406   20.0761 C   0  0  0  0  0  0  0  0  0  0  0  0
    6.8978  -14.8712   18.8361 C   0  0  0  0  0  0  0  0  0  0  0  0
    6.5279  -14.0939   17.7555 C   0  0  0  0  0  0  0  0  0  0  0  0
    6.4315  -12.7278   17.9025 C   0  0  0  0  0  0  0  0  0  0  0  0
    6.7071  -12.1796   19.1223 C   0  0  0  0  0  0  0  0  0  0  0  0
    7.0734  -12.9633   20.1874 C   0  0  0  0  0  0  0  0  0  0  0  0
    9.0910  -15.2352   23.1723 C   0  0  0  0  0  0  0  0  0  0  0  0
    9.9489  -16.0965   23.4540 O   0  0  0  0  0  0  0  0  0  0  0  0
    6.0522  -11.6718   26.4818 C   0  0  0  0  0  0  0  0  0  0  0  0
    7.1848  -12.3809   25.7165 C   0  0  0  0  0  0  0  0  0  0  0  0
    7.4857  -13.7142   26.3186 C   0  0  2  0  0  0  0  0  0  0  0  0
    7.4644  -13.7650   27.8127 C   0  0  0  0  0  0  0  0  0  0  0  0
    8.3686  -14.6309   25.5775 C   0  0  2  0  0  0  0  0  0  0  0  0
    8.2621  -14.6705   24.1383 N   0  0  0  0  0  0  0  0  0  0  0  0
    8.5873  -15.9787   26.0664 C   0  0  0  0  0  0  0  0  0  0  0  0
    7.6329  -16.8468   26.0328 O   0  0  0  0  0  0  0  0  0  0  0  0
    9.7914  -16.4977   26.6058 N   0  0  0  0  0  0  0  0  0  0  0  0
    9.9370  -17.8998   27.0147 C   0  0  1  0  0  0  0  0  0  0  0  0
   10.9250  -18.6003   26.1484 C   0  0  0  0  0  0  0  0  0  0  0  0
   11.1095  -20.0199   26.5921 C   0  0  0  0  0  0  0  0  0  0  0  0
   12.0718  -20.7468   25.6986 C   0  0  0  0  0  0  0  0  0  0  0  0
   13.3030  -20.6339   25.9056 O   0  0  0  0  0  0  0  0  0  0  0  0
   10.2964  -18.0159   28.4273 C   0  0  0  0  0  0  0  0  0  0  0  0
   10.4256  -19.0470   29.0965 O   0  0  0  0  0  0  0  0  0  0  0  0
   11.5317  -21.5126   24.6806 O   0  0  0  0  0  0  0  0  0  0  0  0
   10.5276  -16.8109   29.1244 O   0  0  0  0  0  0  0  0  0  0  0  0
  2  1  1  6
  2  3  1  0
  4  3  1  0
  5  4  2  0
  6  7  2  0
  6  5  1  0
  7  8  1  0
  8  9  2  0
  9  4  1  0
 10  2  1  0
 11 10  2  0
 12 13  1  0
 13 14  1  0
 14 15  1  1
 16 14  1  0
 16 17  1  6
 17 10  1  0
 18 16  1  0
 19 18  2  0
 20 18  1  0
 21 22  1  6
 21 20  1  0
 23 22  1  0
 24 25  2  0
 24 23  1  0
 26 21  1  0
 26 29  1  0
 27 26  2  0
 28 24  1  0
M  END
$$$$
