FIE.pdb
     RDKit          3D

 29 29  0  0  1  0  0  0  0  0999 V2000
    7.0759  -19.0331   27.9328 N   0  0  0  0  0  0  0  0  0  0  0  0
    7.8606  -17.8531   27.7360 C   0  0  1  0  0  0  0  0  0  0  0  0
    9.3185  -18.1474   28.0184 C   0  0  0  0  0  0  0  0  0  0  0  0
   10.0778  -16.9215   28.2628 C   0  0  0  0  0  0  0  0  0  0  0  0
   10.4488  -16.5104   29.5248 C   0  0  0  0  0  0  0  0  0  0  0  0
   11.1640  -15.3509   29.7546 C   0  0  0  0  0  0  0  0  0  0  0  0
   11.5319  -14.5574   28.6907 C   0  0  0  0  0  0  0  0  0  0  0  0
   11.1751  -14.9447   27.4308 C   0  0  0  0  0  0  0  0  0  0  0  0
   10.4647  -16.0990   27.2166 C   0  0  0  0  0  0  0  0  0  0  0  0
    7.7284  -17.3176   26.3159 C   0  0  0  0  0  0  0  0  0  0  0  0
    7.5410  -18.1325   25.3897 O   0  0  0  0  0  0  0  0  0  0  0  0
    5.7349  -12.1943   26.1789 C   0  0  0  0  0  0  0  0  0  0  0  0
    5.8949  -13.6573   25.7259 C   0  0  0  0  0  0  0  0  0  0  0  0
    7.1419  -13.8367   24.9236 C   0  0  2  0  0  0  0  0  0  0  0  0
    7.2929  -12.9164   23.7550 C   0  0  0  0  0  0  0  0  0  0  0  0
    7.7506  -15.1768   24.8707 C   0  0  2  0  0  0  0  0  0  0  0  0
    7.8193  -15.9464   26.0902 N   0  0  0  0  0  0  0  0  0  0  0  0
    8.9707  -15.3884   24.1159 C   0  0  0  0  0  0  0  0  0  0  0  0
   10.0151  -14.6674   24.3502 O   0  0  0  0  0  0  0  0  0  0  0  0
    9.1768  -16.3487   23.0934 N   0  0  0  0  0  0  0  0  0  0  0  0
   10.4623  -16.5080   22.4032 C   0  0  1  0  0  0  0  0  0  0  0  0
   10.9599  -17.9054   22.5342 C   0  0  0  0  0  0  0  0  0  0  0  0
   12.4210  -17.9209   22.8674 C   0  0  0  0  0  0  0  0  0  0  0  0
   12.8130  -19.2101   23.5284 C   0  0  0  0  0  0  0  0  0  0  0  0
   12.8587  -20.2592   22.8437 O   0  0  0  0  0  0  0  0  0  0  0  0
   10.3751  -16.1071   20.9997 C   0  0  0  0  0  0  0  0  0  0  0  0
    9.3569  -15.9050   20.3288 O   0  0  0  0  0  0  0  0  0  0  0  0
   13.1061  -19.1622   24.8798 O   0  0  0  0  0  0  0  0  0  0  0  0
   11.5954  -15.9242   20.3149 O   0  0  0  0  0  0  0  0  0  0  0  0
  2  1  1  6
  2  3  1  0
  4  3  1  0
  5  4  2  0
  6  7  2  0
  6  5  1  0
  7  8  1  0
  8  9  2  0
  9  4  1  0
 10  2  1  0
 11 10  2  0
 12 13  1  0
 13 14  1  0
 14 15  1  6
 16 14  1  0
 16 17  1  1
 17 10  1  0
 18 16  1  0
 19 18  2  0
 20 18  1  0
 21 22  1  6
 21 20  1  0
 23 22  1  0
 24 25  2  0
 24 23  1  0
 26 21  1  0
 26 29  1  0
 27 26  2  0
 28 24  1  0
M  END
$$$$
