FIE.pdb
     RDKit          3D

 29 29  0  0  1  0  0  0  0  0999 V2000
    7.4232  -19.2481   27.2687 N   0  0  0  0  0  0  0  0  0  0  0  0
    7.8938  -17.9092   27.4496 C   0  0  1  0  0  0  0  0  0  0  0  0
    9.2397  -17.9223   28.1426 C   0  0  0  0  0  0  0  0  0  0  0  0
    9.6358  -16.5824   28.5750 C   0  0  0  0  0  0  0  0  0  0  0  0
   10.3628  -15.7239   27.7790 C   0  0  0  0  0  0  0  0  0  0  0  0
   10.7384  -14.4593   28.1896 C   0  0  0  0  0  0  0  0  0  0  0  0
   10.3811  -14.0182   29.4444 C   0  0  0  0  0  0  0  0  0  0  0  0
    9.6605  -14.8519   30.2509 C   0  0  0  0  0  0  0  0  0  0  0  0
    9.2939  -16.1057   29.8306 C   0  0  0  0  0  0  0  0  0  0  0  0
    8.0261  -17.1732   26.1223 C   0  0  0  0  0  0  0  0  0  0  0  0
    8.4363  -17.8087   25.1299 O   0  0  0  0  0  0  0  0  0  0  0  0
    5.4893  -12.1894   26.5502 C   0  0  0  0  0  0  0  0  0  0  0  0
    5.7163  -13.5943   25.9621 C   0  0  0  0  0  0  0  0  0  0  0  0
    6.9422  -13.6270   25.1096 C   0  0  2  0  0  0  0  0  0  0  0  0
    6.9914  -12.6106   24.0142 C   0  0  0  0  0  0  0  0  0  0  0  0
    7.6334  -14.9152   24.9309 C   0  0  2  0  0  0  0  0  0  0  0  0
    7.6894  -15.8237   26.0514 N   0  0  0  0  0  0  0  0  0  0  0  0
    8.8996  -14.9656   24.2255 C   0  0  0  0  0  0  0  0  0  0  0  0
    9.9193  -14.3110   24.6697 O   0  0  0  0  0  0  0  0  0  0  0  0
    9.1787  -15.6908   23.0396 N   0  0  0  0  0  0  0  0  0  0  0  0
   10.5096  -15.7164   22.4210 C   0  0  1  0  0  0  0  0  0  0  0  0
   11.5039  -16.3384   23.3384 C   0  0  0  0  0  0  0  0  0  0  0  0
   11.1654  -17.7758   23.5944 C   0  0  0  0  0  0  0  0  0  0  0  0
   12.2540  -18.4599   24.3688 C   0  0  0  0  0  0  0  0  0  0  0  0
   12.5391  -18.0471   25.5177 O   0  0  0  0  0  0  0  0  0  0  0  0
   10.4898  -16.3933   21.1251 C   0  0  0  0  0  0  0  0  0  0  0  0
   11.4367  -16.5881   20.3548 O   0  0  0  0  0  0  0  0  0  0  0  0
   12.8896  -19.5254   23.7563 O   0  0  0  0  0  0  0  0  0  0  0  0
    9.2438  -16.8911   20.6880 O   0  0  0  0  0  0  0  0  0  0  0  0
  2  1  1  6
  2  3  1  0
  4  3  1  0
  5  4  2  0
  6  7  2  0
  6  5  1  0
  7  8  1  0
  8  9  2  0
  9  4  1  0
 10  2  1  0
 11 10  2  0
 12 13  1  0
 13 14  1  0
 14 15  1  6
 16 14  1  0
 16 17  1  1
 17 10  1  0
 18 16  1  0
 19 18  2  0
 20 18  1  0
 21 22  1  1
 21 20  1  0
 23 22  1  0
 24 25  2  0
 24 23  1  0
 26 21  1  0
 26 29  1  0
 27 26  2  0
 28 24  1  0
M  END
$$$$
