FIE.pdb
     RDKit          3D

 29 29  0  0  1  0  0  0  0  0999 V2000
    8.1793  -16.5013   21.7367 N   0  0  0  0  0  0  0  0  0  0  0  0
    8.8216  -15.2802   22.1156 C   0  0  1  0  0  0  0  0  0  0  0  0
    7.8340  -14.1345   22.0531 C   0  0  0  0  0  0  0  0  0  0  0  0
    7.6252  -13.6780   20.6793 C   0  0  0  0  0  0  0  0  0  0  0  0
    6.8535  -14.3692   19.7705 C   0  0  0  0  0  0  0  0  0  0  0  0
    6.6590  -13.9381   18.4723 C   0  0  0  0  0  0  0  0  0  0  0  0
    7.2529  -12.7702   18.0480 C   0  0  0  0  0  0  0  0  0  0  0  0
    8.0223  -12.0685   18.9313 C   0  0  0  0  0  0  0  0  0  0  0  0
    8.2072  -12.5079   20.2180 C   0  0  0  0  0  0  0  0  0  0  0  0
    9.4008  -15.3599   23.5224 C   0  0  0  0  0  0  0  0  0  0  0  0
   10.6404  -15.4226   23.6509 O   0  0  0  0  0  0  0  0  0  0  0  0
    6.1400  -12.2100   26.5230 C   0  0  0  0  0  0  0  0  0  0  0  0
    7.1824  -13.0273   25.7376 C   0  0  0  0  0  0  0  0  0  0  0  0
    7.8600  -14.0225   26.6216 C   0  0  2  0  0  0  0  0  0  0  0  0
    8.1270  -13.5644   28.0195 C   0  0  0  0  0  0  0  0  0  0  0  0
    8.7609  -15.0079   26.0000 C   0  0  2  0  0  0  0  0  0  0  0  0
    8.5408  -15.3611   24.6177 N   0  0  0  0  0  0  0  0  0  0  0  0
    9.1442  -16.2004   26.7310 C   0  0  0  0  0  0  0  0  0  0  0  0
    8.2428  -16.9646   27.2496 O   0  0  0  0  0  0  0  0  0  0  0  0
   10.4642  -16.6651   26.9587 N   0  0  0  0  0  0  0  0  0  0  0  0
   10.7572  -17.8557   27.7656 C   0  0  1  0  0  0  0  0  0  0  0  0
   11.9452  -18.5753   27.2289 C   0  0  0  0  0  0  0  0  0  0  0  0
   11.8421  -18.7382   25.7427 C   0  0  0  0  0  0  0  0  0  0  0  0
   13.0364  -19.4615   25.1920 C   0  0  0  0  0  0  0  0  0  0  0  0
   14.1785  -18.9734   25.3616 O   0  0  0  0  0  0  0  0  0  0  0  0
   10.9352  -17.5207   29.1777 C   0  0  0  0  0  0  0  0  0  0  0  0
   11.0758  -18.2952   30.1308 O   0  0  0  0  0  0  0  0  0  0  0  0
   12.8004  -20.6462   24.5174 O   0  0  0  0  0  0  0  0  0  0  0  0
   10.9511  -16.1487   29.5074 O   0  0  0  0  0  0  0  0  0  0  0  0
  2  1  1  1
  2  3  1  0
  4  3  1  0
  5  4  2  0
  6  7  2  0
  6  5  1  0
  7  8  1  0
  8  9  2  0
  9  4  1  0
 10  2  1  0
 11 10  2  0
 12 13  1  0
 13 14  1  0
 14 15  1  1
 16 14  1  0
 16 17  1  6
 17 10  1  0
 18 16  1  0
 19 18  2  0
 20 18  1  0
 21 22  1  6
 21 20  1  0
 23 22  1  0
 24 25  2  0
 24 23  1  0
 26 21  1  0
 26 29  1  0
 27 26  2  0
 28 24  1  0
M  END
$$$$
