GHG.pdb
     RDKit          3D

 19 19  0  0  1  0  0  0  0  0999 V2000
   11.0659  -18.7307   17.4197 N   0  0  0  0  0  0  0  0  0  0  0  0
   10.4566  -18.7207   18.6897 C   0  0  0  0  0  0  0  0  0  0  0  0
   10.7946  -17.4676   19.4132 C   0  0  0  0  0  0  0  0  0  0  0  0
   11.8466  -16.8458   19.1371 O   0  0  0  0  0  0  0  0  0  0  0  0
    9.9261  -16.9693   20.4215 N   0  0  0  0  0  0  0  0  0  0  0  0
   10.2263  -15.8152   21.2238 C   0  0  1  0  0  0  0  0  0  0  0  0
    8.9503  -15.0872   21.5174 C   0  0  0  0  0  0  0  0  0  0  0  0
    8.3805  -14.4125   20.3315 C   0  0  0  0  0  0  0  0  0  0  0  0
    8.9481  -14.3337   19.0757 C   0  0  0  0  0  0  0  0  0  0  0  0
    8.1105  -13.6281   18.2612 N   0  0  0  0  0  0  0  0  0  0  0  0
    7.0385  -13.2735   18.9994 C   0  0  0  0  0  0  0  0  0  0  0  0
    7.2049  -13.7507   20.2551 N   0  0  0  0  0  0  0  0  0  0  0  0
   10.8207  -16.2390   22.5166 C   0  0  0  0  0  0  0  0  0  0  0  0
   10.1211  -16.7998   23.3806 O   0  0  0  0  0  0  0  0  0  0  0  0
   12.2102  -16.0003   22.7707 N   0  0  0  0  0  0  0  0  0  0  0  0
   12.8297  -16.4740   23.9715 C   0  0  0  0  0  0  0  0  0  0  0  0
   14.2490  -16.0379   23.9983 C   0  0  0  0  0  0  0  0  0  0  0  0
   14.7537  -15.4789   22.9756 O   0  0  0  0  0  0  0  0  0  0  0  0
   15.0362  -16.2265   25.1130 O   0  0  0  0  0  0  0  0  0  0  0  0
  1  2  1  0
  3  4  2  0
  3  2  1  0
  5  3  1  0
  6  5  1  0
  6  7  1  1
  8  7  1  0
  9  8  2  0
 10  9  1  0
 11 10  1  0
 11 12  2  0
 12  8  1  0
 13  6  1  0
 13 15  1  0
 14 13  2  0
 16 15  1  0
 17 16  1  0
 18 17  2  0
 19 17  1  0
M  END
$$$$
