GHG.pdb
     RDKit          3D

 19 19  0  0  1  0  0  0  0  0999 V2000
    5.2092  -18.8423   19.7826 N   0  0  0  0  0  0  0  0  0  0  0  0
    5.1250  -17.7877   20.7126 C   0  0  0  0  0  0  0  0  0  0  0  0
    6.4504  -17.1355   20.8731 C   0  0  0  0  0  0  0  0  0  0  0  0
    7.4751  -17.6636   20.3827 O   0  0  0  0  0  0  0  0  0  0  0  0
    6.5613  -15.9099   21.5837 N   0  0  0  0  0  0  0  0  0  0  0  0
    7.8134  -15.2475   21.8268 C   0  0  1  0  0  0  0  0  0  0  0  0
    7.6805  -13.8072   21.4364 C   0  0  0  0  0  0  0  0  0  0  0  0
    7.7655  -13.5911   19.9761 C   0  0  0  0  0  0  0  0  0  0  0  0
    8.7457  -12.8911   19.3019 C   0  0  0  0  0  0  0  0  0  0  0  0
    8.4648  -12.9223   17.9666 N   0  0  0  0  0  0  0  0  0  0  0  0
    7.3272  -13.6309   17.8130 C   0  0  0  0  0  0  0  0  0  0  0  0
    6.9050  -14.0356   19.0337 N   0  0  0  0  0  0  0  0  0  0  0  0
    8.1417  -15.3022   23.2736 C   0  0  0  0  0  0  0  0  0  0  0  0
    7.2746  -15.0441   24.1291 O   0  0  0  0  0  0  0  0  0  0  0  0
    9.4671  -15.6550   23.6875 N   0  0  0  0  0  0  0  0  0  0  0  0
    9.7950  -15.7792   25.0757 C   0  0  0  0  0  0  0  0  0  0  0  0
   11.2320  -16.1277   25.2129 C   0  0  0  0  0  0  0  0  0  0  0  0
   11.9263  -16.3503   24.1729 O   0  0  0  0  0  0  0  0  0  0  0  0
   11.8337  -16.2158   26.4490 O   0  0  0  0  0  0  0  0  0  0  0  0
  1  2  1  0
  3  4  2  0
  3  2  1  0
  5  3  1  0
  6  5  1  0
  6  7  1  1
  8  7  1  0
  9  8  2  0
 10  9  1  0
 11 10  1  0
 11 12  2  0
 12  8  1  0
 13  6  1  0
 13 15  1  0
 14 13  2  0
 16 15  1  0
 17 16  1  0
 18 17  2  0
 19 17  1  0
M  END
$$$$
