GHG.pdb
     RDKit          3D

 19 19  0  0  1  0  0  0  0  0999 V2000
   11.0989  -17.6254   16.5119 N   0  0  0  0  0  0  0  0  0  0  0  0
   10.4184  -17.6194   17.7453 C   0  0  0  0  0  0  0  0  0  0  0  0
   10.9347  -16.5292   18.6130 C   0  0  0  0  0  0  0  0  0  0  0  0
   11.9688  -15.9017   18.2870 O   0  0  0  0  0  0  0  0  0  0  0  0
   10.2575  -16.1937   19.8163 N   0  0  0  0  0  0  0  0  0  0  0  0
   10.6853  -15.1419   20.6973 C   0  0  1  0  0  0  0  0  0  0  0  0
    9.4947  -14.3140   21.0735 C   0  0  0  0  0  0  0  0  0  0  0  0
    8.7685  -13.7758   19.9033 C   0  0  0  0  0  0  0  0  0  0  0  0
    9.0247  -12.5877   19.2491 C   0  0  0  0  0  0  0  0  0  0  0  0
    8.1353  -12.4536   18.2225 N   0  0  0  0  0  0  0  0  0  0  0  0
    7.3383  -13.5419   18.2383 C   0  0  0  0  0  0  0  0  0  0  0  0
    7.7246  -14.3425   19.2590 N   0  0  0  0  0  0  0  0  0  0  0  0
   11.2514  -15.7229   21.9408 C   0  0  0  0  0  0  0  0  0  0  0  0
   10.5408  -16.4092   22.6987 O   0  0  0  0  0  0  0  0  0  0  0  0
   12.6263  -15.4914   22.2701 N   0  0  0  0  0  0  0  0  0  0  0  0
   13.2327  -16.1413   23.3926 C   0  0  0  0  0  0  0  0  0  0  0  0
   14.6484  -15.7076   23.5069 C   0  0  0  0  0  0  0  0  0  0  0  0
   15.1478  -14.9525   22.6161 O   0  0  0  0  0  0  0  0  0  0  0  0
   15.4378  -16.1072   24.5628 O   0  0  0  0  0  0  0  0  0  0  0  0
  1  2  1  0
  3  4  2  0
  3  2  1  0
  5  3  1  0
  6  5  1  0
  6  7  1  1
  8  7  1  0
  9  8  2  0
 10  9  1  0
 11 10  1  0
 11 12  2  0
 12  8  1  0
 13  6  1  0
 13 15  1  0
 14 13  2  0
 16 15  1  0
 17 16  1  0
 18 17  2  0
 19 17  1  0
M  END
$$$$
