GHG.pdb
     RDKit          3D

 19 19  0  0  1  0  0  0  0  0999 V2000
    8.3245  -18.6270   17.5235 N   0  0  0  0  0  0  0  0  0  0  0  0
    7.9772  -18.5586   18.8869 C   0  0  0  0  0  0  0  0  0  0  0  0
    8.9106  -17.6578   19.6116 C   0  0  0  0  0  0  0  0  0  0  0  0
    9.9849  -17.3011   19.0748 O   0  0  0  0  0  0  0  0  0  0  0  0
    8.5887  -17.1972   20.9168 N   0  0  0  0  0  0  0  0  0  0  0  0
    9.4360  -16.3195   21.6767 C   0  0  1  0  0  0  0  0  0  0  0  0
    8.6034  -15.2014   22.2254 C   0  0  0  0  0  0  0  0  0  0  0  0
    8.1154  -14.2746   21.1818 C   0  0  0  0  0  0  0  0  0  0  0  0
    8.3977  -14.3308   19.8318 C   0  0  0  0  0  0  0  0  0  0  0  0
    7.7581  -13.2987   19.2083 N   0  0  0  0  0  0  0  0  0  0  0  0
    7.0883  -12.6114   20.1564 C   0  0  0  0  0  0  0  0  0  0  0  0
    7.3068  -13.2055   21.3528 N   0  0  0  0  0  0  0  0  0  0  0  0
   10.0282  -17.0553   22.8222 C   0  0  0  0  0  0  0  0  0  0  0  0
    9.3112  -17.7497   23.5666 O   0  0  0  0  0  0  0  0  0  0  0  0
   11.4360  -16.9649   23.0719 N   0  0  0  0  0  0  0  0  0  0  0  0
   12.0853  -17.8816   23.9597 C   0  0  0  0  0  0  0  0  0  0  0  0
   12.5939  -17.1436   25.1437 C   0  0  0  0  0  0  0  0  0  0  0  0
   12.4400  -15.8848   25.2129 O   0  0  0  0  0  0  0  0  0  0  0  0
   13.2329  -17.7959   26.1753 O   0  0  0  0  0  0  0  0  0  0  0  0
  1  2  1  0
  3  4  2  0
  3  2  1  0
  5  3  1  0
  6  5  1  0
  6  7  1  1
  8  7  1  0
  9  8  2  0
 10  9  1  0
 11 10  1  0
 11 12  2  0
 12  8  1  0
 13  6  1  0
 13 15  1  0
 14 13  2  0
 16 15  1  0
 17 16  1  0
 18 17  2  0
 19 17  1  0
M  END
$$$$
