GHG.pdb
     RDKit          3D

 19 19  0  0  1  0  0  0  0  0999 V2000
    5.3953  -19.3518   21.0439 N   0  0  0  0  0  0  0  0  0  0  0  0
    5.5648  -18.2160   21.8597 C   0  0  0  0  0  0  0  0  0  0  0  0
    6.8826  -17.5831   21.5940 C   0  0  0  0  0  0  0  0  0  0  0  0
    7.6869  -18.1158   20.7947 O   0  0  0  0  0  0  0  0  0  0  0  0
    7.2362  -16.3707   22.2453 N   0  0  0  0  0  0  0  0  0  0  0  0
    8.4640  -15.6671   21.9939 C   0  0  1  0  0  0  0  0  0  0  0  0
    8.1401  -14.2603   21.5934 C   0  0  0  0  0  0  0  0  0  0  0  0
    7.8483  -14.1197   20.1507 C   0  0  0  0  0  0  0  0  0  0  0  0
    7.8603  -15.1254   19.2053 C   0  0  0  0  0  0  0  0  0  0  0  0
    7.5375  -14.5888   17.9925 N   0  0  0  0  0  0  0  0  0  0  0  0
    7.3280  -13.2696   18.1811 C   0  0  0  0  0  0  0  0  0  0  0  0
    7.5172  -12.9876   19.4914 N   0  0  0  0  0  0  0  0  0  0  0  0
    9.2798  -15.6151   23.2332 C   0  0  0  0  0  0  0  0  0  0  0  0
    8.7465  -15.3707   24.3315 O   0  0  0  0  0  0  0  0  0  0  0  0
   10.6916  -15.8481   23.1636 N   0  0  0  0  0  0  0  0  0  0  0  0
   11.4883  -15.8950   24.3524 C   0  0  0  0  0  0  0  0  0  0  0  0
   12.8940  -16.2090   23.9909 C   0  0  0  0  0  0  0  0  0  0  0  0
   13.1864  -16.4826   22.7856 O   0  0  0  0  0  0  0  0  0  0  0  0
   13.8947  -16.2107   24.9377 O   0  0  0  0  0  0  0  0  0  0  0  0
  1  2  1  0
  3  4  2  0
  3  2  1  0
  5  3  1  0
  6  5  1  0
  6  7  1  1
  8  7  1  0
  9  8  2  0
 10  9  1  0
 11 10  1  0
 11 12  2  0
 12  8  1  0
 13  6  1  0
 13 15  1  0
 14 13  2  0
 16 15  1  0
 17 16  1  0
 18 17  2  0
 19 17  1  0
M  END
$$$$
