GHG.pdb
     RDKit          3D

 19 19  0  0  1  0  0  0  0  0999 V2000
    6.5264  -19.9032   20.2422 N   0  0  0  0  0  0  0  0  0  0  0  0
    6.2818  -18.8147   21.1021 C   0  0  0  0  0  0  0  0  0  0  0  0
    7.4169  -17.8568   21.0562 C   0  0  0  0  0  0  0  0  0  0  0  0
    8.4935  -18.1829   20.5047 O   0  0  0  0  0  0  0  0  0  0  0  0
    7.2860  -16.5669   21.6376 N   0  0  0  0  0  0  0  0  0  0  0  0
    8.3772  -15.6391   21.7569 C   0  0  1  0  0  0  0  0  0  0  0  0
    7.8987  -14.2778   21.3539 C   0  0  0  0  0  0  0  0  0  0  0  0
    7.8732  -14.0815   19.8887 C   0  0  0  0  0  0  0  0  0  0  0  0
    8.3167  -14.9700   18.9299 C   0  0  0  0  0  0  0  0  0  0  0  0
    8.1198  -14.4173   17.6976 N   0  0  0  0  0  0  0  0  0  0  0  0
    7.5624  -13.2035   17.8873 C   0  0  0  0  0  0  0  0  0  0  0  0
    7.4138  -13.0023   19.2176 N   0  0  0  0  0  0  0  0  0  0  0  0
    8.8277  -15.5675   23.1698 C   0  0  0  0  0  0  0  0  0  0  0  0
    7.9984  -15.5669   24.0987 O   0  0  0  0  0  0  0  0  0  0  0  0
   10.2277  -15.4984   23.4654 N   0  0  0  0  0  0  0  0  0  0  0  0
   10.6920  -15.4619   24.8194 C   0  0  0  0  0  0  0  0  0  0  0  0
   11.3958  -16.7314   25.1328 C   0  0  0  0  0  0  0  0  0  0  0  0
   11.2021  -17.7534   24.4041 O   0  0  0  0  0  0  0  0  0  0  0  0
   12.2592  -16.8276   26.2020 O   0  0  0  0  0  0  0  0  0  0  0  0
  1  2  1  0
  3  4  2  0
  3  2  1  0
  5  3  1  0
  6  5  1  0
  6  7  1  1
  8  7  1  0
  9  8  2  0
 10  9  1  0
 11 10  1  0
 11 12  2  0
 12  8  1  0
 13  6  1  0
 13 15  1  0
 14 13  2  0
 16 15  1  0
 17 16  1  0
 18 17  2  0
 19 17  1  0
M  END
$$$$
