GHG.pdb
     RDKit          3D

 19 19  0  0  1  0  0  0  0  0999 V2000
    8.7092  -19.8490   17.6858 N   0  0  0  0  0  0  0  0  0  0  0  0
    7.9421  -19.0028   18.5102 C   0  0  0  0  0  0  0  0  0  0  0  0
    8.7723  -17.8734   19.0034 C   0  0  0  0  0  0  0  0  0  0  0  0
    9.9975  -17.8334   18.7454 O   0  0  0  0  0  0  0  0  0  0  0  0
    8.1798  -16.8338   19.7699 N   0  0  0  0  0  0  0  0  0  0  0  0
    8.9034  -15.6806   20.2306 C   0  0  1  0  0  0  0  0  0  0  0  0
    8.0366  -14.4699   20.0649 C   0  0  0  0  0  0  0  0  0  0  0  0
    7.8406  -14.0852   18.6507 C   0  0  0  0  0  0  0  0  0  0  0  0
    8.3832  -12.9885   18.0118 C   0  0  0  0  0  0  0  0  0  0  0  0
    7.9627  -12.9870   16.7133 N   0  0  0  0  0  0  0  0  0  0  0  0
    7.1707  -14.0664   16.5475 C   0  0  0  0  0  0  0  0  0  0  0  0
    7.0983  -14.7310   17.7244 N   0  0  0  0  0  0  0  0  0  0  0  0
    9.2186  -15.8250   21.6742 C   0  0  0  0  0  0  0  0  0  0  0  0
    8.3053  -15.9436   22.5122 O   0  0  0  0  0  0  0  0  0  0  0  0
   10.5849  -15.8278   22.1051 N   0  0  0  0  0  0  0  0  0  0  0  0
   10.9264  -16.1253   23.4634 C   0  0  0  0  0  0  0  0  0  0  0  0
   12.3752  -15.8754   23.6728 C   0  0  0  0  0  0  0  0  0  0  0  0
   13.1187  -15.6184   22.6757 O   0  0  0  0  0  0  0  0  0  0  0  0
   12.9355  -15.9158   24.9307 O   0  0  0  0  0  0  0  0  0  0  0  0
  1  2  1  0
  3  4  2  0
  3  2  1  0
  5  3  1  0
  6  5  1  0
  6  7  1  1
  8  7  1  0
  9  8  2  0
 10  9  1  0
 11 10  1  0
 11 12  2  0
 12  8  1  0
 13  6  1  0
 13 15  1  0
 14 13  2  0
 16 15  1  0
 17 16  1  0
 18 17  2  0
 19 17  1  0
M  END
$$$$
