GHG.pdb
     RDKit          3D

 19 19  0  0  1  0  0  0  0  0999 V2000
    8.7031  -19.2250   18.4998 N   0  0  0  0  0  0  0  0  0  0  0  0
    8.2214  -18.6488   19.6915 C   0  0  0  0  0  0  0  0  0  0  0  0
    9.0762  -17.5007   20.0906 C   0  0  0  0  0  0  0  0  0  0  0  0
   10.1452  -17.2698   19.4797 O   0  0  0  0  0  0  0  0  0  0  0  0
    8.6846  -16.6599   21.1671 N   0  0  0  0  0  0  0  0  0  0  0  0
    9.4977  -15.5854   21.6671 C   0  0  1  0  0  0  0  0  0  0  0  0
    8.6371  -14.3720   21.8445 C   0  0  0  0  0  0  0  0  0  0  0  0
    8.0862  -13.8596   20.5717 C   0  0  0  0  0  0  0  0  0  0  0  0
    8.6555  -12.9068   19.7511 C   0  0  0  0  0  0  0  0  0  0  0  0
    7.8378  -12.7112   18.6759 N   0  0  0  0  0  0  0  0  0  0  0  0
    6.7762  -13.5300   18.8258 C   0  0  0  0  0  0  0  0  0  0  0  0
    6.9294  -14.2256   19.9768 N   0  0  0  0  0  0  0  0  0  0  0  0
   10.0566  -15.9494   22.9935 C   0  0  0  0  0  0  0  0  0  0  0  0
    9.3021  -16.2599   23.9341 O   0  0  0  0  0  0  0  0  0  0  0  0
   11.4755  -15.9429   23.1915 N   0  0  0  0  0  0  0  0  0  0  0  0
   12.0444  -16.3364   24.4451 C   0  0  0  0  0  0  0  0  0  0  0  0
   13.5249  -16.2571   24.3604 C   0  0  0  0  0  0  0  0  0  0  0  0
   14.0745  -15.9297   23.2632 O   0  0  0  0  0  0  0  0  0  0  0  0
   14.3213  -16.5318   25.4504 O   0  0  0  0  0  0  0  0  0  0  0  0
  1  2  1  0
  3  4  2  0
  3  2  1  0
  5  3  1  0
  6  5  1  0
  6  7  1  1
  8  7  1  0
  9  8  2  0
 10  9  1  0
 11 10  1  0
 11 12  2  0
 12  8  1  0
 13  6  1  0
 13 15  1  0
 14 13  2  0
 16 15  1  0
 17 16  1  0
 18 17  2  0
 19 17  1  0
M  END
$$$$
