GHG.pdb
     RDKit          3D

 19 19  0  0  1  0  0  0  0  0999 V2000
    8.0764  -19.0316   18.0438 N   0  0  0  0  0  0  0  0  0  0  0  0
    8.0214  -18.7265   19.4179 C   0  0  0  0  0  0  0  0  0  0  0  0
    8.9811  -17.6396   19.7429 C   0  0  0  0  0  0  0  0  0  0  0  0
    9.8962  -17.3468   18.9389 O   0  0  0  0  0  0  0  0  0  0  0  0
    8.8649  -16.9275   20.9671 N   0  0  0  0  0  0  0  0  0  0  0  0
    9.7395  -15.8501   21.3411 C   0  0  1  0  0  0  0  0  0  0  0  0
    8.9160  -14.6213   21.5790 C   0  0  0  0  0  0  0  0  0  0  0  0
    8.2120  -14.1504   20.3670 C   0  0  0  0  0  0  0  0  0  0  0  0
    6.8468  -14.0349   20.1991 C   0  0  0  0  0  0  0  0  0  0  0  0
    6.5994  -13.5655   18.9416 N   0  0  0  0  0  0  0  0  0  0  0  0
    7.7928  -13.3917   18.3369 C   0  0  0  0  0  0  0  0  0  0  0  0
    8.7694  -13.7474   19.2039 N   0  0  0  0  0  0  0  0  0  0  0  0
   10.4410  -16.1843   22.6061 C   0  0  0  0  0  0  0  0  0  0  0  0
    9.9383  -16.9863   23.4152 O   0  0  0  0  0  0  0  0  0  0  0  0
   11.7063  -15.5786   22.8970 N   0  0  0  0  0  0  0  0  0  0  0  0
   12.8815  -16.3782   23.0692 C   0  0  0  0  0  0  0  0  0  0  0  0
   13.0316  -16.7302   24.5041 C   0  0  0  0  0  0  0  0  0  0  0  0
   12.2253  -17.5547   25.0361 O   0  0  0  0  0  0  0  0  0  0  0  0
   14.0308  -16.1801   25.2767 O   0  0  0  0  0  0  0  0  0  0  0  0
  1  2  1  0
  3  4  2  0
  3  2  1  0
  5  3  1  0
  6  5  1  0
  6  7  1  1
  8  7  1  0
  9  8  2  0
 10  9  1  0
 11 10  1  0
 11 12  2  0
 12  8  1  0
 13  6  1  0
 13 15  1  0
 14 13  2  0
 16 15  1  0
 17 16  1  0
 18 17  2  0
 19 17  1  0
M  END
$$$$
