QFM.pdb
     RDKit          3D

 29 29  0  0  1  0  0  0  0  0999 V2000
   11.1399  -16.7475   15.6773 N   0  0  0  0  0  0  0  0  0  0  0  0
   11.4009  -17.7276   16.6620 C   0  0  0  0  0  0  0  0  0  0  0  0
   12.2155  -18.6427   16.4074 O   0  0  0  0  0  0  0  0  0  0  0  0
   10.7437  -17.7101   17.9861 C   0  0  0  0  0  0  0  0  0  0  0  0
   11.4923  -16.8391   18.9725 C   0  0  0  0  0  0  0  0  0  0  0  0
   11.3863  -17.5080   20.3230 C   0  0  2  0  0  0  0  0  0  0  0  0
   10.3014  -18.4660   20.2417 N   0  0  0  0  0  0  0  0  0  0  0  0
   11.0592  -16.5451   21.4017 C   0  0  0  0  0  0  0  0  0  0  0  0
   11.8568  -15.6509   21.7309 O   0  0  0  0  0  0  0  0  0  0  0  0
    9.8132  -16.6181   22.0959 N   0  0  0  0  0  0  0  0  0  0  0  0
    9.4567  -15.6648   23.1402 C   0  0  1  0  0  0  0  0  0  0  0  0
    7.9541  -15.4157   22.9678 C   0  0  0  0  0  0  0  0  0  0  0  0
    7.6900  -14.5248   21.8258 C   0  0  0  0  0  0  0  0  0  0  0  0
    8.0190  -13.1818   21.8660 C   0  0  0  0  0  0  0  0  0  0  0  0
    7.7647  -12.3500   20.7816 C   0  0  0  0  0  0  0  0  0  0  0  0
    7.1802  -12.8485   19.6469 C   0  0  0  0  0  0  0  0  0  0  0  0
    6.8500  -14.1685   19.5911 C   0  0  0  0  0  0  0  0  0  0  0  0
    7.1034  -15.0027   20.6745 C   0  0  0  0  0  0  0  0  0  0  0  0
    9.7595  -16.1835   24.4848 C   0  0  0  0  0  0  0  0  0  0  0  0
   10.2422  -17.3514   24.6775 O   0  0  0  0  0  0  0  0  0  0  0  0
    6.8066  -12.7075   27.4369 C   0  0  0  0  0  0  0  0  0  0  0  0
    8.4707  -12.1393   27.2005 S   0  0  0  0  0  0  0  0  0  0  0  0
    9.7833  -13.2600   27.6273 C   0  0  0  0  0  0  0  0  0  0  0  0
    9.3940  -14.6630   27.9113 C   0  0  0  0  0  0  0  0  0  0  0  0
    9.8552  -15.7075   26.9695 C   0  0  2  0  0  0  0  0  0  0  0  0
    9.5076  -15.3589   25.6104 N   0  0  0  0  0  0  0  0  0  0  0  0
    9.4806  -17.0737   27.3289 C   0  0  0  0  0  0  0  0  0  0  0  0
    8.4953  -17.6195   26.7898 O   0  0  0  0  0  0  0  0  0  0  0  0
   10.1880  -17.8135   28.2670 O   0  0  0  0  0  0  0  0  0  0  0  0
  2  3  2  0
  2  1  1  0
  4  2  1  0
  5  4  1  0
  5  6  1  0
  6  8  1  0
  6  7  1  6
  8  9  2  0
 10 11  1  0
 10  8  1  0
 11 12  1  1
 12 13  1  0
 13 18  2  0
 14 15  2  0
 14 13  1  0
 15 16  1  0
 16 17  2  0
 18 17  1  0
 19 20  2  0
 19 11  1  0
 21 22  1  0
 22 23  1  0
 23 24  1  0
 25 24  1  1
 25 27  1  0
 25 26  1  0
 26 19  1  0
 27 29  1  0
 28 27  2  0
M  END
$$$$
