QFM.pdb
     RDKit          3D

 29 29  0  0  1  0  0  0  0  0999 V2000
    3.4291  -22.5388   20.0611 N   0  0  0  0  0  0  0  0  0  0  0  0
    4.4390  -22.1052   20.9501 C   0  0  0  0  0  0  0  0  0  0  0  0
    5.6296  -22.1078   20.5650 O   0  0  0  0  0  0  0  0  0  0  0  0
    4.1379  -21.6475   22.3232 C   0  0  0  0  0  0  0  0  0  0  0  0
    4.2180  -20.1403   22.4422 C   0  0  0  0  0  0  0  0  0  0  0  0
    5.5808  -19.8127   23.0059 C   0  0  2  0  0  0  0  0  0  0  0  0
    5.6878  -20.4865   24.2850 N   0  0  0  0  0  0  0  0  0  0  0  0
    5.7547  -18.3599   23.2444 C   0  0  0  0  0  0  0  0  0  0  0  0
    5.4262  -17.5224   22.3871 O   0  0  0  0  0  0  0  0  0  0  0  0
    6.3067  -17.8797   24.4710 N   0  0  0  0  0  0  0  0  0  0  0  0
    6.8681  -16.5391   24.5898 C   0  0  1  0  0  0  0  0  0  0  0  0
    6.7711  -16.1881   26.0788 C   0  0  0  0  0  0  0  0  0  0  0  0
    6.9920  -14.7498   26.3020 C   0  0  0  0  0  0  0  0  0  0  0  0
    5.9409  -13.8504   26.3119 C   0  0  0  0  0  0  0  0  0  0  0  0
    6.1616  -12.4943   26.5235 C   0  0  0  0  0  0  0  0  0  0  0  0
    7.4314  -12.0215   26.7271 C   0  0  0  0  0  0  0  0  0  0  0  0
    8.4772  -12.8937   26.7204 C   0  0  0  0  0  0  0  0  0  0  0  0
    8.2592  -14.2507   26.5090 C   0  0  0  0  0  0  0  0  0  0  0  0
    8.2625  -16.4833   24.1195 C   0  0  0  0  0  0  0  0  0  0  0  0
    9.1032  -17.4181   24.3511 O   0  0  0  0  0  0  0  0  0  0  0  0
    8.7540  -11.2400   20.6132 C   0  0  0  0  0  0  0  0  0  0  0  0
    7.7461  -12.6585   20.2669 S   0  0  0  0  0  0  0  0  0  0  0  0
    8.4294  -14.2559   20.6440 C   0  0  0  0  0  0  0  0  0  0  0  0
    9.6663  -14.2739   21.4628 C   0  0  0  0  0  0  0  0  0  0  0  0
    9.8103  -15.3531   22.4653 C   0  0  2  0  0  0  0  0  0  0  0  0
    8.6923  -15.3515   23.3814 N   0  0  0  0  0  0  0  0  0  0  0  0
   11.1072  -15.4043   23.1372 C   0  0  0  0  0  0  0  0  0  0  0  0
   11.1763  -15.3186   24.3811 O   0  0  0  0  0  0  0  0  0  0  0  0
   12.2985  -15.5477   22.4386 O   0  0  0  0  0  0  0  0  0  0  0  0
  2  3  2  0
  2  1  1  0
  4  2  1  0
  5  4  1  0
  5  6  1  0
  6  8  1  0
  6  7  1  1
  8  9  2  0
 10 11  1  0
 10  8  1  0
 11 12  1  1
 12 13  1  0
 13 18  2  0
 14 15  2  0
 14 13  1  0
 15 16  1  0
 16 17  2  0
 18 17  1  0
 19 20  2  0
 19 11  1  0
 21 22  1  0
 22 23  1  0
 23 24  1  0
 25 24  1  1
 25 27  1  0
 25 26  1  0
 26 19  1  0
 27 29  1  0
 28 27  2  0
M  END
$$$$
