QFM.pdb
     RDKit          3D

 29 29  0  0  1  0  0  0  0  0999 V2000
   13.5800  -16.3982   17.0870 N   0  0  0  0  0  0  0  0  0  0  0  0
   12.2822  -16.8699   16.7848 C   0  0  0  0  0  0  0  0  0  0  0  0
   11.9084  -16.8974   15.5909 O   0  0  0  0  0  0  0  0  0  0  0  0
   11.3474  -17.3333   17.8322 C   0  0  0  0  0  0  0  0  0  0  0  0
   11.9814  -17.2952   19.2065 C   0  0  0  0  0  0  0  0  0  0  0  0
   10.9311  -17.7532   20.1912 C   0  0  2  0  0  0  0  0  0  0  0  0
    9.7107  -17.9769   19.4416 N   0  0  0  0  0  0  0  0  0  0  0  0
   10.6458  -16.7286   21.2240 C   0  0  0  0  0  0  0  0  0  0  0  0
   11.5290  -15.9488   21.6193 O   0  0  0  0  0  0  0  0  0  0  0  0
    9.3428  -16.6080   21.7960 N   0  0  0  0  0  0  0  0  0  0  0  0
    9.1052  -15.8451   23.0159 C   0  0  1  0  0  0  0  0  0  0  0  0
    7.6860  -15.2833   22.8743 C   0  0  0  0  0  0  0  0  0  0  0  0
    7.3872  -14.3165   23.9437 C   0  0  0  0  0  0  0  0  0  0  0  0
    6.7513  -14.7027   25.1099 C   0  0  0  0  0  0  0  0  0  0  0  0
    6.4741  -13.7809   26.1128 C   0  0  0  0  0  0  0  0  0  0  0  0
    6.8279  -12.4656   25.9632 C   0  0  0  0  0  0  0  0  0  0  0  0
    7.4546  -12.0689   24.8211 C   0  0  0  0  0  0  0  0  0  0  0  0
    7.7331  -12.9891   23.8164 C   0  0  0  0  0  0  0  0  0  0  0  0
    9.2284  -16.6826   24.2209 C   0  0  0  0  0  0  0  0  0  0  0  0
    8.8380  -17.8995   24.2542 O   0  0  0  0  0  0  0  0  0  0  0  0
    8.7305  -13.7303   29.2819 C   0  0  0  0  0  0  0  0  0  0  0  0
   10.3157  -13.4209   28.5477 S   0  0  0  0  0  0  0  0  0  0  0  0
   10.8712  -14.5571   27.2980 C   0  0  0  0  0  0  0  0  0  0  0  0
   10.7351  -16.0021   27.6049 C   0  0  0  0  0  0  0  0  0  0  0  0
   10.2688  -16.8934   26.5193 C   0  0  2  0  0  0  0  0  0  0  0  0
    9.8014  -16.1214   25.3902 N   0  0  0  0  0  0  0  0  0  0  0  0
    9.3315  -17.9354   26.9339 C   0  0  0  0  0  0  0  0  0  0  0  0
    9.6629  -18.7734   27.7983 O   0  0  0  0  0  0  0  0  0  0  0  0
    8.0552  -18.0400   26.3973 O   0  0  0  0  0  0  0  0  0  0  0  0
  2  3  2  0
  2  1  1  0
  4  2  1  0
  5  4  1  0
  5  6  1  0
  6  8  1  0
  6  7  1  6
  8  9  2  0
 10 11  1  0
 10  8  1  0
 11 12  1  6
 12 13  1  0
 13 18  2  0
 14 15  2  0
 14 13  1  0
 15 16  1  0
 16 17  2  0
 18 17  1  0
 19 20  2  0
 19 11  1  0
 21 22  1  0
 22 23  1  0
 23 24  1  0
 25 24  1  1
 25 27  1  0
 25 26  1  0
 26 19  1  0
 27 29  1  0
 28 27  2  0
M  END
$$$$
