QFM.pdb
     RDKit          3D

 29 29  0  0  1  0  0  0  0  0999 V2000
   13.3028  -16.6831   17.0561 N   0  0  0  0  0  0  0  0  0  0  0  0
   12.4830  -17.7942   16.7536 C   0  0  0  0  0  0  0  0  0  0  0  0
   12.9125  -18.6712   15.9711 O   0  0  0  0  0  0  0  0  0  0  0  0
   11.1316  -17.9578   17.3304 C   0  0  0  0  0  0  0  0  0  0  0  0
   10.8217  -16.8800   18.3475 C   0  0  0  0  0  0  0  0  0  0  0  0
   10.5143  -17.5775   19.6518 C   0  0  2  0  0  0  0  0  0  0  0  0
    9.2743  -18.3051   19.4658 N   0  0  0  0  0  0  0  0  0  0  0  0
   10.3139  -16.6205   20.7661 C   0  0  0  0  0  0  0  0  0  0  0  0
   11.2178  -15.8440   21.1189 O   0  0  0  0  0  0  0  0  0  0  0  0
    9.0717  -16.5633   21.4684 N   0  0  0  0  0  0  0  0  0  0  0  0
    8.8816  -15.6988   22.6273 C   0  0  1  0  0  0  0  0  0  0  0  0
    7.3838  -15.3738   22.6508 C   0  0  0  0  0  0  0  0  0  0  0  0
    7.0689  -14.3910   23.7009 C   0  0  0  0  0  0  0  0  0  0  0  0
    7.4702  -13.0711   23.5989 C   0  0  0  0  0  0  0  0  0  0  0  0
    7.1673  -12.1520   24.5968 C   0  0  0  0  0  0  0  0  0  0  0  0
    6.4618  -12.5393   25.7058 C   0  0  0  0  0  0  0  0  0  0  0  0
    6.0594  -13.8351   25.8217 C   0  0  0  0  0  0  0  0  0  0  0  0
    6.3610  -14.7565   24.8248 C   0  0  0  0  0  0  0  0  0  0  0  0
    9.3039  -16.3536   23.8769 C   0  0  0  0  0  0  0  0  0  0  0  0
    9.0277  -17.5737   24.1401 O   0  0  0  0  0  0  0  0  0  0  0  0
    9.8811  -12.6559   29.3038 C   0  0  0  0  0  0  0  0  0  0  0  0
   10.1922  -14.3186   29.8389 S   0  0  0  0  0  0  0  0  0  0  0  0
   10.4821  -15.5397   28.5796 C   0  0  0  0  0  0  0  0  0  0  0  0
   10.1522  -15.1501   27.1868 C   0  0  0  0  0  0  0  0  0  0  0  0
   10.4720  -16.1141   26.1102 C   0  0  2  0  0  0  0  0  0  0  0  0
   10.0453  -15.6055   24.8262 N   0  0  0  0  0  0  0  0  0  0  0  0
   10.0384  -17.4872   26.3604 C   0  0  0  0  0  0  0  0  0  0  0  0
    8.8362  -17.8010   26.2356 O   0  0  0  0  0  0  0  0  0  0  0  0
   10.9244  -18.4863   26.7406 O   0  0  0  0  0  0  0  0  0  0  0  0
  2  3  2  0
  2  1  1  0
  4  2  1  0
  5  4  1  0
  5  6  1  0
  6  8  1  0
  6  7  1  6
  8  9  2  0
 10 11  1  0
 10  8  1  0
 11 12  1  1
 12 13  1  0
 13 18  2  0
 14 15  2  0
 14 13  1  0
 15 16  1  0
 16 17  2  0
 18 17  1  0
 19 20  2  0
 19 11  1  0
 21 22  1  0
 22 23  1  0
 23 24  1  0
 25 24  1  1
 25 27  1  0
 25 26  1  0
 26 19  1  0
 27 29  1  0
 28 27  2  0
M  END
$$$$
