QFM.pdb
     RDKit          3D

 29 29  0  0  1  0  0  0  0  0999 V2000
   11.2252  -22.5927   20.7831 N   0  0  0  0  0  0  0  0  0  0  0  0
   11.7804  -21.3996   20.2668 C   0  0  0  0  0  0  0  0  0  0  0  0
   13.0206  -21.2384   20.3091 O   0  0  0  0  0  0  0  0  0  0  0  0
   10.9454  -20.3317   19.6768 C   0  0  0  0  0  0  0  0  0  0  0  0
   11.0767  -19.0308   20.4401 C   0  0  0  0  0  0  0  0  0  0  0  0
    9.7150  -18.3763   20.4366 C   0  0  2  0  0  0  0  0  0  0  0  0
    9.4309  -17.9875   19.0693 N   0  0  0  0  0  0  0  0  0  0  0  0
    9.6792  -17.1518   21.2715 C   0  0  0  0  0  0  0  0  0  0  0  0
   10.5887  -16.3068   21.2153 O   0  0  0  0  0  0  0  0  0  0  0  0
    8.5942  -16.9074   22.1675 N   0  0  0  0  0  0  0  0  0  0  0  0
    8.5279  -15.7020   22.9855 C   0  0  1  0  0  0  0  0  0  0  0  0
    7.1369  -15.7234   23.6292 C   0  0  0  0  0  0  0  0  0  0  0  0
    6.9202  -14.5329   24.4677 C   0  0  0  0  0  0  0  0  0  0  0  0
    7.4566  -13.3035   24.1295 C   0  0  0  0  0  0  0  0  0  0  0  0
    7.2455  -12.1862   24.9292 C   0  0  0  0  0  0  0  0  0  0  0  0
    6.4980  -12.2833   26.0735 C   0  0  0  0  0  0  0  0  0  0  0  0
    5.9629  -13.4863   26.4208 C   0  0  0  0  0  0  0  0  0  0  0  0
    6.1725  -14.6056   25.6225 C   0  0  0  0  0  0  0  0  0  0  0  0
    9.5872  -15.6726   24.0081 C   0  0  0  0  0  0  0  0  0  0  0  0
   10.4149  -14.7038   24.1115 O   0  0  0  0  0  0  0  0  0  0  0  0
    9.7215  -12.7067   28.4063 C   0  0  0  0  0  0  0  0  0  0  0  0
   10.7776  -13.9403   29.1208 S   0  0  0  0  0  0  0  0  0  0  0  0
   11.0069  -15.4470   28.2052 C   0  0  0  0  0  0  0  0  0  0  0  0
   10.3088  -15.5449   26.8999 C   0  0  0  0  0  0  0  0  0  0  0  0
   10.5419  -16.7589   26.0860 C   0  0  2  0  0  0  0  0  0  0  0  0
    9.6960  -16.7579   24.9139 N   0  0  0  0  0  0  0  0  0  0  0  0
   10.5002  -18.0180   26.8270 C   0  0  0  0  0  0  0  0  0  0  0  0
    9.5276  -18.7910   26.7017 O   0  0  0  0  0  0  0  0  0  0  0  0
   11.5189  -18.4055   27.6872 O   0  0  0  0  0  0  0  0  0  0  0  0
  2  3  2  0
  2  1  1  0
  4  2  1  0
  5  4  1  0
  5  6  1  0
  6  8  1  0
  6  7  1  6
  8  9  2  0
 10 11  1  0
 10  8  1  0
 11 12  1  1
 12 13  1  0
 13 18  2  0
 14 15  2  0
 14 13  1  0
 15 16  1  0
 16 17  2  0
 18 17  1  0
 19 20  2  0
 19 11  1  0
 21 22  1  0
 22 23  1  0
 23 24  1  0
 25 24  1  1
 25 27  1  0
 25 26  1  0
 26 19  1  0
 27 29  1  0
 28 27  2  0
M  END
$$$$
