QFM.pdb
     RDKit          3D

 29 29  0  0  1  0  0  0  0  0999 V2000
    8.1632  -17.9990   17.1584 N   0  0  0  0  0  0  0  0  0  0  0  0
    9.0942  -19.0189   17.4607 C   0  0  0  0  0  0  0  0  0  0  0  0
    9.0335  -20.1016   16.8362 O   0  0  0  0  0  0  0  0  0  0  0  0
   10.1404  -18.8517   18.4917 C   0  0  0  0  0  0  0  0  0  0  0  0
   10.0648  -17.4915   19.1522 C   0  0  0  0  0  0  0  0  0  0  0  0
   10.3657  -17.6942   20.6187 C   0  0  2  0  0  0  0  0  0  0  0  0
    9.4003  -18.6496   21.1252 N   0  0  0  0  0  0  0  0  0  0  0  0
   10.2163  -16.4432   21.4001 C   0  0  0  0  0  0  0  0  0  0  0  0
   10.9730  -15.4747   21.2166 O   0  0  0  0  0  0  0  0  0  0  0  0
    9.1945  -16.3151   22.3897 N   0  0  0  0  0  0  0  0  0  0  0  0
    9.0961  -15.1395   23.2468 C   0  0  1  0  0  0  0  0  0  0  0  0
    7.5973  -14.8340   23.3475 C   0  0  0  0  0  0  0  0  0  0  0  0
    7.3293  -13.8189   24.3796 C   0  0  0  0  0  0  0  0  0  0  0  0
    6.6338  -14.1288   25.5345 C   0  0  0  0  0  0  0  0  0  0  0  0
    6.3864  -13.1619   26.5021 C   0  0  0  0  0  0  0  0  0  0  0  0
    6.8297  -11.8770   26.3281 C   0  0  0  0  0  0  0  0  0  0  0  0
    7.5159  -11.5553   25.1967 C   0  0  0  0  0  0  0  0  0  0  0  0
    7.7647  -12.5208   24.2273 C   0  0  0  0  0  0  0  0  0  0  0  0
    9.6812  -15.3782   24.5769 C   0  0  0  0  0  0  0  0  0  0  0  0
    9.5816  -14.5348   25.5324 O   0  0  0  0  0  0  0  0  0  0  0  0
   11.2696  -13.5549   28.9458 C   0  0  0  0  0  0  0  0  0  0  0  0
    9.8605  -14.6073   28.7120 S   0  0  0  0  0  0  0  0  0  0  0  0
   10.1702  -16.3382   28.4495 C   0  0  0  0  0  0  0  0  0  0  0  0
    9.7932  -16.8880   27.1243 C   0  0  0  0  0  0  0  0  0  0  0  0
   10.8594  -17.0165   26.1058 C   0  0  2  0  0  0  0  0  0  0  0  0
   10.3821  -16.5885   24.8103 N   0  0  0  0  0  0  0  0  0  0  0  0
   11.5312  -18.3140   26.0738 C   0  0  0  0  0  0  0  0  0  0  0  0
   12.4867  -18.5481   26.8429 O   0  0  0  0  0  0  0  0  0  0  0  0
   11.1466  -19.3262   25.2046 O   0  0  0  0  0  0  0  0  0  0  0  0
  2  3  2  0
  2  1  1  0
  4  2  1  0
  5  4  1  0
  5  6  1  0
  6  8  1  0
  6  7  1  1
  8  9  2  0
 10 11  1  0
 10  8  1  0
 11 12  1  1
 12 13  1  0
 13 18  2  0
 14 15  2  0
 14 13  1  0
 15 16  1  0
 16 17  2  0
 18 17  1  0
 19 20  2  0
 19 11  1  0
 21 22  1  0
 22 23  1  0
 23 24  1  0
 25 24  1  1
 25 27  1  0
 25 26  1  0
 26 19  1  0
 27 29  1  0
 28 27  2  0
M  END
$$$$
