QFM.pdb
     RDKit          3D

 29 29  0  0  1  0  0  0  0  0999 V2000
   10.9928  -18.1282   15.7091 N   0  0  0  0  0  0  0  0  0  0  0  0
    9.7812  -18.0609   16.4342 C   0  0  0  0  0  0  0  0  0  0  0  0
    8.7292  -17.7500   15.8322 O   0  0  0  0  0  0  0  0  0  0  0  0
    9.7123  -18.3457   17.8833 C   0  0  0  0  0  0  0  0  0  0  0  0
   10.5694  -17.3888   18.6844 C   0  0  0  0  0  0  0  0  0  0  0  0
   10.4086  -17.7626   20.1394 C   0  0  2  0  0  0  0  0  0  0  0  0
    9.2146  -18.5782   20.2419 N   0  0  0  0  0  0  0  0  0  0  0  0
   10.2205  -16.5748   21.0062 C   0  0  0  0  0  0  0  0  0  0  0  0
   11.0853  -15.6852   21.0768 O   0  0  0  0  0  0  0  0  0  0  0  0
    9.0353  -16.4184   21.7876 N   0  0  0  0  0  0  0  0  0  0  0  0
    8.9191  -15.3868   22.8118 C   0  0  1  0  0  0  0  0  0  0  0  0
    7.4503  -15.4122   23.2496 C   0  0  0  0  0  0  0  0  0  0  0  0
    7.1883  -14.4060   24.2920 C   0  0  0  0  0  0  0  0  0  0  0  0
    7.6337  -13.1024   24.1661 C   0  0  0  0  0  0  0  0  0  0  0  0
    7.3805  -12.1609   25.1570 C   0  0  0  0  0  0  0  0  0  0  0  0
    6.6811  -12.5094   26.2827 C   0  0  0  0  0  0  0  0  0  0  0  0
    6.2356  -13.7886   26.4221 C   0  0  0  0  0  0  0  0  0  0  0  0
    6.4876  -14.7324   25.4323 C   0  0  0  0  0  0  0  0  0  0  0  0
    9.8184  -15.6387   23.9505 C   0  0  0  0  0  0  0  0  0  0  0  0
   10.8760  -14.9505   24.1554 O   0  0  0  0  0  0  0  0  0  0  0  0
   10.9555  -13.4049   29.3366 C   0  0  0  0  0  0  0  0  0  0  0  0
    9.5861  -14.5295   29.4259 S   0  0  0  0  0  0  0  0  0  0  0  0
    9.7503  -16.0831   28.5773 C   0  0  0  0  0  0  0  0  0  0  0  0
    9.2413  -16.1375   27.1850 C   0  0  0  0  0  0  0  0  0  0  0  0
   10.0789  -16.8208   26.1740 C   0  0  2  0  0  0  0  0  0  0  0  0
    9.5022  -16.6832   24.8558 N   0  0  0  0  0  0  0  0  0  0  0  0
   10.4463  -18.1967   26.5026 C   0  0  0  0  0  0  0  0  0  0  0  0
   11.5684  -18.4504   26.9883 O   0  0  0  0  0  0  0  0  0  0  0  0
    9.5829  -19.2640   26.2945 O   0  0  0  0  0  0  0  0  0  0  0  0
  2  3  2  0
  2  1  1  0
  4  2  1  0
  5  4  1  0
  5  6  1  0
  6  8  1  0
  6  7  1  6
  8  9  2  0
 10 11  1  0
 10  8  1  0
 11 12  1  1
 12 13  1  0
 13 18  2  0
 14 15  2  0
 14 13  1  0
 15 16  1  0
 16 17  2  0
 18 17  1  0
 19 20  2  0
 19 11  1  0
 21 22  1  0
 22 23  1  0
 23 24  1  0
 25 24  1  1
 25 27  1  0
 25 26  1  0
 26 19  1  0
 27 29  1  0
 28 27  2  0
M  END
$$$$
