QFM.pdb
     RDKit          3D

 29 29  0  0  1  0  0  0  0  0999 V2000
   12.8385  -18.2449   17.3481 N   0  0  0  0  0  0  0  0  0  0  0  0
   11.7365  -19.1121   17.5270 C   0  0  0  0  0  0  0  0  0  0  0  0
   11.6336  -20.1226   16.7961 O   0  0  0  0  0  0  0  0  0  0  0  0
   10.6978  -18.8670   18.5501 C   0  0  0  0  0  0  0  0  0  0  0  0
   10.9965  -17.6279   19.3671 C   0  0  0  0  0  0  0  0  0  0  0  0
   10.6026  -17.9326   20.7934 C   0  0  2  0  0  0  0  0  0  0  0  0
    9.3162  -18.5993   20.7486 N   0  0  0  0  0  0  0  0  0  0  0  0
   10.4466  -16.7033   21.6071 C   0  0  0  0  0  0  0  0  0  0  0  0
   11.3523  -15.8549   21.6728 O   0  0  0  0  0  0  0  0  0  0  0  0
    9.2464  -16.4580   22.3412 N   0  0  0  0  0  0  0  0  0  0  0  0
    9.0873  -15.2793   23.1850 C   0  0  1  0  0  0  0  0  0  0  0  0
    7.5869  -15.1951   23.4873 C   0  0  0  0  0  0  0  0  0  0  0  0
    7.3004  -14.1350   24.4679 C   0  0  0  0  0  0  0  0  0  0  0  0
    7.6983  -12.8273   24.2553 C   0  0  0  0  0  0  0  0  0  0  0  0
    7.4223  -11.8346   25.1885 C   0  0  0  0  0  0  0  0  0  0  0  0
    6.7472  -12.1355   26.3423 C   0  0  0  0  0  0  0  0  0  0  0  0
    6.3484  -13.4180   26.5669 C   0  0  0  0  0  0  0  0  0  0  0  0
    6.6233  -14.4129   25.6350 C   0  0  0  0  0  0  0  0  0  0  0  0
    9.8753  -15.3805   24.4250 C   0  0  0  0  0  0  0  0  0  0  0  0
   10.5187  -14.3892   24.9124 O   0  0  0  0  0  0  0  0  0  0  0  0
   10.8749  -14.2559   30.0953 C   0  0  0  0  0  0  0  0  0  0  0  0
   10.2222  -13.5170   28.6203 S   0  0  0  0  0  0  0  0  0  0  0  0
   10.0358  -14.5656   27.1967 C   0  0  0  0  0  0  0  0  0  0  0  0
   10.1505  -16.0266   27.4271 C   0  0  0  0  0  0  0  0  0  0  0  0
   10.6745  -16.8571   26.3198 C   0  0  2  0  0  0  0  0  0  0  0  0
    9.9243  -16.6228   25.1067 N   0  0  0  0  0  0  0  0  0  0  0  0
   10.8367  -18.2754   26.6333 C   0  0  0  0  0  0  0  0  0  0  0  0
   11.5517  -18.6307   27.5934 O   0  0  0  0  0  0  0  0  0  0  0  0
   10.2162  -19.2734   25.8938 O   0  0  0  0  0  0  0  0  0  0  0  0
  2  3  2  0
  2  1  1  0
  4  2  1  0
  5  4  1  0
  5  6  1  0
  6  8  1  0
  6  7  1  6
  8  9  2  0
 10 11  1  0
 10  8  1  0
 11 12  1  1
 12 13  1  0
 13 18  2  0
 14 15  2  0
 14 13  1  0
 15 16  1  0
 16 17  2  0
 18 17  1  0
 19 20  2  0
 19 11  1  0
 21 22  1  0
 22 23  1  0
 23 24  1  0
 25 24  1  1
 25 27  1  0
 25 26  1  0
 26 19  1  0
 27 29  1  0
 28 27  2  0
M  END
$$$$
