QFM.pdb
     RDKit          3D

 29 29  0  0  1  0  0  0  0  0999 V2000
   13.3653  -17.5022   16.9783 N   0  0  0  0  0  0  0  0  0  0  0  0
   12.0233  -17.5688   16.5391 C   0  0  0  0  0  0  0  0  0  0  0  0
   11.7835  -17.9615   15.3755 O   0  0  0  0  0  0  0  0  0  0  0  0
   10.8891  -17.1896   17.4083 C   0  0  0  0  0  0  0  0  0  0  0  0
   11.3570  -16.4977   18.6711 C   0  0  0  0  0  0  0  0  0  0  0  0
   10.9035  -17.3473   19.8351 C   0  0  2  0  0  0  0  0  0  0  0  0
    9.6302  -17.9337   19.4661 N   0  0  0  0  0  0  0  0  0  0  0  0
   10.6931  -16.5470   21.0652 C   0  0  0  0  0  0  0  0  0  0  0  0
   11.5997  -15.8398   21.5366 O   0  0  0  0  0  0  0  0  0  0  0  0
    9.4377  -16.5661   21.7458 N   0  0  0  0  0  0  0  0  0  0  0  0
    9.2402  -15.8779   23.0162 C   0  0  1  0  0  0  0  0  0  0  0  0
    7.7849  -15.3968   22.9962 C   0  0  0  0  0  0  0  0  0  0  0  0
    7.4934  -14.5347   24.1534 C   0  0  0  0  0  0  0  0  0  0  0  0
    6.9135  -15.0402   25.3031 C   0  0  0  0  0  0  0  0  0  0  0  0
    6.6426  -14.2165   26.3897 C   0  0  0  0  0  0  0  0  0  0  0  0
    6.9470  -12.8814   26.3409 C   0  0  0  0  0  0  0  0  0  0  0  0
    7.5183  -12.3678   25.2165 C   0  0  0  0  0  0  0  0  0  0  0  0
    7.7903  -13.1897   24.1282 C   0  0  0  0  0  0  0  0  0  0  0  0
    9.4926  -16.7627   24.1660 C   0  0  0  0  0  0  0  0  0  0  0  0
    9.3557  -18.0319   24.0987 O   0  0  0  0  0  0  0  0  0  0  0  0
    9.5425  -12.0110   28.8703 C   0  0  0  0  0  0  0  0  0  0  0  0
   10.0367  -13.7048   29.0563 S   0  0  0  0  0  0  0  0  0  0  0  0
   10.3073  -14.6431   27.5706 C   0  0  0  0  0  0  0  0  0  0  0  0
   10.4788  -16.1078   27.7309 C   0  0  0  0  0  0  0  0  0  0  0  0
   10.4344  -16.9420   26.5091 C   0  0  2  0  0  0  0  0  0  0  0  0
    9.9034  -16.1886   25.3957 N   0  0  0  0  0  0  0  0  0  0  0  0
    9.8026  -18.2494   26.6752 C   0  0  0  0  0  0  0  0  0  0  0  0
   10.3397  -19.1229   27.3878 O   0  0  0  0  0  0  0  0  0  0  0  0
    8.6004  -18.5747   26.0613 O   0  0  0  0  0  0  0  0  0  0  0  0
  2  3  2  0
  2  1  1  0
  4  2  1  0
  5  4  1  0
  5  6  1  0
  6  8  1  0
  6  7  1  6
  8  9  2  0
 10 11  1  0
 10  8  1  0
 11 12  1  6
 12 13  1  0
 13 18  2  0
 14 15  2  0
 14 13  1  0
 15 16  1  0
 16 17  2  0
 18 17  1  0
 19 20  2  0
 19 11  1  0
 21 22  1  0
 22 23  1  0
 23 24  1  0
 25 24  1  1
 25 27  1  0
 25 26  1  0
 26 19  1  0
 27 29  1  0
 28 27  2  0
M  END
$$$$
