QFM.pdb
     RDKit          3D

 29 29  0  0  1  0  0  0  0  0999 V2000
   13.4839  -18.7715   18.1030 N   0  0  0  0  0  0  0  0  0  0  0  0
   12.5098  -19.7822   18.2699 C   0  0  0  0  0  0  0  0  0  0  0  0
   12.6177  -20.8440   17.6167 O   0  0  0  0  0  0  0  0  0  0  0  0
   11.3641  -19.6291   19.1917 C   0  0  0  0  0  0  0  0  0  0  0  0
   11.3890  -18.2913   19.9000 C   0  0  0  0  0  0  0  0  0  0  0  0
   10.2020  -18.2630   20.8342 C   0  0  2  0  0  0  0  0  0  0  0  0
    9.0161  -18.4624   20.0247 N   0  0  0  0  0  0  0  0  0  0  0  0
   10.0633  -16.9589   21.5256 C   0  0  0  0  0  0  0  0  0  0  0  0
   10.9148  -16.0640   21.3900 O   0  0  0  0  0  0  0  0  0  0  0  0
    8.9429  -16.6931   22.3703 N   0  0  0  0  0  0  0  0  0  0  0  0
    8.8196  -15.4458   23.1158 C   0  0  1  0  0  0  0  0  0  0  0  0
    7.3268  -15.3094   23.4363 C   0  0  0  0  0  0  0  0  0  0  0  0
    7.0816  -14.1928   24.3638 C   0  0  0  0  0  0  0  0  0  0  0  0
    7.4928  -12.9052   24.0693 C   0  0  0  0  0  0  0  0  0  0  0  0
    7.2558  -11.8586   24.9531 C   0  0  0  0  0  0  0  0  0  0  0  0
    6.6070  -12.0851   26.1385 C   0  0  0  0  0  0  0  0  0  0  0  0
    6.1957  -13.3468   26.4437 C   0  0  0  0  0  0  0  0  0  0  0  0
    6.4314  -14.3955   25.5614 C   0  0  0  0  0  0  0  0  0  0  0  0
    9.6292  -15.4582   24.3458 C   0  0  0  0  0  0  0  0  0  0  0  0
   10.0592  -14.3872   24.8956 O   0  0  0  0  0  0  0  0  0  0  0  0
   11.3965  -12.9370   28.4061 C   0  0  0  0  0  0  0  0  0  0  0  0
   10.8901  -14.3278   29.3844 S   0  0  0  0  0  0  0  0  0  0  0  0
   10.7231  -15.8911   28.5542 C   0  0  0  0  0  0  0  0  0  0  0  0
   10.1359  -15.8616   27.1923 C   0  0  0  0  0  0  0  0  0  0  0  0
   10.6354  -16.8475   26.2078 C   0  0  2  0  0  0  0  0  0  0  0  0
    9.9454  -16.7034   24.9459 N   0  0  0  0  0  0  0  0  0  0  0  0
   10.6840  -18.2281   26.6849 C   0  0  0  0  0  0  0  0  0  0  0  0
    9.7095  -18.9894   26.5114 O   0  0  0  0  0  0  0  0  0  0  0  0
   11.7929  -18.7471   27.3397 O   0  0  0  0  0  0  0  0  0  0  0  0
  2  3  2  0
  2  1  1  0
  4  2  1  0
  5  4  1  0
  5  6  1  0
  6  8  1  0
  6  7  1  6
  8  9  2  0
 10 11  1  0
 10  8  1  0
 11 12  1  1
 12 13  1  0
 13 18  2  0
 14 15  2  0
 14 13  1  0
 15 16  1  0
 16 17  2  0
 18 17  1  0
 19 20  2  0
 19 11  1  0
 21 22  1  0
 22 23  1  0
 23 24  1  0
 25 24  1  1
 25 27  1  0
 25 26  1  0
 26 19  1  0
 27 29  1  0
 28 27  2  0
M  END
$$$$
