TIA.pdb
     RDKit          3D

 21 20  0  0  1  0  0  0  0  0999 V2000
   15.3082   -4.0671  -14.4147 C   0  0  0  0  0  0  0  0  0  0  0  0
   15.9017   -2.9277  -13.6233 C   0  0  1  0  0  0  0  0  0  0  0  0
   15.2355   -1.7169  -13.8970 O   0  0  0  0  0  0  0  0  0  0  0  0
   15.7667   -3.2457  -12.1498 C   0  0  2  0  0  0  0  0  0  0  0  0
   16.2493   -2.1595  -11.3239 N   0  0  0  0  0  0  0  0  0  0  0  0
   16.4223   -4.5246  -11.7931 C   0  0  0  0  0  0  0  0  0  0  0  0
   17.6621   -4.5970  -11.6054 O   0  0  0  0  0  0  0  0  0  0  0  0
   14.9671   -7.2390   -7.6683 C   0  0  0  0  0  0  0  0  0  0  0  0
   15.7494   -6.7299   -8.8282 C   0  0  0  0  0  0  0  0  0  0  0  0
   15.7930   -7.6336  -10.0251 C   0  0  2  0  0  0  0  0  0  0  0  0
   16.4585   -8.9380   -9.6614 C   0  0  0  0  0  0  0  0  0  0  0  0
   16.3027   -6.9986  -11.2742 C   0  0  2  0  0  0  0  0  0  0  0  0
   15.6859   -5.7577  -11.6400 N   0  0  0  0  0  0  0  0  0  0  0  0
   16.3709   -7.9556  -12.4118 C   0  0  0  0  0  0  0  0  0  0  0  0
   15.2713   -8.3356  -12.8927 O   0  0  0  0  0  0  0  0  0  0  0  0
   18.9412   -9.3269  -14.7832 C   0  0  0  0  0  0  0  0  0  0  0  0
   17.5719   -9.2451  -14.1543 C   0  0  2  0  0  0  0  0  0  0  0  0
   17.5720   -8.4376  -12.9545 N   0  0  0  0  0  0  0  0  0  0  0  0
   17.0080  -10.5864  -13.8819 C   0  0  0  0  0  0  0  0  0  0  0  0
   16.2648  -11.3006  -14.8117 O   0  0  0  0  0  0  0  0  0  0  0  0
   17.1986  -11.1244  -12.7613 O   0  0  0  0  0  0  0  0  0  0  0  0
  2  1  1  6
  2  3  1  0
  2  4  1  0
  4  5  1  1
  6  4  1  0
  6  7  2  0
  9  8  1  0
 10  9  1  0
 10 11  1  1
 12 10  1  0
 12 13  1  6
 13  6  1  0
 14 12  1  0
 15 14  2  0
 17 16  1  1
 17 18  1  0
 18 14  1  0
 19 17  1  0
 19 20  1  0
 21 19  2  0
M  END
$$$$
