TIA.pdb
     RDKit          3D

 21 20  0  0  1  0  0  0  0  0999 V2000
   21.4888   -9.8809  -20.7106 C   0  0  0  0  0  0  0  0  0  0  0  0
   20.8926  -11.1898  -20.2545 C   0  0  1  0  0  0  0  0  0  0  0  0
   20.5471  -12.0017  -21.3528 O   0  0  0  0  0  0  0  0  0  0  0  0
   21.9158  -11.9132  -19.4058 C   0  0  2  0  0  0  0  0  0  0  0  0
   21.4916  -13.2611  -19.0929 N   0  0  0  0  0  0  0  0  0  0  0  0
   22.2562  -11.1579  -18.1784 C   0  0  0  0  0  0  0  0  0  0  0  0
   21.4496  -11.0643  -17.2202 O   0  0  0  0  0  0  0  0  0  0  0  0
   27.2430  -11.6223  -16.0253 C   0  0  0  0  0  0  0  0  0  0  0  0
   25.7934  -11.4348  -16.3082 C   0  0  0  0  0  0  0  0  0  0  0  0
   25.3270  -10.0104  -16.3754 C   0  0  2  0  0  0  0  0  0  0  0  0
   25.7130   -9.2820  -15.1116 C   0  0  0  0  0  0  0  0  0  0  0  0
   23.9057   -9.8330  -16.7898 C   0  0  2  0  0  0  0  0  0  0  0  0
   23.5240  -10.4878  -18.0064 N   0  0  0  0  0  0  0  0  0  0  0  0
   23.4759   -8.4087  -16.7528 C   0  0  0  0  0  0  0  0  0  0  0  0
   23.9379   -7.6592  -17.6526 O   0  0  0  0  0  0  0  0  0  0  0  0
   20.7541   -6.3315  -16.2143 C   0  0  0  0  0  0  0  0  0  0  0  0
   22.2041   -6.4928  -15.8289 C   0  0  2  0  0  0  0  0  0  0  0  0
   22.6043   -7.8820  -15.7872 N   0  0  0  0  0  0  0  0  0  0  0  0
   22.5130   -5.8210  -14.5466 C   0  0  0  0  0  0  0  0  0  0  0  0
   22.7239   -4.4532  -14.4378 O   0  0  0  0  0  0  0  0  0  0  0  0
   22.5933   -6.5017  -13.4922 O   0  0  0  0  0  0  0  0  0  0  0  0
  2  1  1  6
  2  3  1  0
  2  4  1  0
  4  5  1  1
  6  4  1  0
  6  7  2  0
  9  8  1  0
 10  9  1  0
 10 11  1  1
 12 10  1  0
 12 13  1  6
 13  6  1  0
 14 12  1  0
 15 14  2  0
 17 16  1  1
 17 18  1  0
 18 14  1  0
 19 17  1  0
 19 20  1  0
 21 19  2  0
M  END
$$$$
