TIA.pdb
     RDKit          3D

 21 20  0  0  1  0  0  0  0  0999 V2000
   18.4541   -7.6458  -18.6913 C   0  0  0  0  0  0  0  0  0  0  0  0
   17.4406   -8.7143  -18.3630 C   0  0  1  0  0  0  0  0  0  0  0  0
   16.7356   -9.1177  -19.5141 O   0  0  0  0  0  0  0  0  0  0  0  0
   18.1713   -9.9074  -17.7857 C   0  0  2  0  0  0  0  0  0  0  0  0
   17.2705  -11.0106  -17.5286 N   0  0  0  0  0  0  0  0  0  0  0  0
   18.9474   -9.5535  -16.5752 C   0  0  0  0  0  0  0  0  0  0  0  0
   18.3808   -9.2914  -15.4854 O   0  0  0  0  0  0  0  0  0  0  0  0
   23.0221  -12.2128  -14.4008 C   0  0  0  0  0  0  0  0  0  0  0  0
   21.8907  -11.2966  -14.7123 C   0  0  0  0  0  0  0  0  0  0  0  0
   22.2719   -9.8755  -15.0060 C   0  0  2  0  0  0  0  0  0  0  0  0
   23.0911   -9.3165  -13.8688 C   0  0  0  0  0  0  0  0  0  0  0  0
   21.1490   -9.0033  -15.4552 C   0  0  2  0  0  0  0  0  0  0  0  0
   20.3902   -9.4878  -16.5705 N   0  0  0  0  0  0  0  0  0  0  0  0
   21.5637   -7.5842  -15.6244 C   0  0  0  0  0  0  0  0  0  0  0  0
   22.0563   -7.2723  -16.7401 O   0  0  0  0  0  0  0  0  0  0  0  0
   20.9045   -4.4976  -15.7522 C   0  0  0  0  0  0  0  0  0  0  0  0
   21.8599   -5.2468  -14.8560 C   0  0  2  0  0  0  0  0  0  0  0  0
   21.4329   -6.6089  -14.6238 N   0  0  0  0  0  0  0  0  0  0  0  0
   22.0815   -4.5424  -13.5731 C   0  0  0  0  0  0  0  0  0  0  0  0
   22.7901   -3.3528  -13.4727 O   0  0  0  0  0  0  0  0  0  0  0  0
   21.6148   -5.0260  -12.5101 O   0  0  0  0  0  0  0  0  0  0  0  0
  2  1  1  6
  2  3  1  0
  2  4  1  0
  4  5  1  1
  6  4  1  0
  6  7  2  0
  9  8  1  0
 10  9  1  0
 10 11  1  1
 12 10  1  0
 12 13  1  6
 13  6  1  0
 14 12  1  0
 15 14  2  0
 17 16  1  1
 17 18  1  0
 18 14  1  0
 19 17  1  0
 19 20  1  0
 21 19  2  0
M  END
$$$$
