TIA.pdb
     RDKit          3D

 21 20  0  0  1  0  0  0  0  0999 V2000
   19.1585  -23.7538  -13.3446 C   0  0  0  0  0  0  0  0  0  0  0  0
   18.2679  -23.4252  -12.1718 C   0  0  1  0  0  0  0  0  0  0  0  0
   17.4789  -24.5335  -11.8058 O   0  0  0  0  0  0  0  0  0  0  0  0
   19.1423  -23.0309  -11.0011 C   0  0  2  0  0  0  0  0  0  0  0  0
   18.3590  -22.7906   -9.8080 N   0  0  0  0  0  0  0  0  0  0  0  0
   20.0089  -21.8727  -11.3177 C   0  0  0  0  0  0  0  0  0  0  0  0
   19.5588  -20.7002  -11.3312 O   0  0  0  0  0  0  0  0  0  0  0  0
   24.8310  -20.7465   -9.1970 C   0  0  0  0  0  0  0  0  0  0  0  0
   23.5112  -20.7365   -9.8857 C   0  0  0  0  0  0  0  0  0  0  0  0
   23.5631  -20.8104  -11.3834 C   0  0  2  0  0  0  0  0  0  0  0  0
   24.4536  -19.7180  -11.9223 C   0  0  0  0  0  0  0  0  0  0  0  0
   22.2360  -20.9227  -12.0538 C   0  0  2  0  0  0  0  0  0  0  0  0
   21.4122  -22.0156  -11.6279 N   0  0  0  0  0  0  0  0  0  0  0  0
   22.3379  -20.8325  -13.5357 C   0  0  0  0  0  0  0  0  0  0  0  0
   22.8370  -21.8262  -14.1257 O   0  0  0  0  0  0  0  0  0  0  0  0
   20.9874  -18.7684  -16.3402 C   0  0  0  0  0  0  0  0  0  0  0  0
   21.9743  -19.7302  -15.7253 C   0  0  2  0  0  0  0  0  0  0  0  0
   21.9143  -19.7210  -14.2803 N   0  0  0  0  0  0  0  0  0  0  0  0
   23.3559  -19.4784  -16.1930 C   0  0  0  0  0  0  0  0  0  0  0  0
   23.8808  -20.0413  -17.3483 O   0  0  0  0  0  0  0  0  0  0  0  0
   24.1086  -18.7216  -15.5279 O   0  0  0  0  0  0  0  0  0  0  0  0
  2  1  1  6
  2  3  1  0
  2  4  1  0
  4  5  1  1
  6  4  1  0
  6  7  2  0
  9  8  1  0
 10  9  1  0
 10 11  1  6
 12 10  1  0
 12 13  1  6
 13  6  1  0
 14 12  1  0
 15 14  2  0
 17 16  1  6
 17 18  1  0
 18 14  1  0
 19 17  1  0
 19 20  1  0
 21 19  2  0
M  END
$$$$
