TIA.pdb
     RDKit          3D

 21 20  0  0  1  0  0  0  0  0999 V2000
   19.9993   -9.6240  -20.7224 C   0  0  0  0  0  0  0  0  0  0  0  0
   19.4808  -10.9721  -20.2860 C   0  0  1  0  0  0  0  0  0  0  0  0
   19.6141  -11.9258  -21.3144 O   0  0  0  0  0  0  0  0  0  0  0  0
   20.2783  -11.4262  -19.0825 C   0  0  2  0  0  0  0  0  0  0  0  0
   19.9430  -12.7817  -18.7016 N   0  0  0  0  0  0  0  0  0  0  0  0
   20.1393  -10.4963  -17.9386 C   0  0  0  0  0  0  0  0  0  0  0  0
   19.1358  -10.5287  -17.1841 O   0  0  0  0  0  0  0  0  0  0  0  0
   23.7294  -10.3787  -14.2553 C   0  0  0  0  0  0  0  0  0  0  0  0
   22.4935  -10.2055  -15.0671 C   0  0  0  0  0  0  0  0  0  0  0  0
   22.1903   -8.7985  -15.4908 C   0  0  2  0  0  0  0  0  0  0  0  0
   22.0902   -7.9059  -14.2784 C   0  0  0  0  0  0  0  0  0  0  0  0
   21.0669   -8.6624  -16.4617 C   0  0  2  0  0  0  0  0  0  0  0  0
   21.1384   -9.5029  -17.6206 N   0  0  0  0  0  0  0  0  0  0  0  0
   20.7820   -7.2431  -16.8067 C   0  0  0  0  0  0  0  0  0  0  0  0
   21.6416   -6.6533  -17.5124 O   0  0  0  0  0  0  0  0  0  0  0  0
   18.0241   -5.1049  -17.5414 C   0  0  0  0  0  0  0  0  0  0  0  0
   19.3633   -5.2117  -16.8540 C   0  0  2  0  0  0  0  0  0  0  0  0
   19.6313   -6.5555  -16.3914 N   0  0  0  0  0  0  0  0  0  0  0  0
   19.4936   -4.2408  -15.7443 C   0  0  0  0  0  0  0  0  0  0  0  0
   19.7787   -2.8966  -15.9413 O   0  0  0  0  0  0  0  0  0  0  0  0
   19.3431   -4.6297  -14.5578 O   0  0  0  0  0  0  0  0  0  0  0  0
  2  1  1  6
  2  3  1  0
  2  4  1  0
  4  5  1  1
  6  4  1  0
  6  7  2  0
  9  8  1  0
 10  9  1  0
 10 11  1  1
 12 10  1  0
 12 13  1  6
 13  6  1  0
 14 12  1  0
 15 14  2  0
 17 16  1  1
 17 18  1  0
 18 14  1  0
 19 17  1  0
 19 20  1  0
 21 19  2  0
M  END
$$$$
