TIA.pdb
     RDKit          3D

 21 20  0  0  1  0  0  0  0  0999 V2000
   17.8756   -9.4452  -17.9033 C   0  0  0  0  0  0  0  0  0  0  0  0
   17.2011  -10.5417  -17.1163 C   0  0  1  0  0  0  0  0  0  0  0  0
   16.2446  -11.2162  -17.9004 O   0  0  0  0  0  0  0  0  0  0  0  0
   18.2571  -11.5277  -16.6654 C   0  0  2  0  0  0  0  0  0  0  0  0
   17.6664  -12.6947  -16.0457 N   0  0  0  0  0  0  0  0  0  0  0  0
   19.2640  -10.9000  -15.7795 C   0  0  0  0  0  0  0  0  0  0  0  0
   18.9795  -10.5480  -14.6080 O   0  0  0  0  0  0  0  0  0  0  0  0
   24.3624  -12.6615  -15.1974 C   0  0  0  0  0  0  0  0  0  0  0  0
   23.0135  -12.0396  -15.0964 C   0  0  0  0  0  0  0  0  0  0  0  0
   22.9582  -10.5668  -15.3773 C   0  0  2  0  0  0  0  0  0  0  0  0
   23.9540   -9.8390  -14.5081 C   0  0  0  0  0  0  0  0  0  0  0  0
   21.5879   -9.9791  -15.3847 C   0  0  2  0  0  0  0  0  0  0  0  0
   20.6234  -10.6550  -16.2016 N   0  0  0  0  0  0  0  0  0  0  0  0
   21.6004   -8.5096  -15.6195 C   0  0  0  0  0  0  0  0  0  0  0  0
   21.9701   -8.1263  -16.7601 O   0  0  0  0  0  0  0  0  0  0  0  0
   19.9365   -5.4917  -14.8809 C   0  0  0  0  0  0  0  0  0  0  0  0
   21.2950   -6.1462  -14.9394 C   0  0  2  0  0  0  0  0  0  0  0  0
   21.2290   -7.5623  -14.6530 N   0  0  0  0  0  0  0  0  0  0  0  0
   22.2693   -5.4773  -14.0481 C   0  0  0  0  0  0  0  0  0  0  0  0
   22.8853   -4.2739  -14.3638 O   0  0  0  0  0  0  0  0  0  0  0  0
   22.5688   -6.0060  -12.9470 O   0  0  0  0  0  0  0  0  0  0  0  0
  2  1  1  6
  2  3  1  0
  2  4  1  0
  4  5  1  1
  6  4  1  0
  6  7  2  0
  9  8  1  0
 10  9  1  0
 10 11  1  1
 12 10  1  0
 12 13  1  6
 13  6  1  0
 14 12  1  0
 15 14  2  0
 17 16  1  1
 17 18  1  0
 18 14  1  0
 19 17  1  0
 19 20  1  0
 21 19  2  0
M  END
$$$$
