SQI.pdb
     RDKit          3D

 24 23  0  0  1  0  0  0  0  0999 V2000
   24.3896  -14.0170  -15.4790 O   0  0  0  0  0  0  0  0  0  0  0  0
   24.0578  -12.6985  -15.7174 C   0  0  0  0  0  0  0  0  0  0  0  0
   22.8520  -12.6394  -16.6384 C   0  0  2  0  0  0  0  0  0  0  0  0
   23.1530  -13.1402  -17.9457 N   0  0  0  0  0  0  0  0  0  0  0  0
   22.3382  -11.2437  -16.7277 C   0  0  0  0  0  0  0  0  0  0  0  0
   22.8333  -10.4148  -17.5298 O   0  0  0  0  0  0  0  0  0  0  0  0
   17.3422  -12.7134  -15.7602 N   0  0  0  0  0  0  0  0  0  0  0  0
   17.4140  -11.3562  -15.3940 C   0  0  0  0  0  0  0  0  0  0  0  0
   16.7090  -10.8941  -14.4731 O   0  0  0  0  0  0  0  0  0  0  0  0
   18.3701  -10.4754  -16.1437 C   0  0  0  0  0  0  0  0  0  0  0  0
   19.2481   -9.6611  -15.2536 C   0  0  0  0  0  0  0  0  0  0  0  0
   20.6464   -9.5876  -15.8068 C   0  0  2  0  0  0  0  0  0  0  0  0
   21.2831  -10.8515  -15.9005 N   0  0  0  0  0  0  0  0  0  0  0  0
   21.4775   -8.5093  -15.2755 C   0  0  0  0  0  0  0  0  0  0  0  0
   22.2479   -8.8056  -14.3010 O   0  0  0  0  0  0  0  0  0  0  0  0
   24.8991   -6.1370  -18.1571 C   0  0  0  0  0  0  0  0  0  0  0  0
   24.0602   -6.6165  -17.0487 C   0  0  0  0  0  0  0  0  0  0  0  0
   23.1983   -5.6696  -16.3119 C   0  0  2  0  0  0  0  0  0  0  0  0
   23.9701   -4.3767  -16.0126 C   0  0  0  0  0  0  0  0  0  0  0  0
   22.3235   -6.0951  -15.2360 C   0  0  2  0  0  0  0  0  0  0  0  0
   21.4915   -7.1907  -15.7509 N   0  0  0  0  0  0  0  0  0  0  0  0
   21.5969   -5.1974  -14.3738 C   0  0  0  0  0  0  0  0  0  0  0  0
   22.1829   -4.8250  -13.2866 O   0  0  0  0  0  0  0  0  0  0  0  0
   20.3531   -4.6469  -14.5094 O   0  0  0  0  0  0  0  0  0  0  0  0
  2  1  1  0
  2  3  1  0
  3  4  1  6
  5  3  1  0
  5  6  2  0
  7  8  1  0
  8  9  2  0
 10 11  1  0
 10  8  1  0
 12 11  1  1
 12 13  1  0
 13  5  1  0
 14 12  1  0
 15 14  2  0
 17 18  1  0
 17 16  1  0
 18 20  1  0
 18 19  1  1
 20 21  1  6
 20 22  1  0
 21 14  1  0
 22 24  1  0
 23 22  2  0
M  END
$$$$
