SQI.pdb
     RDKit          3D

 24 23  0  0  1  0  0  0  0  0999 V2000
   28.4927  -18.5153  -16.8855 O   0  0  0  0  0  0  0  0  0  0  0  0
   27.4354  -19.1907  -16.3100 C   0  0  0  0  0  0  0  0  0  0  0  0
   27.9347  -20.4926  -15.7087 C   0  0  2  0  0  0  0  0  0  0  0  0
   28.3606  -21.4175  -16.7154 N   0  0  0  0  0  0  0  0  0  0  0  0
   26.8769  -21.1082  -14.8588 C   0  0  0  0  0  0  0  0  0  0  0  0
   26.0406  -21.9131  -15.3364 O   0  0  0  0  0  0  0  0  0  0  0  0
   26.5491  -20.2220   -8.4665 N   0  0  0  0  0  0  0  0  0  0  0  0
   25.3740  -20.9307   -8.7799 C   0  0  0  0  0  0  0  0  0  0  0  0
   24.6255  -21.3748   -7.8849 O   0  0  0  0  0  0  0  0  0  0  0  0
   25.0422  -21.1358  -10.2289 C   0  0  0  0  0  0  0  0  0  0  0  0
   26.1453  -20.7384  -11.1517 C   0  0  0  0  0  0  0  0  0  0  0  0
   25.7512  -20.9730  -12.5856 C   0  0  2  0  0  0  0  0  0  0  0  0
   26.8165  -20.7811  -13.5021 N   0  0  0  0  0  0  0  0  0  0  0  0
   24.4708  -20.3952  -12.9889 C   0  0  0  0  0  0  0  0  0  0  0  0
   24.4299  -19.1254  -13.1191 O   0  0  0  0  0  0  0  0  0  0  0  0
   22.7332  -20.5485  -17.4808 C   0  0  0  0  0  0  0  0  0  0  0  0
   22.8956  -20.2851  -16.0434 C   0  0  0  0  0  0  0  0  0  0  0  0
   21.8803  -20.7679  -15.0849 C   0  0  2  0  0  0  0  0  0  0  0  0
   20.4704  -20.5009  -15.6307 C   0  0  0  0  0  0  0  0  0  0  0  0
   22.0062  -20.5626  -13.6546 C   0  0  2  0  0  0  0  0  0  0  0  0
   23.2994  -21.1227  -13.2406 N   0  0  0  0  0  0  0  0  0  0  0  0
   20.9558  -20.8133  -12.7003 C   0  0  0  0  0  0  0  0  0  0  0  0
   20.9373  -21.9750  -12.1394 O   0  0  0  0  0  0  0  0  0  0  0  0
   19.9402  -20.0089  -12.2644 O   0  0  0  0  0  0  0  0  0  0  0  0
  2  1  1  0
  2  3  1  0
  3  4  1  6
  5  3  1  0
  5  6  2  0
  7  8  1  0
  8  9  2  0
 10 11  1  0
 10  8  1  0
 12 11  1  1
 12 13  1  0
 13  5  1  0
 14 12  1  0
 15 14  2  0
 17 18  1  0
 17 16  1  0
 18 20  1  0
 18 19  1  6
 20 21  1  1
 20 22  1  0
 21 14  1  0
 22 24  1  0
 23 22  2  0
M  END
$$$$
