SQI.pdb
     RDKit          3D

 24 23  0  0  1  0  0  0  0  0999 V2000
   26.7218  -19.2007  -16.8485 O   0  0  0  0  0  0  0  0  0  0  0  0
   27.8678  -19.4271  -16.1132 C   0  0  0  0  0  0  0  0  0  0  0  0
   27.9469  -20.8971  -15.7408 C   0  0  2  0  0  0  0  0  0  0  0  0
   28.0303  -21.7376  -16.8970 N   0  0  0  0  0  0  0  0  0  0  0  0
   26.7732  -21.2828  -14.9078 C   0  0  0  0  0  0  0  0  0  0  0  0
   25.8760  -22.0395  -15.3529 O   0  0  0  0  0  0  0  0  0  0  0  0
   26.5477  -20.2613   -8.5709 N   0  0  0  0  0  0  0  0  0  0  0  0
   25.2627  -20.7546   -8.8659 C   0  0  0  0  0  0  0  0  0  0  0  0
   24.4422  -21.0112   -7.9607 O   0  0  0  0  0  0  0  0  0  0  0  0
   24.9032  -20.9613  -10.3081 C   0  0  0  0  0  0  0  0  0  0  0  0
   26.0462  -20.7402  -11.2414 C   0  0  0  0  0  0  0  0  0  0  0  0
   25.6188  -20.9583  -12.6685 C   0  0  2  0  0  0  0  0  0  0  0  0
   26.6711  -20.7909  -13.6044 N   0  0  0  0  0  0  0  0  0  0  0  0
   24.3467  -20.3452  -13.0450 C   0  0  0  0  0  0  0  0  0  0  0  0
   24.3627  -19.0908  -13.2837 O   0  0  0  0  0  0  0  0  0  0  0  0
   20.6914  -19.8648  -17.2381 C   0  0  0  0  0  0  0  0  0  0  0  0
   20.7255  -19.7681  -15.7713 C   0  0  0  0  0  0  0  0  0  0  0  0
   21.7678  -20.4850  -15.0081 C   0  0  2  0  0  0  0  0  0  0  0  0
   21.9761  -21.8900  -15.5908 C   0  0  0  0  0  0  0  0  0  0  0  0
   21.8422  -20.4314  -13.5605 C   0  0  2  0  0  0  0  0  0  0  0  0
   23.1259  -21.0240  -13.1624 N   0  0  0  0  0  0  0  0  0  0  0  0
   20.7620  -20.7883  -12.6757 C   0  0  0  0  0  0  0  0  0  0  0  0
   20.8910  -21.8817  -12.0033 O   0  0  0  0  0  0  0  0  0  0  0  0
   19.5833  -20.1496  -12.4093 O   0  0  0  0  0  0  0  0  0  0  0  0
  2  1  1  0
  2  3  1  0
  3  4  1  6
  5  3  1  0
  5  6  2  0
  7  8  1  0
  8  9  2  0
 10 11  1  0
 10  8  1  0
 12 11  1  1
 12 13  1  0
 13  5  1  0
 14 12  1  0
 15 14  2  0
 17 18  1  0
 17 16  1  0
 18 20  1  0
 18 19  1  1
 20 21  1  1
 20 22  1  0
 21 14  1  0
 22 24  1  0
 23 22  2  0
M  END
$$$$
