SQI.pdb
     RDKit          3D

 24 23  0  0  1  0  0  0  0  0999 V2000
   15.3017  -11.3234  -12.9492 O   0  0  0  0  0  0  0  0  0  0  0  0
   16.3034  -11.5333  -12.0230 C   0  0  0  0  0  0  0  0  0  0  0  0
   15.8756  -10.9693  -10.6796 C   0  0  2  0  0  0  0  0  0  0  0  0
   14.6548  -11.5577  -10.2172 N   0  0  0  0  0  0  0  0  0  0  0  0
   15.7339   -9.4884  -10.7626 C   0  0  0  0  0  0  0  0  0  0  0  0
   14.6058   -8.9381  -10.7557 O   0  0  0  0  0  0  0  0  0  0  0  0
   15.0636   -5.1486   -7.7480 N   0  0  0  0  0  0  0  0  0  0  0  0
   15.7134   -4.3870   -8.7375 C   0  0  0  0  0  0  0  0  0  0  0  0
   15.7466   -3.1404   -8.6797 O   0  0  0  0  0  0  0  0  0  0  0  0
   16.3723   -5.1201   -9.8690 C   0  0  0  0  0  0  0  0  0  0  0  0
   16.1909   -6.5996   -9.8021 C   0  0  0  0  0  0  0  0  0  0  0  0
   16.9904   -7.2837  -10.8789 C   0  0  2  0  0  0  0  0  0  0  0  0
   16.8821   -8.6976  -10.8498 N   0  0  0  0  0  0  0  0  0  0  0  0
   18.3419   -6.7666  -11.0839 C   0  0  0  0  0  0  0  0  0  0  0  0
   19.1321   -6.8131  -10.0818 O   0  0  0  0  0  0  0  0  0  0  0  0
   21.3654   -9.5205  -13.5347 C   0  0  0  0  0  0  0  0  0  0  0  0
   20.7977   -8.4126  -12.7523 C   0  0  0  0  0  0  0  0  0  0  0  0
   20.7837   -7.0452  -13.3111 C   0  0  2  0  0  0  0  0  0  0  0  0
   22.1197   -6.7452  -14.0054 C   0  0  0  0  0  0  0  0  0  0  0  0
   20.2318   -5.9175  -12.5848 C   0  0  2  0  0  0  0  0  0  0  0  0
   18.8284   -6.2304  -12.2841 N   0  0  0  0  0  0  0  0  0  0  0  0
   20.4325   -4.5374  -12.9486 C   0  0  0  0  0  0  0  0  0  0  0  0
   19.5135   -3.9786  -13.6610 O   0  0  0  0  0  0  0  0  0  0  0  0
   21.4590   -3.6823  -12.6597 O   0  0  0  0  0  0  0  0  0  0  0  0
  2  1  1  0
  2  3  1  0
  3  4  1  6
  5  3  1  0
  5  6  2  0
  7  8  1  0
  8  9  2  0
 10 11  1  0
 10  8  1  0
 12 11  1  1
 12 13  1  0
 13  5  1  0
 14 12  1  0
 15 14  2  0
 17 18  1  0
 17 16  1  0
 18 20  1  0
 18 19  1  1
 20 21  1  6
 20 22  1  0
 21 14  1  0
 22 24  1  0
 23 22  2  0
M  END
$$$$
