SQI.pdb
     RDKit          3D

 24 23  0  0  1  0  0  0  0  0999 V2000
   24.9270  -16.2387  -18.3842 O   0  0  0  0  0  0  0  0  0  0  0  0
   24.5513  -14.9116  -18.3302 C   0  0  0  0  0  0  0  0  0  0  0  0
   23.2434  -14.7259  -19.0790 C   0  0  2  0  0  0  0  0  0  0  0  0
   23.3997  -14.9331  -20.4871 N   0  0  0  0  0  0  0  0  0  0  0  0
   22.6866  -13.3688  -18.8173 C   0  0  0  0  0  0  0  0  0  0  0  0
   22.9856  -12.3885  -19.5420 O   0  0  0  0  0  0  0  0  0  0  0  0
   17.2042  -12.1717  -15.9200 N   0  0  0  0  0  0  0  0  0  0  0  0
   17.8579  -10.9291  -15.8194 C   0  0  0  0  0  0  0  0  0  0  0  0
   17.2685   -9.9189  -15.3828 O   0  0  0  0  0  0  0  0  0  0  0  0
   19.2930  -10.8529  -16.2511 C   0  0  0  0  0  0  0  0  0  0  0  0
   19.8189  -12.1409  -16.7904 C   0  0  0  0  0  0  0  0  0  0  0  0
   21.2433  -11.9834  -17.2520 C   0  0  2  0  0  0  0  0  0  0  0  0
   21.8136  -13.1858  -17.7423 N   0  0  0  0  0  0  0  0  0  0  0  0
   22.1065  -11.1976  -16.3726 C   0  0  0  0  0  0  0  0  0  0  0  0
   22.7706  -11.8437  -15.4938 O   0  0  0  0  0  0  0  0  0  0  0  0
   26.7088  -10.6940  -15.5757 C   0  0  0  0  0  0  0  0  0  0  0  0
   25.3148  -10.3979  -15.2133 C   0  0  0  0  0  0  0  0  0  0  0  0
   24.5403   -9.4155  -15.9992 C   0  0  2  0  0  0  0  0  0  0  0  0
   25.4459   -8.2535  -16.4310 C   0  0  0  0  0  0  0  0  0  0  0  0
   23.1994   -9.0087  -15.6246 C   0  0  2  0  0  0  0  0  0  0  0  0
   22.2576   -9.8050  -16.4224 N   0  0  0  0  0  0  0  0  0  0  0  0
   22.7789   -7.6396  -15.4632 C   0  0  0  0  0  0  0  0  0  0  0  0
   23.4483   -6.9141  -14.6327 O   0  0  0  0  0  0  0  0  0  0  0  0
   21.7622   -6.9461  -16.0579 O   0  0  0  0  0  0  0  0  0  0  0  0
  2  1  1  0
  2  3  1  0
  3  4  1  6
  5  3  1  0
  5  6  2  0
  7  8  1  0
  8  9  2  0
 10 11  1  0
 10  8  1  0
 12 11  1  1
 12 13  1  0
 13  5  1  0
 14 12  1  0
 15 14  2  0
 17 18  1  0
 17 16  1  0
 18 20  1  0
 18 19  1  1
 20 21  1  6
 20 22  1  0
 21 14  1  0
 22 24  1  0
 23 22  2  0
M  END
$$$$
