MLQ.pdb
     RDKit          3D

 26 25  0  0  1  0  0  0  0  0999 V2000
    6.8910  -22.2668   28.2677 C   0  0  0  0  0  0  0  0  0  0  0  0
    5.8592  -20.8712   27.7948 S   0  0  0  0  0  0  0  0  0  0  0  0
    5.4144  -20.8167   26.0744 C   0  0  0  0  0  0  0  0  0  0  0  0
    5.7291  -19.5172   25.4106 C   0  0  0  0  0  0  0  0  0  0  0  0
    7.1006  -18.9932   25.6171 C   0  0  2  0  0  0  0  0  0  0  0  0
    7.4368  -18.7488   26.9900 N   0  0  0  0  0  0  0  0  0  0  0  0
    7.2592  -17.7187   24.8368 C   0  0  0  0  0  0  0  0  0  0  0  0
    6.9868  -17.8009   23.5965 O   0  0  0  0  0  0  0  0  0  0  0  0
    6.9820  -12.7024   27.1456 C   0  0  0  0  0  0  0  0  0  0  0  0
    6.7531  -13.6574   25.9718 C   0  0  1  0  0  0  0  0  0  0  0  0
    5.8084  -13.0602   24.9945 C   0  0  0  0  0  0  0  0  0  0  0  0
    8.0542  -14.1293   25.4504 C   0  0  0  0  0  0  0  0  0  0  0  0
    8.0530  -15.3648   24.6318 C   0  0  2  0  0  0  0  0  0  0  0  0
    7.6786  -16.5005   25.4270 N   0  0  0  0  0  0  0  0  0  0  0  0
    9.4288  -15.6534   24.0645 C   0  0  0  0  0  0  0  0  0  0  0  0
    9.8173  -15.1920   22.9652 O   0  0  0  0  0  0  0  0  0  0  0  0
   14.6239  -14.3942   22.6415 N   0  0  0  0  0  0  0  0  0  0  0  0
   13.5706  -14.7557   21.7767 C   0  0  0  0  0  0  0  0  0  0  0  0
   13.7073  -14.6033   20.5234 O   0  0  0  0  0  0  0  0  0  0  0  0
   12.3026  -15.3170   22.2671 C   0  0  0  0  0  0  0  0  0  0  0  0
   12.2910  -15.4462   23.7476 C   0  0  0  0  0  0  0  0  0  0  0  0
   11.7114  -16.7062   24.2385 C   0  0  2  0  0  0  0  0  0  0  0  0
   10.3479  -16.4705   24.7662 N   0  0  0  0  0  0  0  0  0  0  0  0
   12.4060  -17.5547   25.1773 C   0  0  0  0  0  0  0  0  0  0  0  0
   11.8314  -17.8520   26.2864 O   0  0  0  0  0  0  0  0  0  0  0  0
   13.6650  -18.1320   25.0433 O   0  0  0  0  0  0  0  0  0  0  0  0
  2  1  1  0
  3  2  1  0
  4  3  1  0
  4  5  1  0
  5  6  1  1
  7  5  1  0
  7  8  2  0
 10 11  1  6
 10  9  1  0
 12 10  1  0
 13 12  1  1
 13 14  1  0
 14  7  1  0
 15 13  1  0
 16 15  2  0
 17 18  1  0
 18 19  2  0
 20 18  1  0
 20 21  1  0
 22 21  1  1
 22 23  1  0
 23 15  1  0
 24 22  1  0
 25 24  2  0
 26 24  1  0
M  END
$$$$
