MLQ.pdb
     RDKit          3D

 26 25  0  0  1  0  0  0  0  0999 V2000
    7.7949  -20.2888   21.0640 C   0  0  0  0  0  0  0  0  0  0  0  0
    6.6792  -19.3664   19.9962 S   0  0  0  0  0  0  0  0  0  0  0  0
    6.9890  -17.6174   19.9204 C   0  0  0  0  0  0  0  0  0  0  0  0
    7.6120  -17.0607   21.1574 C   0  0  0  0  0  0  0  0  0  0  0  0
    7.7919  -15.5894   21.1932 C   0  0  2  0  0  0  0  0  0  0  0  0
    8.6176  -15.0716   20.1409 N   0  0  0  0  0  0  0  0  0  0  0  0
    8.3832  -15.2018   22.5193 C   0  0  0  0  0  0  0  0  0  0  0  0
    9.6533  -15.1293   22.5500 O   0  0  0  0  0  0  0  0  0  0  0  0
    5.7739  -12.1532   26.5865 C   0  0  0  0  0  0  0  0  0  0  0  0
    6.9019  -12.5855   25.6467 C   0  0  1  0  0  0  0  0  0  0  0  0
    8.0408  -11.6369   25.7336 C   0  0  0  0  0  0  0  0  0  0  0  0
    7.2012  -14.0193   25.8515 C   0  0  0  0  0  0  0  0  0  0  0  0
    8.1887  -14.6463   24.9414 C   0  0  2  0  0  0  0  0  0  0  0  0
    7.5948  -14.9292   23.6649 N   0  0  0  0  0  0  0  0  0  0  0  0
    8.6952  -15.9625   25.4976 C   0  0  0  0  0  0  0  0  0  0  0  0
    7.9440  -16.9470   25.6944 O   0  0  0  0  0  0  0  0  0  0  0  0
   12.6847  -18.6116   22.0281 N   0  0  0  0  0  0  0  0  0  0  0  0
   12.6525  -18.4829   23.4317 C   0  0  0  0  0  0  0  0  0  0  0  0
   13.6926  -18.7486   24.1102 O   0  0  0  0  0  0  0  0  0  0  0  0
   11.4521  -18.0409   24.1576 C   0  0  0  0  0  0  0  0  0  0  0  0
   11.7076  -17.9003   25.6149 C   0  0  0  0  0  0  0  0  0  0  0  0
   10.5520  -17.4158   26.3858 C   0  0  2  0  0  0  0  0  0  0  0  0
   10.0621  -16.1364   25.8233 N   0  0  0  0  0  0  0  0  0  0  0  0
   10.5924  -17.2781   27.8222 C   0  0  0  0  0  0  0  0  0  0  0  0
   10.9516  -18.2864   28.5314 O   0  0  0  0  0  0  0  0  0  0  0  0
   10.2926  -16.1536   28.5851 O   0  0  0  0  0  0  0  0  0  0  0  0
  2  1  1  0
  3  2  1  0
  4  3  1  0
  4  5  1  0
  5  6  1  6
  7  5  1  0
  7  8  2  0
 10 11  1  1
 10  9  1  0
 12 10  1  0
 13 12  1  1
 13 14  1  0
 14  7  1  0
 15 13  1  0
 16 15  2  0
 17 18  1  0
 18 19  2  0
 20 18  1  0
 20 21  1  0
 22 21  1  6
 22 23  1  0
 23 15  1  0
 24 22  1  0
 25 24  2  0
 26 24  1  0
M  END
$$$$
