MLQ.pdb
     RDKit          3D

 26 25  0  0  1  0  0  0  0  0999 V2000
    8.8126  -12.0448   18.3464 C   0  0  0  0  0  0  0  0  0  0  0  0
    7.7918  -13.4642   17.9231 S   0  0  0  0  0  0  0  0  0  0  0  0
    7.8692  -14.8142   19.0772 C   0  0  0  0  0  0  0  0  0  0  0  0
    8.6286  -14.5000   20.3234 C   0  0  0  0  0  0  0  0  0  0  0  0
    8.6218  -15.5461   21.3741 C   0  0  2  0  0  0  0  0  0  0  0  0
    7.4139  -16.3178   21.4284 N   0  0  0  0  0  0  0  0  0  0  0  0
    8.8528  -14.8980   22.7101 C   0  0  0  0  0  0  0  0  0  0  0  0
   10.0155  -14.4121   22.8870 O   0  0  0  0  0  0  0  0  0  0  0  0
    7.8244  -11.4730   26.4923 C   0  0  0  0  0  0  0  0  0  0  0  0
    6.8669  -12.6585   26.6337 C   0  0  1  0  0  0  0  0  0  0  0  0
    5.5695  -12.2119   27.2007 C   0  0  0  0  0  0  0  0  0  0  0  0
    6.8229  -13.4194   25.3663 C   0  0  0  0  0  0  0  0  0  0  0  0
    8.0665  -14.1024   24.9376 C   0  0  2  0  0  0  0  0  0  0  0  0
    7.8544  -14.8218   23.7130 N   0  0  0  0  0  0  0  0  0  0  0  0
    8.5278  -15.1107   25.9713 C   0  0  0  0  0  0  0  0  0  0  0  0
    8.7482  -14.8012   27.1662 O   0  0  0  0  0  0  0  0  0  0  0  0
    6.0310  -20.5584   26.5564 N   0  0  0  0  0  0  0  0  0  0  0  0
    7.0246  -20.5965   27.5561 C   0  0  0  0  0  0  0  0  0  0  0  0
    7.0205  -21.5371   28.4093 O   0  0  0  0  0  0  0  0  0  0  0  0
    8.0871  -19.5841   27.6535 C   0  0  0  0  0  0  0  0  0  0  0  0
    7.9465  -18.5330   26.6123 C   0  0  0  0  0  0  0  0  0  0  0  0
    8.9828  -17.4900   26.6645 C   0  0  2  0  0  0  0  0  0  0  0  0
    8.7324  -16.4676   25.6227 N   0  0  0  0  0  0  0  0  0  0  0  0
   10.3909  -17.8070   26.6404 C   0  0  0  0  0  0  0  0  0  0  0  0
   10.9427  -18.2583   27.7084 O   0  0  0  0  0  0  0  0  0  0  0  0
   11.2769  -17.6975   25.5730 O   0  0  0  0  0  0  0  0  0  0  0  0
  2  1  1  0
  3  2  1  0
  4  3  1  0
  4  5  1  0
  5  6  1  1
  7  5  1  0
  7  8  2  0
 10 11  1  6
 10  9  1  0
 12 10  1  0
 13 12  1  1
 13 14  1  0
 14  7  1  0
 15 13  1  0
 16 15  2  0
 17 18  1  0
 18 19  2  0
 20 18  1  0
 20 21  1  0
 22 21  1  6
 22 23  1  0
 23 15  1  0
 24 22  1  0
 25 24  2  0
 26 24  1  0
M  END
$$$$
