MLQ.pdb
     RDKit          3D

 26 25  0  0  1  0  0  0  0  0999 V2000
   10.2901  -13.8708   30.1839 C   0  0  0  0  0  0  0  0  0  0  0  0
   11.1185  -15.4214   29.8028 S   0  0  0  0  0  0  0  0  0  0  0  0
   10.0635  -16.6941   29.1489 C   0  0  0  0  0  0  0  0  0  0  0  0
    9.5642  -16.4147   27.7701 C   0  0  0  0  0  0  0  0  0  0  0  0
    8.5726  -17.3741   27.2272 C   0  0  2  0  0  0  0  0  0  0  0  0
    9.0647  -18.7143   27.0895 N   0  0  0  0  0  0  0  0  0  0  0  0
    8.1001  -16.8828   25.8879 C   0  0  0  0  0  0  0  0  0  0  0  0
    7.9179  -17.7849   25.0092 O   0  0  0  0  0  0  0  0  0  0  0  0
    7.1655  -11.5050   25.6525 C   0  0  0  0  0  0  0  0  0  0  0  0
    6.8729  -13.0004   25.7947 C   0  0  1  0  0  0  0  0  0  0  0  0
    5.6664  -13.2149   26.6330 C   0  0  0  0  0  0  0  0  0  0  0  0
    6.8912  -13.6422   24.4623 C   0  0  0  0  0  0  0  0  0  0  0  0
    7.2005  -15.0906   24.4075 C   0  0  2  0  0  0  0  0  0  0  0  0
    7.8658  -15.5135   25.6078 N   0  0  0  0  0  0  0  0  0  0  0  0
    8.1236  -15.4152   23.2496 C   0  0  0  0  0  0  0  0  0  0  0  0
    7.7302  -15.4459   22.0595 O   0  0  0  0  0  0  0  0  0  0  0  0
   10.4589  -12.8887   19.1570 N   0  0  0  0  0  0  0  0  0  0  0  0
    9.7728  -14.1160   19.0522 C   0  0  0  0  0  0  0  0  0  0  0  0
    8.9061  -14.2742   18.1375 O   0  0  0  0  0  0  0  0  0  0  0  0
   10.0239  -15.2424   19.9641 C   0  0  0  0  0  0  0  0  0  0  0  0
   10.2481  -14.7842   21.3600 C   0  0  0  0  0  0  0  0  0  0  0  0
   10.4247  -15.8748   22.3316 C   0  0  2  0  0  0  0  0  0  0  0  0
    9.4926  -15.7020   23.4695 N   0  0  0  0  0  0  0  0  0  0  0  0
   11.7188  -16.2183   22.8712 C   0  0  0  0  0  0  0  0  0  0  0  0
   12.6329  -15.3175   22.9097 O   0  0  0  0  0  0  0  0  0  0  0  0
   12.1355  -17.4409   23.3887 O   0  0  0  0  0  0  0  0  0  0  0  0
  2  1  1  0
  3  2  1  0
  4  3  1  0
  4  5  1  0
  5  6  1  6
  7  5  1  0
  7  8  2  0
 10 11  1  6
 10  9  1  0
 12 10  1  0
 13 12  1  1
 13 14  1  0
 14  7  1  0
 15 13  1  0
 16 15  2  0
 17 18  1  0
 18 19  2  0
 20 18  1  0
 20 21  1  0
 22 21  1  1
 22 23  1  0
 23 15  1  0
 24 22  1  0
 25 24  2  0
 26 24  1  0
M  END
$$$$
