MLQ.pdb
     RDKit          3D

 26 25  0  0  1  0  0  0  0  0999 V2000
    8.5447  -11.5972   19.0180 C   0  0  0  0  0  0  0  0  0  0  0  0
    7.6811  -13.0151   18.3255 S   0  0  0  0  0  0  0  0  0  0  0  0
    7.5520  -14.4174   19.4105 C   0  0  0  0  0  0  0  0  0  0  0  0
    8.7871  -14.6803   20.2065 C   0  0  0  0  0  0  0  0  0  0  0  0
    8.7255  -15.8220   21.1505 C   0  0  2  0  0  0  0  0  0  0  0  0
    7.4731  -16.5211   21.1477 N   0  0  0  0  0  0  0  0  0  0  0  0
    9.0081  -15.3230   22.5396 C   0  0  0  0  0  0  0  0  0  0  0  0
   10.1906  -14.8959   22.7358 O   0  0  0  0  0  0  0  0  0  0  0  0
    8.4724  -12.4581   26.7885 C   0  0  0  0  0  0  0  0  0  0  0  0
    7.3397  -13.4873   26.7871 C   0  0  1  0  0  0  0  0  0  0  0  0
    6.1230  -12.9197   27.4210 C   0  0  0  0  0  0  0  0  0  0  0  0
    7.1889  -14.0627   25.4331 C   0  0  0  0  0  0  0  0  0  0  0  0
    8.3323  -14.8323   24.8881 C   0  0  2  0  0  0  0  0  0  0  0  0
    8.0350  -15.3183   23.5699 N   0  0  0  0  0  0  0  0  0  0  0  0
    8.6447  -16.0413   25.7477 C   0  0  0  0  0  0  0  0  0  0  0  0
    7.7950  -16.9273   26.0026 O   0  0  0  0  0  0  0  0  0  0  0  0
   13.1907  -18.0832   24.0858 N   0  0  0  0  0  0  0  0  0  0  0  0
   11.9039  -18.5980   23.8271 C   0  0  0  0  0  0  0  0  0  0  0  0
   11.6059  -18.9819   22.6538 O   0  0  0  0  0  0  0  0  0  0  0  0
   10.8763  -18.7196   24.8723 C   0  0  0  0  0  0  0  0  0  0  0  0
   11.3471  -18.1828   26.1757 C   0  0  0  0  0  0  0  0  0  0  0  0
   10.3055  -17.4992   26.9581 C   0  0  2  0  0  0  0  0  0  0  0  0
    9.9326  -16.2221   26.3076 N   0  0  0  0  0  0  0  0  0  0  0  0
   10.4508  -17.2468   28.3721 C   0  0  0  0  0  0  0  0  0  0  0  0
   10.7729  -18.2200   29.1452 O   0  0  0  0  0  0  0  0  0  0  0  0
   10.2935  -16.0413   29.0490 O   0  0  0  0  0  0  0  0  0  0  0  0
  2  1  1  0
  3  2  1  0
  4  3  1  0
  4  5  1  0
  5  6  1  1
  7  5  1  0
  7  8  2  0
 10 11  1  6
 10  9  1  0
 12 10  1  0
 13 12  1  1
 13 14  1  0
 14  7  1  0
 15 13  1  0
 16 15  2  0
 17 18  1  0
 18 19  2  0
 20 18  1  0
 20 21  1  0
 22 21  1  6
 22 23  1  0
 23 15  1  0
 24 22  1  0
 25 24  2  0
 26 24  1  0
M  END
$$$$
