MLQ.pdb
     RDKit          3D

 26 25  0  0  1  0  0  0  0  0999 V2000
    0.9004  -19.4242   22.1968 C   0  0  0  0  0  0  0  0  0  0  0  0
    2.4600  -18.5285   22.1608 S   0  0  0  0  0  0  0  0  0  0  0  0
    3.8984  -19.5135   22.5090 C   0  0  0  0  0  0  0  0  0  0  0  0
    5.1818  -18.7548   22.4347 C   0  0  0  0  0  0  0  0  0  0  0  0
    5.5664  -18.2508   21.0943 C   0  0  2  0  0  0  0  0  0  0  0  0
    5.6973  -19.2729   20.0966 N   0  0  0  0  0  0  0  0  0  0  0  0
    6.8655  -17.5038   21.2077 C   0  0  0  0  0  0  0  0  0  0  0  0
    7.9150  -18.2137   21.0904 O   0  0  0  0  0  0  0  0  0  0  0  0
    7.5837  -14.2726   19.0757 C   0  0  0  0  0  0  0  0  0  0  0  0
    8.1086  -13.3178   20.1505 C   0  0  1  0  0  0  0  0  0  0  0  0
    7.5017  -11.9725   19.9895 C   0  0  0  0  0  0  0  0  0  0  0  0
    7.9970  -13.9533   21.4812 C   0  0  0  0  0  0  0  0  0  0  0  0
    8.1901  -15.4209   21.5543 C   0  0  2  0  0  0  0  0  0  0  0  0
    6.9341  -16.1053   21.4263 N   0  0  0  0  0  0  0  0  0  0  0  0
    8.7880  -15.8342   22.8846 C   0  0  0  0  0  0  0  0  0  0  0  0
    8.0940  -16.2828   23.8276 O   0  0  0  0  0  0  0  0  0  0  0  0
   10.1306  -20.6196   22.1844 N   0  0  0  0  0  0  0  0  0  0  0  0
   11.0643  -20.5066   23.2349 C   0  0  0  0  0  0  0  0  0  0  0  0
   11.6957  -21.5365   23.6266 O   0  0  0  0  0  0  0  0  0  0  0  0
   11.3504  -19.2285   23.9042 C   0  0  0  0  0  0  0  0  0  0  0  0
   10.5631  -18.1108   23.3214 C   0  0  0  0  0  0  0  0  0  0  0  0
   10.9078  -16.7856   23.8594 C   0  0  2  0  0  0  0  0  0  0  0  0
   10.1802  -15.7285   23.1202 N   0  0  0  0  0  0  0  0  0  0  0  0
   12.2766  -16.3530   24.0123 C   0  0  0  0  0  0  0  0  0  0  0  0
   12.8534  -15.7631   23.0285 O   0  0  0  0  0  0  0  0  0  0  0  0
   13.0972  -16.4811   25.1287 O   0  0  0  0  0  0  0  0  0  0  0  0
  2  1  1  0
  3  2  1  0
  4  3  1  0
  4  5  1  0
  5  6  1  6
  7  5  1  0
  7  8  2  0
 10 11  1  1
 10  9  1  0
 12 10  1  0
 13 12  1  1
 13 14  1  0
 14  7  1  0
 15 13  1  0
 16 15  2  0
 17 18  1  0
 18 19  2  0
 20 18  1  0
 20 21  1  0
 22 21  1  6
 22 23  1  0
 23 15  1  0
 24 22  1  0
 25 24  2  0
 26 24  1  0
M  END
$$$$
