MLQ.pdb
     RDKit          3D

 26 25  0  0  1  0  0  0  0  0999 V2000
   -1.0639-5297.2393 1682.5846 C   0  0  0  0  0  0  0  0  0  0  0  0
    0.4199-5296.4258 1683.2001 S   0  0  0  0  0  0  0  0  0  0  0  0
    1.9487-5297.1226 1682.6165 C   0  0  0  0  0  0  0  0  0  0  0  0
    1.8720-5297.6709 1681.2285 C   0  0  0  0  0  0  0  0  0  0  0  0
    2.8857-5298.6904 1680.8744 C   0  0  2  0  0  0  0  0  0  0  0  0
    3.2320-5299.5737 1681.9500 N   0  0  0  0  0  0  0  0  0  0  0  0
    4.1280-5298.0000 1680.3861 C   0  0  0  0  0  0  0  0  0  0  0  0
    3.9607-5297.2139 1679.3987 O   0  0  0  0  0  0  0  0  0  0  0  0
    7.1526-5299.7319 1683.2942 C   0  0  0  0  0  0  0  0  0  0  0  0
    7.7850-5298.6157 1682.4590 C   0  0  1  0  0  0  0  0  0  0  0  0
    9.1348-5298.2798 1682.9792 C   0  0  0  0  0  0  0  0  0  0  0  0
    7.6808-5298.9492 1681.0205 C   0  0  0  0  0  0  0  0  0  0  0  0
    6.3227-5299.1763 1680.4722 C   0  0  2  0  0  0  0  0  0  0  0  0
    5.4020-5298.1948 1680.9740 N   0  0  0  0  0  0  0  0  0  0  0  0
    5.7855-5300.5371 1680.8717 C   0  0  0  0  0  0  0  0  0  0  0  0
    6.4642-5301.3677 1681.5194 O   0  0  0  0  0  0  0  0  0  0  0  0
    3.2336-5295.4736 1681.2389 N   0  0  0  0  0  0  0  0  0  0  0  0
    3.8576-5296.6440 1681.7231 C   0  0  0  0  0  0  0  0  0  0  0  0
    4.9087-5296.5513 1682.4271 O   0  0  0  0  0  0  0  0  0  0  0  0
    3.3376-5297.9912 1681.4447 C   0  0  0  0  0  0  0  0  0  0  0  0
    3.9545-5298.5835 1680.2307 C   0  0  0  0  0  0  0  0  0  0  0  0
    3.5188-5299.9551 1679.9391 C   0  0  2  0  0  0  0  0  0  0  0  0
    4.4715-5300.9321 1680.5214 N   0  0  0  0  0  0  0  0  0  0  0  0
    3.2049-5300.3921 1678.6011 C   0  0  0  0  0  0  0  0  0  0  0  0
    4.0217-5300.1172 1677.6500 O   0  0  0  0  0  0  0  0  0  0  0  0
    2.0968-5301.1182 1678.1715 O   0  0  0  0  0  0  0  0  0  0  0  0
  2  1  1  0
  3  2  1  0
  4  3  1  0
  4  5  1  0
  5  6  1  1
  7  5  1  0
  7  8  2  0
 10 11  1  1
 10  9  1  0
 12 10  1  0
 13 12  1  1
 13 14  1  0
 14  7  1  0
 15 13  1  0
 16 15  2  0
 17 18  1  0
 18 19  2  0
 20 18  1  0
 20 21  1  0
 22 21  1  6
 22 23  1  0
 23 15  1  0
 24 22  1  0
 25 24  2  0
 26 24  1  0
M  END
$$$$
