MLQ.pdb
     RDKit          3D

 26 25  0  0  1  0  0  0  0  0999 V2000
    8.1380  -11.3330   19.2003 C   0  0  0  0  0  0  0  0  0  0  0  0
    7.6537  -12.7555   18.2115 S   0  0  0  0  0  0  0  0  0  0  0  0
    8.0226  -14.3350   18.9392 C   0  0  0  0  0  0  0  0  0  0  0  0
    8.5970  -14.2466   20.3142 C   0  0  0  0  0  0  0  0  0  0  0  0
    8.7271  -15.5264   21.0516 C   0  0  2  0  0  0  0  0  0  0  0  0
    7.5877  -16.3900   20.9373 N   0  0  0  0  0  0  0  0  0  0  0  0
    8.9770  -15.2302   22.5036 C   0  0  0  0  0  0  0  0  0  0  0  0
   10.1973  -15.2547   22.8632 O   0  0  0  0  0  0  0  0  0  0  0  0
    8.5116  -12.2458   26.8446 C   0  0  0  0  0  0  0  0  0  0  0  0
    7.2818  -13.1385   26.6629 C   0  0  1  0  0  0  0  0  0  0  0  0
    6.0810  -12.4919   27.2496 C   0  0  0  0  0  0  0  0  0  0  0  0
    7.1893  -13.5813   25.2548 C   0  0  0  0  0  0  0  0  0  0  0  0
    8.2114  -14.5404   24.7732 C   0  0  2  0  0  0  0  0  0  0  0  0
    7.9370  -14.9385   23.4210 N   0  0  0  0  0  0  0  0  0  0  0  0
    8.2253  -15.8018   25.6139 C   0  0  0  0  0  0  0  0  0  0  0  0
    7.3099  -16.6572   25.5646 O   0  0  0  0  0  0  0  0  0  0  0  0
   10.3151  -19.3878   22.9965 N   0  0  0  0  0  0  0  0  0  0  0  0
   11.3571  -19.5999   23.9224 C   0  0  0  0  0  0  0  0  0  0  0  0
   12.2918  -20.4120   23.6400 O   0  0  0  0  0  0  0  0  0  0  0  0
   11.4160  -18.9072   25.2185 C   0  0  0  0  0  0  0  0  0  0  0  0
   10.5693  -17.6859   25.2317 C   0  0  0  0  0  0  0  0  0  0  0  0
    9.9433  -17.4000   26.5320 C   0  0  2  0  0  0  0  0  0  0  0  0
    9.2925  -16.0700   26.5050 N   0  0  0  0  0  0  0  0  0  0  0  0
   10.6720  -17.5081   27.7736 C   0  0  0  0  0  0  0  0  0  0  0  0
   11.0090  -16.4333   28.3897 O   0  0  0  0  0  0  0  0  0  0  0  0
   11.0728  -18.6648   28.4352 O   0  0  0  0  0  0  0  0  0  0  0  0
  2  1  1  0
  3  2  1  0
  4  3  1  0
  4  5  1  0
  5  6  1  1
  7  5  1  0
  7  8  2  0
 10 11  1  6
 10  9  1  0
 12 10  1  0
 13 12  1  1
 13 14  1  0
 14  7  1  0
 15 13  1  0
 16 15  2  0
 17 18  1  0
 18 19  2  0
 20 18  1  0
 20 21  1  0
 22 21  1  6
 22 23  1  0
 23 15  1  0
 24 22  1  0
 25 24  2  0
 26 24  1  0
M  END
$$$$
