MLQ.pdb
     RDKit          3D

 26 25  0  0  1  0  0  0  0  0999 V2000
    7.8090  -11.1669   19.8673 C   0  0  0  0  0  0  0  0  0  0  0  0
    7.6345  -12.6245   18.8278 S   0  0  0  0  0  0  0  0  0  0  0  0
    7.6149  -14.1717   19.7032 C   0  0  0  0  0  0  0  0  0  0  0  0
    8.5846  -14.2364   20.8363 C   0  0  0  0  0  0  0  0  0  0  0  0
    8.6715  -15.5337   21.5488 C   0  0  2  0  0  0  0  0  0  0  0  0
    7.5106  -16.3636   21.4041 N   0  0  0  0  0  0  0  0  0  0  0  0
    8.9121  -15.2737   23.0093 C   0  0  0  0  0  0  0  0  0  0  0  0
   10.0908  -14.9003   23.3099 O   0  0  0  0  0  0  0  0  0  0  0  0
    5.5798  -12.6205   26.3072 C   0  0  0  0  0  0  0  0  0  0  0  0
    6.9344  -13.1105   25.7902 C   0  0  1  0  0  0  0  0  0  0  0  0
    8.0214  -12.2102   26.2511 C   0  0  0  0  0  0  0  0  0  0  0  0
    7.0866  -14.5534   26.0767 C   0  0  0  0  0  0  0  0  0  0  0  0
    8.1893  -15.2713   25.3948 C   0  0  2  0  0  0  0  0  0  0  0  0
    7.9058  -15.4258   23.9954 N   0  0  0  0  0  0  0  0  0  0  0  0
    8.3798  -16.6625   25.9660 C   0  0  0  0  0  0  0  0  0  0  0  0
    7.5507  -17.5860   25.7872 O   0  0  0  0  0  0  0  0  0  0  0  0
   11.0927  -18.6646   22.3107 N   0  0  0  0  0  0  0  0  0  0  0  0
   11.5636  -19.6430   23.2100 C   0  0  0  0  0  0  0  0  0  0  0  0
   12.1954  -20.6512   22.7659 O   0  0  0  0  0  0  0  0  0  0  0  0
   11.3597  -19.5446   24.6633 C   0  0  0  0  0  0  0  0  0  0  0  0
   10.5542  -18.3504   25.0289 C   0  0  0  0  0  0  0  0  0  0  0  0
   10.3010  -18.2124   26.4716 C   0  0  2  0  0  0  0  0  0  0  0  0
    9.5226  -16.9811   26.7388 N   0  0  0  0  0  0  0  0  0  0  0  0
   11.3637  -18.2812   27.4462 C   0  0  0  0  0  0  0  0  0  0  0  0
   11.6314  -19.4121   27.9921 O   0  0  0  0  0  0  0  0  0  0  0  0
   12.1854  -17.2513   27.8939 O   0  0  0  0  0  0  0  0  0  0  0  0
  2  1  1  0
  3  2  1  0
  4  3  1  0
  4  5  1  0
  5  6  1  1
  7  5  1  0
  7  8  2  0
 10 11  1  1
 10  9  1  0
 12 10  1  0
 13 12  1  1
 13 14  1  0
 14  7  1  0
 15 13  1  0
 16 15  2  0
 17 18  1  0
 18 19  2  0
 20 18  1  0
 20 21  1  0
 22 21  1  6
 22 23  1  0
 23 15  1  0
 24 22  1  0
 25 24  2  0
 26 24  1  0
M  END
$$$$
