MLQ.pdb
     RDKit          3D

 26 25  0  0  1  0  0  0  0  0999 V2000
    6.2340  -19.5127   21.0000 C   0  0  0  0  0  0  0  0  0  0  0  0
    6.0963  -18.5410   19.4925 S   0  0  0  0  0  0  0  0  0  0  0  0
    6.7737  -16.9005   19.5935 C   0  0  0  0  0  0  0  0  0  0  0  0
    6.6217  -16.2664   20.9364 C   0  0  0  0  0  0  0  0  0  0  0  0
    7.1123  -14.8727   21.0603 C   0  0  2  0  0  0  0  0  0  0  0  0
    8.0112  -14.4703   20.0175 N   0  0  0  0  0  0  0  0  0  0  0  0
    7.7956  -14.7118   22.3890 C   0  0  0  0  0  0  0  0  0  0  0  0
    9.0581  -14.8699   22.3759 O   0  0  0  0  0  0  0  0  0  0  0  0
    5.4673  -11.8123   26.6668 C   0  0  0  0  0  0  0  0  0  0  0  0
    6.5089  -12.2366   25.6288 C   0  0  1  0  0  0  0  0  0  0  0  0
    7.6073  -11.2401   25.5598 C   0  0  0  0  0  0  0  0  0  0  0  0
    6.8913  -13.6476   25.8525 C   0  0  0  0  0  0  0  0  0  0  0  0
    7.7725  -14.2831   24.8444 C   0  0  2  0  0  0  0  0  0  0  0  0
    7.0972  -14.4019   23.5825 N   0  0  0  0  0  0  0  0  0  0  0  0
    8.1757  -15.6822   25.2662 C   0  0  0  0  0  0  0  0  0  0  0  0
    7.3378  -16.5815   25.5141 O   0  0  0  0  0  0  0  0  0  0  0  0
   12.4307  -19.0252   22.7451 N   0  0  0  0  0  0  0  0  0  0  0  0
   12.7267  -17.7516   23.2728 C   0  0  0  0  0  0  0  0  0  0  0  0
   13.6982  -17.0859   22.7976 O   0  0  0  0  0  0  0  0  0  0  0  0
   11.9448  -17.1457   24.3613 C   0  0  0  0  0  0  0  0  0  0  0  0
   10.8002  -18.0039   24.7639 C   0  0  0  0  0  0  0  0  0  0  0  0
    9.9333  -17.4092   25.7931 C   0  0  2  0  0  0  0  0  0  0  0  0
    9.5400  -16.0366   25.3997 N   0  0  0  0  0  0  0  0  0  0  0  0
   10.3091  -17.3770   27.1865 C   0  0  0  0  0  0  0  0  0  0  0  0
   10.6725  -18.4691   27.7555 O   0  0  0  0  0  0  0  0  0  0  0  0
   10.3450  -16.2788   28.0403 O   0  0  0  0  0  0  0  0  0  0  0  0
  2  1  1  0
  3  2  1  0
  4  3  1  0
  4  5  1  0
  5  6  1  6
  7  5  1  0
  7  8  2  0
 10 11  1  1
 10  9  1  0
 12 10  1  0
 13 12  1  1
 13 14  1  0
 14  7  1  0
 15 13  1  0
 16 15  2  0
 17 18  1  0
 18 19  2  0
 20 18  1  0
 20 21  1  0
 22 21  1  6
 22 23  1  0
 23 15  1  0
 24 22  1  0
 25 24  2  0
 26 24  1  0
M  END
$$$$
