MCR.pdb
     RDKit          3D

 26 25  0  0  1  0  0  0  0  0999 V2000
   22.2343  -15.6789  -18.5583 C   0  0  0  0  0  0  0  0  0  0  0  0
   20.5554  -16.2501  -18.9538 S   0  0  0  0  0  0  0  0  0  0  0  0
   19.8290  -17.1221  -17.5079 C   0  0  0  0  0  0  0  0  0  0  0  0
   20.8468  -17.3184  -16.4394 C   0  0  0  0  0  0  0  0  0  0  0  0
   21.1804  -18.7279  -16.0918 C   0  0  2  0  0  0  0  0  0  0  0  0
   19.9073  -19.3639  -15.7117 N   0  0  0  0  0  0  0  0  0  0  0  0
   22.1223  -18.8226  -14.9180 C   0  0  0  0  0  0  0  0  0  0  0  0
   23.1980  -18.1743  -14.9095 O   0  0  0  0  0  0  0  0  0  0  0  0
   21.8057  -19.6390  -13.8139 N   0  0  0  0  0  0  0  0  0  0  0  0
   22.6955  -19.8323  -12.7105 C   0  0  1  0  0  0  0  0  0  0  0  0
   22.0465  -19.7319  -11.3759 C   0  0  0  0  0  0  0  0  0  0  0  0
   23.1246  -20.1593   -9.9952 S   0  0  0  0  0  0  0  0  0  0  0  0
   23.6613  -20.9414  -12.8672 C   0  0  0  0  0  0  0  0  0  0  0  0
   23.2566  -22.1096  -12.9655 O   0  0  0  0  0  0  0  0  0  0  0  0
   31.5114  -22.9547  -12.2550 N   0  0  0  0  0  0  0  0  0  0  0  0
   31.5256  -22.0488  -11.1473 C   0  0  0  0  0  0  0  0  0  0  0  0
   32.3095  -22.2884  -10.1499 N   0  0  0  0  0  0  0  0  0  0  0  0
   30.7209  -20.8973  -11.0837 N   0  0  0  0  0  0  0  0  0  0  0  0
   29.7451  -20.5534  -12.1302 C   0  0  0  0  0  0  0  0  0  0  0  0
   28.5004  -21.3336  -11.9824 C   0  0  0  0  0  0  0  0  0  0  0  0
   27.3488  -21.0609  -12.8376 C   0  0  0  0  0  0  0  0  0  0  0  0
   26.0602  -21.7864  -12.7828 C   0  0  2  0  0  0  0  0  0  0  0  0
   25.0345  -20.6704  -12.9047 N   0  0  0  0  0  0  0  0  0  0  0  0
   25.6854  -22.5521  -11.6105 C   0  0  0  0  0  0  0  0  0  0  0  0
   25.2771  -22.0324  -10.4044 O   0  0  0  0  0  0  0  0  0  0  0  0
   25.7250  -23.8475  -11.6305 O   0  0  0  0  0  0  0  0  0  0  0  0
  2  1  1  0
  3  2  1  0
  3  4  1  0
  4  5  1  0
  5  6  1  1
  7  5  1  0
  7  8  2  0
  9  7  1  0
 10  9  1  0
 10 11  1  1
 12 11  1  0
 13 10  1  0
 14 13  2  0
 16 17  2  0
 16 15  1  0
 18 16  1  0
 19 18  1  0
 20 19  1  0
 21 20  1  0
 22 21  1  1
 22 23  1  0
 23 13  1  0
 24 22  1  0
 24 25  1  0
 26 24  2  0
M  END
$$$$
