MCR.pdb
     RDKit          3D

 26 25  0  0  1  0  0  0  0  0999 V2000
   26.7258  -16.2737  -14.4324 C   0  0  0  0  0  0  0  0  0  0  0  0
   27.8080  -16.7689  -15.8053 S   0  0  0  0  0  0  0  0  0  0  0  0
   28.2425  -18.5486  -15.6555 C   0  0  0  0  0  0  0  0  0  0  0  0
   27.2703  -19.2613  -14.7819 C   0  0  0  0  0  0  0  0  0  0  0  0
   27.6460  -20.6385  -14.3565 C   0  0  2  0  0  0  0  0  0  0  0  0
   27.6644  -21.4513  -15.5848 N   0  0  0  0  0  0  0  0  0  0  0  0
   26.6403  -21.2414  -13.4084 C   0  0  0  0  0  0  0  0  0  0  0  0
   25.7607  -22.0325  -13.8302 O   0  0  0  0  0  0  0  0  0  0  0  0
   26.6765  -20.9260  -12.0355 N   0  0  0  0  0  0  0  0  0  0  0  0
   25.5261  -21.0086  -11.1890 C   0  0  1  0  0  0  0  0  0  0  0  0
   25.8094  -20.7794   -9.7470 C   0  0  0  0  0  0  0  0  0  0  0  0
   27.4927  -21.1917   -9.2493 S   0  0  0  0  0  0  0  0  0  0  0  0
   24.3107  -20.3480  -11.7122 C   0  0  0  0  0  0  0  0  0  0  0  0
   24.3369  -19.1451  -12.0130 O   0  0  0  0  0  0  0  0  0  0  0  0
   21.9997  -17.8748  -18.3773 N   0  0  0  0  0  0  0  0  0  0  0  0
   23.1474  -17.7533  -17.5311 C   0  0  0  0  0  0  0  0  0  0  0  0
   23.7860  -16.6319  -17.4960 N   0  0  0  0  0  0  0  0  0  0  0  0
   23.6252  -18.8026  -16.7261 N   0  0  0  0  0  0  0  0  0  0  0  0
   22.9376  -20.0997  -16.6241 C   0  0  0  0  0  0  0  0  0  0  0  0
   22.1276  -20.1838  -15.3925 C   0  0  0  0  0  0  0  0  0  0  0  0
   22.7502  -20.5312  -14.1183 C   0  0  0  0  0  0  0  0  0  0  0  0
   22.0388  -20.6267  -12.8242 C   0  0  2  0  0  0  0  0  0  0  0  0
   23.1294  -21.0833  -11.8678 N   0  0  0  0  0  0  0  0  0  0  0  0
   20.9351  -21.5496  -12.6470 C   0  0  0  0  0  0  0  0  0  0  0  0
   21.0393  -22.8698  -12.2762 O   0  0  0  0  0  0  0  0  0  0  0  0
   19.7148  -21.1621  -12.8490 O   0  0  0  0  0  0  0  0  0  0  0  0
  2  1  1  0
  3  2  1  0
  3  4  1  0
  4  5  1  0
  5  6  1  6
  7  5  1  0
  7  8  2  0
  9  7  1  0
 10  9  1  0
 10 11  1  1
 12 11  1  0
 13 10  1  0
 14 13  2  0
 16 17  2  0
 16 15  1  0
 18 16  1  0
 19 18  1  0
 20 19  1  0
 21 20  1  0
 22 21  1  6
 22 23  1  0
 23 13  1  0
 24 22  1  0
 24 25  1  0
 26 24  2  0
M  END
$$$$
