MCR.pdb
     RDKit          3D

 26 25  0  0  1  0  0  0  0  0999 V2000
   27.2548  -14.8202  -15.4814 C   0  0  0  0  0  0  0  0  0  0  0  0
   28.0143  -16.0446  -16.5883 S   0  0  0  0  0  0  0  0  0  0  0  0
   26.9229  -17.5153  -16.7454 C   0  0  0  0  0  0  0  0  0  0  0  0
   26.4618  -17.9802  -15.4084 C   0  0  0  0  0  0  0  0  0  0  0  0
   25.5371  -19.1479  -15.3946 C   0  0  2  0  0  0  0  0  0  0  0  0
   25.3279  -19.5161  -16.8054 N   0  0  0  0  0  0  0  0  0  0  0  0
   24.1961  -18.8116  -14.7924 C   0  0  0  0  0  0  0  0  0  0  0  0
   24.0973  -18.5307  -13.5723 O   0  0  0  0  0  0  0  0  0  0  0  0
   23.0364  -18.8063  -15.5929 N   0  0  0  0  0  0  0  0  0  0  0  0
   21.7358  -18.5130  -15.0739 C   0  0  1  0  0  0  0  0  0  0  0  0
   21.2254  -17.1618  -15.4291 C   0  0  0  0  0  0  0  0  0  0  0  0
   19.4371  -17.0801  -15.6451 S   0  0  0  0  0  0  0  0  0  0  0  0
   20.7530  -19.6131  -15.1792 C   0  0  0  0  0  0  0  0  0  0  0  0
   20.5156  -20.1319  -16.2805 O   0  0  0  0  0  0  0  0  0  0  0  0
   16.5481  -24.2697  -10.6880 N   0  0  0  0  0  0  0  0  0  0  0  0
   17.3128  -25.4395  -10.9955 C   0  0  0  0  0  0  0  0  0  0  0  0
   16.7297  -26.5912  -10.9876 N   0  0  0  0  0  0  0  0  0  0  0  0
   18.6833  -25.4033  -11.3087 N   0  0  0  0  0  0  0  0  0  0  0  0
   19.4269  -24.1435  -11.4684 C   0  0  0  0  0  0  0  0  0  0  0  0
   18.8877  -23.3381  -12.5821 C   0  0  0  0  0  0  0  0  0  0  0  0
   19.5171  -22.0745  -12.9555 C   0  0  0  0  0  0  0  0  0  0  0  0
   19.1101  -21.2292  -14.0999 C   0  0  2  0  0  0  0  0  0  0  0  0
   20.0905  -20.0687  -14.0330 N   0  0  0  0  0  0  0  0  0  0  0  0
   17.7881  -20.6373  -14.1562 C   0  0  0  0  0  0  0  0  0  0  0  0
   16.7309  -21.0947  -14.9075 O   0  0  0  0  0  0  0  0  0  0  0  0
   17.5137  -19.5740  -13.4675 O   0  0  0  0  0  0  0  0  0  0  0  0
  2  1  1  0
  3  2  1  0
  3  4  1  0
  4  5  1  0
  5  6  1  6
  7  5  1  0
  7  8  2  0
  9  7  1  0
 10  9  1  0
 10 11  1  6
 12 11  1  0
 13 10  1  0
 14 13  2  0
 16 17  2  0
 16 15  1  0
 18 16  1  0
 19 18  1  0
 20 19  1  0
 21 20  1  0
 22 21  1  1
 22 23  1  0
 23 13  1  0
 24 22  1  0
 24 25  1  0
 26 24  2  0
M  END
$$$$
