MCR.pdb
     RDKit          3D

 26 25  0  0  1  0  0  0  0  0999 V2000
   24.2601  -17.1619  -17.6948 C   0  0  0  0  0  0  0  0  0  0  0  0
   26.0159  -17.5826  -17.8984 S   0  0  0  0  0  0  0  0  0  0  0  0
   26.9184  -16.1725  -18.6573 C   0  0  0  0  0  0  0  0  0  0  0  0
   26.7611  -14.9388  -17.8390 C   0  0  0  0  0  0  0  0  0  0  0  0
   27.4360  -13.7132  -18.3501 C   0  0  2  0  0  0  0  0  0  0  0  0
   28.8815  -13.9887  -18.2835 N   0  0  0  0  0  0  0  0  0  0  0  0
   27.1484  -12.5018  -17.4994 C   0  0  0  0  0  0  0  0  0  0  0  0
   27.2874  -12.5508  -16.2522 O   0  0  0  0  0  0  0  0  0  0  0  0
   26.7216  -11.2978  -18.0945 N   0  0  0  0  0  0  0  0  0  0  0  0
   26.3830  -10.1335  -17.3352 C   0  0  1  0  0  0  0  0  0  0  0  0
   27.4075   -9.0560  -17.3772 C   0  0  0  0  0  0  0  0  0  0  0  0
   26.8615   -7.4886  -16.6729 S   0  0  0  0  0  0  0  0  0  0  0  0
   24.9800   -9.6837  -17.4641 C   0  0  0  0  0  0  0  0  0  0  0  0
   24.4989   -9.4601  -18.5852 O   0  0  0  0  0  0  0  0  0  0  0  0
   18.0097  -12.0177  -14.9368 N   0  0  0  0  0  0  0  0  0  0  0  0
   18.0062  -12.1485  -16.3618 C   0  0  0  0  0  0  0  0  0  0  0  0
   16.8781  -12.1521  -16.9896 N   0  0  0  0  0  0  0  0  0  0  0  0
   19.1796  -12.2766  -17.1263 N   0  0  0  0  0  0  0  0  0  0  0  0
   20.5193  -12.0307  -16.5693 C   0  0  0  0  0  0  0  0  0  0  0  0
   20.6948  -10.6131  -16.1961 C   0  0  0  0  0  0  0  0  0  0  0  0
   21.9967  -10.1176  -15.7584 C   0  0  0  0  0  0  0  0  0  0  0  0
   22.7555   -9.0301  -16.4153 C   0  0  2  0  0  0  0  0  0  0  0  0
   24.1949   -9.5109  -16.3178 N   0  0  0  0  0  0  0  0  0  0  0  0
   22.7432   -7.6835  -15.8789 C   0  0  0  0  0  0  0  0  0  0  0  0
   21.7651   -6.7401  -16.0902 O   0  0  0  0  0  0  0  0  0  0  0  0
   23.7163   -7.2638  -15.1326 O   0  0  0  0  0  0  0  0  0  0  0  0
  2  1  1  0
  3  2  1  0
  3  4  1  0
  4  5  1  0
  5  6  1  1
  7  5  1  0
  7  8  2  0
  9  7  1  0
 10  9  1  0
 10 11  1  6
 12 11  1  0
 13 10  1  0
 14 13  2  0
 16 17  2  0
 16 15  1  0
 18 16  1  0
 19 18  1  0
 20 19  1  0
 21 20  1  0
 22 21  1  1
 22 23  1  0
 23 13  1  0
 24 22  1  0
 24 25  1  0
 26 24  2  0
M  END
$$$$
