MCR.pdb
     RDKit          3D

 26 25  0  0  1  0  0  0  0  0999 V2000
   16.4077  -14.8869  -11.2831 C   0  0  0  0  0  0  0  0  0  0  0  0
   16.6194  -13.0850  -11.3807 S   0  0  0  0  0  0  0  0  0  0  0  0
   15.3397  -12.2437  -10.3642 C   0  0  0  0  0  0  0  0  0  0  0  0
   15.4612  -10.7640  -10.4751 C   0  0  0  0  0  0  0  0  0  0  0  0
   14.5300   -9.9573   -9.6378 C   0  0  2  0  0  0  0  0  0  0  0  0
   13.1745  -10.2721  -10.1209 N   0  0  0  0  0  0  0  0  0  0  0  0
   14.7533   -8.4745   -9.7961 C   0  0  0  0  0  0  0  0  0  0  0  0
   14.2025   -7.8429  -10.7316 O   0  0  0  0  0  0  0  0  0  0  0  0
   15.5820   -7.7780   -8.8939 N   0  0  0  0  0  0  0  0  0  0  0  0
   15.7879   -6.3638   -8.9617 C   0  0  1  0  0  0  0  0  0  0  0  0
   15.1797   -5.6021   -7.8382 C   0  0  0  0  0  0  0  0  0  0  0  0
   13.4683   -6.0460   -7.4846 S   0  0  0  0  0  0  0  0  0  0  0  0
   17.1515   -5.9441   -9.3513 C   0  0  0  0  0  0  0  0  0  0  0  0
   18.1179   -6.2151   -8.6227 O   0  0  0  0  0  0  0  0  0  0  0  0
   18.7303   -9.5916  -13.8915 N   0  0  0  0  0  0  0  0  0  0  0  0
   19.9598   -9.1048  -14.4386 C   0  0  0  0  0  0  0  0  0  0  0  0
   20.2110   -9.2990  -15.6899 N   0  0  0  0  0  0  0  0  0  0  0  0
   20.9230   -8.4185  -13.6778 N   0  0  0  0  0  0  0  0  0  0  0  0
   20.6600   -7.9400  -12.3113 C   0  0  0  0  0  0  0  0  0  0  0  0
   19.9032   -6.6723  -12.3217 C   0  0  0  0  0  0  0  0  0  0  0  0
   19.4931   -6.0437  -11.0692 C   0  0  0  0  0  0  0  0  0  0  0  0
   18.7367   -4.7762  -10.9635 C   0  0  2  0  0  0  0  0  0  0  0  0
   17.3501   -5.2398  -10.5450 N   0  0  0  0  0  0  0  0  0  0  0  0
   18.5446   -3.9244  -12.1205 C   0  0  0  0  0  0  0  0  0  0  0  0
   19.4988   -3.1182  -12.6959 O   0  0  0  0  0  0  0  0  0  0  0  0
   17.3908   -3.8633  -12.7081 O   0  0  0  0  0  0  0  0  0  0  0  0
  2  1  1  0
  3  2  1  0
  3  4  1  0
  4  5  1  0
  5  6  1  6
  7  5  1  0
  7  8  2  0
  9  7  1  0
 10  9  1  0
 10 11  1  1
 12 11  1  0
 13 10  1  0
 14 13  2  0
 16 17  2  0
 16 15  1  0
 18 16  1  0
 19 18  1  0
 20 19  1  0
 21 20  1  0
 22 21  1  6
 22 23  1  0
 23 13  1  0
 24 22  1  0
 24 25  1  0
 26 24  2  0
M  END
$$$$
