MCR.pdb
     RDKit          3D

 26 25  0  0  1  0  0  0  0  0999 V2000
   21.5967  -17.4914  -17.7357 C   0  0  0  0  0  0  0  0  0  0  0  0
   22.2918  -17.4793  -19.4144 S   0  0  0  0  0  0  0  0  0  0  0  0
   22.4359  -15.7516  -20.0249 C   0  0  0  0  0  0  0  0  0  0  0  0
   22.7694  -14.8208  -18.9119 C   0  0  0  0  0  0  0  0  0  0  0  0
   22.9292  -13.3846  -19.2734 C   0  0  2  0  0  0  0  0  0  0  0  0
   24.1976  -13.2924  -20.0166 N   0  0  0  0  0  0  0  0  0  0  0  0
   23.0291  -12.4946  -18.0603 C   0  0  0  0  0  0  0  0  0  0  0  0
   22.0431  -12.3435  -17.2971 O   0  0  0  0  0  0  0  0  0  0  0  0
   24.2322  -11.8223  -17.7664 N   0  0  0  0  0  0  0  0  0  0  0  0
   24.3738  -10.9340  -16.6539 C   0  0  1  0  0  0  0  0  0  0  0  0
   25.7684  -10.7942  -16.1558 C   0  0  0  0  0  0  0  0  0  0  0  0
   26.0041   -9.4416  -14.9870 S   0  0  0  0  0  0  0  0  0  0  0  0
   23.6030   -9.6755  -16.7508 C   0  0  0  0  0  0  0  0  0  0  0  0
   23.7462   -8.9324  -17.7334 O   0  0  0  0  0  0  0  0  0  0  0  0
   15.8265   -9.6582  -18.0888 N   0  0  0  0  0  0  0  0  0  0  0  0
   16.5628  -10.0053  -16.9118 C   0  0  0  0  0  0  0  0  0  0  0  0
   16.2139  -11.0497  -16.2378 N   0  0  0  0  0  0  0  0  0  0  0  0
   17.6592   -9.2607  -16.4417 N   0  0  0  0  0  0  0  0  0  0  0  0
   18.2297   -8.1303  -17.1916 C   0  0  0  0  0  0  0  0  0  0  0  0
   19.4476   -7.6113  -16.5382 C   0  0  0  0  0  0  0  0  0  0  0  0
   20.6148   -8.4697  -16.3572 C   0  0  0  0  0  0  0  0  0  0  0  0
   21.9118   -8.0315  -15.7954 C   0  0  2  0  0  0  0  0  0  0  0  0
   22.7103   -9.3240  -15.7310 N   0  0  0  0  0  0  0  0  0  0  0  0
   21.9904   -7.4430  -14.4730 C   0  0  0  0  0  0  0  0  0  0  0  0
   21.7238   -6.1313  -14.1568 O   0  0  0  0  0  0  0  0  0  0  0  0
   22.3468   -8.1603  -13.4540 O   0  0  0  0  0  0  0  0  0  0  0  0
  2  1  1  0
  3  2  1  0
  3  4  1  0
  4  5  1  0
  5  6  1  6
  7  5  1  0
  7  8  2  0
  9  7  1  0
 10  9  1  0
 10 11  1  6
 12 11  1  0
 13 10  1  0
 14 13  2  0
 16 17  2  0
 16 15  1  0
 18 16  1  0
 19 18  1  0
 20 19  1  0
 21 20  1  0
 22 21  1  1
 22 23  1  0
 23 13  1  0
 24 22  1  0
 24 25  1  0
 26 24  2  0
M  END
$$$$
