MCR.pdb
     RDKit          3D

 26 25  0  0  1  0  0  0  0  0999 V2000
   28.9537  -17.6773  -18.3513 C   0  0  0  0  0  0  0  0  0  0  0  0
   27.2836  -17.7774  -17.6427 S   0  0  0  0  0  0  0  0  0  0  0  0
   27.3556  -18.5139  -15.9602 C   0  0  0  0  0  0  0  0  0  0  0  0
   28.7037  -19.0830  -15.6864 C   0  0  0  0  0  0  0  0  0  0  0  0
   28.7686  -20.5528  -15.4529 C   0  0  2  0  0  0  0  0  0  0  0  0
   28.1662  -21.1791  -16.6423 N   0  0  0  0  0  0  0  0  0  0  0  0
   27.9739  -20.9780  -14.2440 C   0  0  0  0  0  0  0  0  0  0  0  0
   26.8443  -21.5103  -14.3782 O   0  0  0  0  0  0  0  0  0  0  0  0
   28.4906  -20.7850  -12.9472 N   0  0  0  0  0  0  0  0  0  0  0  0
   27.7436  -21.0760  -11.7623 C   0  0  1  0  0  0  0  0  0  0  0  0
   28.5691  -21.1868  -10.5300 C   0  0  0  0  0  0  0  0  0  0  0  0
   30.2691  -21.7115  -10.8233 S   0  0  0  0  0  0  0  0  0  0  0  0
   26.4779  -20.3250  -11.6156 C   0  0  0  0  0  0  0  0  0  0  0  0
   26.3388  -19.2254  -12.1721 O   0  0  0  0  0  0  0  0  0  0  0  0
   20.3819  -23.6468  -13.9716 N   0  0  0  0  0  0  0  0  0  0  0  0
   19.9170  -22.4056  -14.5114 C   0  0  0  0  0  0  0  0  0  0  0  0
   18.6558  -22.2537  -14.7415 N   0  0  0  0  0  0  0  0  0  0  0  0
   20.7699  -21.3282  -14.8104 N   0  0  0  0  0  0  0  0  0  0  0  0
   22.1918  -21.3142  -14.4316 C   0  0  0  0  0  0  0  0  0  0  0  0
   22.3671  -20.9433  -13.0133 C   0  0  0  0  0  0  0  0  0  0  0  0
   23.7029  -20.8495  -12.4314 C   0  0  0  0  0  0  0  0  0  0  0  0
   23.9980  -20.4066  -11.0506 C   0  0  2  0  0  0  0  0  0  0  0  0
   25.4359  -20.8578  -10.8471 N   0  0  0  0  0  0  0  0  0  0  0  0
   23.2488  -20.9280   -9.9246 C   0  0  0  0  0  0  0  0  0  0  0  0
   22.0380  -20.4567   -9.4736 O   0  0  0  0  0  0  0  0  0  0  0  0
   23.7096  -21.9217   -9.2314 O   0  0  0  0  0  0  0  0  0  0  0  0
  2  1  1  0
  3  2  1  0
  3  4  1  0
  4  5  1  0
  5  6  1  6
  7  5  1  0
  7  8  2  0
  9  7  1  0
 10  9  1  0
 10 11  1  1
 12 11  1  0
 13 10  1  0
 14 13  2  0
 16 17  2  0
 16 15  1  0
 18 16  1  0
 19 18  1  0
 20 19  1  0
 21 20  1  0
 22 21  1  6
 22 23  1  0
 23 13  1  0
 24 22  1  0
 24 25  1  0
 26 24  2  0
M  END
$$$$
