KTV.pdb
     RDKit          3D

 24 23  0  0  1  0  0  0  0  0999 V2000
   10.7564  -17.5111   19.1661 N   0  0  0  0  0  0  0  0  0  0  0  0
   10.8064  -17.4653   20.6356 C   0  0  1  0  0  0  0  0  0  0  0  0
   12.1699  -17.0185   20.9986 C   0  0  0  0  0  0  0  0  0  0  0  0
   13.2216  -18.0378   20.8713 C   0  0  0  0  0  0  0  0  0  0  0  0
   14.6333  -17.7592   21.1451 C   0  0  0  0  0  0  0  0  0  0  0  0
   15.6644  -18.8082   21.0540 C   0  0  0  0  0  0  0  0  0  0  0  0
   15.2006  -19.9457   21.9192 N   0  0  0  0  0  0  0  0  0  0  0  0
    9.7881  -16.4072   21.0311 C   0  0  0  0  0  0  0  0  0  0  0  0
    9.5672  -15.4151   20.2862 O   0  0  0  0  0  0  0  0  0  0  0  0
    6.4086  -16.4364   21.0557 C   0  0  0  0  0  0  0  0  0  0  0  0
    6.7268  -16.1478   22.5026 C   0  0  1  0  0  0  0  0  0  0  0  0
    6.7154  -17.3571   23.2377 O   0  0  0  0  0  0  0  0  0  0  0  0
    8.0823  -15.5300   22.6785 C   0  0  2  0  0  0  0  0  0  0  0  0
    9.0952  -16.5337   22.2230 N   0  0  0  0  0  0  0  0  0  0  0  0
    8.4275  -15.0984   24.0313 C   0  0  0  0  0  0  0  0  0  0  0  0
    9.3831  -15.6973   24.6649 O   0  0  0  0  0  0  0  0  0  0  0  0
    6.0870  -12.5777   26.5196 C   0  0  0  0  0  0  0  0  0  0  0  0
    7.5948  -12.4442   26.5925 C   0  0  2  0  0  0  0  0  0  0  0  0
    7.9743  -11.2578   25.7427 C   0  0  0  0  0  0  0  0  0  0  0  0
    8.1851  -13.7346   26.1262 C   0  0  2  0  0  0  0  0  0  0  0  0
    7.8374  -14.0734   24.7649 N   0  0  0  0  0  0  0  0  0  0  0  0
    7.7898  -14.8595   26.9932 C   0  0  0  0  0  0  0  0  0  0  0  0
    8.3161  -15.0563   28.2531 O   0  0  0  0  0  0  0  0  0  0  0  0
    6.9393  -15.6801   26.5791 O   0  0  0  0  0  0  0  0  0  0  0  0
  2  1  1  6
  3  2  1  0
  4  3  1  0
  5  6  1  0
  5  4  1  0
  6  7  1  0
  8  2  1  0
  8  9  2  0
 11 10  1  6
 11 13  1  0
 12 11  1  0
 13 14  1  1
 14  8  1  0
 15 13  1  0
 16 15  2  0
 18 17  1  6
 19 18  1  0
 20 21  1  6
 20 18  1  0
 21 15  1  0
 22 20  1  0
 23 22  1  0
 24 22  2  0
M  END
$$$$
