KTV.pdb
     RDKit          3D

 24 23  0  0  1  0  0  0  0  0999 V2000
   10.2338  -16.5611   18.4739 N   0  0  0  0  0  0  0  0  0  0  0  0
   10.7169  -16.1675   19.8064 C   0  0  1  0  0  0  0  0  0  0  0  0
   11.5949  -14.9926   19.6077 C   0  0  0  0  0  0  0  0  0  0  0  0
   13.0206  -15.2967   19.4169 C   0  0  0  0  0  0  0  0  0  0  0  0
   14.0287  -14.2593   19.1870 C   0  0  0  0  0  0  0  0  0  0  0  0
   15.4626  -14.5806   19.0739 C   0  0  0  0  0  0  0  0  0  0  0  0
   16.1838  -13.2761   18.8853 N   0  0  0  0  0  0  0  0  0  0  0  0
    9.4681  -15.7616   20.5737 C   0  0  0  0  0  0  0  0  0  0  0  0
    8.4884  -15.2376   19.9792 O   0  0  0  0  0  0  0  0  0  0  0  0
    6.8729  -17.3634   21.5334 C   0  0  0  0  0  0  0  0  0  0  0  0
    7.3676  -16.8725   22.8722 C   0  0  1  0  0  0  0  0  0  0  0  0
    8.1803  -17.8665   23.4675 O   0  0  0  0  0  0  0  0  0  0  0  0
    8.1965  -15.6278   22.7551 C   0  0  2  0  0  0  0  0  0  0  0  0
    9.4055  -15.9693   21.9411 N   0  0  0  0  0  0  0  0  0  0  0  0
    8.6342  -15.0198   24.0097 C   0  0  0  0  0  0  0  0  0  0  0  0
    9.8421  -15.2217   24.4262 O   0  0  0  0  0  0  0  0  0  0  0  0
    6.2332  -12.6030   26.5571 C   0  0  0  0  0  0  0  0  0  0  0  0
    7.7256  -12.3546   26.4684 C   0  0  2  0  0  0  0  0  0  0  0  0
    7.9306  -11.2551   25.4570 C   0  0  0  0  0  0  0  0  0  0  0  0
    8.3766  -13.6464   26.0965 C   0  0  2  0  0  0  0  0  0  0  0  0
    7.8873  -14.2073   24.8576 N   0  0  0  0  0  0  0  0  0  0  0  0
    8.2164  -14.6616   27.1535 C   0  0  0  0  0  0  0  0  0  0  0  0
    8.8326  -14.5667   28.3841 O   0  0  0  0  0  0  0  0  0  0  0  0
    7.4913  -15.6593   26.9370 O   0  0  0  0  0  0  0  0  0  0  0  0
  2  1  1  6
  3  2  1  0
  4  3  1  0
  5  6  1  0
  5  4  1  0
  6  7  1  0
  8  2  1  0
  8  9  2  0
 11 10  1  6
 11 13  1  0
 12 11  1  0
 13 14  1  6
 14  8  1  0
 15 13  1  0
 16 15  2  0
 18 17  1  6
 19 18  1  0
 20 21  1  6
 20 18  1  0
 21 15  1  0
 22 20  1  0
 23 22  1  0
 24 22  2  0
M  END
$$$$
