KTV.pdb
     RDKit          3D

 24 23  0  0  1  0  0  0  0  0999 V2000
    9.2387  -19.2427   19.5867 N   0  0  0  0  0  0  0  0  0  0  0  0
    9.8384  -18.5481   20.7364 C   0  0  1  0  0  0  0  0  0  0  0  0
   10.8961  -17.6667   20.1932 C   0  0  0  0  0  0  0  0  0  0  0  0
   12.1717  -18.3295   19.8852 C   0  0  0  0  0  0  0  0  0  0  0  0
   13.3305  -17.6101   19.3514 C   0  0  0  0  0  0  0  0  0  0  0  0
   14.6082  -18.2907   19.0752 C   0  0  0  0  0  0  0  0  0  0  0  0
   15.5400  -17.2512   18.5196 N   0  0  0  0  0  0  0  0  0  0  0  0
    8.7116  -17.7110   21.3217 C   0  0  0  0  0  0  0  0  0  0  0  0
    7.7887  -17.2685   20.5867 O   0  0  0  0  0  0  0  0  0  0  0  0
    5.9622  -18.5383   22.7610 C   0  0  0  0  0  0  0  0  0  0  0  0
    6.6190  -17.7473   23.8661 C   0  0  1  0  0  0  0  0  0  0  0  0
    7.3645  -18.6215   24.6923 O   0  0  0  0  0  0  0  0  0  0  0  0
    7.5672  -16.7098   23.3420 C   0  0  2  0  0  0  0  0  0  0  0  0
    8.6983  -17.4309   22.6776 N   0  0  0  0  0  0  0  0  0  0  0  0
    8.1188  -15.7799   24.3250 C   0  0  0  0  0  0  0  0  0  0  0  0
    9.3612  -15.8834   24.6702 O   0  0  0  0  0  0  0  0  0  0  0  0
    6.6902  -12.0587   25.0368 C   0  0  0  0  0  0  0  0  0  0  0  0
    7.1888  -12.6999   26.3163 C   0  0  2  0  0  0  0  0  0  0  0  0
    7.9061  -11.6274   27.0968 C   0  0  0  0  0  0  0  0  0  0  0  0
    8.0583  -13.8526   25.9341 C   0  0  2  0  0  0  0  0  0  0  0  0
    7.4523  -14.7418   24.9693 N   0  0  0  0  0  0  0  0  0  0  0  0
    8.4519  -14.6514   27.1089 C   0  0  0  0  0  0  0  0  0  0  0  0
    9.5608  -14.3605   27.8764 O   0  0  0  0  0  0  0  0  0  0  0  0
    7.7571  -15.6408   27.4352 O   0  0  0  0  0  0  0  0  0  0  0  0
  2  1  1  6
  3  2  1  0
  4  3  1  0
  5  6  1  0
  5  4  1  0
  6  7  1  0
  8  2  1  0
  8  9  2  0
 11 10  1  6
 11 13  1  0
 12 11  1  0
 13 14  1  1
 14  8  1  0
 15 13  1  0
 16 15  2  0
 18 17  1  6
 19 18  1  0
 20 21  1  6
 20 18  1  0
 21 15  1  0
 22 20  1  0
 23 22  1  0
 24 22  2  0
M  END
$$$$
