KTV.pdb
     RDKit          3D

 24 23  0  0  1  0  0  0  0  0999 V2000
    8.9767  -16.7714   18.9399 N   0  0  0  0  0  0  0  0  0  0  0  0
    8.6430  -15.4454   19.4823 C   0  0  1  0  0  0  0  0  0  0  0  0
    7.8110  -14.7684   18.4624 C   0  0  0  0  0  0  0  0  0  0  0  0
    8.4331  -14.6212   17.1385 C   0  0  0  0  0  0  0  0  0  0  0  0
    7.7972  -13.8895   16.0405 C   0  0  0  0  0  0  0  0  0  0  0  0
    8.4986  -13.6297   14.7707 C   0  0  0  0  0  0  0  0  0  0  0  0
    7.5442  -12.8636   13.8991 N   0  0  0  0  0  0  0  0  0  0  0  0
    7.8160  -15.7264   20.7274 C   0  0  0  0  0  0  0  0  0  0  0  0
    6.7993  -16.4687   20.6717 O   0  0  0  0  0  0  0  0  0  0  0  0
    7.0018  -17.7727   22.2293 C   0  0  0  0  0  0  0  0  0  0  0  0
    7.6678  -17.0380   23.3671 C   0  0  1  0  0  0  0  0  0  0  0  0
    9.0480  -17.3501   23.3858 O   0  0  0  0  0  0  0  0  0  0  0  0
    7.5476  -15.5486   23.2353 C   0  0  2  0  0  0  0  0  0  0  0  0
    8.1829  -15.1607   21.9366 N   0  0  0  0  0  0  0  0  0  0  0  0
    8.1461  -14.7526   24.3047 C   0  0  0  0  0  0  0  0  0  0  0  0
    9.4068  -14.4673   24.2550 O   0  0  0  0  0  0  0  0  0  0  0  0
    6.0154  -12.8670   27.4796 C   0  0  0  0  0  0  0  0  0  0  0  0
    7.2455  -12.2430   26.8518 C   0  0  2  0  0  0  0  0  0  0  0  0
    6.7657  -11.3447   25.7397 C   0  0  0  0  0  0  0  0  0  0  0  0
    8.1301  -13.3547   26.3911 C   0  0  2  0  0  0  0  0  0  0  0  0
    7.5065  -14.2303   25.4250 N   0  0  0  0  0  0  0  0  0  0  0  0
    8.6016  -14.1791   27.5187 C   0  0  0  0  0  0  0  0  0  0  0  0
    9.4133  -13.6868   28.5197 O   0  0  0  0  0  0  0  0  0  0  0  0
    8.2570  -15.3813   27.5822 O   0  0  0  0  0  0  0  0  0  0  0  0
  2  1  1  6
  3  2  1  0
  4  3  1  0
  5  6  1  0
  5  4  1  0
  6  7  1  0
  8  2  1  0
  8  9  2  0
 11 10  1  6
 11 13  1  0
 12 11  1  0
 13 14  1  6
 14  8  1  0
 15 13  1  0
 16 15  2  0
 18 17  1  6
 19 18  1  0
 20 21  1  6
 20 18  1  0
 21 15  1  0
 22 20  1  0
 23 22  1  0
 24 22  2  0
M  END
$$$$
