KTV.pdb
     RDKit          3D

 24 23  0  0  1  0  0  0  0  0999 V2000
    8.7499  -15.2958   19.3178 N   0  0  0  0  0  0  0  0  0  0  0  0
    8.3287  -14.0093   19.8936 C   0  0  1  0  0  0  0  0  0  0  0  0
    7.2538  -13.4869   19.0205 C   0  0  0  0  0  0  0  0  0  0  0  0
    7.6479  -13.2143   17.6306 C   0  0  0  0  0  0  0  0  0  0  0  0
    8.0488  -14.2706   16.6984 C   0  0  0  0  0  0  0  0  0  0  0  0
    8.4752  -13.9699   15.3200 C   0  0  0  0  0  0  0  0  0  0  0  0
    8.8324  -15.2828   14.6825 N   0  0  0  0  0  0  0  0  0  0  0  0
    7.7658  -14.3566   21.2631 C   0  0  0  0  0  0  0  0  0  0  0  0
    6.8692  -13.6455   21.7905 O   0  0  0  0  0  0  0  0  0  0  0  0
    7.1696  -18.1448   22.2738 C   0  0  0  0  0  0  0  0  0  0  0  0
    7.8948  -17.3888   23.3604 C   0  0  1  0  0  0  0  0  0  0  0  0
    9.2850  -17.6324   23.2564 O   0  0  0  0  0  0  0  0  0  0  0  0
    7.6916  -15.9060   23.2598 C   0  0  2  0  0  0  0  0  0  0  0  0
    8.2431  -15.4664   21.9394 N   0  0  0  0  0  0  0  0  0  0  0  0
    8.2988  -15.0954   24.3132 C   0  0  0  0  0  0  0  0  0  0  0  0
    9.5278  -14.7110   24.1904 O   0  0  0  0  0  0  0  0  0  0  0  0
    6.2699  -12.9125   27.2814 C   0  0  0  0  0  0  0  0  0  0  0  0
    7.6707  -12.5794   26.8088 C   0  0  2  0  0  0  0  0  0  0  0  0
    7.5288  -11.6659   25.6175 C   0  0  0  0  0  0  0  0  0  0  0  0
    8.3620  -13.8677   26.5032 C   0  0  2  0  0  0  0  0  0  0  0  0
    7.6987  -14.6559   25.4895 N   0  0  0  0  0  0  0  0  0  0  0  0
    8.5131  -14.7043   27.7076 C   0  0  0  0  0  0  0  0  0  0  0  0
    9.2774  -14.3264   28.7921 O   0  0  0  0  0  0  0  0  0  0  0  0
    7.9266  -15.8094   27.7610 O   0  0  0  0  0  0  0  0  0  0  0  0
  2  1  1  6
  3  2  1  0
  4  3  1  0
  5  6  1  0
  5  4  1  0
  6  7  1  0
  8  2  1  0
  8  9  2  0
 11 10  1  6
 11 13  1  0
 12 11  1  0
 13 14  1  6
 14  8  1  0
 15 13  1  0
 16 15  2  0
 18 17  1  6
 19 18  1  0
 20 21  1  6
 20 18  1  0
 21 15  1  0
 22 20  1  0
 23 22  1  0
 24 22  2  0
M  END
$$$$
