KTV.pdb
     RDKit          3D

 24 23  0  0  1  0  0  0  0  0999 V2000
   10.3203  -18.4995   20.6617 N   0  0  0  0  0  0  0  0  0  0  0  0
   11.1907  -17.3791   21.0503 C   0  0  1  0  0  0  0  0  0  0  0  0
   12.0093  -17.0480   19.8626 C   0  0  0  0  0  0  0  0  0  0  0  0
   12.9091  -18.1148   19.4003 C   0  0  0  0  0  0  0  0  0  0  0  0
   13.9380  -17.8979   18.3806 C   0  0  0  0  0  0  0  0  0  0  0  0
   14.9005  -18.9511   18.0114 C   0  0  0  0  0  0  0  0  0  0  0  0
   15.8043  -18.3627   16.9653 N   0  0  0  0  0  0  0  0  0  0  0  0
   10.2408  -16.2338   21.3649 C   0  0  0  0  0  0  0  0  0  0  0  0
   10.3303  -15.1358   20.7533 O   0  0  0  0  0  0  0  0  0  0  0  0
    6.6939  -16.0241   20.9152 C   0  0  0  0  0  0  0  0  0  0  0  0
    6.9204  -15.8228   22.3938 C   0  0  1  0  0  0  0  0  0  0  0  0
    6.7681  -17.0587   23.0663 O   0  0  0  0  0  0  0  0  0  0  0  0
    8.2987  -15.3148   22.6979 C   0  0  2  0  0  0  0  0  0  0  0  0
    9.2661  -16.3978   22.3344 N   0  0  0  0  0  0  0  0  0  0  0  0
    8.5497  -14.9080   24.0788 C   0  0  0  0  0  0  0  0  0  0  0  0
    9.4976  -15.4805   24.7475 O   0  0  0  0  0  0  0  0  0  0  0  0
    5.9439  -12.5170   26.4143 C   0  0  0  0  0  0  0  0  0  0  0  0
    7.4303  -12.4167   26.6921 C   0  0  2  0  0  0  0  0  0  0  0  0
    7.9290  -11.1817   25.9849 C   0  0  0  0  0  0  0  0  0  0  0  0
    8.0646  -13.6826   26.2167 C   0  0  2  0  0  0  0  0  0  0  0  0
    7.8726  -13.9338   24.8063 N   0  0  0  0  0  0  0  0  0  0  0  0
    7.5688  -14.8540   26.9620 C   0  0  0  0  0  0  0  0  0  0  0  0
    8.0201  -15.1869   28.2224 O   0  0  0  0  0  0  0  0  0  0  0  0
    6.6993  -15.5875   26.4385 O   0  0  0  0  0  0  0  0  0  0  0  0
  2  1  1  6
  3  2  1  0
  4  3  1  0
  5  6  1  0
  5  4  1  0
  6  7  1  0
  8  2  1  0
  8  9  2  0
 11 10  1  6
 11 13  1  0
 12 11  1  0
 13 14  1  1
 14  8  1  0
 15 13  1  0
 16 15  2  0
 18 17  1  6
 19 18  1  0
 20 21  1  6
 20 18  1  0
 21 15  1  0
 22 20  1  0
 23 22  1  0
 24 22  2  0
M  END
$$$$
