KTV.pdb
     RDKit          3D

 24 23  0  0  1  0  0  0  0  0999 V2000
    8.5190  -16.2563   19.2187 N   0  0  0  0  0  0  0  0  0  0  0  0
    8.6575  -15.1607   20.1905 C   0  0  1  0  0  0  0  0  0  0  0  0
    7.6677  -14.1289   19.8084 C   0  0  0  0  0  0  0  0  0  0  0  0
    7.6720  -13.7469   18.3887 C   0  0  0  0  0  0  0  0  0  0  0  0
    8.7429  -14.1331   17.4670 C   0  0  0  0  0  0  0  0  0  0  0  0
    8.6974  -13.7882   16.0348 C   0  0  0  0  0  0  0  0  0  0  0  0
    7.9401  -12.4951   15.9259 N   0  0  0  0  0  0  0  0  0  0  0  0
    8.2813  -15.7736   21.5306 C   0  0  0  0  0  0  0  0  0  0  0  0
    7.2684  -16.5154   21.6383 O   0  0  0  0  0  0  0  0  0  0  0  0
    8.2937  -18.2681   22.5650 C   0  0  0  0  0  0  0  0  0  0  0  0
    9.1848  -17.7091   23.6474 C   0  0  1  0  0  0  0  0  0  0  0  0
   10.5367  -17.8024   23.2396 O   0  0  0  0  0  0  0  0  0  0  0  0
    8.9020  -16.2638   23.9322 C   0  0  2  0  0  0  0  0  0  0  0  0
    9.0594  -15.5142   22.6460 N   0  0  0  0  0  0  0  0  0  0  0  0
    9.7369  -15.6279   24.9490 C   0  0  0  0  0  0  0  0  0  0  0  0
   10.9059  -15.1804   24.6224 O   0  0  0  0  0  0  0  0  0  0  0  0
    8.3627  -13.7754   28.4582 C   0  0  0  0  0  0  0  0  0  0  0  0
    9.6163  -13.4105   27.6886 C   0  0  2  0  0  0  0  0  0  0  0  0
    9.1955  -12.4898   26.5709 C   0  0  0  0  0  0  0  0  0  0  0  0
   10.2439  -14.6822   27.2197 C   0  0  2  0  0  0  0  0  0  0  0  0
    9.4242  -15.4255   26.2899 N   0  0  0  0  0  0  0  0  0  0  0  0
   10.5801  -15.5718   28.3462 C   0  0  0  0  0  0  0  0  0  0  0  0
   11.4941  -15.2330   29.3224 O   0  0  0  0  0  0  0  0  0  0  0  0
   10.0180  -16.6874   28.4320 O   0  0  0  0  0  0  0  0  0  0  0  0
  2  1  1  6
  3  2  1  0
  4  3  1  0
  5  6  1  0
  5  4  1  0
  6  7  1  0
  8  2  1  0
  8  9  2  0
 11 10  1  6
 11 13  1  0
 12 11  1  0
 13 14  1  6
 14  8  1  0
 15 13  1  0
 16 15  2  0
 18 17  1  6
 19 18  1  0
 20 21  1  6
 20 18  1  0
 21 15  1  0
 22 20  1  0
 23 22  1  0
 24 22  2  0
M  END
$$$$
