KTV.pdb
     RDKit          3D

 24 23  0  0  1  0  0  0  0  0999 V2000
   11.8405  -17.0343   19.9181 N   0  0  0  0  0  0  0  0  0  0  0  0
   10.8156  -17.4832   20.8731 C   0  0  1  0  0  0  0  0  0  0  0  0
   11.5226  -18.2519   21.9218 C   0  0  0  0  0  0  0  0  0  0  0  0
   12.9762  -18.0412   21.9854 C   0  0  0  0  0  0  0  0  0  0  0  0
   13.8566  -18.8408   22.8404 C   0  0  0  0  0  0  0  0  0  0  0  0
   15.2916  -18.5351   22.9797 C   0  0  0  0  0  0  0  0  0  0  0  0
   15.8197  -19.4281   24.0666 N   0  0  0  0  0  0  0  0  0  0  0  0
   10.2400  -16.2046   21.4622 C   0  0  0  0  0  0  0  0  0  0  0  0
   10.8610  -15.1127   21.3630 O   0  0  0  0  0  0  0  0  0  0  0  0
    6.9367  -15.0188   20.4270 C   0  0  0  0  0  0  0  0  0  0  0  0
    6.9151  -15.0671   21.9354 C   0  0  1  0  0  0  0  0  0  0  0  0
    6.3313  -16.2845   22.3595 O   0  0  0  0  0  0  0  0  0  0  0  0
    8.2905  -14.9994   22.5301 C   0  0  2  0  0  0  0  0  0  0  0  0
    9.0198  -16.2392   22.1156 N   0  0  0  0  0  0  0  0  0  0  0  0
    8.3629  -14.8789   23.9846 C   0  0  0  0  0  0  0  0  0  0  0  0
    9.1056  -15.6996   24.6541 O   0  0  0  0  0  0  0  0  0  0  0  0
    5.7164  -12.6098   26.3976 C   0  0  0  0  0  0  0  0  0  0  0  0
    7.1616  -12.7123   26.8422 C   0  0  2  0  0  0  0  0  0  0  0  0
    7.8483  -11.4423   26.4068 C   0  0  0  0  0  0  0  0  0  0  0  0
    7.7349  -13.9489   26.2314 C   0  0  2  0  0  0  0  0  0  0  0  0
    7.7085  -13.9483   24.7864 N   0  0  0  0  0  0  0  0  0  0  0  0
    7.0403  -15.1613   26.7015 C   0  0  0  0  0  0  0  0  0  0  0  0
    7.2445  -15.7050   27.9529 O   0  0  0  0  0  0  0  0  0  0  0  0
    6.2264  -15.7326   25.9405 O   0  0  0  0  0  0  0  0  0  0  0  0
  2  1  1  6
  3  2  1  0
  4  3  1  0
  5  6  1  0
  5  4  1  0
  6  7  1  0
  8  2  1  0
  8  9  2  0
 11 10  1  6
 11 13  1  0
 12 11  1  0
 13 14  1  1
 14  8  1  0
 15 13  1  0
 16 15  2  0
 18 17  1  6
 19 18  1  0
 20 21  1  6
 20 18  1  0
 21 15  1  0
 22 20  1  0
 23 22  1  0
 24 22  2  0
M  END
$$$$
