KTV.pdb
     RDKit          3D

 24 23  0  0  1  0  0  0  0  0999 V2000
   11.4762  -17.0727   19.6870 N   0  0  0  0  0  0  0  0  0  0  0  0
   10.8941  -17.3969   20.9985 C   0  0  1  0  0  0  0  0  0  0  0  0
   12.0279  -17.6909   21.9033 C   0  0  0  0  0  0  0  0  0  0  0  0
   12.4539  -19.0974   21.9430 C   0  0  0  0  0  0  0  0  0  0  0  0
   12.8705  -19.7652   23.1782 C   0  0  0  0  0  0  0  0  0  0  0  0
   13.2948  -21.1765   23.1936 C   0  0  0  0  0  0  0  0  0  0  0  0
   13.6674  -21.4999   24.6128 N   0  0  0  0  0  0  0  0  0  0  0  0
   10.1895  -16.1240   21.4417 C   0  0  0  0  0  0  0  0  0  0  0  0
   10.6265  -14.9929   21.0992 O   0  0  0  0  0  0  0  0  0  0  0  0
    6.8886  -15.0871   20.5387 C   0  0  0  0  0  0  0  0  0  0  0  0
    6.8857  -15.1601   22.0462 C   0  0  1  0  0  0  0  0  0  0  0  0
    6.3940  -16.4224   22.4559 O   0  0  0  0  0  0  0  0  0  0  0  0
    8.2588  -15.0040   22.6297 C   0  0  2  0  0  0  0  0  0  0  0  0
    9.0550  -16.2073   22.2308 N   0  0  0  0  0  0  0  0  0  0  0  0
    8.3333  -14.8545   24.0814 C   0  0  0  0  0  0  0  0  0  0  0  0
    9.0861  -15.6543   24.7647 O   0  0  0  0  0  0  0  0  0  0  0  0
    5.6061  -12.7113   26.4853 C   0  0  0  0  0  0  0  0  0  0  0  0
    7.0643  -12.6623   26.8951 C   0  0  2  0  0  0  0  0  0  0  0  0
    7.6174  -11.3491   26.4016 C   0  0  0  0  0  0  0  0  0  0  0  0
    7.7380  -13.8597   26.3092 C   0  0  2  0  0  0  0  0  0  0  0  0
    7.6713  -13.9152   24.8665 N   0  0  0  0  0  0  0  0  0  0  0  0
    7.1783  -15.1151   26.8421 C   0  0  0  0  0  0  0  0  0  0  0  0
    7.6611  -15.7282   27.9797 O   0  0  0  0  0  0  0  0  0  0  0  0
    6.2218  -15.6593   26.2445 O   0  0  0  0  0  0  0  0  0  0  0  0
  2  1  1  6
  3  2  1  0
  4  3  1  0
  5  6  1  0
  5  4  1  0
  6  7  1  0
  8  2  1  0
  8  9  2  0
 11 10  1  6
 11 13  1  0
 12 11  1  0
 13 14  1  1
 14  8  1  0
 15 13  1  0
 16 15  2  0
 18 17  1  6
 19 18  1  0
 20 21  1  6
 20 18  1  0
 21 15  1  0
 22 20  1  0
 23 22  1  0
 24 22  2  0
M  END
$$$$
