KTV.pdb
     RDKit          3D

 24 23  0  0  1  0  0  0  0  0999 V2000
    7.5706  -16.0239   18.6409 N   0  0  0  0  0  0  0  0  0  0  0  0
    8.2695  -15.1820   19.6241 C   0  0  1  0  0  0  0  0  0  0  0  0
    7.8495  -13.7874   19.3612 C   0  0  0  0  0  0  0  0  0  0  0  0
    7.2501  -13.5484   18.0402 C   0  0  0  0  0  0  0  0  0  0  0  0
    8.0506  -13.3751   16.8258 C   0  0  0  0  0  0  0  0  0  0  0  0
    7.7785  -14.1454   15.5992 C   0  0  0  0  0  0  0  0  0  0  0  0
    8.8142  -13.7331   14.5918 N   0  0  0  0  0  0  0  0  0  0  0  0
    7.7449  -15.6386   20.9766 C   0  0  0  0  0  0  0  0  0  0  0  0
    6.7608  -16.4216   21.0552 O   0  0  0  0  0  0  0  0  0  0  0  0
    7.9381  -18.0404   22.3426 C   0  0  0  0  0  0  0  0  0  0  0  0
    8.6208  -17.2233   23.4123 C   0  0  1  0  0  0  0  0  0  0  0  0
   10.0077  -17.1547   23.1395 O   0  0  0  0  0  0  0  0  0  0  0  0
    8.1066  -15.8154   23.4729 C   0  0  2  0  0  0  0  0  0  0  0  0
    8.3544  -15.1895   22.1358 N   0  0  0  0  0  0  0  0  0  0  0  0
    8.6850  -14.9577   24.5049 C   0  0  0  0  0  0  0  0  0  0  0  0
    9.8318  -14.3968   24.2957 O   0  0  0  0  0  0  0  0  0  0  0  0
    6.4742  -13.1805   27.5737 C   0  0  0  0  0  0  0  0  0  0  0  0
    7.7110  -12.5508   26.9651 C   0  0  2  0  0  0  0  0  0  0  0  0
    7.2596  -11.7711   25.7559 C   0  0  0  0  0  0  0  0  0  0  0  0
    8.6696  -13.6521   26.6503 C   0  0  2  0  0  0  0  0  0  0  0  0
    8.1363  -14.6446   25.7450 N   0  0  0  0  0  0  0  0  0  0  0  0
    9.1255  -14.3431   27.8702 C   0  0  0  0  0  0  0  0  0  0  0  0
    9.8202  -13.7063   28.8777 O   0  0  0  0  0  0  0  0  0  0  0  0
    8.8776  -15.5626   28.0100 O   0  0  0  0  0  0  0  0  0  0  0  0
  2  1  1  6
  3  2  1  0
  4  3  1  0
  5  6  1  0
  5  4  1  0
  6  7  1  0
  8  2  1  0
  8  9  2  0
 11 10  1  6
 11 13  1  0
 12 11  1  0
 13 14  1  6
 14  8  1  0
 15 13  1  0
 16 15  2  0
 18 17  1  6
 19 18  1  0
 20 21  1  6
 20 18  1  0
 21 15  1  0
 22 20  1  0
 23 22  1  0
 24 22  2  0
M  END
$$$$
