KTV.pdb
     RDKit          3D

 24 23  0  0  1  0  0  0  0  0999 V2000
    5.8604  -19.4911   20.7970 N   0  0  0  0  0  0  0  0  0  0  0  0
    5.6192  -18.1221   21.2784 C   0  0  1  0  0  0  0  0  0  0  0  0
    4.1513  -17.9338   21.2992 C   0  0  0  0  0  0  0  0  0  0  0  0
    3.3624  -19.0786   20.8213 C   0  0  0  0  0  0  0  0  0  0  0  0
    1.9083  -19.0250   20.6540 C   0  0  0  0  0  0  0  0  0  0  0  0
    1.1259  -20.2135   20.2701 C   0  0  0  0  0  0  0  0  0  0  0  0
   -0.2995  -19.7624   20.1210 N   0  0  0  0  0  0  0  0  0  0  0  0
    6.1678  -18.1014   22.6967 C   0  0  0  0  0  0  0  0  0  0  0  0
    6.0667  -19.1126   23.4416 O   0  0  0  0  0  0  0  0  0  0  0  0
    8.2092  -19.2779   23.8486 C   0  0  0  0  0  0  0  0  0  0  0  0
    8.6866  -17.9235   24.3133 C   0  0  1  0  0  0  0  0  0  0  0  0
    9.5959  -17.3943   23.3669 O   0  0  0  0  0  0  0  0  0  0  0  0
    7.5642  -16.9384   24.4548 C   0  0  2  0  0  0  0  0  0  0  0  0
    6.7857  -16.9590   23.1764 N   0  0  0  0  0  0  0  0  0  0  0  0
    7.9456  -15.5586   24.7476 C   0  0  0  0  0  0  0  0  0  0  0  0
    8.7020  -14.9183   23.9161 O   0  0  0  0  0  0  0  0  0  0  0  0
    6.3658  -13.0070   27.8103 C   0  0  0  0  0  0  0  0  0  0  0  0
    6.9716  -12.5098   26.5132 C   0  0  2  0  0  0  0  0  0  0  0  0
    5.8508  -12.4209   25.5083 C   0  0  0  0  0  0  0  0  0  0  0  0
    8.0550  -13.4626   26.1269 C   0  0  2  0  0  0  0  0  0  0  0  0
    7.5816  -14.8012   25.8571 N   0  0  0  0  0  0  0  0  0  0  0  0
    9.1012  -13.5470   27.1622 C   0  0  0  0  0  0  0  0  0  0  0  0
    9.4259  -14.7231   27.8062 O   0  0  0  0  0  0  0  0  0  0  0  0
    9.7305  -12.5121   27.4802 O   0  0  0  0  0  0  0  0  0  0  0  0
  2  1  1  1
  3  2  1  0
  4  3  1  0
  5  6  1  0
  5  4  1  0
  6  7  1  0
  8  2  1  0
  8  9  2  0
 11 10  1  6
 11 13  1  0
 12 11  1  0
 13 14  1  6
 14  8  1  0
 15 13  1  0
 16 15  2  0
 18 17  1  1
 19 18  1  0
 20 21  1  1
 20 18  1  0
 21 15  1  0
 22 20  1  0
 23 22  1  0
 24 22  2  0
M  END
$$$$
