HAC.pdb
     RDKit          3D

 22 22  0  0  1  0  0  0  0  0999 V2000
   21.2407  -15.2945  -18.1535 N   0  0  0  0  0  0  0  0  0  0  0  0
   20.2094  -14.3212  -17.8964 C   0  0  1  0  0  0  0  0  0  0  0  0
   19.5177  -14.6150  -16.5803 C   0  0  0  0  0  0  0  0  0  0  0  0
   18.7347  -15.8775  -16.6700 C   0  0  0  0  0  0  0  0  0  0  0  0
   18.6574  -16.6900  -17.7619 C   0  0  0  0  0  0  0  0  0  0  0  0
   17.8494  -17.7130  -17.4138 N   0  0  0  0  0  0  0  0  0  0  0  0
   17.4484  -17.5363  -16.1632 C   0  0  0  0  0  0  0  0  0  0  0  0
   17.9836  -16.4118  -15.6900 N   0  0  0  0  0  0  0  0  0  0  0  0
   20.7611  -12.9479  -17.7986 C   0  0  0  0  0  0  0  0  0  0  0  0
   21.8902  -12.8104  -17.2769 O   0  0  0  0  0  0  0  0  0  0  0  0
   20.1459   -9.5452  -19.2528 C   0  0  0  0  0  0  0  0  0  0  0  0
   20.7039  -10.5073  -18.2237 C   0  0  2  0  0  0  0  0  0  0  0  0
   20.0969  -11.7906  -18.2545 N   0  0  0  0  0  0  0  0  0  0  0  0
   20.4730   -9.8745  -16.9012 C   0  0  0  0  0  0  0  0  0  0  0  0
   19.6965  -10.4376  -16.0923 O   0  0  0  0  0  0  0  0  0  0  0  0
   21.0825   -8.6691  -16.5038 N   0  0  0  0  0  0  0  0  0  0  0  0
   20.9227   -8.0639  -15.1966 C   0  0  1  0  0  0  0  0  0  0  0  0
   21.6622   -8.9613  -14.2118 C   0  0  0  0  0  0  0  0  0  0  0  0
   21.7694   -8.2199  -12.5782 S   0  0  0  0  0  0  0  0  0  0  0  0
   21.5501   -6.7175  -15.2546 C   0  0  0  0  0  0  0  0  0  0  0  0
   22.5410   -6.4628  -15.9887 O   0  0  0  0  0  0  0  0  0  0  0  0
   21.0550   -5.6716  -14.4853 O   0  0  0  0  0  0  0  0  0  0  0  0
  2  1  1  1
  2  3  1  0
  3  4  1  0
  4  5  2  0
  5  6  1  0
  7  6  1  0
  8  4  1  0
  8  7  2  0
  9 13  1  0
  9  2  1  0
 10  9  2  0
 12 11  1  6
 12 13  1  0
 12 14  1  0
 14 16  1  0
 15 14  2  0
 16 17  1  0
 17 20  1  0
 17 18  1  1
 18 19  1  0
 20 22  1  0
 21 20  2  0
M  END
$$$$
