HAC.pdb
     RDKit          3D

 22 22  0  0  1  0  0  0  0  0999 V2000
   18.1656  -13.9776  -18.1747 N   0  0  0  0  0  0  0  0  0  0  0  0
   18.1043  -13.4606  -16.8309 C   0  0  1  0  0  0  0  0  0  0  0  0
   19.3044  -13.9223  -16.0287 C   0  0  0  0  0  0  0  0  0  0  0  0
   19.2922  -15.4023  -15.8717 C   0  0  0  0  0  0  0  0  0  0  0  0
   18.5767  -16.0979  -14.9430 C   0  0  0  0  0  0  0  0  0  0  0  0
   18.8547  -17.4016  -15.1525 N   0  0  0  0  0  0  0  0  0  0  0  0
   19.7035  -17.5017  -16.1651 C   0  0  0  0  0  0  0  0  0  0  0  0
   19.9835  -16.2812  -16.6198 N   0  0  0  0  0  0  0  0  0  0  0  0
   18.1146  -11.9775  -16.8110 C   0  0  0  0  0  0  0  0  0  0  0  0
   18.9596  -11.3921  -17.5246 O   0  0  0  0  0  0  0  0  0  0  0  0
   15.9654   -9.1500  -15.5165 C   0  0  0  0  0  0  0  0  0  0  0  0
   17.1853   -9.7735  -16.1638 C   0  0  2  0  0  0  0  0  0  0  0  0
   17.2359  -11.1873  -16.0417 N   0  0  0  0  0  0  0  0  0  0  0  0
   18.3620   -9.1692  -15.4909 C   0  0  0  0  0  0  0  0  0  0  0  0
   18.9917   -9.8548  -14.6496 O   0  0  0  0  0  0  0  0  0  0  0  0
   18.8120   -7.8600  -15.7480 N   0  0  0  0  0  0  0  0  0  0  0  0
   19.9569   -7.2474  -15.1041 C   0  0  1  0  0  0  0  0  0  0  0  0
   21.1892   -7.9673  -15.6381 C   0  0  0  0  0  0  0  0  0  0  0  0
   22.7086   -7.1169  -15.1930 S   0  0  0  0  0  0  0  0  0  0  0  0
   19.9713   -5.8148  -15.5009 C   0  0  0  0  0  0  0  0  0  0  0  0
   19.5427   -5.4162  -16.6158 O   0  0  0  0  0  0  0  0  0  0  0  0
   20.4685   -4.8459  -14.6380 O   0  0  0  0  0  0  0  0  0  0  0  0
  2  1  1  6
  2  3  1  0
  3  4  1  0
  4  5  2  0
  5  6  1  0
  7  6  1  0
  8  4  1  0
  8  7  2  0
  9 13  1  0
  9  2  1  0
 10  9  2  0
 12 11  1  1
 12 13  1  0
 12 14  1  0
 14 16  1  0
 15 14  2  0
 16 17  1  0
 17 20  1  0
 17 18  1  6
 18 19  1  0
 20 22  1  0
 21 20  2  0
M  END
$$$$
