HAC.pdb
     RDKit          3D

 22 22  0  0  1  0  0  0  0  0999 V2000
   13.9810  -10.2774  -11.4191 N   0  0  0  0  0  0  0  0  0  0  0  0
   15.3259  -10.1292  -10.9229 C   0  0  1  0  0  0  0  0  0  0  0  0
   16.2971  -10.9205  -11.7759 C   0  0  0  0  0  0  0  0  0  0  0  0
   15.9870  -12.3748  -11.7113 C   0  0  0  0  0  0  0  0  0  0  0  0
   16.1857  -13.1834  -10.6320 C   0  0  0  0  0  0  0  0  0  0  0  0
   15.7725  -14.4136  -11.0018 N   0  0  0  0  0  0  0  0  0  0  0  0
   15.3393  -14.3622  -12.2530 C   0  0  0  0  0  0  0  0  0  0  0  0
   15.4640  -13.1153  -12.7053 N   0  0  0  0  0  0  0  0  0  0  0  0
   15.7723   -8.7151  -10.9571 C   0  0  0  0  0  0  0  0  0  0  0  0
   15.7702   -8.1311  -12.0638 O   0  0  0  0  0  0  0  0  0  0  0  0
   16.4603   -5.8632   -8.6201 C   0  0  0  0  0  0  0  0  0  0  0  0
   16.6292   -6.6387   -9.9108 C   0  0  2  0  0  0  0  0  0  0  0  0
   16.1976   -7.9888   -9.8257 N   0  0  0  0  0  0  0  0  0  0  0  0
   18.0777   -6.5942  -10.2309 C   0  0  0  0  0  0  0  0  0  0  0  0
   18.8622   -7.3170   -9.5704 O   0  0  0  0  0  0  0  0  0  0  0  0
   18.6213   -5.7792  -11.2423 N   0  0  0  0  0  0  0  0  0  0  0  0
   19.9884   -5.8659  -11.7159 C   0  0  1  0  0  0  0  0  0  0  0  0
   20.1136   -7.2053  -12.4314 C   0  0  0  0  0  0  0  0  0  0  0  0
   21.6470   -7.3292  -13.3604 S   0  0  0  0  0  0  0  0  0  0  0  0
   20.1981   -4.7410  -12.6649 C   0  0  0  0  0  0  0  0  0  0  0  0
   19.2847   -4.3097  -13.4169 O   0  0  0  0  0  0  0  0  0  0  0  0
   21.4343   -4.1133  -12.7572 O   0  0  0  0  0  0  0  0  0  0  0  0
  2  1  1  6
  2  3  1  0
  3  4  1  0
  4  5  2  0
  5  6  1  0
  7  6  1  0
  8  4  1  0
  8  7  2  0
  9 13  1  0
  9  2  1  0
 10  9  2  0
 12 11  1  1
 12 13  1  0
 12 14  1  0
 14 16  1  0
 15 14  2  0
 16 17  1  0
 17 20  1  0
 17 18  1  6
 18 19  1  0
 20 22  1  0
 21 20  2  0
M  END
$$$$
