HAC.pdb
     RDKit          3D

 22 22  0  0  1  0  0  0  0  0999 V2000
   19.7528  -10.4558  -14.4997 N   0  0  0  0  0  0  0  0  0  0  0  0
   19.7526   -9.8359  -15.8007 C   0  0  1  0  0  0  0  0  0  0  0  0
   18.3754   -9.9176  -16.4279 C   0  0  0  0  0  0  0  0  0  0  0  0
   18.0103  -11.3328  -16.7088 C   0  0  0  0  0  0  0  0  0  0  0  0
   18.0250  -11.9301  -17.9341 C   0  0  0  0  0  0  0  0  0  0  0  0
   17.6276  -13.2045  -17.7367 N   0  0  0  0  0  0  0  0  0  0  0  0
   17.3798  -13.3815  -16.4471 C   0  0  0  0  0  0  0  0  0  0  0  0
   17.6101  -12.2401  -15.7996 N   0  0  0  0  0  0  0  0  0  0  0  0
   20.1095   -8.3982  -15.7251 C   0  0  0  0  0  0  0  0  0  0  0  0
   19.7396   -7.7594  -14.7148 O   0  0  0  0  0  0  0  0  0  0  0  0
   22.3051   -5.9260  -17.5602 C   0  0  0  0  0  0  0  0  0  0  0  0
   21.2815   -6.3708  -16.5353 C   0  0  2  0  0  0  0  0  0  0  0  0
   20.8369   -7.7071  -16.7160 N   0  0  0  0  0  0  0  0  0  0  0  0
   20.1347   -5.4381  -16.6677 C   0  0  0  0  0  0  0  0  0  0  0  0
   19.1707   -5.7701  -17.3991 O   0  0  0  0  0  0  0  0  0  0  0  0
   20.0706   -4.1935  -16.0125 N   0  0  0  0  0  0  0  0  0  0  0  0
   18.9869   -3.2434  -16.1659 C   0  0  1  0  0  0  0  0  0  0  0  0
   18.0009   -3.5273  -15.0394 C   0  0  0  0  0  0  0  0  0  0  0  0
   16.5781   -2.4309  -15.1005 S   0  0  0  0  0  0  0  0  0  0  0  0
   19.5699   -1.8832  -16.0241 C   0  0  0  0  0  0  0  0  0  0  0  0
   18.9877   -0.8492  -16.4452 O   0  0  0  0  0  0  0  0  0  0  0  0
   20.8029   -1.7018  -15.4096 O   0  0  0  0  0  0  0  0  0  0  0  0
  2  1  1  1
  2  3  1  0
  3  4  1  0
  4  5  2  0
  5  6  1  0
  7  6  1  0
  8  4  1  0
  8  7  2  0
  9 13  1  0
  9  2  1  0
 10  9  2  0
 12 11  1  6
 12 13  1  0
 12 14  1  0
 14 16  1  0
 15 14  2  0
 16 17  1  0
 17 20  1  0
 17 18  1  1
 18 19  1  0
 20 22  1  0
 21 20  2  0
M  END
$$$$
