HAC.pdb
     RDKit          3D

 22 22  0  0  1  0  0  0  0  0999 V2000
   22.3637  -12.9598  -17.6039 N   0  0  0  0  0  0  0  0  0  0  0  0
   22.6919  -12.1589  -16.4516 C   0  0  1  0  0  0  0  0  0  0  0  0
   24.1834  -11.8965  -16.3943 C   0  0  0  0  0  0  0  0  0  0  0  0
   24.9331  -13.1694  -16.2129 C   0  0  0  0  0  0  0  0  0  0  0  0
   25.0215  -13.8825  -15.0544 C   0  0  0  0  0  0  0  0  0  0  0  0
   25.7893  -14.9571  -15.3312 N   0  0  0  0  0  0  0  0  0  0  0  0
   26.1559  -14.9058  -16.6035 C   0  0  0  0  0  0  0  0  0  0  0  0
   25.6380  -13.8124  -17.1614 N   0  0  0  0  0  0  0  0  0  0  0  0
   22.0208  -10.8368  -16.4914 C   0  0  0  0  0  0  0  0  0  0  0  0
   22.4629   -9.9839  -17.2933 O   0  0  0  0  0  0  0  0  0  0  0  0
   18.9346   -9.1458  -15.1207 C   0  0  0  0  0  0  0  0  0  0  0  0
   20.3037   -9.2034  -15.7673 C   0  0  2  0  0  0  0  0  0  0  0  0
   20.9197  -10.4802  -15.6859 N   0  0  0  0  0  0  0  0  0  0  0  0
   21.1356   -8.1988  -15.0595 C   0  0  0  0  0  0  0  0  0  0  0  0
   22.1303   -8.5949  -14.4052 O   0  0  0  0  0  0  0  0  0  0  0  0
   20.8666   -6.8169  -15.0833 N   0  0  0  0  0  0  0  0  0  0  0  0
   21.7697   -5.7991  -14.5842 C   0  0  1  0  0  0  0  0  0  0  0  0
   23.0272   -5.8798  -15.4410 C   0  0  0  0  0  0  0  0  0  0  0  0
   24.1253   -4.4863  -15.1541 S   0  0  0  0  0  0  0  0  0  0  0  0
   21.0954   -4.4862  -14.7620 C   0  0  0  0  0  0  0  0  0  0  0  0
   20.3570   -4.2320  -15.7498 O   0  0  0  0  0  0  0  0  0  0  0  0
   21.2599   -3.4730  -13.8254 O   0  0  0  0  0  0  0  0  0  0  0  0
  2  1  1  6
  2  3  1  0
  3  4  1  0
  4  5  2  0
  5  6  1  0
  7  6  1  0
  8  4  1  0
  8  7  2  0
  9 13  1  0
  9  2  1  0
 10  9  2  0
 12 11  1  1
 12 13  1  0
 12 14  1  0
 14 16  1  0
 15 14  2  0
 16 17  1  0
 17 20  1  0
 17 18  1  6
 18 19  1  0
 20 22  1  0
 21 20  2  0
M  END
$$$$
