HAC.pdb
     RDKit          3D

 22 22  0  0  1  0  0  0  0  0999 V2000
   25.0637  -14.6982  -18.7581 N   0  0  0  0  0  0  0  0  0  0  0  0
   25.9815  -13.5941  -18.6334 C   0  0  1  0  0  0  0  0  0  0  0  0
   26.0391  -12.8027  -19.9246 C   0  0  0  0  0  0  0  0  0  0  0  0
   26.7236  -13.5856  -20.9893 C   0  0  0  0  0  0  0  0  0  0  0  0
   27.9773  -14.1144  -20.9066 C   0  0  0  0  0  0  0  0  0  0  0  0
   28.2011  -14.7387  -22.0818 N   0  0  0  0  0  0  0  0  0  0  0  0
   27.1318  -14.5992  -22.8519 C   0  0  0  0  0  0  0  0  0  0  0  0
   26.2128  -13.8924  -22.1956 N   0  0  0  0  0  0  0  0  0  0  0  0
   25.5666  -12.6516  -17.5659 C   0  0  0  0  0  0  0  0  0  0  0  0
   24.3408  -12.5162  -17.3538 O   0  0  0  0  0  0  0  0  0  0  0  0
   27.0312  -10.6859  -14.7176 C   0  0  0  0  0  0  0  0  0  0  0  0
   26.0155  -10.9651  -15.8068 C   0  0  2  0  0  0  0  0  0  0  0  0
   26.4622  -11.9006  -16.7771 N   0  0  0  0  0  0  0  0  0  0  0  0
   25.7408   -9.6598  -16.4574 C   0  0  0  0  0  0  0  0  0  0  0  0
   25.2187   -8.7455  -15.7749 O   0  0  0  0  0  0  0  0  0  0  0  0
   26.0365   -9.3914  -17.8076 N   0  0  0  0  0  0  0  0  0  0  0  0
   25.7504   -8.1363  -18.4737 C   0  0  1  0  0  0  0  0  0  0  0  0
   26.9801   -7.8000  -19.3082 C   0  0  0  0  0  0  0  0  0  0  0  0
   28.4309   -7.5230  -18.2843 S   0  0  0  0  0  0  0  0  0  0  0  0
   24.5677   -8.3601  -19.3462 C   0  0  0  0  0  0  0  0  0  0  0  0
   24.0300   -7.4344  -20.0093 O   0  0  0  0  0  0  0  0  0  0  0  0
   24.0027   -9.6242  -19.4628 O   0  0  0  0  0  0  0  0  0  0  0  0
  2  1  1  6
  2  3  1  0
  3  4  1  0
  4  5  2  0
  5  6  1  0
  7  6  1  0
  8  4  1  0
  8  7  2  0
  9 13  1  0
  9  2  1  0
 10  9  2  0
 12 11  1  1
 12 13  1  0
 12 14  1  0
 14 16  1  0
 15 14  2  0
 16 17  1  0
 17 20  1  0
 17 18  1  6
 18 19  1  0
 20 22  1  0
 21 20  2  0
M  END
$$$$
