HAC.pdb
     RDKit          3D

 22 22  0  0  1  0  0  0  0  0999 V2000
   18.5097  -11.1421  -18.4843 N   0  0  0  0  0  0  0  0  0  0  0  0
   19.9389  -10.9575  -18.4921 C   0  0  1  0  0  0  0  0  0  0  0  0
   20.5262  -11.4122  -19.8131 C   0  0  0  0  0  0  0  0  0  0  0  0
   20.1556  -12.8262  -20.0926 C   0  0  0  0  0  0  0  0  0  0  0  0
   19.2786  -13.2448  -21.0487 C   0  0  0  0  0  0  0  0  0  0  0  0
   19.2380  -14.5906  -20.9594 N   0  0  0  0  0  0  0  0  0  0  0  0
   20.0541  -14.9809  -19.9911 C   0  0  0  0  0  0  0  0  0  0  0  0
   20.6271  -13.9083  -19.4469 N   0  0  0  0  0  0  0  0  0  0  0  0
   20.3104   -9.5317  -18.3208 C   0  0  0  0  0  0  0  0  0  0  0  0
   21.5287   -9.2488  -18.2814 O   0  0  0  0  0  0  0  0  0  0  0  0
   18.8172   -6.1110  -18.5475 C   0  0  0  0  0  0  0  0  0  0  0  0
   19.7851   -7.1332  -17.9869 C   0  0  2  0  0  0  0  0  0  0  0  0
   19.3815   -8.4778  -18.1998 N   0  0  0  0  0  0  0  0  0  0  0  0
   19.8738   -6.8605  -16.5308 C   0  0  0  0  0  0  0  0  0  0  0  0
   20.2743   -5.7329  -16.1533 O   0  0  0  0  0  0  0  0  0  0  0  0
   19.5305   -7.8052  -15.5448 N   0  0  0  0  0  0  0  0  0  0  0  0
   19.5956   -7.5587  -14.1180 C   0  0  1  0  0  0  0  0  0  0  0  0
   18.7087   -8.6071  -13.4577 C   0  0  0  0  0  0  0  0  0  0  0  0
   18.8526   -8.5761  -11.6665 S   0  0  0  0  0  0  0  0  0  0  0  0
   21.0130   -7.7332  -13.7050 C   0  0  0  0  0  0  0  0  0  0  0  0
   21.7425   -8.6540  -14.1585 O   0  0  0  0  0  0  0  0  0  0  0  0
   21.5942   -6.8687  -12.7854 O   0  0  0  0  0  0  0  0  0  0  0  0
  2  1  1  6
  2  3  1  0
  3  4  1  0
  4  5  2  0
  5  6  1  0
  7  6  1  0
  8  4  1  0
  8  7  2  0
  9 13  1  0
  9  2  1  0
 10  9  2  0
 12 11  1  1
 12 13  1  0
 12 14  1  0
 14 16  1  0
 15 14  2  0
 16 17  1  0
 17 20  1  0
 17 18  1  1
 18 19  1  0
 20 22  1  0
 21 20  2  0
M  END
$$$$
