HAC.pdb
     RDKit          3D

 22 22  0  0  1  0  0  0  0  0999 V2000
   24.8635  -31.7444   -9.1176 N   0  0  0  0  0  0  0  0  0  0  0  0
   24.9716  -33.1679   -8.9203 C   0  0  1  0  0  0  0  0  0  0  0  0
   26.2347  -33.6995   -9.5675 C   0  0  0  0  0  0  0  0  0  0  0  0
   26.1490  -33.5936  -11.0496 C   0  0  0  0  0  0  0  0  0  0  0  0
   27.0135  -32.9072  -11.8495 C   0  0  0  0  0  0  0  0  0  0  0  0
   26.5698  -33.0728  -13.1131 N   0  0  0  0  0  0  0  0  0  0  0  0
   25.4809  -33.8276  -13.0897 C   0  0  0  0  0  0  0  0  0  0  0  0
   25.2075  -34.1571  -11.8281 N   0  0  0  0  0  0  0  0  0  0  0  0
   25.0412  -33.5201   -7.4812 C   0  0  0  0  0  0  0  0  0  0  0  0
   25.7479  -32.8012   -6.7399 O   0  0  0  0  0  0  0  0  0  0  0  0
   23.2523  -35.7395   -5.0178 C   0  0  0  0  0  0  0  0  0  0  0  0
   24.3814  -34.8500   -5.4970 C   0  0  2  0  0  0  0  0  0  0  0  0
   24.3639  -34.6100   -6.8965 N   0  0  0  0  0  0  0  0  0  0  0  0
   25.6389  -35.5436   -5.1225 C   0  0  0  0  0  0  0  0  0  0  0  0
   26.3002  -36.1171   -6.0214 O   0  0  0  0  0  0  0  0  0  0  0  0
   26.1320  -35.5925   -3.8046 N   0  0  0  0  0  0  0  0  0  0  0  0
   27.4748  -36.0057   -3.4486 C   0  0  1  0  0  0  0  0  0  0  0  0
   28.4180  -34.9650   -4.0395 C   0  0  0  0  0  0  0  0  0  0  0  0
   30.1183  -35.2287   -3.5206 S   0  0  0  0  0  0  0  0  0  0  0  0
   27.5565  -36.0071   -1.9642 C   0  0  0  0  0  0  0  0  0  0  0  0
   26.9797  -35.1426   -1.2531 O   0  0  0  0  0  0  0  0  0  0  0  0
   28.2869  -36.9821   -1.2960 O   0  0  0  0  0  0  0  0  0  0  0  0
  2  1  1  1
  2  3  1  0
  3  4  1  0
  4  5  2  0
  5  6  1  0
  7  6  1  0
  8  4  1  0
  8  7  2  0
  9 13  1  0
  9  2  1  0
 10  9  2  0
 12 11  1  6
 12 13  1  0
 12 14  1  0
 14 16  1  0
 15 14  2  0
 16 17  1  0
 17 20  1  0
 17 18  1  6
 18 19  1  0
 20 22  1  0
 21 20  2  0
M  END
$$$$
