HAC.pdb
     RDKit          3D

 22 22  0  0  1  0  0  0  0  0999 V2000
   21.6877   -9.0121  -14.6013 N   0  0  0  0  0  0  0  0  0  0  0  0
   21.0501   -8.5952  -15.8246 C   0  0  1  0  0  0  0  0  0  0  0  0
   19.6201   -9.0946  -15.8754 C   0  0  0  0  0  0  0  0  0  0  0  0
   19.5866  -10.5778  -15.9946 C   0  0  0  0  0  0  0  0  0  0  0  0
   20.4619  -11.3383  -16.7115 C   0  0  0  0  0  0  0  0  0  0  0  0
   20.0699  -12.6190  -16.5477 N   0  0  0  0  0  0  0  0  0  0  0  0
   19.0011  -12.6435  -15.7648 C   0  0  0  0  0  0  0  0  0  0  0  0
   18.6898  -11.3962  -15.4151 N   0  0  0  0  0  0  0  0  0  0  0  0
   20.9972   -7.1175  -15.9417 C   0  0  0  0  0  0  0  0  0  0  0  0
   20.8851   -6.4542  -14.8866 O   0  0  0  0  0  0  0  0  0  0  0  0
   21.4396   -4.4469  -18.5868 C   0  0  0  0  0  0  0  0  0  0  0  0
   21.0901   -4.9958  -17.2183 C   0  0  2  0  0  0  0  0  0  0  0  0
   21.0650   -6.4144  -17.1621 N   0  0  0  0  0  0  0  0  0  0  0  0
   19.7470   -4.4566  -16.8896 C   0  0  0  0  0  0  0  0  0  0  0  0
   18.7598   -5.2295  -16.9400 O   0  0  0  0  0  0  0  0  0  0  0  0
   19.5204   -3.1164  -16.5222 N   0  0  0  0  0  0  0  0  0  0  0  0
   18.2137   -2.5540  -16.2453 C   0  0  1  0  0  0  0  0  0  0  0  0
   17.7221   -3.2144  -14.9630 C   0  0  0  0  0  0  0  0  0  0  0  0
   16.2694   -2.3911  -14.2984 S   0  0  0  0  0  0  0  0  0  0  0  0
   18.3961   -1.0920  -16.0475 C   0  0  0  0  0  0  0  0  0  0  0  0
   17.4496   -0.2694  -16.1622 O   0  0  0  0  0  0  0  0  0  0  0  0
   19.6427   -0.5714  -15.7224 O   0  0  0  0  0  0  0  0  0  0  0  0
  2  1  1  1
  2  3  1  0
  3  4  1  0
  4  5  2  0
  5  6  1  0
  7  6  1  0
  8  4  1  0
  8  7  2  0
  9 13  1  0
  9  2  1  0
 10  9  2  0
 12 11  1  6
 12 13  1  0
 12 14  1  0
 14 16  1  0
 15 14  2  0
 16 17  1  0
 17 20  1  0
 17 18  1  1
 18 19  1  0
 20 22  1  0
 21 20  2  0
M  END
$$$$
