LHD.pdb
     RDKit          3D

 27 27  0  0  1  0  0  0  0  0999 V2000
    7.7865  -12.0759   18.8597 C   0  0  0  0  0  0  0  0  0  0  0  0
    8.4528  -13.0257   19.8279 C   0  0  1  0  0  0  0  0  0  0  0  0
    8.0947  -12.5948   21.2340 C   0  0  0  0  0  0  0  0  0  0  0  0
    7.9629  -14.4466   19.6483 C   0  0  0  0  0  0  0  0  0  0  0  0
    8.7247  -15.4272   20.4790 C   0  0  2  0  0  0  0  0  0  0  0  0
    8.8512  -15.0460   21.8651 N   0  0  0  0  0  0  0  0  0  0  0  0
   10.0451  -15.6507   19.8359 C   0  0  0  0  0  0  0  0  0  0  0  0
   10.0531  -16.3246   18.7743 O   0  0  0  0  0  0  0  0  0  0  0  0
   11.2601  -15.1643   20.3330 N   0  0  0  0  0  0  0  0  0  0  0  0
   12.5509  -15.4288   19.7328 C   0  0  1  0  0  0  0  0  0  0  0  0
   13.2238  -14.1789   19.2593 C   0  0  0  0  0  0  0  0  0  0  0  0
   14.3997  -14.5299   18.4208 C   0  0  0  0  0  0  0  0  0  0  0  0
   14.7274  -15.8295   18.0398 C   0  0  0  0  0  0  0  0  0  0  0  0
   15.8450  -15.8157   17.2866 N   0  0  0  0  0  0  0  0  0  0  0  0
   16.2057  -14.5303   17.2010 C   0  0  0  0  0  0  0  0  0  0  0  0
   15.3349  -13.7436   17.8857 N   0  0  0  0  0  0  0  0  0  0  0  0
   13.3392  -16.2531   20.6356 C   0  0  0  0  0  0  0  0  0  0  0  0
   13.4140  -15.9450   21.8490 O   0  0  0  0  0  0  0  0  0  0  0  0
   14.0559  -17.4298   20.2091 N   0  0  0  0  0  0  0  0  0  0  0  0
   14.8638  -18.1961   21.1202 C   0  0  1  0  0  0  0  0  0  0  0  0
   14.3358  -19.5676   21.3447 C   0  0  0  0  0  0  0  0  0  0  0  0
   15.0314  -20.2192   22.4559 C   0  0  0  0  0  0  0  0  0  0  0  0
   15.8881  -19.5917   23.1118 O   0  0  0  0  0  0  0  0  0  0  0  0
   16.2877  -18.2192   20.6545 C   0  0  0  0  0  0  0  0  0  0  0  0
   16.5929  -18.6536   19.5168 O   0  0  0  0  0  0  0  0  0  0  0  0
   14.7495  -21.5431   22.7967 O   0  0  0  0  0  0  0  0  0  0  0  0
   17.3268  -17.7636   21.4564 O   0  0  0  0  0  0  0  0  0  0  0  0
  2  4  1  0
  2  1  1  6
  3  2  1  0
  5  4  1  0
  5  6  1  1
  7  8  2  0
  7  5  1  0
  9  7  1  0
 10  9  1  0
 10 11  1  1
 12 11  1  0
 13 12  2  0
 14 13  1  0
 14 15  1  0
 15 16  2  0
 16 12  1  0
 17 18  2  0
 17 10  1  0
 19 17  1  0
 20 21  1  6
 20 19  1  0
 21 22  1  0
 22 26  1  0
 22 23  2  0
 24 20  1  0
 25 24  2  0
 27 24  1  0
M  END
$$$$
