LHD.pdb
     RDKit          3D

 27 27  0  0  1  0  0  0  0  0999 V2000
    5.1141  -12.0232   26.9734 C   0  0  0  0  0  0  0  0  0  0  0  0
    6.2089  -11.9606   25.9338 C   0  0  1  0  0  0  0  0  0  0  0  0
    7.3354  -11.1131   26.4848 C   0  0  0  0  0  0  0  0  0  0  0  0
    6.7760  -13.3311   25.6316 C   0  0  0  0  0  0  0  0  0  0  0  0
    7.9790  -13.2739   24.7477 C   0  0  2  0  0  0  0  0  0  0  0  0
    7.8766  -12.3061   23.6821 N   0  0  0  0  0  0  0  0  0  0  0  0
    8.2437  -14.6439   24.2375 C   0  0  0  0  0  0  0  0  0  0  0  0
    7.6129  -15.5850   24.7831 O   0  0  0  0  0  0  0  0  0  0  0  0
    9.1383  -14.9442   23.2034 N   0  0  0  0  0  0  0  0  0  0  0  0
    9.4515  -16.2867   22.7607 C   0  0  1  0  0  0  0  0  0  0  0  0
    9.6879  -16.3573   21.2848 C   0  0  0  0  0  0  0  0  0  0  0  0
    8.7773  -15.4132   20.5858 C   0  0  0  0  0  0  0  0  0  0  0  0
    7.8435  -14.6058   21.2320 C   0  0  0  0  0  0  0  0  0  0  0  0
    7.1744  -13.8669   20.3249 N   0  0  0  0  0  0  0  0  0  0  0  0
    7.6832  -14.2090   19.1359 C   0  0  0  0  0  0  0  0  0  0  0  0
    8.6558  -15.1460   19.2847 N   0  0  0  0  0  0  0  0  0  0  0  0
   10.5210  -16.8261   23.5861 C   0  0  0  0  0  0  0  0  0  0  0  0
   11.5244  -17.3427   23.0393 O   0  0  0  0  0  0  0  0  0  0  0  0
   10.4957  -16.8017   25.0280 N   0  0  0  0  0  0  0  0  0  0  0  0
   10.8143  -17.9661   25.8107 C   0  0  1  0  0  0  0  0  0  0  0  0
    9.8333  -19.0684   25.6293 C   0  0  0  0  0  0  0  0  0  0  0  0
   10.2517  -20.2650   26.3615 C   0  0  0  0  0  0  0  0  0  0  0  0
   11.3150  -20.2587   27.0151 O   0  0  0  0  0  0  0  0  0  0  0  0
   12.2140  -18.4160   25.5218 C   0  0  0  0  0  0  0  0  0  0  0  0
   12.8416  -17.9874   24.5225 O   0  0  0  0  0  0  0  0  0  0  0  0
    9.4735  -21.4235   26.3403 O   0  0  0  0  0  0  0  0  0  0  0  0
   12.8750  -19.3217   26.3423 O   0  0  0  0  0  0  0  0  0  0  0  0
  2  4  1  0
  2  1  1  1
  3  2  1  0
  5  4  1  0
  5  6  1  6
  7  8  2  0
  7  5  1  0
  9  7  1  0
 10  9  1  0
 10 11  1  6
 12 11  1  0
 13 12  2  0
 14 13  1  0
 14 15  1  0
 15 16  2  0
 16 12  1  0
 17 18  2  0
 17 10  1  0
 19 17  1  0
 20 21  1  6
 20 19  1  0
 21 22  1  0
 22 26  1  0
 22 23  2  0
 24 20  1  0
 25 24  2  0
 27 24  1  0
M  END
$$$$
