LHD.pdb
     RDKit          3D

 27 27  0  0  1  0  0  0  0  0999 V2000
    6.6776  -12.8906   18.8433 C   0  0  0  0  0  0  0  0  0  0  0  0
    8.1443  -13.2352   18.9590 C   0  0  1  0  0  0  0  0  0  0  0  0
    8.9038  -11.9659   19.2798 C   0  0  0  0  0  0  0  0  0  0  0  0
    8.4040  -14.2173   20.0812 C   0  0  0  0  0  0  0  0  0  0  0  0
    9.8610  -14.4325   20.3318 C   0  0  2  0  0  0  0  0  0  0  0  0
   10.6939  -14.2004   19.1763 N   0  0  0  0  0  0  0  0  0  0  0  0
   10.0382  -15.7997   20.8854 C   0  0  0  0  0  0  0  0  0  0  0  0
    9.2934  -16.1248   21.8450 O   0  0  0  0  0  0  0  0  0  0  0  0
   10.9688  -16.7315   20.4106 N   0  0  0  0  0  0  0  0  0  0  0  0
   11.1208  -18.0721   20.9358 C   0  0  1  0  0  0  0  0  0  0  0  0
   11.3545  -19.0818   19.8563 C   0  0  0  0  0  0  0  0  0  0  0  0
   10.1252  -19.2297   19.0341 C   0  0  0  0  0  0  0  0  0  0  0  0
    8.8439  -18.9132   19.4807 C   0  0  0  0  0  0  0  0  0  0  0  0
    7.9474  -19.1580   18.5045 N   0  0  0  0  0  0  0  0  0  0  0  0
    8.6589  -19.6185   17.4694 C   0  0  0  0  0  0  0  0  0  0  0  0
    9.9803  -19.6652   17.7817 N   0  0  0  0  0  0  0  0  0  0  0  0
   12.1135  -18.0605   21.9989 C   0  0  0  0  0  0  0  0  0  0  0  0
   12.3720  -19.1212   22.6160 O   0  0  0  0  0  0  0  0  0  0  0  0
   12.8343  -16.8756   22.3945 N   0  0  0  0  0  0  0  0  0  0  0  0
   13.7782  -16.8905   23.4803 C   0  0  1  0  0  0  0  0  0  0  0  0
   14.7588  -15.7756   23.4068 C   0  0  0  0  0  0  0  0  0  0  0  0
   15.5710  -15.8741   22.1929 C   0  0  0  0  0  0  0  0  0  0  0  0
   15.6223  -16.9486   21.5600 O   0  0  0  0  0  0  0  0  0  0  0  0
   13.0558  -16.9084   24.7929 C   0  0  0  0  0  0  0  0  0  0  0  0
   13.6734  -17.0772   25.8729 O   0  0  0  0  0  0  0  0  0  0  0  0
   16.2955  -14.7756   21.7275 O   0  0  0  0  0  0  0  0  0  0  0  0
   11.6790  -16.7400   24.8722 O   0  0  0  0  0  0  0  0  0  0  0  0
  2  4  1  0
  2  1  1  1
  3  2  1  0
  5  4  1  0
  5  6  1  6
  7  8  2  0
  7  5  1  0
  9  7  1  0
 10  9  1  0
 10 11  1  6
 12 11  1  0
 13 12  2  0
 14 13  1  0
 14 15  1  0
 15 16  2  0
 16 12  1  0
 17 18  2  0
 17 10  1  0
 19 17  1  0
 20 21  1  1
 20 19  1  0
 21 22  1  0
 22 26  1  0
 22 23  2  0
 24 20  1  0
 25 24  2  0
 27 24  1  0
M  END
$$$$
