LHD.pdb
     RDKit          3D

 27 27  0  0  1  0  0  0  0  0999 V2000
    5.4814  -11.0042   26.5704 C   0  0  0  0  0  0  0  0  0  0  0  0
    6.7103  -11.8806   26.4986 C   0  0  1  0  0  0  0  0  0  0  0  0
    7.3802  -11.8667   27.8558 C   0  0  0  0  0  0  0  0  0  0  0  0
    6.3578  -13.3177   26.1795 C   0  0  0  0  0  0  0  0  0  0  0  0
    7.5633  -14.1898   26.0457 C   0  0  2  0  0  0  0  0  0  0  0  0
    8.8145  -13.4762   26.1365 N   0  0  0  0  0  0  0  0  0  0  0  0
    7.4437  -14.9530   24.7768 C   0  0  0  0  0  0  0  0  0  0  0  0
    6.4555  -15.7230   24.6681 O   0  0  0  0  0  0  0  0  0  0  0  0
    8.3500  -14.8675   23.7132 N   0  0  0  0  0  0  0  0  0  0  0  0
    8.3136  -15.7165   22.5410 C   0  0  1  0  0  0  0  0  0  0  0  0
    8.4552  -14.9377   21.2711 C   0  0  0  0  0  0  0  0  0  0  0  0
    8.2869  -15.8447   20.1057 C   0  0  0  0  0  0  0  0  0  0  0  0
    7.3375  -16.8623   20.0387 C   0  0  0  0  0  0  0  0  0  0  0  0
    7.4390  -17.5035   18.8575 N   0  0  0  0  0  0  0  0  0  0  0  0
    8.4339  -16.8951   18.2019 C   0  0  0  0  0  0  0  0  0  0  0  0
    8.9537  -15.8881   18.9513 N   0  0  0  0  0  0  0  0  0  0  0  0
    9.2627  -16.8060   22.7089 C   0  0  0  0  0  0  0  0  0  0  0  0
    9.3234  -17.7127   21.8446 O   0  0  0  0  0  0  0  0  0  0  0  0
   10.1579  -16.9081   23.8350 N   0  0  0  0  0  0  0  0  0  0  0  0
   11.1223  -17.9704   23.9419 C   0  0  1  0  0  0  0  0  0  0  0  0
   12.5197  -17.4724   24.0404 C   0  0  0  0  0  0  0  0  0  0  0  0
   12.9060  -16.7577   22.8225 C   0  0  0  0  0  0  0  0  0  0  0  0
   12.1428  -16.7463   21.8350 O   0  0  0  0  0  0  0  0  0  0  0  0
   10.7730  -18.8725   25.0860 C   0  0  0  0  0  0  0  0  0  0  0  0
   11.4228  -19.9238   25.3073 O   0  0  0  0  0  0  0  0  0  0  0  0
   14.1254  -16.0828   22.7473 O   0  0  0  0  0  0  0  0  0  0  0  0
    9.7208  -18.5871   25.9474 O   0  0  0  0  0  0  0  0  0  0  0  0
  2  4  1  0
  2  1  1  1
  3  2  1  0
  5  4  1  0
  5  6  1  6
  7  8  2  0
  7  5  1  0
  9  7  1  0
 10  9  1  0
 10 11  1  6
 12 11  1  0
 13 12  2  0
 14 13  1  0
 14 15  1  0
 15 16  2  0
 16 12  1  0
 17 18  2  0
 17 10  1  0
 19 17  1  0
 20 21  1  1
 20 19  1  0
 21 22  1  0
 22 26  1  0
 22 23  2  0
 24 20  1  0
 25 24  2  0
 27 24  1  0
M  END
$$$$
