LHD.pdb
     RDKit          3D

 27 27  0  0  1  0  0  0  0  0999 V2000
    5.8607  -11.7193   26.9270 C   0  0  0  0  0  0  0  0  0  0  0  0
    6.9515  -12.7096   26.5910 C   0  0  1  0  0  0  0  0  0  0  0  0
    7.7567  -12.9690   27.8461 C   0  0  0  0  0  0  0  0  0  0  0  0
    6.3845  -14.0357   26.1315 C   0  0  0  0  0  0  0  0  0  0  0  0
    7.4337  -14.9568   25.5999 C   0  0  2  0  0  0  0  0  0  0  0  0
    8.7554  -14.7001   26.1195 N   0  0  0  0  0  0  0  0  0  0  0  0
    7.3929  -14.8972   24.1161 C   0  0  0  0  0  0  0  0  0  0  0  0
    6.3018  -15.1928   23.5654 O   0  0  0  0  0  0  0  0  0  0  0  0
    8.4784  -14.5377   23.3083 N   0  0  0  0  0  0  0  0  0  0  0  0
    8.5101  -14.6929   21.8691 C   0  0  1  0  0  0  0  0  0  0  0  0
    8.5979  -13.3791   21.1581 C   0  0  0  0  0  0  0  0  0  0  0  0
    8.4694  -13.5929   19.6929 C   0  0  0  0  0  0  0  0  0  0  0  0
    7.2892  -13.4047   18.9766 C   0  0  0  0  0  0  0  0  0  0  0  0
    7.4976  -13.6804   17.6738 N   0  0  0  0  0  0  0  0  0  0  0  0
    8.7847  -14.0336   17.5820 C   0  0  0  0  0  0  0  0  0  0  0  0
    9.3815  -13.9834   18.8015 N   0  0  0  0  0  0  0  0  0  0  0  0
    9.5374  -15.6596   21.5140 C   0  0  0  0  0  0  0  0  0  0  0  0
   10.6925  -15.5371   21.9867 O   0  0  0  0  0  0  0  0  0  0  0  0
    9.3016  -16.7753   20.6310 N   0  0  0  0  0  0  0  0  0  0  0  0
   10.3548  -17.6819   20.2584 C   0  0  1  0  0  0  0  0  0  0  0  0
    9.9402  -19.1078   20.3308 C   0  0  0  0  0  0  0  0  0  0  0  0
   10.0822  -19.6240   21.6933 C   0  0  0  0  0  0  0  0  0  0  0  0
   11.1471  -19.4499   22.3205 O   0  0  0  0  0  0  0  0  0  0  0  0
   10.8871  -17.3269   18.9036 C   0  0  0  0  0  0  0  0  0  0  0  0
   11.8362  -17.9681   18.3893 O   0  0  0  0  0  0  0  0  0  0  0  0
    9.0361  -20.3141   22.3078 O   0  0  0  0  0  0  0  0  0  0  0  0
   10.3570  -16.2790   18.1612 O   0  0  0  0  0  0  0  0  0  0  0  0
  2  4  1  0
  2  1  1  1
  3  2  1  0
  5  4  1  0
  5  6  1  1
  7  8  2  0
  7  5  1  0
  9  7  1  0
 10  9  1  0
 10 11  1  6
 12 11  1  0
 13 12  2  0
 14 13  1  0
 14 15  1  0
 15 16  2  0
 16 12  1  0
 17 18  2  0
 17 10  1  0
 19 17  1  0
 20 21  1  6
 20 19  1  0
 21 22  1  0
 22 26  1  0
 22 23  2  0
 24 20  1  0
 25 24  2  0
 27 24  1  0
M  END
$$$$
