LHD.pdb
     RDKit          3D

 27 27  0  0  1  0  0  0  0  0999 V2000
    9.3419  -13.7213   28.5498 C   0  0  0  0  0  0  0  0  0  0  0  0
    8.0958  -14.2704   27.8947 C   0  0  1  0  0  0  0  0  0  0  0  0
    7.3906  -13.1306   27.1914 C   0  0  0  0  0  0  0  0  0  0  0  0
    8.4241  -15.3161   26.8506 C   0  0  0  0  0  0  0  0  0  0  0  0
    7.2065  -15.8544   26.1727 C   0  0  2  0  0  0  0  0  0  0  0  0
    6.7058  -17.0770   26.7535 N   0  0  0  0  0  0  0  0  0  0  0  0
    7.5104  -16.0039   24.7262 C   0  0  0  0  0  0  0  0  0  0  0  0
    7.9504  -17.1204   24.3507 O   0  0  0  0  0  0  0  0  0  0  0  0
    7.3390  -14.9932   23.7728 N   0  0  0  0  0  0  0  0  0  0  0  0
    7.7732  -15.0902   22.3950 C   0  0  1  0  0  0  0  0  0  0  0  0
    7.1758  -14.0215   21.5347 C   0  0  0  0  0  0  0  0  0  0  0  0
    7.5802  -14.2326   20.1202 C   0  0  0  0  0  0  0  0  0  0  0  0
    8.1839  -13.2593   19.3267 C   0  0  0  0  0  0  0  0  0  0  0  0
    8.4253  -13.7580   18.0980 N   0  0  0  0  0  0  0  0  0  0  0  0
    7.9795  -15.0190   18.1273 C   0  0  0  0  0  0  0  0  0  0  0  0
    7.4655  -15.3153   19.3495 N   0  0  0  0  0  0  0  0  0  0  0  0
    9.2246  -15.1787   22.3551 C   0  0  0  0  0  0  0  0  0  0  0  0
    9.9065  -14.5493   23.1987 O   0  0  0  0  0  0  0  0  0  0  0  0
    9.9422  -15.9645   21.3816 N   0  0  0  0  0  0  0  0  0  0  0  0
   11.3657  -16.1569   21.4644 C   0  0  1  0  0  0  0  0  0  0  0  0
   11.7979  -16.7036   22.7776 C   0  0  0  0  0  0  0  0  0  0  0  0
   13.2417  -16.9449   22.7927 C   0  0  0  0  0  0  0  0  0  0  0  0
   13.9386  -16.6326   21.8055 O   0  0  0  0  0  0  0  0  0  0  0  0
   11.8392  -17.0083   20.3261 C   0  0  0  0  0  0  0  0  0  0  0  0
   11.0620  -17.8007   19.7394 O   0  0  0  0  0  0  0  0  0  0  0  0
   13.8571  -17.5240   23.9037 O   0  0  0  0  0  0  0  0  0  0  0  0
   13.1515  -16.9587   19.8724 O   0  0  0  0  0  0  0  0  0  0  0  0
  2  4  1  0
  2  1  1  6
  3  2  1  0
  5  4  1  0
  5  6  1  1
  7  8  2  0
  7  5  1  0
  9  7  1  0
 10  9  1  0
 10 11  1  6
 12 11  1  0
 13 12  2  0
 14 13  1  0
 14 15  1  0
 15 16  2  0
 16 12  1  0
 17 18  2  0
 17 10  1  0
 19 17  1  0
 20 21  1  1
 20 19  1  0
 21 22  1  0
 22 26  1  0
 22 23  2  0
 24 20  1  0
 25 24  2  0
 27 24  1  0
M  END
$$$$
