LHD.pdb
     RDKit          3D

 27 27  0  0  1  0  0  0  0  0999 V2000
    6.7136  -12.9476   18.6162 C   0  0  0  0  0  0  0  0  0  0  0  0
    8.1959  -13.0967   18.8695 C   0  0  1  0  0  0  0  0  0  0  0  0
    8.7025  -11.8078   19.4803 C   0  0  0  0  0  0  0  0  0  0  0  0
    8.4890  -14.2117   19.8504 C   0  0  0  0  0  0  0  0  0  0  0  0
    9.9375  -14.2998   20.2052 C   0  0  2  0  0  0  0  0  0  0  0  0
   10.8206  -13.7668   19.1958 N   0  0  0  0  0  0  0  0  0  0  0  0
   10.2485  -15.7154   20.5317 C   0  0  0  0  0  0  0  0  0  0  0  0
    9.4796  -16.2936   21.3414 O   0  0  0  0  0  0  0  0  0  0  0  0
   11.3280  -16.4314   20.0008 N   0  0  0  0  0  0  0  0  0  0  0  0
   11.5655  -17.8403   20.2346 C   0  0  1  0  0  0  0  0  0  0  0  0
   11.6731  -18.6172   18.9601 C   0  0  0  0  0  0  0  0  0  0  0  0
   10.4773  -18.3616   18.1152 C   0  0  0  0  0  0  0  0  0  0  0  0
    9.1636  -18.5044   18.5571 C   0  0  0  0  0  0  0  0  0  0  0  0
    8.3110  -18.2007   17.5585 N   0  0  0  0  0  0  0  0  0  0  0  0
    9.0812  -17.8748   16.5142 C   0  0  0  0  0  0  0  0  0  0  0  0
   10.3960  -17.9696   16.8429 N   0  0  0  0  0  0  0  0  0  0  0  0
   12.6865  -17.9919   21.1492 C   0  0  0  0  0  0  0  0  0  0  0  0
   13.8179  -18.2896   20.6976 O   0  0  0  0  0  0  0  0  0  0  0  0
   12.5717  -17.8164   22.5761 N   0  0  0  0  0  0  0  0  0  0  0  0
   13.7221  -17.5663   23.4032 C   0  0  1  0  0  0  0  0  0  0  0  0
   14.5667  -16.4535   22.8944 C   0  0  0  0  0  0  0  0  0  0  0  0
   15.9778  -16.6836   23.2089 C   0  0  0  0  0  0  0  0  0  0  0  0
   16.3841  -17.8381   23.4537 O   0  0  0  0  0  0  0  0  0  0  0  0
   13.2986  -17.3373   24.8221 C   0  0  0  0  0  0  0  0  0  0  0  0
   12.2116  -16.7706   25.0930 O   0  0  0  0  0  0  0  0  0  0  0  0
   16.8845  -15.6228   23.2396 O   0  0  0  0  0  0  0  0  0  0  0  0
   14.0856  -17.7396   25.8941 O   0  0  0  0  0  0  0  0  0  0  0  0
  2  4  1  0
  2  1  1  1
  3  2  1  0
  5  4  1  0
  5  6  1  6
  7  8  2  0
  7  5  1  0
  9  7  1  0
 10  9  1  0
 10 11  1  6
 12 11  1  0
 13 12  2  0
 14 13  1  0
 14 15  1  0
 15 16  2  0
 16 12  1  0
 17 18  2  0
 17 10  1  0
 19 17  1  0
 20 21  1  6
 20 19  1  0
 21 22  1  0
 22 26  1  0
 22 23  2  0
 24 20  1  0
 25 24  2  0
 27 24  1  0
M  END
$$$$
