LHD.pdb
     RDKit          3D

 27 27  0  0  1  0  0  0  0  0999 V2000
    7.7112  -12.2029   27.1103 C   0  0  0  0  0  0  0  0  0  0  0  0
    6.5274  -12.8587   26.4381 C   0  0  1  0  0  0  0  0  0  0  0  0
    5.3719  -11.8812   26.4580 C   0  0  0  0  0  0  0  0  0  0  0  0
    6.8169  -13.1921   24.9902 C   0  0  0  0  0  0  0  0  0  0  0  0
    6.3071  -14.5403   24.5973 C   0  0  2  0  0  0  0  0  0  0  0  0
    5.7008  -15.2753   25.6812 N   0  0  0  0  0  0  0  0  0  0  0  0
    7.4230  -15.2908   23.9659 C   0  0  0  0  0  0  0  0  0  0  0  0
    7.5842  -16.4831   24.3314 O   0  0  0  0  0  0  0  0  0  0  0  0
    8.2907  -14.7587   23.0047 N   0  0  0  0  0  0  0  0  0  0  0  0
    9.3267  -15.5156   22.3337 C   0  0  1  0  0  0  0  0  0  0  0  0
    9.7572  -14.8758   21.0513 C   0  0  0  0  0  0  0  0  0  0  0  0
    8.5653  -14.5792   20.2145 C   0  0  0  0  0  0  0  0  0  0  0  0
    8.2323  -13.3078   19.7519 C   0  0  0  0  0  0  0  0  0  0  0  0
    7.0997  -13.3695   19.0240 N   0  0  0  0  0  0  0  0  0  0  0  0
    6.7351  -14.6566   19.0339 C   0  0  0  0  0  0  0  0  0  0  0  0
    7.6180  -15.3973   19.7534 N   0  0  0  0  0  0  0  0  0  0  0  0
   10.3986  -15.7996   23.2751 C   0  0  0  0  0  0  0  0  0  0  0  0
   10.2275  -15.5692   24.4958 O   0  0  0  0  0  0  0  0  0  0  0  0
   11.6750  -16.3423   22.8795 N   0  0  0  0  0  0  0  0  0  0  0  0
   12.4371  -17.1970   23.7505 C   0  0  1  0  0  0  0  0  0  0  0  0
   11.6746  -18.3930   24.1960 C   0  0  0  0  0  0  0  0  0  0  0  0
   11.5564  -18.4229   25.6548 C   0  0  0  0  0  0  0  0  0  0  0  0
   12.1871  -17.6007   26.3506 O   0  0  0  0  0  0  0  0  0  0  0  0
   13.7323  -17.5758   23.0993 C   0  0  0  0  0  0  0  0  0  0  0  0
   13.7661  -18.0055   21.9201 O   0  0  0  0  0  0  0  0  0  0  0  0
   10.7421  -19.3646   26.2860 O   0  0  0  0  0  0  0  0  0  0  0  0
   14.9456  -17.4690   23.7677 O   0  0  0  0  0  0  0  0  0  0  0  0
  2  4  1  0
  2  1  1  6
  3  2  1  0
  5  4  1  0
  5  6  1  1
  7  8  2  0
  7  5  1  0
  9  7  1  0
 10  9  1  0
 10 11  1  6
 12 11  1  0
 13 12  2  0
 14 13  1  0
 14 15  1  0
 15 16  2  0
 16 12  1  0
 17 18  2  0
 17 10  1  0
 19 17  1  0
 20 21  1  6
 20 19  1  0
 21 22  1  0
 22 26  1  0
 22 23  2  0
 24 20  1  0
 25 24  2  0
 27 24  1  0
M  END
$$$$
