LHD.pdb
     RDKit          3D

 27 27  0  0  1  0  0  0  0  0999 V2000
    5.0801  -11.3065   26.2094 C   0  0  0  0  0  0  0  0  0  0  0  0
    6.3419  -12.1302   26.0961 C   0  0  1  0  0  0  0  0  0  0  0  0
    7.3240  -11.6351   27.1360 C   0  0  0  0  0  0  0  0  0  0  0  0
    6.0834  -13.5954   26.3749 C   0  0  0  0  0  0  0  0  0  0  0  0
    7.2917  -14.4453   26.1524 C   0  0  2  0  0  0  0  0  0  0  0  0
    8.5405  -13.7555   26.3707 N   0  0  0  0  0  0  0  0  0  0  0  0
    7.2033  -15.0269   24.7882 C   0  0  0  0  0  0  0  0  0  0  0  0
    6.2355  -15.7968   24.5606 O   0  0  0  0  0  0  0  0  0  0  0  0
    8.1175  -14.7731   23.7588 N   0  0  0  0  0  0  0  0  0  0  0  0
    8.3089  -15.6315   22.6086 C   0  0  1  0  0  0  0  0  0  0  0  0
    8.2783  -14.8703   21.3206 C   0  0  0  0  0  0  0  0  0  0  0  0
    8.2038  -15.8196   20.1794 C   0  0  0  0  0  0  0  0  0  0  0  0
    7.2191  -16.7952   20.0379 C   0  0  0  0  0  0  0  0  0  0  0  0
    7.4275  -17.4921   18.9032 N   0  0  0  0  0  0  0  0  0  0  0  0
    8.5223  -16.9591   18.3492 C   0  0  0  0  0  0  0  0  0  0  0  0
    8.9996  -15.9443   19.1163 N   0  0  0  0  0  0  0  0  0  0  0  0
    9.4918  -16.4526   22.8151 C   0  0  0  0  0  0  0  0  0  0  0  0
   10.5527  -15.9194   23.2188 O   0  0  0  0  0  0  0  0  0  0  0  0
    9.5178  -17.8750   22.5782 N   0  0  0  0  0  0  0  0  0  0  0  0
   10.7165  -18.6506   22.7565 C   0  0  1  0  0  0  0  0  0  0  0  0
   10.6998  -19.4585   24.0044 C   0  0  0  0  0  0  0  0  0  0  0  0
   11.9594  -20.1852   24.1724 C   0  0  0  0  0  0  0  0  0  0  0  0
   12.8663  -20.0701   23.3226 O   0  0  0  0  0  0  0  0  0  0  0  0
   10.9664  -19.5009   21.5484 C   0  0  0  0  0  0  0  0  0  0  0  0
   12.1338  -19.7716   21.1739 O   0  0  0  0  0  0  0  0  0  0  0  0
   12.1644  -21.0125   25.2778 O   0  0  0  0  0  0  0  0  0  0  0  0
    9.9236  -20.0242   20.7940 O   0  0  0  0  0  0  0  0  0  0  0  0
  2  4  1  0
  2  1  1  1
  3  2  1  0
  5  4  1  0
  5  6  1  6
  7  8  2  0
  7  5  1  0
  9  7  1  0
 10  9  1  0
 10 11  1  6
 12 11  1  0
 13 12  2  0
 14 13  1  0
 14 15  1  0
 15 16  2  0
 16 12  1  0
 17 18  2  0
 17 10  1  0
 19 17  1  0
 20 21  1  1
 20 19  1  0
 21 22  1  0
 22 26  1  0
 22 23  2  0
 24 20  1  0
 25 24  2  0
 27 24  1  0
M  END
$$$$
