LHD.pdb
     RDKit          3D

 27 27  0  0  1  0  0  0  0  0999 V2000
    7.0820  -11.7070   27.5805 C   0  0  0  0  0  0  0  0  0  0  0  0
    6.3964  -12.7332   26.7087 C   0  0  1  0  0  0  0  0  0  0  0  0
    5.7066  -12.0048   25.5753 C   0  0  0  0  0  0  0  0  0  0  0  0
    7.3862  -13.6993   26.0935 C   0  0  0  0  0  0  0  0  0  0  0  0
    6.7300  -14.7129   25.2139 C   0  0  2  0  0  0  0  0  0  0  0  0
    5.7336  -15.5126   25.8850 N   0  0  0  0  0  0  0  0  0  0  0  0
    7.7932  -15.5454   24.5945 C   0  0  0  0  0  0  0  0  0  0  0  0
    7.8832  -16.7366   24.9875 O   0  0  0  0  0  0  0  0  0  0  0  0
    8.6855  -15.0906   23.6164 N   0  0  0  0  0  0  0  0  0  0  0  0
    9.6002  -15.9440   22.8874 C   0  0  1  0  0  0  0  0  0  0  0  0
   10.0060  -15.3511   21.5747 C   0  0  0  0  0  0  0  0  0  0  0  0
    8.8426  -15.3383   20.6498 C   0  0  0  0  0  0  0  0  0  0  0  0
    7.7013  -16.1193   20.8194 C   0  0  0  0  0  0  0  0  0  0  0  0
    6.8326  -15.8810   19.8167 N   0  0  0  0  0  0  0  0  0  0  0  0
    7.4236  -14.9681   19.0377 C   0  0  0  0  0  0  0  0  0  0  0  0
    8.6427  -14.6332   19.5353 N   0  0  0  0  0  0  0  0  0  0  0  0
   10.6989  -16.3256   23.7610 C   0  0  0  0  0  0  0  0  0  0  0  0
   11.5382  -15.4628   24.1130 O   0  0  0  0  0  0  0  0  0  0  0  0
   10.8847  -17.6668   24.2577 N   0  0  0  0  0  0  0  0  0  0  0  0
   12.0176  -18.0235   25.0697 C   0  0  1  0  0  0  0  0  0  0  0  0
   11.8655  -19.3519   25.7195 C   0  0  0  0  0  0  0  0  0  0  0  0
   11.2160  -19.2229   27.0251 C   0  0  0  0  0  0  0  0  0  0  0  0
   10.1606  -18.5660   27.1367 O   0  0  0  0  0  0  0  0  0  0  0  0
   13.2778  -17.9414   24.2633 C   0  0  0  0  0  0  0  0  0  0  0  0
   13.3169  -18.3444   23.0749 O   0  0  0  0  0  0  0  0  0  0  0  0
   11.7631  -19.8283   28.1576 O   0  0  0  0  0  0  0  0  0  0  0  0
   14.4515  -17.4188   24.7921 O   0  0  0  0  0  0  0  0  0  0  0  0
  2  4  1  0
  2  1  1  1
  3  2  1  0
  5  4  1  0
  5  6  1  1
  7  8  2  0
  7  5  1  0
  9  7  1  0
 10  9  1  0
 10 11  1  6
 12 11  1  0
 13 12  2  0
 14 13  1  0
 14 15  1  0
 15 16  2  0
 16 12  1  0
 17 18  2  0
 17 10  1  0
 19 17  1  0
 20 21  1  6
 20 19  1  0
 21 22  1  0
 22 26  1  0
 22 23  2  0
 24 20  1  0
 25 24  2  0
 27 24  1  0
M  END
$$$$
