TCF.pdb
     RDKit          3D

 25 25  0  0  1  0  0  0  0  0999 V2000
   19.2111   -8.2976  -19.2426 C   0  0  0  0  0  0  0  0  0  0  0  0
   19.5833   -9.7447  -18.9853 C   0  0  1  0  0  0  0  0  0  0  0  0
   19.1637  -10.4780  -20.0941 O   0  0  0  0  0  0  0  0  0  0  0  0
   21.0840   -9.8004  -18.8532 C   0  0  2  0  0  0  0  0  0  0  0  0
   21.4786  -11.1826  -18.7345 N   0  0  0  0  0  0  0  0  0  0  0  0
   21.5768   -9.0727  -17.6530 C   0  0  0  0  0  0  0  0  0  0  0  0
   21.2945   -9.4550  -16.4817 O   0  0  0  0  0  0  0  0  0  0  0  0
   22.3904   -7.9098  -17.7555 N   0  0  0  0  0  0  0  0  0  0  0  0
   22.8800   -7.1545  -16.6477 C   0  0  1  0  0  0  0  0  0  0  0  0
   24.1610   -6.4028  -16.9586 C   0  0  0  0  0  0  0  0  0  0  0  0
   25.5759   -7.4883  -17.1311 S   0  0  0  0  0  0  0  0  0  0  0  0
   21.8560   -6.2804  -16.0324 C   0  0  0  0  0  0  0  0  0  0  0  0
   21.1708   -5.5497  -16.7919 O   0  0  0  0  0  0  0  0  0  0  0  0
   21.6023   -6.2165  -14.6514 N   0  0  0  0  0  0  0  0  0  0  0  0
   20.6228   -5.3418  -14.0319 C   0  0  1  0  0  0  0  0  0  0  0  0
   19.6827   -6.0733  -13.1422 C   0  0  0  0  0  0  0  0  0  0  0  0
   20.2214   -6.1519  -11.7694 C   0  0  0  0  0  0  0  0  0  0  0  0
   21.2667   -7.0251  -11.4356 C   0  0  0  0  0  0  0  0  0  0  0  0
   21.7661   -7.0757  -10.1559 C   0  0  0  0  0  0  0  0  0  0  0  0
   21.2542   -6.2731   -9.1736 C   0  0  0  0  0  0  0  0  0  0  0  0
   20.2384   -5.4133   -9.4645 C   0  0  0  0  0  0  0  0  0  0  0  0
   19.7424   -5.3653  -10.7427 C   0  0  0  0  0  0  0  0  0  0  0  0
   21.3514   -4.2282  -13.3921 C   0  0  0  0  0  0  0  0  0  0  0  0
   20.7367   -3.1386  -13.1249 O   0  0  0  0  0  0  0  0  0  0  0  0
   22.6833   -4.2357  -13.0334 O   0  0  0  0  0  0  0  0  0  0  0  0
  2  1  1  6
  2  3  1  0
  4  2  1  0
  4  5  1  1
  6  4  1  0
  6  7  2  0
  8  6  1  0
  9  8  1  0
  9 12  1  0
  9 10  1  6
 11 10  1  0
 12 13  2  0
 12 14  1  0
 14 15  1  0
 15 16  1  1
 16 17  1  0
 17 22  2  0
 18 17  1  0
 18 19  2  0
 19 20  1  0
 20 21  2  0
 22 21  1  0
 23 25  1  0
 23 15  1  0
 24 23  2  0
M  END
$$$$
