TCF.pdb
     RDKit          3D

 25 25  0  0  1  0  0  0  0  0999 V2000
   22.0184  -10.9937  -20.1018 C   0  0  0  0  0  0  0  0  0  0  0  0
   22.0828  -12.4043  -19.5496 C   0  0  1  0  0  0  0  0  0  0  0  0
   22.7016  -13.1941  -20.5173 O   0  0  0  0  0  0  0  0  0  0  0  0
   22.9196  -12.3529  -18.2967 C   0  0  2  0  0  0  0  0  0  0  0  0
   23.0768  -13.6978  -17.8000 N   0  0  0  0  0  0  0  0  0  0  0  0
   22.2908  -11.5336  -17.2260 C   0  0  0  0  0  0  0  0  0  0  0  0
   21.2325  -11.9029  -16.6417 O   0  0  0  0  0  0  0  0  0  0  0  0
   22.8431  -10.2930  -16.8009 N   0  0  0  0  0  0  0  0  0  0  0  0
   22.1992   -9.3693  -15.9238 C   0  0  1  0  0  0  0  0  0  0  0  0
   23.1035   -8.8764  -14.8093 C   0  0  0  0  0  0  0  0  0  0  0  0
   22.3481   -7.5831  -13.8261 S   0  0  0  0  0  0  0  0  0  0  0  0
   21.5283   -8.2554  -16.6311 C   0  0  0  0  0  0  0  0  0  0  0  0
   22.1884   -7.6211  -17.4926 O   0  0  0  0  0  0  0  0  0  0  0  0
   20.1988   -7.8627  -16.3991 N   0  0  0  0  0  0  0  0  0  0  0  0
   19.5357   -6.7583  -17.0692 C   0  0  1  0  0  0  0  0  0  0  0  0
   18.1072   -7.0432  -17.3668 C   0  0  0  0  0  0  0  0  0  0  0  0
   17.4780   -5.8916  -18.0443 C   0  0  0  0  0  0  0  0  0  0  0  0
   16.5793   -5.0449  -17.3795 C   0  0  0  0  0  0  0  0  0  0  0  0
   16.0133   -3.9688  -18.0208 C   0  0  0  0  0  0  0  0  0  0  0  0
   16.3137   -3.6966  -19.3273 C   0  0  0  0  0  0  0  0  0  0  0  0
   17.1831   -4.4994  -20.0022 C   0  0  0  0  0  0  0  0  0  0  0  0
   17.7462   -5.5724  -19.3591 C   0  0  0  0  0  0  0  0  0  0  0  0
   19.7779   -5.5368  -16.2758 C   0  0  0  0  0  0  0  0  0  0  0  0
   19.7279   -5.5899  -14.9986 O   0  0  0  0  0  0  0  0  0  0  0  0
   20.0668   -4.2878  -16.7850 O   0  0  0  0  0  0  0  0  0  0  0  0
  2  1  1  6
  2  3  1  0
  4  2  1  0
  4  5  1  1
  6  4  1  0
  6  7  2  0
  8  6  1  0
  9  8  1  0
  9 12  1  0
  9 10  1  1
 11 10  1  0
 12 13  2  0
 12 14  1  0
 14 15  1  0
 15 16  1  1
 16 17  1  0
 17 22  2  0
 18 17  1  0
 18 19  2  0
 19 20  1  0
 20 21  2  0
 22 21  1  0
 23 25  1  0
 23 15  1  0
 24 23  2  0
M  END
$$$$
