TCF.pdb
     RDKit          3D

 25 25  0  0  1  0  0  0  0  0999 V2000
   23.8651   -8.0696  -17.4141 C   0  0  0  0  0  0  0  0  0  0  0  0
   22.8093   -8.8196  -18.2024 C   0  0  1  0  0  0  0  0  0  0  0  0
   23.4804   -9.6248  -19.1213 O   0  0  0  0  0  0  0  0  0  0  0  0
   22.0409   -9.6673  -17.2207 C   0  0  2  0  0  0  0  0  0  0  0  0
   21.1886  -10.5628  -17.9634 N   0  0  0  0  0  0  0  0  0  0  0  0
   21.1837   -8.8546  -16.3164 C   0  0  0  0  0  0  0  0  0  0  0  0
   20.3675   -8.0000  -16.7651 O   0  0  0  0  0  0  0  0  0  0  0  0
   21.2341   -8.9930  -14.9011 N   0  0  0  0  0  0  0  0  0  0  0  0
   20.5203   -8.1756  -13.9740 C   0  0  1  0  0  0  0  0  0  0  0  0
   20.2923   -8.8526  -12.6352 C   0  0  0  0  0  0  0  0  0  0  0  0
   19.5398   -7.7633  -11.4281 S   0  0  0  0  0  0  0  0  0  0  0  0
   21.0931   -6.8191  -13.8222 C   0  0  0  0  0  0  0  0  0  0  0  0
   22.3381   -6.7170  -13.6814 O   0  0  0  0  0  0  0  0  0  0  0  0
   20.3313   -5.6379  -13.8258 N   0  0  0  0  0  0  0  0  0  0  0  0
   20.8880   -4.2969  -13.8449 C   0  0  1  0  0  0  0  0  0  0  0  0
   21.9172   -4.1187  -14.9029 C   0  0  0  0  0  0  0  0  0  0  0  0
   22.2755   -2.6930  -15.0443 C   0  0  0  0  0  0  0  0  0  0  0  0
   22.9807   -2.2161  -16.1586 C   0  0  0  0  0  0  0  0  0  0  0  0
   23.2939   -0.8833  -16.2815 C   0  0  0  0  0  0  0  0  0  0  0  0
   22.9243    0.0134  -15.3169 C   0  0  0  0  0  0  0  0  0  0  0  0
   22.2380   -0.4170  -14.2216 C   0  0  0  0  0  0  0  0  0  0  0  0
   21.9270   -1.7478  -14.1021 C   0  0  0  0  0  0  0  0  0  0  0  0
   19.7637   -3.3412  -13.8982 C   0  0  0  0  0  0  0  0  0  0  0  0
   18.7465   -3.5989  -14.6298 O   0  0  0  0  0  0  0  0  0  0  0  0
   19.6868   -2.1467  -13.2128 O   0  0  0  0  0  0  0  0  0  0  0  0
  2  1  1  1
  2  3  1  0
  4  2  1  0
  4  5  1  6
  6  4  1  0
  6  7  2  0
  8  6  1  0
  9  8  1  0
  9 12  1  0
  9 10  1  1
 11 10  1  0
 12 13  2  0
 12 14  1  0
 14 15  1  0
 15 16  1  6
 16 17  1  0
 17 22  2  0
 18 17  1  0
 18 19  2  0
 19 20  1  0
 20 21  2  0
 22 21  1  0
 23 25  1  0
 23 15  1  0
 24 23  2  0
M  END
$$$$
