TCF.pdb
     RDKit          3D

 25 25  0  0  1  0  0  0  0  0999 V2000
   20.5120  -12.0937  -18.7056 C   0  0  0  0  0  0  0  0  0  0  0  0
   19.5509  -10.9234  -18.6332 C   0  0  1  0  0  0  0  0  0  0  0  0
   18.3872  -11.3873  -18.0217 O   0  0  0  0  0  0  0  0  0  0  0  0
   20.2057   -9.8630  -17.7849 C   0  0  2  0  0  0  0  0  0  0  0  0
   20.4325  -10.4093  -16.4696 N   0  0  0  0  0  0  0  0  0  0  0  0
   19.3612   -8.6467  -17.6426 C   0  0  0  0  0  0  0  0  0  0  0  0
   19.0879   -7.9080  -18.6312 O   0  0  0  0  0  0  0  0  0  0  0  0
   18.8155   -8.2478  -16.3904 N   0  0  0  0  0  0  0  0  0  0  0  0
   18.1308   -7.0185  -16.1515 C   0  0  1  0  0  0  0  0  0  0  0  0
   16.7621   -7.2107  -15.5249 C   0  0  0  0  0  0  0  0  0  0  0  0
   15.8890   -5.6652  -15.2819 S   0  0  0  0  0  0  0  0  0  0  0  0
   18.9451   -6.0238  -15.4175 C   0  0  0  0  0  0  0  0  0  0  0  0
   18.4303   -4.9024  -15.1767 O   0  0  0  0  0  0  0  0  0  0  0  0
   20.2582   -6.2551  -14.9731 N   0  0  0  0  0  0  0  0  0  0  0  0
   21.0286   -5.3321  -14.1588 C   0  0  1  0  0  0  0  0  0  0  0  0
   21.9706   -6.0260  -13.2415 C   0  0  0  0  0  0  0  0  0  0  0  0
   22.7643   -7.0320  -13.9756 C   0  0  0  0  0  0  0  0  0  0  0  0
   22.5561   -8.4077  -13.8004 C   0  0  0  0  0  0  0  0  0  0  0  0
   23.2941   -9.3309  -14.5022 C   0  0  0  0  0  0  0  0  0  0  0  0
   24.2528   -8.9292  -15.3915 C   0  0  0  0  0  0  0  0  0  0  0  0
   24.4802   -7.6002  -15.5854 C   0  0  0  0  0  0  0  0  0  0  0  0
   23.7418   -6.6814  -14.8834 C   0  0  0  0  0  0  0  0  0  0  0  0
   21.6493   -4.3422  -15.0616 C   0  0  0  0  0  0  0  0  0  0  0  0
   21.6077   -4.5244  -16.3271 O   0  0  0  0  0  0  0  0  0  0  0  0
   22.2975   -3.1890  -14.6712 O   0  0  0  0  0  0  0  0  0  0  0  0
  2  1  1  1
  2  3  1  0
  4  2  1  0
  4  5  1  1
  6  4  1  0
  6  7  2  0
  8  6  1  0
  9  8  1  0
  9 12  1  0
  9 10  1  1
 11 10  1  0
 12 13  2  0
 12 14  1  0
 14 15  1  0
 15 16  1  6
 16 17  1  0
 17 22  2  0
 18 17  1  0
 18 19  2  0
 19 20  1  0
 20 21  2  0
 22 21  1  0
 23 25  1  0
 23 15  1  0
 24 23  2  0
M  END
$$$$
