TCF.pdb
     RDKit          3D

 25 25  0  0  1  0  0  0  0  0999 V2000
   16.1172  -13.6283  -18.6528 C   0  0  0  0  0  0  0  0  0  0  0  0
   17.2626  -12.6775  -18.3652 C   0  0  1  0  0  0  0  0  0  0  0  0
   18.1878  -13.3748  -17.5899 O   0  0  0  0  0  0  0  0  0  0  0  0
   17.8674  -12.2964  -19.6926 C   0  0  2  0  0  0  0  0  0  0  0  0
   18.2495  -13.5046  -20.3813 N   0  0  0  0  0  0  0  0  0  0  0  0
   19.0782  -11.4453  -19.5426 C   0  0  0  0  0  0  0  0  0  0  0  0
   20.0710  -11.5600  -20.3165 O   0  0  0  0  0  0  0  0  0  0  0  0
   19.1865  -10.4581  -18.5236 N   0  0  0  0  0  0  0  0  0  0  0  0
   20.2080   -9.4636  -18.4542 C   0  0  1  0  0  0  0  0  0  0  0  0
   20.4177   -8.7322  -19.7672 C   0  0  0  0  0  0  0  0  0  0  0  0
   21.5598   -7.3596  -19.6199 S   0  0  0  0  0  0  0  0  0  0  0  0
   20.0456   -8.5309  -17.3163 C   0  0  0  0  0  0  0  0  0  0  0  0
   18.9566   -7.9116  -17.2121 O   0  0  0  0  0  0  0  0  0  0  0  0
   21.0336   -8.2946  -16.3449 N   0  0  0  0  0  0  0  0  0  0  0  0
   20.8314   -7.5197  -15.1337 C   0  0  1  0  0  0  0  0  0  0  0  0
   21.7079   -7.9622  -14.0173 C   0  0  0  0  0  0  0  0  0  0  0  0
   21.4203   -7.1883  -12.7928 C   0  0  0  0  0  0  0  0  0  0  0  0
   20.6344   -7.7120  -11.7562 C   0  0  0  0  0  0  0  0  0  0  0  0
   20.3881   -6.9836  -10.6167 C   0  0  0  0  0  0  0  0  0  0  0  0
   20.9051   -5.7262  -10.4655 C   0  0  0  0  0  0  0  0  0  0  0  0
   21.6728   -5.1880  -11.4537 C   0  0  0  0  0  0  0  0  0  0  0  0
   21.9168   -5.9176  -12.5895 C   0  0  0  0  0  0  0  0  0  0  0  0
   20.9421   -6.0904  -15.4873 C   0  0  0  0  0  0  0  0  0  0  0  0
   21.8187   -5.7141  -16.3397 O   0  0  0  0  0  0  0  0  0  0  0  0
   20.1671   -5.0702  -14.9763 O   0  0  0  0  0  0  0  0  0  0  0  0
  2  1  1  6
  2  3  1  0
  4  2  1  0
  4  5  1  1
  6  4  1  0
  6  7  2  0
  8  6  1  0
  9  8  1  0
  9 12  1  0
  9 10  1  6
 11 10  1  0
 12 13  2  0
 12 14  1  0
 14 15  1  0
 15 16  1  1
 16 17  1  0
 17 22  2  0
 18 17  1  0
 18 19  2  0
 19 20  1  0
 20 21  2  0
 22 21  1  0
 23 25  1  0
 23 15  1  0
 24 23  2  0
M  END
$$$$
