TCF.pdb
     RDKit          3D

 25 25  0  0  1  0  0  0  0  0999 V2000
   29.1654  -21.0850  -13.0047 C   0  0  0  0  0  0  0  0  0  0  0  0
   29.1623  -20.0097  -14.0736 C   0  0  1  0  0  0  0  0  0  0  0  0
   30.0641  -20.4097  -15.0584 O   0  0  0  0  0  0  0  0  0  0  0  0
   27.7641  -19.9446  -14.6338 C   0  0  2  0  0  0  0  0  0  0  0  0
   27.7377  -18.9465  -15.6746 N   0  0  0  0  0  0  0  0  0  0  0  0
   26.7564  -19.5695  -13.6058 C   0  0  0  0  0  0  0  0  0  0  0  0
   26.5611  -18.3652  -13.2752 O   0  0  0  0  0  0  0  0  0  0  0  0
   25.9587  -20.5414  -12.9395 N   0  0  0  0  0  0  0  0  0  0  0  0
   24.9544  -20.2482  -11.9687 C   0  0  1  0  0  0  0  0  0  0  0  0
   23.5439  -20.4510  -12.4905 C   0  0  0  0  0  0  0  0  0  0  0  0
   22.2918  -19.9121  -11.3278 S   0  0  0  0  0  0  0  0  0  0  0  0
   25.1721  -20.9285  -10.6721 C   0  0  0  0  0  0  0  0  0  0  0  0
   25.3360  -22.1749  -10.6802 O   0  0  0  0  0  0  0  0  0  0  0  0
   25.2071  -20.2674   -9.4323 N   0  0  0  0  0  0  0  0  0  0  0  0
   25.2050  -20.9329   -8.1418 C   0  0  1  0  0  0  0  0  0  0  0  0
   25.5538  -20.0169   -7.0240 C   0  0  0  0  0  0  0  0  0  0  0  0
   27.0188  -19.9347   -6.8574 C   0  0  0  0  0  0  0  0  0  0  0  0
   27.8583  -21.0153   -7.1641 C   0  0  0  0  0  0  0  0  0  0  0  0
   29.2215  -20.9175   -7.0167 C   0  0  0  0  0  0  0  0  0  0  0  0
   29.7945  -19.7600   -6.5659 C   0  0  0  0  0  0  0  0  0  0  0  0
   29.0074  -18.6913   -6.2591 C   0  0  0  0  0  0  0  0  0  0  0  0
   27.6473  -18.7924   -6.4074 C   0  0  0  0  0  0  0  0  0  0  0  0
   23.9136  -21.6340   -7.9965 C   0  0  0  0  0  0  0  0  0  0  0  0
   22.9323  -21.3192   -8.7544 O   0  0  0  0  0  0  0  0  0  0  0  0
   23.6378  -22.6383   -7.0921 O   0  0  0  0  0  0  0  0  0  0  0  0
  2  1  1  1
  2  3  1  0
  4  2  1  0
  4  5  1  6
  6  4  1  0
  6  7  2  0
  8  6  1  0
  9  8  1  0
  9 12  1  0
  9 10  1  6
 11 10  1  0
 12 13  2  0
 12 14  1  0
 14 15  1  0
 15 16  1  1
 16 17  1  0
 17 22  2  0
 18 17  1  0
 18 19  2  0
 19 20  1  0
 20 21  2  0
 22 21  1  0
 23 25  1  0
 23 15  1  0
 24 23  2  0
M  END
$$$$
