TCF.pdb
     RDKit          3D

 25 25  0  0  1  0  0  0  0  0999 V2000
   20.4294   -7.0622  -17.7056 C   0  0  0  0  0  0  0  0  0  0  0  0
   19.3828   -6.7340  -18.7523 C   0  0  1  0  0  0  0  0  0  0  0  0
   19.7498   -7.4004  -19.9203 O   0  0  0  0  0  0  0  0  0  0  0  0
   18.0640   -7.2548  -18.2401 C   0  0  2  0  0  0  0  0  0  0  0  0
   17.0500   -6.9719  -19.2260 N   0  0  0  0  0  0  0  0  0  0  0  0
   17.6579   -6.6144  -16.9603 C   0  0  0  0  0  0  0  0  0  0  0  0
   17.0533   -5.5046  -16.9352 O   0  0  0  0  0  0  0  0  0  0  0  0
   17.9260   -7.2126  -15.6974 N   0  0  0  0  0  0  0  0  0  0  0  0
   17.5563   -6.6582  -14.4352 C   0  0  1  0  0  0  0  0  0  0  0  0
   16.0731   -6.7850  -14.1402 C   0  0  0  0  0  0  0  0  0  0  0  0
   15.5563   -8.4849  -13.9099 S   0  0  0  0  0  0  0  0  0  0  0  0
   18.3913   -7.1411  -13.3124 C   0  0  0  0  0  0  0  0  0  0  0  0
   18.9662   -8.2518  -13.4402 O   0  0  0  0  0  0  0  0  0  0  0  0
   18.5813   -6.4350  -12.1121 N   0  0  0  0  0  0  0  0  0  0  0  0
   19.4054   -6.8920  -11.0074 C   0  0  1  0  0  0  0  0  0  0  0  0
   20.8554   -6.6604  -11.2400 C   0  0  0  0  0  0  0  0  0  0  0  0
   21.6491   -7.1401  -10.0907 C   0  0  0  0  0  0  0  0  0  0  0  0
   21.8872   -6.3323   -8.9695 C   0  0  0  0  0  0  0  0  0  0  0  0
   22.6163   -6.7993   -7.9018 C   0  0  0  0  0  0  0  0  0  0  0  0
   23.1291   -8.0675   -7.9068 C   0  0  0  0  0  0  0  0  0  0  0  0
   22.9160   -8.8783   -8.9806 C   0  0  0  0  0  0  0  0  0  0  0  0
   22.1879   -8.4090  -10.0444 C   0  0  0  0  0  0  0  0  0  0  0  0
   18.8682   -6.2986   -9.7666 C   0  0  0  0  0  0  0  0  0  0  0  0
   19.1569   -6.8232   -8.6361 O   0  0  0  0  0  0  0  0  0  0  0  0
   18.0527   -5.1888   -9.6901 O   0  0  0  0  0  0  0  0  0  0  0  0
  2  1  1  1
  2  3  1  0
  4  2  1  0
  4  5  1  6
  6  4  1  0
  6  7  2  0
  8  6  1  0
  9  8  1  0
  9 12  1  0
  9 10  1  1
 11 10  1  0
 12 13  2  0
 12 14  1  0
 14 15  1  0
 15 16  1  6
 16 17  1  0
 17 22  2  0
 18 17  1  0
 18 19  2  0
 19 20  1  0
 20 21  2  0
 22 21  1  0
 23 25  1  0
 23 15  1  0
 24 23  2  0
M  END
$$$$
