TCF.pdb
     RDKit          3D

 25 25  0  0  1  0  0  0  0  0999 V2000
   25.1129  -30.6562  -18.9982 C   0  0  0  0  0  0  0  0  0  0  0  0
   25.0330  -29.1479  -19.1300 C   0  0  1  0  0  0  0  0  0  0  0  0
   25.0177  -28.8570  -20.4932 O   0  0  0  0  0  0  0  0  0  0  0  0
   23.7422  -28.7134  -18.4836 C   0  0  2  0  0  0  0  0  0  0  0  0
   23.6646  -27.2746  -18.5460 N   0  0  0  0  0  0  0  0  0  0  0  0
   23.6559  -29.1210  -17.0555 C   0  0  0  0  0  0  0  0  0  0  0  0
   24.3040  -28.5192  -16.1525 O   0  0  0  0  0  0  0  0  0  0  0  0
   22.8421  -30.2069  -16.6273 N   0  0  0  0  0  0  0  0  0  0  0  0
   22.7003  -30.6382  -15.2741 C   0  0  1  0  0  0  0  0  0  0  0  0
   21.3927  -30.1981  -14.6423 C   0  0  0  0  0  0  0  0  0  0  0  0
   20.4583  -29.0845  -15.6897 S   0  0  0  0  0  0  0  0  0  0  0  0
   22.9500  -32.0853  -15.0880 C   0  0  0  0  0  0  0  0  0  0  0  0
   22.3912  -32.8868  -15.8790 O   0  0  0  0  0  0  0  0  0  0  0  0
   23.7733  -32.6191  -14.0817 N   0  0  0  0  0  0  0  0  0  0  0  0
   23.9476  -34.0374  -13.8239 C   0  0  1  0  0  0  0  0  0  0  0  0
   25.1399  -34.3249  -12.9836 C   0  0  0  0  0  0  0  0  0  0  0  0
   25.2278  -35.7681  -12.6829 C   0  0  0  0  0  0  0  0  0  0  0  0
   24.6377  -36.3205  -11.5370 C   0  0  0  0  0  0  0  0  0  0  0  0
   24.7168  -37.6685  -11.2792 C   0  0  0  0  0  0  0  0  0  0  0  0
   25.3751  -38.5067  -12.1368 C   0  0  0  0  0  0  0  0  0  0  0  0
   25.9594  -38.0021  -13.2592 C   0  0  0  0  0  0  0  0  0  0  0  0
   25.8785  -36.6565  -13.5135 C   0  0  0  0  0  0  0  0  0  0  0  0
   22.6710  -34.5620  -13.2991 C   0  0  0  0  0  0  0  0  0  0  0  0
   21.9873  -33.8602  -12.4766 O   0  0  0  0  0  0  0  0  0  0  0  0
   22.1091  -35.7815  -13.6146 O   0  0  0  0  0  0  0  0  0  0  0  0
  2  1  1  6
  2  3  1  0
  4  2  1  0
  4  5  1  1
  6  4  1  0
  6  7  2  0
  8  6  1  0
  9  8  1  0
  9 12  1  0
  9 10  1  6
 11 10  1  0
 12 13  2  0
 12 14  1  0
 14 15  1  0
 15 16  1  1
 16 17  1  0
 17 22  2  0
 18 17  1  0
 18 19  2  0
 19 20  1  0
 20 21  2  0
 22 21  1  0
 23 25  1  0
 23 15  1  0
 24 23  2  0
M  END
$$$$
