TCF.pdb
     RDKit          3D

 25 25  0  0  1  0  0  0  0  0999 V2000
   25.4568  -23.5116  -18.6259 C   0  0  0  0  0  0  0  0  0  0  0  0
   26.2618  -24.7430  -18.2595 C   0  0  1  0  0  0  0  0  0  0  0  0
   26.4178  -25.4912  -19.4252 O   0  0  0  0  0  0  0  0  0  0  0  0
   27.6002  -24.2651  -17.7564 C   0  0  2  0  0  0  0  0  0  0  0  0
   28.3798  -25.4169  -17.3747 N   0  0  0  0  0  0  0  0  0  0  0  0
   27.4775  -23.3747  -16.5711 C   0  0  0  0  0  0  0  0  0  0  0  0
   27.2866  -23.8365  -15.4101 O   0  0  0  0  0  0  0  0  0  0  0  0
   27.5677  -21.9585  -16.6771 N   0  0  0  0  0  0  0  0  0  0  0  0
   27.4535  -21.0481  -15.5838 C   0  0  1  0  0  0  0  0  0  0  0  0
   28.0426  -19.6818  -15.8822 C   0  0  0  0  0  0  0  0  0  0  0  0
   27.6506  -18.4692  -14.6228 S   0  0  0  0  0  0  0  0  0  0  0  0
   26.0819  -20.9559  -15.0349 C   0  0  0  0  0  0  0  0  0  0  0  0
   25.1395  -20.7337  -15.8367 O   0  0  0  0  0  0  0  0  0  0  0  0
   25.7677  -21.1014  -13.6727 N   0  0  0  0  0  0  0  0  0  0  0  0
   24.4551  -20.8646  -13.0987 C   0  0  1  0  0  0  0  0  0  0  0  0
   24.3996  -21.1784  -11.6465 C   0  0  0  0  0  0  0  0  0  0  0  0
   23.0556  -20.8938  -11.1044 C   0  0  0  0  0  0  0  0  0  0  0  0
   22.8398  -19.8781  -10.1620 C   0  0  0  0  0  0  0  0  0  0  0  0
   21.5800  -19.6168   -9.6781 C   0  0  0  0  0  0  0  0  0  0  0  0
   20.5025  -20.3433  -10.1053 C   0  0  0  0  0  0  0  0  0  0  0  0
   20.6777  -21.3371  -11.0204 C   0  0  0  0  0  0  0  0  0  0  0  0
   21.9363  -21.5952  -11.5013 C   0  0  0  0  0  0  0  0  0  0  0  0
   24.0447  -19.4926  -13.4585 C   0  0  0  0  0  0  0  0  0  0  0  0
   24.8741  -18.5276  -13.3268 O   0  0  0  0  0  0  0  0  0  0  0  0
   22.8085  -19.1213  -13.9447 O   0  0  0  0  0  0  0  0  0  0  0  0
  2  1  1  6
  2  3  1  0
  4  2  1  0
  4  5  1  1
  6  4  1  0
  6  7  2  0
  8  6  1  0
  9  8  1  0
  9 12  1  0
  9 10  1  6
 11 10  1  0
 12 13  2  0
 12 14  1  0
 14 15  1  0
 15 16  1  1
 16 17  1  0
 17 22  2  0
 18 17  1  0
 18 19  2  0
 19 20  1  0
 20 21  2  0
 22 21  1  0
 23 25  1  0
 23 15  1  0
 24 23  2  0
M  END
$$$$
