TCF.pdb
     RDKit          3D

 25 25  0  0  1  0  0  0  0  0999 V2000
   28.0384  -17.5613  -13.3888 C   0  0  0  0  0  0  0  0  0  0  0  0
   26.8793  -17.2914  -14.3281 C   0  0  1  0  0  0  0  0  0  0  0  0
   27.3888  -16.5771  -15.4114 O   0  0  0  0  0  0  0  0  0  0  0  0
   26.3526  -18.6299  -14.7797 C   0  0  2  0  0  0  0  0  0  0  0  0
   25.3382  -18.4050  -15.7799 N   0  0  0  0  0  0  0  0  0  0  0  0
   25.7427  -19.4060  -13.6668 C   0  0  0  0  0  0  0  0  0  0  0  0
   24.5879  -19.1407  -13.2265 O   0  0  0  0  0  0  0  0  0  0  0  0
   26.4222  -20.4864  -13.0377 N   0  0  0  0  0  0  0  0  0  0  0  0
   25.8755  -21.3049  -12.0040 C   0  0  1  0  0  0  0  0  0  0  0  0
   25.8250  -22.7761  -12.3728 C   0  0  0  0  0  0  0  0  0  0  0  0
   24.8003  -23.0951  -13.8074 S   0  0  0  0  0  0  0  0  0  0  0  0
   26.5041  -21.0828  -10.6824 C   0  0  0  0  0  0  0  0  0  0  0  0
   27.7407  -20.8595  -10.6476 O   0  0  0  0  0  0  0  0  0  0  0  0
   25.8041  -21.1062   -9.4638 N   0  0  0  0  0  0  0  0  0  0  0  0
   26.4216  -20.9869   -8.1550 C   0  0  1  0  0  0  0  0  0  0  0  0
   27.3151  -19.8035   -8.0486 C   0  0  0  0  0  0  0  0  0  0  0  0
   27.9086  -19.7202   -6.6988 C   0  0  0  0  0  0  0  0  0  0  0  0
   27.6755  -18.6236   -5.8564 C   0  0  0  0  0  0  0  0  0  0  0  0
   28.2241  -18.5684   -4.5972 C   0  0  0  0  0  0  0  0  0  0  0  0
   29.0133  -19.5849   -4.1334 C   0  0  0  0  0  0  0  0  0  0  0  0
   29.2595  -20.6648   -4.9265 C   0  0  0  0  0  0  0  0  0  0  0  0
   28.7104  -20.7168   -6.1826 C   0  0  0  0  0  0  0  0  0  0  0  0
   25.3501  -21.0551   -7.1414 C   0  0  0  0  0  0  0  0  0  0  0  0
   24.1517  -20.7443   -7.4636 O   0  0  0  0  0  0  0  0  0  0  0  0
   25.5074  -21.4362   -5.8251 O   0  0  0  0  0  0  0  0  0  0  0  0
  2  1  1  1
  2  3  1  0
  4  2  1  0
  4  5  1  6
  6  4  1  0
  6  7  2  0
  8  6  1  0
  9  8  1  0
  9 12  1  0
  9 10  1  6
 11 10  1  0
 12 13  2  0
 12 14  1  0
 14 15  1  0
 15 16  1  6
 16 17  1  0
 17 22  2  0
 18 17  1  0
 18 19  2  0
 19 20  1  0
 20 21  2  0
 22 21  1  0
 23 25  1  0
 23 15  1  0
 24 23  2  0
M  END
$$$$
