PLG.pdb
     RDKit          3D

 20 20  0  0  1  0  0  0  0  0999 V2000
    7.4462  -15.0983   21.0584 N   0  0  0  0  0  0  0  0  0  0  0  0
    6.6127  -14.1725   20.3542 C   0  0  0  0  0  0  0  0  0  0  0  0
    7.6190  -13.3344   19.5627 C   0  0  0  0  0  0  0  0  0  0  0  0
    8.7018  -13.1338   20.6061 C   0  0  0  0  0  0  0  0  0  0  0  0
    8.7248  -14.5019   21.2711 C   0  0  1  0  0  0  0  0  0  0  0  0
    9.0522  -14.2893   22.7017 C   0  0  0  0  0  0  0  0  0  0  0  0
   10.1656  -13.8395   23.0804 O   0  0  0  0  0  0  0  0  0  0  0  0
    7.9229  -11.6436   26.2943 C   0  0  0  0  0  0  0  0  0  0  0  0
    6.8035  -12.4059   25.5582 C   0  0  2  0  0  0  0  0  0  0  0  0
    5.4929  -11.9514   26.1644 C   0  0  0  0  0  0  0  0  0  0  0  0
    7.0054  -13.8778   25.6934 C   0  0  0  0  0  0  0  0  0  0  0  0
    8.2822  -14.4110   25.1015 C   0  0  2  0  0  0  0  0  0  0  0  0
    8.0502  -14.6151   23.6574 N   0  0  0  0  0  0  0  0  0  0  0  0
    8.5877  -15.7369   25.6822 C   0  0  0  0  0  0  0  0  0  0  0  0
    8.7216  -15.8314   26.9354 O   0  0  0  0  0  0  0  0  0  0  0  0
    8.7245  -16.8692   24.8341 N   0  0  0  0  0  0  0  0  0  0  0  0
    9.0700  -18.1419   25.4070 C   0  0  0  0  0  0  0  0  0  0  0  0
   10.5614  -18.3490   25.4031 C   0  0  0  0  0  0  0  0  0  0  0  0
   11.3599  -17.4800   24.9744 O   0  0  0  0  0  0  0  0  0  0  0  0
   11.0878  -19.5361   25.8867 O   0  0  0  0  0  0  0  0  0  0  0  0
  1  2  1  0
  3  2  1  0
  4  5  1  0
  4  3  1  0
  5  1  1  0
  5  6  1  1
  7  6  2  0
  9  8  1  1
  9 11  1  0
 10  9  1  0
 12 11  1  1
 12 13  1  0
 13  6  1  0
 14 15  2  0
 14 12  1  0
 16 14  1  0
 17 16  1  0
 17 18  1  0
 18 20  1  0
 19 18  2  0
M  END
$$$$
