PLG.pdb
     RDKit          3D

 20 20  0  0  1  0  0  0  0  0999 V2000
    7.1382  -14.8787   21.0224 N   0  0  0  0  0  0  0  0  0  0  0  0
    6.3005  -13.8513   20.4837 C   0  0  0  0  0  0  0  0  0  0  0  0
    7.2774  -13.0008   19.6689 C   0  0  0  0  0  0  0  0  0  0  0  0
    8.4638  -12.9512   20.6131 C   0  0  0  0  0  0  0  0  0  0  0  0
    8.4653  -14.3722   21.1564 C   0  0  1  0  0  0  0  0  0  0  0  0
    8.9382  -14.3050   22.5603 C   0  0  0  0  0  0  0  0  0  0  0  0
   10.0880  -13.8936   22.8670 O   0  0  0  0  0  0  0  0  0  0  0  0
    7.8150  -11.7188   26.1620 C   0  0  0  0  0  0  0  0  0  0  0  0
    6.7500  -12.6025   25.4830 C   0  0  2  0  0  0  0  0  0  0  0  0
    5.4178  -12.2344   26.1005 C   0  0  0  0  0  0  0  0  0  0  0  0
    7.0786  -14.0453   25.6725 C   0  0  0  0  0  0  0  0  0  0  0  0
    8.3433  -14.5123   25.0036 C   0  0  2  0  0  0  0  0  0  0  0  0
    8.0359  -14.7282   23.5754 N   0  0  0  0  0  0  0  0  0  0  0  0
    8.7505  -15.8207   25.5610 C   0  0  0  0  0  0  0  0  0  0  0  0
    8.8927  -15.9265   26.8124 O   0  0  0  0  0  0  0  0  0  0  0  0
    8.9729  -16.9242   24.6932 N   0  0  0  0  0  0  0  0  0  0  0  0
    9.3230  -18.2018   25.2522 C   0  0  0  0  0  0  0  0  0  0  0  0
   10.8136  -18.3254   25.4254 C   0  0  0  0  0  0  0  0  0  0  0  0
   11.6036  -17.3922   25.1395 O   0  0  0  0  0  0  0  0  0  0  0  0
   11.3489  -19.5051   25.9171 O   0  0  0  0  0  0  0  0  0  0  0  0
  1  2  1  0
  3  2  1  0
  4  5  1  0
  4  3  1  0
  5  1  1  0
  5  6  1  1
  7  6  2  0
  9  8  1  1
  9 11  1  0
 10  9  1  0
 12 11  1  1
 12 13  1  0
 13  6  1  0
 14 15  2  0
 14 12  1  0
 16 14  1  0
 17 16  1  0
 17 18  1  0
 18 20  1  0
 19 18  2  0
M  END
$$$$
