PLG.pdb
     RDKit          3D

 20 20  0  0  1  0  0  0  0  0999 V2000
    7.4701  -16.4186   21.8443 N   0  0  0  0  0  0  0  0  0  0  0  0
    6.4615  -15.7945   21.0439 C   0  0  0  0  0  0  0  0  0  0  0  0
    7.2645  -15.1713   19.9001 C   0  0  0  0  0  0  0  0  0  0  0  0
    8.4488  -14.6065   20.6616 C   0  0  0  0  0  0  0  0  0  0  0  0
    8.6981  -15.7118   21.6769 C   0  0  1  0  0  0  0  0  0  0  0  0
    9.1871  -15.0652   22.9186 C   0  0  0  0  0  0  0  0  0  0  0  0
   10.2439  -14.3813   22.9532 O   0  0  0  0  0  0  0  0  0  0  0  0
    7.7103  -11.7560   25.9317 C   0  0  0  0  0  0  0  0  0  0  0  0
    6.8057  -12.9706   25.6446 C   0  0  2  0  0  0  0  0  0  0  0  0
    5.5100  -12.7373   26.3919 C   0  0  0  0  0  0  0  0  0  0  0  0
    7.4817  -14.2305   26.0704 C   0  0  0  0  0  0  0  0  0  0  0  0
    8.7654  -14.5484   25.3521 C   0  0  2  0  0  0  0  0  0  0  0  0
    8.4115  -15.2428   24.0977 N   0  0  0  0  0  0  0  0  0  0  0  0
    9.5690  -15.4936   26.1578 C   0  0  0  0  0  0  0  0  0  0  0  0
   10.0011  -15.1128   27.2828 O   0  0  0  0  0  0  0  0  0  0  0  0
    9.8398  -16.7977   25.6619 N   0  0  0  0  0  0  0  0  0  0  0  0
   10.6841  -17.6799   26.4210 C   0  0  0  0  0  0  0  0  0  0  0  0
    9.8775  -18.4861   27.4042 C   0  0  0  0  0  0  0  0  0  0  0  0
    8.6220  -18.4749   27.4134 O   0  0  0  0  0  0  0  0  0  0  0  0
   10.5293  -19.2741   28.3393 O   0  0  0  0  0  0  0  0  0  0  0  0
  1  2  1  0
  3  2  1  0
  4  5  1  0
  4  3  1  0
  5  1  1  0
  5  6  1  1
  7  6  2  0
  9  8  1  1
  9 11  1  0
 10  9  1  0
 12 11  1  1
 12 13  1  0
 13  6  1  0
 14 15  2  0
 14 12  1  0
 16 14  1  0
 17 16  1  0
 17 18  1  0
 18 20  1  0
 19 18  2  0
M  END
$$$$
