PLG.pdb
     RDKit          3D

 20 20  0  0  1  0  0  0  0  0999 V2000
    7.2690  -15.7132   20.9558 N   0  0  0  0  0  0  0  0  0  0  0  0
    6.3271  -14.9855   20.1615 C   0  0  0  0  0  0  0  0  0  0  0  0
    7.2134  -14.2866   19.1283 C   0  0  0  0  0  0  0  0  0  0  0  0
    8.3654  -13.8332   20.0052 C   0  0  0  0  0  0  0  0  0  0  0  0
    8.5236  -15.0345   20.9251 C   0  0  1  0  0  0  0  0  0  0  0  0
    8.9554  -14.5210   22.2476 C   0  0  0  0  0  0  0  0  0  0  0  0
    9.9767  -13.7985   22.3912 O   0  0  0  0  0  0  0  0  0  0  0  0
    5.7345  -12.5947   26.9485 C   0  0  0  0  0  0  0  0  0  0  0  0
    7.1550  -12.9179   26.4446 C   0  0  2  0  0  0  0  0  0  0  0  0
    7.8549  -11.5930   26.2294 C   0  0  0  0  0  0  0  0  0  0  0  0
    7.0877  -13.7284   25.1939 C   0  0  0  0  0  0  0  0  0  0  0  0
    8.4058  -14.2572   24.6961 C   0  0  2  0  0  0  0  0  0  0  0  0
    8.1657  -14.8752   23.3765 N   0  0  0  0  0  0  0  0  0  0  0  0
    8.8865  -15.3294   25.5948 C   0  0  0  0  0  0  0  0  0  0  0  0
    9.3472  -15.0076   26.7269 O   0  0  0  0  0  0  0  0  0  0  0  0
    8.8245  -16.6868   25.1777 N   0  0  0  0  0  0  0  0  0  0  0  0
    9.9249  -17.5651   25.4688 C   0  0  0  0  0  0  0  0  0  0  0  0
    9.9565  -17.9253   26.9304 C   0  0  0  0  0  0  0  0  0  0  0  0
   11.0062  -17.8609   27.6165 O   0  0  0  0  0  0  0  0  0  0  0  0
    8.7935  -18.3450   27.5561 O   0  0  0  0  0  0  0  0  0  0  0  0
  1  2  1  0
  3  2  1  0
  4  5  1  0
  4  3  1  0
  5  1  1  0
  5  6  1  1
  7  6  2  0
  9  8  1  6
  9 11  1  0
 10  9  1  0
 12 11  1  1
 12 13  1  0
 13  6  1  0
 14 15  2  0
 14 12  1  0
 16 14  1  0
 17 16  1  0
 17 18  1  0
 18 20  1  0
 19 18  2  0
M  END
$$$$
