PLG.pdb
     RDKit          3D

 20 20  0  0  1  0  0  0  0  0999 V2000
    7.2820  -14.9794   21.0082 N   0  0  0  0  0  0  0  0  0  0  0  0
    6.6548  -13.9215   20.2769 C   0  0  0  0  0  0  0  0  0  0  0  0
    7.8424  -13.1009   19.7693 C   0  0  0  0  0  0  0  0  0  0  0  0
    8.7290  -13.0962   21.0003 C   0  0  0  0  0  0  0  0  0  0  0  0
    8.5382  -14.5191   21.5040 C   0  0  1  0  0  0  0  0  0  0  0  0
    8.6142  -14.4748   22.9843 C   0  0  0  0  0  0  0  0  0  0  0  0
    9.6768  -14.1925   23.5981 O   0  0  0  0  0  0  0  0  0  0  0  0
    8.0723  -12.2542   26.7001 C   0  0  0  0  0  0  0  0  0  0  0  0
    6.8996  -12.3996   25.7103 C   0  0  2  0  0  0  0  0  0  0  0  0
    5.8184  -11.4448   26.1698 C   0  0  0  0  0  0  0  0  0  0  0  0
    6.4244  -13.8133   25.6763 C   0  0  0  0  0  0  0  0  0  0  0  0
    7.4294  -14.8201   25.1851 C   0  0  2  0  0  0  0  0  0  0  0  0
    7.4257  -14.7667   23.7093 N   0  0  0  0  0  0  0  0  0  0  0  0
    7.0016  -16.1830   25.5697 C   0  0  0  0  0  0  0  0  0  0  0  0
    5.8178  -16.5409   25.3086 O   0  0  0  0  0  0  0  0  0  0  0  0
    7.9150  -17.0576   26.2184 N   0  0  0  0  0  0  0  0  0  0  0  0
    7.4950  -18.3899   26.5588 C   0  0  0  0  0  0  0  0  0  0  0  0
    8.5933  -19.1381   27.2667 C   0  0  0  0  0  0  0  0  0  0  0  0
    9.7185  -18.6279   27.4907 O   0  0  0  0  0  0  0  0  0  0  0  0
    8.3703  -20.4377   27.6927 O   0  0  0  0  0  0  0  0  0  0  0  0
  1  2  1  0
  3  2  1  0
  4  5  1  0
  4  3  1  0
  5  1  1  0
  5  6  1  1
  7  6  2  0
  9  8  1  1
  9 11  1  0
 10  9  1  0
 12 11  1  1
 12 13  1  0
 13  6  1  0
 14 15  2  0
 14 12  1  0
 16 14  1  0
 17 16  1  0
 17 18  1  0
 18 20  1  0
 19 18  2  0
M  END
$$$$
