PLG.pdb
     RDKit          3D

 20 20  0  0  1  0  0  0  0  0999 V2000
    7.2852  -15.1925   21.1515 N   0  0  0  0  0  0  0  0  0  0  0  0
    6.4380  -14.2505   20.4863 C   0  0  0  0  0  0  0  0  0  0  0  0
    7.4239  -13.4234   19.6585 C   0  0  0  0  0  0  0  0  0  0  0  0
    8.5512  -13.2448   20.6580 C   0  0  0  0  0  0  0  0  0  0  0  0
    8.5803  -14.6167   21.3148 C   0  0  1  0  0  0  0  0  0  0  0  0
    8.9688  -14.4168   22.7320 C   0  0  0  0  0  0  0  0  0  0  0  0
   10.1057  -13.9922   23.0674 O   0  0  0  0  0  0  0  0  0  0  0  0
    7.7775  -11.7205   26.2797 C   0  0  0  0  0  0  0  0  0  0  0  0
    6.6921  -12.5949   25.6211 C   0  0  2  0  0  0  0  0  0  0  0  0
    5.3746  -12.2127   26.2612 C   0  0  0  0  0  0  0  0  0  0  0  0
    7.0098  -14.0405   25.8074 C   0  0  0  0  0  0  0  0  0  0  0  0
    8.2840  -14.5100   25.1587 C   0  0  2  0  0  0  0  0  0  0  0  0
    7.9989  -14.7253   23.7258 N   0  0  0  0  0  0  0  0  0  0  0  0
    8.6799  -15.8191   25.7224 C   0  0  0  0  0  0  0  0  0  0  0  0
    8.8537  -15.9117   26.9709 O   0  0  0  0  0  0  0  0  0  0  0  0
    8.8568  -16.9379   24.8639 N   0  0  0  0  0  0  0  0  0  0  0  0
    9.3084  -18.1863   25.4160 C   0  0  0  0  0  0  0  0  0  0  0  0
   10.8119  -18.2356   25.4811 C   0  0  0  0  0  0  0  0  0  0  0  0
   11.4396  -18.1999   26.5679 O   0  0  0  0  0  0  0  0  0  0  0  0
   11.5441  -18.3237   24.3079 O   0  0  0  0  0  0  0  0  0  0  0  0
  1  2  1  0
  3  2  1  0
  4  5  1  0
  4  3  1  0
  5  1  1  0
  5  6  1  1
  7  6  2  0
  9  8  1  1
  9 11  1  0
 10  9  1  0
 12 11  1  1
 12 13  1  0
 13  6  1  0
 14 15  2  0
 14 12  1  0
 16 14  1  0
 17 16  1  0
 17 18  1  0
 18 20  1  0
 19 18  2  0
M  END
$$$$
