PLG.pdb
     RDKit          3D

 20 20  0  0  1  0  0  0  0  0999 V2000
    8.9083  -15.7025   20.0828 N   0  0  0  0  0  0  0  0  0  0  0  0
    9.2494  -17.0416   19.7115 C   0  0  0  0  0  0  0  0  0  0  0  0
    8.0219  -17.8445   20.1476 C   0  0  0  0  0  0  0  0  0  0  0  0
    7.7317  -17.2076   21.4936 C   0  0  0  0  0  0  0  0  0  0  0  0
    8.0103  -15.7430   21.1908 C   0  0  1  0  0  0  0  0  0  0  0  0
    8.5614  -15.1362   22.4266 C   0  0  0  0  0  0  0  0  0  0  0  0
    9.7900  -14.9043   22.5755 O   0  0  0  0  0  0  0  0  0  0  0  0
    5.7109  -12.2302   27.1109 C   0  0  0  0  0  0  0  0  0  0  0  0
    7.0625  -12.7038   26.5407 C   0  0  2  0  0  0  0  0  0  0  0  0
    7.9423  -11.4774   26.4249 C   0  0  0  0  0  0  0  0  0  0  0  0
    6.8606  -13.3777   25.2251 C   0  0  0  0  0  0  0  0  0  0  0  0
    8.0756  -14.0596   24.6563 C   0  0  2  0  0  0  0  0  0  0  0  0
    7.6424  -14.8156   23.4640 N   0  0  0  0  0  0  0  0  0  0  0  0
    8.5969  -15.0458   25.6279 C   0  0  0  0  0  0  0  0  0  0  0  0
    9.0064  -14.6309   26.7493 O   0  0  0  0  0  0  0  0  0  0  0  0
    8.6296  -16.4262   25.2907 N   0  0  0  0  0  0  0  0  0  0  0  0
    9.0176  -17.3868   26.2876 C   0  0  0  0  0  0  0  0  0  0  0  0
   10.5143  -17.4245   26.4477 C   0  0  0  0  0  0  0  0  0  0  0  0
   11.0838  -18.1835   27.2700 O   0  0  0  0  0  0  0  0  0  0  0  0
   11.3061  -16.5978   25.6667 O   0  0  0  0  0  0  0  0  0  0  0  0
  1  2  1  0
  3  2  1  0
  4  5  1  0
  4  3  1  0
  5  1  1  0
  5  6  1  1
  7  6  2  0
  9  8  1  6
  9 11  1  0
 10  9  1  0
 12 11  1  1
 12 13  1  0
 13  6  1  0
 14 15  2  0
 14 12  1  0
 16 14  1  0
 17 16  1  0
 17 18  1  0
 18 20  1  0
 19 18  2  0
M  END
$$$$
