PLG.pdb
     RDKit          3D

 20 20  0  0  1  0  0  0  0  0999 V2000
    7.6231  -15.1191   20.1108 N   0  0  0  0  0  0  0  0  0  0  0  0
    7.8785  -16.3942   19.5138 C   0  0  0  0  0  0  0  0  0  0  0  0
    6.8930  -17.3167   20.2343 C   0  0  0  0  0  0  0  0  0  0  0  0
    7.0312  -16.8185   21.6606 C   0  0  0  0  0  0  0  0  0  0  0  0
    7.1368  -15.3173   21.4374 C   0  0  1  0  0  0  0  0  0  0  0  0
    8.0350  -14.7794   22.4876 C   0  0  0  0  0  0  0  0  0  0  0  0
    9.1842  -14.3334   22.2303 O   0  0  0  0  0  0  0  0  0  0  0  0
    7.5087  -11.2670   25.5514 C   0  0  0  0  0  0  0  0  0  0  0  0
    6.5456  -12.4625   25.6910 C   0  0  2  0  0  0  0  0  0  0  0  0
    5.5857  -12.1225   26.8111 C   0  0  0  0  0  0  0  0  0  0  0  0
    7.3109  -13.7132   25.9661 C   0  0  0  0  0  0  0  0  0  0  0  0
    8.3024  -14.1094   24.9055 C   0  0  2  0  0  0  0  0  0  0  0  0
    7.5517  -14.7809   23.8254 N   0  0  0  0  0  0  0  0  0  0  0  0
    9.2521  -15.1022   25.4540 C   0  0  0  0  0  0  0  0  0  0  0  0
   10.0279  -14.7455   26.3859 O   0  0  0  0  0  0  0  0  0  0  0  0
    9.2782  -16.4239   24.9321 N   0  0  0  0  0  0  0  0  0  0  0  0
   10.2905  -17.3403   25.3824 C   0  0  0  0  0  0  0  0  0  0  0  0
    9.9214  -17.9418   26.7125 C   0  0  0  0  0  0  0  0  0  0  0  0
    9.4149  -19.0860   26.8159 O   0  0  0  0  0  0  0  0  0  0  0  0
   10.1424  -17.2192   27.8741 O   0  0  0  0  0  0  0  0  0  0  0  0
  1  2  1  0
  3  2  1  0
  4  5  1  0
  4  3  1  0
  5  1  1  0
  5  6  1  1
  7  6  2  0
  9  8  1  1
  9 11  1  0
 10  9  1  0
 12 11  1  1
 12 13  1  0
 13  6  1  0
 14 15  2  0
 14 12  1  0
 16 14  1  0
 17 16  1  0
 17 18  1  0
 18 20  1  0
 19 18  2  0
M  END
$$$$
