PLG.pdb
     RDKit          3D

 20 20  0  0  1  0  0  0  0  0999 V2000
    7.4088  -15.2467   21.1751 N   0  0  0  0  0  0  0  0  0  0  0  0
    6.4801  -14.3908   20.5025 C   0  0  0  0  0  0  0  0  0  0  0  0
    7.3845  -13.5147   19.6331 C   0  0  0  0  0  0  0  0  0  0  0  0
    8.5130  -13.2231   20.6043 C   0  0  0  0  0  0  0  0  0  0  0  0
    8.6589  -14.5698   21.2966 C   0  0  1  0  0  0  0  0  0  0  0  0
    9.0568  -14.3014   22.6997 C   0  0  0  0  0  0  0  0  0  0  0  0
   10.1300  -13.7136   22.9970 O   0  0  0  0  0  0  0  0  0  0  0  0
    7.9645  -11.6444   26.1856 C   0  0  0  0  0  0  0  0  0  0  0  0
    6.8705  -12.5323   25.5602 C   0  0  2  0  0  0  0  0  0  0  0  0
    5.5603  -12.1298   26.2027 C   0  0  0  0  0  0  0  0  0  0  0  0
    7.1861  -13.9736   25.7809 C   0  0  0  0  0  0  0  0  0  0  0  0
    8.4614  -14.4594   25.1466 C   0  0  2  0  0  0  0  0  0  0  0  0
    8.1722  -14.7364   23.7252 N   0  0  0  0  0  0  0  0  0  0  0  0
    8.8703  -15.7407   25.7625 C   0  0  0  0  0  0  0  0  0  0  0  0
    9.0044  -15.7919   27.0182 O   0  0  0  0  0  0  0  0  0  0  0  0
    9.1034  -16.8795   24.9446 N   0  0  0  0  0  0  0  0  0  0  0  0
    9.5017  -18.1180   25.5567 C   0  0  0  0  0  0  0  0  0  0  0  0
   10.8924  -18.5081   25.1313 C   0  0  0  0  0  0  0  0  0  0  0  0
   11.7482  -17.6621   24.7728 O   0  0  0  0  0  0  0  0  0  0  0  0
   11.2568  -19.8450   25.1299 O   0  0  0  0  0  0  0  0  0  0  0  0
  1  2  1  0
  3  2  1  0
  4  5  1  0
  4  3  1  0
  5  1  1  0
  5  6  1  1
  7  6  2  0
  9  8  1  1
  9 11  1  0
 10  9  1  0
 12 11  1  1
 12 13  1  0
 13  6  1  0
 14 15  2  0
 14 12  1  0
 16 14  1  0
 17 16  1  0
 17 18  1  0
 18 20  1  0
 19 18  2  0
M  END
$$$$
