PLG.pdb
     RDKit          3D

 20 20  0  0  1  0  0  0  0  0999 V2000
    8.8152  -19.5719   19.7217 N   0  0  0  0  0  0  0  0  0  0  0  0
    7.6495  -20.0251   19.0265 C   0  0  0  0  0  0  0  0  0  0  0  0
    8.1540  -20.2176   17.5947 C   0  0  0  0  0  0  0  0  0  0  0  0
    9.0161  -18.9801   17.4305 C   0  0  0  0  0  0  0  0  0  0  0  0
    9.6697  -18.8945   18.8016 C   0  0  1  0  0  0  0  0  0  0  0  0
    9.8559  -17.4560   19.1102 C   0  0  0  0  0  0  0  0  0  0  0  0
   10.6808  -16.7335   18.4912 O   0  0  0  0  0  0  0  0  0  0  0  0
    6.2961  -13.0455   21.2984 C   0  0  0  0  0  0  0  0  0  0  0  0
    7.7601  -13.4737   21.0763 C   0  0  2  0  0  0  0  0  0  0  0  0
    8.3379  -12.5346   20.0390 C   0  0  0  0  0  0  0  0  0  0  0  0
    7.8212  -14.8993   20.6408 C   0  0  0  0  0  0  0  0  0  0  0  0
    9.2037  -15.4863   20.5459 C   0  0  2  0  0  0  0  0  0  0  0  0
    9.0584  -16.9013   20.1492 N   0  0  0  0  0  0  0  0  0  0  0  0
    9.8450  -15.4745   21.8789 C   0  0  0  0  0  0  0  0  0  0  0  0
   10.1868  -14.3634   22.3751 O   0  0  0  0  0  0  0  0  0  0  0  0
   10.0647  -16.6956   22.5723 N   0  0  0  0  0  0  0  0  0  0  0  0
   10.6271  -16.6643   23.8952 C   0  0  0  0  0  0  0  0  0  0  0  0
   12.1191  -16.8621   23.8527 C   0  0  0  0  0  0  0  0  0  0  0  0
   12.7470  -17.0139   22.7760 O   0  0  0  0  0  0  0  0  0  0  0  0
   12.8401  -16.8798   25.0359 O   0  0  0  0  0  0  0  0  0  0  0  0
  1  2  1  0
  3  2  1  0
  4  5  1  0
  4  3  1  0
  5  1  1  0
  5  6  1  1
  7  6  2  0
  9  8  1  6
  9 11  1  0
 10  9  1  0
 12 11  1  1
 12 13  1  0
 13  6  1  0
 14 15  2  0
 14 12  1  0
 16 14  1  0
 17 16  1  0
 17 18  1  0
 18 20  1  0
 19 18  2  0
M  END
$$$$
