TEG.pdb
     RDKit          3D

 21 20  0  0  1  0  0  0  0  0999 V2000
   14.9210  -11.8700  -16.5663 C   0  0  0  0  0  0  0  0  0  0  0  0
   15.9484  -10.8677  -16.0909 C   0  0  1  0  0  0  0  0  0  0  0  0
   15.3113   -9.9535  -15.2902 O   0  0  0  0  0  0  0  0  0  0  0  0
   17.1401  -11.5218  -15.4546 C   0  0  2  0  0  0  0  0  0  0  0  0
   16.6745  -12.2258  -14.2635 N   0  0  0  0  0  0  0  0  0  0  0  0
   18.2062  -10.5731  -15.0781 C   0  0  0  0  0  0  0  0  0  0  0  0
   18.3194  -10.1074  -13.8950 O   0  0  0  0  0  0  0  0  0  0  0  0
   19.1740  -10.1187  -16.0099 N   0  0  0  0  0  0  0  0  0  0  0  0
   20.1900   -9.1449  -15.6814 C   0  0  1  0  0  0  0  0  0  0  0  0
   21.4660   -9.4757  -16.4264 C   0  0  0  0  0  0  0  0  0  0  0  0
   22.6153   -8.6167  -15.9778 C   0  0  0  0  0  0  0  0  0  0  0  0
   23.8449   -9.0769  -16.6736 C   0  0  0  0  0  0  0  0  0  0  0  0
   24.2807  -10.2510  -16.5268 O   0  0  0  0  0  0  0  0  0  0  0  0
   19.7776   -7.7648  -16.0370 C   0  0  0  0  0  0  0  0  0  0  0  0
   19.1200   -7.5447  -17.0866 O   0  0  0  0  0  0  0  0  0  0  0  0
   24.5585   -8.2077  -17.5197 O   0  0  0  0  0  0  0  0  0  0  0  0
   20.0878   -6.6250  -15.2392 N   0  0  0  0  0  0  0  0  0  0  0  0
   19.7102   -5.2971  -15.6376 C   0  0  0  0  0  0  0  0  0  0  0  0
   20.1826   -4.2646  -14.6839 C   0  0  0  0  0  0  0  0  0  0  0  0
   20.6868   -4.6631  -13.6024 O   0  0  0  0  0  0  0  0  0  0  0  0
   20.1041   -2.9076  -14.9071 O   0  0  0  0  0  0  0  0  0  0  0  0
  2  1  1  1
  3  2  1  0
  4  5  1  1
  4  2  1  0
  6  4  1  0
  6  7  2  0
  8  6  1  0
  9  8  1  0
  9 14  1  0
  9 10  1  6
 11 10  1  0
 12 11  1  0
 13 12  2  0
 14 17  1  0
 15 14  2  0
 16 12  1  0
 17 18  1  0
 19 21  1  0
 19 18  1  0
 20 19  2  0
M  END
$$$$
