TEG.pdb
     RDKit          3D

 21 20  0  0  1  0  0  0  0  0999 V2000
   15.9584   -8.3323  -15.8979 C   0  0  0  0  0  0  0  0  0  0  0  0
   15.6516   -9.7049  -15.3431 C   0  0  1  0  0  0  0  0  0  0  0  0
   14.3369   -9.9887  -15.6144 O   0  0  0  0  0  0  0  0  0  0  0  0
   16.6199  -10.7484  -15.8187 C   0  0  2  0  0  0  0  0  0  0  0  0
   16.1821  -12.0342  -15.2839 N   0  0  0  0  0  0  0  0  0  0  0  0
   18.0142  -10.4950  -15.4065 C   0  0  0  0  0  0  0  0  0  0  0  0
   18.4247  -10.7107  -14.2171 O   0  0  0  0  0  0  0  0  0  0  0  0
   18.9875   -9.9946  -16.3083 N   0  0  0  0  0  0  0  0  0  0  0  0
   20.3503   -9.7095  -15.9210 C   0  0  1  0  0  0  0  0  0  0  0  0
   21.2997  -10.3086  -16.9370 C   0  0  0  0  0  0  0  0  0  0  0  0
   21.4134  -11.8001  -16.7860 C   0  0  0  0  0  0  0  0  0  0  0  0
   22.4306  -12.2933  -17.7503 C   0  0  0  0  0  0  0  0  0  0  0  0
   23.2138  -13.2355  -17.4524 O   0  0  0  0  0  0  0  0  0  0  0  0
   20.6123   -8.2520  -15.8290 C   0  0  0  0  0  0  0  0  0  0  0  0
   20.2987   -7.4853  -16.7759 O   0  0  0  0  0  0  0  0  0  0  0  0
   22.5460  -11.7168  -19.0290 O   0  0  0  0  0  0  0  0  0  0  0  0
   21.2193   -7.6357  -14.6961 N   0  0  0  0  0  0  0  0  0  0  0  0
   21.3434   -6.2083  -14.5872 C   0  0  0  0  0  0  0  0  0  0  0  0
   22.1616   -5.7992  -13.4201 C   0  0  0  0  0  0  0  0  0  0  0  0
   22.5128   -6.7000  -12.6151 O   0  0  0  0  0  0  0  0  0  0  0  0
   22.5575   -4.5047  -13.1650 O   0  0  0  0  0  0  0  0  0  0  0  0
  2  1  1  6
  3  2  1  0
  4  5  1  1
  4  2  1  0
  6  4  1  0
  6  7  2  0
  8  6  1  0
  9  8  1  0
  9 14  1  0
  9 10  1  6
 11 10  1  0
 12 11  1  0
 13 12  2  0
 14 17  1  0
 15 14  2  0
 16 12  1  0
 17 18  1  0
 19 21  1  0
 19 18  1  0
 20 19  2  0
M  END
$$$$
