TEG.pdb
     RDKit          3D

 21 20  0  0  1  0  0  0  0  0999 V2000
   16.9360   -5.9331  -12.3295 C   0  0  0  0  0  0  0  0  0  0  0  0
   16.5656   -6.9073  -11.2341 C   0  0  1  0  0  0  0  0  0  0  0  0
   15.2934   -6.6110  -10.8144 O   0  0  0  0  0  0  0  0  0  0  0  0
   16.7638   -8.3376  -11.6437 C   0  0  2  0  0  0  0  0  0  0  0  0
   16.2977   -9.1802  -10.5465 N   0  0  0  0  0  0  0  0  0  0  0  0
   18.1655   -8.6748  -11.9596 C   0  0  0  0  0  0  0  0  0  0  0  0
   18.9729   -9.1300  -11.0818 O   0  0  0  0  0  0  0  0  0  0  0  0
   18.7041   -8.5139  -13.2616 N   0  0  0  0  0  0  0  0  0  0  0  0
   20.0513   -8.9022  -13.6123 C   0  0  1  0  0  0  0  0  0  0  0  0
   20.0522   -9.5357  -14.9875 C   0  0  0  0  0  0  0  0  0  0  0  0
   19.3653  -10.8730  -14.9886 C   0  0  0  0  0  0  0  0  0  0  0  0
   19.4015  -11.4181  -16.3705 C   0  0  0  0  0  0  0  0  0  0  0  0
   20.3061  -12.2165  -16.7368 O   0  0  0  0  0  0  0  0  0  0  0  0
   20.9818   -7.7466  -13.6220 C   0  0  0  0  0  0  0  0  0  0  0  0
   22.2104   -7.9172  -13.8318 O   0  0  0  0  0  0  0  0  0  0  0  0
   18.4201  -11.0541  -17.3113 O   0  0  0  0  0  0  0  0  0  0  0  0
   20.5626   -6.4023  -13.4012 N   0  0  0  0  0  0  0  0  0  0  0  0
   21.4434   -5.2889  -13.6237 C   0  0  0  0  0  0  0  0  0  0  0  0
   20.8043   -3.9896  -13.3043 C   0  0  0  0  0  0  0  0  0  0  0  0
   19.5989   -4.0104  -12.9445 O   0  0  0  0  0  0  0  0  0  0  0  0
   21.4434   -2.7714  -13.3766 O   0  0  0  0  0  0  0  0  0  0  0  0
  2  1  1  6
  3  2  1  0
  4  5  1  1
  4  2  1  0
  6  4  1  0
  6  7  2  0
  8  6  1  0
  9  8  1  0
  9 14  1  0
  9 10  1  6
 11 10  1  0
 12 11  1  0
 13 12  2  0
 14 17  1  0
 15 14  2  0
 16 12  1  0
 17 18  1  0
 19 21  1  0
 19 18  1  0
 20 19  2  0
M  END
$$$$
