TEG.pdb
     RDKit          3D

 21 20  0  0  1  0  0  0  0  0999 V2000
   16.4531   -5.5323   -9.3368 C   0  0  0  0  0  0  0  0  0  0  0  0
   15.6090   -6.6734   -8.8156 C   0  0  1  0  0  0  0  0  0  0  0  0
   14.5038   -6.1390   -8.2030 O   0  0  0  0  0  0  0  0  0  0  0  0
   15.2973   -7.6902   -9.8748 C   0  0  2  0  0  0  0  0  0  0  0  0
   14.6285   -8.8138   -9.2257 N   0  0  0  0  0  0  0  0  0  0  0  0
   16.4886   -8.1789  -10.5961 C   0  0  0  0  0  0  0  0  0  0  0  0
   17.2912   -9.0325  -10.0895 O   0  0  0  0  0  0  0  0  0  0  0  0
   16.8166   -7.7294  -11.9005 N   0  0  0  0  0  0  0  0  0  0  0  0
   18.0133   -8.1396  -12.5993 C   0  0  1  0  0  0  0  0  0  0  0  0
   17.6661   -8.4938  -14.0299 C   0  0  0  0  0  0  0  0  0  0  0  0
   18.8778   -8.9192  -14.8115 C   0  0  0  0  0  0  0  0  0  0  0  0
   18.7058  -10.3411  -15.2070 C   0  0  0  0  0  0  0  0  0  0  0  0
   19.6897  -11.1270  -15.2724 O   0  0  0  0  0  0  0  0  0  0  0  0
   19.0463   -7.0747  -12.6119 C   0  0  0  0  0  0  0  0  0  0  0  0
   18.7241   -5.8739  -12.8043 O   0  0  0  0  0  0  0  0  0  0  0  0
   17.4315  -10.8495  -15.5207 O   0  0  0  0  0  0  0  0  0  0  0  0
   20.4348   -7.3287  -12.4132 N   0  0  0  0  0  0  0  0  0  0  0  0
   21.3940   -6.2624  -12.3256 C   0  0  0  0  0  0  0  0  0  0  0  0
   21.7584   -5.7187  -13.6562 C   0  0  0  0  0  0  0  0  0  0  0  0
   21.1568   -6.1866  -14.6571 O   0  0  0  0  0  0  0  0  0  0  0  0
   22.7069   -4.7413  -13.8623 O   0  0  0  0  0  0  0  0  0  0  0  0
  2  1  1  6
  3  2  1  0
  4  5  1  1
  4  2  1  0
  6  4  1  0
  6  7  2  0
  8  6  1  0
  9  8  1  0
  9 14  1  0
  9 10  1  6
 11 10  1  0
 12 11  1  0
 13 12  2  0
 14 17  1  0
 15 14  2  0
 16 12  1  0
 17 18  1  0
 19 21  1  0
 19 18  1  0
 20 19  2  0
M  END
$$$$
