TEG.pdb
     RDKit          3D

 21 20  0  0  1  0  0  0  0  0999 V2000
   23.0956   -9.6021  -17.6260 C   0  0  0  0  0  0  0  0  0  0  0  0
   21.9906  -10.2060  -18.4629 C   0  0  1  0  0  0  0  0  0  0  0  0
   22.4799  -11.3420  -19.0567 O   0  0  0  0  0  0  0  0  0  0  0  0
   20.7246  -10.4124  -17.6835 C   0  0  2  0  0  0  0  0  0  0  0  0
   19.7645  -11.0689  -18.5657 N   0  0  0  0  0  0  0  0  0  0  0  0
   20.1378   -9.1617  -17.1642 C   0  0  0  0  0  0  0  0  0  0  0  0
   19.5763   -8.3035  -17.9244 O   0  0  0  0  0  0  0  0  0  0  0  0
   20.1610   -8.8345  -15.7845 N   0  0  0  0  0  0  0  0  0  0  0  0
   19.6762   -7.5769  -15.2630 C   0  0  1  0  0  0  0  0  0  0  0  0
   18.4268   -7.8187  -14.4425 C   0  0  0  0  0  0  0  0  0  0  0  0
   17.2635   -8.2297  -15.3015 C   0  0  0  0  0  0  0  0  0  0  0  0
   16.0785   -8.4223  -14.4260 C   0  0  0  0  0  0  0  0  0  0  0  0
   15.4767   -7.4407  -13.9119 O   0  0  0  0  0  0  0  0  0  0  0  0
   20.6822   -6.9015  -14.4069 C   0  0  0  0  0  0  0  0  0  0  0  0
   21.4551   -7.5741  -13.6769 O   0  0  0  0  0  0  0  0  0  0  0  0
   15.5950   -9.7142  -14.1468 O   0  0  0  0  0  0  0  0  0  0  0  0
   20.8398   -5.4858  -14.3524 N   0  0  0  0  0  0  0  0  0  0  0  0
   21.9431   -4.8733  -13.6651 C   0  0  0  0  0  0  0  0  0  0  0  0
   21.7824   -3.4051  -13.5333 C   0  0  0  0  0  0  0  0  0  0  0  0
   20.8608   -2.8619  -14.1954 O   0  0  0  0  0  0  0  0  0  0  0  0
   22.5731   -2.6059  -12.7374 O   0  0  0  0  0  0  0  0  0  0  0  0
  2  1  1  1
  3  2  1  0
  4  5  1  6
  4  2  1  0
  6  4  1  0
  6  7  2  0
  8  6  1  0
  9  8  1  0
  9 14  1  0
  9 10  1  1
 11 10  1  0
 12 11  1  0
 13 12  2  0
 14 17  1  0
 15 14  2  0
 16 12  1  0
 17 18  1  0
 19 21  1  0
 19 18  1  0
 20 19  2  0
M  END
$$$$
