TEG.pdb
     RDKit          3D

 21 20  0  0  1  0  0  0  0  0999 V2000
   21.8012   -9.4573  -20.6577 C   0  0  0  0  0  0  0  0  0  0  0  0
   21.2196  -10.1704  -19.4580 C   0  0  1  0  0  0  0  0  0  0  0  0
   21.5396  -11.5009  -19.5582 O   0  0  0  0  0  0  0  0  0  0  0  0
   21.6211   -9.5344  -18.1591 C   0  0  2  0  0  0  0  0  0  0  0  0
   21.7638  -10.5995  -17.1710 N   0  0  0  0  0  0  0  0  0  0  0  0
   20.6549   -8.5339  -17.6655 C   0  0  0  0  0  0  0  0  0  0  0  0
   20.2766   -7.5420  -18.3745 O   0  0  0  0  0  0  0  0  0  0  0  0
   20.0849   -8.6123  -16.3694 N   0  0  0  0  0  0  0  0  0  0  0  0
   19.2299   -7.5851  -15.8194 C   0  0  1  0  0  0  0  0  0  0  0  0
   18.0322   -8.2286  -15.1531 C   0  0  0  0  0  0  0  0  0  0  0  0
   17.0781   -8.8114  -16.1583 C   0  0  0  0  0  0  0  0  0  0  0  0
   15.9230   -9.3931  -15.4266 C   0  0  0  0  0  0  0  0  0  0  0  0
   15.9784  -10.5496  -14.9274 O   0  0  0  0  0  0  0  0  0  0  0  0
   19.9353   -6.7468  -14.8189 C   0  0  0  0  0  0  0  0  0  0  0  0
   19.3148   -5.8617  -14.1753 O   0  0  0  0  0  0  0  0  0  0  0  0
   14.7302   -8.6624  -15.2717 O   0  0  0  0  0  0  0  0  0  0  0  0
   21.3236   -6.8804  -14.5250 N   0  0  0  0  0  0  0  0  0  0  0  0
   21.9640   -6.0809  -13.5172 C   0  0  0  0  0  0  0  0  0  0  0  0
   22.0752   -4.6560  -13.9120 C   0  0  0  0  0  0  0  0  0  0  0  0
   21.5362   -4.3118  -14.9954 O   0  0  0  0  0  0  0  0  0  0  0  0
   22.7266   -3.6939  -13.1720 O   0  0  0  0  0  0  0  0  0  0  0  0
  2  1  1  6
  3  2  1  0
  4  5  1  1
  4  2  1  0
  6  4  1  0
  6  7  2  0
  8  6  1  0
  9  8  1  0
  9 14  1  0
  9 10  1  1
 11 10  1  0
 12 11  1  0
 13 12  2  0
 14 17  1  0
 15 14  2  0
 16 12  1  0
 17 18  1  0
 19 21  1  0
 19 18  1  0
 20 19  2  0
M  END
$$$$
