TEG.pdb
     RDKit          3D

 21 20  0  0  1  0  0  0  0  0999 V2000
   17.9237  -25.5307   -2.2789 C   0  0  0  0  0  0  0  0  0  0  0  0
   17.1497  -25.9023   -3.5235 C   0  0  1  0  0  0  0  0  0  0  0  0
   17.0107  -24.7731   -4.2904 O   0  0  0  0  0  0  0  0  0  0  0  0
   17.7506  -27.0713   -4.2482 C   0  0  2  0  0  0  0  0  0  0  0  0
   16.9418  -27.3166   -5.4385 N   0  0  0  0  0  0  0  0  0  0  0  0
   17.8146  -28.3024   -3.4366 C   0  0  0  0  0  0  0  0  0  0  0  0
   16.7854  -29.0202   -3.2023 O   0  0  0  0  0  0  0  0  0  0  0  0
   19.0269  -28.7659   -2.8651 N   0  0  0  0  0  0  0  0  0  0  0  0
   19.1000  -29.9171   -1.9946 C   0  0  1  0  0  0  0  0  0  0  0  0
   20.5037  -30.4840   -2.0242 C   0  0  0  0  0  0  0  0  0  0  0  0
   20.6023  -31.7757   -1.2612 C   0  0  0  0  0  0  0  0  0  0  0  0
   22.0037  -32.2629   -1.3423 C   0  0  0  0  0  0  0  0  0  0  0  0
   22.4303  -32.8652   -2.3647 O   0  0  0  0  0  0  0  0  0  0  0  0
   18.7542  -29.5803   -0.5916 C   0  0  0  0  0  0  0  0  0  0  0  0
   19.2568  -28.5706   -0.0344 O   0  0  0  0  0  0  0  0  0  0  0  0
   22.8960  -32.0628   -0.2725 O   0  0  0  0  0  0  0  0  0  0  0  0
   17.8556  -30.3531    0.2002 N   0  0  0  0  0  0  0  0  0  0  0  0
   17.5284  -29.9849    1.5501 C   0  0  0  0  0  0  0  0  0  0  0  0
   18.4035  -30.6499    2.5455 C   0  0  0  0  0  0  0  0  0  0  0  0
   19.3048  -31.4104    2.1074 O   0  0  0  0  0  0  0  0  0  0  0  0
   18.2913  -30.4879    3.9089 O   0  0  0  0  0  0  0  0  0  0  0  0
  2  1  1  1
  3  2  1  0
  4  5  1  6
  4  2  1  0
  6  4  1  0
  6  7  2  0
  8  6  1  0
  9  8  1  0
  9 14  1  0
  9 10  1  1
 11 10  1  0
 12 11  1  0
 13 12  2  0
 14 17  1  0
 15 14  2  0
 16 12  1  0
 17 18  1  0
 19 21  1  0
 19 18  1  0
 20 19  2  0
M  END
$$$$
