TEG.pdb
     RDKit          3D

 21 20  0  0  1  0  0  0  0  0999 V2000
   26.5026  -10.6757  -15.2245 C   0  0  0  0  0  0  0  0  0  0  0  0
   26.2534  -11.6128  -16.3847 C   0  0  1  0  0  0  0  0  0  0  0  0
   27.1531  -12.6451  -16.2978 O   0  0  0  0  0  0  0  0  0  0  0  0
   24.8200  -12.0485  -16.4760 C   0  0  2  0  0  0  0  0  0  0  0  0
   24.7168  -13.0005  -17.5778 N   0  0  0  0  0  0  0  0  0  0  0  0
   23.8757  -10.9364  -16.6988 C   0  0  0  0  0  0  0  0  0  0  0  0
   23.6077  -10.4912  -17.8648 O   0  0  0  0  0  0  0  0  0  0  0  0
   23.2052  -10.2913  -15.6285 N   0  0  0  0  0  0  0  0  0  0  0  0
   22.2657   -9.2105  -15.8223 C   0  0  1  0  0  0  0  0  0  0  0  0
   20.8704   -9.7767  -15.9806 C   0  0  0  0  0  0  0  0  0  0  0  0
   19.8883   -8.7297  -16.4273 C   0  0  0  0  0  0  0  0  0  0  0  0
   18.5447   -9.3569  -16.5232 C   0  0  0  0  0  0  0  0  0  0  0  0
   18.3005  -10.2573  -17.3715 O   0  0  0  0  0  0  0  0  0  0  0  0
   22.2649   -8.2593  -14.6836 C   0  0  0  0  0  0  0  0  0  0  0  0
   22.3616   -8.6778  -13.5012 O   0  0  0  0  0  0  0  0  0  0  0  0
   17.5040   -8.9587  -15.6635 O   0  0  0  0  0  0  0  0  0  0  0  0
   22.1577   -6.8469  -14.8436 N   0  0  0  0  0  0  0  0  0  0  0  0
   22.2166   -5.9518  -13.7211 C   0  0  0  0  0  0  0  0  0  0  0  0
   22.0383   -4.5343  -14.1181 C   0  0  0  0  0  0  0  0  0  0  0  0
   21.9183   -4.2878  -15.3460 O   0  0  0  0  0  0  0  0  0  0  0  0
   21.9962   -3.4795  -13.2332 O   0  0  0  0  0  0  0  0  0  0  0  0
  2  1  1  1
  3  2  1  0
  4  5  1  6
  4  2  1  0
  6  4  1  0
  6  7  2  0
  8  6  1  0
  9  8  1  0
  9 14  1  0
  9 10  1  1
 11 10  1  0
 12 11  1  0
 13 12  2  0
 14 17  1  0
 15 14  2  0
 16 12  1  0
 17 18  1  0
 19 21  1  0
 19 18  1  0
 20 19  2  0
M  END
$$$$
