FVH.pdb
     RDKit          3D

 29 30  0  0  1  0  0  0  0  0999 V2000
   28.8327  -19.8506  -16.1034 N   0  0  0  0  0  0  0  0  0  0  0  0
   27.7796  -19.3528  -15.2726 C   0  0  1  0  0  0  0  0  0  0  0  0
   26.8141  -18.4724  -16.0385 C   0  0  0  0  0  0  0  0  0  0  0  0
   27.3933  -17.1217  -16.1435 C   0  0  0  0  0  0  0  0  0  0  0  0
   27.9945  -16.6949  -17.3024 C   0  0  0  0  0  0  0  0  0  0  0  0
   28.5492  -15.4222  -17.4088 C   0  0  0  0  0  0  0  0  0  0  0  0
   28.4955  -14.5711  -16.3312 C   0  0  0  0  0  0  0  0  0  0  0  0
   27.8940  -14.9795  -15.1508 C   0  0  0  0  0  0  0  0  0  0  0  0
   27.3457  -16.2643  -15.0748 C   0  0  0  0  0  0  0  0  0  0  0  0
   27.0390  -20.3988  -14.5605 C   0  0  0  0  0  0  0  0  0  0  0  0
   26.9597  -21.5856  -15.0043 O   0  0  0  0  0  0  0  0  0  0  0  0
   24.9960  -21.8459  -10.3440 C   0  0  0  0  0  0  0  0  0  0  0  0
   25.8783  -20.8534  -11.0664 C   0  0  2  0  0  0  0  0  0  0  0  0
   25.5004  -19.4773  -10.5919 C   0  0  0  0  0  0  0  0  0  0  0  0
   25.6418  -21.0189  -12.5525 C   0  0  2  0  0  0  0  0  0  0  0  0
   26.3887  -20.0702  -13.3315 N   0  0  0  0  0  0  0  0  0  0  0  0
   24.2041  -20.8387  -12.8619 C   0  0  0  0  0  0  0  0  0  0  0  0
   23.7521  -19.6790  -13.0153 O   0  0  0  0  0  0  0  0  0  0  0  0
   23.3230  -21.9406  -12.9898 N   0  0  0  0  0  0  0  0  0  0  0  0
   21.9714  -21.7775  -13.4900 C   0  0  1  0  0  0  0  0  0  0  0  0
   21.6534  -22.9596  -14.3563 C   0  0  0  0  0  0  0  0  0  0  0  0
   20.2366  -23.0000  -14.7780 C   0  0  0  0  0  0  0  0  0  0  0  0
   19.2313  -22.0956  -14.4789 C   0  0  0  0  0  0  0  0  0  0  0  0
   18.1053  -22.5281  -15.0707 N   0  0  0  0  0  0  0  0  0  0  0  0
   18.3575  -23.6617  -15.7271 C   0  0  0  0  0  0  0  0  0  0  0  0
   19.6419  -23.9343  -15.5432 N   0  0  0  0  0  0  0  0  0  0  0  0
   21.0574  -21.6905  -12.3092 C   0  0  0  0  0  0  0  0  0  0  0  0
   21.3516  -22.2201  -11.2065 O   0  0  0  0  0  0  0  0  0  0  0  0
   19.8417  -21.0214  -12.3745 O   0  0  0  0  0  0  0  0  0  0  0  0
  2  1  1  6
  2  3  1  0
  2 10  1  0
  4  3  1  0
  4  9  1  0
  5  4  2  0
  6  5  1  0
  6  7  2  0
  7  8  1  0
  8  9  2  0
 10 11  2  0
 13 12  1  1
 13 14  1  0
 13 15  1  0
 15 16  1  6
 16 10  1  0
 17 15  1  0
 17 18  2  0
 19 17  1  0
 20 19  1  0
 20 27  1  0
 20 21  1  6
 22 21  1  0
 22 23  2  0
 24 23  1  0
 25 26  2  0
 25 24  1  0
 26 22  1  0
 27 28  2  0
 27 29  1  0
M  END
$$$$
