FVH.pdb
     RDKit          3D

 29 30  0  0  1  0  0  0  0  0999 V2000
   27.1499  -22.3402  -16.8233 N   0  0  0  0  0  0  0  0  0  0  0  0
   26.0751  -21.4912  -16.4098 C   0  0  1  0  0  0  0  0  0  0  0  0
   25.1510  -21.1381  -17.5566 C   0  0  0  0  0  0  0  0  0  0  0  0
   25.9106  -20.3552  -18.5470 C   0  0  0  0  0  0  0  0  0  0  0  0
   26.3308  -20.9189  -19.7270 C   0  0  0  0  0  0  0  0  0  0  0  0
   27.0536  -20.1881  -20.6662 C   0  0  0  0  0  0  0  0  0  0  0  0
   27.3552  -18.8721  -20.4096 C   0  0  0  0  0  0  0  0  0  0  0  0
   26.9419  -18.2812  -19.2256 C   0  0  0  0  0  0  0  0  0  0  0  0
   26.2173  -19.0417  -18.3016 C   0  0  0  0  0  0  0  0  0  0  0  0
   25.2939  -22.0237  -15.2891 C   0  0  0  0  0  0  0  0  0  0  0  0
   24.8505  -23.2133  -15.2855 O   0  0  0  0  0  0  0  0  0  0  0  0
   26.2182  -21.3506  -11.5822 C   0  0  0  0  0  0  0  0  0  0  0  0
   24.7636  -20.9711  -11.7423 C   0  0  2  0  0  0  0  0  0  0  0  0
   24.0216  -21.4921  -10.5425 C   0  0  0  0  0  0  0  0  0  0  0  0
   24.2608  -21.5943  -13.0271 C   0  0  2  0  0  0  0  0  0  0  0  0
   25.0254  -21.1772  -14.1700 N   0  0  0  0  0  0  0  0  0  0  0  0
   22.8466  -21.2163  -13.2562 C   0  0  0  0  0  0  0  0  0  0  0  0
   22.5662  -20.0203  -13.5082 O   0  0  0  0  0  0  0  0  0  0  0  0
   21.7995  -22.1688  -13.1987 N   0  0  0  0  0  0  0  0  0  0  0  0
   20.4327  -21.8150  -13.5310 C   0  0  1  0  0  0  0  0  0  0  0  0
   19.7004  -23.0765  -13.8790 C   0  0  0  0  0  0  0  0  0  0  0  0
   20.1575  -23.6753  -15.1516 C   0  0  0  0  0  0  0  0  0  0  0  0
   20.4987  -23.0257  -16.3262 C   0  0  0  0  0  0  0  0  0  0  0  0
   20.8547  -23.9627  -17.2210 N   0  0  0  0  0  0  0  0  0  0  0  0
   20.7527  -25.1697  -16.6623 C   0  0  0  0  0  0  0  0  0  0  0  0
   20.3327  -24.9830  -15.4186 N   0  0  0  0  0  0  0  0  0  0  0  0
   19.8366  -21.1358  -12.3391 C   0  0  0  0  0  0  0  0  0  0  0  0
   20.3348  -21.2609  -11.1905 O   0  0  0  0  0  0  0  0  0  0  0  0
   18.7059  -20.3357  -12.4440 O   0  0  0  0  0  0  0  0  0  0  0  0
  2  1  1  6
  2  3  1  0
  2 10  1  0
  4  3  1  0
  4  9  1  0
  5  4  2  0
  6  5  1  0
  6  7  2  0
  7  8  1  0
  8  9  2  0
 10 11  2  0
 13 12  1  1
 13 14  1  0
 13 15  1  0
 15 16  1  6
 16 10  1  0
 17 15  1  0
 17 18  2  0
 19 17  1  0
 20 19  1  0
 20 27  1  0
 20 21  1  1
 22 21  1  0
 22 23  2  0
 24 23  1  0
 25 26  2  0
 25 24  1  0
 26 22  1  0
 27 28  2  0
 27 29  1  0
M  END
$$$$
