FVH.pdb
     RDKit          3D

 29 30  0  0  1  0  0  0  0  0999 V2000
   39.9601   -4.5360   -6.0249 N   0  0  0  0  0  0  0  0  0  0  0  0
   38.9057   -4.7520   -6.9676 C   0  0  1  0  0  0  0  0  0  0  0  0
   37.7321   -3.8230   -6.7363 C   0  0  0  0  0  0  0  0  0  0  0  0
   37.1747   -4.0955   -5.4000 C   0  0  0  0  0  0  0  0  0  0  0  0
   37.3874   -3.2330   -4.3523 C   0  0  0  0  0  0  0  0  0  0  0  0
   36.8689   -3.4852   -3.0849 C   0  0  0  0  0  0  0  0  0  0  0  0
   36.1268   -4.6224   -2.8741 C   0  0  0  0  0  0  0  0  0  0  0  0
   35.8987   -5.5080   -3.9160 C   0  0  0  0  0  0  0  0  0  0  0  0
   36.4330   -5.2269   -5.1780 C   0  0  0  0  0  0  0  0  0  0  0  0
   39.3339   -4.6712   -8.3676 C   0  0  0  0  0  0  0  0  0  0  0  0
   40.4188   -4.1054   -8.7060 O   0  0  0  0  0  0  0  0  0  0  0  0
   38.2699   -7.6880  -10.9589 C   0  0  0  0  0  0  0  0  0  0  0  0
   39.4025   -6.7020  -11.1333 C   0  0  2  0  0  0  0  0  0  0  0  0
   40.5268   -7.1348  -10.2334 C   0  0  0  0  0  0  0  0  0  0  0  0
   38.8832   -5.3293  -10.7618 C   0  0  2  0  0  0  0  0  0  0  0  0
   38.5042   -5.2468   -9.3782 N   0  0  0  0  0  0  0  0  0  0  0  0
   37.6976   -4.9941  -11.5848 C   0  0  0  0  0  0  0  0  0  0  0  0
   36.5551   -5.2894  -11.1605 O   0  0  0  0  0  0  0  0  0  0  0  0
   37.8172   -4.3483  -12.8400 N   0  0  0  0  0  0  0  0  0  0  0  0
   36.6498   -3.9520  -13.6040 C   0  0  1  0  0  0  0  0  0  0  0  0
   36.9601   -2.6502  -14.2805 C   0  0  0  0  0  0  0  0  0  0  0  0
   36.8991   -1.4942  -13.3602 C   0  0  0  0  0  0  0  0  0  0  0  0
   36.5929   -1.4940  -12.0096 C   0  0  0  0  0  0  0  0  0  0  0  0
   36.6572   -0.2234  -11.5777 N   0  0  0  0  0  0  0  0  0  0  0  0
   36.9895    0.5735  -12.5946 C   0  0  0  0  0  0  0  0  0  0  0  0
   37.1320   -0.2026  -13.6600 N   0  0  0  0  0  0  0  0  0  0  0  0
   36.3628   -5.0383  -14.5915 C   0  0  0  0  0  0  0  0  0  0  0  0
   37.2279   -5.9003  -14.8942 O   0  0  0  0  0  0  0  0  0  0  0  0
   35.1288   -5.1464  -15.2202 O   0  0  0  0  0  0  0  0  0  0  0  0
  2  1  1  1
  2  3  1  0
  2 10  1  0
  4  3  1  0
  4  9  1  0
  5  4  2  0
  6  5  1  0
  6  7  2  0
  7  8  1  0
  8  9  2  0
 10 11  2  0
 13 12  1  1
 13 14  1  0
 13 15  1  0
 15 16  1  1
 16 10  1  0
 17 15  1  0
 17 18  2  0
 19 17  1  0
 20 19  1  0
 20 27  1  0
 20 21  1  6
 22 21  1  0
 22 23  2  0
 24 23  1  0
 25 26  2  0
 25 24  1  0
 26 22  1  0
 27 28  2  0
 27 29  1  0
M  END
$$$$
