FVH.pdb
     RDKit          3D

 29 30  0  0  1  0  0  0  0  0999 V2000
   28.2535  -19.3767  -16.4519 N   0  0  0  0  0  0  0  0  0  0  0  0
   27.2519  -18.8760  -15.5613 C   0  0  1  0  0  0  0  0  0  0  0  0
   26.3071  -17.9111  -16.2469 C   0  0  0  0  0  0  0  0  0  0  0  0
   26.9323  -16.5771  -16.2671 C   0  0  0  0  0  0  0  0  0  0  0  0
   26.8950  -15.7586  -15.1646 C   0  0  0  0  0  0  0  0  0  0  0  0
   27.4786  -14.4944  -15.1765 C   0  0  0  0  0  0  0  0  0  0  0  0
   28.1070  -14.0526  -16.3159 C   0  0  0  0  0  0  0  0  0  0  0  0
   28.1574  -14.8608  -17.4412 C   0  0  0  0  0  0  0  0  0  0  0  0
   27.5618  -16.1259  -17.3982 C   0  0  0  0  0  0  0  0  0  0  0  0
   26.4838  -19.9233  -14.8809 C   0  0  0  0  0  0  0  0  0  0  0  0
   26.2153  -21.0302  -15.4416 O   0  0  0  0  0  0  0  0  0  0  0  0
   27.0197  -21.1299  -11.2013 C   0  0  0  0  0  0  0  0  0  0  0  0
   25.5953  -20.6403  -11.3314 C   0  0  2  0  0  0  0  0  0  0  0  0
   24.7173  -21.5787  -10.5505 C   0  0  0  0  0  0  0  0  0  0  0  0
   25.2402  -20.6337  -12.8030 C   0  0  2  0  0  0  0  0  0  0  0  0
   26.0253  -19.6887  -13.5482 N   0  0  0  0  0  0  0  0  0  0  0  0
   23.8109  -20.2857  -12.9797 C   0  0  0  0  0  0  0  0  0  0  0  0
   23.4159  -19.1399  -12.6576 O   0  0  0  0  0  0  0  0  0  0  0  0
   22.8751  -21.2116  -13.5032 N   0  0  0  0  0  0  0  0  0  0  0  0
   21.4721  -20.8734  -13.6472 C   0  0  1  0  0  0  0  0  0  0  0  0
   21.0292  -21.3101  -15.0118 C   0  0  0  0  0  0  0  0  0  0  0  0
   21.4870  -20.4006  -16.0842 C   0  0  0  0  0  0  0  0  0  0  0  0
   22.1542  -19.1941  -15.9528 C   0  0  0  0  0  0  0  0  0  0  0  0
   22.3709  -18.7121  -17.1880 N   0  0  0  0  0  0  0  0  0  0  0  0
   21.8707  -19.5600  -18.0882 C   0  0  0  0  0  0  0  0  0  0  0  0
   21.3423  -20.5705  -17.4118 N   0  0  0  0  0  0  0  0  0  0  0  0
   20.7206  -21.5813  -12.5648 C   0  0  0  0  0  0  0  0  0  0  0  0
   21.1204  -22.6764  -12.0915 O   0  0  0  0  0  0  0  0  0  0  0  0
   19.5471  -21.0633  -12.0316 O   0  0  0  0  0  0  0  0  0  0  0  0
  2  1  1  6
  2  3  1  0
  2 10  1  0
  4  3  1  0
  4  9  1  0
  5  4  2  0
  6  5  1  0
  6  7  2  0
  7  8  1  0
  8  9  2  0
 10 11  2  0
 13 12  1  6
 13 14  1  0
 13 15  1  0
 15 16  1  6
 16 10  1  0
 17 15  1  0
 17 18  2  0
 19 17  1  0
 20 19  1  0
 20 27  1  0
 20 21  1  6
 22 21  1  0
 22 23  2  0
 24 23  1  0
 25 26  2  0
 25 24  1  0
 26 22  1  0
 27 28  2  0
 27 29  1  0
M  END
$$$$
