RMY.pdb
     RDKit          3D

 32 32  0  0  1  0  0  0  0  0999 V2000
   26.5059  -25.6722  -15.9755 N   0  0  0  0  0  0  0  0  0  0  0  0
   25.4407  -25.7094  -16.9070 C   0  0  0  0  0  0  0  0  0  0  0  0
   24.6416  -26.7381  -16.9663 N   0  0  0  0  0  0  0  0  0  0  0  0
   25.2612  -24.6050  -17.7749 N   0  0  0  0  0  0  0  0  0  0  0  0
   25.9290  -23.3528  -17.5243 C   0  0  0  0  0  0  0  0  0  0  0  0
   25.0610  -22.5025  -16.6475 C   0  0  0  0  0  0  0  0  0  0  0  0
   24.6651  -21.1870  -17.2108 C   0  0  0  0  0  0  0  0  0  0  0  0
   25.1293  -19.9815  -16.4616 C   0  0  2  0  0  0  0  0  0  0  0  0
   26.4490  -20.1074  -15.8919 N   0  0  0  0  0  0  0  0  0  0  0  0
   24.1031  -19.7168  -15.3939 C   0  0  0  0  0  0  0  0  0  0  0  0
   24.4636  -19.9223  -14.2084 O   0  0  0  0  0  0  0  0  0  0  0  0
   23.9169  -26.7787  -17.7030 C   0  0  0  0  0  0  0  0  0  0  0  0
   17.7710  -15.7837  -13.2466 S   0  0  0  0  0  0  0  0  0  0  0  0
   18.8474  -16.2504  -14.6295 C   0  0  0  0  0  0  0  0  0  0  0  0
   20.0438  -17.4775  -14.0237 C   0  0  0  0  0  0  0  0  0  0  0  0
   20.9523  -17.8498  -15.1483 C   0  0  2  0  0  0  0  0  0  0  0  0
   21.8676  -18.9905  -14.6855 N   0  0  0  0  0  0  0  0  0  0  0  0
   22.7981  -19.2578  -15.7281 C   0  0  0  0  0  0  0  0  0  0  0  0
   21.0506  -20.1872  -14.3280 O   0  0  0  0  0  0  0  0  0  0  0  0
   20.6128  -20.9913  -15.1841 O   0  0  0  0  0  0  0  0  0  0  0  0
   17.6235  -27.0500  -10.0318 C   0  0  0  0  0  0  0  0  0  0  0  0
   18.3424  -25.9153  -10.3925 C   0  0  0  0  0  0  0  0  0  0  0  0
   19.3046  -25.9099  -11.3755 C   0  0  0  0  0  0  0  0  0  0  0  0
   19.9877  -24.7565  -11.6934 C   0  0  0  0  0  0  0  0  0  0  0  0
   19.7449  -23.5460  -11.0446 C   0  0  0  0  0  0  0  0  0  0  0  0
   20.5015  -22.3188  -11.3746 C   0  0  2  0  0  0  0  0  0  0  0  0
   19.9572  -21.6662  -12.5803 N   0  0  0  0  0  0  0  0  0  0  0  0
   20.7176  -20.4892  -12.9854 C   0  0  0  0  0  0  0  0  0  0  0  0
   18.5731  -21.2056  -12.3455 O   0  0  0  0  0  0  0  0  0  0  0  0
   18.2536  -20.0928  -11.8517 C   0  0  0  0  0  0  0  0  0  0  0  0
   18.7657  -23.6160  -10.0649 C   0  0  0  0  0  0  0  0  0  0  0  0
   18.0776  -24.7456   -9.7345 O   0  0  0  0  0  0  0  0  0  0  0  0
  2  1  1  0
  3  2  2  0
  4  2  1  0
  5  4  1  0
  6  5  1  0
  7  6  1  0
  8  7  1  0
  8  9  1  1
 10  8  1  0
 10 11  2  0
 12 13  1  0
 13 14  1  0
 14 15  1  0
 16 15  1  1
 16 18  1  0
 16 17  1  0
 17 10  1  0
 18 27  1  0
 19 18  2  0
 21 20  1  0
 21 31  2  0
 22 21  1  0
 23 22  2  0
 23 24  1  0
 24 30  2  0
 25 24  1  0
 26 25  1  6
 26 28  1  0
 27 26  1  0
 28 29  2  0
 28 32  1  0
 30 31  1  0
M  END
$$$$
