RMY.pdb
     RDKit          3D

 32 32  0  0  1  0  0  0  0  0999 V2000
   30.7850  -19.7898  -20.1585 N   0  0  0  0  0  0  0  0  0  0  0  0
   29.3818  -19.9047  -20.0127 C   0  0  0  0  0  0  0  0  0  0  0  0
   28.6819  -20.6298  -20.8401 N   0  0  0  0  0  0  0  0  0  0  0  0
   28.7527  -19.2141  -18.9484 N   0  0  0  0  0  0  0  0  0  0  0  0
   29.5332  -18.5765  -17.9184 C   0  0  0  0  0  0  0  0  0  0  0  0
   29.7231  -19.5365  -16.7837 C   0  0  0  0  0  0  0  0  0  0  0  0
   28.4846  -20.1544  -16.2461 C   0  0  0  0  0  0  0  0  0  0  0  0
   27.6971  -19.3260  -15.2851 C   0  0  2  0  0  0  0  0  0  0  0  0
   28.4610  -18.2969  -14.6223 N   0  0  0  0  0  0  0  0  0  0  0  0
   27.0953  -20.2786  -14.2883 C   0  0  0  0  0  0  0  0  0  0  0  0
   26.4271  -21.2324  -14.7590 O   0  0  0  0  0  0  0  0  0  0  0  0
   27.6495  -20.6213  -20.7775 C   0  0  0  0  0  0  0  0  0  0  0  0
   27.2703  -19.2490   -7.8412 S   0  0  0  0  0  0  0  0  0  0  0  0
   26.8061  -21.0008   -7.9101 C   0  0  0  0  0  0  0  0  0  0  0  0
   26.2056  -21.3595   -9.5878 C   0  0  0  0  0  0  0  0  0  0  0  0
   26.9800  -20.5286  -10.5567 C   0  0  2  0  0  0  0  0  0  0  0  0
   26.4946  -20.8465  -11.9767 N   0  0  0  0  0  0  0  0  0  0  0  0
   27.2840  -20.0934  -12.8899 C   0  0  0  0  0  0  0  0  0  0  0  0
   25.0378  -20.5456  -12.0974 O   0  0  0  0  0  0  0  0  0  0  0  0
   24.5943  -19.3825  -12.2440 O   0  0  0  0  0  0  0  0  0  0  0  0
   16.3855  -21.4332  -13.6195 C   0  0  0  0  0  0  0  0  0  0  0  0
   17.7565  -21.6378  -13.5062 C   0  0  0  0  0  0  0  0  0  0  0  0
   18.6768  -21.0940  -14.3719 C   0  0  0  0  0  0  0  0  0  0  0  0
   20.0250  -21.3290  -14.2136 C   0  0  0  0  0  0  0  0  0  0  0  0
   20.5253  -22.1209  -13.1802 C   0  0  0  0  0  0  0  0  0  0  0  0
   21.9724  -22.3888  -13.0335 C   0  0  1  0  0  0  0  0  0  0  0  0
   22.6307  -21.3351  -12.2386 N   0  0  0  0  0  0  0  0  0  0  0  0
   24.0588  -21.5674  -12.0532 C   0  0  0  0  0  0  0  0  0  0  0  0
   22.0436  -21.2580  -10.8849 O   0  0  0  0  0  0  0  0  0  0  0  0
   22.5126  -21.8160   -9.8587 C   0  0  0  0  0  0  0  0  0  0  0  0
   19.5495  -22.6399  -12.3425 C   0  0  0  0  0  0  0  0  0  0  0  0
   18.2110  -22.4203  -12.4804 O   0  0  0  0  0  0  0  0  0  0  0  0
  2  1  1  0
  3  2  2  0
  4  2  1  0
  5  4  1  0
  6  5  1  0
  7  6  1  0
  8  7  1  0
  8  9  1  1
 10  8  1  0
 10 11  2  0
 12 13  1  0
 13 14  1  0
 14 15  1  0
 16 15  1  6
 16 18  1  0
 16 17  1  0
 17 10  1  0
 18 27  1  0
 19 18  2  0
 21 20  1  0
 21 31  2  0
 22 21  1  0
 23 22  2  0
 23 24  1  0
 24 30  2  0
 25 24  1  0
 26 25  1  6
 26 28  1  0
 27 26  1  0
 28 29  2  0
 28 32  1  0
 30 31  1  0
M  END
$$$$
