RMY.pdb
     RDKit          3D

 32 32  0  0  1  0  0  0  0  0999 V2000
   24.8234  -23.3764  -22.4495 N   0  0  0  0  0  0  0  0  0  0  0  0
   24.3549  -22.3725  -21.5684 C   0  0  0  0  0  0  0  0  0  0  0  0
   23.0836  -22.2589  -21.3017 N   0  0  0  0  0  0  0  0  0  0  0  0
   25.2969  -21.4924  -20.9824 N   0  0  0  0  0  0  0  0  0  0  0  0
   26.7116  -21.7423  -21.0968 C   0  0  0  0  0  0  0  0  0  0  0  0
   26.9939  -23.1543  -20.6825 C   0  0  0  0  0  0  0  0  0  0  0  0
   27.1113  -23.3877  -19.2209 C   0  0  0  0  0  0  0  0  0  0  0  0
   28.2396  -22.6947  -18.5304 C   0  0  2  0  0  0  0  0  0  0  0  0
   29.5315  -23.2988  -18.7495 N   0  0  0  0  0  0  0  0  0  0  0  0
   27.8969  -22.6686  -17.0658 C   0  0  0  0  0  0  0  0  0  0  0  0
   27.4499  -23.7358  -16.5769 O   0  0  0  0  0  0  0  0  0  0  0  0
   22.7639  -21.5251  -20.6466 C   0  0  0  0  0  0  0  0  0  0  0  0
   31.1139  -20.8923  -11.8696 S   0  0  0  0  0  0  0  0  0  0  0  0
   29.5801  -19.9422  -11.6865 C   0  0  0  0  0  0  0  0  0  0  0  0
   28.2897  -20.7590  -12.6724 C   0  0  0  0  0  0  0  0  0  0  0  0
   28.7425  -20.8144  -14.0939 C   0  0  1  0  0  0  0  0  0  0  0  0
   27.6432  -21.4745  -14.9359 N   0  0  0  0  0  0  0  0  0  0  0  0
   28.0763  -21.4884  -16.2911 C   0  0  0  0  0  0  0  0  0  0  0  0
   26.3542  -20.7440  -14.7553 O   0  0  0  0  0  0  0  0  0  0  0  0
   26.2003  -19.5455  -15.0881 O   0  0  0  0  0  0  0  0  0  0  0  0
   25.0301  -19.1309   -6.7960 C   0  0  0  0  0  0  0  0  0  0  0  0
   25.2980  -19.6750   -8.0476 C   0  0  0  0  0  0  0  0  0  0  0  0
   25.9790  -19.0019   -9.0353 C   0  0  0  0  0  0  0  0  0  0  0  0
   26.2176  -19.5886  -10.2587 C   0  0  0  0  0  0  0  0  0  0  0  0
   25.7876  -20.8808  -10.5601 C   0  0  0  0  0  0  0  0  0  0  0  0
   26.0256  -21.4927  -11.8853 C   0  0  1  0  0  0  0  0  0  0  0  0
   24.8664  -21.2992  -12.7766 N   0  0  0  0  0  0  0  0  0  0  0  0
   25.2156  -21.3684  -14.1912 C   0  0  0  0  0  0  0  0  0  0  0  0
   24.2597  -19.9689  -12.5635 O   0  0  0  0  0  0  0  0  0  0  0  0
   23.2297  -19.7440  -11.8759 C   0  0  0  0  0  0  0  0  0  0  0  0
   25.1078  -21.5061   -9.5255 C   0  0  0  0  0  0  0  0  0  0  0  0
   24.8610  -20.9448   -8.3078 O   0  0  0  0  0  0  0  0  0  0  0  0
  2  1  1  0
  3  2  2  0
  4  2  1  0
  5  4  1  0
  6  5  1  0
  7  6  1  0
  8  7  1  0
  8  9  1  1
 10  8  1  0
 10 11  2  0
 12 13  1  0
 13 14  1  0
 14 15  1  0
 16 15  1  1
 16 18  1  0
 16 17  1  0
 17 10  1  0
 18 27  1  0
 19 18  2  0
 21 20  1  0
 21 31  2  0
 22 21  1  0
 23 22  2  0
 23 24  1  0
 24 30  2  0
 25 24  1  0
 26 25  1  1
 26 28  1  0
 27 26  1  0
 28 29  2  0
 28 32  1  0
 30 31  1  0
M  END
$$$$
