RMY.pdb
     RDKit          3D

 32 32  0  0  1  0  0  0  0  0999 V2000
   24.8048  -17.3676  -18.3116 N   0  0  0  0  0  0  0  0  0  0  0  0
   24.8680  -18.6637  -18.8772 C   0  0  0  0  0  0  0  0  0  0  0  0
   24.5025  -18.8717  -20.1115 N   0  0  0  0  0  0  0  0  0  0  0  0
   25.3363  -19.7312  -18.0734 N   0  0  0  0  0  0  0  0  0  0  0  0
   24.9984  -19.8056  -16.6744 C   0  0  0  0  0  0  0  0  0  0  0  0
   26.0150  -19.0392  -15.8843 C   0  0  0  0  0  0  0  0  0  0  0  0
   25.9183  -19.1692  -14.4084 C   0  0  0  0  0  0  0  0  0  0  0  0
   26.7719  -20.2218  -13.7812 C   0  0  2  0  0  0  0  0  0  0  0  0
   27.4012  -21.1159  -14.7228 N   0  0  0  0  0  0  0  0  0  0  0  0
   25.8901  -20.9777  -12.8251 C   0  0  0  0  0  0  0  0  0  0  0  0
   25.3192  -22.0000  -13.2798 O   0  0  0  0  0  0  0  0  0  0  0  0
   24.2503  -18.0674  -20.7108 C   0  0  0  0  0  0  0  0  0  0  0  0
   25.5603  -20.1768   -6.1177 S   0  0  0  0  0  0  0  0  0  0  0  0
   26.6143  -19.4927   -7.4253 C   0  0  0  0  0  0  0  0  0  0  0  0
   25.7194  -19.6316   -9.0014 C   0  0  0  0  0  0  0  0  0  0  0  0
   25.2937  -21.0511   -9.1819 C   0  0  1  0  0  0  0  0  0  0  0  0
   24.8247  -21.2448  -10.6295 N   0  0  0  0  0  0  0  0  0  0  0  0
   25.7236  -20.5429  -11.4803 C   0  0  0  0  0  0  0  0  0  0  0  0
   23.4154  -20.7763  -10.7764 O   0  0  0  0  0  0  0  0  0  0  0  0
   23.1175  -19.5813  -11.0091 O   0  0  0  0  0  0  0  0  0  0  0  0
   21.6396  -19.1543  -16.9790 C   0  0  0  0  0  0  0  0  0  0  0  0
   21.3838  -19.8719  -15.8154 C   0  0  0  0  0  0  0  0  0  0  0  0
   22.1459  -20.9399  -15.4020 C   0  0  0  0  0  0  0  0  0  0  0  0
   21.8480  -21.6163  -14.2394 C   0  0  0  0  0  0  0  0  0  0  0  0
   20.7712  -21.2607  -13.4275 C   0  0  0  0  0  0  0  0  0  0  0  0
   20.4434  -22.0091  -12.1947 C   0  0  2  0  0  0  0  0  0  0  0  0
   20.9444  -21.3080  -10.9975 N   0  0  0  0  0  0  0  0  0  0  0  0
   22.3183  -21.6637  -10.6604 C   0  0  0  0  0  0  0  0  0  0  0  0
   20.1262  -21.6446   -9.8141 O   0  0  0  0  0  0  0  0  0  0  0  0
   20.3957  -22.5477   -8.9798 C   0  0  0  0  0  0  0  0  0  0  0  0
   20.0421  -20.1784  -13.8972 C   0  0  0  0  0  0  0  0  0  0  0  0
   20.3191  -19.4947  -15.0438 O   0  0  0  0  0  0  0  0  0  0  0  0
  2  1  1  0
  3  2  2  0
  4  2  1  0
  5  4  1  0
  6  5  1  0
  7  6  1  0
  8  7  1  0
  8  9  1  6
 10  8  1  0
 10 11  2  0
 12 13  1  0
 13 14  1  0
 14 15  1  0
 16 15  1  6
 16 18  1  0
 16 17  1  0
 17 10  1  0
 18 27  1  0
 19 18  2  0
 21 20  1  0
 21 31  2  0
 22 21  1  0
 23 22  2  0
 23 24  1  0
 24 30  2  0
 25 24  1  0
 26 25  1  6
 26 28  1  0
 27 26  1  0
 28 29  2  0
 28 32  1  0
 30 31  1  0
M  END
$$$$
