RMY.pdb
     RDKit          3D

 32 32  0  0  1  0  0  0  0  0999 V2000
   28.8782  -22.4624  -18.9583 N   0  0  0  0  0  0  0  0  0  0  0  0
   29.9720  -22.3411  -18.0680 C   0  0  0  0  0  0  0  0  0  0  0  0
   31.0302  -23.0907  -18.2047 N   0  0  0  0  0  0  0  0  0  0  0  0
   29.8927  -21.3879  -17.0238 N   0  0  0  0  0  0  0  0  0  0  0  0
   28.6875  -20.6280  -16.8076 C   0  0  0  0  0  0  0  0  0  0  0  0
   28.8567  -19.7803  -15.5837 C   0  0  0  0  0  0  0  0  0  0  0  0
   27.9393  -20.0828  -14.4562 C   0  0  0  0  0  0  0  0  0  0  0  0
   28.2883  -21.2712  -13.6219 C   0  0  2  0  0  0  0  0  0  0  0  0
   28.4777  -22.4892  -14.3719 N   0  0  0  0  0  0  0  0  0  0  0  0
   27.1857  -21.4256  -12.6103 C   0  0  0  0  0  0  0  0  0  0  0  0
   26.1793  -22.0824  -12.9757 O   0  0  0  0  0  0  0  0  0  0  0  0
   31.8043  -23.0086  -17.5238 C   0  0  0  0  0  0  0  0  0  0  0  0
   27.9466  -19.0445   -6.6846 S   0  0  0  0  0  0  0  0  0  0  0  0
   28.1876  -20.8296   -6.8944 C   0  0  0  0  0  0  0  0  0  0  0  0
   27.7863  -21.2545   -8.6156 C   0  0  0  0  0  0  0  0  0  0  0  0
   26.6327  -20.4149   -9.0550 C   0  0  2  0  0  0  0  0  0  0  0  0
   26.1732  -20.8938  -10.4380 N   0  0  0  0  0  0  0  0  0  0  0  0
   27.2945  -20.8514  -11.3127 C   0  0  0  0  0  0  0  0  0  0  0  0
   25.0404  -20.0499  -10.9198 O   0  0  0  0  0  0  0  0  0  0  0  0
   25.2101  -18.9529  -11.5017 O   0  0  0  0  0  0  0  0  0  0  0  0
   18.6629  -19.8585  -16.7243 C   0  0  0  0  0  0  0  0  0  0  0  0
   19.7000  -20.0665  -15.8212 C   0  0  0  0  0  0  0  0  0  0  0  0
   20.6899  -19.1423  -15.5797 C   0  0  0  0  0  0  0  0  0  0  0  0
   21.6950  -19.3996  -14.6735 C   0  0  0  0  0  0  0  0  0  0  0  0
   21.7641  -20.5958  -13.9596 C   0  0  0  0  0  0  0  0  0  0  0  0
   22.8615  -20.8739  -13.0079 C   0  0  1  0  0  0  0  0  0  0  0  0
   22.6373  -20.1872  -11.7219 N   0  0  0  0  0  0  0  0  0  0  0  0
   23.6912  -20.4428  -10.7464 C   0  0  0  0  0  0  0  0  0  0  0  0
   21.3766  -20.6418  -11.0996 O   0  0  0  0  0  0  0  0  0  0  0  0
   21.2335  -21.7097  -10.4490 C   0  0  0  0  0  0  0  0  0  0  0  0
   20.7397  -21.4856  -14.2469 C   0  0  0  0  0  0  0  0  0  0  0  0
   19.7357  -21.2517  -15.1390 O   0  0  0  0  0  0  0  0  0  0  0  0
  2  1  1  0
  3  2  2  0
  4  2  1  0
  5  4  1  0
  6  5  1  0
  7  6  1  0
  8  7  1  0
  8  9  1  6
 10  8  1  0
 10 11  2  0
 12 13  1  0
 13 14  1  0
 14 15  1  0
 16 15  1  1
 16 18  1  0
 16 17  1  0
 17 10  1  0
 18 27  1  0
 19 18  2  0
 21 20  1  0
 21 31  2  0
 22 21  1  0
 23 22  2  0
 23 24  1  0
 24 30  2  0
 25 24  1  0
 26 25  1  6
 26 28  1  0
 27 26  1  0
 28 29  2  0
 28 32  1  0
 30 31  1  0
M  END
$$$$
