RMY.pdb
     RDKit          3D

 32 32  0  0  1  0  0  0  0  0999 V2000
   28.8292  -25.2539  -19.0691 N   0  0  0  0  0  0  0  0  0  0  0  0
   27.6111  -25.1166  -18.3613 C   0  0  0  0  0  0  0  0  0  0  0  0
   26.5680  -25.8295  -18.6836 N   0  0  0  0  0  0  0  0  0  0  0  0
   27.5486  -24.1871  -17.2949 N   0  0  0  0  0  0  0  0  0  0  0  0
   28.7349  -23.5108  -16.8343 C   0  0  0  0  0  0  0  0  0  0  0  0
   28.3474  -22.4828  -15.8154 C   0  0  0  0  0  0  0  0  0  0  0  0
   26.9376  -22.0200  -15.8682 C   0  0  0  0  0  0  0  0  0  0  0  0
   26.5691  -20.9176  -14.9306 C   0  0  2  0  0  0  0  0  0  0  0  0
   27.5568  -19.8709  -14.8265 N   0  0  0  0  0  0  0  0  0  0  0  0
   26.3166  -21.5571  -13.5926 C   0  0  0  0  0  0  0  0  0  0  0  0
   26.1861  -22.8064  -13.5854 O   0  0  0  0  0  0  0  0  0  0  0  0
   25.7194  -25.7867  -18.0937 C   0  0  0  0  0  0  0  0  0  0  0  0
   27.0962  -19.3914   -6.8657 S   0  0  0  0  0  0  0  0  0  0  0  0
   26.1685  -20.6944   -7.7204 C   0  0  0  0  0  0  0  0  0  0  0  0
   26.4851  -20.5353   -9.5033 C   0  0  0  0  0  0  0  0  0  0  0  0
   25.6934  -21.5779  -10.2207 C   0  0  1  0  0  0  0  0  0  0  0  0
   25.1419  -20.9723  -11.5177 N   0  0  0  0  0  0  0  0  0  0  0  0
   26.2334  -20.7724  -12.4082 C   0  0  0  0  0  0  0  0  0  0  0  0
   24.4091  -19.7070  -11.2189 O   0  0  0  0  0  0  0  0  0  0  0  0
   24.9927  -18.6357  -10.9314 O   0  0  0  0  0  0  0  0  0  0  0  0
   22.1306  -19.0245  -18.4987 C   0  0  0  0  0  0  0  0  0  0  0  0
   22.3063  -19.4899  -17.1999 C   0  0  0  0  0  0  0  0  0  0  0  0
   21.8685  -18.8104  -16.0869 C   0  0  0  0  0  0  0  0  0  0  0  0
   22.0688  -19.3174  -14.8217 C   0  0  0  0  0  0  0  0  0  0  0  0
   22.7182  -20.5320  -14.6017 C   0  0  0  0  0  0  0  0  0  0  0  0
   22.9519  -21.0558  -13.2385 C   0  0  2  0  0  0  0  0  0  0  0  0
   22.1654  -20.3083  -12.2393 N   0  0  0  0  0  0  0  0  0  0  0  0
   22.9951  -19.6404  -11.2426 C   0  0  0  0  0  0  0  0  0  0  0  0
   21.2703  -21.2167  -11.4929 O   0  0  0  0  0  0  0  0  0  0  0  0
   21.5858  -21.8518  -10.4530 C   0  0  0  0  0  0  0  0  0  0  0  0
   23.1357  -21.1680  -15.7613 C   0  0  0  0  0  0  0  0  0  0  0  0
   22.9479  -20.6850  -17.0223 O   0  0  0  0  0  0  0  0  0  0  0  0
  2  1  1  0
  3  2  2  0
  4  2  1  0
  5  4  1  0
  6  5  1  0
  7  6  1  0
  8  7  1  0
  8  9  1  1
 10  8  1  0
 10 11  2  0
 12 13  1  0
 13 14  1  0
 14 15  1  0
 16 15  1  6
 16 18  1  0
 16 17  1  0
 17 10  1  0
 18 27  1  0
 19 18  2  0
 21 20  1  0
 21 31  2  0
 22 21  1  0
 23 22  2  0
 23 24  1  0
 24 30  2  0
 25 24  1  0
 26 25  1  6
 26 28  1  0
 27 26  1  0
 28 29  2  0
 28 32  1  0
 30 31  1  0
M  END
$$$$
