RMY.pdb
     RDKit          3D

 32 32  0  0  1  0  0  0  0  0999 V2000
   21.0306  -24.0188  -15.5179 N   0  0  0  0  0  0  0  0  0  0  0  0
   19.7742  -24.5609  -15.1560 C   0  0  0  0  0  0  0  0  0  0  0  0
   19.5221  -25.8295  -15.3210 N   0  0  0  0  0  0  0  0  0  0  0  0
   18.7949  -23.6953  -14.6110 N   0  0  0  0  0  0  0  0  0  0  0  0
   19.1032  -22.3162  -14.3285 C   0  0  0  0  0  0  0  0  0  0  0  0
   19.0843  -21.5386  -15.6092 C   0  0  0  0  0  0  0  0  0  0  0  0
   20.1173  -20.4798  -15.7376 C   0  0  0  0  0  0  0  0  0  0  0  0
   20.0545  -19.3718  -14.7385 C   0  0  2  0  0  0  0  0  0  0  0  0
   19.8054  -18.0701  -15.3092 N   0  0  0  0  0  0  0  0  0  0  0  0
   21.3592  -19.3927  -13.9900 C   0  0  0  0  0  0  0  0  0  0  0  0
   22.3410  -18.8577  -14.5624 O   0  0  0  0  0  0  0  0  0  0  0  0
   18.6128  -26.2129  -15.0113 C   0  0  0  0  0  0  0  0  0  0  0  0
   22.0047  -21.9174   -8.0723 S   0  0  0  0  0  0  0  0  0  0  0  0
   23.4639  -20.8411   -8.1083 C   0  0  0  0  0  0  0  0  0  0  0  0
   23.7614  -20.3520   -9.8335 C   0  0  0  0  0  0  0  0  0  0  0  0
   22.4643  -20.4007  -10.5710 C   0  0  2  0  0  0  0  0  0  0  0  0
   22.7094  -19.9852  -12.0272 N   0  0  0  0  0  0  0  0  0  0  0  0
   21.4571  -19.9912  -12.7026 C   0  0  0  0  0  0  0  0  0  0  0  0
   23.7037  -20.9016  -12.6589 O   0  0  0  0  0  0  0  0  0  0  0  0
   23.3709  -21.8838  -13.3627 O   0  0  0  0  0  0  0  0  0  0  0  0
   29.8628  -20.3326  -18.6679 C   0  0  0  0  0  0  0  0  0  0  0  0
   28.9213  -20.1529  -17.6600 C   0  0  0  0  0  0  0  0  0  0  0  0
   29.0154  -19.1691  -16.7032 C   0  0  0  0  0  0  0  0  0  0  0  0
   28.0535  -19.0353  -15.7262 C   0  0  0  0  0  0  0  0  0  0  0  0
   26.9451  -19.8788  -15.6537 C   0  0  0  0  0  0  0  0  0  0  0  0
   25.9310  -19.7440  -14.5856 C   0  0  1  0  0  0  0  0  0  0  0  0
   26.0637  -20.8214  -13.5869 N   0  0  0  0  0  0  0  0  0  0  0  0
   25.0979  -20.7140  -12.4990 C   0  0  0  0  0  0  0  0  0  0  0  0
   27.4010  -20.7903  -12.9593 O   0  0  0  0  0  0  0  0  0  0  0  0
   28.4425  -21.3018  -13.4471 C   0  0  0  0  0  0  0  0  0  0  0  0
   26.9072  -20.8489  -16.6441 C   0  0  0  0  0  0  0  0  0  0  0  0
   27.8473  -20.9992  -17.6200 O   0  0  0  0  0  0  0  0  0  0  0  0
  2  1  1  0
  3  2  2  0
  4  2  1  0
  5  4  1  0
  6  5  1  0
  7  6  1  0
  8  7  1  0
  8  9  1  6
 10  8  1  0
 10 11  2  0
 12 13  1  0
 13 14  1  0
 14 15  1  0
 16 15  1  1
 16 18  1  0
 16 17  1  0
 17 10  1  0
 18 27  1  0
 19 18  2  0
 21 20  1  0
 21 31  2  0
 22 21  1  0
 23 22  2  0
 23 24  1  0
 24 30  2  0
 25 24  1  0
 26 25  1  6
 26 28  1  0
 27 26  1  0
 28 29  2  0
 28 32  1  0
 30 31  1  0
M  END
$$$$
