GWC.pdb
     RDKit          3D

 25 26  0  0  1  0  0  0  0  0999 V2000
    7.1269  -21.7331   23.1814 N   0  0  0  0  0  0  0  0  0  0  0  0
    6.7229  -20.8939   24.2761 C   0  0  0  0  0  0  0  0  0  0  0  0
    7.2700  -19.5171   24.0741 C   0  0  0  0  0  0  0  0  0  0  0  0
    8.0221  -19.3076   23.1021 O   0  0  0  0  0  0  0  0  0  0  0  0
    6.9281  -18.4803   24.9846 N   0  0  0  0  0  0  0  0  0  0  0  0
    7.4501  -17.1611   24.7902 C   0  0  1  0  0  0  0  0  0  0  0  0
    6.4037  -16.0713   24.9510 C   0  0  0  0  0  0  0  0  0  0  0  0
    6.8740  -14.7614   24.5165 C   0  0  0  0  0  0  0  0  0  0  0  0
    7.5083  -14.4444   23.3407 C   0  0  0  0  0  0  0  0  0  0  0  0
    7.7740  -13.1081   23.3382 N   0  0  0  0  0  0  0  0  0  0  0  0
    7.3215  -12.5892   24.4809 C   0  0  0  0  0  0  0  0  0  0  0  0
    7.3178  -11.3155   25.0075 C   0  0  0  0  0  0  0  0  0  0  0  0
    6.7696  -11.0357   26.2484 C   0  0  0  0  0  0  0  0  0  0  0  0
    6.2053  -12.0500   26.9960 C   0  0  0  0  0  0  0  0  0  0  0  0
    6.2119  -13.3072   26.4711 C   0  0  0  0  0  0  0  0  0  0  0  0
    6.7560  -13.5935   25.2351 C   0  0  0  0  0  0  0  0  0  0  0  0
    8.5368  -16.8268   25.7428 C   0  0  0  0  0  0  0  0  0  0  0  0
    8.3053  -16.9526   26.9536 O   0  0  0  0  0  0  0  0  0  0  0  0
    9.7773  -16.3847   25.2818 N   0  0  0  0  0  0  0  0  0  0  0  0
   11.0596  -16.8667   25.6674 C   0  0  1  0  0  0  0  0  0  0  0  0
   11.0655  -18.3568   25.8846 C   0  0  0  0  0  0  0  0  0  0  0  0
   11.4598  -18.6306   27.6461 S   0  0  0  0  0  0  0  0  0  0  0  0
   12.1929  -16.4673   24.7868 C   0  0  0  0  0  0  0  0  0  0  0  0
   13.1508  -15.6544   25.4137 O   0  0  0  0  0  0  0  0  0  0  0  0
   12.3512  -16.7792   23.6037 O   0  0  0  0  0  0  0  0  0  0  0  0
  1  2  1  0
  2  3  1  0
  3  4  2  0
  5  3  1  0
  6  5  1  0
  6  7  1  1
  8  7  1  0
  8 16  1  0
  9 10  1  0
  9  8  2  0
 10 11  1  0
 11 16  2  0
 11 12  1  0
 12 13  2  0
 13 14  1  0
 15 14  2  0
 16 15  1  0
 17  6  1  0
 18 17  2  0
 19 17  1  0
 20 19  1  0
 20 23  1  0
 20 21  1  6
 22 21  1  0
 23 25  2  0
 23 24  1  0
M  END
$$$$
