GWC.pdb
     RDKit          3D

 25 26  0  0  1  0  0  0  0  0999 V2000
    6.3765  -15.9246   19.8273 N   0  0  0  0  0  0  0  0  0  0  0  0
    6.5795  -16.6602   21.0452 C   0  0  0  0  0  0  0  0  0  0  0  0
    7.6828  -16.0259   21.8301 C   0  0  0  0  0  0  0  0  0  0  0  0
    8.3035  -15.0693   21.3263 O   0  0  0  0  0  0  0  0  0  0  0  0
    8.0034  -16.5191   23.1242 N   0  0  0  0  0  0  0  0  0  0  0  0
    9.1184  -15.9736   23.8382 C   0  0  1  0  0  0  0  0  0  0  0  0
    8.8895  -15.8917   25.3380 C   0  0  0  0  0  0  0  0  0  0  0  0
    7.6992  -15.1274   25.6918 C   0  0  0  0  0  0  0  0  0  0  0  0
    6.4198  -15.5962   25.8609 C   0  0  0  0  0  0  0  0  0  0  0  0
    5.6136  -14.5475   26.1873 N   0  0  0  0  0  0  0  0  0  0  0  0
    6.3594  -13.4419   26.2245 C   0  0  0  0  0  0  0  0  0  0  0  0
    6.0808  -12.1193   26.4943 C   0  0  0  0  0  0  0  0  0  0  0  0
    7.0618  -11.1419   26.4661 C   0  0  0  0  0  0  0  0  0  0  0  0
    8.3644  -11.4826   26.1602 C   0  0  0  0  0  0  0  0  0  0  0  0
    8.6343  -12.7912   25.8941 C   0  0  0  0  0  0  0  0  0  0  0  0
    7.6620  -13.7708   25.9207 C   0  0  0  0  0  0  0  0  0  0  0  0
   10.3596  -16.7654   23.6578 C   0  0  0  0  0  0  0  0  0  0  0  0
   10.2902  -17.9937   23.8053 O   0  0  0  0  0  0  0  0  0  0  0  0
   11.5634  -16.1390   23.3329 N   0  0  0  0  0  0  0  0  0  0  0  0
   12.8368  -16.7537   23.1731 C   0  0  1  0  0  0  0  0  0  0  0  0
   13.7721  -15.9169   22.3408 C   0  0  0  0  0  0  0  0  0  0  0  0
   12.9526  -15.6553   20.7303 S   0  0  0  0  0  0  0  0  0  0  0  0
   13.5091  -17.1864   24.4303 C   0  0  0  0  0  0  0  0  0  0  0  0
   14.7460  -17.8208   24.2332 O   0  0  0  0  0  0  0  0  0  0  0  0
   13.0859  -17.0387   25.5797 O   0  0  0  0  0  0  0  0  0  0  0  0
  1  2  1  0
  2  3  1  0
  3  4  2  0
  5  3  1  0
  6  5  1  0
  6  7  1  1
  8  7  1  0
  8 16  1  0
  9 10  1  0
  9  8  2  0
 10 11  1  0
 11 16  2  0
 11 12  1  0
 12 13  2  0
 13 14  1  0
 15 14  2  0
 16 15  1  0
 17  6  1  0
 18 17  2  0
 19 17  1  0
 20 19  1  0
 20 23  1  0
 20 21  1  1
 22 21  1  0
 23 25  2  0
 23 24  1  0
M  END
$$$$
