GWC.pdb
     RDKit          3D

 25 26  0  0  1  0  0  0  0  0999 V2000
    7.3263  -17.7778   20.0382 N   0  0  0  0  0  0  0  0  0  0  0  0
    7.3949  -18.0449   21.4487 C   0  0  0  0  0  0  0  0  0  0  0  0
    8.3290  -17.0714   22.0934 C   0  0  0  0  0  0  0  0  0  0  0  0
    9.0966  -16.4077   21.3691 O   0  0  0  0  0  0  0  0  0  0  0  0
    8.3275  -16.9206   23.5069 N   0  0  0  0  0  0  0  0  0  0  0  0
    9.4026  -16.2273   24.1502 C   0  0  1  0  0  0  0  0  0  0  0  0
    9.0658  -15.7724   25.5602 C   0  0  0  0  0  0  0  0  0  0  0  0
    7.7816  -15.0873   25.6463 C   0  0  0  0  0  0  0  0  0  0  0  0
    6.5276  -15.6440   25.5934 C   0  0  0  0  0  0  0  0  0  0  0  0
    5.6058  -14.6477   25.7113 N   0  0  0  0  0  0  0  0  0  0  0  0
    6.2553  -13.4890   25.8356 C   0  0  0  0  0  0  0  0  0  0  0  0
    5.8428  -12.1824   25.9844 C   0  0  0  0  0  0  0  0  0  0  0  0
    6.7437  -11.1361   26.0949 C   0  0  0  0  0  0  0  0  0  0  0  0
    8.1004  -11.3891   26.0568 C   0  0  0  0  0  0  0  0  0  0  0  0
    8.5029  -12.6823   25.9093 C   0  0  0  0  0  0  0  0  0  0  0  0
    7.6109  -13.7302   25.7989 C   0  0  0  0  0  0  0  0  0  0  0  0
   10.6289  -17.0532   24.2702 C   0  0  0  0  0  0  0  0  0  0  0  0
   10.5014  -18.2856   24.2565 O   0  0  0  0  0  0  0  0  0  0  0  0
   11.8825  -16.4533   24.3948 N   0  0  0  0  0  0  0  0  0  0  0  0
   13.0740  -16.7983   23.6973 C   0  0  1  0  0  0  0  0  0  0  0  0
   12.8641  -16.8576   22.2073 C   0  0  0  0  0  0  0  0  0  0  0  0
   12.5058  -18.5997   21.7950 S   0  0  0  0  0  0  0  0  0  0  0  0
   14.2736  -15.9753   24.0189 C   0  0  0  0  0  0  0  0  0  0  0  0
   14.0878  -14.5944   23.8465 O   0  0  0  0  0  0  0  0  0  0  0  0
   15.3685  -16.3905   24.4073 O   0  0  0  0  0  0  0  0  0  0  0  0
  1  2  1  0
  2  3  1  0
  3  4  2  0
  5  3  1  0
  6  5  1  0
  6  7  1  1
  8  7  1  0
  8 16  1  0
  9 10  1  0
  9  8  2  0
 10 11  1  0
 11 16  2  0
 11 12  1  0
 12 13  2  0
 13 14  1  0
 15 14  2  0
 16 15  1  0
 17  6  1  0
 18 17  2  0
 19 17  1  0
 20 19  1  0
 20 23  1  0
 20 21  1  6
 22 21  1  0
 23 25  2  0
 23 24  1  0
M  END
$$$$
