GWC.pdb
     RDKit          3D

 25 26  0  0  1  0  0  0  0  0999 V2000
   10.1599  -15.9190   19.8947 N   0  0  0  0  0  0  0  0  0  0  0  0
    9.9991  -16.8890   20.9430 C   0  0  0  0  0  0  0  0  0  0  0  0
   10.0099  -16.1949   22.2674 C   0  0  0  0  0  0  0  0  0  0  0  0
   10.5478  -15.0733   22.3518 O   0  0  0  0  0  0  0  0  0  0  0  0
    9.4140  -16.8188   23.3971 N   0  0  0  0  0  0  0  0  0  0  0  0
    9.4243  -16.1544   24.6655 C   0  0  1  0  0  0  0  0  0  0  0  0
    8.2547  -16.5401   25.5553 C   0  0  0  0  0  0  0  0  0  0  0  0
    7.1697  -15.5667   25.5239 C   0  0  0  0  0  0  0  0  0  0  0  0
    5.8234  -15.8130   25.4135 C   0  0  0  0  0  0  0  0  0  0  0  0
    5.1626  -14.6216   25.4236 N   0  0  0  0  0  0  0  0  0  0  0  0
    6.0635  -13.6441   25.5371 C   0  0  0  0  0  0  0  0  0  0  0  0
    5.9691  -12.2704   25.5974 C   0  0  0  0  0  0  0  0  0  0  0  0
    7.0874  -11.4623   25.7190 C   0  0  0  0  0  0  0  0  0  0  0  0
    8.3439  -12.0311   25.7831 C   0  0  0  0  0  0  0  0  0  0  0  0
    8.4317  -13.3892   25.7227 C   0  0  0  0  0  0  0  0  0  0  0  0
    7.3216  -14.2010   25.6018 C   0  0  0  0  0  0  0  0  0  0  0  0
   10.6479  -16.4397   25.4540 C   0  0  0  0  0  0  0  0  0  0  0  0
   11.3753  -17.3701   25.0789 O   0  0  0  0  0  0  0  0  0  0  0  0
   10.9623  -15.6801   26.5814 N   0  0  0  0  0  0  0  0  0  0  0  0
   11.8904  -16.0093   27.6086 C   0  0  1  0  0  0  0  0  0  0  0  0
   11.9343  -14.9642   28.6920 C   0  0  0  0  0  0  0  0  0  0  0  0
   10.2143  -14.7119   29.2501 S   0  0  0  0  0  0  0  0  0  0  0  0
   11.7420  -17.3668   28.2044 C   0  0  0  0  0  0  0  0  0  0  0  0
   12.8356  -17.7764   28.9839 O   0  0  0  0  0  0  0  0  0  0  0  0
   10.7787  -18.1264   28.0742 O   0  0  0  0  0  0  0  0  0  0  0  0
  1  2  1  0
  2  3  1  0
  3  4  2  0
  5  3  1  0
  6  5  1  0
  6  7  1  1
  8  7  1  0
  8 16  1  0
  9 10  1  0
  9  8  2  0
 10 11  1  0
 11 16  2  0
 11 12  1  0
 12 13  2  0
 13 14  1  0
 15 14  2  0
 16 15  1  0
 17  6  1  0
 18 17  2  0
 19 17  1  0
 20 19  1  0
 20 23  1  0
 20 21  1  1
 22 21  1  0
 23 25  2  0
 23 24  1  0
M  END
$$$$
