GWC.pdb
     RDKit          3D

 25 26  0  0  1  0  0  0  0  0999 V2000
    6.5435  -17.0524   19.7565 N   0  0  0  0  0  0  0  0  0  0  0  0
    6.6364  -17.4658   21.1299 C   0  0  0  0  0  0  0  0  0  0  0  0
    7.7423  -16.7154   21.8003 C   0  0  0  0  0  0  0  0  0  0  0  0
    8.4733  -15.9800   21.1081 O   0  0  0  0  0  0  0  0  0  0  0  0
    7.9410  -16.8517   23.2013 N   0  0  0  0  0  0  0  0  0  0  0  0
    9.0558  -16.2080   23.8285 C   0  0  1  0  0  0  0  0  0  0  0  0
    8.8701  -16.0060   25.3229 C   0  0  0  0  0  0  0  0  0  0  0  0
    7.6657  -15.2525   25.6506 C   0  0  0  0  0  0  0  0  0  0  0  0
    6.3938  -15.7379   25.8287 C   0  0  0  0  0  0  0  0  0  0  0  0
    5.5687  -14.6943   26.1222 N   0  0  0  0  0  0  0  0  0  0  0  0
    6.2955  -13.5755   26.1305 C   0  0  0  0  0  0  0  0  0  0  0  0
    5.9934  -12.2507   26.3614 C   0  0  0  0  0  0  0  0  0  0  0  0
    6.9578  -11.2579   26.3086 C   0  0  0  0  0  0  0  0  0  0  0  0
    8.2671  -11.5850   26.0171 C   0  0  0  0  0  0  0  0  0  0  0  0
    8.5603  -12.8957   25.7894 C   0  0  0  0  0  0  0  0  0  0  0  0
    7.6046  -13.8907   25.8406 C   0  0  0  0  0  0  0  0  0  0  0  0
   10.3201  -16.9681   23.6737 C   0  0  0  0  0  0  0  0  0  0  0  0
   10.2864  -18.1929   23.8585 O   0  0  0  0  0  0  0  0  0  0  0  0
   11.5056  -16.3168   23.3312 N   0  0  0  0  0  0  0  0  0  0  0  0
   12.7921  -16.9026   23.1672 C   0  0  1  0  0  0  0  0  0  0  0  0
   13.6633  -16.1088   22.2297 C   0  0  0  0  0  0  0  0  0  0  0  0
   12.7738  -16.0135   20.6381 S   0  0  0  0  0  0  0  0  0  0  0  0
   13.5293  -17.2082   24.4252 C   0  0  0  0  0  0  0  0  0  0  0  0
   14.7807  -17.8132   24.2271 O   0  0  0  0  0  0  0  0  0  0  0  0
   13.1464  -16.9826   25.5761 O   0  0  0  0  0  0  0  0  0  0  0  0
  1  2  1  0
  2  3  1  0
  3  4  2  0
  5  3  1  0
  6  5  1  0
  6  7  1  1
  8  7  1  0
  8 16  1  0
  9 10  1  0
  9  8  2  0
 10 11  1  0
 11 16  2  0
 11 12  1  0
 12 13  2  0
 13 14  1  0
 15 14  2  0
 16 15  1  0
 17  6  1  0
 18 17  2  0
 19 17  1  0
 20 19  1  0
 20 23  1  0
 20 21  1  6
 22 21  1  0
 23 25  2  0
 23 24  1  0
M  END
$$$$
