GWC.pdb
     RDKit          3D

 25 26  0  0  1  0  0  0  0  0999 V2000
    6.3933  -16.1262   19.8187 N   0  0  0  0  0  0  0  0  0  0  0  0
    6.6156  -16.8833   21.0199 C   0  0  0  0  0  0  0  0  0  0  0  0
    7.7512  -16.2807   21.7834 C   0  0  0  0  0  0  0  0  0  0  0  0
    8.4789  -15.4436   21.2141 O   0  0  0  0  0  0  0  0  0  0  0  0
    7.9811  -16.6685   23.1315 N   0  0  0  0  0  0  0  0  0  0  0  0
    9.1090  -16.1440   23.8410 C   0  0  1  0  0  0  0  0  0  0  0  0
    8.8829  -16.0457   25.3403 C   0  0  0  0  0  0  0  0  0  0  0  0
    7.7004  -15.2670   25.6883 C   0  0  0  0  0  0  0  0  0  0  0  0
    6.4140  -15.7195   25.8482 C   0  0  0  0  0  0  0  0  0  0  0  0
    5.6193  -14.6613   26.1719 N   0  0  0  0  0  0  0  0  0  0  0  0
    6.3791  -13.5655   26.2164 C   0  0  0  0  0  0  0  0  0  0  0  0
    6.1158  -12.2400   26.4875 C   0  0  0  0  0  0  0  0  0  0  0  0
    7.1095  -11.2753   26.4678 C   0  0  0  0  0  0  0  0  0  0  0  0
    8.4094  -11.6321   26.1694 C   0  0  0  0  0  0  0  0  0  0  0  0
    8.6642  -12.9434   25.9020 C   0  0  0  0  0  0  0  0  0  0  0  0
    7.6792  -13.9105   25.9201 C   0  0  0  0  0  0  0  0  0  0  0  0
   10.3311  -16.9661   23.6660 C   0  0  0  0  0  0  0  0  0  0  0  0
   10.2144  -18.1983   23.7260 O   0  0  0  0  0  0  0  0  0  0  0  0
   11.5693  -16.3632   23.4418 N   0  0  0  0  0  0  0  0  0  0  0  0
   12.8244  -17.0128   23.2747 C   0  0  1  0  0  0  0  0  0  0  0  0
   13.7488  -16.2405   22.3709 C   0  0  0  0  0  0  0  0  0  0  0  0
   12.8261  -15.9129   20.8298 S   0  0  0  0  0  0  0  0  0  0  0  0
   13.5282  -17.3943   24.5311 C   0  0  0  0  0  0  0  0  0  0  0  0
   14.6977  -18.1450   24.3312 O   0  0  0  0  0  0  0  0  0  0  0  0
   13.1821  -17.1162   25.6822 O   0  0  0  0  0  0  0  0  0  0  0  0
  1  2  1  0
  2  3  1  0
  3  4  2  0
  5  3  1  0
  6  5  1  0
  6  7  1  1
  8  7  1  0
  8 16  1  0
  9 10  1  0
  9  8  2  0
 10 11  1  0
 11 16  2  0
 11 12  1  0
 12 13  2  0
 13 14  1  0
 15 14  2  0
 16 15  1  0
 17  6  1  0
 18 17  2  0
 19 17  1  0
 20 19  1  0
 20 23  1  0
 20 21  1  1
 22 21  1  0
 23 25  2  0
 23 24  1  0
M  END
$$$$
