GWC.pdb
     RDKit          3D

 25 26  0  0  1  0  0  0  0  0999 V2000
    5.1248  -20.7516   23.3248 N   0  0  0  0  0  0  0  0  0  0  0  0
    6.4335  -20.1792   23.4843 C   0  0  0  0  0  0  0  0  0  0  0  0
    6.3545  -18.6986   23.2911 C   0  0  0  0  0  0  0  0  0  0  0  0
    5.3612  -18.2225   22.7070 O   0  0  0  0  0  0  0  0  0  0  0  0
    7.4025  -17.8665   23.7706 N   0  0  0  0  0  0  0  0  0  0  0  0
    7.3770  -16.4609   23.4984 C   0  0  1  0  0  0  0  0  0  0  0  0
    8.1371  -15.6365   24.5236 C   0  0  0  0  0  0  0  0  0  0  0  0
    7.2602  -14.9218   25.4434 C   0  0  0  0  0  0  0  0  0  0  0  0
    6.1670  -15.4126   26.1137 C   0  0  0  0  0  0  0  0  0  0  0  0
    5.6349  -14.4102   26.8676 N   0  0  0  0  0  0  0  0  0  0  0  0
    6.3690  -13.3118   26.6819 C   0  0  0  0  0  0  0  0  0  0  0  0
    6.2970  -12.0284   27.1792 C   0  0  0  0  0  0  0  0  0  0  0  0
    7.2074  -11.0490   26.8180 C   0  0  0  0  0  0  0  0  0  0  0  0
    8.2250  -11.3476   25.9340 C   0  0  0  0  0  0  0  0  0  0  0  0
    8.2915  -12.6174   25.4451 C   0  0  0  0  0  0  0  0  0  0  0  0
    7.3880  -13.5988   25.8008 C   0  0  0  0  0  0  0  0  0  0  0  0
    7.9680  -16.1196   22.1814 C   0  0  0  0  0  0  0  0  0  0  0  0
    8.8623  -16.8547   21.7394 O   0  0  0  0  0  0  0  0  0  0  0  0
    7.5257  -15.0041   21.4695 N   0  0  0  0  0  0  0  0  0  0  0  0
    7.9782  -14.5627   20.1946 C   0  0  1  0  0  0  0  0  0  0  0  0
    7.3421  -13.2608   19.7845 C   0  0  0  0  0  0  0  0  0  0  0  0
    8.0170  -12.8396   18.1412 S   0  0  0  0  0  0  0  0  0  0  0  0
    9.4563  -14.4942   20.0204 C   0  0  0  0  0  0  0  0  0  0  0  0
    9.8863  -14.6253   18.6903 O   0  0  0  0  0  0  0  0  0  0  0  0
   10.2959  -14.3384   20.9108 O   0  0  0  0  0  0  0  0  0  0  0  0
  1  2  1  0
  2  3  1  0
  3  4  2  0
  5  3  1  0
  6  5  1  0
  6  7  1  1
  8  7  1  0
  8 16  1  0
  9 10  1  0
  9  8  2  0
 10 11  1  0
 11 16  2  0
 11 12  1  0
 12 13  2  0
 13 14  1  0
 15 14  2  0
 16 15  1  0
 17  6  1  0
 18 17  2  0
 19 17  1  0
 20 19  1  0
 20 23  1  0
 20 21  1  1
 22 21  1  0
 23 25  2  0
 23 24  1  0
M  END
$$$$
