GWC.pdb
     RDKit          3D

 25 26  0  0  1  0  0  0  0  0999 V2000
    4.7630  -19.2507   22.7305 N   0  0  0  0  0  0  0  0  0  0  0  0
    6.1335  -19.5157   23.0727 C   0  0  0  0  0  0  0  0  0  0  0  0
    6.9260  -18.2526   22.9615 C   0  0  0  0  0  0  0  0  0  0  0  0
    6.8973  -17.6197   21.8878 O   0  0  0  0  0  0  0  0  0  0  0  0
    7.6920  -17.7991   24.0697 N   0  0  0  0  0  0  0  0  0  0  0  0
    8.6017  -16.7053   23.9068 C   0  0  1  0  0  0  0  0  0  0  0  0
    8.8119  -15.9038   25.1804 C   0  0  0  0  0  0  0  0  0  0  0  0
    7.6163  -15.1857   25.6054 C   0  0  0  0  0  0  0  0  0  0  0  0
    6.3907  -15.7130   25.9296 C   0  0  0  0  0  0  0  0  0  0  0  0
    5.5563  -14.6919   26.2719 N   0  0  0  0  0  0  0  0  0  0  0  0
    6.2322  -13.5463   26.1682 C   0  0  0  0  0  0  0  0  0  0  0  0
    5.8995  -12.2265   26.3851 C   0  0  0  0  0  0  0  0  0  0  0  0
    6.8106  -11.1998   26.2003 C   0  0  0  0  0  0  0  0  0  0  0  0
    8.0962  -11.4866   25.7864 C   0  0  0  0  0  0  0  0  0  0  0  0
    8.4198  -12.7926   25.5732 C   0  0  0  0  0  0  0  0  0  0  0  0
    7.5172  -13.8212   25.7555 C   0  0  0  0  0  0  0  0  0  0  0  0
    9.9514  -17.1401   23.4712 C   0  0  0  0  0  0  0  0  0  0  0  0
   10.3729  -18.2278   23.8892 O   0  0  0  0  0  0  0  0  0  0  0  0
   10.7158  -16.3433   22.6182 N   0  0  0  0  0  0  0  0  0  0  0  0
   12.0391  -16.5971   22.1605 C   0  0  1  0  0  0  0  0  0  0  0  0
   12.3638  -15.8308   20.9054 C   0  0  0  0  0  0  0  0  0  0  0  0
   11.1337  -16.3287   19.6515 S   0  0  0  0  0  0  0  0  0  0  0  0
   13.1191  -16.4173   23.1709 C   0  0  0  0  0  0  0  0  0  0  0  0
   14.3987  -16.7739   22.7160 O   0  0  0  0  0  0  0  0  0  0  0  0
   12.9862  -15.9989   24.3238 O   0  0  0  0  0  0  0  0  0  0  0  0
  1  2  1  0
  2  3  1  0
  3  4  2  0
  5  3  1  0
  6  5  1  0
  6  7  1  1
  8  7  1  0
  8 16  1  0
  9 10  1  0
  9  8  2  0
 10 11  1  0
 11 16  2  0
 11 12  1  0
 12 13  2  0
 13 14  1  0
 15 14  2  0
 16 15  1  0
 17  6  1  0
 18 17  2  0
 19 17  1  0
 20 19  1  0
 20 23  1  0
 20 21  1  6
 22 21  1  0
 23 25  2  0
 23 24  1  0
M  END
$$$$
