GWC.pdb
     RDKit          3D

 25 26  0  0  1  0  0  0  0  0999 V2000
    6.6428  -16.5423   19.5174 N   0  0  0  0  0  0  0  0  0  0  0  0
    6.6680  -17.0296   20.8693 C   0  0  0  0  0  0  0  0  0  0  0  0
    7.7887  -16.3751   21.6119 C   0  0  0  0  0  0  0  0  0  0  0  0
    8.6149  -15.6949   20.9725 O   0  0  0  0  0  0  0  0  0  0  0  0
    7.8935  -16.5381   23.0202 N   0  0  0  0  0  0  0  0  0  0  0  0
    9.0743  -16.1004   23.7018 C   0  0  1  0  0  0  0  0  0  0  0  0
    8.8720  -15.9169   25.1965 C   0  0  0  0  0  0  0  0  0  0  0  0
    7.6580  -15.1773   25.5205 C   0  0  0  0  0  0  0  0  0  0  0  0
    6.3738  -15.6589   25.5868 C   0  0  0  0  0  0  0  0  0  0  0  0
    5.5429  -14.6326   25.9222 N   0  0  0  0  0  0  0  0  0  0  0  0
    6.2780  -13.5284   26.0651 C   0  0  0  0  0  0  0  0  0  0  0  0
    5.9753  -12.2238   26.3907 C   0  0  0  0  0  0  0  0  0  0  0  0
    6.9498  -11.2432   26.4752 C   0  0  0  0  0  0  0  0  0  0  0  0
    8.2704  -11.5622   26.2291 C   0  0  0  0  0  0  0  0  0  0  0  0
    8.5642  -12.8530   25.9074 C   0  0  0  0  0  0  0  0  0  0  0  0
    7.5984  -13.8357   25.8216 C   0  0  0  0  0  0  0  0  0  0  0  0
   10.2063  -17.0478   23.5568 C   0  0  0  0  0  0  0  0  0  0  0  0
   10.0089  -18.0942   22.9231 O   0  0  0  0  0  0  0  0  0  0  0  0
   11.4508  -16.7625   24.1197 N   0  0  0  0  0  0  0  0  0  0  0  0
   12.7297  -16.9848   23.5366 C   0  0  1  0  0  0  0  0  0  0  0  0
   12.8689  -16.3113   22.1969 C   0  0  0  0  0  0  0  0  0  0  0  0
   14.4732  -16.8416   21.5051 S   0  0  0  0  0  0  0  0  0  0  0  0
   13.8999  -16.6645   24.4012 C   0  0  0  0  0  0  0  0  0  0  0  0
   15.0405  -17.4393   24.1371 O   0  0  0  0  0  0  0  0  0  0  0  0
   13.9459  -15.8112   25.2911 O   0  0  0  0  0  0  0  0  0  0  0  0
  1  2  1  0
  2  3  1  0
  3  4  2  0
  5  3  1  0
  6  5  1  0
  6  7  1  1
  8  7  1  0
  8 16  1  0
  9 10  1  0
  9  8  2  0
 10 11  1  0
 11 16  2  0
 11 12  1  0
 12 13  2  0
 13 14  1  0
 15 14  2  0
 16 15  1  0
 17  6  1  0
 18 17  2  0
 19 17  1  0
 20 19  1  0
 20 23  1  0
 20 21  1  6
 22 21  1  0
 23 25  2  0
 23 24  1  0
M  END
$$$$
