GWC.pdb
     RDKit          3D

 25 26  0  0  1  0  0  0  0  0999 V2000
    8.4064  -12.6440   18.5165 N   0  0  0  0  0  0  0  0  0  0  0  0
    8.2029  -13.9963   18.9585 C   0  0  0  0  0  0  0  0  0  0  0  0
    8.5024  -14.0909   20.4204 C   0  0  0  0  0  0  0  0  0  0  0  0
    9.3499  -13.3186   20.9099 O   0  0  0  0  0  0  0  0  0  0  0  0
    7.8237  -15.0504   21.2201 N   0  0  0  0  0  0  0  0  0  0  0  0
    8.1074  -15.1386   22.6209 C   0  0  1  0  0  0  0  0  0  0  0  0
    7.0805  -15.9508   23.3919 C   0  0  0  0  0  0  0  0  0  0  0  0
    6.4970  -15.2181   24.5092 C   0  0  0  0  0  0  0  0  0  0  0  0
    5.5865  -15.6756   25.4296 C   0  0  0  0  0  0  0  0  0  0  0  0
    5.3076  -14.6668   26.3018 N   0  0  0  0  0  0  0  0  0  0  0  0
    6.0208  -13.5968   25.9461 C   0  0  0  0  0  0  0  0  0  0  0  0
    6.1350  -12.3215   26.4563 C   0  0  0  0  0  0  0  0  0  0  0  0
    6.9690  -11.3744   25.8854 C   0  0  0  0  0  0  0  0  0  0  0  0
    7.7165  -11.6980   24.7706 C   0  0  0  0  0  0  0  0  0  0  0  0
    7.5997  -12.9597   24.2701 C   0  0  0  0  0  0  0  0  0  0  0  0
    6.7710  -13.9090   24.8339 C   0  0  0  0  0  0  0  0  0  0  0  0
    9.4205  -15.7683   22.9030 C   0  0  0  0  0  0  0  0  0  0  0  0
    9.9001  -16.5194   22.0419 O   0  0  0  0  0  0  0  0  0  0  0  0
   10.0877  -15.5181   24.1026 N   0  0  0  0  0  0  0  0  0  0  0  0
   11.3431  -16.0464   24.5147 C   0  0  1  0  0  0  0  0  0  0  0  0
   11.6385  -15.7486   25.9611 C   0  0  0  0  0  0  0  0  0  0  0  0
   10.1596  -16.2397   26.9124 S   0  0  0  0  0  0  0  0  0  0  0  0
   11.5625  -17.4920   24.2285 C   0  0  0  0  0  0  0  0  0  0  0  0
   10.3809  -18.2359   24.0817 O   0  0  0  0  0  0  0  0  0  0  0  0
   12.6501  -18.0630   24.1148 O   0  0  0  0  0  0  0  0  0  0  0  0
  1  2  1  0
  2  3  1  0
  3  4  2  0
  5  3  1  0
  6  5  1  0
  6  7  1  1
  8  7  1  0
  8 16  1  0
  9 10  1  0
  9  8  2  0
 10 11  1  0
 11 16  2  0
 11 12  1  0
 12 13  2  0
 13 14  1  0
 15 14  2  0
 16 15  1  0
 17  6  1  0
 18 17  2  0
 19 17  1  0
 20 19  1  0
 20 23  1  0
 20 21  1  1
 22 21  1  0
 23 25  2  0
 23 24  1  0
M  END
$$$$
