GWC.pdb
     RDKit          3D

 25 26  0  0  1  0  0  0  0  0999 V2000
    6.8569  -17.3563   21.3228 N   0  0  0  0  0  0  0  0  0  0  0  0
    7.6565  -16.2743   20.8175 C   0  0  0  0  0  0  0  0  0  0  0  0
    8.6595  -15.8735   21.8515 C   0  0  0  0  0  0  0  0  0  0  0  0
    9.5219  -15.0243   21.5526 O   0  0  0  0  0  0  0  0  0  0  0  0
    8.6146  -16.4616   23.1449 N   0  0  0  0  0  0  0  0  0  0  0  0
    9.5797  -16.0836   24.1330 C   0  0  1  0  0  0  0  0  0  0  0  0
    9.0436  -16.1509   25.5531 C   0  0  0  0  0  0  0  0  0  0  0  0
    7.7585  -15.4800   25.7093 C   0  0  0  0  0  0  0  0  0  0  0  0
    6.5084  -16.0477   25.7017 C   0  0  0  0  0  0  0  0  0  0  0  0
    5.5840  -15.0628   25.8796 N   0  0  0  0  0  0  0  0  0  0  0  0
    6.2281  -13.9003   25.9968 C   0  0  0  0  0  0  0  0  0  0  0  0
    5.8111  -12.6008   26.1886 C   0  0  0  0  0  0  0  0  0  0  0  0
    6.7068  -11.5480   26.2787 C   0  0  0  0  0  0  0  0  0  0  0  0
    8.0626  -11.7872   26.1754 C   0  0  0  0  0  0  0  0  0  0  0  0
    8.4695  -13.0734   25.9855 C   0  0  0  0  0  0  0  0  0  0  0  0
    7.5829  -14.1276   25.8951 C   0  0  0  0  0  0  0  0  0  0  0  0
   10.7895  -16.9416   24.1128 C   0  0  0  0  0  0  0  0  0  0  0  0
   10.6302  -18.1657   24.0051 O   0  0  0  0  0  0  0  0  0  0  0  0
   12.0629  -16.3802   24.2130 N   0  0  0  0  0  0  0  0  0  0  0  0
   13.3110  -17.0582   24.1246 C   0  0  1  0  0  0  0  0  0  0  0  0
   14.3424  -16.2559   23.3760 C   0  0  0  0  0  0  0  0  0  0  0  0
   14.5741  -14.7003   24.3033 S   0  0  0  0  0  0  0  0  0  0  0  0
   13.8731  -17.5501   25.4136 C   0  0  0  0  0  0  0  0  0  0  0  0
   14.9889  -18.3905   25.2721 O   0  0  0  0  0  0  0  0  0  0  0  0
   13.4562  -17.2902   26.5453 O   0  0  0  0  0  0  0  0  0  0  0  0
  1  2  1  0
  2  3  1  0
  3  4  2  0
  5  3  1  0
  6  5  1  0
  6  7  1  1
  8  7  1  0
  8 16  1  0
  9 10  1  0
  9  8  2  0
 10 11  1  0
 11 16  2  0
 11 12  1  0
 12 13  2  0
 13 14  1  0
 15 14  2  0
 16 15  1  0
 17  6  1  0
 18 17  2  0
 19 17  1  0
 20 19  1  0
 20 23  1  0
 20 21  1  1
 22 21  1  0
 23 25  2  0
 23 24  1  0
M  END
$$$$
