WAT.pdb
     RDKit          3D

 27 28  0  0  1  0  0  0  0  0999 V2000
   27.9996  -20.0228  -10.0101 N   0  0  0  0  0  0  0  0  0  0  0  0
   26.8158  -20.7506   -9.6887 C   0  0  1  0  0  0  0  0  0  0  0  0
   26.1390  -20.1282   -8.4926 C   0  0  0  0  0  0  0  0  0  0  0  0
   27.0522  -19.6664   -7.4373 C   0  0  0  0  0  0  0  0  0  0  0  0
   27.7904  -18.4733   -7.4274 C   0  0  0  0  0  0  0  0  0  0  0  0
   28.5206  -18.4424   -6.3067 N   0  0  0  0  0  0  0  0  0  0  0  0
   28.2869  -19.5568   -5.5959 C   0  0  0  0  0  0  0  0  0  0  0  0
   28.8046  -19.9588   -4.3707 C   0  0  0  0  0  0  0  0  0  0  0  0
   28.3735  -21.1648   -3.8608 C   0  0  0  0  0  0  0  0  0  0  0  0
   27.4636  -21.9583   -4.5239 C   0  0  0  0  0  0  0  0  0  0  0  0
   26.9501  -21.5557   -5.7435 C   0  0  0  0  0  0  0  0  0  0  0  0
   27.3659  -20.3550   -6.2747 C   0  0  0  0  0  0  0  0  0  0  0  0
   25.8879  -20.7715  -10.8608 C   0  0  0  0  0  0  0  0  0  0  0  0
   25.3611  -19.6849  -11.2825 O   0  0  0  0  0  0  0  0  0  0  0  0
   24.6795  -23.2341  -13.4795 C   0  0  0  0  0  0  0  0  0  0  0  0
   24.6957  -21.9197  -12.7659 C   0  0  2  0  0  0  0  0  0  0  0  0
   25.5248  -21.9386  -11.5747 N   0  0  0  0  0  0  0  0  0  0  0  0
   23.3335  -21.4734  -12.5078 C   0  0  0  0  0  0  0  0  0  0  0  0
   22.7655  -21.7141  -11.4229 O   0  0  0  0  0  0  0  0  0  0  0  0
   21.6683  -17.8259  -13.7458 C   0  0  0  0  0  0  0  0  0  0  0  0
   20.9274  -19.0736  -14.1389 C   0  0  1  0  0  0  0  0  0  0  0  0
   21.3298  -19.3701  -15.4610 O   0  0  0  0  0  0  0  0  0  0  0  0
   21.2739  -20.2718  -13.3155 C   0  0  2  0  0  0  0  0  0  0  0  0
   22.6116  -20.7509  -13.4822 N   0  0  0  0  0  0  0  0  0  0  0  0
   20.3294  -21.3594  -13.6372 C   0  0  0  0  0  0  0  0  0  0  0  0
   20.6885  -22.3864  -14.2647 O   0  0  0  0  0  0  0  0  0  0  0  0
   19.0062  -21.2770  -13.2521 O   0  0  0  0  0  0  0  0  0  0  0  0
  2  3  1  0
  2  1  1  6
  4  5  2  0
  4  3  1  0
  6  5  1  0
  7 12  2  0
  7  6  1  0
  8  7  1  0
  9 10  1  0
  9  8  2  0
 10 11  2  0
 11 12  1  0
 12  4  1  0
 13  2  1  0
 14 13  2  0
 16 15  1  1
 16 18  1  0
 16 17  1  0
 17 13  1  0
 18 19  2  0
 21 20  1  1
 22 21  1  0
 23 21  1  0
 23 25  1  0
 23 24  1  6
 24 18  1  0
 25 26  2  0
 25 27  1  0
M  END
$$$$
