WAT.pdb
     RDKit          3D

 27 28  0  0  1  0  0  0  0  0999 V2000
   25.2588  -18.9486   -8.8723 N   0  0  0  0  0  0  0  0  0  0  0  0
   26.3234  -19.8277   -9.2308 C   0  0  1  0  0  0  0  0  0  0  0  0
   26.2721  -21.0710   -8.3779 C   0  0  0  0  0  0  0  0  0  0  0  0
   26.4114  -20.8353   -6.9336 C   0  0  0  0  0  0  0  0  0  0  0  0
   25.3965  -20.9125   -5.9678 C   0  0  0  0  0  0  0  0  0  0  0  0
   25.9250  -20.5976   -4.7796 N   0  0  0  0  0  0  0  0  0  0  0  0
   27.2297  -20.3228   -4.9349 C   0  0  0  0  0  0  0  0  0  0  0  0
   28.1837  -19.9600   -3.9920 C   0  0  0  0  0  0  0  0  0  0  0  0
   29.4711  -19.7469   -4.4364 C   0  0  0  0  0  0  0  0  0  0  0  0
   29.8216  -19.8831   -5.7615 C   0  0  0  0  0  0  0  0  0  0  0  0
   28.8697  -20.2442   -6.6980 C   0  0  0  0  0  0  0  0  0  0  0  0
   27.5760  -20.4617   -6.2791 C   0  0  0  0  0  0  0  0  0  0  0  0
   26.2328  -20.1849  -10.6797 C   0  0  0  0  0  0  0  0  0  0  0  0
   25.1128  -20.1052  -11.2922 O   0  0  0  0  0  0  0  0  0  0  0  0
   28.6007  -21.1011  -13.5074 C   0  0  0  0  0  0  0  0  0  0  0  0
   27.3003  -20.6560  -12.9175 C   0  0  2  0  0  0  0  0  0  0  0  0
   27.3247  -20.6236  -11.4666 N   0  0  0  0  0  0  0  0  0  0  0  0
   26.2075  -21.4557  -13.4537 C   0  0  0  0  0  0  0  0  0  0  0  0
   26.0512  -22.6483  -13.1209 O   0  0  0  0  0  0  0  0  0  0  0  0
   22.5631  -19.5369  -14.5129 C   0  0  0  0  0  0  0  0  0  0  0  0
   22.8314  -20.9736  -14.1602 C   0  0  1  0  0  0  0  0  0  0  0  0
   21.7518  -21.7168  -14.6892 O   0  0  0  0  0  0  0  0  0  0  0  0
   24.0704  -21.5315  -14.7824 C   0  0  2  0  0  0  0  0  0  0  0  0
   25.2875  -20.9024  -14.3702 N   0  0  0  0  0  0  0  0  0  0  0  0
   23.9511  -21.4339  -16.2503 C   0  0  0  0  0  0  0  0  0  0  0  0
   24.7037  -20.6926  -16.9295 O   0  0  0  0  0  0  0  0  0  0  0  0
   22.9954  -22.1648  -16.9272 O   0  0  0  0  0  0  0  0  0  0  0  0
  2  3  1  0
  2  1  1  1
  4  5  2  0
  4  3  1  0
  6  5  1  0
  7 12  2  0
  7  6  1  0
  8  7  1  0
  9 10  1  0
  9  8  2  0
 10 11  2  0
 11 12  1  0
 12  4  1  0
 13  2  1  0
 14 13  2  0
 16 15  1  1
 16 18  1  0
 16 17  1  0
 17 13  1  0
 18 19  2  0
 21 20  1  6
 22 21  1  0
 23 21  1  0
 23 25  1  0
 23 24  1  1
 24 18  1  0
 25 26  2  0
 25 27  1  0
M  END
$$$$
