WAT.pdb
     RDKit          3D

 27 28  0  0  1  0  0  0  0  0999 V2000
   26.1288  -18.2872   -9.3393 N   0  0  0  0  0  0  0  0  0  0  0  0
   26.6638  -19.5520   -9.7246 C   0  0  1  0  0  0  0  0  0  0  0  0
   26.4738  -20.5510   -8.6102 C   0  0  0  0  0  0  0  0  0  0  0  0
   27.0401  -20.1469   -7.3153 C   0  0  0  0  0  0  0  0  0  0  0  0
   26.4752  -19.2529   -6.3932 C   0  0  0  0  0  0  0  0  0  0  0  0
   27.3160  -19.1313   -5.3595 N   0  0  0  0  0  0  0  0  0  0  0  0
   28.3928  -19.9040   -5.5722 C   0  0  0  0  0  0  0  0  0  0  0  0
   29.5152  -20.1086   -4.7789 C   0  0  0  0  0  0  0  0  0  0  0  0
   30.4763  -20.9793   -5.2460 C   0  0  0  0  0  0  0  0  0  0  0  0
   30.3498  -21.6336   -6.4515 C   0  0  0  0  0  0  0  0  0  0  0  0
   29.2316  -21.4278   -7.2392 C   0  0  0  0  0  0  0  0  0  0  0  0
   28.2573  -20.5616   -6.7950 C   0  0  0  0  0  0  0  0  0  0  0  0
   26.0018  -20.0337  -10.9756 C   0  0  0  0  0  0  0  0  0  0  0  0
   24.8037  -19.6771  -11.2465 O   0  0  0  0  0  0  0  0  0  0  0  0
   26.9356  -21.9761  -14.1015 C   0  0  0  0  0  0  0  0  0  0  0  0
   26.0144  -21.2035  -13.2117 C   0  0  2  0  0  0  0  0  0  0  0  0
   26.6105  -20.8873  -11.9267 N   0  0  0  0  0  0  0  0  0  0  0  0
   24.7362  -21.8922  -13.0955 C   0  0  0  0  0  0  0  0  0  0  0  0
   24.5950  -22.8771  -12.3423 O   0  0  0  0  0  0  0  0  0  0  0  0
   21.0535  -20.3903  -15.1872 C   0  0  0  0  0  0  0  0  0  0  0  0
   21.2012  -20.9504  -13.7998 C   0  0  1  0  0  0  0  0  0  0  0  0
   19.9894  -21.6198  -13.5148 O   0  0  0  0  0  0  0  0  0  0  0  0
   22.2857  -21.9702  -13.6677 C   0  0  2  0  0  0  0  0  0  0  0  0
   23.6131  -21.4632  -13.8352 N   0  0  0  0  0  0  0  0  0  0  0  0
   22.0522  -23.0435  -14.6535 C   0  0  0  0  0  0  0  0  0  0  0  0
   22.7738  -23.1770  -15.6727 O   0  0  0  0  0  0  0  0  0  0  0  0
   21.0195  -23.9431  -14.4806 O   0  0  0  0  0  0  0  0  0  0  0  0
  2  3  1  0
  2  1  1  1
  4  5  2  0
  4  3  1  0
  6  5  1  0
  7 12  2  0
  7  6  1  0
  8  7  1  0
  9 10  1  0
  9  8  2  0
 10 11  2  0
 11 12  1  0
 12  4  1  0
 13  2  1  0
 14 13  2  0
 16 15  1  6
 16 18  1  0
 16 17  1  0
 17 13  1  0
 18 19  2  0
 21 20  1  6
 22 21  1  0
 23 21  1  0
 23 25  1  0
 23 24  1  6
 24 18  1  0
 25 26  2  0
 25 27  1  0
M  END
$$$$
