WAT.pdb
     RDKit          3D

 27 28  0  0  1  0  0  0  0  0999 V2000
   19.8882  -13.2736  -15.5057 N   0  0  0  0  0  0  0  0  0  0  0  0
   20.7079  -14.3453  -15.9684 C   0  0  1  0  0  0  0  0  0  0  0  0
   20.0717  -14.9959  -17.1717 C   0  0  0  0  0  0  0  0  0  0  0  0
   20.3155  -16.4404  -17.2939 C   0  0  0  0  0  0  0  0  0  0  0  0
   19.8035  -17.4520  -16.4673 C   0  0  0  0  0  0  0  0  0  0  0  0
   20.2866  -18.6247  -16.8933 N   0  0  0  0  0  0  0  0  0  0  0  0
   21.0830  -18.4160  -17.9534 C   0  0  0  0  0  0  0  0  0  0  0  0
   21.7918  -19.3246  -18.7299 C   0  0  0  0  0  0  0  0  0  0  0  0
   22.5306  -18.8255  -19.7811 C   0  0  0  0  0  0  0  0  0  0  0  0
   22.5790  -17.4796  -20.0700 C   0  0  0  0  0  0  0  0  0  0  0  0
   21.8726  -16.5773  -19.2952 C   0  0  0  0  0  0  0  0  0  0  0  0
   21.1275  -17.0511  -18.2383 C   0  0  0  0  0  0  0  0  0  0  0  0
   22.0737  -13.8414  -16.3089 C   0  0  0  0  0  0  0  0  0  0  0  0
   22.2107  -12.7781  -17.0065 O   0  0  0  0  0  0  0  0  0  0  0  0
   25.6516  -14.3804  -15.2854 C   0  0  0  0  0  0  0  0  0  0  0  0
   24.5943  -13.9528  -16.2532 C   0  0  2  0  0  0  0  0  0  0  0  0
   23.2803  -14.4654  -15.9107 N   0  0  0  0  0  0  0  0  0  0  0  0
   24.9991  -14.2797  -17.6136 C   0  0  0  0  0  0  0  0  0  0  0  0
   25.1416  -15.4634  -17.9824 O   0  0  0  0  0  0  0  0  0  0  0  0
   23.3778  -12.6634  -20.9690 C   0  0  0  0  0  0  0  0  0  0  0  0
   24.8722  -12.5225  -20.8838 C   0  0  1  0  0  0  0  0  0  0  0  0
   25.1166  -11.2329  -20.3593 O   0  0  0  0  0  0  0  0  0  0  0  0
   25.5217  -13.4876  -19.9456 C   0  0  2  0  0  0  0  0  0  0  0  0
   25.2432  -13.2616  -18.5606 N   0  0  0  0  0  0  0  0  0  0  0  0
   26.9821  -13.4461  -20.1559 C   0  0  0  0  0  0  0  0  0  0  0  0
   27.7720  -13.0703  -19.2548 O   0  0  0  0  0  0  0  0  0  0  0  0
   27.5281  -13.8245  -21.3662 O   0  0  0  0  0  0  0  0  0  0  0  0
  2  3  1  0
  2  1  1  6
  4  5  2  0
  4  3  1  0
  6  5  1  0
  7 12  2  0
  7  6  1  0
  8  7  1  0
  9 10  1  0
  9  8  2  0
 10 11  2  0
 11 12  1  0
 12  4  1  0
 13  2  1  0
 14 13  2  0
 16 15  1  1
 16 18  1  0
 16 17  1  0
 17 13  1  0
 18 19  2  0
 21 20  1  1
 22 21  1  0
 23 21  1  0
 23 25  1  0
 23 24  1  1
 24 18  1  0
 25 26  2  0
 25 27  1  0
M  END
$$$$
