WAT.pdb
     RDKit          3D

 27 28  0  0  1  0  0  0  0  0999 V2000
   27.4288  -19.3395  -10.1351 N   0  0  0  0  0  0  0  0  0  0  0  0
   26.8504  -20.6433  -10.1330 C   0  0  1  0  0  0  0  0  0  0  0  0
   26.1934  -20.9116   -8.8018 C   0  0  0  0  0  0  0  0  0  0  0  0
   26.8848  -20.3281   -7.6431 C   0  0  0  0  0  0  0  0  0  0  0  0
   26.5018  -19.1863   -6.9233 C   0  0  0  0  0  0  0  0  0  0  0  0
   27.4109  -18.9712   -5.9655 N   0  0  0  0  0  0  0  0  0  0  0  0
   28.3586  -19.9193   -6.0344 C   0  0  0  0  0  0  0  0  0  0  0  0
   29.4877  -20.1114   -5.2476 C   0  0  0  0  0  0  0  0  0  0  0  0
   30.2926  -21.1916   -5.5400 C   0  0  0  0  0  0  0  0  0  0  0  0
   30.0075  -22.0616   -6.5691 C   0  0  0  0  0  0  0  0  0  0  0  0
   28.8829  -21.8678   -7.3508 C   0  0  0  0  0  0  0  0  0  0  0  0
   28.0631  -20.7950   -7.0794 C   0  0  0  0  0  0  0  0  0  0  0  0
   25.8543  -20.7685  -11.2410 C   0  0  0  0  0  0  0  0  0  0  0  0
   25.1258  -19.7686  -11.5659 O   0  0  0  0  0  0  0  0  0  0  0  0
   24.9413  -23.2562  -13.9492 C   0  0  0  0  0  0  0  0  0  0  0  0
   24.7584  -22.0068  -13.1474 C   0  0  2  0  0  0  0  0  0  0  0  0
   25.6367  -21.9476  -11.9934 N   0  0  0  0  0  0  0  0  0  0  0  0
   23.3532  -21.8320  -12.8064 C   0  0  0  0  0  0  0  0  0  0  0  0
   22.9273  -22.0792  -11.6596 O   0  0  0  0  0  0  0  0  0  0  0  0
   18.8093  -20.3413  -14.3339 C   0  0  0  0  0  0  0  0  0  0  0  0
   20.2839  -20.4759  -14.5943 C   0  0  1  0  0  0  0  0  0  0  0  0
   20.8098  -19.1643  -14.5650 O   0  0  0  0  0  0  0  0  0  0  0  0
   21.0189  -21.2468  -13.5459 C   0  0  2  0  0  0  0  0  0  0  0  0
   22.4264  -21.3749  -13.7680 N   0  0  0  0  0  0  0  0  0  0  0  0
   20.4237  -22.5933  -13.4404 C   0  0  0  0  0  0  0  0  0  0  0  0
   19.4878  -22.8446  -12.6415 O   0  0  0  0  0  0  0  0  0  0  0  0
   20.8857  -23.6288  -14.2280 O   0  0  0  0  0  0  0  0  0  0  0  0
  2  3  1  0
  2  1  1  1
  4  5  2  0
  4  3  1  0
  6  5  1  0
  7 12  2  0
  7  6  1  0
  8  7  1  0
  9 10  1  0
  9  8  2  0
 10 11  2  0
 11 12  1  0
 12  4  1  0
 13  2  1  0
 14 13  2  0
 16 15  1  1
 16 18  1  0
 16 17  1  0
 17 13  1  0
 18 19  2  0
 21 20  1  1
 22 21  1  0
 23 21  1  0
 23 25  1  0
 23 24  1  6
 24 18  1  0
 25 26  2  0
 25 27  1  0
M  END
$$$$
