WAT.pdb
     RDKit          3D

 27 28  0  0  1  0  0  0  0  0999 V2000
   24.3737  -19.7819   -9.5170 N   0  0  0  0  0  0  0  0  0  0  0  0
   25.7621  -19.8882   -9.8257 C   0  0  1  0  0  0  0  0  0  0  0  0
   26.3633  -21.0610   -9.0914 C   0  0  0  0  0  0  0  0  0  0  0  0
   26.3995  -20.9210   -7.6285 C   0  0  0  0  0  0  0  0  0  0  0  0
   25.3631  -21.2164   -6.7300 C   0  0  0  0  0  0  0  0  0  0  0  0
   25.7843  -20.9230   -5.4945 N   0  0  0  0  0  0  0  0  0  0  0  0
   27.0406  -20.4543   -5.5553 C   0  0  0  0  0  0  0  0  0  0  0  0
   27.8867  -20.0340   -4.5363 C   0  0  0  0  0  0  0  0  0  0  0  0
   29.1483  -19.6062   -4.8904 C   0  0  0  0  0  0  0  0  0  0  0  0
   29.5761  -19.5877   -6.1996 C   0  0  0  0  0  0  0  0  0  0  0  0
   28.7316  -20.0065   -7.2119 C   0  0  0  0  0  0  0  0  0  0  0  0
   27.4654  -20.4376   -6.8840 C   0  0  0  0  0  0  0  0  0  0  0  0
   25.9533  -20.0425  -11.3004 C   0  0  0  0  0  0  0  0  0  0  0  0
   25.1584  -20.7814  -11.9774 O   0  0  0  0  0  0  0  0  0  0  0  0
   28.1917  -18.6689  -14.0445 C   0  0  0  0  0  0  0  0  0  0  0  0
   27.1124  -19.5404  -13.4852 C   0  0  2  0  0  0  0  0  0  0  0  0
   26.9817  -19.4166  -12.0450 N   0  0  0  0  0  0  0  0  0  0  0  0
   27.3005  -20.9157  -13.9265 C   0  0  0  0  0  0  0  0  0  0  0  0
   28.1250  -21.6695  -13.3702 O   0  0  0  0  0  0  0  0  0  0  0  0
   24.8605  -23.8889  -14.0126 C   0  0  0  0  0  0  0  0  0  0  0  0
   25.3106  -23.5329  -15.4022 C   0  0  1  0  0  0  0  0  0  0  0  0
   24.3347  -22.6500  -15.9178 O   0  0  0  0  0  0  0  0  0  0  0  0
   26.6105  -22.7969  -15.4507 C   0  0  2  0  0  0  0  0  0  0  0  0
   26.5514  -21.4396  -15.0021 N   0  0  0  0  0  0  0  0  0  0  0  0
   27.1215  -22.8246  -16.8351 C   0  0  0  0  0  0  0  0  0  0  0  0
   27.1530  -21.7936  -17.5517 O   0  0  0  0  0  0  0  0  0  0  0  0
   27.5854  -24.0010  -17.3889 O   0  0  0  0  0  0  0  0  0  0  0  0
  2  3  1  0
  2  1  1  6
  4  5  2  0
  4  3  1  0
  6  5  1  0
  7 12  2  0
  7  6  1  0
  8  7  1  0
  9 10  1  0
  9  8  2  0
 10 11  2  0
 11 12  1  0
 12  4  1  0
 13  2  1  0
 14 13  2  0
 16 15  1  1
 16 18  1  0
 16 17  1  0
 17 13  1  0
 18 19  2  0
 21 20  1  1
 22 21  1  0
 23 21  1  0
 23 25  1  0
 23 24  1  6
 24 18  1  0
 25 26  2  0
 25 27  1  0
M  END
$$$$
