WAT.pdb
     RDKit          3D

 27 28  0  0  1  0  0  0  0  0999 V2000
   24.9634  -21.4947   -9.4943 N   0  0  0  0  0  0  0  0  0  0  0  0
   24.2687  -21.5607   -8.2504 C   0  0  1  0  0  0  0  0  0  0  0  0
   24.3546  -20.2310   -7.5429 C   0  0  0  0  0  0  0  0  0  0  0  0
   25.7140  -19.8198   -7.1639 C   0  0  0  0  0  0  0  0  0  0  0  0
   26.5534  -18.9424   -7.8670 C   0  0  0  0  0  0  0  0  0  0  0  0
   27.7146  -18.8563   -7.2078 N   0  0  0  0  0  0  0  0  0  0  0  0
   27.6617  -19.6346   -6.1155 C   0  0  0  0  0  0  0  0  0  0  0  0
   28.6167  -19.8565   -5.1308 C   0  0  0  0  0  0  0  0  0  0  0  0
   28.2839  -20.7094   -4.1002 C   0  0  0  0  0  0  0  0  0  0  0  0
   27.0560  -21.3294   -4.0286 C   0  0  0  0  0  0  0  0  0  0  0  0
   26.1074  -21.1067   -5.0103 C   0  0  0  0  0  0  0  0  0  0  0  0
   26.4162  -20.2595   -6.0513 C   0  0  0  0  0  0  0  0  0  0  0  0
   22.8403  -21.9404   -8.4758 C   0  0  0  0  0  0  0  0  0  0  0  0
   22.2806  -21.6969   -9.5998 O   0  0  0  0  0  0  0  0  0  0  0  0
   20.2422  -24.0510   -6.6868 C   0  0  0  0  0  0  0  0  0  0  0  0
   20.8097  -23.3024   -7.8508 C   0  0  2  0  0  0  0  0  0  0  0  0
   22.0173  -22.5717   -7.5125 N   0  0  0  0  0  0  0  0  0  0  0  0
   19.7837  -22.4636   -8.4549 C   0  0  0  0  0  0  0  0  0  0  0  0
   19.7316  -21.2372   -8.2299 O   0  0  0  0  0  0  0  0  0  0  0  0
   16.3932  -24.2218  -10.7968 C   0  0  0  0  0  0  0  0  0  0  0  0
   17.0934  -22.9227  -11.0833 C   0  0  1  0  0  0  0  0  0  0  0  0
   16.0950  -22.0280  -11.5310 O   0  0  0  0  0  0  0  0  0  0  0  0
   17.7166  -22.2895   -9.8815 C   0  0  2  0  0  0  0  0  0  0  0  0
   18.8128  -23.0160   -9.3179 N   0  0  0  0  0  0  0  0  0  0  0  0
   16.6787  -22.1060   -8.8483 C   0  0  0  0  0  0  0  0  0  0  0  0
   16.6206  -22.8369   -7.8287 O   0  0  0  0  0  0  0  0  0  0  0  0
   15.7292  -21.1119   -8.9758 O   0  0  0  0  0  0  0  0  0  0  0  0
  2  3  1  0
  2  1  1  6
  4  5  2  0
  4  3  1  0
  6  5  1  0
  7 12  2  0
  7  6  1  0
  8  7  1  0
  9 10  1  0
  9  8  2  0
 10 11  2  0
 11 12  1  0
 12  4  1  0
 13  2  1  0
 14 13  2  0
 16 15  1  1
 16 18  1  0
 16 17  1  0
 17 13  1  0
 18 19  2  0
 21 20  1  1
 22 21  1  0
 23 21  1  0
 23 25  1  0
 23 24  1  1
 24 18  1  0
 25 26  2  0
 25 27  1  0
M  END
$$$$
