WAT.pdb
     RDKit          3D

 27 28  0  0  1  0  0  0  0  0999 V2000
   23.5537  -19.7852  -17.8917 N   0  0  0  0  0  0  0  0  0  0  0  0
   23.6946  -18.9585  -16.7379 C   0  0  1  0  0  0  0  0  0  0  0  0
   22.3659  -18.8259  -16.0357 C   0  0  0  0  0  0  0  0  0  0  0  0
   21.3578  -18.0424  -16.7643 C   0  0  0  0  0  0  0  0  0  0  0  0
   21.3569  -16.6539  -16.9656 C   0  0  0  0  0  0  0  0  0  0  0  0
   20.2525  -16.3310  -17.6483 N   0  0  0  0  0  0  0  0  0  0  0  0
   19.5445  -17.4441  -17.8960 C   0  0  0  0  0  0  0  0  0  0  0  0
   18.3433  -17.6050  -18.5759 C   0  0  0  0  0  0  0  0  0  0  0  0
   17.8426  -18.8841  -18.6922 C   0  0  0  0  0  0  0  0  0  0  0  0
   18.4920  -19.9771  -18.1622 C   0  0  0  0  0  0  0  0  0  0  0  0
   19.6874  -19.8138  -17.4857 C   0  0  0  0  0  0  0  0  0  0  0  0
   20.2080  -18.5456  -17.3550 C   0  0  0  0  0  0  0  0  0  0  0  0
   24.7186  -19.5331  -15.8125 C   0  0  0  0  0  0  0  0  0  0  0  0
   24.4592  -20.5935  -15.1460 O   0  0  0  0  0  0  0  0  0  0  0  0
   28.2258  -18.7364  -14.5849 C   0  0  0  0  0  0  0  0  0  0  0  0
   26.9041  -19.4361  -14.5543 C   0  0  2  0  0  0  0  0  0  0  0  0
   26.0050  -18.9821  -15.5993 N   0  0  0  0  0  0  0  0  0  0  0  0
   26.3227  -19.3495  -13.2217 C   0  0  0  0  0  0  0  0  0  0  0  0
   25.6590  -18.3543  -12.8658 O   0  0  0  0  0  0  0  0  0  0  0  0
   23.6095  -20.8588  -11.5556 C   0  0  0  0  0  0  0  0  0  0  0  0
   24.7941  -21.2240  -10.7048 C   0  0  1  0  0  0  0  0  0  0  0  0
   25.1538  -22.5397  -11.0753 O   0  0  0  0  0  0  0  0  0  0  0  0
   26.0005  -20.3752  -10.9452 C   0  0  2  0  0  0  0  0  0  0  0  0
   26.4930  -20.3947  -12.2883 N   0  0  0  0  0  0  0  0  0  0  0  0
   27.0761  -20.8077  -10.0317 C   0  0  0  0  0  0  0  0  0  0  0  0
   26.9774  -20.6864   -8.7856 O   0  0  0  0  0  0  0  0  0  0  0  0
   28.2373  -21.3653  -10.5285 O   0  0  0  0  0  0  0  0  0  0  0  0
  2  3  1  0
  2  1  1  6
  4  5  2  0
  4  3  1  0
  6  5  1  0
  7 12  2  0
  7  6  1  0
  8  7  1  0
  9 10  1  0
  9  8  2  0
 10 11  2  0
 11 12  1  0
 12  4  1  0
 13  2  1  0
 14 13  2  0
 16 15  1  1
 16 18  1  0
 16 17  1  0
 17 13  1  0
 18 19  2  0
 21 20  1  6
 22 21  1  0
 23 21  1  0
 23 25  1  0
 23 24  1  6
 24 18  1  0
 25 26  2  0
 25 27  1  0
M  END
$$$$
