AWH.pdb
     RDKit          3D

 30 32  0  0  1  0  0  0  0  0999 V2000
   27.6799  -23.0004  -17.5947 C   0  0  0  0  0  0  0  0  0  0  0  0
   28.2918  -22.2537  -16.4293 C   0  0  2  0  0  0  0  0  0  0  0  0
   29.4149  -23.0012  -15.9458 N   0  0  0  0  0  0  0  0  0  0  0  0
   27.2745  -22.0442  -15.3418 C   0  0  0  0  0  0  0  0  0  0  0  0
   26.4391  -22.9360  -15.0293 O   0  0  0  0  0  0  0  0  0  0  0  0
   27.2086  -20.8284  -14.6148 N   0  0  0  0  0  0  0  0  0  0  0  0
   26.3191  -20.6195  -13.4802 C   0  0  1  0  0  0  0  0  0  0  0  0
   26.9334  -19.7022  -12.4708 C   0  0  0  0  0  0  0  0  0  0  0  0
   27.8186  -20.3433  -11.4812 C   0  0  0  0  0  0  0  0  0  0  0  0
   29.0832  -20.8713  -11.8216 C   0  0  0  0  0  0  0  0  0  0  0  0
   29.6721  -21.3684  -10.7242 N   0  0  0  0  0  0  0  0  0  0  0  0
   28.8599  -21.1981   -9.6642 C   0  0  0  0  0  0  0  0  0  0  0  0
   28.9781  -21.5254   -8.3369 C   0  0  0  0  0  0  0  0  0  0  0  0
   27.9461  -21.2185   -7.4761 C   0  0  0  0  0  0  0  0  0  0  0  0
   26.8046  -20.5965   -7.9045 C   0  0  0  0  0  0  0  0  0  0  0  0
   26.7049  -20.2724   -9.2579 C   0  0  0  0  0  0  0  0  0  0  0  0
   27.7157  -20.5648  -10.1362 C   0  0  0  0  0  0  0  0  0  0  0  0
   24.9733  -20.2829  -13.9304 C   0  0  0  0  0  0  0  0  0  0  0  0
   24.7054  -19.3883  -14.7833 O   0  0  0  0  0  0  0  0  0  0  0  0
   23.8789  -21.0334  -13.3623 N   0  0  0  0  0  0  0  0  0  0  0  0
   22.5315  -20.6610  -13.6974 C   0  0  1  0  0  0  0  0  0  0  0  0
   21.7881  -21.8982  -14.2058 C   0  0  0  0  0  0  0  0  0  0  0  0
   22.1600  -22.2154  -15.6022 C   0  0  0  0  0  0  0  0  0  0  0  0
   22.0740  -21.3610  -16.6701 C   0  0  0  0  0  0  0  0  0  0  0  0
   22.5115  -22.0536  -17.7455 N   0  0  0  0  0  0  0  0  0  0  0  0
   22.8622  -23.2974  -17.3818 C   0  0  0  0  0  0  0  0  0  0  0  0
   22.6368  -23.3746  -16.0546 N   0  0  0  0  0  0  0  0  0  0  0  0
   21.7503  -20.1873  -12.5306 C   0  0  0  0  0  0  0  0  0  0  0  0
   20.4526  -19.7348  -12.6929 O   0  0  0  0  0  0  0  0  0  0  0  0
   22.3143  -20.2151  -11.4054 O   0  0  0  0  0  0  0  0  0  0  0  0
  2  1  1  6
  2  4  1  0
  2  3  1  0
  4  5  2  0
  6  7  1  0
  6  4  1  0
  7  8  1  1
  9  8  1  0
  9 10  2  0
 11 10  1  0
 12 11  1  0
 13 12  2  0
 14 13  1  0
 15 14  2  0
 15 16  1  0
 16 17  2  0
 17 12  1  0
 17  9  1  0
 18 20  1  0
 18  7  1  0
 19 18  2  0
 21 28  1  0
 21 20  1  0
 21 22  1  1
 22 23  1  0
 23 27  1  0
 23 24  2  0
 24 25  1  0
 26 25  1  0
 27 26  2  0
 28 29  1  0
 30 28  2  0
M  END
$$$$
