AWH.pdb
     RDKit          3D

 30 32  0  0  1  0  0  0  0  0999 V2000
   28.0541  -20.4677  -16.7139 C   0  0  0  0  0  0  0  0  0  0  0  0
   28.5292  -21.5076  -15.7224 C   0  0  2  0  0  0  0  0  0  0  0  0
   28.5905  -22.7770  -16.3848 N   0  0  0  0  0  0  0  0  0  0  0  0
   27.6111  -21.5634  -14.5327 C   0  0  0  0  0  0  0  0  0  0  0  0
   26.4201  -21.9674  -14.6278 O   0  0  0  0  0  0  0  0  0  0  0  0
   28.0456  -21.1627  -13.2437 N   0  0  0  0  0  0  0  0  0  0  0  0
   27.1890  -21.1852  -12.0655 C   0  0  1  0  0  0  0  0  0  0  0  0
   27.9891  -21.0391  -10.8101 C   0  0  0  0  0  0  0  0  0  0  0  0
   27.2187  -20.7089   -9.5971 C   0  0  0  0  0  0  0  0  0  0  0  0
   25.8140  -20.8365   -9.5304 C   0  0  0  0  0  0  0  0  0  0  0  0
   25.3896  -20.4905   -8.3064 N   0  0  0  0  0  0  0  0  0  0  0  0
   26.4454  -20.1365   -7.5500 C   0  0  0  0  0  0  0  0  0  0  0  0
   26.5600  -19.7043   -6.2527 C   0  0  0  0  0  0  0  0  0  0  0  0
   27.8096  -19.4054   -5.7534 C   0  0  0  0  0  0  0  0  0  0  0  0
   28.9421  -19.5261   -6.5124 C   0  0  0  0  0  0  0  0  0  0  0  0
   28.8033  -19.9674   -7.8287 C   0  0  0  0  0  0  0  0  0  0  0  0
   27.5735  -20.2724   -8.3512 C   0  0  0  0  0  0  0  0  0  0  0  0
   26.0603  -20.2757  -12.2266 C   0  0  0  0  0  0  0  0  0  0  0  0
   26.1650  -19.0296  -12.4159 O   0  0  0  0  0  0  0  0  0  0  0  0
   24.7365  -20.8485  -12.1718 N   0  0  0  0  0  0  0  0  0  0  0  0
   23.6259  -20.0835  -12.6698 C   0  0  1  0  0  0  0  0  0  0  0  0
   23.5979  -20.1882  -14.1962 C   0  0  0  0  0  0  0  0  0  0  0  0
   22.4878  -19.3970  -14.7712 C   0  0  0  0  0  0  0  0  0  0  0  0
   22.4017  -18.0296  -14.7899 C   0  0  0  0  0  0  0  0  0  0  0  0
   21.2350  -17.7319  -15.4045 N   0  0  0  0  0  0  0  0  0  0  0  0
   20.6017  -18.8599  -15.7635 C   0  0  0  0  0  0  0  0  0  0  0  0
   21.3935  -19.8750  -15.3625 N   0  0  0  0  0  0  0  0  0  0  0  0
   22.3127  -20.6007  -12.2181 C   0  0  0  0  0  0  0  0  0  0  0  0
   22.0836  -21.9635  -12.1449 O   0  0  0  0  0  0  0  0  0  0  0  0
   21.4315  -19.7558  -11.9105 O   0  0  0  0  0  0  0  0  0  0  0  0
  2  1  1  6
  2  4  1  0
  2  3  1  0
  4  5  2  0
  6  7  1  0
  6  4  1  0
  7  8  1  1
  9  8  1  0
  9 10  2  0
 11 10  1  0
 12 11  1  0
 13 12  2  0
 14 13  1  0
 15 14  2  0
 15 16  1  0
 16 17  2  0
 17 12  1  0
 17  9  1  0
 18 20  1  0
 18  7  1  0
 19 18  2  0
 21 28  1  0
 21 20  1  0
 21 22  1  6
 22 23  1  0
 23 27  1  0
 23 24  2  0
 24 25  1  0
 26 25  1  0
 27 26  2  0
 28 29  1  0
 30 28  2  0
M  END
$$$$
