AWH.pdb
     RDKit          3D

 30 32  0  0  1  0  0  0  0  0999 V2000
   27.8432  -16.9504  -18.9667 C   0  0  0  0  0  0  0  0  0  0  0  0
   28.6751  -17.8312  -18.0599 C   0  0  2  0  0  0  0  0  0  0  0  0
   29.5307  -18.6451  -18.8718 N   0  0  0  0  0  0  0  0  0  0  0  0
   27.7903  -18.6800  -17.1890 C   0  0  0  0  0  0  0  0  0  0  0  0
   26.9872  -19.5227  -17.6745 O   0  0  0  0  0  0  0  0  0  0  0  0
   27.8197  -18.5706  -15.7755 N   0  0  0  0  0  0  0  0  0  0  0  0
   26.9959  -19.3837  -14.8908 C   0  0  1  0  0  0  0  0  0  0  0  0
   27.6129  -19.5041  -13.5334 C   0  0  0  0  0  0  0  0  0  0  0  0
   26.8432  -20.2877  -12.5498 C   0  0  0  0  0  0  0  0  0  0  0  0
   26.4396  -21.6198  -12.7872 C   0  0  0  0  0  0  0  0  0  0  0  0
   25.7795  -22.0862  -11.7172 N   0  0  0  0  0  0  0  0  0  0  0  0
   25.7219  -21.1275  -10.7739 C   0  0  0  0  0  0  0  0  0  0  0  0
   25.1672  -21.0857   -9.5195 C   0  0  0  0  0  0  0  0  0  0  0  0
   25.2702  -19.9276   -8.7791 C   0  0  0  0  0  0  0  0  0  0  0  0
   25.9094  -18.8155   -9.2565 C   0  0  0  0  0  0  0  0  0  0  0  0
   26.4665  -18.8793  -10.5342 C   0  0  0  0  0  0  0  0  0  0  0  0
   26.3799  -20.0178  -11.2924 C   0  0  0  0  0  0  0  0  0  0  0  0
   25.6034  -18.9525  -14.9360 C   0  0  0  0  0  0  0  0  0  0  0  0
   25.2157  -17.7613  -14.7620 O   0  0  0  0  0  0  0  0  0  0  0  0
   24.6071  -19.9616  -15.2058 N   0  0  0  0  0  0  0  0  0  0  0  0
   23.2179  -19.5930  -15.1783 C   0  0  1  0  0  0  0  0  0  0  0  0
   22.4999  -20.2831  -16.3401 C   0  0  0  0  0  0  0  0  0  0  0  0
   21.0921  -19.8402  -16.4441 C   0  0  0  0  0  0  0  0  0  0  0  0
   20.5390  -18.7644  -15.8002 C   0  0  0  0  0  0  0  0  0  0  0  0
   19.2409  -18.7247  -16.1757 N   0  0  0  0  0  0  0  0  0  0  0  0
   18.9746  -19.7315  -17.0230 C   0  0  0  0  0  0  0  0  0  0  0  0
   20.1319  -20.4068  -17.1740 N   0  0  0  0  0  0  0  0  0  0  0  0
   22.5168  -20.0533  -13.9565 C   0  0  0  0  0  0  0  0  0  0  0  0
   21.5093  -19.2877  -13.3961 O   0  0  0  0  0  0  0  0  0  0  0  0
   22.8761  -21.1537  -13.4616 O   0  0  0  0  0  0  0  0  0  0  0  0
  2  1  1  6
  2  4  1  0
  2  3  1  0
  4  5  2  0
  6  7  1  0
  6  4  1  0
  7  8  1  1
  9  8  1  0
  9 10  2  0
 11 10  1  0
 12 11  1  0
 13 12  2  0
 14 13  1  0
 15 14  2  0
 15 16  1  0
 16 17  2  0
 17 12  1  0
 17  9  1  0
 18 20  1  0
 18  7  1  0
 19 18  2  0
 21 28  1  0
 21 20  1  0
 21 22  1  6
 22 23  1  0
 23 27  1  0
 23 24  2  0
 24 25  1  0
 26 25  1  0
 27 26  2  0
 28 29  1  0
 30 28  2  0
M  END
$$$$
