AWH.pdb
     RDKit          3D

 30 32  0  0  1  0  0  0  0  0999 V2000
   28.2181  -19.4706  -14.3696 C   0  0  0  0  0  0  0  0  0  0  0  0
   28.7540  -20.0685  -13.0868 C   0  0  2  0  0  0  0  0  0  0  0  0
   29.6838  -21.1070  -13.4194 N   0  0  0  0  0  0  0  0  0  0  0  0
   27.6304  -20.6009  -12.2408 C   0  0  0  0  0  0  0  0  0  0  0  0
   26.9594  -21.6125  -12.5831 O   0  0  0  0  0  0  0  0  0  0  0  0
   27.2731  -19.9863  -11.0138 N   0  0  0  0  0  0  0  0  0  0  0  0
   26.2249  -20.4931  -10.1381 C   0  0  1  0  0  0  0  0  0  0  0  0
   26.4151  -20.0178   -8.7326 C   0  0  0  0  0  0  0  0  0  0  0  0
   27.6892  -20.3998   -8.0967 C   0  0  0  0  0  0  0  0  0  0  0  0
   28.6312  -21.2419   -8.7271 C   0  0  0  0  0  0  0  0  0  0  0  0
   29.6981  -21.3977   -7.9299 N   0  0  0  0  0  0  0  0  0  0  0  0
   29.5141  -20.6991   -6.7940 C   0  0  0  0  0  0  0  0  0  0  0  0
   30.2821  -20.5275   -5.6700 C   0  0  0  0  0  0  0  0  0  0  0  0
   29.8052  -19.7373   -4.6461 C   0  0  0  0  0  0  0  0  0  0  0  0
   28.5871  -19.1172   -4.7153 C   0  0  0  0  0  0  0  0  0  0  0  0
   27.8222  -19.3047   -5.8670 C   0  0  0  0  0  0  0  0  0  0  0  0
   28.2716  -20.0843   -6.9008 C   0  0  0  0  0  0  0  0  0  0  0  0
   24.9076  -20.2759  -10.7252 C   0  0  0  0  0  0  0  0  0  0  0  0
   24.3287  -19.1534  -10.7919 O   0  0  0  0  0  0  0  0  0  0  0  0
   24.2292  -21.4269  -11.2717 N   0  0  0  0  0  0  0  0  0  0  0  0
   23.0346  -21.2280  -12.0462 C   0  0  1  0  0  0  0  0  0  0  0  0
   22.7987  -22.4633  -12.9179 C   0  0  0  0  0  0  0  0  0  0  0  0
   21.6647  -22.2604  -13.8461 C   0  0  0  0  0  0  0  0  0  0  0  0
   21.4583  -21.1576  -14.6330 C   0  0  0  0  0  0  0  0  0  0  0  0
   20.3148  -21.3885  -15.3162 N   0  0  0  0  0  0  0  0  0  0  0  0
   19.8111  -22.5870  -14.9811 C   0  0  0  0  0  0  0  0  0  0  0  0
   20.6608  -23.1070  -14.0725 N   0  0  0  0  0  0  0  0  0  0  0  0
   21.8154  -21.0978  -11.2140 C   0  0  0  0  0  0  0  0  0  0  0  0
   20.6530  -20.5728  -11.7511 O   0  0  0  0  0  0  0  0  0  0  0  0
   21.8871  -21.4802  -10.0167 O   0  0  0  0  0  0  0  0  0  0  0  0
  2  1  1  6
  2  4  1  0
  2  3  1  0
  4  5  2  0
  6  7  1  0
  6  4  1  0
  7  8  1  1
  9  8  1  0
  9 10  2  0
 11 10  1  0
 12 11  1  0
 13 12  2  0
 14 13  1  0
 15 14  2  0
 15 16  1  0
 16 17  2  0
 17 12  1  0
 17  9  1  0
 18 20  1  0
 18  7  1  0
 19 18  2  0
 21 28  1  0
 21 20  1  0
 21 22  1  6
 22 23  1  0
 23 27  1  0
 23 24  2  0
 24 25  1  0
 26 25  1  0
 27 26  2  0
 28 29  1  0
 30 28  2  0
M  END
$$$$
