AWH.pdb
     RDKit          3D

 30 32  0  0  1  0  0  0  0  0999 V2000
   24.1785  -29.1786  -21.6168 C   0  0  0  0  0  0  0  0  0  0  0  0
   24.3078  -28.2647  -20.4176 C   0  0  2  0  0  0  0  0  0  0  0  0
   23.8309  -26.9630  -20.7807 N   0  0  0  0  0  0  0  0  0  0  0  0
   25.7354  -28.2050  -19.9488 C   0  0  0  0  0  0  0  0  0  0  0  0
   26.5878  -27.4566  -20.5004 O   0  0  0  0  0  0  0  0  0  0  0  0
   26.1898  -28.9912  -18.8596 N   0  0  0  0  0  0  0  0  0  0  0  0
   27.5267  -28.8787  -18.2916 C   0  0  1  0  0  0  0  0  0  0  0  0
   27.4785  -28.3612  -16.8890 C   0  0  0  0  0  0  0  0  0  0  0  0
   26.9358  -26.9996  -16.7294 C   0  0  0  0  0  0  0  0  0  0  0  0
   25.6263  -26.7530  -16.2621 C   0  0  0  0  0  0  0  0  0  0  0  0
   25.4150  -25.4304  -16.1964 N   0  0  0  0  0  0  0  0  0  0  0  0
   26.5226  -24.7796  -16.5986 C   0  0  0  0  0  0  0  0  0  0  0  0
   26.8277  -23.4476  -16.7238 C   0  0  0  0  0  0  0  0  0  0  0  0
   28.0769  -23.0860  -17.1810 C   0  0  0  0  0  0  0  0  0  0  0  0
   29.0244  -24.0154  -17.5150 C   0  0  0  0  0  0  0  0  0  0  0  0
   28.6936  -25.3642  -17.3802 C   0  0  0  0  0  0  0  0  0  0  0  0
   27.4597  -25.7526  -16.9274 C   0  0  0  0  0  0  0  0  0  0  0  0
   28.2871  -30.1045  -18.5066 C   0  0  0  0  0  0  0  0  0  0  0  0
   27.8477  -31.2692  -18.2831 O   0  0  0  0  0  0  0  0  0  0  0  0
   29.6306  -29.9684  -19.0166 N   0  0  0  0  0  0  0  0  0  0  0  0
   30.3995  -31.1546  -19.2777 C   0  0  1  0  0  0  0  0  0  0  0  0
   30.2956  -32.0875  -18.0692 C   0  0  0  0  0  0  0  0  0  0  0  0
   31.5816  -32.1750  -17.3428 C   0  0  0  0  0  0  0  0  0  0  0  0
   32.5468  -31.2033  -17.2988 C   0  0  0  0  0  0  0  0  0  0  0  0
   33.5446  -31.6952  -16.5306 N   0  0  0  0  0  0  0  0  0  0  0  0
   33.2316  -32.9282  -16.1016 C   0  0  0  0  0  0  0  0  0  0  0  0
   32.0157  -33.2035  -16.6153 N   0  0  0  0  0  0  0  0  0  0  0  0
   29.8864  -31.9411  -20.4242 C   0  0  0  0  0  0  0  0  0  0  0  0
   30.1641  -33.2930  -20.5269 O   0  0  0  0  0  0  0  0  0  0  0  0
   29.1992  -31.3310  -21.2846 O   0  0  0  0  0  0  0  0  0  0  0  0
  2  1  1  6
  2  4  1  0
  2  3  1  0
  4  5  2  0
  6  7  1  0
  6  4  1  0
  7  8  1  1
  9  8  1  0
  9 10  2  0
 11 10  1  0
 12 11  1  0
 13 12  2  0
 14 13  1  0
 15 14  2  0
 15 16  1  0
 16 17  2  0
 17 12  1  0
 17  9  1  0
 18 20  1  0
 18  7  1  0
 19 18  2  0
 21 28  1  0
 21 20  1  0
 21 22  1  1
 22 23  1  0
 23 27  1  0
 23 24  2  0
 24 25  1  0
 26 25  1  0
 27 26  2  0
 28 29  1  0
 30 28  2  0
M  END
$$$$
