AWH.pdb
     RDKit          3D

 30 32  0  0  1  0  0  0  0  0999 V2000
   27.9679  -17.9930  -14.6213 C   0  0  0  0  0  0  0  0  0  0  0  0
   28.4807  -19.3831  -14.3133 C   0  0  2  0  0  0  0  0  0  0  0  0
   28.9752  -19.9673  -15.5249 N   0  0  0  0  0  0  0  0  0  0  0  0
   27.3917  -20.2281  -13.7121 C   0  0  0  0  0  0  0  0  0  0  0  0
   26.5440  -20.8304  -14.4259 O   0  0  0  0  0  0  0  0  0  0  0  0
   27.2685  -20.3869  -12.3083 N   0  0  0  0  0  0  0  0  0  0  0  0
   26.2583  -21.2291  -11.6819 C   0  0  1  0  0  0  0  0  0  0  0  0
   26.7601  -21.8170  -10.4012 C   0  0  0  0  0  0  0  0  0  0  0  0
   26.7835  -20.9023   -9.2451 C   0  0  0  0  0  0  0  0  0  0  0  0
   25.7517  -19.9727   -8.9900 C   0  0  0  0  0  0  0  0  0  0  0  0
   26.0263  -19.2946   -7.8662 N   0  0  0  0  0  0  0  0  0  0  0  0
   27.1949  -19.7270   -7.3567 C   0  0  0  0  0  0  0  0  0  0  0  0
   27.9173  -19.3691   -6.2464 C   0  0  0  0  0  0  0  0  0  0  0  0
   29.1119  -20.0071   -5.9894 C   0  0  0  0  0  0  0  0  0  0  0  0
   29.6015  -20.9882   -6.8086 C   0  0  0  0  0  0  0  0  0  0  0  0
   28.8512  -21.3369   -7.9320 C   0  0  0  0  0  0  0  0  0  0  0  0
   27.6597  -20.7200   -8.2118 C   0  0  0  0  0  0  0  0  0  0  0  0
   24.9733  -20.5417  -11.6222 C   0  0  0  0  0  0  0  0  0  0  0  0
   24.7951  -19.3980  -11.1126 O   0  0  0  0  0  0  0  0  0  0  0  0
   23.8339  -21.2192  -12.1935 N   0  0  0  0  0  0  0  0  0  0  0  0
   22.5415  -20.5946  -12.1150 C   0  0  1  0  0  0  0  0  0  0  0  0
   22.5606  -19.3116  -12.9488 C   0  0  0  0  0  0  0  0  0  0  0  0
   22.9747  -19.5804  -14.3434 C   0  0  0  0  0  0  0  0  0  0  0  0
   23.2133  -20.8157  -14.8865 C   0  0  0  0  0  0  0  0  0  0  0  0
   23.5644  -20.6019  -16.1744 N   0  0  0  0  0  0  0  0  0  0  0  0
   23.5511  -19.2868  -16.4440 C   0  0  0  0  0  0  0  0  0  0  0  0
   23.1843  -18.6758  -15.2992 N   0  0  0  0  0  0  0  0  0  0  0  0
   21.4579  -21.4222  -12.6954 C   0  0  0  0  0  0  0  0  0  0  0  0
   20.1393  -21.0113  -12.6091 O   0  0  0  0  0  0  0  0  0  0  0  0
   21.7888  -22.4978  -13.2598 O   0  0  0  0  0  0  0  0  0  0  0  0
  2  1  1  6
  2  4  1  0
  2  3  1  0
  4  5  2  0
  6  7  1  0
  6  4  1  0
  7  8  1  1
  9  8  1  0
  9 10  2  0
 11 10  1  0
 12 11  1  0
 13 12  2  0
 14 13  1  0
 15 14  2  0
 15 16  1  0
 16 17  2  0
 17 12  1  0
 17  9  1  0
 18 20  1  0
 18  7  1  0
 19 18  2  0
 21 28  1  0
 21 20  1  0
 21 22  1  6
 22 23  1  0
 23 27  1  0
 23 24  2  0
 24 25  1  0
 26 25  1  0
 27 26  2  0
 28 29  1  0
 30 28  2  0
M  END
$$$$
