YQR.pdb
     RDKit          3D

 33 33  0  0  1  0  0  0  0  0999 V2000
   27.9322  -17.2877  -17.3205 O   0  0  0  0  0  0  0  0  0  0  0  0
   28.8474  -16.2458  -17.4582 C   0  0  0  0  0  0  0  0  0  0  0  0
   28.5099  -15.0155  -16.9402 C   0  0  0  0  0  0  0  0  0  0  0  0
   29.3949  -13.9389  -17.0533 C   0  0  0  0  0  0  0  0  0  0  0  0
   30.5998  -14.0850  -17.6737 C   0  0  0  0  0  0  0  0  0  0  0  0
   31.5230  -12.9415  -17.7885 C   0  0  0  0  0  0  0  0  0  0  0  0
   31.0497  -11.9871  -18.8569 C   0  0  2  0  0  0  0  0  0  0  0  0
   31.0378  -12.6742  -20.1150 N   0  0  0  0  0  0  0  0  0  0  0  0
   31.8495  -10.7438  -18.8991 C   0  0  0  0  0  0  0  0  0  0  0  0
   32.8746  -10.6178  -19.6485 O   0  0  0  0  0  0  0  0  0  0  0  0
   30.9357  -15.3138  -18.1903 C   0  0  0  0  0  0  0  0  0  0  0  0
   30.0652  -16.3997  -18.0869 C   0  0  0  0  0  0  0  0  0  0  0  0
   28.7201   -6.7006  -19.3957 N   0  0  0  0  0  0  0  0  0  0  0  0
   29.5262   -7.1984  -20.4431 C   0  0  0  0  0  0  0  0  0  0  0  0
   29.0451   -7.3681  -21.5785 O   0  0  0  0  0  0  0  0  0  0  0  0
   30.9440   -7.5142  -20.1775 C   0  0  0  0  0  0  0  0  0  0  0  0
   31.2407   -7.2873  -18.7237 C   0  0  0  0  0  0  0  0  0  0  0  0
   32.1465   -8.3547  -18.1422 C   0  0  2  0  0  0  0  0  0  0  0  0
   31.5054   -9.6317  -18.1010 N   0  0  0  0  0  0  0  0  0  0  0  0
   32.6377   -7.9104  -16.8192 C   0  0  0  0  0  0  0  0  0  0  0  0
   31.8401   -7.7919  -15.8555 O   0  0  0  0  0  0  0  0  0  0  0  0
   40.2444  -10.5001  -14.3286 N   0  0  0  0  0  0  0  0  0  0  0  0
   39.0884  -11.3231  -14.3628 C   0  0  0  0  0  0  0  0  0  0  0  0
   39.2128  -12.5960  -14.0812 N   0  0  0  0  0  0  0  0  0  0  0  0
   37.8000  -10.8028  -14.6934 N   0  0  0  0  0  0  0  0  0  0  0  0
   37.6346   -9.3882  -14.9361 C   0  0  0  0  0  0  0  0  0  0  0  0
   36.1889   -9.0021  -15.0930 C   0  0  0  0  0  0  0  0  0  0  0  0
   35.9717   -7.5482  -15.2939 C   0  0  0  0  0  0  0  0  0  0  0  0
   34.5578   -7.0965  -15.3847 C   0  0  2  0  0  0  0  0  0  0  0  0
   34.0182   -7.6171  -16.6432 N   0  0  0  0  0  0  0  0  0  0  0  0
   34.4846   -5.6048  -15.4246 C   0  0  0  0  0  0  0  0  0  0  0  0
   34.1467   -4.8898  -16.5593 O   0  0  0  0  0  0  0  0  0  0  0  0
   34.7413   -4.9580  -14.3810 O   0  0  0  0  0  0  0  0  0  0  0  0
  2  1  1  0
  3  2  2  0
  4  3  1  0
  5 11  1  0
  5  4  2  0
  6  5  1  0
  7  6  1  0
  7  8  1  6
  9  7  1  0
  9 19  1  0
 10  9  2  0
 11 12  2  0
 12  2  1  0
 13 14  1  0
 14 15  2  0
 16 14  1  0
 16 17  1  0
 18 17  1  1
 18 19  1  0
 18 20  1  0
 20 21  2  0
 20 30  1  0
 22 23  1  0
 23 24  2  0
 23 25  1  0
 25 26  1  0
 26 27  1  0
 28 27  1  0
 29 28  1  6
 29 31  1  0
 30 29  1  0
 31 33  2  0
 31 32  1  0
M  END
$$$$
