YQR.pdb
     RDKit          3D

 33 33  0  0  1  0  0  0  0  0999 V2000
   38.5608  -24.6312  -18.0813 O   0  0  0  0  0  0  0  0  0  0  0  0
   37.8372  -25.7747  -17.7480 C   0  0  0  0  0  0  0  0  0  0  0  0
   38.4235  -26.6869  -16.8995 C   0  0  0  0  0  0  0  0  0  0  0  0
   37.7374  -27.8497  -16.5356 C   0  0  0  0  0  0  0  0  0  0  0  0
   36.4845  -28.1011  -17.0101 C   0  0  0  0  0  0  0  0  0  0  0  0
   35.7728  -29.3320  -16.6209 C   0  0  0  0  0  0  0  0  0  0  0  0
   36.3281  -30.5203  -17.3666 C   0  0  2  0  0  0  0  0  0  0  0  0
   36.0220  -30.3733  -18.7593 N   0  0  0  0  0  0  0  0  0  0  0  0
   35.8510  -31.8070  -16.8154 C   0  0  0  0  0  0  0  0  0  0  0  0
   35.0738  -32.5814  -17.4670 O   0  0  0  0  0  0  0  0  0  0  0  0
   35.9003  -27.1896  -17.8571 C   0  0  0  0  0  0  0  0  0  0  0  0
   36.5696  -26.0236  -18.2313 C   0  0  0  0  0  0  0  0  0  0  0  0
   37.8864  -34.2374  -11.3481 N   0  0  0  0  0  0  0  0  0  0  0  0
   36.9918  -35.2441  -11.7736 C   0  0  0  0  0  0  0  0  0  0  0  0
   36.8828  -36.3011  -11.1256 O   0  0  0  0  0  0  0  0  0  0  0  0
   36.1880  -35.0292  -12.9935 C   0  0  0  0  0  0  0  0  0  0  0  0
   36.6007  -33.7393  -13.6409 C   0  0  0  0  0  0  0  0  0  0  0  0
   35.7835  -33.4226  -14.8777 C   0  0  2  0  0  0  0  0  0  0  0  0
   36.2422  -32.2354  -15.5287 N   0  0  0  0  0  0  0  0  0  0  0  0
   34.3503  -33.3671  -14.5149 C   0  0  0  0  0  0  0  0  0  0  0  0
   33.9032  -32.3993  -13.8496 O   0  0  0  0  0  0  0  0  0  0  0  0
   28.2232  -30.6689  -18.9287 N   0  0  0  0  0  0  0  0  0  0  0  0
   27.6022  -30.9736  -17.6893 C   0  0  0  0  0  0  0  0  0  0  0  0
   26.4480  -30.4212  -17.4104 N   0  0  0  0  0  0  0  0  0  0  0  0
   28.1984  -31.8626  -16.7437 N   0  0  0  0  0  0  0  0  0  0  0  0
   29.6349  -32.0117  -16.7012 C   0  0  0  0  0  0  0  0  0  0  0  0
   30.0689  -33.0753  -15.7295 C   0  0  0  0  0  0  0  0  0  0  0  0
   31.5396  -33.2545  -15.6493 C   0  0  0  0  0  0  0  0  0  0  0  0
   32.0263  -34.3404  -14.7573 C   0  0  2  0  0  0  0  0  0  0  0  0
   33.4800  -34.4156  -14.9223 N   0  0  0  0  0  0  0  0  0  0  0  0
   31.4401  -35.6539  -15.1612 C   0  0  0  0  0  0  0  0  0  0  0  0
   30.2910  -36.1795  -14.5985 O   0  0  0  0  0  0  0  0  0  0  0  0
   32.0117  -36.3227  -16.0552 O   0  0  0  0  0  0  0  0  0  0  0  0
  2  1  1  0
  3  2  2  0
  4  3  1  0
  5 11  1  0
  5  4  2  0
  6  5  1  0
  7  6  1  0
  7  8  1  6
  9  7  1  0
  9 19  1  0
 10  9  2  0
 11 12  2  0
 12  2  1  0
 13 14  1  0
 14 15  2  0
 16 14  1  0
 16 17  1  0
 18 17  1  1
 18 19  1  0
 18 20  1  0
 20 21  2  0
 20 30  1  0
 22 23  1  0
 23 24  2  0
 23 25  1  0
 25 26  1  0
 26 27  1  0
 28 27  1  0
 29 28  1  6
 29 31  1  0
 30 29  1  0
 31 33  2  0
 31 32  1  0
M  END
$$$$
