YQR.pdb
     RDKit          3D

 33 33  0  0  1  0  0  0  0  0999 V2000
   29.2880  -22.2259  -16.9679 O   0  0  0  0  0  0  0  0  0  0  0  0
   28.0421  -22.8392  -16.8500 C   0  0  0  0  0  0  0  0  0  0  0  0
   27.1040  -22.2467  -16.0347 C   0  0  0  0  0  0  0  0  0  0  0  0
   25.8394  -22.8239  -15.8840 C   0  0  0  0  0  0  0  0  0  0  0  0
   25.5130  -23.9755  -16.5362 C   0  0  0  0  0  0  0  0  0  0  0  0
   24.1771  -24.5754  -16.3670 C   0  0  0  0  0  0  0  0  0  0  0  0
   24.1276  -25.4055  -15.1080 C   0  0  2  0  0  0  0  0  0  0  0  0
   25.0528  -26.4928  -15.2373 N   0  0  0  0  0  0  0  0  0  0  0  0
   22.7586  -25.8631  -14.7860 C   0  0  0  0  0  0  0  0  0  0  0  0
   21.7725  -25.0575  -14.7025 O   0  0  0  0  0  0  0  0  0  0  0  0
   26.4504  -24.5659  -17.3500 C   0  0  0  0  0  0  0  0  0  0  0  0
   27.7176  -24.0044  -17.5126 C   0  0  0  0  0  0  0  0  0  0  0  0
   20.9778  -31.7364  -15.6491 N   0  0  0  0  0  0  0  0  0  0  0  0
   21.9743  -31.4741  -14.6833 C   0  0  0  0  0  0  0  0  0  0  0  0
   22.7217  -32.3880  -14.2889 O   0  0  0  0  0  0  0  0  0  0  0  0
   22.1203  -30.1059  -14.1475 C   0  0  0  0  0  0  0  0  0  0  0  0
   21.0840  -29.2149  -14.7682 C   0  0  0  0  0  0  0  0  0  0  0  0
   21.1921  -27.7795  -14.2931 C   0  0  2  0  0  0  0  0  0  0  0  0
   22.4849  -27.2284  -14.5552 N   0  0  0  0  0  0  0  0  0  0  0  0
   20.8107  -27.7076  -12.8655 C   0  0  0  0  0  0  0  0  0  0  0  0
   21.6809  -27.8507  -11.9702 O   0  0  0  0  0  0  0  0  0  0  0  0
   19.0921  -24.0789   -6.3051 N   0  0  0  0  0  0  0  0  0  0  0  0
   17.9724  -24.9450   -6.2009 C   0  0  0  0  0  0  0  0  0  0  0  0
   17.4572  -25.1691   -5.0179 N   0  0  0  0  0  0  0  0  0  0  0  0
   17.3950  -25.5746   -7.3455 N   0  0  0  0  0  0  0  0  0  0  0  0
   18.0754  -25.5184   -8.6188 C   0  0  0  0  0  0  0  0  0  0  0  0
   17.3052  -26.2151   -9.7076 C   0  0  0  0  0  0  0  0  0  0  0  0
   18.0391  -26.3190  -10.9930 C   0  0  0  0  0  0  0  0  0  0  0  0
   18.9974  -27.4493  -11.1184 C   0  0  2  0  0  0  0  0  0  0  0  0
   19.4530  -27.4765  -12.5105 N   0  0  0  0  0  0  0  0  0  0  0  0
   18.3201  -28.7474  -10.8213 C   0  0  0  0  0  0  0  0  0  0  0  0
   18.2383  -29.2897   -9.5516 O   0  0  0  0  0  0  0  0  0  0  0  0
   17.7957  -29.3865  -11.7647 O   0  0  0  0  0  0  0  0  0  0  0  0
  2  1  1  0
  3  2  2  0
  4  3  1  0
  5 11  1  0
  5  4  2  0
  6  5  1  0
  7  6  1  0
  7  8  1  6
  9  7  1  0
  9 19  1  0
 10  9  2  0
 11 12  2  0
 12  2  1  0
 13 14  1  0
 14 15  2  0
 16 14  1  0
 16 17  1  0
 18 17  1  1
 18 19  1  0
 18 20  1  0
 20 21  2  0
 20 30  1  0
 22 23  1  0
 23 24  2  0
 23 25  1  0
 25 26  1  0
 26 27  1  0
 28 27  1  0
 29 28  1  6
 29 31  1  0
 30 29  1  0
 31 33  2  0
 31 32  1  0
M  END
$$$$
