YQR.pdb
     RDKit          3D

 33 33  0  0  1  0  0  0  0  0999 V2000
   31.5627  -22.0118  -10.4220 O   0  0  0  0  0  0  0  0  0  0  0  0
   30.2928  -21.5338  -10.7401 C   0  0  0  0  0  0  0  0  0  0  0  0
   29.2188  -22.0343  -10.0388 C   0  0  0  0  0  0  0  0  0  0  0  0
   27.9248  -21.5860  -10.3214 C   0  0  0  0  0  0  0  0  0  0  0  0
   27.7030  -20.6520  -11.2892 C   0  0  0  0  0  0  0  0  0  0  0  0
   26.3337  -20.1894  -11.5792 C   0  0  0  0  0  0  0  0  0  0  0  0
   25.7365  -20.9873  -12.7120 C   0  0  2  0  0  0  0  0  0  0  0  0
   26.5590  -20.8223  -13.8744 N   0  0  0  0  0  0  0  0  0  0  0  0
   24.3221  -20.6376  -12.9657 C   0  0  0  0  0  0  0  0  0  0  0  0
   23.9616  -19.4632  -13.3109 O   0  0  0  0  0  0  0  0  0  0  0  0
   28.7761  -20.1530  -11.9885 C   0  0  0  0  0  0  0  0  0  0  0  0
   30.0745  -20.5886  -11.7204 C   0  0  0  0  0  0  0  0  0  0  0  0
   21.1796  -20.0364  -16.9993 N   0  0  0  0  0  0  0  0  0  0  0  0
   21.8000  -21.3008  -16.8942 C   0  0  0  0  0  0  0  0  0  0  0  0
   22.1146  -21.9323  -17.9196 O   0  0  0  0  0  0  0  0  0  0  0  0
   22.0716  -21.8645  -15.5567 C   0  0  0  0  0  0  0  0  0  0  0  0
   21.6847  -20.8640  -14.5068 C   0  0  0  0  0  0  0  0  0  0  0  0
   21.9138  -21.3802  -13.1000 C   0  0  2  0  0  0  0  0  0  0  0  0
   23.3008  -21.6028  -12.8344 N   0  0  0  0  0  0  0  0  0  0  0  0
   21.0817  -22.5834  -12.8798 C   0  0  0  0  0  0  0  0  0  0  0  0
   21.4165  -23.6849  -13.3835 O   0  0  0  0  0  0  0  0  0  0  0  0
   16.4336  -24.1707   -6.6918 N   0  0  0  0  0  0  0  0  0  0  0  0
   17.4688  -25.1312   -6.5477 C   0  0  0  0  0  0  0  0  0  0  0  0
   17.2668  -26.1626   -5.7664 N   0  0  0  0  0  0  0  0  0  0  0  0
   18.7176  -25.0042   -7.2291 N   0  0  0  0  0  0  0  0  0  0  0  0
   18.8888  -23.9817   -8.2354 C   0  0  0  0  0  0  0  0  0  0  0  0
   18.0851  -24.2629   -9.4759 C   0  0  0  0  0  0  0  0  0  0  0  0
   18.2661  -23.2574  -10.5520 C   0  0  0  0  0  0  0  0  0  0  0  0
   19.1197  -23.6632  -11.7001 C   0  0  2  0  0  0  0  0  0  0  0  0
   19.8994  -22.4875  -12.0951 N   0  0  0  0  0  0  0  0  0  0  0  0
   18.2757  -24.0778  -12.8611 C   0  0  0  0  0  0  0  0  0  0  0  0
   17.8385  -25.3750  -13.0592 O   0  0  0  0  0  0  0  0  0  0  0  0
   17.9410  -23.2128  -13.7057 O   0  0  0  0  0  0  0  0  0  0  0  0
  2  1  1  0
  3  2  2  0
  4  3  1  0
  5 11  1  0
  5  4  2  0
  6  5  1  0
  7  6  1  0
  7  8  1  6
  9  7  1  0
  9 19  1  0
 10  9  2  0
 11 12  2  0
 12  2  1  0
 13 14  1  0
 14 15  2  0
 16 14  1  0
 16 17  1  0
 18 17  1  6
 18 19  1  0
 18 20  1  0
 20 21  2  0
 20 30  1  0
 22 23  1  0
 23 24  2  0
 23 25  1  0
 25 26  1  0
 26 27  1  0
 28 27  1  0
 29 28  1  1
 29 31  1  0
 30 29  1  0
 31 33  2  0
 31 32  1  0
M  END
$$$$
