CWS.pdb
     RDKit          3D

 27 28  0  0  1  0  0  0  0  0999 V2000
   11.0643  -16.1063   18.5871 N   0  0  0  0  0  0  0  0  0  0  0  0
   10.0979  -16.8256   19.3559 C   0  0  1  0  0  0  0  0  0  0  0  0
   10.3091  -18.3114   19.3901 C   0  0  0  0  0  0  0  0  0  0  0  0
    9.6525  -19.0810   17.8960 S   0  0  0  0  0  0  0  0  0  0  0  0
   10.0654  -16.2508   20.7322 C   0  0  0  0  0  0  0  0  0  0  0  0
   11.1006  -15.7537   21.2665 O   0  0  0  0  0  0  0  0  0  0  0  0
    8.8834  -16.2389   21.4894 N   0  0  0  0  0  0  0  0  0  0  0  0
    8.8517  -15.7725   22.8776 C   0  0  1  0  0  0  0  0  0  0  0  0
    7.4431  -15.2952   23.0880 C   0  0  0  0  0  0  0  0  0  0  0  0
    7.0658  -14.9361   24.4471 C   0  0  0  0  0  0  0  0  0  0  0  0
    6.5308  -15.8070   25.4058 C   0  0  0  0  0  0  0  0  0  0  0  0
    6.3122  -15.1130   26.5322 N   0  0  0  0  0  0  0  0  0  0  0  0
    6.6900  -13.8280   26.3250 C   0  0  0  0  0  0  0  0  0  0  0  0
    6.6955  -12.7266   27.1558 C   0  0  0  0  0  0  0  0  0  0  0  0
    7.1572  -11.4998   26.7369 C   0  0  0  0  0  0  0  0  0  0  0  0
    7.6284  -11.3787   25.4369 C   0  0  0  0  0  0  0  0  0  0  0  0
    7.6324  -12.4642   24.5886 C   0  0  0  0  0  0  0  0  0  0  0  0
    7.1611  -13.6948   25.0350 C   0  0  0  0  0  0  0  0  0  0  0  0
    9.2673  -16.7803   23.8199 C   0  0  0  0  0  0  0  0  0  0  0  0
    8.5043  -17.7954   23.9922 O   0  0  0  0  0  0  0  0  0  0  0  0
   12.9935  -16.9887   25.5768 O   0  0  0  0  0  0  0  0  0  0  0  0
   12.3042  -18.1858   25.3983 C   0  0  0  0  0  0  0  0  0  0  0  0
   10.7853  -17.9254   25.4698 C   0  0  2  0  0  0  0  0  0  0  0  0
   10.4540  -16.8069   24.6025 N   0  0  0  0  0  0  0  0  0  0  0  0
   10.3941  -17.6176   26.8508 C   0  0  0  0  0  0  0  0  0  0  0  0
    9.8509  -16.5157   27.1056 O   0  0  0  0  0  0  0  0  0  0  0  0
   10.5922  -18.4887   27.9154 O   0  0  0  0  0  0  0  0  0  0  0  0
  2  1  1  6
  2  3  1  0
  4  3  1  0
  5  2  1  0
  6  5  2  0
  7  5  1  0
  8  7  1  0
  9 10  1  0
  8  9  1  1
 10 18  1  0
 11 10  2  0
 11 12  1  0
 12 13  1  0
 13 14  1  0
 14 15  2  0
 16 15  1  0
 17 16  2  0
 18 13  2  0
 18 17  1  0
 19 24  1  0
 19  8  1  0
 20 19  2  0
 21 22  1  0
 23 22  1  1
 23 24  1  0
 25 23  1  0
 26 25  2  0
 27 25  1  0
M  END
$$$$
