CWS.pdb
     RDKit          3D

 27 28  0  0  1  0  0  0  0  0999 V2000
    7.3727  -16.7393   20.8214 N   0  0  0  0  0  0  0  0  0  0  0  0
    8.3625  -15.7567   20.5096 C   0  0  1  0  0  0  0  0  0  0  0  0
    7.8094  -14.4318   20.0713 C   0  0  0  0  0  0  0  0  0  0  0  0
    6.8875  -14.6067   18.5302 S   0  0  0  0  0  0  0  0  0  0  0  0
    9.2653  -15.6044   21.6875 C   0  0  0  0  0  0  0  0  0  0  0  0
   10.3027  -14.8794   21.6370 O   0  0  0  0  0  0  0  0  0  0  0  0
    8.9991  -16.2606   22.8995 N   0  0  0  0  0  0  0  0  0  0  0  0
    9.8239  -16.0583   24.0930 C   0  0  1  0  0  0  0  0  0  0  0  0
    8.9212  -16.4006   25.2437 C   0  0  0  0  0  0  0  0  0  0  0  0
    7.7778  -15.5278   25.4656 C   0  0  0  0  0  0  0  0  0  0  0  0
    6.4322  -15.9185   25.4410 C   0  0  0  0  0  0  0  0  0  0  0  0
    5.6744  -14.8402   25.6882 N   0  0  0  0  0  0  0  0  0  0  0  0
    6.4910  -13.7739   25.8699 C   0  0  0  0  0  0  0  0  0  0  0  0
    6.2254  -12.4538   26.1703 C   0  0  0  0  0  0  0  0  0  0  0  0
    7.2297  -11.5286   26.3403 C   0  0  0  0  0  0  0  0  0  0  0  0
    8.5458  -11.9474   26.2022 C   0  0  0  0  0  0  0  0  0  0  0  0
    8.8358  -13.2603   25.9020 C   0  0  0  0  0  0  0  0  0  0  0  0
    7.8034  -14.1780   25.7353 C   0  0  0  0  0  0  0  0  0  0  0  0
   11.0454  -16.8223   24.0694 C   0  0  0  0  0  0  0  0  0  0  0  0
   10.9616  -18.0871   23.8811 O   0  0  0  0  0  0  0  0  0  0  0  0
   14.9425  -15.2934   24.2581 O   0  0  0  0  0  0  0  0  0  0  0  0
   14.7197  -16.4724   23.5507 C   0  0  0  0  0  0  0  0  0  0  0  0
   13.5275  -17.2312   24.1695 C   0  0  2  0  0  0  0  0  0  0  0  0
   12.3762  -16.3453   24.2213 N   0  0  0  0  0  0  0  0  0  0  0  0
   13.8695  -17.6831   25.5236 C   0  0  0  0  0  0  0  0  0  0  0  0
   13.1845  -17.2853   26.4966 O   0  0  0  0  0  0  0  0  0  0  0  0
   14.9265  -18.5418   25.8005 O   0  0  0  0  0  0  0  0  0  0  0  0
  2  1  1  1
  2  3  1  0
  4  3  1  0
  5  2  1  0
  6  5  2  0
  7  5  1  0
  8  7  1  0
  9 10  1  0
  8  9  1  1
 10 18  1  0
 11 10  2  0
 11 12  1  0
 12 13  1  0
 13 14  1  0
 14 15  2  0
 16 15  1  0
 17 16  2  0
 18 13  2  0
 18 17  1  0
 19 24  1  0
 19  8  1  0
 20 19  2  0
 21 22  1  0
 23 22  1  1
 23 24  1  0
 25 23  1  0
 26 25  2  0
 27 25  1  0
M  END
$$$$
