CWS.pdb
     RDKit          3D

 27 28  0  0  1  0  0  0  0  0999 V2000
    8.2181  -12.7952   17.7914 N   0  0  0  0  0  0  0  0  0  0  0  0
    7.7534  -14.0038   18.3960 C   0  0  1  0  0  0  0  0  0  0  0  0
    8.1326  -15.2555   17.6590 C   0  0  0  0  0  0  0  0  0  0  0  0
    9.9253  -15.4578   17.6312 S   0  0  0  0  0  0  0  0  0  0  0  0
    8.2319  -14.0404   19.8086 C   0  0  0  0  0  0  0  0  0  0  0  0
    9.2689  -13.4108   20.1726 O   0  0  0  0  0  0  0  0  0  0  0  0
    7.5496  -14.7759   20.7904 N   0  0  0  0  0  0  0  0  0  0  0  0
    7.9804  -14.7944   22.1904 C   0  0  1  0  0  0  0  0  0  0  0  0
    6.7044  -14.7807   22.9827 C   0  0  0  0  0  0  0  0  0  0  0  0
    6.8301  -14.7448   24.4324 C   0  0  0  0  0  0  0  0  0  0  0  0
    6.8501  -15.8601   25.2807 C   0  0  0  0  0  0  0  0  0  0  0  0
    6.9779  -15.4282   26.5437 N   0  0  0  0  0  0  0  0  0  0  0  0
    7.0404  -14.0744   26.5304 C   0  0  0  0  0  0  0  0  0  0  0  0
    7.1939  -13.1518   27.5446 C   0  0  0  0  0  0  0  0  0  0  0  0
    7.2601  -11.7999   27.2962 C   0  0  0  0  0  0  0  0  0  0  0  0
    7.1675  -11.3630   25.9820 C   0  0  0  0  0  0  0  0  0  0  0  0
    7.0133  -12.2654   24.9525 C   0  0  0  0  0  0  0  0  0  0  0  0
    6.9497  -13.6277   25.2281 C   0  0  0  0  0  0  0  0  0  0  0  0
    8.8412  -15.9077   22.5000 C   0  0  0  0  0  0  0  0  0  0  0  0
    8.5126  -17.0647   22.0577 O   0  0  0  0  0  0  0  0  0  0  0  0
   12.4490  -15.6054   22.6264 O   0  0  0  0  0  0  0  0  0  0  0  0
   12.2540  -16.9240   23.0306 C   0  0  0  0  0  0  0  0  0  0  0  0
   10.8039  -17.1061   23.5245 C   0  0  2  0  0  0  0  0  0  0  0  0
   10.0517  -15.8939   23.2457 N   0  0  0  0  0  0  0  0  0  0  0  0
   10.7961  -17.3762   24.9674 C   0  0  0  0  0  0  0  0  0  0  0  0
   10.2068  -16.5817   25.7392 O   0  0  0  0  0  0  0  0  0  0  0  0
   11.4135  -18.4800   25.5434 O   0  0  0  0  0  0  0  0  0  0  0  0
  2  1  1  6
  2  3  1  0
  4  3  1  0
  5  2  1  0
  6  5  2  0
  7  5  1  0
  8  7  1  0
  9 10  1  0
  8  9  1  1
 10 18  1  0
 11 10  2  0
 11 12  1  0
 12 13  1  0
 13 14  1  0
 14 15  2  0
 16 15  1  0
 17 16  2  0
 18 13  2  0
 18 17  1  0
 19 24  1  0
 19  8  1  0
 20 19  2  0
 21 22  1  0
 23 22  1  1
 23 24  1  0
 25 23  1  0
 26 25  2  0
 27 25  1  0
M  END
$$$$
