CWS.pdb
     RDKit          3D

 27 28  0  0  1  0  0  0  0  0999 V2000
    7.2698  -14.3827   19.8067 N   0  0  0  0  0  0  0  0  0  0  0  0
    7.1911  -15.3973   20.8100 C   0  0  1  0  0  0  0  0  0  0  0  0
    7.1341  -16.7991   20.2760 C   0  0  0  0  0  0  0  0  0  0  0  0
    8.7343  -17.2867   19.5997 S   0  0  0  0  0  0  0  0  0  0  0  0
    8.3354  -15.2217   21.7510 C   0  0  0  0  0  0  0  0  0  0  0  0
    9.2908  -14.4318   21.4912 O   0  0  0  0  0  0  0  0  0  0  0  0
    8.3972  -15.9271   22.9631 N   0  0  0  0  0  0  0  0  0  0  0  0
    9.4743  -15.7170   23.9333 C   0  0  1  0  0  0  0  0  0  0  0  0
    8.8274  -15.9240   25.2730 C   0  0  0  0  0  0  0  0  0  0  0  0
    7.6908  -15.0731   25.5936 C   0  0  0  0  0  0  0  0  0  0  0  0
    6.3520  -15.4829   25.6534 C   0  0  0  0  0  0  0  0  0  0  0  0
    5.5992  -14.4214   25.9772 N   0  0  0  0  0  0  0  0  0  0  0  0
    6.4125  -13.3476   26.1263 C   0  0  0  0  0  0  0  0  0  0  0  0
    6.1511  -12.0384   26.4745 C   0  0  0  0  0  0  0  0  0  0  0  0
    7.1526  -11.1025   26.5957 C   0  0  0  0  0  0  0  0  0  0  0  0
    8.4613  -11.4989   26.3571 C   0  0  0  0  0  0  0  0  0  0  0  0
    8.7469  -12.8004   26.0075 C   0  0  0  0  0  0  0  0  0  0  0  0
    7.7175  -13.7293   25.8918 C   0  0  0  0  0  0  0  0  0  0  0  0
   10.6132  -16.5693   23.7035 C   0  0  0  0  0  0  0  0  0  0  0  0
   10.4233  -17.8365   23.6832 O   0  0  0  0  0  0  0  0  0  0  0  0
   14.6672  -15.4023   23.2666 O   0  0  0  0  0  0  0  0  0  0  0  0
   14.1867  -16.4731   22.5166 C   0  0  0  0  0  0  0  0  0  0  0  0
   13.0233  -17.1524   23.2682 C   0  0  2  0  0  0  0  0  0  0  0  0
   11.9624  -16.1812   23.4783 N   0  0  0  0  0  0  0  0  0  0  0  0
   13.4931  -17.6642   24.5614 C   0  0  0  0  0  0  0  0  0  0  0  0
   12.9161  -17.2994   25.6141 O   0  0  0  0  0  0  0  0  0  0  0  0
   14.5592  -18.5457   24.6948 O   0  0  0  0  0  0  0  0  0  0  0  0
  2  1  1  6
  2  3  1  0
  4  3  1  0
  5  2  1  0
  6  5  2  0
  7  5  1  0
  8  7  1  0
  9 10  1  0
  8  9  1  1
 10 18  1  0
 11 10  2  0
 11 12  1  0
 12 13  1  0
 13 14  1  0
 14 15  2  0
 16 15  1  0
 17 16  2  0
 18 13  2  0
 18 17  1  0
 19 24  1  0
 19  8  1  0
 20 19  2  0
 21 22  1  0
 23 22  1  1
 23 24  1  0
 25 23  1  0
 26 25  2  0
 27 25  1  0
M  END
$$$$
