CWS.pdb
     RDKit          3D

 27 28  0  0  1  0  0  0  0  0999 V2000
    7.2225  -13.9509   20.1684 N   0  0  0  0  0  0  0  0  0  0  0  0
    7.2966  -15.1748   20.9025 C   0  0  1  0  0  0  0  0  0  0  0  0
    7.5371  -16.3936   20.0599 C   0  0  0  0  0  0  0  0  0  0  0  0
    9.2312  -16.4125   19.4391 S   0  0  0  0  0  0  0  0  0  0  0  0
    8.3411  -15.0307   21.9580 C   0  0  0  0  0  0  0  0  0  0  0  0
    9.2344  -14.1354   21.8874 O   0  0  0  0  0  0  0  0  0  0  0  0
    8.3740  -15.8839   23.0722 N   0  0  0  0  0  0  0  0  0  0  0  0
    9.3666  -15.7350   24.1391 C   0  0  1  0  0  0  0  0  0  0  0  0
    8.5918  -15.9279   25.4113 C   0  0  0  0  0  0  0  0  0  0  0  0
    7.5155  -14.9844   25.6760 C   0  0  0  0  0  0  0  0  0  0  0  0
    6.1486  -15.2909   25.7146 C   0  0  0  0  0  0  0  0  0  0  0  0
    5.4707  -14.1661   25.9856 N   0  0  0  0  0  0  0  0  0  0  0  0
    6.3589  -13.1515   26.1215 C   0  0  0  0  0  0  0  0  0  0  0  0
    6.1891  -11.8157   26.4216 C   0  0  0  0  0  0  0  0  0  0  0  0
    7.2552  -10.9536   26.5387 C   0  0  0  0  0  0  0  0  0  0  0  0
    8.5354  -11.4542   26.3461 C   0  0  0  0  0  0  0  0  0  0  0  0
    8.7301  -12.7844   26.0449 C   0  0  0  0  0  0  0  0  0  0  0  0
    7.6365  -13.6371   25.9324 C   0  0  0  0  0  0  0  0  0  0  0  0
   10.4825  -16.6359   23.9997 C   0  0  0  0  0  0  0  0  0  0  0  0
   10.2484  -17.8953   24.0355 O   0  0  0  0  0  0  0  0  0  0  0  0
   14.1526  -15.3689   23.1226 O   0  0  0  0  0  0  0  0  0  0  0  0
   14.0890  -16.7482   22.9393 C   0  0  0  0  0  0  0  0  0  0  0  0
   12.8891  -17.3207   23.7218 C   0  0  2  0  0  0  0  0  0  0  0  0
   11.8525  -16.3056   23.8109 N   0  0  0  0  0  0  0  0  0  0  0  0
   13.3136  -17.7187   25.0695 C   0  0  0  0  0  0  0  0  0  0  0  0
   12.7486  -17.2106   26.0679 O   0  0  0  0  0  0  0  0  0  0  0  0
   14.3230  -18.6423   25.3132 O   0  0  0  0  0  0  0  0  0  0  0  0
  2  1  1  6
  2  3  1  0
  4  3  1  0
  5  2  1  0
  6  5  2  0
  7  5  1  0
  8  7  1  0
  9 10  1  0
  8  9  1  1
 10 18  1  0
 11 10  2  0
 11 12  1  0
 12 13  1  0
 13 14  1  0
 14 15  2  0
 16 15  1  0
 17 16  2  0
 18 13  2  0
 18 17  1  0
 19 24  1  0
 19  8  1  0
 20 19  2  0
 21 22  1  0
 23 22  1  6
 23 24  1  0
 25 23  1  0
 26 25  2  0
 27 25  1  0
M  END
$$$$
