CWS.pdb
     RDKit          3D

 27 28  0  0  1  0  0  0  0  0999 V2000
    7.9239  -12.8223   17.9196 N   0  0  0  0  0  0  0  0  0  0  0  0
    7.5404  -14.0438   18.5544 C   0  0  1  0  0  0  0  0  0  0  0  0
    7.8861  -15.2834   17.7815 C   0  0  0  0  0  0  0  0  0  0  0  0
    9.6678  -15.5676   17.8006 S   0  0  0  0  0  0  0  0  0  0  0  0
    8.1363  -14.0737   19.9218 C   0  0  0  0  0  0  0  0  0  0  0  0
    9.2012  -13.4440   20.1936 O   0  0  0  0  0  0  0  0  0  0  0  0
    7.5383  -14.8027   20.9617 N   0  0  0  0  0  0  0  0  0  0  0  0
    8.0271  -14.7371   22.3410 C   0  0  1  0  0  0  0  0  0  0  0  0
    6.8025  -14.9271   23.1897 C   0  0  0  0  0  0  0  0  0  0  0  0
    6.9696  -14.7823   24.6283 C   0  0  0  0  0  0  0  0  0  0  0  0
    7.1784  -15.8276   25.5379 C   0  0  0  0  0  0  0  0  0  0  0  0
    7.2842  -15.3031   26.7675 N   0  0  0  0  0  0  0  0  0  0  0  0
    7.1501  -13.9577   26.6735 C   0  0  0  0  0  0  0  0  0  0  0  0
    7.2023  -12.9605   27.6254 C   0  0  0  0  0  0  0  0  0  0  0  0
    7.0644  -11.6313   27.2970 C   0  0  0  0  0  0  0  0  0  0  0  0
    6.8662  -11.2958   25.9647 C   0  0  0  0  0  0  0  0  0  0  0  0
    6.8100  -12.2741   24.9964 C   0  0  0  0  0  0  0  0  0  0  0  0
    6.9529  -13.6115   25.3526 C   0  0  0  0  0  0  0  0  0  0  0  0
    9.0729  -15.6901   22.6137 C   0  0  0  0  0  0  0  0  0  0  0  0
    8.9348  -16.8818   22.1631 O   0  0  0  0  0  0  0  0  0  0  0  0
   13.6731  -16.8263   23.6044 O   0  0  0  0  0  0  0  0  0  0  0  0
   12.6921  -15.8509   23.4425 C   0  0  0  0  0  0  0  0  0  0  0  0
   11.2974  -16.5098   23.4611 C   0  0  2  0  0  0  0  0  0  0  0  0
   10.2827  -15.4773   23.3299 N   0  0  0  0  0  0  0  0  0  0  0  0
   11.1048  -17.2400   24.7199 C   0  0  0  0  0  0  0  0  0  0  0  0
   10.2586  -16.8259   25.5486 O   0  0  0  0  0  0  0  0  0  0  0  0
   11.8163  -18.3850   25.0578 O   0  0  0  0  0  0  0  0  0  0  0  0
  2  1  1  6
  2  3  1  0
  4  3  1  0
  5  2  1  0
  6  5  2  0
  7  5  1  0
  8  7  1  0
  9 10  1  0
  8  9  1  1
 10 18  1  0
 11 10  2  0
 11 12  1  0
 12 13  1  0
 13 14  1  0
 14 15  2  0
 16 15  1  0
 17 16  2  0
 18 13  2  0
 18 17  1  0
 19 24  1  0
 19  8  1  0
 20 19  2  0
 21 22  1  0
 23 22  1  1
 23 24  1  0
 25 23  1  0
 26 25  2  0
 27 25  1  0
M  END
$$$$
