CWS.pdb
     RDKit          3D

 27 28  0  0  1  0  0  0  0  0999 V2000
    6.6232  -18.0150   22.0007 N   0  0  0  0  0  0  0  0  0  0  0  0
    6.9998  -16.8190   21.3152 C   0  0  1  0  0  0  0  0  0  0  0  0
    5.8647  -15.8774   21.0349 C   0  0  0  0  0  0  0  0  0  0  0  0
    4.2881  -16.7540   21.0728 S   0  0  0  0  0  0  0  0  0  0  0  0
    8.0811  -16.1480   22.0938 C   0  0  0  0  0  0  0  0  0  0  0  0
    8.5955  -15.0569   21.7073 O   0  0  0  0  0  0  0  0  0  0  0  0
    8.5710  -16.7016   23.2871 N   0  0  0  0  0  0  0  0  0  0  0  0
    9.6203  -16.0508   24.0752 C   0  0  1  0  0  0  0  0  0  0  0  0
    9.1186  -16.0960   25.4903 C   0  0  0  0  0  0  0  0  0  0  0  0
    7.8558  -15.4253   25.7627 C   0  0  0  0  0  0  0  0  0  0  0  0
    6.6045  -16.0472   25.8696 C   0  0  0  0  0  0  0  0  0  0  0  0
    5.6848  -15.1052   26.1249 N   0  0  0  0  0  0  0  0  0  0  0  0
    6.3070  -13.9026   26.1848 C   0  0  0  0  0  0  0  0  0  0  0  0
    5.8304  -12.6334   26.4400 C   0  0  0  0  0  0  0  0  0  0  0  0
    6.6613  -11.5371   26.4796 C   0  0  0  0  0  0  0  0  0  0  0  0
    8.0177  -11.7261   26.2536 C   0  0  0  0  0  0  0  0  0  0  0  0
    8.5169  -12.9840   25.9961 C   0  0  0  0  0  0  0  0  0  0  0  0
    7.6573  -14.0775   25.9618 C   0  0  0  0  0  0  0  0  0  0  0  0
   10.9147  -16.6595   23.9011 C   0  0  0  0  0  0  0  0  0  0  0  0
   11.0411  -17.9007   24.1938 O   0  0  0  0  0  0  0  0  0  0  0  0
   14.2067  -14.8763   22.0880 O   0  0  0  0  0  0  0  0  0  0  0  0
   14.0626  -16.2572   21.9758 C   0  0  0  0  0  0  0  0  0  0  0  0
   13.3339  -16.8055   23.2200 C   0  0  2  0  0  0  0  0  0  0  0  0
   12.1077  -16.0517   23.4227 N   0  0  0  0  0  0  0  0  0  0  0  0
   14.1962  -16.6808   24.4014 C   0  0  0  0  0  0  0  0  0  0  0  0
   13.8319  -15.9514   25.3551 O   0  0  0  0  0  0  0  0  0  0  0  0
   15.4160  -17.3337   24.5318 O   0  0  0  0  0  0  0  0  0  0  0  0
  2  1  1  1
  2  3  1  0
  4  3  1  0
  5  2  1  0
  6  5  2  0
  7  5  1  0
  8  7  1  0
  9 10  1  0
  8  9  1  1
 10 18  1  0
 11 10  2  0
 11 12  1  0
 12 13  1  0
 13 14  1  0
 14 15  2  0
 16 15  1  0
 17 16  2  0
 18 13  2  0
 18 17  1  0
 19 24  1  0
 19  8  1  0
 20 19  2  0
 21 22  1  0
 23 22  1  6
 23 24  1  0
 25 23  1  0
 26 25  2  0
 27 25  1  0
M  END
$$$$
