CWS.pdb
     RDKit          3D

 27 28  0  0  1  0  0  0  0  0999 V2000
    6.7519  -14.5381   19.9551 N   0  0  0  0  0  0  0  0  0  0  0  0
    7.0756  -15.7263   20.6800 C   0  0  1  0  0  0  0  0  0  0  0  0
    7.4131  -16.9092   19.8195 C   0  0  0  0  0  0  0  0  0  0  0  0
    9.1109  -16.7945   19.2196 S   0  0  0  0  0  0  0  0  0  0  0  0
    8.1825  -15.4139   21.6303 C   0  0  0  0  0  0  0  0  0  0  0  0
    8.9630  -14.4350   21.4384 O   0  0  0  0  0  0  0  0  0  0  0  0
    8.4017  -16.1948   22.7759 N   0  0  0  0  0  0  0  0  0  0  0  0
    9.4290  -15.8578   23.7642 C   0  0  1  0  0  0  0  0  0  0  0  0
    8.7582  -16.0520   25.0940 C   0  0  0  0  0  0  0  0  0  0  0  0
    7.6151  -15.1994   25.3853 C   0  0  0  0  0  0  0  0  0  0  0  0
    6.2698  -15.5890   25.3393 C   0  0  0  0  0  0  0  0  0  0  0  0
    5.5123  -14.5327   25.6689 N   0  0  0  0  0  0  0  0  0  0  0  0
    6.3289  -13.4815   25.9241 C   0  0  0  0  0  0  0  0  0  0  0  0
    6.0636  -12.1874   26.3219 C   0  0  0  0  0  0  0  0  0  0  0  0
    7.0680  -11.2758   26.5541 C   0  0  0  0  0  0  0  0  0  0  0  0
    8.3837  -11.6817   26.3787 C   0  0  0  0  0  0  0  0  0  0  0  0
    8.6734  -12.9686   25.9814 C   0  0  0  0  0  0  0  0  0  0  0  0
    7.6409  -13.8729   25.7533 C   0  0  0  0  0  0  0  0  0  0  0  0
   10.6358  -16.6295   23.6074 C   0  0  0  0  0  0  0  0  0  0  0  0
   10.5332  -17.9060   23.5621 O   0  0  0  0  0  0  0  0  0  0  0  0
   14.5578  -15.1312   23.3618 O   0  0  0  0  0  0  0  0  0  0  0  0
   14.2697  -16.3140   22.6849 C   0  0  0  0  0  0  0  0  0  0  0  0
   13.1092  -17.0458   23.3903 C   0  0  2  0  0  0  0  0  0  0  0  0
   11.9683  -16.1496   23.4813 N   0  0  0  0  0  0  0  0  0  0  0  0
   13.5235  -17.4627   24.7355 C   0  0  0  0  0  0  0  0  0  0  0  0
   12.9239  -16.9994   25.7355 O   0  0  0  0  0  0  0  0  0  0  0  0
   14.5599  -18.3570   24.9750 O   0  0  0  0  0  0  0  0  0  0  0  0
  2  1  1  6
  2  3  1  0
  4  3  1  0
  5  2  1  0
  6  5  2  0
  7  5  1  0
  8  7  1  0
  9 10  1  0
  8  9  1  1
 10 18  1  0
 11 10  2  0
 11 12  1  0
 12 13  1  0
 13 14  1  0
 14 15  2  0
 16 15  1  0
 17 16  2  0
 18 13  2  0
 18 17  1  0
 19 24  1  0
 19  8  1  0
 20 19  2  0
 21 22  1  0
 23 22  1  1
 23 24  1  0
 25 23  1  0
 26 25  2  0
 27 25  1  0
M  END
$$$$
