CWS.pdb
     RDKit          3D

 27 28  0  0  1  0  0  0  0  0999 V2000
    7.0173  -14.4239   19.8651 N   0  0  0  0  0  0  0  0  0  0  0  0
    7.0980  -15.5581   20.7307 C   0  0  1  0  0  0  0  0  0  0  0  0
    7.2597  -16.8721   20.0232 C   0  0  0  0  0  0  0  0  0  0  0  0
    8.8063  -16.9073   19.0944 S   0  0  0  0  0  0  0  0  0  0  0  0
    8.2015  -15.3294   21.7084 C   0  0  0  0  0  0  0  0  0  0  0  0
    9.1385  -14.5114   21.4695 O   0  0  0  0  0  0  0  0  0  0  0  0
    8.2436  -16.0139   22.9332 N   0  0  0  0  0  0  0  0  0  0  0  0
    9.3046  -15.7865   23.9172 C   0  0  1  0  0  0  0  0  0  0  0  0
    8.6416  -15.9948   25.2488 C   0  0  0  0  0  0  0  0  0  0  0  0
    7.5362  -15.1076   25.5797 C   0  0  0  0  0  0  0  0  0  0  0  0
    6.1824  -15.4671   25.6240 C   0  0  0  0  0  0  0  0  0  0  0  0
    5.4685  -14.3843   25.9644 N   0  0  0  0  0  0  0  0  0  0  0  0
    6.3210  -13.3453   26.1392 C   0  0  0  0  0  0  0  0  0  0  0  0
    6.1074  -12.0342   26.5116 C   0  0  0  0  0  0  0  0  0  0  0  0
    7.1430  -11.1397   26.6568 C   0  0  0  0  0  0  0  0  0  0  0  0
    8.4371  -11.5809   26.4178 C   0  0  0  0  0  0  0  0  0  0  0  0
    8.6752  -12.8854   26.0442 C   0  0  0  0  0  0  0  0  0  0  0  0
    7.6120  -13.7718   25.9045 C   0  0  0  0  0  0  0  0  0  0  0  0
   10.4566  -16.6263   23.7074 C   0  0  0  0  0  0  0  0  0  0  0  0
   10.2632  -17.8798   23.5241 O   0  0  0  0  0  0  0  0  0  0  0  0
   14.4066  -15.3577   23.1691 O   0  0  0  0  0  0  0  0  0  0  0  0
   13.9968  -16.5617   22.6013 C   0  0  0  0  0  0  0  0  0  0  0  0
   12.8970  -17.1995   23.4749 C   0  0  2  0  0  0  0  0  0  0  0  0
   11.8236  -16.2377   23.6642 N   0  0  0  0  0  0  0  0  0  0  0  0
   13.4532  -17.5875   24.7769 C   0  0  0  0  0  0  0  0  0  0  0  0
   13.0204  -17.0393   25.8192 O   0  0  0  0  0  0  0  0  0  0  0  0
   14.4498  -18.5438   24.9297 O   0  0  0  0  0  0  0  0  0  0  0  0
  2  1  1  6
  2  3  1  0
  4  3  1  0
  5  2  1  0
  6  5  2  0
  7  5  1  0
  8  7  1  0
  9 10  1  0
  8  9  1  1
 10 18  1  0
 11 10  2  0
 11 12  1  0
 12 13  1  0
 13 14  1  0
 14 15  2  0
 16 15  1  0
 17 16  2  0
 18 13  2  0
 18 17  1  0
 19 24  1  0
 19  8  1  0
 20 19  2  0
 21 22  1  0
 23 22  1  6
 23 24  1  0
 25 23  1  0
 26 25  2  0
 27 25  1  0
M  END
$$$$
