EAF.pdb
     RDKit          3D

 26 26  0  0  1  0  0  0  0  0999 V2000
   17.8576   -9.5923  -19.4700 N   0  0  0  0  0  0  0  0  0  0  0  0
   18.6315  -10.1122  -18.4086 C   0  0  1  0  0  0  0  0  0  0  0  0
   20.0436  -10.3735  -18.7933 C   0  0  0  0  0  0  0  0  0  0  0  0
   20.7578   -9.1694  -19.2731 C   0  0  0  0  0  0  0  0  0  0  0  0
   22.1766   -9.2884  -19.6319 C   0  0  0  0  0  0  0  0  0  0  0  0
   22.8810  -10.3108  -19.5049 O   0  0  0  0  0  0  0  0  0  0  0  0
   18.5341   -9.1999  -17.2267 C   0  0  0  0  0  0  0  0  0  0  0  0
   18.4182   -7.9623  -17.3926 O   0  0  0  0  0  0  0  0  0  0  0  0
   22.8730   -8.1822  -20.1773 O   0  0  0  0  0  0  0  0  0  0  0  0
   17.8850   -9.5101  -13.6317 C   0  0  0  0  0  0  0  0  0  0  0  0
   18.4832   -8.7574  -14.8200 C   0  0  2  0  0  0  0  0  0  0  0  0
   18.5708   -9.7146  -15.9181 N   0  0  0  0  0  0  0  0  0  0  0  0
   19.7971   -8.1847  -14.4514 C   0  0  0  0  0  0  0  0  0  0  0  0
   20.8909   -8.5168  -14.9738 O   0  0  0  0  0  0  0  0  0  0  0  0
   19.8094   -7.1982  -13.4425 N   0  0  0  0  0  0  0  0  0  0  0  0
   21.0209   -6.4497  -13.0936 C   0  0  1  0  0  0  0  0  0  0  0  0
   22.1452   -7.1942  -13.8174 C   0  0  0  0  0  0  0  0  0  0  0  0
   22.5888   -6.4129  -14.9753 C   0  0  0  0  0  0  0  0  0  0  0  0
   23.1527   -5.1637  -14.8776 C   0  0  0  0  0  0  0  0  0  0  0  0
   23.5576   -4.4860  -16.0194 C   0  0  0  0  0  0  0  0  0  0  0  0
   23.3992   -5.0562  -17.2623 C   0  0  0  0  0  0  0  0  0  0  0  0
   22.8297   -6.3198  -17.3757 C   0  0  0  0  0  0  0  0  0  0  0  0
   22.4320   -6.9836  -16.2403 C   0  0  0  0  0  0  0  0  0  0  0  0
   20.8578   -5.0682  -13.5578 C   0  0  0  0  0  0  0  0  0  0  0  0
   19.8112   -4.7229  -14.3826 O   0  0  0  0  0  0  0  0  0  0  0  0
   21.6734   -4.1901  -13.2052 O   0  0  0  0  0  0  0  0  0  0  0  0
  2  1  1  6
  3  2  1  0
  4  3  1  0
  5  9  1  0
  5  4  1  0
  6  5  2  0
  7  8  2  0
  7  2  1  0
 11 10  1  1
 11 12  1  0
 12  7  1  0
 13 11  1  0
 14 13  2  0
 15 13  1  0
 16 15  1  0
 17 18  1  0
 16 17  1  6
 18 23  2  0
 19 20  2  0
 19 18  1  0
 20 21  1  0
 21 22  2  0
 23 22  1  0
 24 25  1  0
 24 16  1  0
 26 24  2  0
M  END
$$$$
