EAF.pdb
     RDKit          3D

 26 26  0  0  1  0  0  0  0  0999 V2000
   23.1464  -20.0372  -12.6978 N   0  0  0  0  0  0  0  0  0  0  0  0
   23.6238  -20.7550  -13.8169 C   0  0  1  0  0  0  0  0  0  0  0  0
   23.4902  -20.0003  -15.0910 C   0  0  0  0  0  0  0  0  0  0  0  0
   23.7031  -18.5437  -14.9399 C   0  0  0  0  0  0  0  0  0  0  0  0
   22.7282  -17.6237  -15.5392 C   0  0  0  0  0  0  0  0  0  0  0  0
   21.7345  -17.9509  -16.2197 O   0  0  0  0  0  0  0  0  0  0  0  0
   25.0348  -21.1862  -13.5683 C   0  0  0  0  0  0  0  0  0  0  0  0
   25.7408  -21.6111  -14.5137 O   0  0  0  0  0  0  0  0  0  0  0  0
   22.8659  -16.2241  -15.3703 O   0  0  0  0  0  0  0  0  0  0  0  0
   27.7796  -20.4350  -12.9579 C   0  0  0  0  0  0  0  0  0  0  0  0
   27.0001  -21.4609  -12.1355 C   0  0  2  0  0  0  0  0  0  0  0  0
   25.5877  -21.1215  -12.2765 N   0  0  0  0  0  0  0  0  0  0  0  0
   27.4578  -21.4402  -10.7282 C   0  0  0  0  0  0  0  0  0  0  0  0
   28.6504  -21.5984  -10.3645 O   0  0  0  0  0  0  0  0  0  0  0  0
   26.4778  -21.2270   -9.7355 N   0  0  0  0  0  0  0  0  0  0  0  0
   26.8112  -21.1485   -8.3099 C   0  0  1  0  0  0  0  0  0  0  0  0
   27.8265  -20.0065   -8.2228 C   0  0  0  0  0  0  0  0  0  0  0  0
   28.2369  -19.8164   -6.8288 C   0  0  0  0  0  0  0  0  0  0  0  0
   27.7296  -18.8321   -6.0153 C   0  0  0  0  0  0  0  0  0  0  0  0
   28.1601  -18.7180   -4.7006 C   0  0  0  0  0  0  0  0  0  0  0  0
   29.0998  -19.5883   -4.1961 C   0  0  0  0  0  0  0  0  0  0  0  0
   29.6218  -20.5890   -5.0084 C   0  0  0  0  0  0  0  0  0  0  0  0
   29.1899  -20.6948   -6.3084 C   0  0  0  0  0  0  0  0  0  0  0  0
   25.5785  -20.8764   -7.5635 C   0  0  0  0  0  0  0  0  0  0  0  0
   25.4084  -21.3620   -6.2867 O   0  0  0  0  0  0  0  0  0  0  0  0
   24.6690  -20.1975   -8.0854 O   0  0  0  0  0  0  0  0  0  0  0  0
  2  1  1  1
  3  2  1  0
  4  3  1  0
  5  9  1  0
  5  4  1  0
  6  5  2  0
  7  8  2  0
  7  2  1  0
 11 10  1  6
 11 12  1  0
 12  7  1  0
 13 11  1  0
 14 13  2  0
 15 13  1  0
 16 15  1  0
 17 18  1  0
 16 17  1  6
 18 23  2  0
 19 20  2  0
 19 18  1  0
 20 21  1  0
 21 22  2  0
 23 22  1  0
 24 25  1  0
 24 16  1  0
 26 24  2  0
M  END
$$$$
