EAF.pdb
     RDKit          3D

 26 26  0  0  1  0  0  0  0  0999 V2000
   19.9893  -11.5567  -20.2951 N   0  0  0  0  0  0  0  0  0  0  0  0
   20.9286  -10.6624  -19.7350 C   0  0  1  0  0  0  0  0  0  0  0  0
   22.1269  -10.4661  -20.5929 C   0  0  0  0  0  0  0  0  0  0  0  0
   23.0790  -11.5981  -20.5458 C   0  0  0  0  0  0  0  0  0  0  0  0
   24.4811  -11.3251  -20.2061 C   0  0  0  0  0  0  0  0  0  0  0  0
   25.1207  -10.2965  -20.5065 O   0  0  0  0  0  0  0  0  0  0  0  0
   20.2533   -9.3664  -19.4135 C   0  0  0  0  0  0  0  0  0  0  0  0
   19.4085   -8.8820  -20.2036 O   0  0  0  0  0  0  0  0  0  0  0  0
   25.2377  -12.2710  -19.4718 O   0  0  0  0  0  0  0  0  0  0  0  0
   18.3182   -7.8664  -17.9377 C   0  0  0  0  0  0  0  0  0  0  0  0
   19.7925   -7.4632  -17.9452 C   0  0  2  0  0  0  0  0  0  0  0  0
   20.5547   -8.6757  -18.2258 N   0  0  0  0  0  0  0  0  0  0  0  0
   20.1576   -6.8418  -16.6525 C   0  0  0  0  0  0  0  0  0  0  0  0
   19.5717   -5.8513  -16.1475 O   0  0  0  0  0  0  0  0  0  0  0  0
   21.2401   -7.4101  -15.9479 N   0  0  0  0  0  0  0  0  0  0  0  0
   21.7459   -6.8392  -14.6957 C   0  0  1  0  0  0  0  0  0  0  0  0
   22.3981   -8.0233  -13.9781 C   0  0  0  0  0  0  0  0  0  0  0  0
   23.4280   -8.6143  -14.8371 C   0  0  0  0  0  0  0  0  0  0  0  0
   23.2140   -9.7138  -15.6330 C   0  0  0  0  0  0  0  0  0  0  0  0
   24.2362  -10.2135  -16.4282 C   0  0  0  0  0  0  0  0  0  0  0  0
   25.4757   -9.6146  -16.4290 C   0  0  0  0  0  0  0  0  0  0  0  0
   25.7062   -8.5015  -15.6280 C   0  0  0  0  0  0  0  0  0  0  0  0
   24.6887   -8.0134  -14.8443 C   0  0  0  0  0  0  0  0  0  0  0  0
   22.6992   -5.7753  -15.0272 C   0  0  0  0  0  0  0  0  0  0  0  0
   23.1559   -4.9133  -14.0560 O   0  0  0  0  0  0  0  0  0  0  0  0
   23.1055   -5.6438  -16.2012 O   0  0  0  0  0  0  0  0  0  0  0  0
  2  1  1  6
  3  2  1  0
  4  3  1  0
  5  9  1  0
  5  4  1  0
  6  5  2  0
  7  8  2  0
  7  2  1  0
 11 10  1  1
 11 12  1  0
 12  7  1  0
 13 11  1  0
 14 13  2  0
 15 13  1  0
 16 15  1  0
 17 18  1  0
 16 17  1  1
 18 23  2  0
 19 20  2  0
 19 18  1  0
 20 21  1  0
 21 22  2  0
 23 22  1  0
 24 25  1  0
 24 16  1  0
 26 24  2  0
M  END
$$$$
