EAF.pdb
     RDKit          3D

 26 26  0  0  1  0  0  0  0  0999 V2000
   18.9347  -14.1416  -18.0225 N   0  0  0  0  0  0  0  0  0  0  0  0
   18.1309  -13.3050  -17.2164 C   0  0  1  0  0  0  0  0  0  0  0  0
   17.6905  -13.9610  -15.9570 C   0  0  0  0  0  0  0  0  0  0  0  0
   16.7605  -15.0916  -16.1737 C   0  0  0  0  0  0  0  0  0  0  0  0
   16.3195  -15.8732  -15.0116 C   0  0  0  0  0  0  0  0  0  0  0  0
   16.7195  -15.7303  -13.8381 O   0  0  0  0  0  0  0  0  0  0  0  0
   18.8530  -12.0209  -16.9546 C   0  0  0  0  0  0  0  0  0  0  0  0
   20.0715  -12.0311  -16.6584 O   0  0  0  0  0  0  0  0  0  0  0  0
   15.3542  -16.8987  -15.1624 O   0  0  0  0  0  0  0  0  0  0  0  0
   18.3438   -8.4539  -17.5462 C   0  0  0  0  0  0  0  0  0  0  0  0
   18.9396   -9.5870  -16.7110 C   0  0  2  0  0  0  0  0  0  0  0  0
   18.1788  -10.7891  -17.0366 N   0  0  0  0  0  0  0  0  0  0  0  0
   18.8832   -9.2440  -15.2724 C   0  0  0  0  0  0  0  0  0  0  0  0
   17.9623   -9.5941  -14.4921 O   0  0  0  0  0  0  0  0  0  0  0  0
   19.9427   -8.4700  -14.7531 N   0  0  0  0  0  0  0  0  0  0  0  0
   19.9915   -8.0511  -13.3489 C   0  0  1  0  0  0  0  0  0  0  0  0
   21.4866   -7.9454  -13.0390 C   0  0  0  0  0  0  0  0  0  0  0  0
   22.0666   -6.8237  -13.7828 C   0  0  0  0  0  0  0  0  0  0  0  0
   21.9895   -5.5161  -13.3673 C   0  0  0  0  0  0  0  0  0  0  0  0
   22.5713   -4.5057  -14.1205 C   0  0  0  0  0  0  0  0  0  0  0  0
   23.2316   -4.8005  -15.2919 C   0  0  0  0  0  0  0  0  0  0  0  0
   23.3169   -6.1195  -15.7242 C   0  0  0  0  0  0  0  0  0  0  0  0
   22.7384   -7.1134  -14.9724 C   0  0  0  0  0  0  0  0  0  0  0  0
   19.2898   -6.7692  -13.2265 C   0  0  0  0  0  0  0  0  0  0  0  0
   18.9693   -6.2589  -11.9889 O   0  0  0  0  0  0  0  0  0  0  0  0
   18.9763   -6.1281  -14.2518 O   0  0  0  0  0  0  0  0  0  0  0  0
  2  1  1  1
  3  2  1  0
  4  3  1  0
  5  9  1  0
  5  4  1  0
  6  5  2  0
  7  8  2  0
  7  2  1  0
 11 10  1  6
 11 12  1  0
 12  7  1  0
 13 11  1  0
 14 13  2  0
 15 13  1  0
 16 15  1  0
 17 18  1  0
 16 17  1  6
 18 23  2  0
 19 20  2  0
 19 18  1  0
 20 21  1  0
 21 22  2  0
 23 22  1  0
 24 25  1  0
 24 16  1  0
 26 24  2  0
M  END
$$$$
