EAF.pdb
     RDKit          3D

 26 26  0  0  1  0  0  0  0  0999 V2000
   16.4427  -13.2046    6.2203 N   0  0  0  0  0  0  0  0  0  0  0  0
   17.8420  -13.3903    6.1633 C   0  0  1  0  0  0  0  0  0  0  0  0
   18.5683  -12.1864    5.6797 C   0  0  0  0  0  0  0  0  0  0  0  0
   18.6144  -12.0772    4.2046 C   0  0  0  0  0  0  0  0  0  0  0  0
   17.8398  -13.0331    3.4031 C   0  0  0  0  0  0  0  0  0  0  0  0
   16.6697  -12.8722    3.0000 O   0  0  0  0  0  0  0  0  0  0  0  0
   18.3400  -13.8440    7.4993 C   0  0  0  0  0  0  0  0  0  0  0  0
   19.5193  -13.6006    7.8491 O   0  0  0  0  0  0  0  0  0  0  0  0
   18.4096  -14.2707    3.0158 O   0  0  0  0  0  0  0  0  0  0  0  0
   16.9575  -15.7187   10.3975 C   0  0  0  0  0  0  0  0  0  0  0  0
   18.0821  -15.0293    9.6251 C   0  0  2  0  0  0  0  0  0  0  0  0
   17.4964  -14.5469    8.3784 N   0  0  0  0  0  0  0  0  0  0  0  0
   19.2022  -15.9716    9.4062 C   0  0  0  0  0  0  0  0  0  0  0  0
   19.3139  -16.7257    8.4071 O   0  0  0  0  0  0  0  0  0  0  0  0
   20.2080  -16.0169   10.3950 N   0  0  0  0  0  0  0  0  0  0  0  0
   21.3200  -16.9707   10.3379 C   0  0  1  0  0  0  0  0  0  0  0  0
   22.5545  -16.0965   10.1046 C   0  0  0  0  0  0  0  0  0  0  0  0
   23.7681  -16.8836   10.3402 C   0  0  0  0  0  0  0  0  0  0  0  0
   24.6643  -16.6147   11.3466 C   0  0  0  0  0  0  0  0  0  0  0  0
   25.7892  -17.4103   11.5148 C   0  0  0  0  0  0  0  0  0  0  0  0
   26.0210  -18.4772   10.6763 C   0  0  0  0  0  0  0  0  0  0  0  0
   25.1224  -18.7605    9.6535 C   0  0  0  0  0  0  0  0  0  0  0  0
   24.0114  -17.9680    9.4944 C   0  0  0  0  0  0  0  0  0  0  0  0
   21.3669  -17.6994   11.6097 C   0  0  0  0  0  0  0  0  0  0  0  0
   20.9109  -17.1170   12.7705 O   0  0  0  0  0  0  0  0  0  0  0  0
   21.8241  -18.8614   11.6475 O   0  0  0  0  0  0  0  0  0  0  0  0
  2  1  1  1
  3  2  1  0
  4  3  1  0
  5  9  1  0
  5  4  1  0
  6  5  2  0
  7  8  2  0
  7  2  1  0
 11 10  1  1
 11 12  1  0
 12  7  1  0
 13 11  1  0
 14 13  2  0
 15 13  1  0
 16 15  1  0
 17 18  1  0
 16 17  1  1
 18 23  2  0
 19 20  2  0
 19 18  1  0
 20 21  1  0
 21 22  2  0
 23 22  1  0
 24 25  1  0
 24 16  1  0
 26 24  2  0
M  END
$$$$
