EAF.pdb
     RDKit          3D

 26 26  0  0  1  0  0  0  0  0999 V2000
   22.3758  -17.4284  -16.7353 N   0  0  0  0  0  0  0  0  0  0  0  0
   22.9189  -18.7194  -16.5511 C   0  0  1  0  0  0  0  0  0  0  0  0
   24.0136  -19.0308  -17.5077 C   0  0  0  0  0  0  0  0  0  0  0  0
   23.5608  -19.7819  -18.6997 C   0  0  0  0  0  0  0  0  0  0  0  0
   22.6713  -20.9345  -18.5096 C   0  0  0  0  0  0  0  0  0  0  0  0
   21.4646  -20.8846  -18.1951 O   0  0  0  0  0  0  0  0  0  0  0  0
   23.3574  -18.8781  -15.1294 C   0  0  0  0  0  0  0  0  0  0  0  0
   24.4076  -18.3233  -14.7272 O   0  0  0  0  0  0  0  0  0  0  0  0
   23.1597  -22.2528  -18.6828 O   0  0  0  0  0  0  0  0  0  0  0  0
   22.0370  -20.4662  -12.0471 C   0  0  0  0  0  0  0  0  0  0  0  0
   23.1485  -19.8377  -12.8875 C   0  0  2  0  0  0  0  0  0  0  0  0
   22.6015  -19.6484  -14.2272 N   0  0  0  0  0  0  0  0  0  0  0  0
   24.3488  -20.7034  -12.8745 C   0  0  0  0  0  0  0  0  0  0  0  0
   24.4642  -21.7711  -13.5274 O   0  0  0  0  0  0  0  0  0  0  0  0
   25.4318  -20.2905  -12.0696 N   0  0  0  0  0  0  0  0  0  0  0  0
   26.6945  -21.0336  -12.0142 C   0  0  1  0  0  0  0  0  0  0  0  0
   27.6997  -20.0267  -11.4501 C   0  0  0  0  0  0  0  0  0  0  0  0
   27.5723  -19.9666   -9.9914 C   0  0  0  0  0  0  0  0  0  0  0  0
   28.1770  -20.8585   -9.1387 C   0  0  0  0  0  0  0  0  0  0  0  0
   28.0181  -20.7336   -7.7654 C   0  0  0  0  0  0  0  0  0  0  0  0
   27.2534  -19.7160   -7.2412 C   0  0  0  0  0  0  0  0  0  0  0  0
   26.6355  -18.8065   -8.0926 C   0  0  0  0  0  0  0  0  0  0  0  0
   26.7983  -18.9374   -9.4506 C   0  0  0  0  0  0  0  0  0  0  0  0
   26.5042  -22.1999  -11.1457 C   0  0  0  0  0  0  0  0  0  0  0  0
   27.3708  -23.2678  -11.2034 O   0  0  0  0  0  0  0  0  0  0  0  0
   25.5478  -22.2316  -10.3427 O   0  0  0  0  0  0  0  0  0  0  0  0
  2  1  1  1
  3  2  1  0
  4  3  1  0
  5  9  1  0
  5  4  1  0
  6  5  2  0
  7  8  2  0
  7  2  1  0
 11 10  1  1
 11 12  1  0
 12  7  1  0
 13 11  1  0
 14 13  2  0
 15 13  1  0
 16 15  1  0
 17 18  1  0
 16 17  1  1
 18 23  2  0
 19 20  2  0
 19 18  1  0
 20 21  1  0
 21 22  2  0
 23 22  1  0
 24 25  1  0
 24 16  1  0
 26 24  2  0
M  END
$$$$
