PNN.pdb
     RDKit          3D

 24 24  0  0  1  0  0  0  0  0999 V2000
   27.0493  -18.4676  -16.6666 N   0  0  0  0  0  0  0  0  0  0  0  0
   28.1594  -17.9921  -17.4734 C   0  0  0  0  0  0  0  0  0  0  0  0
   29.3585  -18.5962  -16.7828 C   0  0  0  0  0  0  0  0  0  0  0  0
   28.8495  -19.9026  -16.2175 C   0  0  0  0  0  0  0  0  0  0  0  0
   27.4014  -19.8692  -16.3866 C   0  0  1  0  0  0  0  0  0  0  0  0
   26.5328  -20.4505  -15.3854 C   0  0  0  0  0  0  0  0  0  0  0  0
   25.8493  -21.4618  -15.6919 O   0  0  0  0  0  0  0  0  0  0  0  0
   25.2484  -20.5082   -9.3163 N   0  0  0  0  0  0  0  0  0  0  0  0
   25.1149  -20.9247  -10.6593 C   0  0  0  0  0  0  0  0  0  0  0  0
   24.2402  -21.7555  -10.9591 O   0  0  0  0  0  0  0  0  0  0  0  0
   26.0046  -20.3780  -11.6937 C   0  0  0  0  0  0  0  0  0  0  0  0
   25.4721  -20.5054  -13.1001 C   0  0  2  0  0  0  0  0  0  0  0  0
   26.3850  -19.9615  -14.0521 N   0  0  0  0  0  0  0  0  0  0  0  0
   24.0919  -19.9356  -13.2064 C   0  0  0  0  0  0  0  0  0  0  0  0
   23.9217  -18.7079  -13.0069 O   0  0  0  0  0  0  0  0  0  0  0  0
   19.6338  -18.3856  -15.4657 N   0  0  0  0  0  0  0  0  0  0  0  0
   19.8658  -19.7787  -15.3552 C   0  0  0  0  0  0  0  0  0  0  0  0
   18.8972  -20.5572  -15.4693 O   0  0  0  0  0  0  0  0  0  0  0  0
   21.2298  -20.2771  -15.1114 C   0  0  0  0  0  0  0  0  0  0  0  0
   21.6566  -20.2924  -13.6831 C   0  0  2  0  0  0  0  0  0  0  0  0
   23.0024  -20.7803  -13.5267 N   0  0  0  0  0  0  0  0  0  0  0  0
   20.7386  -21.0252  -12.7724 C   0  0  0  0  0  0  0  0  0  0  0  0
   20.7532  -22.2672  -12.6196 O   0  0  0  0  0  0  0  0  0  0  0  0
   19.8059  -20.3090  -12.0447 O   0  0  0  0  0  0  0  0  0  0  0  0
  1  5  1  0
  1  2  1  0
  2  3  1  0
  4  3  1  0
  5  4  1  0
  6 13  1  0
  5  6  1  1
  7  6  2  0
  8  9  1  0
  9 11  1  0
 10  9  2  0
 12 11  1  1
 12 13  1  0
 14 12  1  0
 15 14  2  0
 16 17  1  0
 17 19  1  0
 17 18  2  0
 20 19  1  6
 20 22  1  0
 20 21  1  0
 21 14  1  0
 22 24  1  0
 23 22  2  0
M  END
$$$$
