PNN.pdb
     RDKit          3D

 24 24  0  0  1  0  0  0  0  0999 V2000
   27.7946  -20.3512  -16.4104 N   0  0  0  0  0  0  0  0  0  0  0  0
   28.9613  -20.4548  -17.2692 C   0  0  0  0  0  0  0  0  0  0  0  0
   29.7259  -21.6046  -16.6585 C   0  0  0  0  0  0  0  0  0  0  0  0
   28.6562  -22.5091  -16.0901 C   0  0  0  0  0  0  0  0  0  0  0  0
   27.4121  -21.7533  -16.1770 C   0  0  1  0  0  0  0  0  0  0  0  0
   26.4095  -21.8699  -15.1398 C   0  0  0  0  0  0  0  0  0  0  0  0
   25.7141  -22.9175  -15.0863 O   0  0  0  0  0  0  0  0  0  0  0  0
   25.1108  -21.4181   -9.6068 N   0  0  0  0  0  0  0  0  0  0  0  0
   24.7547  -20.5745  -10.6822 C   0  0  0  0  0  0  0  0  0  0  0  0
   23.6642  -19.9783  -10.6581 O   0  0  0  0  0  0  0  0  0  0  0  0
   25.6686  -20.4038  -11.8206 C   0  0  0  0  0  0  0  0  0  0  0  0
   25.1828  -21.0295  -13.1052 C   0  0  2  0  0  0  0  0  0  0  0  0
   26.1393  -20.8746  -14.1523 N   0  0  0  0  0  0  0  0  0  0  0  0
   23.8193  -20.5277  -13.4658 C   0  0  0  0  0  0  0  0  0  0  0  0
   23.6808  -19.3267  -13.8039 O   0  0  0  0  0  0  0  0  0  0  0  0
   22.1056  -20.0880  -16.4087 N   0  0  0  0  0  0  0  0  0  0  0  0
   21.3589  -21.2894  -16.3350 C   0  0  0  0  0  0  0  0  0  0  0  0
   21.0826  -21.8878  -17.3947 O   0  0  0  0  0  0  0  0  0  0  0  0
   20.9279  -21.8049  -15.0247 C   0  0  0  0  0  0  0  0  0  0  0  0
   21.3901  -21.0168  -13.8468 C   0  0  2  0  0  0  0  0  0  0  0  0
   22.7097  -21.4052  -13.4209 N   0  0  0  0  0  0  0  0  0  0  0  0
   20.4559  -21.0294  -12.6907 C   0  0  0  0  0  0  0  0  0  0  0  0
   20.5224  -21.8520  -11.7500 O   0  0  0  0  0  0  0  0  0  0  0  0
   19.4469  -20.0855  -12.6358 O   0  0  0  0  0  0  0  0  0  0  0  0
  1  5  1  0
  1  2  1  0
  2  3  1  0
  4  3  1  0
  5  4  1  0
  6 13  1  0
  5  6  1  1
  7  6  2  0
  8  9  1  0
  9 11  1  0
 10  9  2  0
 12 11  1  1
 12 13  1  0
 14 12  1  0
 15 14  2  0
 16 17  1  0
 17 19  1  0
 17 18  2  0
 20 19  1  6
 20 22  1  0
 20 21  1  0
 21 14  1  0
 22 24  1  0
 23 22  2  0
M  END
$$$$
