PNN.pdb
     RDKit          3D

 24 24  0  0  1  0  0  0  0  0999 V2000
   20.8099  -12.2182  -16.7200 N   0  0  0  0  0  0  0  0  0  0  0  0
   21.3426  -13.2560  -17.5852 C   0  0  0  0  0  0  0  0  0  0  0  0
   20.2913  -13.3661  -18.6632 C   0  0  0  0  0  0  0  0  0  0  0  0
   19.7310  -11.9675  -18.7876 C   0  0  0  0  0  0  0  0  0  0  0  0
   20.2822  -11.2194  -17.6637 C   0  0  1  0  0  0  0  0  0  0  0  0
   19.4867  -10.2144  -16.9914 C   0  0  0  0  0  0  0  0  0  0  0  0
   19.1533   -9.1815  -17.6285 O   0  0  0  0  0  0  0  0  0  0  0  0
   15.9982  -10.3358  -16.0753 N   0  0  0  0  0  0  0  0  0  0  0  0
   16.1304  -10.4016  -14.6706 C   0  0  0  0  0  0  0  0  0  0  0  0
   15.2452  -10.9569  -13.9972 O   0  0  0  0  0  0  0  0  0  0  0  0
   17.3072   -9.8174  -14.0116 C   0  0  0  0  0  0  0  0  0  0  0  0
   18.3370   -9.2584  -14.9629 C   0  0  2  0  0  0  0  0  0  0  0  0
   19.0397  -10.3003  -15.6380 N   0  0  0  0  0  0  0  0  0  0  0  0
   19.2383   -8.2855  -14.2686 C   0  0  0  0  0  0  0  0  0  0  0  0
   20.2192   -8.7206  -13.6169 O   0  0  0  0  0  0  0  0  0  0  0  0
   22.0392   -4.0563  -13.5431 N   0  0  0  0  0  0  0  0  0  0  0  0
   22.2792   -5.0929  -14.4782 C   0  0  0  0  0  0  0  0  0  0  0  0
   23.3676   -5.1078  -15.0883 O   0  0  0  0  0  0  0  0  0  0  0  0
   21.2523   -6.1225  -14.7101 C   0  0  0  0  0  0  0  0  0  0  0  0
   19.9547   -5.8967  -14.0119 C   0  0  2  0  0  0  0  0  0  0  0  0
   18.9766   -6.8972  -14.3527 N   0  0  0  0  0  0  0  0  0  0  0  0
   19.3817   -4.5380  -14.1981 C   0  0  0  0  0  0  0  0  0  0  0  0
   18.6066   -4.2304  -15.1312 O   0  0  0  0  0  0  0  0  0  0  0  0
   19.7153   -3.5423  -13.2983 O   0  0  0  0  0  0  0  0  0  0  0  0
  1  5  1  0
  1  2  1  0
  2  3  1  0
  4  3  1  0
  5  4  1  0
  6 13  1  0
  5  6  1  1
  7  6  2  0
  8  9  1  0
  9 11  1  0
 10  9  2  0
 12 11  1  1
 12 13  1  0
 14 12  1  0
 15 14  2  0
 16 17  1  0
 17 19  1  0
 17 18  2  0
 20 19  1  6
 20 22  1  0
 20 21  1  0
 21 14  1  0
 22 24  1  0
 23 22  2  0
M  END
$$$$
