PNN.pdb
     RDKit          3D

 24 24  0  0  1  0  0  0  0  0999 V2000
   22.0277  -11.6697  -17.7805 N   0  0  0  0  0  0  0  0  0  0  0  0
   22.2800  -12.9762  -18.3623 C   0  0  0  0  0  0  0  0  0  0  0  0
   21.3360  -13.0066  -19.5403 C   0  0  0  0  0  0  0  0  0  0  0  0
   21.2484  -11.5661  -19.9904 C   0  0  0  0  0  0  0  0  0  0  0  0
   21.9126  -10.7864  -18.9524 C   0  0  1  0  0  0  0  0  0  0  0  0
   21.4165   -9.4760  -18.5894 C   0  0  0  0  0  0  0  0  0  0  0  0
   21.5467   -8.5316  -19.4110 O   0  0  0  0  0  0  0  0  0  0  0  0
   18.4457   -6.1751  -18.2573 N   0  0  0  0  0  0  0  0  0  0  0  0
   17.9654   -7.0004  -17.2165 C   0  0  0  0  0  0  0  0  0  0  0  0
   16.7630   -6.9553  -16.9041 O   0  0  0  0  0  0  0  0  0  0  0  0
   18.8823   -7.9057  -16.5093 C   0  0  0  0  0  0  0  0  0  0  0  0
   20.3063   -7.8592  -17.0070 C   0  0  2  0  0  0  0  0  0  0  0  0
   20.7785   -9.1606  -17.3516 N   0  0  0  0  0  0  0  0  0  0  0  0
   21.1922   -7.1425  -16.0363 C   0  0  0  0  0  0  0  0  0  0  0  0
   21.4882   -7.7022  -14.9522 O   0  0  0  0  0  0  0  0  0  0  0  0
   24.4913   -3.4241  -18.2242 N   0  0  0  0  0  0  0  0  0  0  0  0
   24.1784   -4.3380  -17.1882 C   0  0  0  0  0  0  0  0  0  0  0  0
   24.7464   -5.4491  -17.1790 O   0  0  0  0  0  0  0  0  0  0  0  0
   23.2007   -3.9644  -16.1524 C   0  0  0  0  0  0  0  0  0  0  0  0
   22.5373   -5.1064  -15.4611 C   0  0  2  0  0  0  0  0  0  0  0  0
   21.6818   -5.8516  -16.3480 N   0  0  0  0  0  0  0  0  0  0  0  0
   21.7950   -4.7346  -14.2282 C   0  0  0  0  0  0  0  0  0  0  0  0
   20.6296   -4.2789  -14.2271 O   0  0  0  0  0  0  0  0  0  0  0  0
   22.4136   -4.8931  -13.0016 O   0  0  0  0  0  0  0  0  0  0  0  0
  1  5  1  0
  1  2  1  0
  2  3  1  0
  4  3  1  0
  5  4  1  0
  6 13  1  0
  5  6  1  1
  7  6  2  0
  8  9  1  0
  9 11  1  0
 10  9  2  0
 12 11  1  1
 12 13  1  0
 14 12  1  0
 15 14  2  0
 16 17  1  0
 17 19  1  0
 17 18  2  0
 20 19  1  6
 20 22  1  0
 20 21  1  0
 21 14  1  0
 22 24  1  0
 23 22  2  0
M  END
$$$$
