PNN.pdb
     RDKit          3D

 24 24  0  0  1  0  0  0  0  0999 V2000
   23.3858  -22.3759  -13.1252 N   0  0  0  0  0  0  0  0  0  0  0  0
   24.7636  -21.9325  -13.2451 C   0  0  0  0  0  0  0  0  0  0  0  0
   25.2606  -22.7035  -14.4444 C   0  0  0  0  0  0  0  0  0  0  0  0
   24.0415  -22.8576  -15.3251 C   0  0  0  0  0  0  0  0  0  0  0  0
   22.9119  -22.4108  -14.5184 C   0  0  1  0  0  0  0  0  0  0  0  0
   21.6261  -23.0656  -14.6311 C   0  0  0  0  0  0  0  0  0  0  0  0
   20.9509  -22.8955  -15.6794 O   0  0  0  0  0  0  0  0  0  0  0  0
   20.3147  -27.8678  -14.5306 N   0  0  0  0  0  0  0  0  0  0  0  0
   20.7588  -26.5947  -14.9511 C   0  0  0  0  0  0  0  0  0  0  0  0
   21.9507  -26.4346  -15.2656 O   0  0  0  0  0  0  0  0  0  0  0  0
   19.8166  -25.4685  -15.0162 C   0  0  0  0  0  0  0  0  0  0  0  0
   19.8093  -24.5941  -13.7860 C   0  0  2  0  0  0  0  0  0  0  0  0
   21.0494  -23.9059  -13.6310 N   0  0  0  0  0  0  0  0  0  0  0  0
   19.4063  -25.3745  -12.5738 C   0  0  0  0  0  0  0  0  0  0  0  0
   20.1298  -26.3272  -12.1932 O   0  0  0  0  0  0  0  0  0  0  0  0
   18.4375  -24.5728   -7.6568 N   0  0  0  0  0  0  0  0  0  0  0  0
   19.5327  -24.1615   -8.4556 C   0  0  0  0  0  0  0  0  0  0  0  0
   20.5428  -23.6947   -7.8909 O   0  0  0  0  0  0  0  0  0  0  0  0
   19.4604  -24.2914   -9.9206 C   0  0  0  0  0  0  0  0  0  0  0  0
   18.1838  -24.8519  -10.4483 C   0  0  2  0  0  0  0  0  0  0  0  0
   18.2230  -25.0335  -11.8763 N   0  0  0  0  0  0  0  0  0  0  0  0
   16.9684  -24.0877  -10.0637 C   0  0  0  0  0  0  0  0  0  0  0  0
   16.7018  -22.9418  -10.4900 O   0  0  0  0  0  0  0  0  0  0  0  0
   16.0694  -24.6601   -9.1826 O   0  0  0  0  0  0  0  0  0  0  0  0
  1  5  1  0
  1  2  1  0
  2  3  1  0
  4  3  1  0
  5  4  1  0
  6 13  1  0
  5  6  1  1
  7  6  2  0
  8  9  1  0
  9 11  1  0
 10  9  2  0
 12 11  1  6
 12 13  1  0
 14 12  1  0
 15 14  2  0
 16 17  1  0
 17 19  1  0
 17 18  2  0
 20 19  1  6
 20 22  1  0
 20 21  1  0
 21 14  1  0
 22 24  1  0
 23 22  2  0
M  END
$$$$
