EMQ.pdb
     RDKit          3D

 27 26  0  0  1  0  0  0  0  0999 V2000
   20.6504  -11.8770  -17.8920 N   0  0  0  0  0  0  0  0  0  0  0  0
   19.9705  -11.6360  -16.6618 C   0  0  1  0  0  0  0  0  0  0  0  0
   19.4490  -12.8325  -15.9567 C   0  0  0  0  0  0  0  0  0  0  0  0
   18.6865  -13.7990  -16.8008 C   0  0  0  0  0  0  0  0  0  0  0  0
   18.1845  -15.0047  -16.1401 C   0  0  0  0  0  0  0  0  0  0  0  0
   18.6612  -16.1482  -16.3174 O   0  0  0  0  0  0  0  0  0  0  0  0
   20.8667  -10.8377  -15.7587 C   0  0  0  0  0  0  0  0  0  0  0  0
   20.5217  -10.5897  -14.5917 O   0  0  0  0  0  0  0  0  0  0  0  0
   17.0940  -14.9317  -15.2342 O   0  0  0  0  0  0  0  0  0  0  0  0
   26.8737  -13.4290  -15.1545 C   0  0  0  0  0  0  0  0  0  0  0  0
   26.4760  -11.7050  -15.5109 S   0  0  0  0  0  0  0  0  0  0  0  0
   24.6982  -11.3823  -15.2262 C   0  0  0  0  0  0  0  0  0  0  0  0
   24.4077   -9.9316  -15.4998 C   0  0  0  0  0  0  0  0  0  0  0  0
   22.9697   -9.5643  -15.4160 C   0  0  2  0  0  0  0  0  0  0  0  0
   22.1076  -10.3664  -16.2384 N   0  0  0  0  0  0  0  0  0  0  0  0
   22.7113   -8.1050  -15.5846 C   0  0  0  0  0  0  0  0  0  0  0  0
   22.5625   -7.5761  -16.7385 O   0  0  0  0  0  0  0  0  0  0  0  0
   18.7479   -4.7812  -17.2019 N   0  0  0  0  0  0  0  0  0  0  0  0
   18.9681   -4.3795  -15.8659 C   0  0  0  0  0  0  0  0  0  0  0  0
   18.0096   -4.0837  -15.1213 O   0  0  0  0  0  0  0  0  0  0  0  0
   20.3849   -4.3145  -15.3542 C   0  0  0  0  0  0  0  0  0  0  0  0
   20.9336   -5.6934  -15.1755 C   0  0  0  0  0  0  0  0  0  0  0  0
   22.3057   -5.7896  -14.6085 C   0  0  2  0  0  0  0  0  0  0  0  0
   22.6152   -7.2220  -14.4880 N   0  0  0  0  0  0  0  0  0  0  0  0
   22.4229   -5.1034  -13.3304 C   0  0  0  0  0  0  0  0  0  0  0  0
   22.4017   -5.7422  -12.2574 O   0  0  0  0  0  0  0  0  0  0  0  0
   22.5609   -3.7090  -13.3049 O   0  0  0  0  0  0  0  0  0  0  0  0
  2  1  1  6
  2  3  1  0
  4  3  1  0
  5  4  1  0
  5  6  2  0
  7  2  1  0
  8  7  2  0
  9  5  1  0
 11 10  1  0
 11 12  1  0
 12 13  1  0
 14 13  1  6
 14 15  1  0
 15  7  1  0
 16 24  1  0
 16 14  1  0
 17 16  2  0
 19 18  1  0
 19 21  1  0
 20 19  2  0
 22 21  1  0
 23 22  1  1
 23 24  1  0
 25 27  1  0
 25 23  1  0
 26 25  2  0
M  END
$$$$
