EMQ.pdb
     RDKit          3D

 27 26  0  0  1  0  0  0  0  0999 V2000
   28.3206  -20.7812  -15.8348 N   0  0  0  0  0  0  0  0  0  0  0  0
   28.2862  -19.9271  -14.6933 C   0  0  1  0  0  0  0  0  0  0  0  0
   27.8942  -18.5180  -14.9414 C   0  0  0  0  0  0  0  0  0  0  0  0
   26.9842  -18.2953  -16.1035 C   0  0  0  0  0  0  0  0  0  0  0  0
   27.6057  -18.2082  -17.4257 C   0  0  0  0  0  0  0  0  0  0  0  0
   28.5929  -17.4848  -17.6872 O   0  0  0  0  0  0  0  0  0  0  0  0
   27.4027  -20.5466  -13.6484 C   0  0  0  0  0  0  0  0  0  0  0  0
   26.6119  -21.4544  -13.9532 O   0  0  0  0  0  0  0  0  0  0  0  0
   27.1002  -18.9674  -18.5135 O   0  0  0  0  0  0  0  0  0  0  0  0
   25.2975  -20.5291   -5.9596 C   0  0  0  0  0  0  0  0  0  0  0  0
   26.4480  -19.9962   -7.2441 S   0  0  0  0  0  0  0  0  0  0  0  0
   25.8954  -20.5819   -8.8864 C   0  0  0  0  0  0  0  0  0  0  0  0
   26.8730  -20.1191   -9.9324 C   0  0  0  0  0  0  0  0  0  0  0  0
   26.5776  -20.5994  -11.3079 C   0  0  2  0  0  0  0  0  0  0  0  0
   27.4711  -20.0950  -12.3130 N   0  0  0  0  0  0  0  0  0  0  0  0
   25.1464  -20.4525  -11.7015 C   0  0  0  0  0  0  0  0  0  0  0  0
   24.6242  -19.3083  -11.9285 O   0  0  0  0  0  0  0  0  0  0  0  0
   22.7157  -25.2395  -14.4945 N   0  0  0  0  0  0  0  0  0  0  0  0
   21.5319  -24.4702  -14.5349 C   0  0  0  0  0  0  0  0  0  0  0  0
   20.5013  -24.9118  -15.0858 O   0  0  0  0  0  0  0  0  0  0  0  0
   21.5355  -23.1031  -13.8990 C   0  0  0  0  0  0  0  0  0  0  0  0
   22.8508  -22.8443  -13.2377 C   0  0  0  0  0  0  0  0  0  0  0  0
   23.0084  -21.5205  -12.5771 C   0  0  2  0  0  0  0  0  0  0  0  0
   24.2843  -21.5602  -11.8472 N   0  0  0  0  0  0  0  0  0  0  0  0
   21.8928  -21.2083  -11.6961 C   0  0  0  0  0  0  0  0  0  0  0  0
   21.9799  -21.3934  -10.4641 O   0  0  0  0  0  0  0  0  0  0  0  0
   20.7072  -20.6940  -12.2382 O   0  0  0  0  0  0  0  0  0  0  0  0
  2  1  1  6
  2  3  1  0
  4  3  1  0
  5  4  1  0
  5  6  2  0
  7  2  1  0
  8  7  2  0
  9  5  1  0
 11 10  1  0
 11 12  1  0
 12 13  1  0
 14 13  1  1
 14 15  1  0
 15  7  1  0
 16 24  1  0
 16 14  1  0
 17 16  2  0
 19 18  1  0
 19 21  1  0
 20 19  2  0
 22 21  1  0
 23 22  1  1
 23 24  1  0
 25 27  1  0
 25 23  1  0
 26 25  2  0
M  END
$$$$
