EMQ.pdb
     RDKit          3D

 27 26  0  0  1  0  0  0  0  0999 V2000
   28.0250  -21.1010  -15.0498 N   0  0  0  0  0  0  0  0  0  0  0  0
   27.6150  -20.1426  -14.0766 C   0  0  1  0  0  0  0  0  0  0  0  0
   27.1941  -18.8191  -14.5978 C   0  0  0  0  0  0  0  0  0  0  0  0
   28.2146  -18.0881  -15.4055 C   0  0  0  0  0  0  0  0  0  0  0  0
   27.7964  -17.6038  -16.7217 C   0  0  0  0  0  0  0  0  0  0  0  0
   26.9814  -16.6701  -16.8959 O   0  0  0  0  0  0  0  0  0  0  0  0
   26.5339  -20.7452  -13.2257 C   0  0  0  0  0  0  0  0  0  0  0  0
   25.8359  -21.6747  -13.6629 O   0  0  0  0  0  0  0  0  0  0  0  0
   28.3139  -18.1911  -17.9060 O   0  0  0  0  0  0  0  0  0  0  0  0
   28.3155  -20.5418   -6.6164 C   0  0  0  0  0  0  0  0  0  0  0  0
   26.6976  -20.2098   -7.3440 S   0  0  0  0  0  0  0  0  0  0  0  0
   26.6423  -20.7840   -9.0798 C   0  0  0  0  0  0  0  0  0  0  0  0
   25.3155  -20.4109   -9.6833 C   0  0  0  0  0  0  0  0  0  0  0  0
   25.1949  -20.7029  -11.1359 C   0  0  2  0  0  0  0  0  0  0  0  0
   26.3094  -20.2527  -11.9221 N   0  0  0  0  0  0  0  0  0  0  0  0
   23.8875  -20.2924  -11.7250 C   0  0  0  0  0  0  0  0  0  0  0  0
   23.6208  -19.0704  -11.9873 O   0  0  0  0  0  0  0  0  0  0  0  0
   21.1029  -22.0654  -17.0551 N   0  0  0  0  0  0  0  0  0  0  0  0
   22.1799  -21.5504  -16.3004 C   0  0  0  0  0  0  0  0  0  0  0  0
   23.3610  -21.8147  -16.6097 O   0  0  0  0  0  0  0  0  0  0  0  0
   21.8765  -20.6736  -15.1119 C   0  0  0  0  0  0  0  0  0  0  0  0
   21.4879  -21.5120  -13.9370 C   0  0  0  0  0  0  0  0  0  0  0  0
   21.5663  -20.8567  -12.6036 C   0  0  2  0  0  0  0  0  0  0  0  0
   22.8693  -21.2214  -12.0280 N   0  0  0  0  0  0  0  0  0  0  0  0
   20.4654  -21.2439  -11.7340 C   0  0  0  0  0  0  0  0  0  0  0  0
   20.6658  -21.9543  -10.7266 O   0  0  0  0  0  0  0  0  0  0  0  0
   19.1653  -20.8137  -12.0319 O   0  0  0  0  0  0  0  0  0  0  0  0
  2  1  1  6
  2  3  1  0
  4  3  1  0
  5  4  1  0
  5  6  2  0
  7  2  1  0
  8  7  2  0
  9  5  1  0
 11 10  1  0
 11 12  1  0
 12 13  1  0
 14 13  1  1
 14 15  1  0
 15  7  1  0
 16 24  1  0
 16 14  1  0
 17 16  2  0
 19 18  1  0
 19 21  1  0
 20 19  2  0
 22 21  1  0
 23 22  1  6
 23 24  1  0
 25 27  1  0
 25 23  1  0
 26 25  2  0
M  END
$$$$
