EMQ.pdb
     RDKit          3D

 27 26  0  0  1  0  0  0  0  0999 V2000
   28.2292  -21.9175  -15.5449 N   0  0  0  0  0  0  0  0  0  0  0  0
   28.0962  -20.8523  -14.6061 C   0  0  1  0  0  0  0  0  0  0  0  0
   27.8351  -19.5073  -15.1747 C   0  0  0  0  0  0  0  0  0  0  0  0
   27.6175  -19.4606  -16.6507 C   0  0  0  0  0  0  0  0  0  0  0  0
   26.2718  -19.7745  -17.1331 C   0  0  0  0  0  0  0  0  0  0  0  0
   26.0378  -20.4174  -18.1811 O   0  0  0  0  0  0  0  0  0  0  0  0
   27.0400  -21.2173  -13.6025 C   0  0  0  0  0  0  0  0  0  0  0  0
   26.0465  -21.8773  -13.9487 O   0  0  0  0  0  0  0  0  0  0  0  0
   25.1270  -19.3496  -16.4093 O   0  0  0  0  0  0  0  0  0  0  0  0
   27.6860  -20.7047   -7.0728 C   0  0  0  0  0  0  0  0  0  0  0  0
   25.9328  -20.3207   -7.2627 S   0  0  0  0  0  0  0  0  0  0  0  0
   25.3446  -20.8032   -8.9262 C   0  0  0  0  0  0  0  0  0  0  0  0
   26.4502  -20.5891   -9.9241 C   0  0  0  0  0  0  0  0  0  0  0  0
   26.0953  -20.9451  -11.3231 C   0  0  2  0  0  0  0  0  0  0  0  0
   27.1766  -20.8082  -12.2586 N   0  0  0  0  0  0  0  0  0  0  0  0
   24.8439  -20.2955  -11.8097 C   0  0  0  0  0  0  0  0  0  0  0  0
   24.8680  -19.3229  -12.6384 O   0  0  0  0  0  0  0  0  0  0  0  0
   22.9422  -22.6522  -15.7255 N   0  0  0  0  0  0  0  0  0  0  0  0
   21.6466  -22.1062  -15.5906 C   0  0  0  0  0  0  0  0  0  0  0  0
   20.7799  -22.2927  -16.4707 O   0  0  0  0  0  0  0  0  0  0  0  0
   21.3288  -21.2926  -14.3617 C   0  0  0  0  0  0  0  0  0  0  0  0
   22.5072  -21.2632  -13.4425 C   0  0  0  0  0  0  0  0  0  0  0  0
   22.3336  -20.5111  -12.1705 C   0  0  2  0  0  0  0  0  0  0  0  0
   23.5627  -20.7111  -11.3886 N   0  0  0  0  0  0  0  0  0  0  0  0
   21.1518  -20.9373  -11.4356 C   0  0  0  0  0  0  0  0  0  0  0  0
   21.2586  -21.5905  -10.3765 O   0  0  0  0  0  0  0  0  0  0  0  0
   19.8795  -20.6099  -11.9234 O   0  0  0  0  0  0  0  0  0  0  0  0
  2  1  1  6
  2  3  1  0
  4  3  1  0
  5  4  1  0
  5  6  2  0
  7  2  1  0
  8  7  2  0
  9  5  1  0
 11 10  1  0
 11 12  1  0
 12 13  1  0
 14 13  1  1
 14 15  1  0
 15  7  1  0
 16 24  1  0
 16 14  1  0
 17 16  2  0
 19 18  1  0
 19 21  1  0
 20 19  2  0
 22 21  1  0
 23 22  1  6
 23 24  1  0
 25 27  1  0
 25 23  1  0
 26 25  2  0
M  END
$$$$
