EMQ.pdb
     RDKit          3D

 27 26  0  0  1  0  0  0  0  0999 V2000
   25.5794  -21.7923  -11.8216 N   0  0  0  0  0  0  0  0  0  0  0  0
   24.4329  -20.9494  -11.9157 C   0  0  1  0  0  0  0  0  0  0  0  0
   24.0775  -20.1886  -10.6928 C   0  0  0  0  0  0  0  0  0  0  0  0
   25.2280  -19.7302   -9.8595 C   0  0  0  0  0  0  0  0  0  0  0  0
   25.7517  -20.6766   -8.8735 C   0  0  0  0  0  0  0  0  0  0  0  0
   25.2542  -21.8038   -8.6543 O   0  0  0  0  0  0  0  0  0  0  0  0
   24.6051  -20.0224  -13.0849 C   0  0  0  0  0  0  0  0  0  0  0  0
   23.6787  -19.2719  -13.4326 O   0  0  0  0  0  0  0  0  0  0  0  0
   26.8899  -20.3492   -8.0908 O   0  0  0  0  0  0  0  0  0  0  0  0
   29.6620  -16.6167  -18.1583 C   0  0  0  0  0  0  0  0  0  0  0  0
   29.3743  -17.5370  -16.6327 S   0  0  0  0  0  0  0  0  0  0  0  0
   27.5980  -17.9307  -16.4438 C   0  0  0  0  0  0  0  0  0  0  0  0
   27.4030  -18.7579  -15.2021 C   0  0  0  0  0  0  0  0  0  0  0  0
   25.9998  -19.1847  -14.9597 C   0  0  2  0  0  0  0  0  0  0  0  0
   25.8261  -20.0038  -13.7927 N   0  0  0  0  0  0  0  0  0  0  0  0
   25.3323  -19.7659  -16.1604 C   0  0  0  0  0  0  0  0  0  0  0  0
   25.3536  -19.1767  -17.2943 O   0  0  0  0  0  0  0  0  0  0  0  0
   26.5895  -25.3736  -16.2670 N   0  0  0  0  0  0  0  0  0  0  0  0
   25.8131  -25.4848  -17.4416 C   0  0  0  0  0  0  0  0  0  0  0  0
   25.7928  -26.5488  -18.0958 O   0  0  0  0  0  0  0  0  0  0  0  0
   25.0074  -24.2925  -17.8917 C   0  0  0  0  0  0  0  0  0  0  0  0
   25.1802  -23.1599  -16.9317 C   0  0  0  0  0  0  0  0  0  0  0  0
   24.4845  -21.8906  -17.2761 C   0  0  2  0  0  0  0  0  0  0  0  0
   24.6400  -20.9949  -16.1204 N   0  0  0  0  0  0  0  0  0  0  0  0
   23.0837  -22.1031  -17.6089 C   0  0  0  0  0  0  0  0  0  0  0  0
   22.7246  -22.2567  -18.7951 O   0  0  0  0  0  0  0  0  0  0  0  0
   22.1274  -22.1355  -16.5849 O   0  0  0  0  0  0  0  0  0  0  0  0
  2  1  1  1
  2  3  1  0
  4  3  1  0
  5  4  1  0
  5  6  2  0
  7  2  1  0
  8  7  2  0
  9  5  1  0
 11 10  1  0
 11 12  1  0
 12 13  1  0
 14 13  1  6
 14 15  1  0
 15  7  1  0
 16 24  1  0
 16 14  1  0
 17 16  2  0
 19 18  1  0
 19 21  1  0
 20 19  2  0
 22 21  1  0
 23 22  1  1
 23 24  1  0
 25 27  1  0
 25 23  1  0
 26 25  2  0
M  END
$$$$
