EMQ.pdb
     RDKit          3D

 27 26  0  0  1  0  0  0  0  0999 V2000
   27.7424  -21.4993  -15.6004 N   0  0  0  0  0  0  0  0  0  0  0  0
   27.4305  -20.4807  -14.6522 C   0  0  1  0  0  0  0  0  0  0  0  0
   27.0023  -19.1750  -15.2109 C   0  0  0  0  0  0  0  0  0  0  0  0
   28.0323  -18.4428  -16.0053 C   0  0  0  0  0  0  0  0  0  0  0  0
   28.5269  -19.0996  -17.2161 C   0  0  0  0  0  0  0  0  0  0  0  0
   27.7996  -19.4244  -18.1813 O   0  0  0  0  0  0  0  0  0  0  0  0
   26.4034  -21.0083  -13.6915 C   0  0  0  0  0  0  0  0  0  0  0  0
   25.6296  -21.9165  -14.0362 O   0  0  0  0  0  0  0  0  0  0  0  0
   29.9047  -19.4106  -17.3584 O   0  0  0  0  0  0  0  0  0  0  0  0
   28.5318  -20.7304   -7.1765 C   0  0  0  0  0  0  0  0  0  0  0  0
   26.8983  -20.3097   -7.8184 S   0  0  0  0  0  0  0  0  0  0  0  0
   26.6768  -20.9816   -9.5052 C   0  0  0  0  0  0  0  0  0  0  0  0
   25.4209  -20.4104  -10.1054 C   0  0  0  0  0  0  0  0  0  0  0  0
   25.2030  -20.7649  -11.5325 C   0  0  2  0  0  0  0  0  0  0  0  0
   26.3167  -20.4694  -12.3899 N   0  0  0  0  0  0  0  0  0  0  0  0
   23.9146  -20.2581  -12.0877 C   0  0  0  0  0  0  0  0  0  0  0  0
   23.8654  -19.2294  -12.8444 O   0  0  0  0  0  0  0  0  0  0  0  0
   22.4457  -19.9221  -16.2398 N   0  0  0  0  0  0  0  0  0  0  0  0
   21.2249  -20.6322  -16.2587 C   0  0  0  0  0  0  0  0  0  0  0  0
   20.4695  -20.5780  -17.2522 O   0  0  0  0  0  0  0  0  0  0  0  0
   20.8501  -21.4588  -15.0547 C   0  0  0  0  0  0  0  0  0  0  0  0
   21.9154  -21.3633  -14.0104 C   0  0  0  0  0  0  0  0  0  0  0  0
   21.5033  -20.7994  -12.6968 C   0  0  2  0  0  0  0  0  0  0  0  0
   22.6769  -20.8786  -11.8145 N   0  0  0  0  0  0  0  0  0  0  0  0
   20.3571  -21.4969  -12.1331 C   0  0  0  0  0  0  0  0  0  0  0  0
   20.4551  -22.6811  -11.7484 O   0  0  0  0  0  0  0  0  0  0  0  0
   19.1292  -20.8307  -12.0214 O   0  0  0  0  0  0  0  0  0  0  0  0
  2  1  1  6
  2  3  1  0
  4  3  1  0
  5  4  1  0
  5  6  2  0
  7  2  1  0
  8  7  2  0
  9  5  1  0
 11 10  1  0
 11 12  1  0
 12 13  1  0
 14 13  1  1
 14 15  1  0
 15  7  1  0
 16 24  1  0
 16 14  1  0
 17 16  2  0
 19 18  1  0
 19 21  1  0
 20 19  2  0
 22 21  1  0
 23 22  1  6
 23 24  1  0
 25 27  1  0
 25 23  1  0
 26 25  2  0
M  END
$$$$
