HCF.pdb
     RDKit          3D

 28 29  0  0  1  0  0  0  0  0999 V2000
   21.8783  -20.5022  -13.9878 N   0  0  0  0  0  0  0  0  0  0  0  0
   22.5182  -19.7409  -12.9666 C   0  0  1  0  0  0  0  0  0  0  0  0
   21.5698  -18.8351  -12.2181 C   0  0  0  0  0  0  0  0  0  0  0  0
   21.0725  -17.8051  -13.1530 C   0  0  0  0  0  0  0  0  0  0  0  0
   21.8359  -17.2431  -14.1790 C   0  0  0  0  0  0  0  0  0  0  0  0
   21.0397  -16.3462  -14.8120 N   0  0  0  0  0  0  0  0  0  0  0  0
   19.8405  -16.3333  -14.2291 C   0  0  0  0  0  0  0  0  0  0  0  0
   19.8837  -17.2209  -13.2313 N   0  0  0  0  0  0  0  0  0  0  0  0
   23.2565  -20.5737  -11.9892 C   0  0  0  0  0  0  0  0  0  0  0  0
   22.6917  -21.4118  -11.2420 O   0  0  0  0  0  0  0  0  0  0  0  0
   24.6641  -20.4197  -11.8904 N   0  0  0  0  0  0  0  0  0  0  0  0
   25.4068  -21.3338  -11.0442 C   0  0  1  0  0  0  0  0  0  0  0  0
   26.4487  -22.1109  -11.8128 C   0  0  0  0  0  0  0  0  0  0  0  0
   25.7185  -22.9766  -13.2280 S   0  0  0  0  0  0  0  0  0  0  0  0
   26.1299  -20.5270  -10.0219 C   0  0  0  0  0  0  0  0  0  0  0  0
   26.1855  -19.2710  -10.0656 O   0  0  0  0  0  0  0  0  0  0  0  0
   26.7933  -21.1678   -8.9425 N   0  0  0  0  0  0  0  0  0  0  0  0
   27.7732  -20.4347   -8.1679 C   0  0  1  0  0  0  0  0  0  0  0  0
   27.0335  -19.3384   -7.4478 C   0  0  0  0  0  0  0  0  0  0  0  0
   27.5279  -19.0567   -6.0996 C   0  0  0  0  0  0  0  0  0  0  0  0
   27.5596  -19.9797   -5.0796 C   0  0  0  0  0  0  0  0  0  0  0  0
   28.0319  -19.6622   -3.8444 C   0  0  0  0  0  0  0  0  0  0  0  0
   28.5011  -18.3857   -3.5714 C   0  0  0  0  0  0  0  0  0  0  0  0
   28.4785  -17.4521   -4.5725 C   0  0  0  0  0  0  0  0  0  0  0  0
   27.9955  -17.7889   -5.8234 C   0  0  0  0  0  0  0  0  0  0  0  0
   28.5110  -21.3438   -7.2816 C   0  0  0  0  0  0  0  0  0  0  0  0
   28.0062  -22.4568   -6.9930 O   0  0  0  0  0  0  0  0  0  0  0  0
   29.7497  -21.0407   -6.7376 O   0  0  0  0  0  0  0  0  0  0  0  0
  2  1  1  6
  3  4  1  0
  3  2  1  0
  4  5  2  0
  5  6  1  0
  7  6  1  0
  8  4  1  0
  8  7  2  0
  9  2  1  0
  9 10  2  0
 11  9  1  0
 12 11  1  0
 12 15  1  0
 12 13  1  6
 14 13  1  0
 15 17  1  0
 16 15  2  0
 17 18  1  0
 18 26  1  0
 19 20  1  0
 18 19  1  1
 20 25  1  0
 21 20  2  0
 21 22  1  0
 22 23  2  0
 23 24  1  0
 25 24  2  0
 26 27  2  0
 26 28  1  0
M  END
$$$$
