HCF.pdb
     RDKit          3D

 28 29  0  0  1  0  0  0  0  0999 V2000
   38.0890  -32.9774  -20.6753 N   0  0  0  0  0  0  0  0  0  0  0  0
   36.7951  -33.0534  -20.0819 C   0  0  1  0  0  0  0  0  0  0  0  0
   36.5504  -34.3537  -19.3544 C   0  0  0  0  0  0  0  0  0  0  0  0
   36.4813  -35.4410  -20.3522 C   0  0  0  0  0  0  0  0  0  0  0  0
   35.4250  -35.6159  -21.2493 C   0  0  0  0  0  0  0  0  0  0  0  0
   35.7222  -36.7093  -21.9943 N   0  0  0  0  0  0  0  0  0  0  0  0
   36.8956  -37.2053  -21.6002 C   0  0  0  0  0  0  0  0  0  0  0  0
   37.3345  -36.4241  -20.6090 N   0  0  0  0  0  0  0  0  0  0  0  0
   36.5040  -31.9286  -19.1631 C   0  0  0  0  0  0  0  0  0  0  0  0
   37.3683  -31.0802  -18.8272 O   0  0  0  0  0  0  0  0  0  0  0  0
   35.1916  -31.8018  -18.6375 N   0  0  0  0  0  0  0  0  0  0  0  0
   34.8469  -30.5963  -17.9087 C   0  0  1  0  0  0  0  0  0  0  0  0
   34.8533  -29.3701  -18.7899 C   0  0  0  0  0  0  0  0  0  0  0  0
   34.3622  -27.8892  -17.8672 S   0  0  0  0  0  0  0  0  0  0  0  0
   33.4592  -30.7547  -17.3910 C   0  0  0  0  0  0  0  0  0  0  0  0
   32.8628  -29.8429  -16.7621 O   0  0  0  0  0  0  0  0  0  0  0  0
   32.7523  -31.9686  -17.5974 N   0  0  0  0  0  0  0  0  0  0  0  0
   31.4318  -32.1340  -17.0261 C   0  0  1  0  0  0  0  0  0  0  0  0
   30.5889  -30.9921  -17.5294 C   0  0  0  0  0  0  0  0  0  0  0  0
   29.1587  -31.1240  -17.2489 C   0  0  0  0  0  0  0  0  0  0  0  0
   28.5461  -30.6429  -16.1147 C   0  0  0  0  0  0  0  0  0  0  0  0
   27.2104  -30.7932  -15.9068 C   0  0  0  0  0  0  0  0  0  0  0  0
   26.4162  -31.4423  -16.8405 C   0  0  0  0  0  0  0  0  0  0  0  0
   27.0060  -31.9286  -17.9764 C   0  0  0  0  0  0  0  0  0  0  0  0
   28.3650  -31.7686  -18.1746 C   0  0  0  0  0  0  0  0  0  0  0  0
   30.8964  -33.4630  -17.3480 C   0  0  0  0  0  0  0  0  0  0  0  0
   30.0065  -33.9563  -16.6120 O   0  0  0  0  0  0  0  0  0  0  0  0
   31.3221  -34.2151  -18.4321 O   0  0  0  0  0  0  0  0  0  0  0  0
  2  1  1  1
  3  4  1  0
  3  2  1  0
  4  5  2  0
  5  6  1  0
  7  6  1  0
  8  4  1  0
  8  7  2  0
  9  2  1  0
  9 10  2  0
 11  9  1  0
 12 11  1  0
 12 15  1  0
 12 13  1  6
 14 13  1  0
 15 17  1  0
 16 15  2  0
 17 18  1  0
 18 26  1  0
 19 20  1  0
 18 19  1  6
 20 25  1  0
 21 20  2  0
 21 22  1  0
 22 23  2  0
 23 24  1  0
 25 24  2  0
 26 27  2  0
 26 28  1  0
M  END
$$$$
