HCF.pdb
     RDKit          3D

 28 29  0  0  1  0  0  0  0  0999 V2000
   21.0941  -18.2661  -16.7625 N   0  0  0  0  0  0  0  0  0  0  0  0
   22.2227  -17.7372  -16.0708 C   0  0  1  0  0  0  0  0  0  0  0  0
   21.8561  -17.0336  -14.7860 C   0  0  0  0  0  0  0  0  0  0  0  0
   20.8821  -15.9679  -15.0989 C   0  0  0  0  0  0  0  0  0  0  0  0
   21.1393  -14.8988  -15.9603 C   0  0  0  0  0  0  0  0  0  0  0  0
   20.0145  -14.1420  -15.9904 N   0  0  0  0  0  0  0  0  0  0  0  0
   19.0930  -14.6906  -15.1980 C   0  0  0  0  0  0  0  0  0  0  0  0
   19.6387  -15.7907  -14.6711 N   0  0  0  0  0  0  0  0  0  0  0  0
   23.2620  -18.7521  -15.7812 C   0  0  0  0  0  0  0  0  0  0  0  0
   22.9926  -19.9009  -15.3483 O   0  0  0  0  0  0  0  0  0  0  0  0
   24.6229  -18.4141  -16.0014 N   0  0  0  0  0  0  0  0  0  0  0  0
   25.6356  -19.4306  -15.7911 C   0  0  1  0  0  0  0  0  0  0  0  0
   26.7371  -19.3668  -16.8221 C   0  0  0  0  0  0  0  0  0  0  0  0
   27.7345  -17.8651  -16.6331 S   0  0  0  0  0  0  0  0  0  0  0  0
   26.2650  -19.1830  -14.4639 C   0  0  0  0  0  0  0  0  0  0  0  0
   26.5200  -18.0261  -14.0406 O   0  0  0  0  0  0  0  0  0  0  0  0
   26.6033  -20.2718  -13.6178 N   0  0  0  0  0  0  0  0  0  0  0  0
   27.2589  -20.0176  -12.3516 C   0  0  1  0  0  0  0  0  0  0  0  0
   26.3789  -19.0667  -11.5841 C   0  0  0  0  0  0  0  0  0  0  0  0
   25.1989  -19.6859  -10.9794 C   0  0  0  0  0  0  0  0  0  0  0  0
   24.0056  -19.8798  -11.6364 C   0  0  0  0  0  0  0  0  0  0  0  0
   22.9404  -20.4629  -11.0239 C   0  0  0  0  0  0  0  0  0  0  0  0
   23.0243  -20.8844   -9.7050 C   0  0  0  0  0  0  0  0  0  0  0  0
   24.2029  -20.7008   -9.0329 C   0  0  0  0  0  0  0  0  0  0  0  0
   25.2776  -20.1066   -9.6682 C   0  0  0  0  0  0  0  0  0  0  0  0
   27.5320  -21.2799  -11.6528 C   0  0  0  0  0  0  0  0  0  0  0  0
   28.2234  -21.2593  -10.6048 O   0  0  0  0  0  0  0  0  0  0  0  0
   27.0643  -22.5101  -12.0888 O   0  0  0  0  0  0  0  0  0  0  0  0
  2  1  1  1
  3  4  1  0
  3  2  1  0
  4  5  2  0
  5  6  1  0
  7  6  1  0
  8  4  1  0
  8  7  2  0
  9  2  1  0
  9 10  2  0
 11  9  1  0
 12 11  1  0
 12 15  1  0
 12 13  1  6
 14 13  1  0
 15 17  1  0
 16 15  2  0
 17 18  1  0
 18 26  1  0
 19 20  1  0
 18 19  1  1
 20 25  1  0
 21 20  2  0
 21 22  1  0
 22 23  2  0
 23 24  1  0
 25 24  2  0
 26 27  2  0
 26 28  1  0
M  END
$$$$
