HCF.pdb
     RDKit          3D

 28 29  0  0  1  0  0  0  0  0999 V2000
   32.6557  -34.9176  -15.8468 N   0  0  0  0  0  0  0  0  0  0  0  0
   31.2380  -34.7686  -15.8335 C   0  0  1  0  0  0  0  0  0  0  0  0
   30.5719  -35.5220  -14.7072 C   0  0  0  0  0  0  0  0  0  0  0  0
   30.6676  -36.9683  -14.9921 C   0  0  0  0  0  0  0  0  0  0  0  0
   30.3907  -37.5427  -16.2349 C   0  0  0  0  0  0  0  0  0  0  0  0
   30.5896  -38.8774  -16.1015 N   0  0  0  0  0  0  0  0  0  0  0  0
   30.9703  -39.1434  -14.8516 C   0  0  0  0  0  0  0  0  0  0  0  0
   31.0104  -37.9769  -14.2010 N   0  0  0  0  0  0  0  0  0  0  0  0
   30.7970  -33.3552  -15.7910 C   0  0  0  0  0  0  0  0  0  0  0  0
   31.2301  -32.5299  -14.9479 O   0  0  0  0  0  0  0  0  0  0  0  0
   29.8427  -32.9115  -16.7435 N   0  0  0  0  0  0  0  0  0  0  0  0
   29.3520  -31.5497  -16.6550 C   0  0  1  0  0  0  0  0  0  0  0  0
   29.7422  -30.7189  -17.8541 C   0  0  0  0  0  0  0  0  0  0  0  0
   31.3682  -31.2018  -18.4933 S   0  0  0  0  0  0  0  0  0  0  0  0
   27.8636  -31.5999  -16.6244 C   0  0  0  0  0  0  0  0  0  0  0  0
   27.2023  -32.4687  -17.2493 O   0  0  0  0  0  0  0  0  0  0  0  0
   27.1305  -30.6457  -15.8708 N   0  0  0  0  0  0  0  0  0  0  0  0
   25.6850  -30.7245  -15.8286 C   0  0  1  0  0  0  0  0  0  0  0  0
   25.3015  -31.0035  -14.3993 C   0  0  0  0  0  0  0  0  0  0  0  0
   25.5608  -32.3744  -13.9580 C   0  0  0  0  0  0  0  0  0  0  0  0
   24.6873  -33.4223  -14.1377 C   0  0  0  0  0  0  0  0  0  0  0  0
   24.9818  -34.6785  -13.7074 C   0  0  0  0  0  0  0  0  0  0  0  0
   26.1833  -34.9453  -13.0677 C   0  0  0  0  0  0  0  0  0  0  0  0
   27.0668  -33.9165  -12.8788 C   0  0  0  0  0  0  0  0  0  0  0  0
   26.7542  -32.6446  -13.3215 C   0  0  0  0  0  0  0  0  0  0  0  0
   25.0882  -29.5026  -16.3828 C   0  0  0  0  0  0  0  0  0  0  0  0
   25.8381  -28.5439  -16.6919 O   0  0  0  0  0  0  0  0  0  0  0  0
   23.7262  -29.3437  -16.5877 O   0  0  0  0  0  0  0  0  0  0  0  0
  2  1  1  1
  3  4  1  0
  3  2  1  0
  4  5  2  0
  5  6  1  0
  7  6  1  0
  8  4  1  0
  8  7  2  0
  9  2  1  0
  9 10  2  0
 11  9  1  0
 12 11  1  0
 12 15  1  0
 12 13  1  6
 14 13  1  0
 15 17  1  0
 16 15  2  0
 17 18  1  0
 18 26  1  0
 19 20  1  0
 18 19  1  1
 20 25  1  0
 21 20  2  0
 21 22  1  0
 22 23  2  0
 23 24  1  0
 25 24  2  0
 26 27  2  0
 26 28  1  0
M  END
$$$$
