HCF.pdb
     RDKit          3D

 28 29  0  0  1  0  0  0  0  0999 V2000
   28.0367  -21.9218  -17.9583 N   0  0  0  0  0  0  0  0  0  0  0  0
   27.5982  -22.3797  -16.6816 C   0  0  1  0  0  0  0  0  0  0  0  0
   28.1098  -23.7579  -16.3368 C   0  0  0  0  0  0  0  0  0  0  0  0
   27.3282  -24.7510  -17.1018 C   0  0  0  0  0  0  0  0  0  0  0  0
   26.2268  -25.4429  -16.5925 C   0  0  0  0  0  0  0  0  0  0  0  0
   25.7830  -26.2548  -17.5838 N   0  0  0  0  0  0  0  0  0  0  0  0
   26.5512  -26.0943  -18.6619 C   0  0  0  0  0  0  0  0  0  0  0  0
   27.4762  -25.1826  -18.3478 N   0  0  0  0  0  0  0  0  0  0  0  0
   27.9378  -21.4528  -15.5773 C   0  0  0  0  0  0  0  0  0  0  0  0
   29.1052  -21.0354  -15.3709 O   0  0  0  0  0  0  0  0  0  0  0  0
   26.9003  -21.0157  -14.7129 N   0  0  0  0  0  0  0  0  0  0  0  0
   27.2596  -20.3726  -13.4637 C   0  0  1  0  0  0  0  0  0  0  0  0
   27.2095  -18.8663  -13.5573 C   0  0  0  0  0  0  0  0  0  0  0  0
   25.6684  -18.3017  -14.3266 S   0  0  0  0  0  0  0  0  0  0  0  0
   26.2619  -20.7795  -12.4351 C   0  0  0  0  0  0  0  0  0  0  0  0
   25.0597  -21.0209  -12.7159 O   0  0  0  0  0  0  0  0  0  0  0  0
   26.6484  -20.9098  -11.0751 N   0  0  0  0  0  0  0  0  0  0  0  0
   25.6625  -21.2879  -10.0839 C   0  0  1  0  0  0  0  0  0  0  0  0
   26.4153  -21.8536   -8.9087 C   0  0  0  0  0  0  0  0  0  0  0  0
   27.2110  -20.8733   -8.1689 C   0  0  0  0  0  0  0  0  0  0  0  0
   26.6906  -19.7486   -7.5709 C   0  0  0  0  0  0  0  0  0  0  0  0
   27.4788  -18.8710   -6.8938 C   0  0  0  0  0  0  0  0  0  0  0  0
   28.8450  -19.0842   -6.7838 C   0  0  0  0  0  0  0  0  0  0  0  0
   29.3831  -20.1974   -7.3716 C   0  0  0  0  0  0  0  0  0  0  0  0
   28.5699  -21.0811   -8.0567 C   0  0  0  0  0  0  0  0  0  0  0  0
   24.8035  -20.1439   -9.7525 C   0  0  0  0  0  0  0  0  0  0  0  0
   25.1921  -18.9856  -10.0425 O   0  0  0  0  0  0  0  0  0  0  0  0
   23.5713  -20.2701   -9.1296 O   0  0  0  0  0  0  0  0  0  0  0  0
  2  1  1  6
  3  4  1  0
  3  2  1  0
  4  5  2  0
  5  6  1  0
  7  6  1  0
  8  4  1  0
  8  7  2  0
  9  2  1  0
  9 10  2  0
 11  9  1  0
 12 11  1  0
 12 15  1  0
 12 13  1  6
 14 13  1  0
 15 17  1  0
 16 15  2  0
 17 18  1  0
 18 26  1  0
 19 20  1  0
 18 19  1  1
 20 25  1  0
 21 20  2  0
 21 22  1  0
 22 23  2  0
 23 24  1  0
 25 24  2  0
 26 27  2  0
 26 28  1  0
M  END
$$$$
