HCF.pdb
     RDKit          3D

 28 29  0  0  1  0  0  0  0  0999 V2000
   22.3465  -20.4750  -14.2911 N   0  0  0  0  0  0  0  0  0  0  0  0
   22.0556  -19.8996  -13.0199 C   0  0  1  0  0  0  0  0  0  0  0  0
   20.5763  -19.7311  -12.7683 C   0  0  0  0  0  0  0  0  0  0  0  0
   20.0415  -18.7699  -13.7545 C   0  0  0  0  0  0  0  0  0  0  0  0
   19.3744  -19.1373  -14.9255 C   0  0  0  0  0  0  0  0  0  0  0  0
   19.0405  -17.9874  -15.5620 N   0  0  0  0  0  0  0  0  0  0  0  0
   19.4665  -16.9471  -14.8448 C   0  0  0  0  0  0  0  0  0  0  0  0
   20.0671  -17.4433  -13.7592 N   0  0  0  0  0  0  0  0  0  0  0  0
   22.6519  -20.6456  -11.8877 C   0  0  0  0  0  0  0  0  0  0  0  0
   22.1732  -21.7232  -11.4525 O   0  0  0  0  0  0  0  0  0  0  0  0
   23.8151  -20.1219  -11.2653 N   0  0  0  0  0  0  0  0  0  0  0  0
   24.8369  -21.0451  -10.8105 C   0  0  1  0  0  0  0  0  0  0  0  0
   25.5671  -21.7045  -11.9560 C   0  0  0  0  0  0  0  0  0  0  0  0
   27.0781  -22.5303  -11.3902 S   0  0  0  0  0  0  0  0  0  0  0  0
   25.8465  -20.2675  -10.0391 C   0  0  0  0  0  0  0  0  0  0  0  0
   26.0427  -19.0391  -10.2263 O   0  0  0  0  0  0  0  0  0  0  0  0
   26.6357  -20.9058   -9.0463 N   0  0  0  0  0  0  0  0  0  0  0  0
   27.8554  -20.2747   -8.5864 C   0  0  1  0  0  0  0  0  0  0  0  0
   27.4491  -19.0894   -7.7511 C   0  0  0  0  0  0  0  0  0  0  0  0
   27.7349  -19.2270   -6.3226 C   0  0  0  0  0  0  0  0  0  0  0  0
   26.7956  -19.5651   -5.3756 C   0  0  0  0  0  0  0  0  0  0  0  0
   27.1187  -19.6802   -4.0595 C   0  0  0  0  0  0  0  0  0  0  0  0
   28.4176  -19.4583   -3.6263 C   0  0  0  0  0  0  0  0  0  0  0  0
   29.3677  -19.1208   -4.5525 C   0  0  0  0  0  0  0  0  0  0  0  0
   29.0251  -19.0074   -5.8871 C   0  0  0  0  0  0  0  0  0  0  0  0
   28.7006  -21.2457   -7.8798 C   0  0  0  0  0  0  0  0  0  0  0  0
   28.2233  -22.3695   -7.5865 O   0  0  0  0  0  0  0  0  0  0  0  0
   30.0130  -20.9904   -7.5129 O   0  0  0  0  0  0  0  0  0  0  0  0
  2  1  1  6
  3  4  1  0
  3  2  1  0
  4  5  2  0
  5  6  1  0
  7  6  1  0
  8  4  1  0
  8  7  2  0
  9  2  1  0
  9 10  2  0
 11  9  1  0
 12 11  1  0
 12 15  1  0
 12 13  1  6
 14 13  1  0
 15 17  1  0
 16 15  2  0
 17 18  1  0
 18 26  1  0
 19 20  1  0
 18 19  1  1
 20 25  1  0
 21 20  2  0
 21 22  1  0
 22 23  2  0
 23 24  1  0
 25 24  2  0
 26 27  2  0
 26 28  1  0
M  END
$$$$
