HCF.pdb
     RDKit          3D

 28 29  0  0  1  0  0  0  0  0999 V2000
   15.9885  -19.7431    5.2142 N   0  0  0  0  0  0  0  0  0  0  0  0
   17.1085  -18.8613    5.2079 C   0  0  1  0  0  0  0  0  0  0  0  0
   17.0782  -17.8703    4.0691 C   0  0  0  0  0  0  0  0  0  0  0  0
   17.0891  -18.6209    2.7967 C   0  0  0  0  0  0  0  0  0  0  0  0
   18.2507  -19.0324    2.1390 C   0  0  0  0  0  0  0  0  0  0  0  0
   17.8548  -19.6853    1.0184 N   0  0  0  0  0  0  0  0  0  0  0  0
   16.5226  -19.6925    0.9602 C   0  0  0  0  0  0  0  0  0  0  0  0
   16.0827  -19.0449    2.0431 N   0  0  0  0  0  0  0  0  0  0  0  0
   17.2814  -18.1232    6.4805 C   0  0  0  0  0  0  0  0  0  0  0  0
   16.3847  -18.0572    7.3587 O   0  0  0  0  0  0  0  0  0  0  0  0
   18.5133  -17.4602    6.7203 N   0  0  0  0  0  0  0  0  0  0  0  0
   18.8564  -17.1000    8.0826 C   0  0  1  0  0  0  0  0  0  0  0  0
   19.0554  -18.3096    8.9644 C   0  0  0  0  0  0  0  0  0  0  0  0
   19.9946  -19.6038    8.1108 S   0  0  0  0  0  0  0  0  0  0  0  0
   20.1519  -16.3656    8.0501 C   0  0  0  0  0  0  0  0  0  0  0  0
   21.1201  -16.7316    7.3351 O   0  0  0  0  0  0  0  0  0  0  0  0
   20.3359  -15.2032    8.8443 N   0  0  0  0  0  0  0  0  0  0  0  0
   21.5936  -14.4874    8.7850 C   0  0  1  0  0  0  0  0  0  0  0  0
   21.2639  -13.0391    8.5374 C   0  0  0  0  0  0  0  0  0  0  0  0
   20.5781  -12.7808    7.2707 C   0  0  0  0  0  0  0  0  0  0  0  0
   19.2142  -12.8502    7.1022 C   0  0  0  0  0  0  0  0  0  0  0  0
   18.6301  -12.5983    5.9001 C   0  0  0  0  0  0  0  0  0  0  0  0
   19.3981  -12.2604    4.7956 C   0  0  0  0  0  0  0  0  0  0  0  0
   20.7574  -12.1858    4.9417 C   0  0  0  0  0  0  0  0  0  0  0  0
   21.3376  -12.4444    6.1697 C   0  0  0  0  0  0  0  0  0  0  0  0
   22.3770  -14.7250   10.0041 C   0  0  0  0  0  0  0  0  0  0  0  0
   21.8175  -15.2576   10.9941 O   0  0  0  0  0  0  0  0  0  0  0  0
   23.7170  -14.3910   10.1273 O   0  0  0  0  0  0  0  0  0  0  0  0
  2  1  1  1
  3  4  1  0
  3  2  1  0
  4  5  2  0
  5  6  1  0
  7  6  1  0
  8  4  1  0
  8  7  2  0
  9  2  1  0
  9 10  2  0
 11  9  1  0
 12 11  1  0
 12 15  1  0
 12 13  1  1
 14 13  1  0
 15 17  1  0
 16 15  2  0
 17 18  1  0
 18 26  1  0
 19 20  1  0
 18 19  1  1
 20 25  1  0
 21 20  2  0
 21 22  1  0
 22 23  2  0
 23 24  1  0
 25 24  2  0
 26 27  2  0
 26 28  1  0
M  END
$$$$
