HCF.pdb
     RDKit          3D

 28 29  0  0  1  0  0  0  0  0999 V2000
   25.4556  -35.3162  -14.1084 N   0  0  0  0  0  0  0  0  0  0  0  0
   25.2851  -34.1995  -13.2389 C   0  0  1  0  0  0  0  0  0  0  0  0
   23.9315  -33.5439  -13.3721 C   0  0  0  0  0  0  0  0  0  0  0  0
   23.8074  -33.0028  -14.7411 C   0  0  0  0  0  0  0  0  0  0  0  0
   24.4594  -31.8526  -15.1917 C   0  0  0  0  0  0  0  0  0  0  0  0
   24.0989  -31.6816  -16.4877 N   0  0  0  0  0  0  0  0  0  0  0  0
   23.2676  -32.6604  -16.8467 C   0  0  0  0  0  0  0  0  0  0  0  0
   23.1064  -33.4452  -15.7772 N   0  0  0  0  0  0  0  0  0  0  0  0
   25.5217  -34.5244  -11.8133 C   0  0  0  0  0  0  0  0  0  0  0  0
   25.1191  -35.5887  -11.2796 O   0  0  0  0  0  0  0  0  0  0  0  0
   26.2341  -33.5937  -11.0126 N   0  0  0  0  0  0  0  0  0  0  0  0
   26.5298  -33.9421   -9.6363 C   0  0  1  0  0  0  0  0  0  0  0  0
   27.9509  -33.6069   -9.2510 C   0  0  0  0  0  0  0  0  0  0  0  0
   28.4575  -32.0011   -9.9219 S   0  0  0  0  0  0  0  0  0  0  0  0
   25.6374  -33.1359   -8.7575 C   0  0  0  0  0  0  0  0  0  0  0  0
   25.1205  -32.0510   -9.1297 O   0  0  0  0  0  0  0  0  0  0  0  0
   25.3372  -33.5791   -7.4424 N   0  0  0  0  0  0  0  0  0  0  0  0
   24.4498  -32.7956   -6.6081 C   0  0  1  0  0  0  0  0  0  0  0  0
   23.1119  -32.7631   -7.2984 C   0  0  0  0  0  0  0  0  0  0  0  0
   22.9763  -31.7144   -8.3100 C   0  0  0  0  0  0  0  0  0  0  0  0
   22.8819  -30.3719   -8.0234 C   0  0  0  0  0  0  0  0  0  0  0  0
   22.7584  -29.4395   -9.0059 C   0  0  0  0  0  0  0  0  0  0  0  0
   22.7235  -29.8163  -10.3404 C   0  0  0  0  0  0  0  0  0  0  0  0
   22.8160  -31.1473  -10.6474 C   0  0  0  0  0  0  0  0  0  0  0  0
   22.9412  -32.0842   -9.6383 C   0  0  0  0  0  0  0  0  0  0  0  0
   24.4097  -33.3432   -5.2461 C   0  0  0  0  0  0  0  0  0  0  0  0
   24.5973  -34.5733   -5.0780 O   0  0  0  0  0  0  0  0  0  0  0  0
   24.1735  -32.5703   -4.1196 O   0  0  0  0  0  0  0  0  0  0  0  0
  2  1  1  6
  3  4  1  0
  3  2  1  0
  4  5  2  0
  5  6  1  0
  7  6  1  0
  8  4  1  0
  8  7  2  0
  9  2  1  0
  9 10  2  0
 11  9  1  0
 12 11  1  0
 12 15  1  0
 12 13  1  1
 14 13  1  0
 15 17  1  0
 16 15  2  0
 17 18  1  0
 18 26  1  0
 19 20  1  0
 18 19  1  6
 20 25  1  0
 21 20  2  0
 21 22  1  0
 22 23  2  0
 23 24  1  0
 25 24  2  0
 26 27  2  0
 26 28  1  0
M  END
$$$$
