RMG.pdb
     RDKit          3D

 24 23  0  0  1  0  0  0  0  0999 V2000
    7.7683  -12.0509   18.3490 N   0  0  0  0  0  0  0  0  0  0  0  0
    7.9625  -13.3560   17.7830 C   0  0  0  0  0  0  0  0  0  0  0  0
    8.5737  -13.4900   16.6611 N   0  0  0  0  0  0  0  0  0  0  0  0
    7.4760  -14.5147   18.4674 N   0  0  0  0  0  0  0  0  0  0  0  0
    6.7735  -14.3667   19.7294 C   0  0  0  0  0  0  0  0  0  0  0  0
    7.5171  -15.1105   20.8051 C   0  0  0  0  0  0  0  0  0  0  0  0
    8.9668  -14.7725   20.8838 C   0  0  0  0  0  0  0  0  0  0  0  0
    9.6249  -15.5096   22.0267 C   0  0  2  0  0  0  0  0  0  0  0  0
    9.1823  -16.8863   21.9331 N   0  0  0  0  0  0  0  0  0  0  0  0
    9.2168  -14.9789   23.3464 C   0  0  0  0  0  0  0  0  0  0  0  0
    8.7699  -13.8115   23.4375 O   0  0  0  0  0  0  0  0  0  0  0  0
    8.5893  -14.4115   16.1816 C   0  0  0  0  0  0  0  0  0  0  0  0
    6.7185  -10.8391   26.4867 S   0  0  0  0  0  0  0  0  0  0  0  0
    7.0684  -12.5762   26.8145 C   0  0  0  0  0  0  0  0  0  0  0  0
    7.0695  -13.5842   25.3508 C   0  0  0  0  0  0  0  0  0  0  0  0
    7.3839  -15.0128   25.5967 C   0  0  2  0  0  0  0  0  0  0  0  0
    8.8012  -15.3181   25.8296 N   0  0  0  0  0  0  0  0  0  0  0  0
    9.3277  -15.7831   24.5100 C   0  0  0  0  0  0  0  0  0  0  0  0
    9.1318  -16.3523   26.7874 O   0  0  0  0  0  0  0  0  0  0  0  0
    8.6946  -16.3954   27.9803 N   0  0  0  0  0  0  0  0  0  0  0  0
   10.0181  -17.4291   26.3999 C   0  0  0  0  0  0  0  0  0  0  0  0
   10.0920  -18.6232   27.2429 C   0  0  0  0  0  0  0  0  0  0  0  0
   11.1337  -19.5354   26.7461 O   0  0  0  0  0  0  0  0  0  0  0  0
   11.4111  -20.6847   27.4727 O   0  0  0  0  0  0  0  0  0  0  0  0
  1  2  1  0
  2  3  2  0
  4  5  1  0
  4  2  1  0
  6  7  1  0
  6  5  1  0
  8  7  1  0
  8  9  1  1
  8 10  1  0
 10 11  2  0
 13 14  1  0
 13 12  1  0
 16 15  1  6
 15 14  1  0
 17 16  1  0
 17 10  1  0
 18 16  1  0
 18 19  2  0
 20 18  1  0
 21 20  1  0
 22 21  1  0
 23 22  1  0
 24 22  2  0
M  END
$$$$
