RMG.pdb
     RDKit          3D

 24 23  0  0  1  0  0  0  0  0999 V2000
    7.8084  -12.0024   17.8183 N   0  0  0  0  0  0  0  0  0  0  0  0
    8.5602  -13.2191   17.9440 C   0  0  0  0  0  0  0  0  0  0  0  0
    9.8296  -13.1781   18.1366 N   0  0  0  0  0  0  0  0  0  0  0  0
    7.8977  -14.4844   17.8558 N   0  0  0  0  0  0  0  0  0  0  0  0
    6.9061  -14.8518   18.8507 C   0  0  0  0  0  0  0  0  0  0  0  0
    7.5805  -15.5740   19.9851 C   0  0  0  0  0  0  0  0  0  0  0  0
    8.0485  -14.6778   21.0806 C   0  0  0  0  0  0  0  0  0  0  0  0
    8.7542  -15.4723   22.1546 C   0  0  2  0  0  0  0  0  0  0  0  0
    8.1304  -16.7802   22.1710 N   0  0  0  0  0  0  0  0  0  0  0  0
    8.5983  -14.8662   23.4955 C   0  0  0  0  0  0  0  0  0  0  0  0
    8.0364  -13.7522   23.6143 O   0  0  0  0  0  0  0  0  0  0  0  0
   10.3781  -14.0587   18.1933 C   0  0  0  0  0  0  0  0  0  0  0  0
    6.3441  -10.8653   26.5566 S   0  0  0  0  0  0  0  0  0  0  0  0
    7.1919  -12.4377   26.7927 C   0  0  0  0  0  0  0  0  0  0  0  0
    6.6245  -13.7169   25.6972 C   0  0  0  0  0  0  0  0  0  0  0  0
    7.1962  -15.0564   25.9788 C   0  0  2  0  0  0  0  0  0  0  0  0
    8.6625  -15.1226   26.0223 N   0  0  0  0  0  0  0  0  0  0  0  0
    9.0806  -15.5380   24.6484 C   0  0  0  0  0  0  0  0  0  0  0  0
    9.2801  -16.0597   26.9368 O   0  0  0  0  0  0  0  0  0  0  0  0
    9.1288  -16.0403   28.1989 N   0  0  0  0  0  0  0  0  0  0  0  0
   10.1364  -17.1057   26.4191 C   0  0  0  0  0  0  0  0  0  0  0  0
   10.7550  -18.0433   27.3572 C   0  0  0  0  0  0  0  0  0  0  0  0
   11.5371  -19.0537   26.6282 O   0  0  0  0  0  0  0  0  0  0  0  0
   12.2101  -20.0246   27.3565 O   0  0  0  0  0  0  0  0  0  0  0  0
  1  2  1  0
  2  3  2  0
  4  5  1  0
  4  2  1  0
  6  7  1  0
  6  5  1  0
  8  7  1  0
  8  9  1  1
  8 10  1  0
 10 11  2  0
 13 14  1  0
 13 12  1  0
 16 15  1  6
 15 14  1  0
 17 16  1  0
 17 10  1  0
 18 16  1  0
 18 19  2  0
 20 18  1  0
 21 20  1  0
 22 21  1  0
 23 22  1  0
 24 22  2  0
M  END
$$$$
