RMG.pdb
     RDKit          3D

 24 23  0  0  1  0  0  0  0  0999 V2000
    7.7544  -12.8028   16.8124 N   0  0  0  0  0  0  0  0  0  0  0  0
    8.0831  -14.0637   16.2096 C   0  0  0  0  0  0  0  0  0  0  0  0
    7.6471  -14.3529   15.0364 N   0  0  0  0  0  0  0  0  0  0  0  0
    8.8995  -15.0046   16.9137 N   0  0  0  0  0  0  0  0  0  0  0  0
    9.1655  -14.8142   18.3283 C   0  0  0  0  0  0  0  0  0  0  0  0
    7.8859  -14.4551   19.0332 C   0  0  0  0  0  0  0  0  0  0  0  0
    8.0714  -14.0480   20.4552 C   0  0  0  0  0  0  0  0  0  0  0  0
    8.5959  -15.2028   21.2763 C   0  0  2  0  0  0  0  0  0  0  0  0
    7.5374  -16.1917   21.3124 N   0  0  0  0  0  0  0  0  0  0  0  0
    8.9091  -14.8063   22.6672 C   0  0  0  0  0  0  0  0  0  0  0  0
    9.7482  -13.9007   22.8831 O   0  0  0  0  0  0  0  0  0  0  0  0
    7.8994  -15.2585   14.5939 C   0  0  0  0  0  0  0  0  0  0  0  0
    5.6643  -11.8022   27.1273 S   0  0  0  0  0  0  0  0  0  0  0  0
    7.3304  -11.5086   26.5066 C   0  0  0  0  0  0  0  0  0  0  0  0
    7.8096  -12.6300   25.2138 C   0  0  0  0  0  0  0  0  0  0  0  0
    7.4706  -14.0487   25.4829 C   0  0  2  0  0  0  0  0  0  0  0  0
    8.5244  -15.0220   25.1692 N   0  0  0  0  0  0  0  0  0  0  0  0
    8.2654  -15.4445   23.7587 C   0  0  0  0  0  0  0  0  0  0  0  0
    8.5911  -16.2375   25.9528 O   0  0  0  0  0  0  0  0  0  0  0  0
    8.4689  -16.2868   27.2172 N   0  0  0  0  0  0  0  0  0  0  0  0
    8.8111  -17.5051   25.2893 C   0  0  0  0  0  0  0  0  0  0  0  0
   10.1256  -17.7813   24.7083 C   0  0  0  0  0  0  0  0  0  0  0  0
   11.0629  -18.2234   25.7524 O   0  0  0  0  0  0  0  0  0  0  0  0
   11.7258  -19.4305   25.5813 O   0  0  0  0  0  0  0  0  0  0  0  0
  1  2  1  0
  2  3  2  0
  4  5  1  0
  4  2  1  0
  6  7  1  0
  6  5  1  0
  8  7  1  0
  8  9  1  1
  8 10  1  0
 10 11  2  0
 13 14  1  0
 13 12  1  0
 16 15  1  6
 15 14  1  0
 17 16  1  0
 17 10  1  0
 18 16  1  0
 18 19  2  0
 20 18  1  0
 21 20  1  0
 22 21  1  0
 23 22  1  0
 24 22  2  0
M  END
$$$$
