RMG.pdb
     RDKit          3D

 24 23  0  0  1  0  0  0  0  0999 V2000
    8.5276  -12.9561   16.0460 N   0  0  0  0  0  0  0  0  0  0  0  0
    8.1972  -12.9318   17.4430 C   0  0  0  0  0  0  0  0  0  0  0  0
    8.9064  -12.2433   18.2634 N   0  0  0  0  0  0  0  0  0  0  0  0
    7.0746  -13.6749   17.9280 N   0  0  0  0  0  0  0  0  0  0  0  0
    6.9888  -14.0179   19.3362 C   0  0  0  0  0  0  0  0  0  0  0  0
    7.9266  -15.1567   19.6310 C   0  0  0  0  0  0  0  0  0  0  0  0
    7.2893  -16.2948   20.3527 C   0  0  0  0  0  0  0  0  0  0  0  0
    8.2195  -16.8443   21.4088 C   0  0  2  0  0  0  0  0  0  0  0  0
    7.5678  -18.0171   21.9562 N   0  0  0  0  0  0  0  0  0  0  0  0
    8.4486  -15.8832   22.5105 C   0  0  0  0  0  0  0  0  0  0  0  0
    9.0159  -14.7905   22.2762 O   0  0  0  0  0  0  0  0  0  0  0  0
    8.7322  -12.3075   19.2857 C   0  0  0  0  0  0  0  0  0  0  0  0
    7.6378  -11.0719   26.9549 S   0  0  0  0  0  0  0  0  0  0  0  0
    6.5650  -12.2665   26.1368 C   0  0  0  0  0  0  0  0  0  0  0  0
    6.8971  -13.9488   26.6036 C   0  0  0  0  0  0  0  0  0  0  0  0
    6.9279  -14.9006   25.4663 C   0  0  2  0  0  0  0  0  0  0  0  0
    8.2642  -15.2408   24.9615 N   0  0  0  0  0  0  0  0  0  0  0  0
    8.0300  -16.1904   23.8309 C   0  0  0  0  0  0  0  0  0  0  0  0
    9.1903  -15.8975   25.8599 O   0  0  0  0  0  0  0  0  0  0  0  0
    9.2020  -15.7426   27.1216 N   0  0  0  0  0  0  0  0  0  0  0  0
   10.1873  -16.8002   25.3248 C   0  0  0  0  0  0  0  0  0  0  0  0
   11.5072  -16.8512   25.9551 C   0  0  0  0  0  0  0  0  0  0  0  0
   12.5632  -16.8325   24.9311 O   0  0  0  0  0  0  0  0  0  0  0  0
   13.8860  -16.9261   25.3400 O   0  0  0  0  0  0  0  0  0  0  0  0
  1  2  1  0
  2  3  2  0
  4  5  1  0
  4  2  1  0
  6  7  1  0
  6  5  1  0
  8  7  1  0
  8  9  1  1
  8 10  1  0
 10 11  2  0
 13 14  1  0
 13 12  1  0
 16 15  1  6
 15 14  1  0
 17 16  1  0
 17 10  1  0
 18 16  1  0
 18 19  2  0
 20 18  1  0
 21 20  1  0
 22 21  1  0
 23 22  1  0
 24 22  2  0
M  END
$$$$
