RMG.pdb
     RDKit          3D

 24 23  0  0  1  0  0  0  0  0999 V2000
    9.6043  -13.8046   16.5674 N   0  0  0  0  0  0  0  0  0  0  0  0
    8.1807  -13.6448   16.4707 C   0  0  0  0  0  0  0  0  0  0  0  0
    7.5557  -14.0380   15.4197 N   0  0  0  0  0  0  0  0  0  0  0  0
    7.4511  -13.0467   17.5466 N   0  0  0  0  0  0  0  0  0  0  0  0
    7.7572  -13.4116   18.9182 C   0  0  0  0  0  0  0  0  0  0  0  0
    8.3361  -14.7999   18.9484 C   0  0  0  0  0  0  0  0  0  0  0  0
    9.2491  -15.0504   20.0999 C   0  0  0  0  0  0  0  0  0  0  0  0
    8.5588  -15.8804   21.1569 C   0  0  2  0  0  0  0  0  0  0  0  0
    7.1599  -15.9359   20.7829 N   0  0  0  0  0  0  0  0  0  0  0  0
    8.6564  -15.2710   22.5019 C   0  0  0  0  0  0  0  0  0  0  0  0
    8.9360  -14.0546   22.6161 O   0  0  0  0  0  0  0  0  0  0  0  0
    6.5471  -13.8193   15.2993 C   0  0  0  0  0  0  0  0  0  0  0  0
    6.5617  -10.6276   26.2996 S   0  0  0  0  0  0  0  0  0  0  0  0
    6.4596  -12.4216   26.4360 C   0  0  0  0  0  0  0  0  0  0  0  0
    7.3737  -13.2783   25.1756 C   0  0  0  0  0  0  0  0  0  0  0  0
    7.3020  -14.7568   25.2712 C   0  0  2  0  0  0  0  0  0  0  0  0
    8.5641  -15.4686   25.0331 N   0  0  0  0  0  0  0  0  0  0  0  0
    8.4353  -16.0547   23.6638 C   0  0  0  0  0  0  0  0  0  0  0  0
    8.9109  -16.5639   25.9140 O   0  0  0  0  0  0  0  0  0  0  0  0
    8.9964  -16.4713   27.1790 N   0  0  0  0  0  0  0  0  0  0  0  0
    9.1869  -17.8707   25.3560 C   0  0  0  0  0  0  0  0  0  0  0  0
   10.4426  -18.0815   24.6345 C   0  0  0  0  0  0  0  0  0  0  0  0
   11.5613  -18.2053   25.5817 O   0  0  0  0  0  0  0  0  0  0  0  0
   12.7454  -18.7782   25.1392 O   0  0  0  0  0  0  0  0  0  0  0  0
  1  2  1  0
  2  3  2  0
  4  5  1  0
  4  2  1  0
  6  7  1  0
  6  5  1  0
  8  7  1  0
  8  9  1  6
  8 10  1  0
 10 11  2  0
 13 14  1  0
 13 12  1  0
 16 15  1  6
 15 14  1  0
 17 16  1  0
 17 10  1  0
 18 16  1  0
 18 19  2  0
 20 18  1  0
 21 20  1  0
 22 21  1  0
 23 22  1  0
 24 22  2  0
M  END
$$$$
