VGD.pdb
     RDKit          3D

 20 19  0  0  1  0  0  0  0  0999 V2000
   19.4156  -12.2638  -20.0676 C   0  0  0  0  0  0  0  0  0  0  0  0
   19.4227  -12.3486  -18.5391 C   0  0  1  0  0  0  0  0  0  0  0  0
   20.8665  -12.2544  -18.1233 C   0  0  0  0  0  0  0  0  0  0  0  0
   18.6511  -11.1339  -18.0247 C   0  0  2  0  0  0  0  0  0  0  0  0
   19.2210   -9.9101  -18.5546 N   0  0  0  0  0  0  0  0  0  0  0  0
   18.7295  -11.0449  -16.5557 C   0  0  0  0  0  0  0  0  0  0  0  0
   18.1335  -11.9215  -15.8405 O   0  0  0  0  0  0  0  0  0  0  0  0
   19.4328  -10.0385  -15.8486 N   0  0  0  0  0  0  0  0  0  0  0  0
   19.5580  -10.1115  -14.4165 C   0  0  0  0  0  0  0  0  0  0  0  0
   19.9061   -8.8298  -13.7980 C   0  0  0  0  0  0  0  0  0  0  0  0
   20.0065   -8.6880  -12.5450 O   0  0  0  0  0  0  0  0  0  0  0  0
   20.1455   -7.6834  -14.6208 N   0  0  0  0  0  0  0  0  0  0  0  0
   20.6589   -6.4434  -14.0745 C   0  0  1  0  0  0  0  0  0  0  0  0
   22.0373   -6.1326  -14.6141 C   0  0  0  0  0  0  0  0  0  0  0  0
   22.5839   -4.8722  -14.1119 C   0  0  0  0  0  0  0  0  0  0  0  0
   22.0926   -4.3944  -13.0495 O   0  0  0  0  0  0  0  0  0  0  0  0
   19.7670   -5.3333  -14.4838 C   0  0  0  0  0  0  0  0  0  0  0  0
   19.9642   -4.0893  -13.9146 O   0  0  0  0  0  0  0  0  0  0  0  0
   23.6066   -4.1541  -14.7135 O   0  0  0  0  0  0  0  0  0  0  0  0
   18.8398   -5.4986  -15.3335 O   0  0  0  0  0  0  0  0  0  0  0  0
  2  3  1  1
  2  1  1  0
  4  6  1  0
  4  2  1  0
  4  5  1  6
  6  8  1  0
  7  6  2  0
  8  9  1  0
  9 10  1  0
 10 12  1  0
 10 11  2  0
 12 13  1  0
 13 17  1  0
 13 14  1  6
 15 19  1  0
 15 14  1  0
 16 15  2  0
 17 18  1  0
 20 17  2  0
M  END
$$$$
