VGD.pdb
     RDKit          3D

 20 19  0  0  1  0  0  0  0  0999 V2000
   18.8626  -15.3697  -17.1531 C   0  0  0  0  0  0  0  0  0  0  0  0
   19.1509  -13.9009  -17.4747 C   0  0  1  0  0  0  0  0  0  0  0  0
   18.7535  -13.1207  -16.2502 C   0  0  0  0  0  0  0  0  0  0  0  0
   20.6577  -13.7849  -17.7015 C   0  0  2  0  0  0  0  0  0  0  0  0
   21.3838  -14.3488  -16.5799 N   0  0  0  0  0  0  0  0  0  0  0  0
   21.0653  -12.3729  -17.8124 C   0  0  0  0  0  0  0  0  0  0  0  0
   20.7268  -11.7007  -18.8462 O   0  0  0  0  0  0  0  0  0  0  0  0
   21.8233  -11.6770  -16.8384 N   0  0  0  0  0  0  0  0  0  0  0  0
   22.1620  -10.2922  -17.0368 C   0  0  0  0  0  0  0  0  0  0  0  0
   21.6634   -9.4146  -15.9749 C   0  0  0  0  0  0  0  0  0  0  0  0
   20.8391   -9.8105  -15.1008 O   0  0  0  0  0  0  0  0  0  0  0  0
   22.1109   -8.0568  -15.9039 N   0  0  0  0  0  0  0  0  0  0  0  0
   21.6917   -7.1679  -14.8392 C   0  0  1  0  0  0  0  0  0  0  0  0
   22.7650   -6.1527  -14.5145 C   0  0  0  0  0  0  0  0  0  0  0  0
   22.4336   -5.3082  -13.3672 C   0  0  0  0  0  0  0  0  0  0  0  0
   21.9643   -5.8676  -12.3351 O   0  0  0  0  0  0  0  0  0  0  0  0
   20.4964   -6.4147  -15.2858 C   0  0  0  0  0  0  0  0  0  0  0  0
   19.4411   -6.2760  -14.4042 O   0  0  0  0  0  0  0  0  0  0  0  0
   22.5947   -3.9314  -13.3212 O   0  0  0  0  0  0  0  0  0  0  0  0
   20.4227   -5.9021  -16.4438 O   0  0  0  0  0  0  0  0  0  0  0  0
  2  3  1  1
  2  1  1  0
  4  6  1  0
  4  2  1  0
  4  5  1  1
  6  8  1  0
  7  6  2  0
  8  9  1  0
  9 10  1  0
 10 12  1  0
 10 11  2  0
 12 13  1  0
 13 17  1  0
 13 14  1  6
 15 19  1  0
 15 14  1  0
 16 15  2  0
 17 18  1  0
 20 17  2  0
M  END
$$$$
