VGD.pdb
     RDKit          3D

 20 19  0  0  1  0  0  0  0  0999 V2000
   16.5615  -12.6930  -17.7110 C   0  0  0  0  0  0  0  0  0  0  0  0
   17.2940  -12.6883  -16.3667 C   0  0  1  0  0  0  0  0  0  0  0  0
   17.7290  -14.1090  -16.1245 C   0  0  0  0  0  0  0  0  0  0  0  0
   18.5181  -11.7887  -16.5327 C   0  0  2  0  0  0  0  0  0  0  0  0
   19.3099  -11.7812  -15.3177 N   0  0  0  0  0  0  0  0  0  0  0  0
   18.1148  -10.3952  -16.7927 C   0  0  0  0  0  0  0  0  0  0  0  0
   17.5035  -10.1104  -17.8791 O   0  0  0  0  0  0  0  0  0  0  0  0
   18.3548   -9.3120  -15.9115 N   0  0  0  0  0  0  0  0  0  0  0  0
   17.8127   -8.0099  -16.1986 C   0  0  0  0  0  0  0  0  0  0  0  0
   18.2032   -6.9901  -15.2220 C   0  0  0  0  0  0  0  0  0  0  0  0
   17.7309   -6.9602  -14.0489 O   0  0  0  0  0  0  0  0  0  0  0  0
   19.1515   -5.9815  -15.5856 N   0  0  0  0  0  0  0  0  0  0  0  0
   20.1234   -5.4691  -14.6409 C   0  0  1  0  0  0  0  0  0  0  0  0
   21.0541   -6.5608  -14.1613 C   0  0  0  0  0  0  0  0  0  0  0  0
   21.9960   -6.1089  -13.1376 C   0  0  0  0  0  0  0  0  0  0  0  0
   22.5757   -4.9992  -13.3138 O   0  0  0  0  0  0  0  0  0  0  0  0
   20.9572   -4.4477  -15.3169 C   0  0  0  0  0  0  0  0  0  0  0  0
   21.5599   -3.4750  -14.5419 O   0  0  0  0  0  0  0  0  0  0  0  0
   22.3061   -6.8065  -11.9797 O   0  0  0  0  0  0  0  0  0  0  0  0
   21.1268   -4.4477  -16.5740 O   0  0  0  0  0  0  0  0  0  0  0  0
  2  3  1  6
  2  1  1  0
  4  6  1  0
  4  2  1  0
  4  5  1  1
  6  8  1  0
  7  6  2  0
  8  9  1  0
  9 10  1  0
 10 12  1  0
 10 11  2  0
 12 13  1  0
 13 17  1  0
 13 14  1  6
 15 19  1  0
 15 14  1  0
 16 15  2  0
 17 18  1  0
 20 17  2  0
M  END
$$$$
