VGD.pdb
     RDKit          3D

 20 19  0  0  1  0  0  0  0  0999 V2000
   20.5941  -12.7673  -18.5321 C   0  0  0  0  0  0  0  0  0  0  0  0
   19.2868  -12.5214  -17.7744 C   0  0  1  0  0  0  0  0  0  0  0  0
   18.4165  -13.7195  -18.0456 C   0  0  0  0  0  0  0  0  0  0  0  0
   19.6410  -12.4590  -16.2891 C   0  0  2  0  0  0  0  0  0  0  0  0
   18.4672  -12.1348  -15.5015 N   0  0  0  0  0  0  0  0  0  0  0  0
   20.6380  -11.4049  -16.0304 C   0  0  0  0  0  0  0  0  0  0  0  0
   21.8594  -11.6024  -16.3534 O   0  0  0  0  0  0  0  0  0  0  0  0
   20.3463  -10.1521  -15.4362 N   0  0  0  0  0  0  0  0  0  0  0  0
   21.3892   -9.1777  -15.2499 C   0  0  0  0  0  0  0  0  0  0  0  0
   20.9073   -7.9104  -14.6946 C   0  0  0  0  0  0  0  0  0  0  0  0
   19.8272   -7.8246  -14.0419 O   0  0  0  0  0  0  0  0  0  0  0  0
   21.6691   -6.7137  -14.8848 N   0  0  0  0  0  0  0  0  0  0  0  0
   21.2341   -5.4375  -14.3542 C   0  0  1  0  0  0  0  0  0  0  0  0
   22.3573   -4.4245  -14.3657 C   0  0  0  0  0  0  0  0  0  0  0  0
   21.9693   -3.1252  -13.8173 C   0  0  0  0  0  0  0  0  0  0  0  0
   20.8542   -3.0396  -13.2276 O   0  0  0  0  0  0  0  0  0  0  0  0
   20.1530   -4.9034  -15.2151 C   0  0  0  0  0  0  0  0  0  0  0  0
   19.0890   -4.2615  -14.6099 O   0  0  0  0  0  0  0  0  0  0  0  0
   22.7337   -1.9704  -13.8933 O   0  0  0  0  0  0  0  0  0  0  0  0
   20.1832   -5.0214  -16.4777 O   0  0  0  0  0  0  0  0  0  0  0  0
  2  3  1  1
  2  1  1  0
  4  6  1  0
  4  2  1  0
  4  5  1  1
  6  8  1  0
  7  6  2  0
  8  9  1  0
  9 10  1  0
 10 12  1  0
 10 11  2  0
 12 13  1  0
 13 17  1  0
 13 14  1  6
 15 19  1  0
 15 14  1  0
 16 15  2  0
 17 18  1  0
 20 17  2  0
M  END
$$$$
