VGD.pdb
     RDKit          3D

 20 19  0  0  1  0  0  0  0  0999 V2000
   18.7388  -23.6969  -14.2888 C   0  0  0  0  0  0  0  0  0  0  0  0
   19.3028  -23.5990  -12.8689 C   0  0  1  0  0  0  0  0  0  0  0  0
   19.4065  -22.1287  -12.5624 C   0  0  0  0  0  0  0  0  0  0  0  0
   18.2813  -24.2549  -11.9407 C   0  0  2  0  0  0  0  0  0  0  0  0
   17.0848  -23.4407  -11.8478 N   0  0  0  0  0  0  0  0  0  0  0  0
   18.8202  -24.3862  -10.5752 C   0  0  0  0  0  0  0  0  0  0  0  0
   19.8197  -25.1557  -10.3656 O   0  0  0  0  0  0  0  0  0  0  0  0
   18.3076  -23.7092   -9.4411 N   0  0  0  0  0  0  0  0  0  0  0  0
   18.9045  -23.9084   -8.1465 C   0  0  0  0  0  0  0  0  0  0  0  0
   18.2912  -25.0003   -7.3862 C   0  0  0  0  0  0  0  0  0  0  0  0
   17.5078  -25.8389   -7.9182 O   0  0  0  0  0  0  0  0  0  0  0  0
   18.5738  -25.1430   -5.9903 N   0  0  0  0  0  0  0  0  0  0  0  0
   18.0300  -26.2342   -5.2073 C   0  0  1  0  0  0  0  0  0  0  0  0
   18.6350  -26.2728   -3.8215 C   0  0  0  0  0  0  0  0  0  0  0  0
   18.1439  -27.3842   -3.0073 C   0  0  0  0  0  0  0  0  0  0  0  0
   17.6279  -28.3728   -3.6029 O   0  0  0  0  0  0  0  0  0  0  0  0
   16.5720  -26.0273   -5.0438 C   0  0  0  0  0  0  0  0  0  0  0  0
   15.7696  -27.1360   -4.8510 O   0  0  0  0  0  0  0  0  0  0  0  0
   18.1998  -27.4400   -1.6226 O   0  0  0  0  0  0  0  0  0  0  0  0
   16.0526  -24.8705   -5.0767 O   0  0  0  0  0  0  0  0  0  0  0  0
  2  3  1  1
  2  1  1  0
  4  6  1  0
  4  2  1  0
  4  5  1  1
  6  8  1  0
  7  6  2  0
  8  9  1  0
  9 10  1  0
 10 12  1  0
 10 11  2  0
 12 13  1  0
 13 17  1  0
 13 14  1  1
 15 19  1  0
 15 14  1  0
 16 15  2  0
 17 18  1  0
 20 17  2  0
M  END
$$$$
