VGD.pdb
     RDKit          3D

 20 19  0  0  1  0  0  0  0  0999 V2000
   28.5613   -9.9104  -16.9224 C   0  0  0  0  0  0  0  0  0  0  0  0
   27.3880  -10.4016  -17.7743 C   0  0  1  0  0  0  0  0  0  0  0  0
   27.9349  -11.5058  -18.6393 C   0  0  0  0  0  0  0  0  0  0  0  0
   26.3445  -10.9628  -16.8092 C   0  0  2  0  0  0  0  0  0  0  0  0
   25.1952  -11.4616  -17.5397 N   0  0  0  0  0  0  0  0  0  0  0  0
   25.8536   -9.9137  -15.8978 C   0  0  0  0  0  0  0  0  0  0  0  0
   26.5773   -9.5531  -14.9072 O   0  0  0  0  0  0  0  0  0  0  0  0
   24.6087   -9.2507  -16.0329 N   0  0  0  0  0  0  0  0  0  0  0  0
   24.2683   -8.1618  -15.1554 C   0  0  0  0  0  0  0  0  0  0  0  0
   23.3078   -7.2229  -15.7406 C   0  0  0  0  0  0  0  0  0  0  0  0
   23.2207   -7.0334  -16.9882 O   0  0  0  0  0  0  0  0  0  0  0  0
   22.4263   -6.4827  -14.8899 N   0  0  0  0  0  0  0  0  0  0  0  0
   21.4020   -5.6085  -15.4249 C   0  0  1  0  0  0  0  0  0  0  0  0
   20.0268   -6.0095  -14.9393 C   0  0  0  0  0  0  0  0  0  0  0  0
   18.9511   -5.2099  -15.5251 C   0  0  0  0  0  0  0  0  0  0  0  0
   19.1644   -4.6563  -16.6415 O   0  0  0  0  0  0  0  0  0  0  0  0
   21.6510   -4.2286  -14.9460 C   0  0  0  0  0  0  0  0  0  0  0  0
   20.9810   -3.1890  -15.5630 O   0  0  0  0  0  0  0  0  0  0  0  0
   17.7058   -5.0095  -14.9485 O   0  0  0  0  0  0  0  0  0  0  0  0
   22.4548   -3.9852  -13.9953 O   0  0  0  0  0  0  0  0  0  0  0  0
  2  3  1  6
  2  1  1  0
  4  6  1  0
  4  2  1  0
  4  5  1  6
  6  8  1  0
  7  6  2  0
  8  9  1  0
  9 10  1  0
 10 12  1  0
 10 11  2  0
 12 13  1  0
 13 17  1  0
 13 14  1  1
 15 19  1  0
 15 14  1  0
 16 15  2  0
 17 18  1  0
 20 17  2  0
M  END
$$$$
