VGD.pdb
     RDKit          3D

 20 19  0  0  1  0  0  0  0  0999 V2000
   18.3062  -12.9273  -17.7084 C   0  0  0  0  0  0  0  0  0  0  0  0
   19.7091  -12.3182  -17.7775 C   0  0  1  0  0  0  0  0  0  0  0  0
   19.6533  -11.2648  -18.8516 C   0  0  0  0  0  0  0  0  0  0  0  0
   19.9764  -11.6671  -16.4211 C   0  0  2  0  0  0  0  0  0  0  0  0
   18.9130  -10.7395  -16.0861 N   0  0  0  0  0  0  0  0  0  0  0  0
   21.2305  -10.8934  -16.4475 C   0  0  0  0  0  0  0  0  0  0  0  0
   22.3475  -11.5103  -16.5299 O   0  0  0  0  0  0  0  0  0  0  0  0
   21.3033   -9.4797  -16.3884 N   0  0  0  0  0  0  0  0  0  0  0  0
   22.5795   -8.8164  -16.4460 C   0  0  0  0  0  0  0  0  0  0  0  0
   22.4787   -7.3564  -16.3761 C   0  0  0  0  0  0  0  0  0  0  0  0
   22.4003   -6.6331  -17.4109 O   0  0  0  0  0  0  0  0  0  0  0  0
   22.4667   -6.7033  -15.1026 N   0  0  0  0  0  0  0  0  0  0  0  0
   21.6331   -5.5467  -14.8439 C   0  0  1  0  0  0  0  0  0  0  0  0
   20.1644   -5.8891  -14.9606 C   0  0  0  0  0  0  0  0  0  0  0  0
   19.2820   -4.7998  -14.5432 C   0  0  0  0  0  0  0  0  0  0  0  0
   19.6917   -3.6134  -14.6956 O   0  0  0  0  0  0  0  0  0  0  0  0
   21.8672   -5.0877  -13.4547 C   0  0  0  0  0  0  0  0  0  0  0  0
   22.6308   -5.8827  -12.6209 O   0  0  0  0  0  0  0  0  0  0  0  0
   18.0215   -4.9663  -13.9892 O   0  0  0  0  0  0  0  0  0  0  0  0
   21.3883   -3.9960  -13.0211 O   0  0  0  0  0  0  0  0  0  0  0  0
  2  3  1  6
  2  1  1  0
  4  6  1  0
  4  2  1  0
  4  5  1  6
  6  8  1  0
  7  6  2  0
  8  9  1  0
  9 10  1  0
 10 12  1  0
 10 11  2  0
 12 13  1  0
 13 17  1  0
 13 14  1  1
 15 19  1  0
 15 14  1  0
 16 15  2  0
 17 18  1  0
 20 17  2  0
M  END
$$$$
