VGD.pdb
     RDKit          3D

 20 19  0  0  1  0  0  0  0  0999 V2000
   20.5231  -13.2304  -20.2599 C   0  0  0  0  0  0  0  0  0  0  0  0
   20.1821  -11.9412  -19.5081 C   0  0  1  0  0  0  0  0  0  0  0  0
   18.6826  -11.8165  -19.5538 C   0  0  0  0  0  0  0  0  0  0  0  0
   20.6461  -12.1344  -18.0650 C   0  0  2  0  0  0  0  0  0  0  0  0
   20.1332  -13.3812  -17.5305 N   0  0  0  0  0  0  0  0  0  0  0  0
   20.1385  -11.0540  -17.2006 C   0  0  0  0  0  0  0  0  0  0  0  0
   19.0981  -11.2578  -16.4856 O   0  0  0  0  0  0  0  0  0  0  0  0
   20.7261   -9.7693  -17.0920 N   0  0  0  0  0  0  0  0  0  0  0  0
   20.1463   -8.7778  -16.2245 C   0  0  0  0  0  0  0  0  0  0  0  0
   20.9574   -7.5633  -16.1071 C   0  0  0  0  0  0  0  0  0  0  0  0
   22.0559   -7.4213  -16.7179 O   0  0  0  0  0  0  0  0  0  0  0  0
   20.5109   -6.4858  -15.2775 N   0  0  0  0  0  0  0  0  0  0  0  0
   21.2544   -5.2472  -15.1662 C   0  0  1  0  0  0  0  0  0  0  0  0
   20.3392   -4.0800  -14.8695 C   0  0  0  0  0  0  0  0  0  0  0  0
   21.0499   -2.8093  -14.7291 C   0  0  0  0  0  0  0  0  0  0  0  0
   21.4396   -2.2285  -15.7823 O   0  0  0  0  0  0  0  0  0  0  0  0
   22.2046   -5.3580  -14.0347 C   0  0  0  0  0  0  0  0  0  0  0  0
   23.4065   -4.6807  -14.1185 O   0  0  0  0  0  0  0  0  0  0  0  0
   21.3324   -2.1861  -13.5228 O   0  0  0  0  0  0  0  0  0  0  0  0
   21.9417   -6.0517  -13.0058 O   0  0  0  0  0  0  0  0  0  0  0  0
  2  3  1  1
  2  1  1  0
  4  6  1  0
  4  2  1  0
  4  5  1  1
  6  8  1  0
  7  6  2  0
  8  9  1  0
  9 10  1  0
 10 12  1  0
 10 11  2  0
 12 13  1  0
 13 17  1  0
 13 14  1  1
 15 19  1  0
 15 14  1  0
 16 15  2  0
 17 18  1  0
 20 17  2  0
M  END
$$$$
