VGD.pdb
     RDKit          3D

 20 19  0  0  1  0  0  0  0  0999 V2000
   18.3243  -12.1554  -15.9467 C   0  0  0  0  0  0  0  0  0  0  0  0
   19.7123  -11.5177  -15.8450 C   0  0  1  0  0  0  0  0  0  0  0  0
   20.4673  -11.9660  -17.0678 C   0  0  0  0  0  0  0  0  0  0  0  0
   19.5079  -10.0038  -15.8835 C   0  0  2  0  0  0  0  0  0  0  0  0
   18.7897   -9.6199  -17.0836 N   0  0  0  0  0  0  0  0  0  0  0  0
   20.8021   -9.2992  -15.9121 C   0  0  0  0  0  0  0  0  0  0  0  0
   21.5245   -9.2693  -14.8574 O   0  0  0  0  0  0  0  0  0  0  0  0
   21.3287   -8.6327  -17.0460 N   0  0  0  0  0  0  0  0  0  0  0  0
   22.6045   -7.9704  -16.9702 C   0  0  0  0  0  0  0  0  0  0  0  0
   22.5022   -6.5517  -16.6191 C   0  0  0  0  0  0  0  0  0  0  0  0
   22.4371   -5.6408  -17.4945 O   0  0  0  0  0  0  0  0  0  0  0  0
   22.4731   -6.1585  -15.2432 N   0  0  0  0  0  0  0  0  0  0  0  0
   21.9686   -4.8653  -14.8276 C   0  0  1  0  0  0  0  0  0  0  0  0
   20.4935   -4.7258  -15.1320 C   0  0  0  0  0  0  0  0  0  0  0  0
   19.9370   -3.4384  -14.7167 C   0  0  0  0  0  0  0  0  0  0  0  0
   18.7018   -3.2400  -14.8989 O   0  0  0  0  0  0  0  0  0  0  0  0
   22.1276   -4.7374  -13.3601 C   0  0  0  0  0  0  0  0  0  0  0  0
   21.9545   -3.4914  -12.7875 O   0  0  0  0  0  0  0  0  0  0  0  0
   20.6626   -2.4100  -14.1341 O   0  0  0  0  0  0  0  0  0  0  0  0
   22.4153   -5.7333  -12.6289 O   0  0  0  0  0  0  0  0  0  0  0  0
  2  3  1  6
  2  1  1  0
  4  6  1  0
  4  2  1  0
  4  5  1  6
  6  8  1  0
  7  6  2  0
  8  9  1  0
  9 10  1  0
 10 12  1  0
 10 11  2  0
 12 13  1  0
 13 17  1  0
 13 14  1  1
 15 19  1  0
 15 14  1  0
 16 15  2  0
 17 18  1  0
 20 17  2  0
M  END
$$$$
