WLW.pdb
     RDKit          3D

 37 40  0  0  1  0  0  0  0  0999 V2000
   26.9066  -18.1985   -8.7260 N   0  0  0  0  0  0  0  0  0  0  0  0
   27.0787  -19.6553   -8.8322 C   0  0  1  0  0  0  0  0  0  0  0  0
   26.6900  -20.2397   -7.4696 C   0  0  0  0  0  0  0  0  0  0  0  0
   27.3641  -19.5137   -6.3812 C   0  0  0  0  0  0  0  0  0  0  0  0
   27.2472  -18.1602   -6.0779 C   0  0  0  0  0  0  0  0  0  0  0  0
   28.0381  -17.9319   -5.0264 N   0  0  0  0  0  0  0  0  0  0  0  0
   28.6532  -19.0815   -4.6472 C   0  0  0  0  0  0  0  0  0  0  0  0
   29.5445  -19.3622   -3.6372 C   0  0  0  0  0  0  0  0  0  0  0  0
   30.0236  -20.6446   -3.4679 C   0  0  0  0  0  0  0  0  0  0  0  0
   29.5977  -21.6416   -4.3241 C   0  0  0  0  0  0  0  0  0  0  0  0
   28.7136  -21.3983   -5.3366 C   0  0  0  0  0  0  0  0  0  0  0  0
   28.2420  -20.0942   -5.4900 C   0  0  0  0  0  0  0  0  0  0  0  0
   26.0893  -20.2142   -9.7935 C   0  0  0  0  0  0  0  0  0  0  0  0
   24.8900  -19.9122   -9.6380 O   0  0  0  0  0  0  0  0  0  0  0  0
   28.9416  -21.0988  -14.6240 C   0  0  0  0  0  0  0  0  0  0  0  0
   28.0674  -20.5725  -13.5218 C   0  0  1  0  0  0  0  0  0  0  0  0
   27.4425  -19.2805  -14.0883 C   0  0  0  0  0  0  0  0  0  0  0  0
   26.9298  -21.4631  -13.1611 C   0  0  0  0  0  0  0  0  0  0  0  0
   25.9566  -20.8873  -12.1630 C   0  0  2  0  0  0  0  0  0  0  0  0
   26.5334  -21.0572  -10.8383 N   0  0  0  0  0  0  0  0  0  0  0  0
   24.6098  -21.4635  -12.2191 C   0  0  0  0  0  0  0  0  0  0  0  0
   24.4699  -22.6800  -11.9030 O   0  0  0  0  0  0  0  0  0  0  0  0
   23.5138  -20.6565  -12.6193 N   0  0  0  0  0  0  0  0  0  0  0  0
   22.1786  -21.2014  -12.5208 C   0  0  1  0  0  0  0  0  0  0  0  0
   21.1710  -20.1085  -12.2144 C   0  0  0  0  0  0  0  0  0  0  0  0
   19.8137  -20.6207  -12.0155 C   0  0  0  0  0  0  0  0  0  0  0  0
   19.3415  -21.1122  -10.8172 C   0  0  0  0  0  0  0  0  0  0  0  0
   18.0637  -21.4930  -10.9725 N   0  0  0  0  0  0  0  0  0  0  0  0
   17.7269  -21.2473  -12.2531 C   0  0  0  0  0  0  0  0  0  0  0  0
   16.5254  -21.4638  -12.9107 C   0  0  0  0  0  0  0  0  0  0  0  0
   16.4436  -21.1184  -14.2492 C   0  0  0  0  0  0  0  0  0  0  0  0
   17.5295  -20.5723  -14.9143 C   0  0  0  0  0  0  0  0  0  0  0  0
   18.7256  -20.3535  -14.2721 C   0  0  0  0  0  0  0  0  0  0  0  0
   18.7943  -20.7006  -12.9418 C   0  0  0  0  0  0  0  0  0  0  0  0
   21.8338  -21.7012  -13.9013 C   0  0  0  0  0  0  0  0  0  0  0  0
   21.0978  -22.8619  -14.0845 O   0  0  0  0  0  0  0  0  0  0  0  0
   22.1992  -21.0874  -14.9450 O   0  0  0  0  0  0  0  0  0  0  0  0
  2  1  1  1
  2  3  1  0
  3  4  1  0
  4  5  2  0
  5  6  1  0
  7  8  2  0
  7  6  1  0
  9  8  1  0
 10  9  2  0
 11 10  1  0
 11 12  2  0
 12  4  1  0
 12  7  1  0
 13  2  1  0
 13 14  2  0
 16 18  1  0
 16 17  1  6
 16 15  1  0
 19 20  1  0
 19 18  1  6
 20 13  1  0
 21 19  1  0
 22 21  2  0
 23 21  1  0
 24 23  1  0
 25 26  1  0
 24 25  1  6
 26 27  2  0
 27 28  1  0
 29 28  1  0
 30 29  2  0
 31 30  1  0
 32 33  1  0
 32 31  2  0
 33 34  2  0
 34 26  1  0
 34 29  1  0
 35 24  1  0
 35 36  1  0
 37 35  2  0
M  END
$$$$
