WLW.pdb
     RDKit          3D

 37 40  0  0  1  0  0  0  0  0999 V2000
   26.8744  -21.7362  -13.7769 N   0  0  0  0  0  0  0  0  0  0  0  0
   27.1525  -20.6965  -12.7746 C   0  0  1  0  0  0  0  0  0  0  0  0
   26.0765  -19.6198  -12.9546 C   0  0  0  0  0  0  0  0  0  0  0  0
   26.0714  -19.1161  -14.3375 C   0  0  0  0  0  0  0  0  0  0  0  0
   24.9764  -19.0227  -15.1917 C   0  0  0  0  0  0  0  0  0  0  0  0
   25.4292  -18.5236  -16.3446 N   0  0  0  0  0  0  0  0  0  0  0  0
   26.7650  -18.2950  -16.2610 C   0  0  0  0  0  0  0  0  0  0  0  0
   27.6747  -17.7949  -17.1642 C   0  0  0  0  0  0  0  0  0  0  0  0
   29.0022  -17.6618  -16.8141 C   0  0  0  0  0  0  0  0  0  0  0  0
   29.4060  -18.0367  -15.5473 C   0  0  0  0  0  0  0  0  0  0  0  0
   28.5300  -18.5363  -14.6260 C   0  0  0  0  0  0  0  0  0  0  0  0
   27.1921  -18.6627  -15.0010 C   0  0  0  0  0  0  0  0  0  0  0  0
   26.9358  -21.2402  -11.4062 C   0  0  0  0  0  0  0  0  0  0  0  0
   26.0802  -22.1352  -11.2627 O   0  0  0  0  0  0  0  0  0  0  0  0
   27.8202  -21.3870   -5.8895 C   0  0  0  0  0  0  0  0  0  0  0  0
   27.6880  -20.0832   -6.6235 C   0  0  1  0  0  0  0  0  0  0  0  0
   28.6668  -19.1235   -5.9152 C   0  0  0  0  0  0  0  0  0  0  0  0
   28.1129  -20.1350   -8.0499 C   0  0  0  0  0  0  0  0  0  0  0  0
   27.1208  -20.7706   -8.9914 C   0  0  2  0  0  0  0  0  0  0  0  0
   27.6962  -20.7333  -10.3271 N   0  0  0  0  0  0  0  0  0  0  0  0
   25.7898  -20.1563   -8.9838 C   0  0  0  0  0  0  0  0  0  0  0  0
   25.6321  -19.0712   -9.6139 O   0  0  0  0  0  0  0  0  0  0  0  0
   24.7280  -20.7833   -8.2822 N   0  0  0  0  0  0  0  0  0  0  0  0
   23.3706  -20.5381   -8.7145 C   0  0  1  0  0  0  0  0  0  0  0  0
   23.1623  -21.0203  -10.1384 C   0  0  0  0  0  0  0  0  0  0  0  0
   21.7881  -20.8369  -10.6096 C   0  0  0  0  0  0  0  0  0  0  0  0
   20.8802  -19.9780  -10.0277 C   0  0  0  0  0  0  0  0  0  0  0  0
   19.7209  -20.0435  -10.7012 N   0  0  0  0  0  0  0  0  0  0  0  0
   19.8885  -20.9327  -11.6988 C   0  0  0  0  0  0  0  0  0  0  0  0
   18.9929  -21.3546  -12.6697 C   0  0  0  0  0  0  0  0  0  0  0  0
   19.4251  -22.2938  -13.5909 C   0  0  0  0  0  0  0  0  0  0  0  0
   20.7145  -22.7988  -13.5458 C   0  0  0  0  0  0  0  0  0  0  0  0
   21.6107  -22.3876  -12.5873 C   0  0  0  0  0  0  0  0  0  0  0  0
   21.1694  -21.4536  -11.6776 C   0  0  0  0  0  0  0  0  0  0  0  0
   22.4981  -21.4160   -7.8528 C   0  0  0  0  0  0  0  0  0  0  0  0
   21.2201  -21.0231   -7.4854 O   0  0  0  0  0  0  0  0  0  0  0  0
   22.8920  -22.5412   -7.4304 O   0  0  0  0  0  0  0  0  0  0  0  0
  2  1  1  6
  2  3  1  0
  3  4  1  0
  4  5  2  0
  5  6  1  0
  7  8  2  0
  7  6  1  0
  9  8  1  0
 10  9  2  0
 11 10  1  0
 11 12  2  0
 12  4  1  0
 12  7  1  0
 13  2  1  0
 13 14  2  0
 16 18  1  0
 16 17  1  1
 16 15  1  0
 19 20  1  0
 19 18  1  1
 20 13  1  0
 21 19  1  0
 22 21  2  0
 23 21  1  0
 24 23  1  0
 25 26  1  0
 24 25  1  6
 26 27  2  0
 27 28  1  0
 29 28  1  0
 30 29  2  0
 31 30  1  0
 32 33  1  0
 32 31  2  0
 33 34  2  0
 34 26  1  0
 34 29  1  0
 35 24  1  0
 35 36  1  0
 37 35  2  0
M  END
$$$$
