WLW.pdb
     RDKit          3D

 37 40  0  0  1  0  0  0  0  0999 V2000
   22.7628  -20.7226  -17.5293 N   0  0  0  0  0  0  0  0  0  0  0  0
   23.4413  -20.0015  -16.4418 C   0  0  1  0  0  0  0  0  0  0  0  0
   22.4168  -19.8557  -15.3110 C   0  0  0  0  0  0  0  0  0  0  0  0
   21.2741  -19.0372  -15.7472 C   0  0  0  0  0  0  0  0  0  0  0  0
   19.9418  -19.4324  -15.8273 C   0  0  0  0  0  0  0  0  0  0  0  0
   19.2549  -18.3801  -16.2792 N   0  0  0  0  0  0  0  0  0  0  0  0
   20.0923  -17.3322  -16.4899 C   0  0  0  0  0  0  0  0  0  0  0  0
   19.8729  -16.0510  -16.9413 C   0  0  0  0  0  0  0  0  0  0  0  0
   20.9242  -15.1665  -17.0638 C   0  0  0  0  0  0  0  0  0  0  0  0
   22.1980  -15.5828  -16.7283 C   0  0  0  0  0  0  0  0  0  0  0  0
   22.4514  -16.8469  -16.2766 C   0  0  0  0  0  0  0  0  0  0  0  0
   21.3737  -17.7253  -16.1605 C   0  0  0  0  0  0  0  0  0  0  0  0
   24.5299  -20.8443  -15.8763 C   0  0  0  0  0  0  0  0  0  0  0  0
   24.3692  -22.0804  -15.8736 O   0  0  0  0  0  0  0  0  0  0  0  0
   27.4964  -18.0875  -14.2899 C   0  0  0  0  0  0  0  0  0  0  0  0
   27.9519  -18.9050  -15.4647 C   0  0  1  0  0  0  0  0  0  0  0  0
   29.3766  -18.4007  -15.7756 C   0  0  0  0  0  0  0  0  0  0  0  0
   28.0763  -20.3629  -15.1878 C   0  0  0  0  0  0  0  0  0  0  0  0
   26.7789  -21.0713  -14.8882 C   0  0  2  0  0  0  0  0  0  0  0  0
   25.6959  -20.2266  -15.3678 N   0  0  0  0  0  0  0  0  0  0  0  0
   26.5812  -21.4153  -13.4770 C   0  0  0  0  0  0  0  0  0  0  0  0
   27.3888  -22.2301  -12.9448 O   0  0  0  0  0  0  0  0  0  0  0  0
   25.5072  -20.8354  -12.7538 N   0  0  0  0  0  0  0  0  0  0  0  0
   25.3621  -21.1556  -11.3517 C   0  0  1  0  0  0  0  0  0  0  0  0
   26.0506  -20.1157  -10.4867 C   0  0  0  0  0  0  0  0  0  0  0  0
   27.3340  -20.5749   -9.9517 C   0  0  0  0  0  0  0  0  0  0  0  0
   28.2485  -21.3168  -10.6685 C   0  0  0  0  0  0  0  0  0  0  0  0
   29.3150  -21.5664   -9.8925 N   0  0  0  0  0  0  0  0  0  0  0  0
   29.0824  -20.9911   -8.6972 C   0  0  0  0  0  0  0  0  0  0  0  0
   29.8731  -20.9624   -7.5585 C   0  0  0  0  0  0  0  0  0  0  0  0
   29.3907  -20.2923   -6.4468 C   0  0  0  0  0  0  0  0  0  0  0  0
   28.1540  -19.6681   -6.4692 C   0  0  0  0  0  0  0  0  0  0  0  0
   27.3617  -19.6904   -7.5928 C   0  0  0  0  0  0  0  0  0  0  0  0
   27.8522  -20.3592   -8.6913 C   0  0  0  0  0  0  0  0  0  0  0  0
   23.8898  -21.0298  -11.0498 C   0  0  0  0  0  0  0  0  0  0  0  0
   23.3653  -21.4442   -9.8350 O   0  0  0  0  0  0  0  0  0  0  0  0
   23.0750  -20.5444  -11.8865 O   0  0  0  0  0  0  0  0  0  0  0  0
  2  1  1  6
  2  3  1  0
  3  4  1  0
  4  5  2  0
  5  6  1  0
  7  8  2  0
  7  6  1  0
  9  8  1  0
 10  9  2  0
 11 10  1  0
 11 12  2  0
 12  4  1  0
 12  7  1  0
 13  2  1  0
 13 14  2  0
 16 18  1  0
 16 17  1  1
 16 15  1  0
 19 20  1  0
 19 18  1  1
 20 13  1  0
 21 19  1  0
 22 21  2  0
 23 21  1  0
 24 23  1  0
 25 26  1  0
 24 25  1  1
 26 27  2  0
 27 28  1  0
 29 28  1  0
 30 29  2  0
 31 30  1  0
 32 33  1  0
 32 31  2  0
 33 34  2  0
 34 26  1  0
 34 29  1  0
 35 24  1  0
 35 36  1  0
 37 35  2  0
M  END
$$$$
