WLW.pdb
     RDKit          3D

 37 40  0  0  1  0  0  0  0  0999 V2000
   20.6952  -19.5413  -14.8057 N   0  0  0  0  0  0  0  0  0  0  0  0
   21.9543  -18.8005  -14.6355 C   0  0  1  0  0  0  0  0  0  0  0  0
   21.6625  -17.6686  -13.6441 C   0  0  0  0  0  0  0  0  0  0  0  0
   20.9479  -16.5668  -14.3088 C   0  0  0  0  0  0  0  0  0  0  0  0
   19.6005  -16.2425  -14.1790 C   0  0  0  0  0  0  0  0  0  0  0  0
   19.3819  -15.1853  -14.9649 N   0  0  0  0  0  0  0  0  0  0  0  0
   20.5318  -14.8225  -15.5891 C   0  0  0  0  0  0  0  0  0  0  0  0
   20.8207  -13.8145  -16.4801 C   0  0  0  0  0  0  0  0  0  0  0  0
   22.1013  -13.6641  -16.9700 C   0  0  0  0  0  0  0  0  0  0  0  0
   23.0884  -14.5372  -16.5554 C   0  0  0  0  0  0  0  0  0  0  0  0
   22.8368  -15.5483  -15.6720 C   0  0  0  0  0  0  0  0  0  0  0  0
   21.5347  -15.6825  -15.1893 C   0  0  0  0  0  0  0  0  0  0  0  0
   22.9622  -19.6619  -13.9592 C   0  0  0  0  0  0  0  0  0  0  0  0
   22.5473  -20.5580  -13.1985 O   0  0  0  0  0  0  0  0  0  0  0  0
   27.4926  -22.4958  -14.0764 C   0  0  0  0  0  0  0  0  0  0  0  0
   27.7203  -21.0360  -13.8060 C   0  0  1  0  0  0  0  0  0  0  0  0
   28.9643  -20.6634  -14.6393 C   0  0  0  0  0  0  0  0  0  0  0  0
   26.6223  -20.1456  -14.2741 C   0  0  0  0  0  0  0  0  0  0  0  0
   25.3053  -20.3228  -13.5608 C   0  0  2  0  0  0  0  0  0  0  0  0
   24.3385  -19.4415  -14.1972 N   0  0  0  0  0  0  0  0  0  0  0  0
   25.3544  -20.0801  -12.1159 C   0  0  0  0  0  0  0  0  0  0  0  0
   24.6116  -19.1742  -11.6396 O   0  0  0  0  0  0  0  0  0  0  0  0
   26.2189  -20.8545  -11.3000 N   0  0  0  0  0  0  0  0  0  0  0  0
   26.8875  -20.2111  -10.1916 C   0  0  1  0  0  0  0  0  0  0  0  0
   25.9320  -20.0063   -9.0303 C   0  0  0  0  0  0  0  0  0  0  0  0
   26.5518  -19.3244   -7.8923 C   0  0  0  0  0  0  0  0  0  0  0  0
   26.6683  -17.9552   -7.7826 C   0  0  0  0  0  0  0  0  0  0  0  0
   27.2762  -17.6585   -6.6231 N   0  0  0  0  0  0  0  0  0  0  0  0
   27.5432  -18.8238   -6.0028 C   0  0  0  0  0  0  0  0  0  0  0  0
   28.1599  -19.0576   -4.7831 C   0  0  0  0  0  0  0  0  0  0  0  0
   28.3144  -20.3709   -4.3720 C   0  0  0  0  0  0  0  0  0  0  0  0
   27.8666  -21.4225   -5.1552 C   0  0  0  0  0  0  0  0  0  0  0  0
   27.2540  -21.2021   -6.3663 C   0  0  0  0  0  0  0  0  0  0  0  0
   27.1060  -19.8926   -6.7638 C   0  0  0  0  0  0  0  0  0  0  0  0
   27.9198  -21.1966   -9.7039 C   0  0  0  0  0  0  0  0  0  0  0  0
   29.0525  -20.7763   -9.0237 O   0  0  0  0  0  0  0  0  0  0  0  0
   27.7977  -22.4411   -9.8935 O   0  0  0  0  0  0  0  0  0  0  0  0
  2  1  1  1
  2  3  1  0
  3  4  1  0
  4  5  2  0
  5  6  1  0
  7  8  2  0
  7  6  1  0
  9  8  1  0
 10  9  2  0
 11 10  1  0
 11 12  2  0
 12  4  1  0
 12  7  1  0
 13  2  1  0
 13 14  2  0
 16 18  1  0
 16 17  1  6
 16 15  1  0
 19 20  1  0
 19 18  1  6
 20 13  1  0
 21 19  1  0
 22 21  2  0
 23 21  1  0
 24 23  1  0
 25 26  1  0
 24 25  1  1
 26 27  2  0
 27 28  1  0
 29 28  1  0
 30 29  2  0
 31 30  1  0
 32 33  1  0
 32 31  2  0
 33 34  2  0
 34 26  1  0
 34 29  1  0
 35 24  1  0
 35 36  1  0
 37 35  2  0
M  END
$$$$
