WLW.pdb
     RDKit          3D

 37 40  0  0  1  0  0  0  0  0999 V2000
   25.8447  -20.5859  -16.6154 N   0  0  0  0  0  0  0  0  0  0  0  0
   25.6512  -19.7704  -15.4069 C   0  0  1  0  0  0  0  0  0  0  0  0
   24.9641  -18.4774  -15.8600 C   0  0  0  0  0  0  0  0  0  0  0  0
   25.8458  -17.7044  -16.7496 C   0  0  0  0  0  0  0  0  0  0  0  0
   25.4585  -16.8423  -17.7715 C   0  0  0  0  0  0  0  0  0  0  0  0
   26.5797  -16.3688  -18.3209 N   0  0  0  0  0  0  0  0  0  0  0  0
   27.6639  -16.8920  -17.6928 C   0  0  0  0  0  0  0  0  0  0  0  0
   29.0153  -16.7177  -17.8839 C   0  0  0  0  0  0  0  0  0  0  0  0
   29.9228  -17.3838  -17.0868 C   0  0  0  0  0  0  0  0  0  0  0  0
   29.4580  -18.2269  -16.0959 C   0  0  0  0  0  0  0  0  0  0  0  0
   28.1238  -18.4227  -15.8784 C   0  0  0  0  0  0  0  0  0  0  0  0
   27.2234  -17.7393  -16.6963 C   0  0  0  0  0  0  0  0  0  0  0  0
   24.6761  -20.4332  -14.4985 C   0  0  0  0  0  0  0  0  0  0  0  0
   23.8905  -21.2651  -14.9929 O   0  0  0  0  0  0  0  0  0  0  0  0
   26.4050  -20.5584   -9.3957 C   0  0  0  0  0  0  0  0  0  0  0  0
   25.8339  -20.8878  -10.7453 C   0  0  1  0  0  0  0  0  0  0  0  0
   26.1327  -22.3874  -10.9517 C   0  0  0  0  0  0  0  0  0  0  0  0
   24.3551  -20.7399  -10.8398 C   0  0  0  0  0  0  0  0  0  0  0  0
   23.7885  -20.8435  -12.2336 C   0  0  2  0  0  0  0  0  0  0  0  0
   24.6713  -20.1046  -13.1231 N   0  0  0  0  0  0  0  0  0  0  0  0
   22.4063  -20.3742  -12.3688 C   0  0  0  0  0  0  0  0  0  0  0  0
   22.1267  -19.2173  -11.9412 O   0  0  0  0  0  0  0  0  0  0  0  0
   21.4318  -21.2143  -12.9664 N   0  0  0  0  0  0  0  0  0  0  0  0
   20.0967  -20.6966  -13.1640 C   0  0  1  0  0  0  0  0  0  0  0  0
   20.0025  -19.9316  -14.4715 C   0  0  0  0  0  0  0  0  0  0  0  0
   20.0824  -20.7985  -15.6489 C   0  0  0  0  0  0  0  0  0  0  0  0
   19.4560  -22.0223  -15.7508 C   0  0  0  0  0  0  0  0  0  0  0  0
   19.7256  -22.5540  -16.9536 N   0  0  0  0  0  0  0  0  0  0  0  0
   20.5136  -21.6800  -17.6087 C   0  0  0  0  0  0  0  0  0  0  0  0
   21.0637  -21.7624  -18.8789 C   0  0  0  0  0  0  0  0  0  0  0  0
   21.8499  -20.7105  -19.3180 C   0  0  0  0  0  0  0  0  0  0  0  0
   22.0818  -19.6067  -18.5133 C   0  0  0  0  0  0  0  0  0  0  0  0
   21.5415  -19.5147  -17.2522 C   0  0  0  0  0  0  0  0  0  0  0  0
   20.7616  -20.5664  -16.8272 C   0  0  0  0  0  0  0  0  0  0  0  0
   19.2066  -21.9027  -13.3300 C   0  0  0  0  0  0  0  0  0  0  0  0
   19.7375  -23.1740  -13.4864 O   0  0  0  0  0  0  0  0  0  0  0  0
   17.9455  -21.8073  -13.3340 O   0  0  0  0  0  0  0  0  0  0  0  0
  2  1  1  6
  2  3  1  0
  3  4  1  0
  4  5  2  0
  5  6  1  0
  7  8  2  0
  7  6  1  0
  9  8  1  0
 10  9  2  0
 11 10  1  0
 11 12  2  0
 12  4  1  0
 12  7  1  0
 13  2  1  0
 13 14  2  0
 16 18  1  0
 16 17  1  1
 16 15  1  0
 19 20  1  0
 19 18  1  1
 20 13  1  0
 21 19  1  0
 22 21  2  0
 23 21  1  0
 24 23  1  0
 25 26  1  0
 24 25  1  6
 26 27  2  0
 27 28  1  0
 29 28  1  0
 30 29  2  0
 31 30  1  0
 32 33  1  0
 32 31  2  0
 33 34  2  0
 34 26  1  0
 34 29  1  0
 35 24  1  0
 35 36  1  0
 37 35  2  0
M  END
$$$$
