IYF.pdb
     RDKit          3D

 32 33  0  0  1  0  0  0  0  0999 V2000
    7.5332  -13.3750   16.4818 C   0  0  0  0  0  0  0  0  0  0  0  0
    8.3649  -14.3736   17.2072 C   0  0  0  0  0  0  0  0  0  0  0  0
    8.4403  -14.1979   18.6773 C   0  0  2  0  0  0  0  0  0  0  0  0
    8.9333  -12.8090   19.0214 C   0  0  0  0  0  0  0  0  0  0  0  0
    9.1904  -15.2472   19.4210 C   0  0  2  0  0  0  0  0  0  0  0  0
    8.7756  -16.5864   19.1850 N   0  0  0  0  0  0  0  0  0  0  0  0
    9.2267  -14.9836   20.8815 C   0  0  0  0  0  0  0  0  0  0  0  0
    9.9509  -14.0619   21.3131 O   0  0  0  0  0  0  0  0  0  0  0  0
    5.5635  -11.7685   27.3733 O   0  0  0  0  0  0  0  0  0  0  0  0
    5.9897  -12.7679   26.5390 C   0  0  0  0  0  0  0  0  0  0  0  0
    6.5326  -12.4625   25.3069 C   0  0  0  0  0  0  0  0  0  0  0  0
    6.9665  -13.4495   24.4547 C   0  0  0  0  0  0  0  0  0  0  0  0
    6.8424  -14.7752   24.8713 C   0  0  0  0  0  0  0  0  0  0  0  0
    7.3010  -15.8158   23.9281 C   0  0  0  0  0  0  0  0  0  0  0  0
    8.5704  -15.4628   23.2174 C   0  0  2  0  0  0  0  0  0  0  0  0
    8.4603  -15.7542   21.7808 N   0  0  0  0  0  0  0  0  0  0  0  0
    9.7056  -16.2023   23.7947 C   0  0  0  0  0  0  0  0  0  0  0  0
   10.8353  -16.2549   23.2594 O   0  0  0  0  0  0  0  0  0  0  0  0
    6.3039  -15.0881   26.0937 C   0  0  0  0  0  0  0  0  0  0  0  0
    5.8705  -14.0932   26.9444 C   0  0  0  0  0  0  0  0  0  0  0  0
    9.5098  -16.8955   25.0279 N   0  0  0  0  0  0  0  0  0  0  0  0
   10.6569  -17.5486   25.6266 C   0  0  1  0  0  0  0  0  0  0  0  0
   11.6146  -16.4750   26.0822 C   0  0  0  0  0  0  0  0  0  0  0  0
   11.1472  -15.7378   27.2696 C   0  0  0  0  0  0  0  0  0  0  0  0
   11.2081  -16.2758   28.5520 C   0  0  0  0  0  0  0  0  0  0  0  0
   10.7718  -15.5649   29.6487 C   0  0  0  0  0  0  0  0  0  0  0  0
   10.2663  -14.2890   29.4384 C   0  0  0  0  0  0  0  0  0  0  0  0
   10.1959  -13.7347   28.1774 C   0  0  0  0  0  0  0  0  0  0  0  0
   10.6372  -14.4597   27.0890 C   0  0  0  0  0  0  0  0  0  0  0  0
   10.1739  -18.4094   26.7106 C   0  0  0  0  0  0  0  0  0  0  0  0
    8.9419  -18.4617   26.9486 O   0  0  0  0  0  0  0  0  0  0  0  0
   11.0130  -19.1841   27.5037 O   0  0  0  0  0  0  0  0  0  0  0  0
  2  1  1  0
  3  2  1  0
  3  4  1  6
  5  6  1  1
  5  3  1  0
  7  5  1  0
  8  7  2  0
 10 11  2  0
 10  9  1  0
 12 11  1  0
 13 12  2  0
 14 13  1  0
 15 14  1  1
 15 16  1  0
 16  7  1  0
 17 21  1  0
 17 15  1  0
 18 17  2  0
 19 13  1  0
 19 20  2  0
 20 10  1  0
 22 23  1  1
 22 21  1  0
 23 24  1  0
 24 29  1  0
 25 24  2  0
 25 26  1  0
 26 27  2  0
 27 28  1  0
 29 28  2  0
 30 22  1  0
 30 32  1  0
 31 30  2  0
M  END
$$$$
