IYF.pdb
     RDKit          3D

 32 33  0  0  1  0  0  0  0  0999 V2000
    7.1537  -12.4503   18.8632 C   0  0  0  0  0  0  0  0  0  0  0  0
    7.5938  -13.8587   18.6689 C   0  0  0  0  0  0  0  0  0  0  0  0
    8.1731  -14.5194   19.8629 C   0  0  2  0  0  0  0  0  0  0  0  0
    9.3571  -13.7331   20.3828 C   0  0  0  0  0  0  0  0  0  0  0  0
    8.4960  -15.9653   19.7148 C   0  0  2  0  0  0  0  0  0  0  0  0
    7.4424  -16.7859   19.2272 N   0  0  0  0  0  0  0  0  0  0  0  0
    9.0489  -16.5485   20.9631 C   0  0  0  0  0  0  0  0  0  0  0  0
    8.2608  -16.9508   21.8447 O   0  0  0  0  0  0  0  0  0  0  0  0
   12.7892  -23.3613   22.6609 O   0  0  0  0  0  0  0  0  0  0  0  0
   12.6587  -22.0017   22.5554 C   0  0  0  0  0  0  0  0  0  0  0  0
   13.7464  -21.2219   22.2164 C   0  0  0  0  0  0  0  0  0  0  0  0
   13.6374  -19.8564   22.1051 C   0  0  0  0  0  0  0  0  0  0  0  0
   12.3910  -19.2775   22.3454 C   0  0  0  0  0  0  0  0  0  0  0  0
   12.3072  -17.8065   22.2353 C   0  0  0  0  0  0  0  0  0  0  0  0
   10.9203  -17.2706   22.4097 C   0  0  2  0  0  0  0  0  0  0  0  0
   10.4411  -16.6532   21.1648 N   0  0  0  0  0  0  0  0  0  0  0  0
   10.8832  -16.2872   23.5052 C   0  0  0  0  0  0  0  0  0  0  0  0
   11.1933  -15.0838   23.3595 O   0  0  0  0  0  0  0  0  0  0  0  0
   11.3049  -20.0445   22.6830 C   0  0  0  0  0  0  0  0  0  0  0  0
   11.4205  -21.4141   22.7930 C   0  0  0  0  0  0  0  0  0  0  0  0
   10.4727  -16.7266   24.8006 N   0  0  0  0  0  0  0  0  0  0  0  0
   10.1020  -15.7166   25.7718 C   0  0  1  0  0  0  0  0  0  0  0  0
    8.9528  -14.9238   25.1989 C   0  0  0  0  0  0  0  0  0  0  0  0
    8.4062  -13.9244   26.1338 C   0  0  0  0  0  0  0  0  0  0  0  0
    7.1978  -13.2727   25.9047 C   0  0  0  0  0  0  0  0  0  0  0  0
    6.7025  -12.3469   26.7969 C   0  0  0  0  0  0  0  0  0  0  0  0
    7.4466  -12.0799   27.9383 C   0  0  0  0  0  0  0  0  0  0  0  0
    8.6466  -12.7130   28.1871 C   0  0  0  0  0  0  0  0  0  0  0  0
    9.1290  -13.6380   27.2835 C   0  0  0  0  0  0  0  0  0  0  0  0
    9.7829  -16.3946   27.0319 C   0  0  0  0  0  0  0  0  0  0  0  0
   10.0826  -15.8408   28.1185 O   0  0  0  0  0  0  0  0  0  0  0  0
    9.1578  -17.6349   27.0961 O   0  0  0  0  0  0  0  0  0  0  0  0
  2  1  1  0
  3  2  1  0
  3  4  1  6
  5  6  1  1
  5  3  1  0
  7  5  1  0
  8  7  2  0
 10 11  2  0
 10  9  1  0
 12 11  1  0
 13 12  2  0
 14 13  1  0
 15 14  1  6
 15 16  1  0
 16  7  1  0
 17 21  1  0
 17 15  1  0
 18 17  2  0
 19 13  1  0
 19 20  2  0
 20 10  1  0
 22 23  1  6
 22 21  1  0
 23 24  1  0
 24 29  1  0
 25 24  2  0
 25 26  1  0
 26 27  2  0
 27 28  1  0
 29 28  2  0
 30 22  1  0
 30 32  1  0
 31 30  2  0
M  END
$$$$
