IYF.pdb
     RDKit          3D

 32 33  0  0  1  0  0  0  0  0999 V2000
    7.1601  -11.9790   19.6529 C   0  0  0  0  0  0  0  0  0  0  0  0
    7.5839  -13.3779   19.3720 C   0  0  0  0  0  0  0  0  0  0  0  0
    7.9561  -14.1851   20.5583 C   0  0  2  0  0  0  0  0  0  0  0  0
    8.9969  -13.4630   21.3866 C   0  0  0  0  0  0  0  0  0  0  0  0
    8.3500  -15.5954   20.2889 C   0  0  2  0  0  0  0  0  0  0  0  0
    7.4654  -16.3349   19.4572 N   0  0  0  0  0  0  0  0  0  0  0  0
    8.6150  -16.3533   21.5377 C   0  0  0  0  0  0  0  0  0  0  0  0
    7.6548  -16.6604   22.2753 O   0  0  0  0  0  0  0  0  0  0  0  0
   12.0756  -21.6368   27.5142 O   0  0  0  0  0  0  0  0  0  0  0  0
   11.9128  -20.8022   26.4402 C   0  0  0  0  0  0  0  0  0  0  0  0
   10.9525  -21.0740   25.4862 C   0  0  0  0  0  0  0  0  0  0  0  0
   10.7725  -20.2499   24.4012 C   0  0  0  0  0  0  0  0  0  0  0  0
   11.5912  -19.1257   24.2901 C   0  0  0  0  0  0  0  0  0  0  0  0
   11.3870  -18.2674   23.1050 C   0  0  0  0  0  0  0  0  0  0  0  0
   10.1173  -17.4757   23.1502 C   0  0  2  0  0  0  0  0  0  0  0  0
    9.9260  -16.7279   21.8991 N   0  0  0  0  0  0  0  0  0  0  0  0
   10.1304  -16.5476   24.2935 C   0  0  0  0  0  0  0  0  0  0  0  0
   10.8967  -15.5615   24.3696 O   0  0  0  0  0  0  0  0  0  0  0  0
   12.5481  -18.8480   25.2330 C   0  0  0  0  0  0  0  0  0  0  0  0
   12.7238  -19.6786   26.3196 C   0  0  0  0  0  0  0  0  0  0  0  0
    9.2234  -16.7828   25.3713 N   0  0  0  0  0  0  0  0  0  0  0  0
    9.4004  -16.0109   26.5853 C   0  0  1  0  0  0  0  0  0  0  0  0
    8.0426  -15.5179   27.0220 C   0  0  0  0  0  0  0  0  0  0  0  0
    7.6486  -14.2471   26.3883 C   0  0  0  0  0  0  0  0  0  0  0  0
    8.3513  -13.0631   26.5936 C   0  0  0  0  0  0  0  0  0  0  0  0
    7.9686  -11.8880   25.9846 C   0  0  0  0  0  0  0  0  0  0  0  0
    6.8557  -11.9171   25.1549 C   0  0  0  0  0  0  0  0  0  0  0  0
    6.1437  -13.0779   24.9359 C   0  0  0  0  0  0  0  0  0  0  0  0
    6.5399  -14.2469   25.5534 C   0  0  0  0  0  0  0  0  0  0  0  0
   10.0652  -16.8660   27.5734 C   0  0  0  0  0  0  0  0  0  0  0  0
   10.5213  -16.3487   28.6230 O   0  0  0  0  0  0  0  0  0  0  0  0
   10.2232  -18.2382   27.4145 O   0  0  0  0  0  0  0  0  0  0  0  0
  2  1  1  0
  3  2  1  0
  3  4  1  6
  5  6  1  1
  5  3  1  0
  7  5  1  0
  8  7  2  0
 10 11  2  0
 10  9  1  0
 12 11  1  0
 13 12  2  0
 14 13  1  0
 15 14  1  6
 15 16  1  0
 16  7  1  0
 17 21  1  0
 17 15  1  0
 18 17  2  0
 19 13  1  0
 19 20  2  0
 20 10  1  0
 22 23  1  1
 22 21  1  0
 23 24  1  0
 24 29  1  0
 25 24  2  0
 25 26  1  0
 26 27  2  0
 27 28  1  0
 29 28  2  0
 30 22  1  0
 30 32  1  0
 31 30  2  0
M  END
$$$$
