IYF.pdb
     RDKit          3D

 32 33  0  0  1  0  0  0  0  0999 V2000
    5.7794  -20.2818   26.3515 C   0  0  0  0  0  0  0  0  0  0  0  0
    5.7104  -19.6756   24.9939 C   0  0  0  0  0  0  0  0  0  0  0  0
    6.8517  -18.8059   24.6217 C   0  0  2  0  0  0  0  0  0  0  0  0
    7.0431  -17.7119   25.6499 C   0  0  0  0  0  0  0  0  0  0  0  0
    6.8303  -18.2604   23.2365 C   0  0  2  0  0  0  0  0  0  0  0  0
    6.4816  -19.1853   22.2146 N   0  0  0  0  0  0  0  0  0  0  0  0
    8.0994  -17.5766   22.8820 C   0  0  0  0  0  0  0  0  0  0  0  0
    8.9654  -18.2034   22.2360 O   0  0  0  0  0  0  0  0  0  0  0  0
    6.8296  -13.9693   17.6129 O   0  0  0  0  0  0  0  0  0  0  0  0
    7.4890  -14.0280   18.8122 C   0  0  0  0  0  0  0  0  0  0  0  0
    8.5126  -14.9352   19.0006 C   0  0  0  0  0  0  0  0  0  0  0  0
    9.1871  -15.0106   20.1956 C   0  0  0  0  0  0  0  0  0  0  0  0
    8.8069  -14.1408   21.2180 C   0  0  0  0  0  0  0  0  0  0  0  0
    9.5376  -14.2559   22.4969 C   0  0  0  0  0  0  0  0  0  0  0  0
    9.6631  -15.6635   22.9907 C   0  0  2  0  0  0  0  0  0  0  0  0
    8.3381  -16.2393   23.2622 N   0  0  0  0  0  0  0  0  0  0  0  0
   10.4902  -15.7095   24.2083 C   0  0  0  0  0  0  0  0  0  0  0  0
   11.6689  -15.2924   24.2547 O   0  0  0  0  0  0  0  0  0  0  0  0
    7.7909  -13.2365   21.0399 C   0  0  0  0  0  0  0  0  0  0  0  0
    7.1178  -13.1654   19.8384 C   0  0  0  0  0  0  0  0  0  0  0  0
    9.9204  -16.2574   25.3978 N   0  0  0  0  0  0  0  0  0  0  0  0
   10.7707  -16.3686   26.5663 C   0  0  1  0  0  0  0  0  0  0  0  0
    9.9740  -15.9103   27.7632 C   0  0  0  0  0  0  0  0  0  0  0  0
    9.4494  -14.5398   27.6285 C   0  0  0  0  0  0  0  0  0  0  0  0
   10.2798  -13.4228   27.6110 C   0  0  0  0  0  0  0  0  0  0  0  0
    9.7672  -12.1510   27.4766 C   0  0  0  0  0  0  0  0  0  0  0  0
    8.3907  -12.0129   27.3583 C   0  0  0  0  0  0  0  0  0  0  0  0
    7.5478  -13.1045   27.3728 C   0  0  0  0  0  0  0  0  0  0  0  0
    8.0769  -14.3721   27.5081 C   0  0  0  0  0  0  0  0  0  0  0  0
   11.2336  -17.7565   26.6599 C   0  0  0  0  0  0  0  0  0  0  0  0
   11.9101  -18.1107   27.6570 O   0  0  0  0  0  0  0  0  0  0  0  0
   10.9634  -18.7197   25.6942 O   0  0  0  0  0  0  0  0  0  0  0  0
  2  1  1  0
  3  2  1  0
  3  4  1  1
  5  6  1  6
  5  3  1  0
  7  5  1  0
  8  7  2  0
 10 11  2  0
 10  9  1  0
 12 11  1  0
 13 12  2  0
 14 13  1  0
 15 14  1  1
 15 16  1  0
 16  7  1  0
 17 21  1  0
 17 15  1  0
 18 17  2  0
 19 13  1  0
 19 20  2  0
 20 10  1  0
 22 23  1  1
 22 21  1  0
 23 24  1  0
 24 29  1  0
 25 24  2  0
 25 26  1  0
 26 27  2  0
 27 28  1  0
 29 28  2  0
 30 22  1  0
 30 32  1  0
 31 30  2  0
M  END
$$$$
