WNM.pdb
     RDKit          3D

 31 32  0  0  1  0  0  0  0  0999 V2000
   24.8328  -19.7114   -9.6967 N   0  0  0  0  0  0  0  0  0  0  0  0
   25.3103  -20.2225  -10.9994 C   0  0  1  0  0  0  0  0  0  0  0  0
   26.0949  -21.4566  -10.6683 C   0  0  0  0  0  0  0  0  0  0  0  0
   27.3298  -21.2186   -9.9021 C   0  0  0  0  0  0  0  0  0  0  0  0
   28.6172  -21.5360  -10.3713 C   0  0  0  0  0  0  0  0  0  0  0  0
   29.5287  -21.1603   -9.4674 N   0  0  0  0  0  0  0  0  0  0  0  0
   28.9197  -20.6025   -8.4039 C   0  0  0  0  0  0  0  0  0  0  0  0
   29.4025  -20.0753   -7.2150 C   0  0  0  0  0  0  0  0  0  0  0  0
   28.5316  -19.5811   -6.2816 C   0  0  0  0  0  0  0  0  0  0  0  0
   27.1787  -19.6161   -6.5408 C   0  0  0  0  0  0  0  0  0  0  0  0
   26.7057  -20.1425   -7.7280 C   0  0  0  0  0  0  0  0  0  0  0  0
   27.5687  -20.6414   -8.6763 C   0  0  0  0  0  0  0  0  0  0  0  0
   24.1790  -20.5161  -11.8874 C   0  0  0  0  0  0  0  0  0  0  0  0
   23.0800  -20.9750  -11.4831 O   0  0  0  0  0  0  0  0  0  0  0  0
   21.1080  -18.6124  -15.5542 N   0  0  0  0  0  0  0  0  0  0  0  0
   22.4616  -18.2873  -15.8876 C   0  0  0  0  0  0  0  0  0  0  0  0
   22.6091  -17.4214  -16.7859 O   0  0  0  0  0  0  0  0  0  0  0  0
   23.5947  -18.9522  -15.1946 C   0  0  0  0  0  0  0  0  0  0  0  0
   23.1339  -19.8150  -14.0457 C   0  0  2  0  0  0  0  0  0  0  0  0
   24.2574  -20.2944  -13.3126 N   0  0  0  0  0  0  0  0  0  0  0  0
   22.3219  -20.9275  -14.6302 C   0  0  0  0  0  0  0  0  0  0  0  0
   22.8372  -21.5714  -15.5712 O   0  0  0  0  0  0  0  0  0  0  0  0
   17.5647  -23.8126  -11.3926 C   0  0  0  0  0  0  0  0  0  0  0  0
   19.0997  -24.6918  -11.6696 S   0  0  0  0  0  0  0  0  0  0  0  0
   20.1775  -23.8417  -12.8631 C   0  0  0  0  0  0  0  0  0  0  0  0
   19.4142  -23.0585  -13.8592 C   0  0  0  0  0  0  0  0  0  0  0  0
   20.3009  -22.3709  -14.8396 C   0  0  2  0  0  0  0  0  0  0  0  0
   21.0330  -21.2720  -14.1764 N   0  0  0  0  0  0  0  0  0  0  0  0
   19.4873  -21.7423  -15.9028 C   0  0  0  0  0  0  0  0  0  0  0  0
   19.3582  -22.4306  -17.1225 O   0  0  0  0  0  0  0  0  0  0  0  0
   18.9039  -20.6203  -15.7692 O   0  0  0  0  0  0  0  0  0  0  0  0
  2  1  1  1
  2 13  1  0
  2  3  1  0
  3  4  1  0
  4  5  2  0
  6  5  1  0
  7  6  1  0
  8  7  2  0
  9  8  1  0
 10 11  1  0
 10  9  2  0
 11 12  2  0
 12  7  1  0
 12  4  1  0
 13 14  2  0
 15 16  1  0
 16 17  2  0
 19 18  1  6
 18 16  1  0
 20 19  1  0
 20 13  1  0
 21 19  1  0
 22 21  2  0
 23 24  1  0
 24 25  1  0
 25 26  1  0
 27 26  1  1
 27 28  1  0
 28 21  1  0
 29 30  1  0
 29 27  1  0
 31 29  2  0
M  END
$$$$
