WNM.pdb
     RDKit          3D

 31 32  0  0  1  0  0  0  0  0999 V2000
   26.4468  -19.7975  -12.5161 N   0  0  0  0  0  0  0  0  0  0  0  0
   26.0446  -21.2136  -12.3772 C   0  0  1  0  0  0  0  0  0  0  0  0
   25.3689  -21.2960  -11.0412 C   0  0  0  0  0  0  0  0  0  0  0  0
   26.1427  -20.7367   -9.9201 C   0  0  0  0  0  0  0  0  0  0  0  0
   25.5738  -20.0034   -8.8632 C   0  0  0  0  0  0  0  0  0  0  0  0
   26.5259  -19.6725   -7.9840 N   0  0  0  0  0  0  0  0  0  0  0  0
   27.7172  -20.1466   -8.3954 C   0  0  0  0  0  0  0  0  0  0  0  0
   28.9952  -20.0652   -7.8619 C   0  0  0  0  0  0  0  0  0  0  0  0
   30.0497  -20.6383   -8.5203 C   0  0  0  0  0  0  0  0  0  0  0  0
   29.8221  -21.2917   -9.7120 C   0  0  0  0  0  0  0  0  0  0  0  0
   28.5457  -21.3688  -10.2366 C   0  0  0  0  0  0  0  0  0  0  0  0
   27.4758  -20.7992   -9.5856 C   0  0  0  0  0  0  0  0  0  0  0  0
   25.1460  -21.6068  -13.4693 C   0  0  0  0  0  0  0  0  0  0  0  0
   24.4541  -20.7887  -14.1277 O   0  0  0  0  0  0  0  0  0  0  0  0
   26.9143  -25.6135  -16.3013 N   0  0  0  0  0  0  0  0  0  0  0  0
   25.9643  -24.5427  -16.2971 C   0  0  0  0  0  0  0  0  0  0  0  0
   26.2919  -23.5203  -16.9496 O   0  0  0  0  0  0  0  0  0  0  0  0
   24.6828  -24.6680  -15.5567 C   0  0  0  0  0  0  0  0  0  0  0  0
   24.2130  -23.3462  -15.0011 C   0  0  2  0  0  0  0  0  0  0  0  0
   24.9939  -22.9878  -13.8647 N   0  0  0  0  0  0  0  0  0  0  0  0
   22.7629  -23.5010  -14.6664 C   0  0  0  0  0  0  0  0  0  0  0  0
   22.0030  -23.8626  -15.5924 O   0  0  0  0  0  0  0  0  0  0  0  0
   19.1176  -25.5093   -9.3077 C   0  0  0  0  0  0  0  0  0  0  0  0
   18.5704  -23.8691   -9.7730 S   0  0  0  0  0  0  0  0  0  0  0  0
   18.9837  -23.4661  -11.4980 C   0  0  0  0  0  0  0  0  0  0  0  0
   20.4379  -23.5264  -11.7619 C   0  0  0  0  0  0  0  0  0  0  0  0
   20.7651  -23.2745  -13.1936 C   0  0  2  0  0  0  0  0  0  0  0  0
   22.2303  -23.2625  -13.3836 N   0  0  0  0  0  0  0  0  0  0  0  0
   20.2859  -21.9336  -13.5933 C   0  0  0  0  0  0  0  0  0  0  0  0
   19.0862  -21.8571  -14.3233 O   0  0  0  0  0  0  0  0  0  0  0  0
   20.8999  -20.8562  -13.3116 O   0  0  0  0  0  0  0  0  0  0  0  0
  2  1  1  6
  2 13  1  0
  2  3  1  0
  3  4  1  0
  4  5  2  0
  6  5  1  0
  7  6  1  0
  8  7  2  0
  9  8  1  0
 10 11  1  0
 10  9  2  0
 11 12  2  0
 12  7  1  0
 12  4  1  0
 13 14  2  0
 15 16  1  0
 16 17  2  0
 19 18  1  1
 18 16  1  0
 20 19  1  0
 20 13  1  0
 21 19  1  0
 22 21  2  0
 23 24  1  0
 24 25  1  0
 25 26  1  0
 27 26  1  1
 27 28  1  0
 28 21  1  0
 29 30  1  0
 29 27  1  0
 31 29  2  0
M  END
$$$$
