WNM.pdb
     RDKit          3D

 31 32  0  0  1  0  0  0  0  0999 V2000
   26.9838  -22.1700   -9.7198 N   0  0  0  0  0  0  0  0  0  0  0  0
   26.5676  -20.7593   -9.5686 C   0  0  1  0  0  0  0  0  0  0  0  0
   27.8460  -19.9757   -9.5642 C   0  0  0  0  0  0  0  0  0  0  0  0
   28.7705  -20.3049   -8.4663 C   0  0  0  0  0  0  0  0  0  0  0  0
   29.9281  -21.0883   -8.6241 C   0  0  0  0  0  0  0  0  0  0  0  0
   30.5769  -21.1690   -7.4573 N   0  0  0  0  0  0  0  0  0  0  0  0
   29.9127  -20.4769   -6.5123 C   0  0  0  0  0  0  0  0  0  0  0  0
   30.1522  -20.2627   -5.1629 C   0  0  0  0  0  0  0  0  0  0  0  0
   29.2769  -19.5147   -4.4224 C   0  0  0  0  0  0  0  0  0  0  0  0
   28.1632  -18.9826   -5.0352 C   0  0  0  0  0  0  0  0  0  0  0  0
   27.9321  -19.2002   -6.3805 C   0  0  0  0  0  0  0  0  0  0  0  0
   28.8035  -19.9485   -7.1379 C   0  0  0  0  0  0  0  0  0  0  0  0
   25.6847  -20.3582  -10.6706 C   0  0  0  0  0  0  0  0  0  0  0  0
   25.2471  -19.1886  -10.8191 O   0  0  0  0  0  0  0  0  0  0  0  0
   25.7934  -20.1787  -16.0715 N   0  0  0  0  0  0  0  0  0  0  0  0
   25.0217  -21.1766  -15.3949 C   0  0  0  0  0  0  0  0  0  0  0  0
   24.0131  -21.5986  -16.0137 O   0  0  0  0  0  0  0  0  0  0  0  0
   25.4187  -21.6585  -14.0471 C   0  0  0  0  0  0  0  0  0  0  0  0
   24.7731  -20.8592  -12.9422 C   0  0  2  0  0  0  0  0  0  0  0  0
   25.2509  -21.3014  -11.6750 N   0  0  0  0  0  0  0  0  0  0  0  0
   23.2935  -21.0323  -13.0819 C   0  0  0  0  0  0  0  0  0  0  0  0
   22.8197  -22.1437  -12.7560 O   0  0  0  0  0  0  0  0  0  0  0  0
   19.6871  -15.8015  -13.8263 C   0  0  0  0  0  0  0  0  0  0  0  0
   19.1884  -16.7180  -12.3712 S   0  0  0  0  0  0  0  0  0  0  0  0
   19.9942  -18.3457  -12.2697 C   0  0  0  0  0  0  0  0  0  0  0  0
   20.2593  -18.9315  -13.6018 C   0  0  0  0  0  0  0  0  0  0  0  0
   20.9713  -20.2376  -13.5151 C   0  0  2  0  0  0  0  0  0  0  0  0
   22.4325  -20.0211  -13.5533 N   0  0  0  0  0  0  0  0  0  0  0  0
   20.6463  -21.0697  -14.6938 C   0  0  0  0  0  0  0  0  0  0  0  0
   19.6691  -22.0695  -14.5407 O   0  0  0  0  0  0  0  0  0  0  0  0
   21.2021  -20.9266  -15.8286 O   0  0  0  0  0  0  0  0  0  0  0  0
  2  1  1  6
  2 13  1  0
  2  3  1  0
  3  4  1  0
  4  5  2  0
  6  5  1  0
  7  6  1  0
  8  7  2  0
  9  8  1  0
 10 11  1  0
 10  9  2  0
 11 12  2  0
 12  7  1  0
 12  4  1  0
 13 14  2  0
 15 16  1  0
 16 17  2  0
 19 18  1  6
 18 16  1  0
 20 19  1  0
 20 13  1  0
 21 19  1  0
 22 21  2  0
 23 24  1  0
 24 25  1  0
 25 26  1  0
 27 26  1  6
 27 28  1  0
 28 21  1  0
 29 30  1  0
 29 27  1  0
 31 29  2  0
M  END
$$$$
