WNM.pdb
     RDKit          3D

 31 32  0  0  1  0  0  0  0  0999 V2000
   16.9894  -16.6308    3.1739 N   0  0  0  0  0  0  0  0  0  0  0  0
   17.5877  -17.8364    3.7860 C   0  0  1  0  0  0  0  0  0  0  0  0
   19.0376  -17.7852    3.4072 C   0  0  0  0  0  0  0  0  0  0  0  0
   19.3381  -18.2499    2.0425 C   0  0  0  0  0  0  0  0  0  0  0  0
   18.3978  -18.8713    1.2009 C   0  0  0  0  0  0  0  0  0  0  0  0
   18.9614  -19.1344    0.0168 N   0  0  0  0  0  0  0  0  0  0  0  0
   20.2430  -18.7211    0.0149 C   0  0  0  0  0  0  0  0  0  0  0  0
   21.2451  -18.7737   -0.9428 C   0  0  0  0  0  0  0  0  0  0  0  0
   22.4908  -18.2827   -0.6580 C   0  0  0  0  0  0  0  0  0  0  0  0
   22.7303  -17.7401    0.5858 C   0  0  0  0  0  0  0  0  0  0  0  0
   21.7262  -17.6909    1.5344 C   0  0  0  0  0  0  0  0  0  0  0  0
   20.4689  -18.1789    1.2622 C   0  0  0  0  0  0  0  0  0  0  0  0
   17.4027  -17.8248    5.2422 C   0  0  0  0  0  0  0  0  0  0  0  0
   17.4953  -16.7863    5.9455 O   0  0  0  0  0  0  0  0  0  0  0  0
   14.3330  -18.8078    7.2812 N   0  0  0  0  0  0  0  0  0  0  0  0
   14.8650  -20.0356    7.7898 C   0  0  0  0  0  0  0  0  0  0  0  0
   14.0175  -20.9044    8.1141 O   0  0  0  0  0  0  0  0  0  0  0  0
   16.3320  -20.2340    7.9124 C   0  0  0  0  0  0  0  0  0  0  0  0
   17.1130  -19.0487    7.4010 C   0  0  2  0  0  0  0  0  0  0  0  0
   17.0982  -19.0309    5.9765 N   0  0  0  0  0  0  0  0  0  0  0  0
   18.4991  -19.1653    7.9520 C   0  0  0  0  0  0  0  0  0  0  0  0
   19.3141  -19.8513    7.2955 O   0  0  0  0  0  0  0  0  0  0  0  0
   24.6414  -15.8094   11.3008 C   0  0  0  0  0  0  0  0  0  0  0  0
   23.0275  -15.7356   10.5288 S   0  0  0  0  0  0  0  0  0  0  0  0
   22.3049  -17.3861   10.2788 C   0  0  0  0  0  0  0  0  0  0  0  0
   20.9420  -17.3281    9.7070 C   0  0  0  0  0  0  0  0  0  0  0  0
   20.3231  -18.6775    9.5789 C   0  0  2  0  0  0  0  0  0  0  0  0
   18.9150  -18.5500    9.1497 N   0  0  0  0  0  0  0  0  0  0  0  0
   20.2939  -19.3474   10.8972 C   0  0  0  0  0  0  0  0  0  0  0  0
   21.4935  -19.9039   11.3761 O   0  0  0  0  0  0  0  0  0  0  0  0
   19.2468  -19.4439   11.6123 O   0  0  0  0  0  0  0  0  0  0  0  0
  2  1  1  6
  2 13  1  0
  2  3  1  0
  3  4  1  0
  4  5  2  0
  6  5  1  0
  7  6  1  0
  8  7  2  0
  9  8  1  0
 10 11  1  0
 10  9  2  0
 11 12  2  0
 12  7  1  0
 12  4  1  0
 13 14  2  0
 15 16  1  0
 16 17  2  0
 19 18  1  6
 18 16  1  0
 20 19  1  0
 20 13  1  0
 21 19  1  0
 22 21  2  0
 23 24  1  0
 24 25  1  0
 25 26  1  0
 27 26  1  1
 27 28  1  0
 28 21  1  0
 29 30  1  0
 29 27  1  0
 31 29  2  0
M  END
$$$$
