WNM.pdb
     RDKit          3D

 31 32  0  0  1  0  0  0  0  0999 V2000
   27.0653  -20.4003  -12.0157 N   0  0  0  0  0  0  0  0  0  0  0  0
   25.8407  -21.2000  -11.7985 C   0  0  1  0  0  0  0  0  0  0  0  0
   25.8709  -21.5692  -10.3455 C   0  0  0  0  0  0  0  0  0  0  0  0
   27.1625  -21.3424   -9.6754 C   0  0  0  0  0  0  0  0  0  0  0  0
   28.4105  -21.6068  -10.2681 C   0  0  0  0  0  0  0  0  0  0  0  0
   29.3892  -21.2567   -9.4264 N   0  0  0  0  0  0  0  0  0  0  0  0
   28.8638  -20.7670   -8.2874 C   0  0  0  0  0  0  0  0  0  0  0  0
   29.4373  -20.2897   -7.1180 C   0  0  0  0  0  0  0  0  0  0  0  0
   28.6410  -19.8628   -6.0896 C   0  0  0  0  0  0  0  0  0  0  0  0
   27.2716  -19.9151   -6.2345 C   0  0  0  0  0  0  0  0  0  0  0  0
   26.7081  -20.3915   -7.4032 C   0  0  0  0  0  0  0  0  0  0  0  0
   27.4954  -20.8225   -8.4460 C   0  0  0  0  0  0  0  0  0  0  0  0
   24.6448  -20.4200  -12.1392 C   0  0  0  0  0  0  0  0  0  0  0  0
   24.6381  -19.1661  -12.2361 O   0  0  0  0  0  0  0  0  0  0  0  0
   20.3823  -18.9476  -14.4799 N   0  0  0  0  0  0  0  0  0  0  0  0
   21.5815  -19.3240  -15.1649 C   0  0  0  0  0  0  0  0  0  0  0  0
   21.6354  -19.0134  -16.3811 O   0  0  0  0  0  0  0  0  0  0  0  0
   22.6720  -20.0360  -14.4507 C   0  0  0  0  0  0  0  0  0  0  0  0
   22.3080  -20.3496  -13.0204 C   0  0  2  0  0  0  0  0  0  0  0  0
   23.3717  -21.0555  -12.3883 N   0  0  0  0  0  0  0  0  0  0  0  0
   21.0411  -21.1449  -13.0540 C   0  0  0  0  0  0  0  0  0  0  0  0
   20.0677  -20.6352  -13.6529 O   0  0  0  0  0  0  0  0  0  0  0  0
   17.6880  -24.6991   -7.2476 C   0  0  0  0  0  0  0  0  0  0  0  0
   19.1600  -24.2156   -8.1451 S   0  0  0  0  0  0  0  0  0  0  0  0
   18.8309  -22.8950   -9.3521 C   0  0  0  0  0  0  0  0  0  0  0  0
   20.0045  -22.5978  -10.2020 C   0  0  0  0  0  0  0  0  0  0  0  0
   19.6942  -22.7073  -11.6553 C   0  0  2  0  0  0  0  0  0  0  0  0
   20.9017  -22.4125  -12.4543 N   0  0  0  0  0  0  0  0  0  0  0  0
   18.6892  -21.6910  -12.0355 C   0  0  0  0  0  0  0  0  0  0  0  0
   17.4836  -22.1418  -12.6024 O   0  0  0  0  0  0  0  0  0  0  0  0
   18.8602  -20.4410  -11.8764 O   0  0  0  0  0  0  0  0  0  0  0  0
  2  1  1  1
  2 13  1  0
  2  3  1  0
  3  4  1  0
  4  5  2  0
  6  5  1  0
  7  6  1  0
  8  7  2  0
  9  8  1  0
 10 11  1  0
 10  9  2  0
 11 12  2  0
 12  7  1  0
 12  4  1  0
 13 14  2  0
 15 16  1  0
 16 17  2  0
 19 18  1  6
 18 16  1  0
 20 19  1  0
 20 13  1  0
 21 19  1  0
 22 21  2  0
 23 24  1  0
 24 25  1  0
 25 26  1  0
 27 26  1  1
 27 28  1  0
 28 21  1  0
 29 30  1  0
 29 27  1  0
 31 29  2  0
M  END
$$$$
