WNM.pdb
     RDKit          3D

 31 32  0  0  1  0  0  0  0  0999 V2000
   26.0816  -19.7717  -16.8226 N   0  0  0  0  0  0  0  0  0  0  0  0
   26.0077  -19.2936  -15.4254 C   0  0  1  0  0  0  0  0  0  0  0  0
   25.6089  -17.8519  -15.5291 C   0  0  0  0  0  0  0  0  0  0  0  0
   26.5267  -17.0102  -16.3151 C   0  0  0  0  0  0  0  0  0  0  0  0
   26.1164  -15.8991  -17.0737 C   0  0  0  0  0  0  0  0  0  0  0  0
   27.1842  -15.3198  -17.6334 N   0  0  0  0  0  0  0  0  0  0  0  0
   28.3025  -15.9871  -17.2908 C   0  0  0  0  0  0  0  0  0  0  0  0
   29.6396  -15.8063  -17.6127 C   0  0  0  0  0  0  0  0  0  0  0  0
   30.5839  -16.6694  -17.1256 C   0  0  0  0  0  0  0  0  0  0  0  0
   30.1869  -17.7122  -16.3169 C   0  0  0  0  0  0  0  0  0  0  0  0
   28.8526  -17.8850  -16.0004 C   0  0  0  0  0  0  0  0  0  0  0  0
   27.8924  -17.0249  -16.4811 C   0  0  0  0  0  0  0  0  0  0  0  0
   25.0303  -20.0772  -14.6603 C   0  0  0  0  0  0  0  0  0  0  0  0
   24.2859  -20.9509  -15.1742 O   0  0  0  0  0  0  0  0  0  0  0  0
   26.0178  -22.4199  -11.5873 N   0  0  0  0  0  0  0  0  0  0  0  0
   25.4345  -21.5261  -10.6334 C   0  0  0  0  0  0  0  0  0  0  0  0
   25.9337  -21.5567   -9.4809 O   0  0  0  0  0  0  0  0  0  0  0  0
   24.3111  -20.6336  -11.0177 C   0  0  0  0  0  0  0  0  0  0  0  0
   23.9834  -20.7291  -12.4874 C   0  0  2  0  0  0  0  0  0  0  0  0
   24.8555  -19.8897  -13.2387 N   0  0  0  0  0  0  0  0  0  0  0  0
   22.5475  -20.3387  -12.6435 C   0  0  0  0  0  0  0  0  0  0  0  0
   22.2263  -19.1931  -12.2559 O   0  0  0  0  0  0  0  0  0  0  0  0
   18.8193  -22.0856  -17.5067 C   0  0  0  0  0  0  0  0  0  0  0  0
   17.7187  -20.9621  -16.6508 S   0  0  0  0  0  0  0  0  0  0  0  0
   18.3321  -20.5203  -14.9963 C   0  0  0  0  0  0  0  0  0  0  0  0
   19.7126  -20.9950  -14.7575 C   0  0  0  0  0  0  0  0  0  0  0  0
   20.1915  -20.6772  -13.3828 C   0  0  2  0  0  0  0  0  0  0  0  0
   21.5659  -21.1862  -13.1951 N   0  0  0  0  0  0  0  0  0  0  0  0
   19.3534  -21.3728  -12.3822 C   0  0  0  0  0  0  0  0  0  0  0  0
   18.1842  -20.7260  -11.9433 O   0  0  0  0  0  0  0  0  0  0  0  0
   19.6357  -22.5167  -11.9036 O   0  0  0  0  0  0  0  0  0  0  0  0
  2  1  1  6
  2 13  1  0
  2  3  1  0
  3  4  1  0
  4  5  2  0
  6  5  1  0
  7  6  1  0
  8  7  2  0
  9  8  1  0
 10 11  1  0
 10  9  2  0
 11 12  2  0
 12  7  1  0
 12  4  1  0
 13 14  2  0
 15 16  1  0
 16 17  2  0
 19 18  1  1
 18 16  1  0
 20 19  1  0
 20 13  1  0
 21 19  1  0
 22 21  2  0
 23 24  1  0
 24 25  1  0
 25 26  1  0
 27 26  1  6
 27 28  1  0
 28 21  1  0
 29 30  1  0
 29 27  1  0
 31 29  2  0
M  END
$$$$
