WNM.pdb
     RDKit          3D

 31 32  0  0  1  0  0  0  0  0999 V2000
   27.4583  -20.9888  -13.1686 N   0  0  0  0  0  0  0  0  0  0  0  0
   26.2343  -21.1773  -12.3608 C   0  0  1  0  0  0  0  0  0  0  0  0
   26.3966  -20.2555  -11.1893 C   0  0  0  0  0  0  0  0  0  0  0  0
   27.5783  -20.5207  -10.3515 C   0  0  0  0  0  0  0  0  0  0  0  0
   28.8259  -20.9242  -10.8606 C   0  0  0  0  0  0  0  0  0  0  0  0
   29.7028  -21.0404   -9.8573 N   0  0  0  0  0  0  0  0  0  0  0  0
   29.1080  -20.7351   -8.6884 C   0  0  0  0  0  0  0  0  0  0  0  0
   29.5658  -20.7149   -7.3791 C   0  0  0  0  0  0  0  0  0  0  0  0
   28.7152  -20.3758   -6.3615 C   0  0  0  0  0  0  0  0  0  0  0  0
   27.4075  -20.0578   -6.6575 C   0  0  0  0  0  0  0  0  0  0  0  0
   26.9593  -20.0798   -7.9648 C   0  0  0  0  0  0  0  0  0  0  0  0
   27.8028  -20.4171   -8.9981 C   0  0  0  0  0  0  0  0  0  0  0  0
   25.0384  -20.8546  -13.1484 C   0  0  0  0  0  0  0  0  0  0  0  0
   24.7504  -19.6908  -13.5281 O   0  0  0  0  0  0  0  0  0  0  0  0
   24.5600  -20.6784  -16.2954 N   0  0  0  0  0  0  0  0  0  0  0  0
   23.7474  -21.8313  -16.5398 C   0  0  0  0  0  0  0  0  0  0  0  0
   23.9064  -22.3838  -17.6568 O   0  0  0  0  0  0  0  0  0  0  0  0
   22.7878  -22.3147  -15.5142 C   0  0  0  0  0  0  0  0  0  0  0  0
   22.8897  -21.5366  -14.2255 C   0  0  2  0  0  0  0  0  0  0  0  0
   24.0946  -21.8740  -13.5443 N   0  0  0  0  0  0  0  0  0  0  0  0
   21.6724  -21.8620  -13.4187 C   0  0  0  0  0  0  0  0  0  0  0  0
   21.7251  -22.8855  -12.7008 O   0  0  0  0  0  0  0  0  0  0  0  0
   14.6118  -19.8311  -10.4943 C   0  0  0  0  0  0  0  0  0  0  0  0
   15.9081  -19.4614  -11.6729 S   0  0  0  0  0  0  0  0  0  0  0  0
   17.1066  -20.8206  -11.8310 C   0  0  0  0  0  0  0  0  0  0  0  0
   18.3386  -20.4110  -12.5398 C   0  0  0  0  0  0  0  0  0  0  0  0
   19.3295  -21.5193  -12.6408 C   0  0  2  0  0  0  0  0  0  0  0  0
   20.4979  -21.0831  -13.4331 N   0  0  0  0  0  0  0  0  0  0  0  0
   18.7381  -22.6610  -13.3717 C   0  0  0  0  0  0  0  0  0  0  0  0
   18.9586  -22.7362  -14.7587 O   0  0  0  0  0  0  0  0  0  0  0  0
   18.0463  -23.5698  -12.8125 O   0  0  0  0  0  0  0  0  0  0  0  0
  2  1  1  6
  2 13  1  0
  2  3  1  0
  3  4  1  0
  4  5  2  0
  6  5  1  0
  7  6  1  0
  8  7  2  0
  9  8  1  0
 10 11  1  0
 10  9  2  0
 11 12  2  0
 12  7  1  0
 12  4  1  0
 13 14  2  0
 15 16  1  0
 16 17  2  0
 19 18  1  6
 18 16  1  0
 20 19  1  0
 20 13  1  0
 21 19  1  0
 22 21  2  0
 23 24  1  0
 24 25  1  0
 25 26  1  0
 27 26  1  6
 27 28  1  0
 28 21  1  0
 29 30  1  0
 29 27  1  0
 31 29  2  0
M  END
$$$$
