WNM.pdb
     RDKit          3D

 31 32  0  0  1  0  0  0  0  0999 V2000
   28.1129  -20.5933  -10.3532 N   0  0  0  0  0  0  0  0  0  0  0  0
   26.7602  -21.0500   -9.9687 C   0  0  1  0  0  0  0  0  0  0  0  0
   26.3433  -20.1353   -8.8561 C   0  0  0  0  0  0  0  0  0  0  0  0
   27.4137  -19.7868   -7.9067 C   0  0  0  0  0  0  0  0  0  0  0  0
   28.5603  -19.0495   -8.2536 C   0  0  0  0  0  0  0  0  0  0  0  0
   29.3174  -18.8611   -7.1672 N   0  0  0  0  0  0  0  0  0  0  0  0
   28.7385  -19.4377   -6.0969 C   0  0  0  0  0  0  0  0  0  0  0  0
   29.1166  -19.5401   -4.7662 C   0  0  0  0  0  0  0  0  0  0  0  0
   28.3238  -20.2175   -3.8792 C   0  0  0  0  0  0  0  0  0  0  0  0
   27.1537  -20.7912   -4.3272 C   0  0  0  0  0  0  0  0  0  0  0  0
   26.7838  -20.6842   -5.6546 C   0  0  0  0  0  0  0  0  0  0  0  0
   27.5694  -20.0053   -6.5573 C   0  0  0  0  0  0  0  0  0  0  0  0
   25.8426  -20.9735  -11.1118 C   0  0  0  0  0  0  0  0  0  0  0  0
   25.7328  -19.9592  -11.8472 O   0  0  0  0  0  0  0  0  0  0  0  0
   26.0481  -22.9711  -14.2325 N   0  0  0  0  0  0  0  0  0  0  0  0
   24.8989  -23.7958  -14.0130 C   0  0  0  0  0  0  0  0  0  0  0  0
   24.9031  -24.9053  -14.6024 O   0  0  0  0  0  0  0  0  0  0  0  0
   23.7906  -23.3356  -13.1376 C   0  0  0  0  0  0  0  0  0  0  0  0
   24.0581  -21.9735  -12.5463 C   0  0  2  0  0  0  0  0  0  0  0  0
   24.9874  -22.0806  -11.4718 N   0  0  0  0  0  0  0  0  0  0  0  0
   22.7404  -21.4207  -12.1031 C   0  0  0  0  0  0  0  0  0  0  0  0
   22.5665  -21.2894  -10.8709 O   0  0  0  0  0  0  0  0  0  0  0  0
   21.2785  -15.8533  -14.2749 C   0  0  0  0  0  0  0  0  0  0  0  0
   20.4080  -16.0487  -12.7225 S   0  0  0  0  0  0  0  0  0  0  0  0
   19.9535  -17.7799  -12.3981 C   0  0  0  0  0  0  0  0  0  0  0  0
   20.9926  -18.7327  -12.8460 C   0  0  0  0  0  0  0  0  0  0  0  0
   20.6415  -20.1454  -12.5273 C   0  0  2  0  0  0  0  0  0  0  0  0
   21.7124  -21.0506  -12.9932 N   0  0  0  0  0  0  0  0  0  0  0  0
   19.4192  -20.5402  -13.2604 C   0  0  0  0  0  0  0  0  0  0  0  0
   19.5673  -21.3880  -14.3727 O   0  0  0  0  0  0  0  0  0  0  0  0
   18.2515  -20.1541  -12.9371 O   0  0  0  0  0  0  0  0  0  0  0  0
  2  1  1  6
  2 13  1  0
  2  3  1  0
  3  4  1  0
  4  5  2  0
  6  5  1  0
  7  6  1  0
  8  7  2  0
  9  8  1  0
 10 11  1  0
 10  9  2  0
 11 12  2  0
 12  7  1  0
 12  4  1  0
 13 14  2  0
 15 16  1  0
 16 17  2  0
 19 18  1  1
 18 16  1  0
 20 19  1  0
 20 13  1  0
 21 19  1  0
 22 21  2  0
 23 24  1  0
 24 25  1  0
 25 26  1  0
 27 26  1  6
 27 28  1  0
 28 21  1  0
 29 30  1  0
 29 27  1  0
 31 29  2  0
M  END
$$$$
