WNM.pdb
     RDKit          3D

 31 32  0  0  1  0  0  0  0  0999 V2000
   27.9692  -21.9511  -13.8187 N   0  0  0  0  0  0  0  0  0  0  0  0
   26.8007  -21.8947  -12.9144 C   0  0  1  0  0  0  0  0  0  0  0  0
   26.9313  -20.5870  -12.1926 C   0  0  0  0  0  0  0  0  0  0  0  0
   27.8281  -20.6109  -11.0248 C   0  0  0  0  0  0  0  0  0  0  0  0
   29.2290  -20.7002  -11.1136 C   0  0  0  0  0  0  0  0  0  0  0  0
   29.7595  -20.6550   -9.8866 N   0  0  0  0  0  0  0  0  0  0  0  0
   28.7829  -20.5399   -8.9668 C   0  0  0  0  0  0  0  0  0  0  0  0
   28.8014  -20.4692   -7.5815 C   0  0  0  0  0  0  0  0  0  0  0  0
   27.6268  -20.3731   -6.8851 C   0  0  0  0  0  0  0  0  0  0  0  0
   26.4358  -20.3481   -7.5778 C   0  0  0  0  0  0  0  0  0  0  0  0
   26.4260  -20.4184   -8.9582 C   0  0  0  0  0  0  0  0  0  0  0  0
   27.5984  -20.5138   -9.6718 C   0  0  0  0  0  0  0  0  0  0  0  0
   25.5497  -21.9747  -13.6782 C   0  0  0  0  0  0  0  0  0  0  0  0
   25.3623  -21.3761  -14.7683 O   0  0  0  0  0  0  0  0  0  0  0  0
   21.9599  -25.3201  -16.0426 N   0  0  0  0  0  0  0  0  0  0  0  0
   21.7274  -24.8546  -14.7090 C   0  0  0  0  0  0  0  0  0  0  0  0
   20.5235  -24.7910  -14.3556 O   0  0  0  0  0  0  0  0  0  0  0  0
   22.8625  -24.4793  -13.8275 C   0  0  0  0  0  0  0  0  0  0  0  0
   23.3413  -23.0713  -14.0818 C   0  0  2  0  0  0  0  0  0  0  0  0
   24.4292  -22.7606  -13.2161 N   0  0  0  0  0  0  0  0  0  0  0  0
   22.1707  -22.1642  -13.8689 C   0  0  0  0  0  0  0  0  0  0  0  0
   21.8990  -21.8576  -12.6866 O   0  0  0  0  0  0  0  0  0  0  0  0
   19.9839  -16.7307  -17.0647 C   0  0  0  0  0  0  0  0  0  0  0  0
   18.5391  -17.7507  -16.7846 S   0  0  0  0  0  0  0  0  0  0  0  0
   18.8008  -18.9712  -15.4614 C   0  0  0  0  0  0  0  0  0  0  0  0
   19.9548  -19.8575  -15.7272 C   0  0  0  0  0  0  0  0  0  0  0  0
   20.2203  -20.7957  -14.6004 C   0  0  2  0  0  0  0  0  0  0  0  0
   21.3809  -21.6532  -14.9183 N   0  0  0  0  0  0  0  0  0  0  0  0
   19.0701  -21.7078  -14.4204 C   0  0  0  0  0  0  0  0  0  0  0  0
   18.1219  -21.3801  -13.4347 O   0  0  0  0  0  0  0  0  0  0  0  0
   18.8980  -22.7642  -15.1070 O   0  0  0  0  0  0  0  0  0  0  0  0
  2  1  1  6
  2 13  1  0
  2  3  1  0
  3  4  1  0
  4  5  2  0
  6  5  1  0
  7  6  1  0
  8  7  2  0
  9  8  1  0
 10 11  1  0
 10  9  2  0
 11 12  2  0
 12  7  1  0
 12  4  1  0
 13 14  2  0
 15 16  1  0
 16 17  2  0
 19 18  1  1
 18 16  1  0
 20 19  1  0
 20 13  1  0
 21 19  1  0
 22 21  2  0
 23 24  1  0
 24 25  1  0
 25 26  1  0
 27 26  1  6
 27 28  1  0
 28 21  1  0
 29 30  1  0
 29 27  1  0
 31 29  2  0
M  END
$$$$
