WNM.pdb
     RDKit          3D

 31 32  0  0  1  0  0  0  0  0999 V2000
   26.0771  -22.0620  -12.0042 N   0  0  0  0  0  0  0  0  0  0  0  0
   25.4570  -20.8712  -11.3849 C   0  0  1  0  0  0  0  0  0  0  0  0
   26.5415  -19.8359  -11.3629 C   0  0  0  0  0  0  0  0  0  0  0  0
   27.6488  -20.1185  -10.4341 C   0  0  0  0  0  0  0  0  0  0  0  0
   28.9116  -20.5875  -10.8389 C   0  0  0  0  0  0  0  0  0  0  0  0
   29.7095  -20.7038   -9.7717 N   0  0  0  0  0  0  0  0  0  0  0  0
   29.0465  -20.3361   -8.6589 C   0  0  0  0  0  0  0  0  0  0  0  0
   29.4107  -20.2894   -7.3212 C   0  0  0  0  0  0  0  0  0  0  0  0
   28.5048  -19.8830   -6.3787 C   0  0  0  0  0  0  0  0  0  0  0  0
   27.2356  -19.5243   -6.7782 C   0  0  0  0  0  0  0  0  0  0  0  0
   26.8808  -19.5731   -8.1132 C   0  0  0  0  0  0  0  0  0  0  0  0
   27.7808  -19.9779   -9.0719 C   0  0  0  0  0  0  0  0  0  0  0  0
   24.2943  -20.4279  -12.1635 C   0  0  0  0  0  0  0  0  0  0  0  0
   23.6488  -19.3785  -11.9110 O   0  0  0  0  0  0  0  0  0  0  0  0
   25.3462  -19.7961  -16.3205 N   0  0  0  0  0  0  0  0  0  0  0  0
   24.0471  -19.5289  -15.7820 C   0  0  0  0  0  0  0  0  0  0  0  0
   23.7889  -18.3206  -15.5544 O   0  0  0  0  0  0  0  0  0  0  0  0
   23.0912  -20.6356  -15.5215 C   0  0  0  0  0  0  0  0  0  0  0  0
   22.7023  -20.7232  -14.0663 C   0  0  2  0  0  0  0  0  0  0  0  0
   23.8052  -21.1854  -13.2921 N   0  0  0  0  0  0  0  0  0  0  0  0
   21.5250  -21.6426  -13.9810 C   0  0  0  0  0  0  0  0  0  0  0  0
   20.4984  -21.3091  -14.6139 O   0  0  0  0  0  0  0  0  0  0  0  0
   17.9695  -25.1726   -8.1455 C   0  0  0  0  0  0  0  0  0  0  0  0
   19.0605  -23.9597   -8.8835 S   0  0  0  0  0  0  0  0  0  0  0  0
   19.3675  -24.2881  -10.6462 C   0  0  0  0  0  0  0  0  0  0  0  0
   20.0676  -23.1715  -11.3178 C   0  0  0  0  0  0  0  0  0  0  0  0
   20.2388  -23.4070  -12.7791 C   0  0  2  0  0  0  0  0  0  0  0  0
   21.5240  -22.8391  -13.2363 N   0  0  0  0  0  0  0  0  0  0  0  0
   19.1825  -22.6973  -13.5327 C   0  0  0  0  0  0  0  0  0  0  0  0
   18.4471  -23.4321  -14.4799 O   0  0  0  0  0  0  0  0  0  0  0  0
   18.9090  -21.4664  -13.3675 O   0  0  0  0  0  0  0  0  0  0  0  0
  2  1  1  6
  2 13  1  0
  2  3  1  0
  3  4  1  0
  4  5  2  0
  6  5  1  0
  7  6  1  0
  8  7  2  0
  9  8  1  0
 10 11  1  0
 10  9  2  0
 11 12  2  0
 12  7  1  0
 12  4  1  0
 13 14  2  0
 15 16  1  0
 16 17  2  0
 19 18  1  6
 18 16  1  0
 20 19  1  0
 20 13  1  0
 21 19  1  0
 22 21  2  0
 23 24  1  0
 24 25  1  0
 25 26  1  0
 27 26  1  1
 27 28  1  0
 28 21  1  0
 29 30  1  0
 29 27  1  0
 31 29  2  0
M  END
$$$$
