WNM.pdb
     RDKit          3D

 31 32  0  0  1  0  0  0  0  0999 V2000
   28.0844  -19.6201  -12.5785 N   0  0  0  0  0  0  0  0  0  0  0  0
   27.3075  -20.8757  -12.4995 C   0  0  1  0  0  0  0  0  0  0  0  0
   26.5624  -20.7901  -11.2012 C   0  0  0  0  0  0  0  0  0  0  0  0
   27.4110  -20.6156  -10.0103 C   0  0  0  0  0  0  0  0  0  0  0  0
   27.0595  -19.8168   -8.9072 C   0  0  0  0  0  0  0  0  0  0  0  0
   28.0134  -19.8982   -7.9731 N   0  0  0  0  0  0  0  0  0  0  0  0
   28.9985  -20.7155   -8.3911 C   0  0  0  0  0  0  0  0  0  0  0  0
   30.1954  -21.1147   -7.8146 C   0  0  0  0  0  0  0  0  0  0  0  0
   31.0334  -21.9592   -8.4917 C   0  0  0  0  0  0  0  0  0  0  0  0
   30.6709  -22.4021   -9.7452 C   0  0  0  0  0  0  0  0  0  0  0  0
   29.4764  -22.0000  -10.3125 C   0  0  0  0  0  0  0  0  0  0  0  0
   28.6232  -21.1530   -9.6435 C   0  0  0  0  0  0  0  0  0  0  0  0
   26.3974  -20.9952  -13.6450 C   0  0  0  0  0  0  0  0  0  0  0  0
   25.8140  -20.0144  -14.1734 O   0  0  0  0  0  0  0  0  0  0  0  0
   27.3775  -22.2398  -17.1237 N   0  0  0  0  0  0  0  0  0  0  0  0
   26.7320  -23.5073  -16.9625 C   0  0  0  0  0  0  0  0  0  0  0  0
   27.2730  -24.4742  -17.5547 O   0  0  0  0  0  0  0  0  0  0  0  0
   25.5018  -23.6332  -16.1397 C   0  0  0  0  0  0  0  0  0  0  0  0
   25.2102  -22.3790  -15.3532 C   0  0  2  0  0  0  0  0  0  0  0  0
   26.1056  -22.2740  -14.2501 N   0  0  0  0  0  0  0  0  0  0  0  0
   23.7809  -22.4560  -14.9177 C   0  0  0  0  0  0  0  0  0  0  0  0
   23.4409  -23.4684  -14.2656 O   0  0  0  0  0  0  0  0  0  0  0  0
   21.7066  -20.3324  -10.0266 C   0  0  0  0  0  0  0  0  0  0  0  0
   20.8469  -20.7566  -11.5390 S   0  0  0  0  0  0  0  0  0  0  0  0
   21.5185  -19.8803  -12.9847 C   0  0  0  0  0  0  0  0  0  0  0  0
   20.8990  -20.3211  -14.2535 C   0  0  0  0  0  0  0  0  0  0  0  0
   21.4381  -21.6284  -14.7233 C   0  0  2  0  0  0  0  0  0  0  0  0
   22.8252  -21.4607  -15.2040 N   0  0  0  0  0  0  0  0  0  0  0  0
   20.6553  -22.1111  -15.8816 C   0  0  0  0  0  0  0  0  0  0  0  0
   19.6800  -23.0972  -15.6482 O   0  0  0  0  0  0  0  0  0  0  0  0
   20.8193  -21.6820  -17.0674 O   0  0  0  0  0  0  0  0  0  0  0  0
  2  1  1  6
  2 13  1  0
  2  3  1  0
  3  4  1  0
  4  5  2  0
  6  5  1  0
  7  6  1  0
  8  7  2  0
  9  8  1  0
 10 11  1  0
 10  9  2  0
 11 12  2  0
 12  7  1  0
 12  4  1  0
 13 14  2  0
 15 16  1  0
 16 17  2  0
 19 18  1  1
 18 16  1  0
 20 19  1  0
 20 13  1  0
 21 19  1  0
 22 21  2  0
 23 24  1  0
 24 25  1  0
 25 26  1  0
 27 26  1  6
 27 28  1  0
 28 21  1  0
 29 30  1  0
 29 27  1  0
 31 29  2  0
M  END
$$$$
