WNM.pdb
     RDKit          3D

 31 32  0  0  1  0  0  0  0  0999 V2000
   27.4147  -21.5974  -10.7337 N   0  0  0  0  0  0  0  0  0  0  0  0
   26.4165  -20.8633   -9.9269 C   0  0  1  0  0  0  0  0  0  0  0  0
   27.1854  -19.7543   -9.2732 C   0  0  0  0  0  0  0  0  0  0  0  0
   28.1673  -20.1911   -8.2663 C   0  0  0  0  0  0  0  0  0  0  0  0
   29.2542  -21.0386   -8.5470 C   0  0  0  0  0  0  0  0  0  0  0  0
   29.9837  -21.2132   -7.4396 N   0  0  0  0  0  0  0  0  0  0  0  0
   29.4418  -20.5237   -6.4178 C   0  0  0  0  0  0  0  0  0  0  0  0
   29.7978  -20.3865   -5.0841 C   0  0  0  0  0  0  0  0  0  0  0  0
   29.0340  -19.6185   -4.2470 C   0  0  0  0  0  0  0  0  0  0  0  0
   27.9148  -18.9894   -4.7476 C   0  0  0  0  0  0  0  0  0  0  0  0
   27.5672  -19.1308   -6.0779 C   0  0  0  0  0  0  0  0  0  0  0  0
   28.3258  -19.8980   -6.9315 C   0  0  0  0  0  0  0  0  0  0  0  0
   25.3366  -20.3511  -10.7790 C   0  0  0  0  0  0  0  0  0  0  0  0
   24.9665  -19.1491  -10.7832 O   0  0  0  0  0  0  0  0  0  0  0  0
   25.7215  -19.4244  -13.1293 N   0  0  0  0  0  0  0  0  0  0  0  0
   24.8813  -19.9643  -14.1549 C   0  0  0  0  0  0  0  0  0  0  0  0
   25.2807  -19.7930  -15.3337 O   0  0  0  0  0  0  0  0  0  0  0  0
   23.6239  -20.6756  -13.8096 C   0  0  0  0  0  0  0  0  0  0  0  0
   23.4149  -20.7743  -12.3186 C   0  0  2  0  0  0  0  0  0  0  0  0
   24.6130  -21.2129  -11.6846 N   0  0  0  0  0  0  0  0  0  0  0  0
   22.2771  -21.7200  -12.0963 C   0  0  0  0  0  0  0  0  0  0  0  0
   22.4917  -22.6987  -11.3466 O   0  0  0  0  0  0  0  0  0  0  0  0
   17.2509  -24.6413   -8.0481 C   0  0  0  0  0  0  0  0  0  0  0  0
   18.5567  -23.5328   -8.5700 S   0  0  0  0  0  0  0  0  0  0  0  0
   18.6693  -23.4016  -10.3808 C   0  0  0  0  0  0  0  0  0  0  0  0
   19.7697  -22.5151  -10.8180 C   0  0  0  0  0  0  0  0  0  0  0  0
   19.9110  -22.4761  -12.3009 C   0  0  2  0  0  0  0  0  0  0  0  0
   21.0051  -21.5588  -12.6812 N   0  0  0  0  0  0  0  0  0  0  0  0
   18.6809  -21.9272  -12.9116 C   0  0  0  0  0  0  0  0  0  0  0  0
   17.7178  -22.8396  -13.3785 O   0  0  0  0  0  0  0  0  0  0  0  0
   18.4535  -20.6821  -13.0340 O   0  0  0  0  0  0  0  0  0  0  0  0
  2  1  1  6
  2 13  1  0
  2  3  1  0
  3  4  1  0
  4  5  2  0
  6  5  1  0
  7  6  1  0
  8  7  2  0
  9  8  1  0
 10 11  1  0
 10  9  2  0
 11 12  2  0
 12  7  1  0
 12  4  1  0
 13 14  2  0
 15 16  1  0
 16 17  2  0
 19 18  1  6
 18 16  1  0
 20 19  1  0
 20 13  1  0
 21 19  1  0
 22 21  2  0
 23 24  1  0
 24 25  1  0
 25 26  1  0
 27 26  1  1
 27 28  1  0
 28 21  1  0
 29 30  1  0
 29 27  1  0
 31 29  2  0
M  END
$$$$
