DSA.pdb
     RDKit          3D

 20 19  0  0  1  0  0  0  0  0999 V2000
   16.7266  -11.5320  -16.8147 N   0  0  0  0  0  0  0  0  0  0  0  0
   17.4793  -11.2103  -15.6224 C   0  0  1  0  0  0  0  0  0  0  0  0
   18.6594  -12.1641  -15.5631 C   0  0  0  0  0  0  0  0  0  0  0  0
   18.2568  -13.5487  -15.2122 C   0  0  0  0  0  0  0  0  0  0  0  0
   17.5326  -13.8411  -14.2249 O   0  0  0  0  0  0  0  0  0  0  0  0
   17.9848   -9.8336  -15.7463 C   0  0  0  0  0  0  0  0  0  0  0  0
   18.4333   -9.4812  -16.8695 O   0  0  0  0  0  0  0  0  0  0  0  0
   18.6710  -14.6457  -15.9810 O   0  0  0  0  0  0  0  0  0  0  0  0
   17.8983   -5.2044  -14.7300 O   0  0  0  0  0  0  0  0  0  0  0  0
   17.4542   -6.4923  -14.4892 C   0  0  0  0  0  0  0  0  0  0  0  0
   18.4469   -7.5544  -14.9631 C   0  0  2  0  0  0  0  0  0  0  0  0
   18.0064   -8.8775  -14.7052 N   0  0  0  0  0  0  0  0  0  0  0  0
   19.7552   -7.2188  -14.3762 C   0  0  0  0  0  0  0  0  0  0  0  0
   19.9788   -7.6296  -13.2047 O   0  0  0  0  0  0  0  0  0  0  0  0
   23.1091   -5.8313  -15.3246 C   0  0  0  0  0  0  0  0  0  0  0  0
   21.9980   -6.2176  -14.3759 C   0  0  2  0  0  0  0  0  0  0  0  0
   20.7603   -6.4749  -15.0376 N   0  0  0  0  0  0  0  0  0  0  0  0
   21.7871   -5.0745  -13.4232 C   0  0  0  0  0  0  0  0  0  0  0  0
   20.8348   -4.2582  -13.5814 O   0  0  0  0  0  0  0  0  0  0  0  0
   22.6168   -4.8595  -12.3345 O   0  0  0  0  0  0  0  0  0  0  0  0
  2  1  1  6
  3  2  1  0
  3  4  1  0
  4  5  2  0
  6  2  1  0
  6  7  2  0
  8  4  1  0
 10  9  1  0
 11 10  1  1
 11 12  1  0
 12  6  1  0
 13 11  1  0
 14 13  2  0
 16 15  1  6
 16 17  1  0
 16 18  1  0
 17 13  1  0
 18 20  1  0
 19 18  2  0
M  END
$$$$
