DSA.pdb
     RDKit          3D

 20 19  0  0  1  0  0  0  0  0999 V2000
   21.2452   -8.6053  -16.7710 N   0  0  0  0  0  0  0  0  0  0  0  0
   19.9975   -7.9376  -17.0696 C   0  0  1  0  0  0  0  0  0  0  0  0
   18.8754   -8.8861  -16.6859 C   0  0  0  0  0  0  0  0  0  0  0  0
   18.9187  -10.1588  -17.4478 C   0  0  0  0  0  0  0  0  0  0  0  0
   18.9637  -11.2973  -16.9124 O   0  0  0  0  0  0  0  0  0  0  0  0
   19.9043   -6.7274  -16.2370 C   0  0  0  0  0  0  0  0  0  0  0  0
   18.7980   -6.1253  -16.2141 O   0  0  0  0  0  0  0  0  0  0  0  0
   18.9121  -10.1701  -18.8499 O   0  0  0  0  0  0  0  0  0  0  0  0
   23.0905   -4.8890  -14.0960 O   0  0  0  0  0  0  0  0  0  0  0  0
   21.8032   -4.8374  -13.5921 C   0  0  0  0  0  0  0  0  0  0  0  0
   20.7404   -5.0302  -14.6744 C   0  0  2  0  0  0  0  0  0  0  0  0
   20.9571   -6.1892  -15.4624 N   0  0  0  0  0  0  0  0  0  0  0  0
   20.6666   -3.7740  -15.4394 C   0  0  0  0  0  0  0  0  0  0  0  0
   21.3980   -3.6841  -16.4633 O   0  0  0  0  0  0  0  0  0  0  0  0
   18.6468   -0.6167  -15.6841 C   0  0  0  0  0  0  0  0  0  0  0  0
   19.8432   -1.5099  -15.9175 C   0  0  2  0  0  0  0  0  0  0  0  0
   19.8375   -2.6793  -15.0999 N   0  0  0  0  0  0  0  0  0  0  0  0
   21.0792   -0.7198  -15.5904 C   0  0  0  0  0  0  0  0  0  0  0  0
   21.7119   -0.9113  -14.5127 O   0  0  0  0  0  0  0  0  0  0  0  0
   21.5827    0.2484  -16.4440 O   0  0  0  0  0  0  0  0  0  0  0  0
  2  1  1  1
  3  2  1  0
  3  4  1  0
  4  5  2  0
  6  2  1  0
  6  7  2  0
  8  4  1  0
 10  9  1  0
 11 10  1  1
 11 12  1  0
 12  6  1  0
 13 11  1  0
 14 13  2  0
 16 15  1  1
 16 17  1  0
 16 18  1  0
 17 13  1  0
 18 20  1  0
 19 18  2  0
M  END
$$$$
