DSA.pdb
     RDKit          3D

 20 19  0  0  1  0  0  0  0  0999 V2000
   18.6246  -12.5482  -17.0069 N   0  0  0  0  0  0  0  0  0  0  0  0
   19.0737  -11.3682  -17.7122 C   0  0  1  0  0  0  0  0  0  0  0  0
   17.8406  -10.5509  -18.0548 C   0  0  0  0  0  0  0  0  0  0  0  0
   17.0271  -11.1693  -19.1309 C   0  0  0  0  0  0  0  0  0  0  0  0
   15.7730  -11.0847  -19.2006 O   0  0  0  0  0  0  0  0  0  0  0  0
   19.9309  -10.5825  -16.8098 C   0  0  0  0  0  0  0  0  0  0  0  0
   19.4516  -10.2636  -15.6893 O   0  0  0  0  0  0  0  0  0  0  0  0
   17.6234  -11.9064  -20.1639 O   0  0  0  0  0  0  0  0  0  0  0  0
   24.2116   -8.8575  -15.3635 O   0  0  0  0  0  0  0  0  0  0  0  0
   23.4956   -9.6288  -16.2614 C   0  0  0  0  0  0  0  0  0  0  0  0
   21.9857   -9.4184  -16.1434 C   0  0  2  0  0  0  0  0  0  0  0  0
   21.2475  -10.1587  -17.1017 N   0  0  0  0  0  0  0  0  0  0  0  0
   21.7458   -7.9658  -16.1740 C   0  0  0  0  0  0  0  0  0  0  0  0
   21.7923   -7.4019  -17.3015 O   0  0  0  0  0  0  0  0  0  0  0  0
   19.7914   -5.3905  -14.9970 C   0  0  0  0  0  0  0  0  0  0  0  0
   21.2407   -5.7769  -15.1806 C   0  0  2  0  0  0  0  0  0  0  0  0
   21.4705   -7.1773  -15.0322 N   0  0  0  0  0  0  0  0  0  0  0  0
   22.0453   -5.0600  -14.1329 C   0  0  0  0  0  0  0  0  0  0  0  0
   22.5400   -5.6812  -13.1493 O   0  0  0  0  0  0  0  0  0  0  0  0
   22.2831   -3.6963  -14.1911 O   0  0  0  0  0  0  0  0  0  0  0  0
  2  1  1  1
  3  2  1  0
  3  4  1  0
  4  5  2  0
  6  2  1  0
  6  7  2  0
  8  4  1  0
 10  9  1  0
 11 10  1  6
 11 12  1  0
 12  6  1  0
 13 11  1  0
 14 13  2  0
 16 15  1  1
 16 17  1  0
 16 18  1  0
 17 13  1  0
 18 20  1  0
 19 18  2  0
M  END
$$$$
