DSA.pdb
     RDKit          3D

 20 19  0  0  1  0  0  0  0  0999 V2000
   22.3418   -8.3621  -15.9220 N   0  0  0  0  0  0  0  0  0  0  0  0
   21.0133   -7.7909  -15.9329 C   0  0  1  0  0  0  0  0  0  0  0  0
   20.6289   -7.5159  -14.4898 C   0  0  0  0  0  0  0  0  0  0  0  0
   20.5278   -8.7554  -13.6802 C   0  0  0  0  0  0  0  0  0  0  0  0
   21.1192   -8.9280  -12.5824 O   0  0  0  0  0  0  0  0  0  0  0  0
   21.0593   -6.5150  -16.6653 C   0  0  0  0  0  0  0  0  0  0  0  0
   21.9665   -6.3762  -17.5283 O   0  0  0  0  0  0  0  0  0  0  0  0
   19.7454   -9.8400  -14.1016 O   0  0  0  0  0  0  0  0  0  0  0  0
   17.7425   -4.3518  -17.3216 O   0  0  0  0  0  0  0  0  0  0  0  0
   18.8461   -4.2014  -18.1421 C   0  0  0  0  0  0  0  0  0  0  0  0
   20.1661   -4.3454  -17.3839 C   0  0  2  0  0  0  0  0  0  0  0  0
   20.1667   -5.4353  -16.4765 N   0  0  0  0  0  0  0  0  0  0  0  0
   20.4605   -3.0386  -16.7722 C   0  0  0  0  0  0  0  0  0  0  0  0
   20.2170   -2.9157  -15.5405 O   0  0  0  0  0  0  0  0  0  0  0  0
   21.9443    0.3239  -17.6311 C   0  0  0  0  0  0  0  0  0  0  0  0
   21.2751   -0.7214  -16.7691 C   0  0  2  0  0  0  0  0  0  0  0  0
   20.9917   -1.9302  -17.4724 N   0  0  0  0  0  0  0  0  0  0  0  0
   19.9730   -0.1515  -16.2807 C   0  0  0  0  0  0  0  0  0  0  0  0
   19.9462    0.8258  -15.4792 O   0  0  0  0  0  0  0  0  0  0  0  0
   18.7485   -0.6628  -16.6796 O   0  0  0  0  0  0  0  0  0  0  0  0
  2  1  1  1
  3  2  1  0
  3  4  1  0
  4  5  2  0
  6  2  1  0
  6  7  2  0
  8  4  1  0
 10  9  1  0
 11 10  1  1
 11 12  1  0
 12  6  1  0
 13 11  1  0
 14 13  2  0
 16 15  1  6
 16 17  1  0
 16 18  1  0
 17 13  1  0
 18 20  1  0
 19 18  2  0
M  END
$$$$
