DSA.pdb
     RDKit          3D

 20 19  0  0  1  0  0  0  0  0999 V2000
   18.0226  -11.2981  -17.3068 N   0  0  0  0  0  0  0  0  0  0  0  0
   17.9315  -10.7222  -15.9834 C   0  0  1  0  0  0  0  0  0  0  0  0
   18.7869  -11.5732  -15.0614 C   0  0  0  0  0  0  0  0  0  0  0  0
   18.1348  -12.8567  -14.7015 C   0  0  0  0  0  0  0  0  0  0  0  0
   18.7585  -13.9350  -14.5194 O   0  0  0  0  0  0  0  0  0  0  0  0
   18.4875   -9.3601  -16.0272 C   0  0  0  0  0  0  0  0  0  0  0  0
   19.4978   -9.1713  -16.7556 O   0  0  0  0  0  0  0  0  0  0  0  0
   16.7452  -12.9483  -14.5384 O   0  0  0  0  0  0  0  0  0  0  0  0
   16.4297   -5.8391  -15.8192 O   0  0  0  0  0  0  0  0  0  0  0  0
   17.6098   -5.8291  -15.0974 C   0  0  0  0  0  0  0  0  0  0  0  0
   18.5522   -6.9653  -15.4961 C   0  0  2  0  0  0  0  0  0  0  0  0
   17.9774   -8.2493  -15.3172 N   0  0  0  0  0  0  0  0  0  0  0  0
   19.8175   -6.7542  -14.7730 C   0  0  0  0  0  0  0  0  0  0  0  0
   19.8953   -7.2273  -13.6062 O   0  0  0  0  0  0  0  0  0  0  0  0
   23.3430   -5.6279  -15.4363 C   0  0  0  0  0  0  0  0  0  0  0  0
   22.1733   -6.0824  -14.5944 C   0  0  2  0  0  0  0  0  0  0  0  0
   20.9335   -6.0633  -15.3005 N   0  0  0  0  0  0  0  0  0  0  0  0
   22.0564   -5.1466  -13.4242 C   0  0  0  0  0  0  0  0  0  0  0  0
   22.8519   -5.2216  -12.4445 O   0  0  0  0  0  0  0  0  0  0  0  0
   21.0810   -4.1646  -13.3601 O   0  0  0  0  0  0  0  0  0  0  0  0
  2  1  1  6
  3  2  1  0
  3  4  1  0
  4  5  2  0
  6  2  1  0
  6  7  2  0
  8  4  1  0
 10  9  1  0
 11 10  1  1
 11 12  1  0
 12  6  1  0
 13 11  1  0
 14 13  2  0
 16 15  1  6
 16 17  1  0
 16 18  1  0
 17 13  1  0
 18 20  1  0
 19 18  2  0
M  END
$$$$
