DSA.pdb
     RDKit          3D

 20 19  0  0  1  0  0  0  0  0999 V2000
   18.3868  -11.3746  -15.3026 N   0  0  0  0  0  0  0  0  0  0  0  0
   18.9548  -10.3636  -16.1667 C   0  0  1  0  0  0  0  0  0  0  0  0
   17.8648   -9.9304  -17.1311 C   0  0  0  0  0  0  0  0  0  0  0  0
   17.5105  -10.9918  -18.1057 C   0  0  0  0  0  0  0  0  0  0  0  0
   18.3533  -11.6183  -18.8000 O   0  0  0  0  0  0  0  0  0  0  0  0
   19.3469   -9.2099  -15.3410 C   0  0  0  0  0  0  0  0  0  0  0  0
   18.5472   -8.8469  -14.4380 O   0  0  0  0  0  0  0  0  0  0  0  0
   16.1775  -11.3715  -18.3181 O   0  0  0  0  0  0  0  0  0  0  0  0
   22.5560   -6.7067  -12.9670 O   0  0  0  0  0  0  0  0  0  0  0  0
   22.2750   -7.6445  -13.9444 C   0  0  0  0  0  0  0  0  0  0  0  0
   20.8801   -7.4672  -14.5451 C   0  0  2  0  0  0  0  0  0  0  0  0
   20.5486   -8.4790  -15.4819 N   0  0  0  0  0  0  0  0  0  0  0  0
   20.8060   -6.0947  -15.0736 C   0  0  0  0  0  0  0  0  0  0  0  0
   21.3553   -5.8807  -16.1889 O   0  0  0  0  0  0  0  0  0  0  0  0
   18.8753   -2.9430  -14.6166 C   0  0  0  0  0  0  0  0  0  0  0  0
   20.0717   -3.7508  -15.0634 C   0  0  2  0  0  0  0  0  0  0  0  0
   20.1656   -5.0187  -14.4154 N   0  0  0  0  0  0  0  0  0  0  0  0
   21.3089   -2.9654  -14.7297 C   0  0  0  0  0  0  0  0  0  0  0  0
   21.6432   -1.9521  -15.4077 O   0  0  0  0  0  0  0  0  0  0  0  0
   22.1372   -3.3082  -13.6732 O   0  0  0  0  0  0  0  0  0  0  0  0
  2  1  1  1
  3  2  1  0
  3  4  1  0
  4  5  2  0
  6  2  1  0
  6  7  2  0
  8  4  1  0
 10  9  1  0
 11 10  1  6
 11 12  1  0
 12  6  1  0
 13 11  1  0
 14 13  2  0
 16 15  1  1
 16 17  1  0
 16 18  1  0
 17 13  1  0
 18 20  1  0
 19 18  2  0
M  END
$$$$
