CRK.pdb
     RDKit          3D

 27 26  0  0  1  0  0  0  0  0999 V2000
   18.4931  -25.5100   -5.6205 N   0  0  0  0  0  0  0  0  0  0  0  0
   17.2801  -25.9231   -4.9498 C   0  0  1  0  0  0  0  0  0  0  0  0
   17.6841  -26.6997   -3.7072 C   0  0  0  0  0  0  0  0  0  0  0  0
   18.8631  -27.9936   -4.1922 S   0  0  0  0  0  0  0  0  0  0  0  0
   16.4796  -24.7505   -4.5516 C   0  0  0  0  0  0  0  0  0  0  0  0
   17.0475  -23.7185   -4.1417 O   0  0  0  0  0  0  0  0  0  0  0  0
   13.6396  -20.9762   -9.5527 N   0  0  0  0  0  0  0  0  0  0  0  0
   13.5510  -22.3140   -9.9976 C   0  0  0  0  0  0  0  0  0  0  0  0
   13.8102  -22.6728  -11.2272 N   0  0  0  0  0  0  0  0  0  0  0  0
   13.1613  -23.3433   -9.0784 N   0  0  0  0  0  0  0  0  0  0  0  0
   12.5691  -23.0539   -7.8023 C   0  0  0  0  0  0  0  0  0  0  0  0
   13.6351  -23.1485   -6.7429 C   0  0  0  0  0  0  0  0  0  0  0  0
   13.1051  -23.7108   -5.4408 C   0  0  0  0  0  0  0  0  0  0  0  0
   14.2673  -23.6301   -4.4446 C   0  0  2  0  0  0  0  0  0  0  0  0
   15.0654  -24.8103   -4.6398 N   0  0  0  0  0  0  0  0  0  0  0  0
   13.7566  -23.5899   -3.0634 C   0  0  0  0  0  0  0  0  0  0  0  0
   14.0396  -24.5585   -2.2999 O   0  0  0  0  0  0  0  0  0  0  0  0
   13.7617  -23.6818  -11.4922 N   0  0  0  0  0  0  0  0  0  0  0  0
   12.9832  -22.5636   -2.5316 C   0  0  1  0  0  0  0  0  0  0  0  0
   12.7301  -22.4231   -1.0437 C   0  0  0  0  0  0  0  0  0  0  0  0
   14.0348  -22.4853   -0.3811 C   0  0  0  0  0  0  0  0  0  0  0  0
   14.2244  -22.4741    1.0492 C   0  0  0  0  0  0  0  0  0  0  0  0
   15.5574  -22.5763    1.6960 C   0  0  0  0  0  0  0  0  0  0  0  0
   15.5600  -22.3687    3.1901 N   0  0  0  0  0  0  0  0  0  0  0  0
   16.8572  -22.5845    3.7475 C   0  0  0  0  0  0  0  0  0  0  0  0
   11.8268  -21.2998   -0.8730 O   0  0  0  0  0  0  0  0  0  0  0  0
   11.6941  -20.4283   -1.8298 O   0  0  0  0  0  0  0  0  0  0  0  0
  2  5  1  0
  2  1  1  1
  3  2  1  0
  4  3  1  0
  5  6  2  0
  8 10  1  0
  8  7  1  0
  9  8  2  0
 11 10  1  0
 11 12  1  0
 13 12  1  0
 14 13  1  6
 15 14  1  0
 15  5  1  0
 16 17  2  0
 16 14  1  0
 18 16  1  0
 19 18  1  0
 19 25  1  0
 19 20  1  1
 21 20  1  0
 22 21  1  0
 23 22  1  0
 23 24  1  0
 25 27  1  0
 26 25  2  0
M  END
$$$$
