CRK.pdb
     RDKit          3D

 27 26  0  0  1  0  0  0  0  0999 V2000
   23.7054  -25.0258  -15.2240 N   0  0  0  0  0  0  0  0  0  0  0  0
   25.0296  -24.4466  -15.1678 C   0  0  1  0  0  0  0  0  0  0  0  0
   25.7637  -24.8551  -16.4346 C   0  0  0  0  0  0  0  0  0  0  0  0
   26.4750  -26.5074  -16.1830 S   0  0  0  0  0  0  0  0  0  0  0  0
   24.9525  -22.9755  -15.1033 C   0  0  0  0  0  0  0  0  0  0  0  0
   23.9698  -22.3811  -15.5898 O   0  0  0  0  0  0  0  0  0  0  0  0
   25.9518  -19.5871   -8.4909 N   0  0  0  0  0  0  0  0  0  0  0  0
   25.1388  -20.7105   -8.7603 C   0  0  0  0  0  0  0  0  0  0  0  0
   24.0377  -20.9649   -8.1041 N   0  0  0  0  0  0  0  0  0  0  0  0
   25.5169  -21.6281   -9.7954 N   0  0  0  0  0  0  0  0  0  0  0  0
   26.4920  -21.3009  -10.7979 C   0  0  0  0  0  0  0  0  0  0  0  0
   25.7844  -20.6876  -11.9773 C   0  0  0  0  0  0  0  0  0  0  0  0
   26.7219  -20.4184  -13.1353 C   0  0  0  0  0  0  0  0  0  0  0  0
   25.9517  -20.8150  -14.4000 C   0  0  2  0  0  0  0  0  0  0  0  0
   26.0025  -22.2495  -14.4855 N   0  0  0  0  0  0  0  0  0  0  0  0
   26.5792  -20.2165  -15.5910 C   0  0  0  0  0  0  0  0  0  0  0  0
   27.5910  -20.7972  -16.0810 O   0  0  0  0  0  0  0  0  0  0  0  0
   23.4407  -21.7727   -8.3899 N   0  0  0  0  0  0  0  0  0  0  0  0
   26.1423  -19.0563  -16.2212 C   0  0  2  0  0  0  0  0  0  0  0  0
   26.7433  -18.5616  -17.5219 C   0  0  0  0  0  0  0  0  0  0  0  0
   25.6720  -17.8858  -18.2572 C   0  0  0  0  0  0  0  0  0  0  0  0
   24.5176  -18.5510  -18.8110 C   0  0  0  0  0  0  0  0  0  0  0  0
   23.4583  -17.8448  -19.5758 C   0  0  0  0  0  0  0  0  0  0  0  0
   22.3305  -18.7204  -20.0626 N   0  0  0  0  0  0  0  0  0  0  0  0
   21.2566  -17.9444  -20.5961 C   0  0  0  0  0  0  0  0  0  0  0  0
   27.9905  -17.8992  -17.1862 O   0  0  0  0  0  0  0  0  0  0  0  0
   28.0525  -17.1373  -16.1335 O   0  0  0  0  0  0  0  0  0  0  0  0
  2  5  1  0
  2  1  1  6
  3  2  1  0
  4  3  1  0
  5  6  2  0
  8 10  1  0
  8  7  1  0
  9  8  2  0
 11 10  1  0
 11 12  1  0
 13 12  1  0
 14 13  1  1
 15 14  1  0
 15  5  1  0
 16 17  2  0
 16 14  1  0
 18 16  1  0
 19 18  1  0
 19 25  1  0
 19 20  1  6
 21 20  1  0
 22 21  1  0
 23 22  1  0
 23 24  1  0
 25 27  1  0
 26 25  2  0
M  END
$$$$
