CRK.pdb
     RDKit          3D

 27 26  0  0  1  0  0  0  0  0999 V2000
   27.0396  -21.0395  -11.4805 N   0  0  0  0  0  0  0  0  0  0  0  0
   25.6524  -21.0692  -11.0720 C   0  0  1  0  0  0  0  0  0  0  0  0
   25.4830  -20.0601   -9.9479 C   0  0  0  0  0  0  0  0  0  0  0  0
   26.1624  -20.7747   -8.4225 S   0  0  0  0  0  0  0  0  0  0  0  0
   24.7707  -20.6994  -12.1945 C   0  0  0  0  0  0  0  0  0  0  0  0
   24.7653  -19.5279  -12.6229 O   0  0  0  0  0  0  0  0  0  0  0  0
   23.6185  -19.2015  -18.6397 N   0  0  0  0  0  0  0  0  0  0  0  0
   24.8102  -19.9303  -18.4295 C   0  0  0  0  0  0  0  0  0  0  0  0
   25.9921  -19.4632  -18.7338 N   0  0  0  0  0  0  0  0  0  0  0  0
   24.7471  -21.2439  -17.8580 N   0  0  0  0  0  0  0  0  0  0  0  0
   23.5052  -21.9324  -17.6420 C   0  0  0  0  0  0  0  0  0  0  0  0
   22.9314  -21.4898  -16.3219 C   0  0  0  0  0  0  0  0  0  0  0  0
   23.8080  -21.8833  -15.1518 C   0  0  0  0  0  0  0  0  0  0  0  0
   23.0932  -21.3649  -13.8987 C   0  0  2  0  0  0  0  0  0  0  0  0
   23.9343  -21.6854  -12.7773 N   0  0  0  0  0  0  0  0  0  0  0  0
   21.7821  -22.0196  -13.7487 C   0  0  0  0  0  0  0  0  0  0  0  0
   21.7608  -23.2073  -13.3128 O   0  0  0  0  0  0  0  0  0  0  0  0
   26.8307  -20.0786  -18.6405 N   0  0  0  0  0  0  0  0  0  0  0  0
   20.5598  -21.4292  -14.0512 C   0  0  2  0  0  0  0  0  0  0  0  0
   19.2395  -22.1490  -13.8603 C   0  0  0  0  0  0  0  0  0  0  0  0
   18.1867  -21.1327  -13.9204 C   0  0  0  0  0  0  0  0  0  0  0  0
   16.7842  -21.3978  -13.7086 C   0  0  0  0  0  0  0  0  0  0  0  0
   15.7363  -20.3476  -13.7772 C   0  0  0  0  0  0  0  0  0  0  0  0
   14.3348  -20.8239  -13.4869 N   0  0  0  0  0  0  0  0  0  0  0  0
   13.3976  -19.7464  -13.5176 C   0  0  0  0  0  0  0  0  0  0  0  0
   19.2553  -23.3018  -14.7422 O   0  0  0  0  0  0  0  0  0  0  0  0
   19.8918  -23.2378  -15.8751 O   0  0  0  0  0  0  0  0  0  0  0  0
  2  5  1  0
  2  1  1  6
  3  2  1  0
  4  3  1  0
  5  6  2  0
  8 10  1  0
  8  7  1  0
  9  8  2  0
 11 10  1  0
 11 12  1  0
 13 12  1  0
 14 13  1  6
 15 14  1  0
 15  5  1  0
 16 17  2  0
 16 14  1  0
 18 16  1  0
 19 18  1  0
 19 25  1  0
 19 20  1  1
 21 20  1  0
 22 21  1  0
 23 22  1  0
 23 24  1  0
 25 27  1  0
 26 25  2  0
M  END
$$$$
