CRK.pdb
     RDKit          3D

 27 26  0  0  1  0  0  0  0  0999 V2000
   18.8790  -27.1447   -1.5721 N   0  0  0  0  0  0  0  0  0  0  0  0
   18.6790  -27.3513   -2.9896 C   0  0  1  0  0  0  0  0  0  0  0  0
   17.9234  -28.6590   -3.1610 C   0  0  0  0  0  0  0  0  0  0  0  0
   19.0639  -30.0333   -2.8289 S   0  0  0  0  0  0  0  0  0  0  0  0
   17.8858  -26.2518   -3.5696 C   0  0  0  0  0  0  0  0  0  0  0  0
   17.0046  -25.6919   -2.8872 O   0  0  0  0  0  0  0  0  0  0  0  0
   18.5047  -25.8096  -11.3915 N   0  0  0  0  0  0  0  0  0  0  0  0
   18.2083  -24.4759  -11.0325 C   0  0  0  0  0  0  0  0  0  0  0  0
   17.6144  -23.6377  -11.8402 N   0  0  0  0  0  0  0  0  0  0  0  0
   18.5648  -23.9960   -9.7291 N   0  0  0  0  0  0  0  0  0  0  0  0
   19.3022  -24.7927   -8.7887 C   0  0  0  0  0  0  0  0  0  0  0  0
   18.3835  -25.1814   -7.6606 C   0  0  0  0  0  0  0  0  0  0  0  0
   18.3464  -24.1393   -6.5628 C   0  0  0  0  0  0  0  0  0  0  0  0
   17.4416  -24.7152   -5.4676 C   0  0  2  0  0  0  0  0  0  0  0  0
   18.1356  -25.8415   -4.9039 N   0  0  0  0  0  0  0  0  0  0  0  0
   16.1563  -25.1507   -6.0411 C   0  0  0  0  0  0  0  0  0  0  0  0
   16.1107  -26.2879   -6.5940 O   0  0  0  0  0  0  0  0  0  0  0  0
   17.3391  -22.6921  -11.4925 N   0  0  0  0  0  0  0  0  0  0  0  0
   14.9835  -24.4037   -6.0211 C   0  0  1  0  0  0  0  0  0  0  0  0
   13.7201  -24.8544   -6.7272 C   0  0  0  0  0  0  0  0  0  0  0  0
   12.7728  -25.2629   -5.6876 C   0  0  0  0  0  0  0  0  0  0  0  0
   11.8065  -26.3242   -5.8362 C   0  0  0  0  0  0  0  0  0  0  0  0
   10.8988  -26.7594   -4.7443 C   0  0  0  0  0  0  0  0  0  0  0  0
    9.9802  -27.9033   -5.0951 N   0  0  0  0  0  0  0  0  0  0  0  0
    9.1678  -28.2837   -3.9836 C   0  0  0  0  0  0  0  0  0  0  0  0
   13.3998  -23.8364   -7.7110 O   0  0  0  0  0  0  0  0  0  0  0  0
   12.5568  -24.1047   -8.6649 O   0  0  0  0  0  0  0  0  0  0  0  0
  2  5  1  0
  2  1  1  1
  3  2  1  0
  4  3  1  0
  5  6  2  0
  8 10  1  0
  8  7  1  0
  9  8  2  0
 11 10  1  0
 11 12  1  0
 13 12  1  0
 14 13  1  6
 15 14  1  0
 15  5  1  0
 16 17  2  0
 16 14  1  0
 18 16  1  0
 19 18  1  0
 19 25  1  0
 19 20  1  1
 21 20  1  0
 22 21  1  0
 23 22  1  0
 23 24  1  0
 25 27  1  0
 26 25  2  0
M  END
$$$$
