CRK.pdb
     RDKit          3D

 27 26  0  0  1  0  0  0  0  0999 V2000
   28.4350  -22.8582  -18.1163 N   0  0  0  0  0  0  0  0  0  0  0  0
   28.2625  -21.6193  -17.3901 C   0  0  1  0  0  0  0  0  0  0  0  0
   27.9936  -20.5235  -18.4086 C   0  0  0  0  0  0  0  0  0  0  0  0
   29.5310  -20.1879  -19.3159 S   0  0  0  0  0  0  0  0  0  0  0  0
   27.1192  -21.7132  -16.4636 C   0  0  0  0  0  0  0  0  0  0  0  0
   26.1521  -22.4508  -16.7401 O   0  0  0  0  0  0  0  0  0  0  0  0
   22.9988  -20.1264   -9.6776 N   0  0  0  0  0  0  0  0  0  0  0  0
   24.0525  -20.7727   -8.9938 C   0  0  0  0  0  0  0  0  0  0  0  0
   23.9187  -21.2766   -7.7955 N   0  0  0  0  0  0  0  0  0  0  0  0
   25.3362  -20.8943   -9.6210 N   0  0  0  0  0  0  0  0  0  0  0  0
   25.7723  -20.0081  -10.6638 C   0  0  0  0  0  0  0  0  0  0  0  0
   25.4502  -20.6339  -11.9951 C   0  0  0  0  0  0  0  0  0  0  0  0
   26.5874  -20.4988  -12.9855 C   0  0  0  0  0  0  0  0  0  0  0  0
   26.0708  -21.0912  -14.3015 C   0  0  2  0  0  0  0  0  0  0  0  0
   27.1326  -20.9597  -15.2622 N   0  0  0  0  0  0  0  0  0  0  0  0
   24.8803  -20.3558  -14.7622 C   0  0  0  0  0  0  0  0  0  0  0  0
   24.9837  -19.1050  -14.9233 O   0  0  0  0  0  0  0  0  0  0  0  0
   24.7551  -21.6555   -7.2980 N   0  0  0  0  0  0  0  0  0  0  0  0
   23.6452  -20.9340  -15.0349 C   0  0  2  0  0  0  0  0  0  0  0  0
   22.4575  -20.1254  -15.5176 C   0  0  0  0  0  0  0  0  0  0  0  0
   21.5931  -21.0413  -16.2652 C   0  0  0  0  0  0  0  0  0  0  0  0
   20.3684  -20.6533  -16.9222 C   0  0  0  0  0  0  0  0  0  0  0  0
   19.5133  -21.6023  -17.6797 C   0  0  0  0  0  0  0  0  0  0  0  0
   18.3024  -20.9870  -18.3359 N   0  0  0  0  0  0  0  0  0  0  0  0
   17.4956  -21.9747  -18.9792 C   0  0  0  0  0  0  0  0  0  0  0  0
   21.9774  -19.3601  -14.3815 O   0  0  0  0  0  0  0  0  0  0  0  0
   22.1277  -19.8305  -13.1779 O   0  0  0  0  0  0  0  0  0  0  0  0
  2  5  1  0
  2  1  1  6
  3  2  1  0
  4  3  1  0
  5  6  2  0
  8 10  1  0
  8  7  1  0
  9  8  2  0
 11 10  1  0
 11 12  1  0
 13 12  1  0
 14 13  1  1
 15 14  1  0
 15  5  1  0
 16 17  2  0
 16 14  1  0
 18 16  1  0
 19 18  1  0
 19 25  1  0
 19 20  1  6
 21 20  1  0
 22 21  1  0
 23 22  1  0
 23 24  1  0
 25 27  1  0
 26 25  2  0
M  END
$$$$
