CRK.pdb
     RDKit          3D

 27 26  0  0  1  0  0  0  0  0999 V2000
   26.9157  -21.5468  -11.0650 N   0  0  0  0  0  0  0  0  0  0  0  0
   25.5624  -21.0387  -11.1124 C   0  0  1  0  0  0  0  0  0  0  0  0
   25.5058  -19.8001  -10.2330 C   0  0  0  0  0  0  0  0  0  0  0  0
   24.9181  -20.2878   -8.5849 S   0  0  0  0  0  0  0  0  0  0  0  0
   25.1911  -20.6731  -12.4918 C   0  0  0  0  0  0  0  0  0  0  0  0
   25.9682  -19.9867  -13.1851 O   0  0  0  0  0  0  0  0  0  0  0  0
   24.7255  -26.2291  -14.8243 N   0  0  0  0  0  0  0  0  0  0  0  0
   23.6534  -25.6425  -15.5328 C   0  0  0  0  0  0  0  0  0  0  0  0
   22.4595  -26.1716  -15.5815 N   0  0  0  0  0  0  0  0  0  0  0  0
   23.8585  -24.4112  -16.2385 N   0  0  0  0  0  0  0  0  0  0  0  0
   25.1222  -23.7286  -16.2475 C   0  0  0  0  0  0  0  0  0  0  0  0
   24.9854  -22.4495  -15.4646 C   0  0  0  0  0  0  0  0  0  0  0  0
   23.5430  -22.1260  -15.1370 C   0  0  0  0  0  0  0  0  0  0  0  0
   23.5739  -20.7988  -14.3706 C   0  0  2  0  0  0  0  0  0  0  0  0
   23.9478  -21.1085  -13.0170 N   0  0  0  0  0  0  0  0  0  0  0  0
   22.2453  -20.1627  -14.3935 C   0  0  0  0  0  0  0  0  0  0  0  0
   21.4541  -20.4116  -13.4379 O   0  0  0  0  0  0  0  0  0  0  0  0
   21.7274  -25.7400  -16.1885 N   0  0  0  0  0  0  0  0  0  0  0  0
   21.7919  -19.3053  -15.3901 C   0  0  2  0  0  0  0  0  0  0  0  0
   20.3692  -18.7834  -15.4288 C   0  0  0  0  0  0  0  0  0  0  0  0
   20.3464  -17.6770  -16.3881 C   0  0  0  0  0  0  0  0  0  0  0  0
   20.4720  -16.2848  -16.0304 C   0  0  0  0  0  0  0  0  0  0  0  0
   20.6136  -15.1955  -17.0300 C   0  0  0  0  0  0  0  0  0  0  0  0
   20.9602  -13.8439  -16.4570 N   0  0  0  0  0  0  0  0  0  0  0  0
   20.1403  -13.5251  -15.3317 C   0  0  0  0  0  0  0  0  0  0  0  0
   19.4989  -19.9380  -15.5563 O   0  0  0  0  0  0  0  0  0  0  0  0
   18.2838  -19.8833  -15.0948 O   0  0  0  0  0  0  0  0  0  0  0  0
  2  5  1  0
  2  1  1  6
  3  2  1  0
  4  3  1  0
  5  6  2  0
  8 10  1  0
  8  7  1  0
  9  8  2  0
 11 10  1  0
 11 12  1  0
 13 12  1  0
 14 13  1  6
 15 14  1  0
 15  5  1  0
 16 17  2  0
 16 14  1  0
 18 16  1  0
 19 18  1  0
 19 25  1  0
 19 20  1  6
 21 20  1  0
 22 21  1  0
 23 22  1  0
 23 24  1  0
 25 27  1  0
 26 25  2  0
M  END
$$$$
