CRK.pdb
     RDKit          3D

 27 26  0  0  1  0  0  0  0  0999 V2000
   27.6034  -16.1674  -19.0207 N   0  0  0  0  0  0  0  0  0  0  0  0
   26.9248  -15.8106  -17.7942 C   0  0  1  0  0  0  0  0  0  0  0  0
   25.7892  -14.8671  -18.1554 C   0  0  0  0  0  0  0  0  0  0  0  0
   26.4975  -13.2572  -18.6091 S   0  0  0  0  0  0  0  0  0  0  0  0
   26.3712  -17.0091  -17.1374 C   0  0  0  0  0  0  0  0  0  0  0  0
   25.6146  -17.7728  -17.7699 O   0  0  0  0  0  0  0  0  0  0  0  0
   26.2256  -19.8683   -9.1833 N   0  0  0  0  0  0  0  0  0  0  0  0
   25.8246  -20.9292  -10.0256 C   0  0  0  0  0  0  0  0  0  0  0  0
   24.7760  -21.6709   -9.7844 N   0  0  0  0  0  0  0  0  0  0  0  0
   26.5855  -21.2258  -11.2043 N   0  0  0  0  0  0  0  0  0  0  0  0
   27.3007  -20.2171  -11.9349 C   0  0  0  0  0  0  0  0  0  0  0  0
   26.4572  -19.7774  -13.1023 C   0  0  0  0  0  0  0  0  0  0  0  0
   27.1690  -18.7702  -13.9805 C   0  0  0  0  0  0  0  0  0  0  0  0
   26.2010  -18.4537  -15.1262 C   0  0  2  0  0  0  0  0  0  0  0  0
   26.7072  -17.2810  -15.7866 N   0  0  0  0  0  0  0  0  0  0  0  0
   24.8507  -18.1918  -14.5986 C   0  0  0  0  0  0  0  0  0  0  0  0
   24.5523  -16.9978  -14.3044 O   0  0  0  0  0  0  0  0  0  0  0  0
   24.5170  -22.4319  -10.4511 N   0  0  0  0  0  0  0  0  0  0  0  0
   23.8739  -19.1612  -14.3981 C   0  0  2  0  0  0  0  0  0  0  0  0
   22.3923  -18.8437  -14.4392 C   0  0  0  0  0  0  0  0  0  0  0  0
   22.1161  -18.2654  -15.7561 C   0  0  0  0  0  0  0  0  0  0  0  0
   20.9351  -17.5024  -16.0803 C   0  0  0  0  0  0  0  0  0  0  0  0
   20.6627  -16.9574  -17.4347 C   0  0  0  0  0  0  0  0  0  0  0  0
   19.3616  -16.2064  -17.5712 N   0  0  0  0  0  0  0  0  0  0  0  0
   19.2549  -15.5689  -18.8449 C   0  0  0  0  0  0  0  0  0  0  0  0
   21.6948  -20.0172  -13.9462 O   0  0  0  0  0  0  0  0  0  0  0  0
   22.1384  -21.2033  -14.2445 O   0  0  0  0  0  0  0  0  0  0  0  0
  2  5  1  0
  2  1  1  6
  3  2  1  0
  4  3  1  0
  5  6  2  0
  8 10  1  0
  8  7  1  0
  9  8  2  0
 11 10  1  0
 11 12  1  0
 13 12  1  0
 14 13  1  1
 15 14  1  0
 15  5  1  0
 16 17  2  0
 16 14  1  0
 18 16  1  0
 19 18  1  0
 19 25  1  0
 19 20  1  6
 21 20  1  0
 22 21  1  0
 23 22  1  0
 23 24  1  0
 25 27  1  0
 26 25  2  0
M  END
$$$$
