CRK.pdb
     RDKit          3D

 27 26  0  0  1  0  0  0  0  0999 V2000
   28.4431  -20.6808   -7.5154 N   0  0  0  0  0  0  0  0  0  0  0  0
   27.0030  -20.5592   -7.4569 C   0  0  1  0  0  0  0  0  0  0  0  0
   26.6738  -19.4896   -6.4283 C   0  0  0  0  0  0  0  0  0  0  0  0
   27.3781  -19.9885   -4.8300 S   0  0  0  0  0  0  0  0  0  0  0  0
   26.4604  -20.1568   -8.7676 C   0  0  0  0  0  0  0  0  0  0  0  0
   26.7035  -19.0204   -9.2204 O   0  0  0  0  0  0  0  0  0  0  0  0
   24.7037  -25.1172  -14.3103 N   0  0  0  0  0  0  0  0  0  0  0  0
   24.5478  -24.0715  -15.2472 C   0  0  0  0  0  0  0  0  0  0  0  0
   23.6896  -24.1213  -16.2315 N   0  0  0  0  0  0  0  0  0  0  0  0
   25.3553  -22.8919  -15.1350 N   0  0  0  0  0  0  0  0  0  0  0  0
   26.2902  -22.6963  -14.0622 C   0  0  0  0  0  0  0  0  0  0  0  0
   25.7510  -21.6351  -13.1398 C   0  0  0  0  0  0  0  0  0  0  0  0
   25.8797  -22.0200  -11.6812 C   0  0  0  0  0  0  0  0  0  0  0  0
   25.3467  -20.8249  -10.8829 C   0  0  2  0  0  0  0  0  0  0  0  0
   25.6639  -21.0719   -9.5022 N   0  0  0  0  0  0  0  0  0  0  0  0
   23.8880  -20.7055  -11.0513 C   0  0  0  0  0  0  0  0  0  0  0  0
   23.1466  -21.3846  -10.2831 O   0  0  0  0  0  0  0  0  0  0  0  0
   23.6718  -23.3548  -16.9407 N   0  0  0  0  0  0  0  0  0  0  0  0
   23.2603  -19.8995  -11.9950 C   0  0  2  0  0  0  0  0  0  0  0  0
   21.7532  -19.8515  -12.1501 C   0  0  0  0  0  0  0  0  0  0  0  0
   21.4567  -18.7859  -13.1101 C   0  0  0  0  0  0  0  0  0  0  0  0
   20.1284  -18.3196  -13.4266 C   0  0  0  0  0  0  0  0  0  0  0  0
   19.8516  -17.2778  -14.4481 C   0  0  0  0  0  0  0  0  0  0  0  0
   18.4030  -16.8771  -14.5755 N   0  0  0  0  0  0  0  0  0  0  0  0
   18.2393  -15.7794  -15.4746 C   0  0  0  0  0  0  0  0  0  0  0  0
   21.3049  -21.2180  -12.3460 O   0  0  0  0  0  0  0  0  0  0  0  0
   20.2435  -21.6433  -11.7253 O   0  0  0  0  0  0  0  0  0  0  0  0
  2  5  1  0
  2  1  1  6
  3  2  1  0
  4  3  1  0
  5  6  2  0
  8 10  1  0
  8  7  1  0
  9  8  2  0
 11 10  1  0
 11 12  1  0
 13 12  1  0
 14 13  1  6
 15 14  1  0
 15  5  1  0
 16 17  2  0
 16 14  1  0
 18 16  1  0
 19 18  1  0
 19 25  1  0
 19 20  1  6
 21 20  1  0
 22 21  1  0
 23 22  1  0
 23 24  1  0
 25 27  1  0
 26 25  2  0
M  END
$$$$
