CRK.pdb
     RDKit          3D

 27 26  0  0  1  0  0  0  0  0999 V2000
   20.5137  -20.5692  -11.1056 N   0  0  0  0  0  0  0  0  0  0  0  0
   20.7908  -21.1103  -12.4181 C   0  0  1  0  0  0  0  0  0  0  0  0
   19.4638  -21.2532  -13.1454 C   0  0  0  0  0  0  0  0  0  0  0  0
   18.8266  -22.9303  -12.8614 S   0  0  0  0  0  0  0  0  0  0  0  0
   21.6683  -20.2035  -13.1809 C   0  0  0  0  0  0  0  0  0  0  0  0
   21.5124  -18.9688  -13.0969 O   0  0  0  0  0  0  0  0  0  0  0  0
   28.8119  -22.2503  -15.5702 N   0  0  0  0  0  0  0  0  0  0  0  0
   27.5829  -22.8124  -15.9816 C   0  0  0  0  0  0  0  0  0  0  0  0
   27.3098  -24.0852  -15.8673 N   0  0  0  0  0  0  0  0  0  0  0  0
   26.5733  -21.9697  -16.5532 N   0  0  0  0  0  0  0  0  0  0  0  0
   26.7512  -20.5537  -16.7150 C   0  0  0  0  0  0  0  0  0  0  0  0
   25.5424  -19.8488  -16.1587 C   0  0  0  0  0  0  0  0  0  0  0  0
   24.6795  -20.7634  -15.3153 C   0  0  0  0  0  0  0  0  0  0  0  0
   23.5349  -19.8913  -14.7869 C   0  0  2  0  0  0  0  0  0  0  0  0
   22.6850  -20.7488  -14.0057 N   0  0  0  0  0  0  0  0  0  0  0  0
   22.7733  -19.3114  -15.9067 C   0  0  0  0  0  0  0  0  0  0  0  0
   21.6392  -19.8070  -16.1697 O   0  0  0  0  0  0  0  0  0  0  0  0
   26.3914  -24.4491  -16.2065 N   0  0  0  0  0  0  0  0  0  0  0  0
   23.2077  -18.2556  -16.7008 C   0  0  1  0  0  0  0  0  0  0  0  0
   22.2654  -17.4584  -17.5807 C   0  0  0  0  0  0  0  0  0  0  0  0
   21.1785  -16.9834  -16.7215 C   0  0  0  0  0  0  0  0  0  0  0  0
   20.0885  -16.1512  -17.1702 C   0  0  0  0  0  0  0  0  0  0  0  0
   18.9965  -15.6863  -16.2776 C   0  0  0  0  0  0  0  0  0  0  0  0
   18.0091  -14.7408  -16.9153 N   0  0  0  0  0  0  0  0  0  0  0  0
   17.0284  -14.2951  -15.9773 C   0  0  0  0  0  0  0  0  0  0  0  0
   23.0845  -16.5534  -18.3661 O   0  0  0  0  0  0  0  0  0  0  0  0
   22.5964  -16.0141  -19.4447 O   0  0  0  0  0  0  0  0  0  0  0  0
  2  5  1  0
  2  1  1  1
  3  2  1  0
  4  3  1  0
  5  6  2  0
  8 10  1  0
  8  7  1  0
  9  8  2  0
 11 10  1  0
 11 12  1  0
 13 12  1  0
 14 13  1  6
 15 14  1  0
 15  5  1  0
 16 17  2  0
 16 14  1  0
 18 16  1  0
 19 18  1  0
 19 25  1  0
 19 20  1  6
 21 20  1  0
 22 21  1  0
 23 22  1  0
 23 24  1  0
 25 27  1  0
 26 25  2  0
M  END
$$$$
