CRK.pdb
     RDKit          3D

 27 26  0  0  1  0  0  0  0  0999 V2000
   25.4353  -34.8571  -11.1917 N   0  0  0  0  0  0  0  0  0  0  0  0
   25.7652  -35.0384  -12.5883 C   0  0  1  0  0  0  0  0  0  0  0  0
   24.7382  -35.9880  -13.1832 C   0  0  0  0  0  0  0  0  0  0  0  0
   24.9266  -37.6124  -12.3925 S   0  0  0  0  0  0  0  0  0  0  0  0
   25.7123  -33.7522  -13.3074 C   0  0  0  0  0  0  0  0  0  0  0  0
   24.9506  -32.8475  -12.9110 O   0  0  0  0  0  0  0  0  0  0  0  0
   32.3450  -31.9314  -18.0625 N   0  0  0  0  0  0  0  0  0  0  0  0
   31.3710  -30.9158  -17.9383 C   0  0  0  0  0  0  0  0  0  0  0  0
   31.4102  -29.8055  -18.6265 N   0  0  0  0  0  0  0  0  0  0  0  0
   30.2805  -31.0866  -17.0231 N   0  0  0  0  0  0  0  0  0  0  0  0
   30.1987  -32.2003  -16.1199 C   0  0  0  0  0  0  0  0  0  0  0  0
   28.9333  -32.0754  -15.3131 C   0  0  0  0  0  0  0  0  0  0  0  0
   27.6937  -32.3414  -16.1408 C   0  0  0  0  0  0  0  0  0  0  0  0
   26.5175  -32.3076  -15.1582 C   0  0  2  0  0  0  0  0  0  0  0  0
   26.5327  -33.5577  -14.4478 N   0  0  0  0  0  0  0  0  0  0  0  0
   25.2457  -32.1571  -15.8863 C   0  0  0  0  0  0  0  0  0  0  0  0
   24.5927  -33.2061  -16.1587 O   0  0  0  0  0  0  0  0  0  0  0  0
   30.6575  -29.0926  -18.5003 N   0  0  0  0  0  0  0  0  0  0  0  0
   24.7051  -30.9441  -16.2993 C   0  0  1  0  0  0  0  0  0  0  0  0
   23.2924  -30.8237  -16.8354 C   0  0  0  0  0  0  0  0  0  0  0  0
   22.4118  -31.4858  -15.8704 C   0  0  0  0  0  0  0  0  0  0  0  0
   20.9707  -31.4770  -15.9417 C   0  0  0  0  0  0  0  0  0  0  0  0
   20.1016  -32.1814  -14.9649 C   0  0  0  0  0  0  0  0  0  0  0  0
   18.6284  -32.1587  -15.2883 N   0  0  0  0  0  0  0  0  0  0  0  0
   17.8770  -32.9516  -14.3680 C   0  0  0  0  0  0  0  0  0  0  0  0
   23.1072  -29.4396  -17.2313 O   0  0  0  0  0  0  0  0  0  0  0  0
   24.0948  -28.6001  -17.1209 O   0  0  0  0  0  0  0  0  0  0  0  0
  2  5  1  0
  2  1  1  1
  3  2  1  0
  4  3  1  0
  5  6  2  0
  8 10  1  0
  8  7  1  0
  9  8  2  0
 11 10  1  0
 11 12  1  0
 13 12  1  0
 14 13  1  6
 15 14  1  0
 15  5  1  0
 16 17  2  0
 16 14  1  0
 18 16  1  0
 19 18  1  0
 19 25  1  0
 19 20  1  1
 21 20  1  0
 22 21  1  0
 23 22  1  0
 23 24  1  0
 25 27  1  0
 26 25  2  0
M  END
$$$$
