KKP.pdb
     RDKit          3D

 26 26  0  0  1  0  0  0  0  0999 V2000
   28.6075  -22.3516  -16.7195 N   0  0  0  0  0  0  0  0  0  0  0  0
   28.0732  -21.2110  -16.0036 C   0  0  1  0  0  0  0  0  0  0  0  0
   27.8373  -20.0505  -16.9688 C   0  0  0  0  0  0  0  0  0  0  0  0
   27.8954  -20.6280  -18.3510 C   0  0  0  0  0  0  0  0  0  0  0  0
   26.5582  -21.0298  -18.8832 C   0  0  0  0  0  0  0  0  0  0  0  0
   26.5037  -21.4203  -20.3195 C   0  0  0  0  0  0  0  0  0  0  0  0
   25.2096  -21.8693  -20.7100 N   0  0  0  0  0  0  0  0  0  0  0  0
   26.8025  -21.5942  -15.3030 C   0  0  0  0  0  0  0  0  0  0  0  0
   25.9887  -22.4005  -15.8213 O   0  0  0  0  0  0  0  0  0  0  0  0
   26.4574  -21.0755  -14.0390 N   0  0  0  0  0  0  0  0  0  0  0  0
   25.1803  -21.4683  -13.3473 C   0  0  1  0  0  0  0  0  0  0  0  0
   25.3175  -20.9796  -11.9184 C   0  0  0  0  0  0  0  0  0  0  0  0
   24.0963  -21.1953  -11.1154 C   0  0  0  0  0  0  0  0  0  0  0  0
   24.2748  -20.8214   -9.6540 C   0  0  0  0  0  0  0  0  0  0  0  0
   22.9877  -21.1225   -8.8799 C   0  0  0  0  0  0  0  0  0  0  0  0
   23.1509  -20.8340   -7.4830 N   0  0  0  0  0  0  0  0  0  0  0  0
   24.1916  -20.6105  -14.0330 C   0  0  0  0  0  0  0  0  0  0  0  0
   24.6165  -19.4273  -14.3465 O   0  0  0  0  0  0  0  0  0  0  0  0
   22.8642  -20.8669  -14.4083 N   0  0  0  0  0  0  0  0  0  0  0  0
   22.1892  -22.1103  -13.9445 C   0  0  0  0  0  0  0  0  0  0  0  0
   21.1235  -22.4064  -14.9601 C   0  0  0  0  0  0  0  0  0  0  0  0
   21.2686  -21.3351  -16.0077 C   0  0  0  0  0  0  0  0  0  0  0  0
   21.8485  -20.2034  -15.1521 C   0  0  1  0  0  0  0  0  0  0  0  0
   20.7120  -19.7622  -14.2588 C   0  0  0  0  0  0  0  0  0  0  0  0
   20.7190  -20.0648  -13.0441 O   0  0  0  0  0  0  0  0  0  0  0  0
   19.6369  -19.0245  -14.7200 O   0  0  0  0  0  0  0  0  0  0  0  0
  2  8  1  0
  2  1  1  6
  3  4  1  0
  3  2  1  0
  5  6  1  0
  5  4  1  0
  7  6  1  0
  8  9  2  0
 10 11  1  0
 10  8  1  0
 11 12  1  1
 13 12  1  0
 14 13  1  0
 15 14  1  0
 16 15  1  0
 17 11  1  0
 18 17  2  0
 19 17  1  0
 20 19  1  0
 21 20  1  0
 21 22  1  0
 22 23  1  0
 23 19  1  0
 23 24  1  1
 25 24  2  0
 26 24  1  0
M  END
$$$$
