KKP.pdb
     RDKit          3D

 26 26  0  0  1  0  0  0  0  0999 V2000
   21.5602  -16.4237  -16.9105 N   0  0  0  0  0  0  0  0  0  0  0  0
   21.4494  -17.8682  -16.9235 C   0  0  1  0  0  0  0  0  0  0  0  0
   22.2543  -18.4448  -18.0870 C   0  0  0  0  0  0  0  0  0  0  0  0
   21.6352  -17.9056  -19.3413 C   0  0  0  0  0  0  0  0  0  0  0  0
   20.6886  -18.8599  -19.9939 C   0  0  0  0  0  0  0  0  0  0  0  0
   20.1077  -18.4340  -21.2975 C   0  0  0  0  0  0  0  0  0  0  0  0
   19.2506  -19.4240  -21.8579 N   0  0  0  0  0  0  0  0  0  0  0  0
   21.9192  -18.4307  -15.6139 C   0  0  0  0  0  0  0  0  0  0  0  0
   23.0764  -18.1977  -15.1807 O   0  0  0  0  0  0  0  0  0  0  0  0
   21.0959  -19.2421  -14.8079 N   0  0  0  0  0  0  0  0  0  0  0  0
   21.6230  -19.9178  -13.5712 C   0  0  1  0  0  0  0  0  0  0  0  0
   20.4085  -20.4815  -12.8592 C   0  0  0  0  0  0  0  0  0  0  0  0
   20.7610  -21.3833  -11.7434 C   0  0  0  0  0  0  0  0  0  0  0  0
   19.5500  -22.0559  -11.1204 C   0  0  0  0  0  0  0  0  0  0  0  0
   19.9935  -22.9531   -9.9607 C   0  0  0  0  0  0  0  0  0  0  0  0
   18.8621  -23.5747   -9.3324 N   0  0  0  0  0  0  0  0  0  0  0  0
   22.3826  -21.0470  -14.1469 C   0  0  0  0  0  0  0  0  0  0  0  0
   21.9915  -21.4284  -15.3218 O   0  0  0  0  0  0  0  0  0  0  0  0
   23.4663  -21.7752  -13.6333 N   0  0  0  0  0  0  0  0  0  0  0  0
   23.8655  -21.6058  -12.2089 C   0  0  0  0  0  0  0  0  0  0  0  0
   25.3232  -21.9597  -12.1424 C   0  0  0  0  0  0  0  0  0  0  0  0
   25.7186  -22.2703  -13.5614 C   0  0  0  0  0  0  0  0  0  0  0  0
   24.3746  -22.7613  -14.1104 C   0  0  1  0  0  0  0  0  0  0  0  0
   24.1390  -24.0959  -13.4414 C   0  0  0  0  0  0  0  0  0  0  0  0
   24.8349  -25.0862  -13.7613 O   0  0  0  0  0  0  0  0  0  0  0  0
   23.1726  -24.2898  -12.4712 O   0  0  0  0  0  0  0  0  0  0  0  0
  2  8  1  0
  2  1  1  1
  3  4  1  0
  3  2  1  0
  5  6  1  0
  5  4  1  0
  7  6  1  0
  8  9  2  0
 10 11  1  0
 10  8  1  0
 11 12  1  1
 13 12  1  0
 14 13  1  0
 15 14  1  0
 16 15  1  0
 17 11  1  0
 18 17  2  0
 19 17  1  0
 20 19  1  0
 21 20  1  0
 21 22  1  0
 22 23  1  0
 23 19  1  0
 23 24  1  1
 25 24  2  0
 26 24  1  0
M  END
$$$$
