KKP.pdb
     RDKit          3D

 26 26  0  0  1  0  0  0  0  0999 V2000
   23.7374  -12.6631  -16.8042 N   0  0  0  0  0  0  0  0  0  0  0  0
   24.4217  -11.3863  -16.8244 C   0  0  1  0  0  0  0  0  0  0  0  0
   25.4435  -11.3577  -17.9598 C   0  0  0  0  0  0  0  0  0  0  0  0
   24.9624  -12.3347  -18.9901 C   0  0  0  0  0  0  0  0  0  0  0  0
   25.6978  -13.6351  -18.9641 C   0  0  0  0  0  0  0  0  0  0  0  0
   25.5712  -14.4953  -20.1734 C   0  0  0  0  0  0  0  0  0  0  0  0
   26.2066  -15.7593  -20.0080 N   0  0  0  0  0  0  0  0  0  0  0  0
   23.4262  -10.2727  -16.9691 C   0  0  0  0  0  0  0  0  0  0  0  0
   23.4796   -9.4705  -17.9359 O   0  0  0  0  0  0  0  0  0  0  0  0
   22.3883  -10.0690  -16.0378 N   0  0  0  0  0  0  0  0  0  0  0  0
   21.3814   -8.9642  -16.2083 C   0  0  1  0  0  0  0  0  0  0  0  0
   20.0741   -9.5099  -15.6673 C   0  0  0  0  0  0  0  0  0  0  0  0
   18.9711   -8.5288  -15.7263 C   0  0  0  0  0  0  0  0  0  0  0  0
   17.6812   -9.0505  -15.1171 C   0  0  0  0  0  0  0  0  0  0  0  0
   16.6096   -7.9565  -15.1544 C   0  0  0  0  0  0  0  0  0  0  0  0
   15.4381   -8.3624  -14.4303 N   0  0  0  0  0  0  0  0  0  0  0  0
   21.8842   -7.9507  -15.2577 C   0  0  0  0  0  0  0  0  0  0  0  0
   22.4809   -8.4287  -14.2116 O   0  0  0  0  0  0  0  0  0  0  0  0
   21.8280   -6.5495  -15.3019 N   0  0  0  0  0  0  0  0  0  0  0  0
   21.0542   -5.8717  -16.3785 C   0  0  0  0  0  0  0  0  0  0  0  0
   21.6781   -4.5163  -16.5463 C   0  0  0  0  0  0  0  0  0  0  0  0
   22.8344   -4.4924  -15.5825 C   0  0  0  0  0  0  0  0  0  0  0  0
   22.3139   -5.4652  -14.5188 C   0  0  1  0  0  0  0  0  0  0  0  0
   21.1839   -4.7323  -13.8330 C   0  0  0  0  0  0  0  0  0  0  0  0
   19.9981   -4.9717  -14.1551 O   0  0  0  0  0  0  0  0  0  0  0  0
   21.3917   -3.7874  -12.8447 O   0  0  0  0  0  0  0  0  0  0  0  0
  2  8  1  0
  2  1  1  6
  3  4  1  0
  3  2  1  0
  5  6  1  0
  5  4  1  0
  7  6  1  0
  8  9  2  0
 10 11  1  0
 10  8  1  0
 11 12  1  1
 13 12  1  0
 14 13  1  0
 15 14  1  0
 16 15  1  0
 17 11  1  0
 18 17  2  0
 19 17  1  0
 20 19  1  0
 21 20  1  0
 21 22  1  0
 22 23  1  0
 23 19  1  0
 23 24  1  6
 25 24  2  0
 26 24  1  0
M  END
$$$$
