KKP.pdb
     RDKit          3D

 26 26  0  0  1  0  0  0  0  0999 V2000
   20.2235  -19.1935  -14.1842 N   0  0  0  0  0  0  0  0  0  0  0  0
   21.1620  -19.9197  -15.0155 C   0  0  1  0  0  0  0  0  0  0  0  0
   20.9284  -19.5820  -16.4870 C   0  0  0  0  0  0  0  0  0  0  0  0
   20.4044  -20.8297  -17.1320 C   0  0  0  0  0  0  0  0  0  0  0  0
   19.4031  -21.5559  -16.2936 C   0  0  0  0  0  0  0  0  0  0  0  0
   18.8318  -22.8042  -16.8713 C   0  0  0  0  0  0  0  0  0  0  0  0
   17.9255  -23.4478  -15.9807 N   0  0  0  0  0  0  0  0  0  0  0  0
   22.5686  -19.5942  -14.6060 C   0  0  0  0  0  0  0  0  0  0  0  0
   23.0449  -18.4414  -14.7653 O   0  0  0  0  0  0  0  0  0  0  0  0
   23.4221  -20.5543  -14.0268 N   0  0  0  0  0  0  0  0  0  0  0  0
   24.8236  -20.2094  -13.6018 C   0  0  1  0  0  0  0  0  0  0  0  0
   25.1220  -21.0936  -12.4065 C   0  0  0  0  0  0  0  0  0  0  0  0
   24.7397  -20.4740  -11.1210 C   0  0  0  0  0  0  0  0  0  0  0  0
   23.6479  -21.2413  -10.3953 C   0  0  0  0  0  0  0  0  0  0  0  0
   23.2853  -20.5214   -9.0926 C   0  0  0  0  0  0  0  0  0  0  0  0
   22.1973  -21.1819   -8.4283 N   0  0  0  0  0  0  0  0  0  0  0  0
   25.6149  -20.7040  -14.7475 C   0  0  0  0  0  0  0  0  0  0  0  0
   25.0207  -21.5908  -15.4819 O   0  0  0  0  0  0  0  0  0  0  0  0
   26.9070  -20.3675  -15.1786 N   0  0  0  0  0  0  0  0  0  0  0  0
   27.8489  -19.6931  -14.2431 C   0  0  0  0  0  0  0  0  0  0  0  0
   28.8103  -18.9265  -15.1048 C   0  0  0  0  0  0  0  0  0  0  0  0
   28.3408  -19.1529  -16.5171 C   0  0  0  0  0  0  0  0  0  0  0  0
   27.6821  -20.5279  -16.3611 C   0  0  1  0  0  0  0  0  0  0  0  0
   28.8263  -21.4909  -16.1424 C   0  0  0  0  0  0  0  0  0  0  0  0
   28.9883  -22.0237  -15.0212 O   0  0  0  0  0  0  0  0  0  0  0  0
   29.7279  -21.8246  -17.1366 O   0  0  0  0  0  0  0  0  0  0  0  0
  2  8  1  0
  2  1  1  1
  3  4  1  0
  3  2  1  0
  5  6  1  0
  5  4  1  0
  7  6  1  0
  8  9  2  0
 10 11  1  0
 10  8  1  0
 11 12  1  1
 13 12  1  0
 14 13  1  0
 15 14  1  0
 16 15  1  0
 17 11  1  0
 18 17  2  0
 19 17  1  0
 20 19  1  0
 21 20  1  0
 21 22  1  0
 22 23  1  0
 23 19  1  0
 23 24  1  1
 25 24  2  0
 26 24  1  0
M  END
$$$$
