KKP.pdb
     RDKit          3D

 26 26  0  0  1  0  0  0  0  0999 V2000
   20.9753  -21.1812  -15.7751 N   0  0  0  0  0  0  0  0  0  0  0  0
   21.0529  -19.7465  -15.5887 C   0  0  1  0  0  0  0  0  0  0  0  0
   19.7584  -19.2288  -14.9641 C   0  0  0  0  0  0  0  0  0  0  0  0
   19.4831  -20.0974  -13.7736 C   0  0  0  0  0  0  0  0  0  0  0  0
   18.4815  -21.1732  -14.0426 C   0  0  0  0  0  0  0  0  0  0  0  0
   18.0290  -21.9696  -12.8682 C   0  0  0  0  0  0  0  0  0  0  0  0
   17.1187  -23.0028  -13.2326 N   0  0  0  0  0  0  0  0  0  0  0  0
   22.2372  -19.4035  -14.7332 C   0  0  0  0  0  0  0  0  0  0  0  0
   22.5296  -18.2089  -14.4714 O   0  0  0  0  0  0  0  0  0  0  0  0
   23.0766  -20.3929  -14.1831 N   0  0  0  0  0  0  0  0  0  0  0  0
   24.4488  -20.0623  -13.6621 C   0  0  1  0  0  0  0  0  0  0  0  0
   24.7411  -21.0909  -12.5870 C   0  0  0  0  0  0  0  0  0  0  0  0
   24.3826  -20.6260  -11.2313 C   0  0  0  0  0  0  0  0  0  0  0  0
   23.1429  -21.3088  -10.6797 C   0  0  0  0  0  0  0  0  0  0  0  0
   22.7486  -20.6697   -9.3446 C   0  0  0  0  0  0  0  0  0  0  0  0
   21.5998  -21.3231   -8.7835 N   0  0  0  0  0  0  0  0  0  0  0  0
   25.2962  -20.3688  -14.8333 C   0  0  0  0  0  0  0  0  0  0  0  0
   24.6912  -20.9797  -15.8027 O   0  0  0  0  0  0  0  0  0  0  0  0
   26.6524  -20.1022  -15.0743 N   0  0  0  0  0  0  0  0  0  0  0  0
   27.5386  -19.6905  -13.9508 C   0  0  0  0  0  0  0  0  0  0  0  0
   28.6524  -18.8973  -14.5712 C   0  0  0  0  0  0  0  0  0  0  0  0
   28.3256  -18.8406  -16.0397 C   0  0  0  0  0  0  0  0  0  0  0  0
   27.5379  -20.1470  -16.1874 C   0  0  1  0  0  0  0  0  0  0  0  0
   28.5636  -21.2460  -16.0304 C   0  0  0  0  0  0  0  0  0  0  0  0
   28.6133  -21.9064  -14.9681 O   0  0  0  0  0  0  0  0  0  0  0  0
   29.4739  -21.5708  -17.0195 O   0  0  0  0  0  0  0  0  0  0  0  0
  2  8  1  0
  2  1  1  1
  3  4  1  0
  3  2  1  0
  5  6  1  0
  5  4  1  0
  7  6  1  0
  8  9  2  0
 10 11  1  0
 10  8  1  0
 11 12  1  1
 13 12  1  0
 14 13  1  0
 15 14  1  0
 16 15  1  0
 17 11  1  0
 18 17  2  0
 19 17  1  0
 20 19  1  0
 21 20  1  0
 21 22  1  0
 22 23  1  0
 23 19  1  0
 23 24  1  1
 25 24  2  0
 26 24  1  0
M  END
$$$$
