KKP.pdb
     RDKit          3D

 26 26  0  0  1  0  0  0  0  0999 V2000
   19.6293  -19.5584  -17.9073 N   0  0  0  0  0  0  0  0  0  0  0  0
   20.4812  -18.9473  -16.9074 C   0  0  1  0  0  0  0  0  0  0  0  0
   19.6334  -18.4024  -15.7592 C   0  0  0  0  0  0  0  0  0  0  0  0
   19.1022  -17.0765  -16.2143 C   0  0  0  0  0  0  0  0  0  0  0  0
   17.6128  -16.9781  -16.1449 C   0  0  0  0  0  0  0  0  0  0  0  0
   17.0122  -15.6778  -16.5533 C   0  0  0  0  0  0  0  0  0  0  0  0
   15.5891  -15.6967  -16.4962 N   0  0  0  0  0  0  0  0  0  0  0  0
   21.4842  -19.9457  -16.4082 C   0  0  0  0  0  0  0  0  0  0  0  0
   21.1217  -21.0079  -15.8413 O   0  0  0  0  0  0  0  0  0  0  0  0
   22.8725  -19.7476  -16.5472 N   0  0  0  0  0  0  0  0  0  0  0  0
   23.8673  -20.7601  -16.0484 C   0  0  1  0  0  0  0  0  0  0  0  0
   25.0440  -20.6874  -17.0022 C   0  0  0  0  0  0  0  0  0  0  0  0
   26.1927  -21.5069  -16.5645 C   0  0  0  0  0  0  0  0  0  0  0  0
   27.3937  -21.3833  -17.4862 C   0  0  0  0  0  0  0  0  0  0  0  0
   28.5025  -22.3342  -17.0248 C   0  0  0  0  0  0  0  0  0  0  0  0
   29.6195  -22.2940  -17.9259 N   0  0  0  0  0  0  0  0  0  0  0  0
   24.2822  -20.1642  -14.7614 C   0  0  0  0  0  0  0  0  0  0  0  0
   24.1295  -18.8803  -14.6773 O   0  0  0  0  0  0  0  0  0  0  0  0
   24.8113  -20.7608  -13.6069 N   0  0  0  0  0  0  0  0  0  0  0  0
   25.1816  -22.2029  -13.6203 C   0  0  0  0  0  0  0  0  0  0  0  0
   25.0864  -22.6681  -12.1958 C   0  0  0  0  0  0  0  0  0  0  0  0
   24.6067  -21.4698  -11.4209 C   0  0  0  0  0  0  0  0  0  0  0  0
   25.1718  -20.3446  -12.2948 C   0  0  1  0  0  0  0  0  0  0  0  0
   26.6684  -20.4010  -12.0915 C   0  0  0  0  0  0  0  0  0  0  0  0
   27.4006  -20.8961  -12.9780 O   0  0  0  0  0  0  0  0  0  0  0  0
   27.2902  -19.9247  -10.9517 O   0  0  0  0  0  0  0  0  0  0  0  0
  2  8  1  0
  2  1  1  6
  3  4  1  0
  3  2  1  0
  5  6  1  0
  5  4  1  0
  7  6  1  0
  8  9  2  0
 10 11  1  0
 10  8  1  0
 11 12  1  6
 13 12  1  0
 14 13  1  0
 15 14  1  0
 16 15  1  0
 17 11  1  0
 18 17  2  0
 19 17  1  0
 20 19  1  0
 21 20  1  0
 21 22  1  0
 22 23  1  0
 23 19  1  0
 23 24  1  6
 25 24  2  0
 26 24  1  0
M  END
$$$$
