KKP.pdb
     RDKit          3D

 26 26  0  0  1  0  0  0  0  0999 V2000
   19.8809  -20.0461  -13.4200 N   0  0  0  0  0  0  0  0  0  0  0  0
   20.2442  -19.3678  -14.6476 C   0  0  1  0  0  0  0  0  0  0  0  0
   19.5437  -18.0122  -14.7240 C   0  0  0  0  0  0  0  0  0  0  0  0
   18.7648  -18.0072  -16.0048 C   0  0  0  0  0  0  0  0  0  0  0  0
   17.6850  -19.0391  -16.0470 C   0  0  0  0  0  0  0  0  0  0  0  0
   16.8955  -19.1249  -17.3070 C   0  0  0  0  0  0  0  0  0  0  0  0
   16.0052  -20.2367  -17.3137 N   0  0  0  0  0  0  0  0  0  0  0  0
   21.7344  -19.2079  -14.7238 C   0  0  0  0  0  0  0  0  0  0  0  0
   22.3777  -18.6375  -13.8062 O   0  0  0  0  0  0  0  0  0  0  0  0
   22.4847  -19.6840  -15.8175 N   0  0  0  0  0  0  0  0  0  0  0  0
   23.9808  -19.5353  -15.8720 C   0  0  1  0  0  0  0  0  0  0  0  0
   24.4557  -20.5201  -16.9228 C   0  0  0  0  0  0  0  0  0  0  0  0
   25.9021  -20.4111  -17.2035 C   0  0  0  0  0  0  0  0  0  0  0  0
   26.7315  -21.4311  -16.4425 C   0  0  0  0  0  0  0  0  0  0  0  0
   28.2202  -21.2019  -16.7213 C   0  0  0  0  0  0  0  0  0  0  0  0
   29.0297  -22.1100  -15.9588 N   0  0  0  0  0  0  0  0  0  0  0  0
   24.1269  -18.1715  -16.4217 C   0  0  0  0  0  0  0  0  0  0  0  0
   23.1387  -17.7678  -17.1561 O   0  0  0  0  0  0  0  0  0  0  0  0
   25.1601  -17.2335  -16.2756 N   0  0  0  0  0  0  0  0  0  0  0  0
   26.4099  -17.6120  -15.5603 C   0  0  0  0  0  0  0  0  0  0  0  0
   26.9838  -16.3323  -15.0239 C   0  0  0  0  0  0  0  0  0  0  0  0
   25.9973  -15.2640  -15.4134 C   0  0  0  0  0  0  0  0  0  0  0  0
   25.4113  -15.8931  -16.6822 C   0  0  1  0  0  0  0  0  0  0  0  0
   26.5225  -15.8275  -17.7045 C   0  0  0  0  0  0  0  0  0  0  0  0
   27.1016  -16.8772  -18.0654 O   0  0  0  0  0  0  0  0  0  0  0  0
   26.9468  -14.6427  -18.2779 O   0  0  0  0  0  0  0  0  0  0  0  0
  2  8  1  0
  2  1  1  1
  3  4  1  0
  3  2  1  0
  5  6  1  0
  5  4  1  0
  7  6  1  0
  8  9  2  0
 10 11  1  0
 10  8  1  0
 11 12  1  6
 13 12  1  0
 14 13  1  0
 15 14  1  0
 16 15  1  0
 17 11  1  0
 18 17  2  0
 19 17  1  0
 20 19  1  0
 21 20  1  0
 21 22  1  0
 22 23  1  0
 23 19  1  0
 23 24  1  6
 25 24  2  0
 26 24  1  0
M  END
$$$$
