FLS.pdb
     RDKit          3D

 26 26  0  0  1  0  0  0  0  0999 V2000
    7.3654  -17.9897   26.2587 N   0  0  0  0  0  0  0  0  0  0  0  0
    7.9177  -16.7451   25.8396 C   0  0  1  0  0  0  0  0  0  0  0  0
    9.3901  -16.6095   26.1264 C   0  0  0  0  0  0  0  0  0  0  0  0
    9.6655  -15.4731   27.0351 C   0  0  0  0  0  0  0  0  0  0  0  0
   10.3162  -15.7548   28.2193 C   0  0  0  0  0  0  0  0  0  0  0  0
   10.5785  -14.7177   29.0703 C   0  0  0  0  0  0  0  0  0  0  0  0
   10.1993  -13.4443   28.7403 C   0  0  0  0  0  0  0  0  0  0  0  0
    9.5515  -13.1817   27.5557 C   0  0  0  0  0  0  0  0  0  0  0  0
    9.2711  -14.2121   26.6714 C   0  0  0  0  0  0  0  0  0  0  0  0
    7.7581  -16.6595   24.3416 C   0  0  0  0  0  0  0  0  0  0  0  0
    7.2354  -17.6090   23.6962 O   0  0  0  0  0  0  0  0  0  0  0  0
    6.4165  -14.1198   19.8467 C   0  0  0  0  0  0  0  0  0  0  0  0
    7.8157  -13.6378   20.3690 C   0  0  1  0  0  0  0  0  0  0  0  0
    7.8869  -12.1809   20.0634 C   0  0  0  0  0  0  0  0  0  0  0  0
    7.8604  -14.0789   21.7621 C   0  0  0  0  0  0  0  0  0  0  0  0
    8.0496  -15.4959   22.1409 C   0  0  2  0  0  0  0  0  0  0  0  0
    8.1883  -15.5175   23.6241 N   0  0  0  0  0  0  0  0  0  0  0  0
    9.2859  -16.0931   21.6393 C   0  0  0  0  0  0  0  0  0  0  0  0
    9.3162  -16.7842   20.6007 O   0  0  0  0  0  0  0  0  0  0  0  0
   13.8894  -15.7751   20.9985 O   0  0  0  0  0  0  0  0  0  0  0  0
   12.7843  -15.2774   21.6493 C   0  0  0  0  0  0  0  0  0  0  0  0
   11.7437  -16.3799   21.7087 C   0  0  2  0  0  0  0  0  0  0  0  0
   10.5126  -15.9133   22.3140 N   0  0  0  0  0  0  0  0  0  0  0  0
   12.2965  -17.5136   22.4803 C   0  0  0  0  0  0  0  0  0  0  0  0
   13.4526  -18.1370   22.0645 O   0  0  0  0  0  0  0  0  0  0  0  0
   11.7174  -17.9135   23.5155 O   0  0  0  0  0  0  0  0  0  0  0  0
  2  1  1  6
  3  2  1  0
  4  3  1  0
  5  4  2  0
  6  5  1  0
  7  6  2  0
  7  8  1  0
  8  9  2  0
  9  4  1  0
 10  2  1  0
 10 17  1  0
 11 10  2  0
 13 14  1  1
 13 12  1  0
 15 13  1  0
 16 15  1  6
 16 17  1  0
 18 16  1  0
 19 18  2  0
 20 21  1  0
 22 21  1  1
 22 24  1  0
 22 23  1  0
 23 18  1  0
 24 25  1  0
 26 24  2  0
M  END
$$$$
