FLS.pdb
     RDKit          3D

 26 26  0  0  1  0  0  0  0  0999 V2000
    6.0256  -18.2306   25.0889 N   0  0  0  0  0  0  0  0  0  0  0  0
    6.3380  -16.8405   25.0853 C   0  0  1  0  0  0  0  0  0  0  0  0
    7.0176  -16.3700   26.3445 C   0  0  0  0  0  0  0  0  0  0  0  0
    7.1055  -14.8926   26.3963 C   0  0  0  0  0  0  0  0  0  0  0  0
    8.3498  -14.3419   26.6278 C   0  0  0  0  0  0  0  0  0  0  0  0
    8.4494  -12.9794   26.6790 C   0  0  0  0  0  0  0  0  0  0  0  0
    7.3368  -12.2013   26.5034 C   0  0  0  0  0  0  0  0  0  0  0  0
    6.1045  -12.7672   26.2736 C   0  0  0  0  0  0  0  0  0  0  0  0
    5.9706  -14.1460   26.2161 C   0  0  0  0  0  0  0  0  0  0  0  0
    7.3052  -16.5960   23.9534 C   0  0  0  0  0  0  0  0  0  0  0  0
    8.0168  -17.5350   23.5024 O   0  0  0  0  0  0  0  0  0  0  0  0
    7.2128  -14.2024   19.1534 C   0  0  0  0  0  0  0  0  0  0  0  0
    8.0814  -13.3918   20.1788 C   0  0  1  0  0  0  0  0  0  0  0  0
    7.8865  -11.9550   19.8344 C   0  0  0  0  0  0  0  0  0  0  0  0
    7.6522  -13.8772   21.4894 C   0  0  0  0  0  0  0  0  0  0  0  0
    8.0763  -15.1872   22.0290 C   0  0  2  0  0  0  0  0  0  0  0  0
    7.4395  -15.3131   23.3701 N   0  0  0  0  0  0  0  0  0  0  0  0
    9.5116  -15.2974   22.2829 C   0  0  0  0  0  0  0  0  0  0  0  0
   10.3585  -15.1716   21.3751 O   0  0  0  0  0  0  0  0  0  0  0  0
   11.1166  -16.3716   25.9994 O   0  0  0  0  0  0  0  0  0  0  0  0
   11.7916  -15.4312   25.2561 C   0  0  0  0  0  0  0  0  0  0  0  0
   11.4380  -15.6503   23.7970 C   0  0  2  0  0  0  0  0  0  0  0  0
   10.0087  -15.5539   23.5789 N   0  0  0  0  0  0  0  0  0  0  0  0
   11.9307  -16.9817   23.3836 C   0  0  0  0  0  0  0  0  0  0  0  0
   13.2699  -17.2881   23.4872 O   0  0  0  0  0  0  0  0  0  0  0  0
   11.1342  -17.8380   22.9373 O   0  0  0  0  0  0  0  0  0  0  0  0
  2  1  1  1
  3  2  1  0
  4  3  1  0
  5  4  2  0
  6  5  1  0
  7  6  2  0
  7  8  1  0
  8  9  2  0
  9  4  1  0
 10  2  1  0
 10 17  1  0
 11 10  2  0
 13 14  1  1
 13 12  1  0
 15 13  1  0
 16 15  1  1
 16 17  1  0
 18 16  1  0
 19 18  2  0
 20 21  1  0
 22 21  1  1
 22 24  1  0
 22 23  1  0
 23 18  1  0
 24 25  1  0
 26 24  2  0
M  END
$$$$
