FLS.pdb
     RDKit          3D

 26 26  0  0  1  0  0  0  0  0999 V2000
    5.8857  -17.9957   24.6856 N   0  0  0  0  0  0  0  0  0  0  0  0
    6.3510  -16.6517   24.7701 C   0  0  1  0  0  0  0  0  0  0  0  0
    6.8643  -16.2739   26.1348 C   0  0  0  0  0  0  0  0  0  0  0  0
    6.8638  -14.8059   26.3296 C   0  0  0  0  0  0  0  0  0  0  0  0
    7.9893  -14.2439   26.8976 C   0  0  0  0  0  0  0  0  0  0  0  0
    8.0061  -12.8899   27.0849 C   0  0  0  0  0  0  0  0  0  0  0  0
    6.9290  -12.1307   26.7137 C   0  0  0  0  0  0  0  0  0  0  0  0
    5.8155  -12.7076   26.1489 C   0  0  0  0  0  0  0  0  0  0  0  0
    5.7678  -14.0783   25.9458 C   0  0  0  0  0  0  0  0  0  0  0  0
    7.5120  -16.5129   23.8165 C   0  0  0  0  0  0  0  0  0  0  0  0
    8.1779  -17.5247   23.4638 O   0  0  0  0  0  0  0  0  0  0  0  0
    7.6192  -11.8791   20.5784 C   0  0  0  0  0  0  0  0  0  0  0  0
    7.3242  -13.3379   21.0762 C   0  0  1  0  0  0  0  0  0  0  0  0
    6.6305  -14.0226   19.9489 C   0  0  0  0  0  0  0  0  0  0  0  0
    8.6198  -13.8411   21.5296 C   0  0  0  0  0  0  0  0  0  0  0  0
    8.7881  -15.1898   22.1126 C   0  0  2  0  0  0  0  0  0  0  0  0
    7.8835  -15.2505   23.2948 N   0  0  0  0  0  0  0  0  0  0  0  0
   10.1230  -15.4521   22.6473 C   0  0  0  0  0  0  0  0  0  0  0  0
   11.1453  -15.4083   21.9330 O   0  0  0  0  0  0  0  0  0  0  0  0
   10.8957  -17.1369   26.4379 O   0  0  0  0  0  0  0  0  0  0  0  0
   11.6899  -16.0973   26.0127 C   0  0  0  0  0  0  0  0  0  0  0  0
   11.6484  -16.0703   24.4963 C   0  0  2  0  0  0  0  0  0  0  0  0
   10.3173  -15.7700   24.0088 N   0  0  0  0  0  0  0  0  0  0  0  0
   12.0970  -17.3833   23.9855 C   0  0  0  0  0  0  0  0  0  0  0  0
   13.3805  -17.8206   24.2298 O   0  0  0  0  0  0  0  0  0  0  0  0
   11.3135  -18.1052   23.3284 O   0  0  0  0  0  0  0  0  0  0  0  0
  2  1  1  1
  3  2  1  0
  4  3  1  0
  5  4  2  0
  6  5  1  0
  7  6  2  0
  7  8  1  0
  8  9  2  0
  9  4  1  0
 10  2  1  0
 10 17  1  0
 11 10  2  0
 13 14  1  6
 13 12  1  0
 15 13  1  0
 16 15  1  1
 16 17  1  0
 18 16  1  0
 19 18  2  0
 20 21  1  0
 22 21  1  1
 22 24  1  0
 22 23  1  0
 23 18  1  0
 24 25  1  0
 26 24  2  0
M  END
$$$$
