FLS.pdb
     RDKit          3D

 26 26  0  0  1  0  0  0  0  0999 V2000
    8.5992  -16.0382   26.1337 N   0  0  0  0  0  0  0  0  0  0  0  0
    7.3893  -16.4114   25.4804 C   0  0  1  0  0  0  0  0  0  0  0  0
    6.2239  -15.5150   25.8074 C   0  0  0  0  0  0  0  0  0  0  0  0
    6.6742  -14.1696   26.2319 C   0  0  0  0  0  0  0  0  0  0  0  0
    7.9083  -14.0806   26.8436 C   0  0  0  0  0  0  0  0  0  0  0  0
    8.3398  -12.8462   27.2421 C   0  0  0  0  0  0  0  0  0  0  0  0
    7.5570  -11.7429   27.0320 C   0  0  0  0  0  0  0  0  0  0  0  0
    6.3295  -11.8501   26.4208 C   0  0  0  0  0  0  0  0  0  0  0  0
    5.8637  -13.0881   26.0051 C   0  0  0  0  0  0  0  0  0  0  0  0
    7.6219  -16.2952   23.9941 C   0  0  0  0  0  0  0  0  0  0  0  0
    6.8305  -16.8387   23.1758 O   0  0  0  0  0  0  0  0  0  0  0  0
    7.9323  -12.1915   20.8212 C   0  0  0  0  0  0  0  0  0  0  0  0
    7.5973  -13.6120   21.3981 C   0  0  1  0  0  0  0  0  0  0  0  0
    6.5456  -14.1781   20.5067 C   0  0  0  0  0  0  0  0  0  0  0  0
    8.8915  -14.2851   21.4936 C   0  0  0  0  0  0  0  0  0  0  0  0
    9.0356  -15.6577   22.0251 C   0  0  2  0  0  0  0  0  0  0  0  0
    8.7285  -15.5770   23.4807 N   0  0  0  0  0  0  0  0  0  0  0  0
   10.3953  -16.1898   21.9570 C   0  0  0  0  0  0  0  0  0  0  0  0
   11.0649  -16.1694   20.9042 O   0  0  0  0  0  0  0  0  0  0  0  0
   11.9300  -18.2145   25.0889 O   0  0  0  0  0  0  0  0  0  0  0  0
   12.9311  -17.6293   24.3488 C   0  0  0  0  0  0  0  0  0  0  0  0
   12.3619  -17.2874   22.9846 C   0  0  2  0  0  0  0  0  0  0  0  0
   11.0178  -16.7564   23.0901 N   0  0  0  0  0  0  0  0  0  0  0  0
   12.3668  -18.5070   22.1487 C   0  0  0  0  0  0  0  0  0  0  0  0
   13.5571  -19.1199   21.8237 O   0  0  0  0  0  0  0  0  0  0  0  0
   11.2898  -18.9897   21.7317 O   0  0  0  0  0  0  0  0  0  0  0  0
  2  1  1  1
  3  2  1  0
  4  3  1  0
  5  4  2  0
  6  5  1  0
  7  6  2  0
  7  8  1  0
  8  9  2  0
  9  4  1  0
 10  2  1  0
 10 17  1  0
 11 10  2  0
 13 14  1  6
 13 12  1  0
 15 13  1  0
 16 15  1  1
 16 17  1  0
 18 16  1  0
 19 18  2  0
 20 21  1  0
 22 21  1  1
 22 24  1  0
 22 23  1  0
 23 18  1  0
 24 25  1  0
 26 24  2  0
M  END
$$$$
