FLS.pdb
     RDKit          3D

 26 26  0  0  1  0  0  0  0  0999 V2000
    5.7972  -17.9499   25.4451 N   0  0  0  0  0  0  0  0  0  0  0  0
    6.2197  -16.5935   25.3383 C   0  0  1  0  0  0  0  0  0  0  0  0
    7.0527  -16.1259   26.5029 C   0  0  0  0  0  0  0  0  0  0  0  0
    7.0347  -14.6504   26.6277 C   0  0  0  0  0  0  0  0  0  0  0  0
    8.2251  -14.0292   26.9472 C   0  0  0  0  0  0  0  0  0  0  0  0
    8.2269  -12.6674   27.0665 C   0  0  0  0  0  0  0  0  0  0  0  0
    7.0722  -11.9583   26.8711 C   0  0  0  0  0  0  0  0  0  0  0  0
    5.8946  -12.5939   26.5533 C   0  0  0  0  0  0  0  0  0  0  0  0
    5.8602  -13.9740   26.4251 C   0  0  0  0  0  0  0  0  0  0  0  0
    7.0909  -16.4851   24.1111 C   0  0  0  0  0  0  0  0  0  0  0  0
    7.6539  -17.5068   23.6309 O   0  0  0  0  0  0  0  0  0  0  0  0
    7.2466  -12.2233   19.9372 C   0  0  0  0  0  0  0  0  0  0  0  0
    7.5440  -13.7510   20.1384 C   0  0  1  0  0  0  0  0  0  0  0  0
    8.6356  -14.0851   19.1803 C   0  0  0  0  0  0  0  0  0  0  0  0
    7.7842  -13.8934   21.5734 C   0  0  0  0  0  0  0  0  0  0  0  0
    8.0831  -15.1978   22.2031 C   0  0  2  0  0  0  0  0  0  0  0  0
    7.2986  -15.2407   23.4690 N   0  0  0  0  0  0  0  0  0  0  0  0
    9.4751  -15.3609   22.6182 C   0  0  0  0  0  0  0  0  0  0  0  0
   10.0151  -14.5993   23.4462 O   0  0  0  0  0  0  0  0  0  0  0  0
   11.3369  -18.7677   21.9979 O   0  0  0  0  0  0  0  0  0  0  0  0
   12.0315  -17.9369   22.8464 C   0  0  0  0  0  0  0  0  0  0  0  0
   11.6665  -16.5060   22.4981 C   0  0  2  0  0  0  0  0  0  0  0  0
   10.2788  -16.3970   22.0956 N   0  0  0  0  0  0  0  0  0  0  0  0
   12.5536  -16.0410   21.4103 C   0  0  0  0  0  0  0  0  0  0  0  0
   13.9087  -15.9177   21.6258 O   0  0  0  0  0  0  0  0  0  0  0  0
   12.0785  -15.7567   20.2876 O   0  0  0  0  0  0  0  0  0  0  0  0
  2  1  1  1
  3  2  1  0
  4  3  1  0
  5  4  2  0
  6  5  1  0
  7  6  2  0
  7  8  1  0
  8  9  2  0
  9  4  1  0
 10  2  1  0
 10 17  1  0
 11 10  2  0
 13 14  1  6
 13 12  1  0
 15 13  1  0
 16 15  1  1
 16 17  1  0
 18 16  1  0
 19 18  2  0
 20 21  1  0
 22 21  1  6
 22 24  1  0
 22 23  1  0
 23 18  1  0
 24 25  1  0
 26 24  2  0
M  END
$$$$
