FLS.pdb
     RDKit          3D

 26 26  0  0  1  0  0  0  0  0999 V2000
    6.7853  -18.1345   26.0913 N   0  0  0  0  0  0  0  0  0  0  0  0
    7.4431  -16.8935   25.8522 C   0  0  1  0  0  0  0  0  0  0  0  0
    8.8194  -16.8118   26.4586 C   0  0  0  0  0  0  0  0  0  0  0  0
    9.0336  -15.5203   27.1509 C   0  0  0  0  0  0  0  0  0  0  0  0
    9.6944  -15.5553   28.3622 C   0  0  0  0  0  0  0  0  0  0  0  0
    9.9008  -14.3722   29.0154 C   0  0  0  0  0  0  0  0  0  0  0  0
    9.4578  -13.1981   28.4683 C   0  0  0  0  0  0  0  0  0  0  0  0
    8.8009  -13.1819   27.2600 C   0  0  0  0  0  0  0  0  0  0  0  0
    8.5762  -14.3650   26.5730 C   0  0  0  0  0  0  0  0  0  0  0  0
    7.6176  -16.7528   24.3601 C   0  0  0  0  0  0  0  0  0  0  0  0
    7.3833  -17.7253   23.5915 O   0  0  0  0  0  0  0  0  0  0  0  0
    6.7235  -14.0090   19.8705 C   0  0  0  0  0  0  0  0  0  0  0  0
    7.9959  -13.4747   20.6178 C   0  0  1  0  0  0  0  0  0  0  0  0
    8.0042  -11.9992   20.4083 C   0  0  0  0  0  0  0  0  0  0  0  0
    7.8745  -14.0032   21.9755 C   0  0  0  0  0  0  0  0  0  0  0  0
    8.1422  -15.4203   22.3030 C   0  0  2  0  0  0  0  0  0  0  0  0
    8.0467  -15.5322   23.7856 N   0  0  0  0  0  0  0  0  0  0  0  0
    9.4954  -15.8678   21.9789 C   0  0  0  0  0  0  0  0  0  0  0  0
    9.8733  -16.0434   20.8026 O   0  0  0  0  0  0  0  0  0  0  0  0
   12.3419  -16.6472   24.9040 O   0  0  0  0  0  0  0  0  0  0  0  0
   12.7702  -16.0183   23.7580 C   0  0  0  0  0  0  0  0  0  0  0  0
   11.8221  -16.3991   22.6363 C   0  0  2  0  0  0  0  0  0  0  0  0
   10.4446  -16.1240   22.9918 N   0  0  0  0  0  0  0  0  0  0  0  0
   11.9963  -17.8361   22.3346 C   0  0  0  0  0  0  0  0  0  0  0  0
   10.9181  -18.6918   22.3907 O   0  0  0  0  0  0  0  0  0  0  0  0
   13.1241  -18.2833   22.0265 O   0  0  0  0  0  0  0  0  0  0  0  0
  2  1  1  6
  3  2  1  0
  4  3  1  0
  5  4  2  0
  6  5  1  0
  7  6  2  0
  7  8  1  0
  8  9  2  0
  9  4  1  0
 10  2  1  0
 10 17  1  0
 11 10  2  0
 13 14  1  1
 13 12  1  0
 15 13  1  0
 16 15  1  1
 16 17  1  0
 18 16  1  0
 19 18  2  0
 20 21  1  0
 22 21  1  1
 22 24  1  0
 22 23  1  0
 23 18  1  0
 24 25  1  0
 26 24  2  0
M  END
$$$$
