FLS.pdb
     RDKit          3D

 26 26  0  0  1  0  0  0  0  0999 V2000
    5.8112  -18.0204   25.2516 N   0  0  0  0  0  0  0  0  0  0  0  0
    6.1667  -16.6409   25.2288 C   0  0  1  0  0  0  0  0  0  0  0  0
    6.7757  -16.1518   26.5166 C   0  0  0  0  0  0  0  0  0  0  0  0
    6.9321  -14.6792   26.5203 C   0  0  0  0  0  0  0  0  0  0  0  0
    8.1955  -14.1790   26.7626 C   0  0  0  0  0  0  0  0  0  0  0  0
    8.3582  -12.8217   26.7697 C   0  0  0  0  0  0  0  0  0  0  0  0
    7.2878  -11.9994   26.5411 C   0  0  0  0  0  0  0  0  0  0  0  0
    6.0356  -12.5152   26.3013 C   0  0  0  0  0  0  0  0  0  0  0  0
    5.8380  -13.8875   26.2875 C   0  0  0  0  0  0  0  0  0  0  0  0
    7.2141  -16.4601   24.1579 C   0  0  0  0  0  0  0  0  0  0  0  0
    8.0240  -17.3891   23.8882 O   0  0  0  0  0  0  0  0  0  0  0  0
    7.4211  -12.2580   19.9338 C   0  0  0  0  0  0  0  0  0  0  0  0
    7.6768  -13.7863   20.1826 C   0  0  1  0  0  0  0  0  0  0  0  0
    8.7058  -14.1966   19.1857 C   0  0  0  0  0  0  0  0  0  0  0  0
    7.9855  -13.8805   21.6085 C   0  0  0  0  0  0  0  0  0  0  0  0
    8.2572  -15.1705   22.2787 C   0  0  2  0  0  0  0  0  0  0  0  0
    7.3157  -15.2498   23.4307 N   0  0  0  0  0  0  0  0  0  0  0  0
    9.5884  -15.2708   22.8740 C   0  0  0  0  0  0  0  0  0  0  0  0
    9.9755  -14.4941   23.7708 O   0  0  0  0  0  0  0  0  0  0  0  0
   11.5729  -18.6238   22.8834 O   0  0  0  0  0  0  0  0  0  0  0  0
   12.1085  -17.6453   23.6883 C   0  0  0  0  0  0  0  0  0  0  0  0
   11.8324  -16.3036   23.0360 C   0  0  2  0  0  0  0  0  0  0  0  0
   10.5047  -16.2602   22.4570 N   0  0  0  0  0  0  0  0  0  0  0  0
   12.8537  -16.0628   21.9943 C   0  0  0  0  0  0  0  0  0  0  0  0
   14.1912  -16.0514   22.3244 O   0  0  0  0  0  0  0  0  0  0  0  0
   12.5092  -15.8678   20.8068 O   0  0  0  0  0  0  0  0  0  0  0  0
  2  1  1  1
  3  2  1  0
  4  3  1  0
  5  4  2  0
  6  5  1  0
  7  6  2  0
  7  8  1  0
  8  9  2  0
  9  4  1  0
 10  2  1  0
 10 17  1  0
 11 10  2  0
 13 14  1  6
 13 12  1  0
 15 13  1  0
 16 15  1  1
 16 17  1  0
 18 16  1  0
 19 18  2  0
 20 21  1  0
 22 21  1  6
 22 24  1  0
 22 23  1  0
 23 18  1  0
 24 25  1  0
 26 24  2  0
M  END
$$$$
