FLS.pdb
     RDKit          3D

 26 26  0  0  1  0  0  0  0  0999 V2000
    5.1935  -18.8968   23.7457 N   0  0  0  0  0  0  0  0  0  0  0  0
    6.0604  -18.5462   24.8206 C   0  0  1  0  0  0  0  0  0  0  0  0
    7.0572  -19.6204   25.1687 C   0  0  0  0  0  0  0  0  0  0  0  0
    6.6173  -20.4125   26.3401 C   0  0  0  0  0  0  0  0  0  0  0  0
    5.9431  -21.5904   26.0887 C   0  0  0  0  0  0  0  0  0  0  0  0
    5.5295  -22.3343   27.1584 C   0  0  0  0  0  0  0  0  0  0  0  0
    5.7859  -21.9073   28.4336 C   0  0  0  0  0  0  0  0  0  0  0  0
    6.4593  -20.7307   28.6657 C   0  0  0  0  0  0  0  0  0  0  0  0
    6.8917  -19.9537   27.6019 C   0  0  0  0  0  0  0  0  0  0  0  0
    6.8565  -17.3403   24.3865 C   0  0  0  0  0  0  0  0  0  0  0  0
    7.2812  -17.2433   23.2026 O   0  0  0  0  0  0  0  0  0  0  0  0
    6.7433  -12.4004   27.1095 C   0  0  0  0  0  0  0  0  0  0  0  0
    6.7156  -13.1855   25.7510 C   0  0  1  0  0  0  0  0  0  0  0  0
    6.6717  -12.1496   24.6804 C   0  0  0  0  0  0  0  0  0  0  0  0
    7.8625  -14.0891   25.8246 C   0  0  0  0  0  0  0  0  0  0  0  0
    8.0639  -15.1967   24.8654 C   0  0  2  0  0  0  0  0  0  0  0  0
    7.1467  -16.2908   25.2911 N   0  0  0  0  0  0  0  0  0  0  0  0
    9.3992  -15.7900   24.9029 C   0  0  0  0  0  0  0  0  0  0  0  0
    9.8548  -16.3367   25.9280 O   0  0  0  0  0  0  0  0  0  0  0  0
   11.6474  -16.0832   21.4884 O   0  0  0  0  0  0  0  0  0  0  0  0
   11.7936  -17.0933   22.4108 C   0  0  0  0  0  0  0  0  0  0  0  0
   11.4811  -16.5210   23.7807 C   0  0  2  0  0  0  0  0  0  0  0  0
   10.2415  -15.7707   23.7704 N   0  0  0  0  0  0  0  0  0  0  0  0
   12.6021  -15.6527   24.1997 C   0  0  0  0  0  0  0  0  0  0  0  0
   13.8774  -16.1650   24.2959 O   0  0  0  0  0  0  0  0  0  0  0  0
   12.3991  -14.4473   24.4693 O   0  0  0  0  0  0  0  0  0  0  0  0
  2  1  1  6
  3  2  1  0
  4  3  1  0
  5  4  2  0
  6  5  1  0
  7  6  2  0
  7  8  1  0
  8  9  2  0
  9  4  1  0
 10  2  1  0
 10 17  1  0
 11 10  2  0
 13 14  1  6
 13 12  1  0
 15 13  1  0
 16 15  1  1
 16 17  1  0
 18 16  1  0
 19 18  2  0
 20 21  1  0
 22 21  1  6
 22 24  1  0
 22 23  1  0
 23 18  1  0
 24 25  1  0
 26 24  2  0
M  END
$$$$
