FLS.pdb
     RDKit          3D

 26 26  0  0  1  0  0  0  0  0999 V2000
    5.7803  -17.8850   25.4288 N   0  0  0  0  0  0  0  0  0  0  0  0
    6.1538  -16.5105   25.3954 C   0  0  1  0  0  0  0  0  0  0  0  0
    6.7884  -16.0249   26.6723 C   0  0  0  0  0  0  0  0  0  0  0  0
    6.9682  -14.5550   26.6663 C   0  0  0  0  0  0  0  0  0  0  0  0
    8.2629  -14.0771   26.6873 C   0  0  0  0  0  0  0  0  0  0  0  0
    8.4475  -12.7226   26.6822 C   0  0  0  0  0  0  0  0  0  0  0  0
    7.3678  -11.8813   26.6569 C   0  0  0  0  0  0  0  0  0  0  0  0
    6.0843  -12.3750   26.6362 C   0  0  0  0  0  0  0  0  0  0  0  0
    5.8639  -13.7439   26.6407 C   0  0  0  0  0  0  0  0  0  0  0  0
    7.1874  -16.3476   24.3084 C   0  0  0  0  0  0  0  0  0  0  0  0
    8.0610  -17.2368   24.1144 O   0  0  0  0  0  0  0  0  0  0  0  0
    7.8953  -14.7111   19.2960 C   0  0  0  0  0  0  0  0  0  0  0  0
    8.4065  -13.5982   20.2773 C   0  0  1  0  0  0  0  0  0  0  0  0
    8.0817  -12.2976   19.6261 C   0  0  0  0  0  0  0  0  0  0  0  0
    7.7904  -13.9282   21.5613 C   0  0  0  0  0  0  0  0  0  0  0  0
    8.1205  -15.1620   22.3069 C   0  0  2  0  0  0  0  0  0  0  0  0
    7.2046  -15.1988   23.4814 N   0  0  0  0  0  0  0  0  0  0  0  0
    9.4656  -15.1779   22.8789 C   0  0  0  0  0  0  0  0  0  0  0  0
    9.7845  -14.4575   23.8467 O   0  0  0  0  0  0  0  0  0  0  0  0
   11.4502  -17.9677   24.0237 O   0  0  0  0  0  0  0  0  0  0  0  0
   11.9208  -16.6895   24.2172 C   0  0  0  0  0  0  0  0  0  0  0  0
   11.8173  -15.9508   22.8960 C   0  0  2  0  0  0  0  0  0  0  0  0
   10.4738  -16.0167   22.3570 N   0  0  0  0  0  0  0  0  0  0  0  0
   12.7809  -16.5432   21.9438 C   0  0  0  0  0  0  0  0  0  0  0  0
   14.1356  -16.3948   22.1460 O   0  0  0  0  0  0  0  0  0  0  0  0
   12.3716  -17.1829   20.9487 O   0  0  0  0  0  0  0  0  0  0  0  0
  2  1  1  1
  3  2  1  0
  4  3  1  0
  5  4  2  0
  6  5  1  0
  7  6  2  0
  7  8  1  0
  8  9  2  0
  9  4  1  0
 10  2  1  0
 10 17  1  0
 11 10  2  0
 13 14  1  6
 13 12  1  0
 15 13  1  0
 16 15  1  1
 16 17  1  0
 18 16  1  0
 19 18  2  0
 20 21  1  0
 22 21  1  1
 22 24  1  0
 22 23  1  0
 23 18  1  0
 24 25  1  0
 26 24  2  0
M  END
$$$$
