FLS.pdb
     RDKit          3D

 26 26  0  0  1  0  0  0  0  0999 V2000
    5.6506  -17.8882   24.7319 N   0  0  0  0  0  0  0  0  0  0  0  0
    6.3187  -16.6332   24.8237 C   0  0  1  0  0  0  0  0  0  0  0  0
    7.0418  -16.4270   26.1288 C   0  0  0  0  0  0  0  0  0  0  0  0
    7.4446  -15.0136   26.3107 C   0  0  0  0  0  0  0  0  0  0  0  0
    8.7946  -14.7522   26.4309 C   0  0  0  0  0  0  0  0  0  0  0  0
    9.1845  -13.4529   26.5995 C   0  0  0  0  0  0  0  0  0  0  0  0
    8.2489  -12.4544   26.6454 C   0  0  0  0  0  0  0  0  0  0  0  0
    6.9076  -12.7331   26.5239 C   0  0  0  0  0  0  0  0  0  0  0  0
    6.4802  -14.0408   26.3518 C   0  0  0  0  0  0  0  0  0  0  0  0
    7.3653  -16.5960   23.7376 C   0  0  0  0  0  0  0  0  0  0  0  0
    7.8929  -17.6620   23.3173 O   0  0  0  0  0  0  0  0  0  0  0  0
    7.7403  -12.0800   20.3220 C   0  0  0  0  0  0  0  0  0  0  0  0
    7.3804  -13.5358   20.7846 C   0  0  1  0  0  0  0  0  0  0  0  0
    6.8044  -14.2144   19.5893 C   0  0  0  0  0  0  0  0  0  0  0  0
    8.6155  -14.0510   21.3731 C   0  0  0  0  0  0  0  0  0  0  0  0
    8.7015  -15.3912   21.9925 C   0  0  2  0  0  0  0  0  0  0  0  0
    7.7813  -15.3705   23.1640 N   0  0  0  0  0  0  0  0  0  0  0  0
   10.0134  -15.7131   22.5510 C   0  0  0  0  0  0  0  0  0  0  0  0
   11.0341  -15.8054   21.8391 O   0  0  0  0  0  0  0  0  0  0  0  0
   12.9044  -15.9897   26.3345 O   0  0  0  0  0  0  0  0  0  0  0  0
   11.6445  -15.6680   25.8853 C   0  0  0  0  0  0  0  0  0  0  0  0
   11.5115  -16.1838   24.4647 C   0  0  2  0  0  0  0  0  0  0  0  0
   10.1860  -15.9364   23.9340 N   0  0  0  0  0  0  0  0  0  0  0  0
   11.8044  -17.6331   24.4563 C   0  0  0  0  0  0  0  0  0  0  0  0
   13.0817  -18.0837   24.7084 O   0  0  0  0  0  0  0  0  0  0  0  0
   10.8938  -18.4589   24.2201 O   0  0  0  0  0  0  0  0  0  0  0  0
  2  1  1  1
  3  2  1  0
  4  3  1  0
  5  4  2  0
  6  5  1  0
  7  6  2  0
  7  8  1  0
  8  9  2  0
  9  4  1  0
 10  2  1  0
 10 17  1  0
 11 10  2  0
 13 14  1  6
 13 12  1  0
 15 13  1  0
 16 15  1  1
 16 17  1  0
 18 16  1  0
 19 18  2  0
 20 21  1  0
 22 21  1  1
 22 24  1  0
 22 23  1  0
 23 18  1  0
 24 25  1  0
 26 24  2  0
M  END
$$$$
