NWP.pdb
     RDKit          3D

 30 32  0  0  1  0  0  0  0  0999 V2000
   26.9022  -15.9701  -20.9950 N   0  0  0  0  0  0  0  0  0  0  0  0
   26.8183  -16.0229  -19.5818 C   0  0  0  0  0  0  0  0  0  0  0  0
   27.1003  -14.9546  -18.9701 O   0  0  0  0  0  0  0  0  0  0  0  0
   26.4279  -17.2377  -18.8396 C   0  0  0  0  0  0  0  0  0  0  0  0
   27.3387  -17.4861  -17.6909 C   0  0  2  0  0  0  0  0  0  0  0  0
   28.7061  -17.6570  -18.1112 N   0  0  0  0  0  0  0  0  0  0  0  0
   26.8584  -18.5719  -16.7876 C   0  0  0  0  0  0  0  0  0  0  0  0
   26.1801  -19.5332  -17.2823 O   0  0  0  0  0  0  0  0  0  0  0  0
   27.0914  -18.6335  -15.4035 N   0  0  0  0  0  0  0  0  0  0  0  0
   26.5292  -19.7521  -14.5659 C   0  0  1  0  0  0  0  0  0  0  0  0
   27.4195  -19.7198  -13.3594 C   0  0  0  0  0  0  0  0  0  0  0  0
   27.1486  -20.5980  -12.2543 C   0  0  0  0  0  0  0  0  0  0  0  0
   27.2405  -21.9883  -12.2737 C   0  0  0  0  0  0  0  0  0  0  0  0
   26.8948  -22.4768  -11.0484 N   0  0  0  0  0  0  0  0  0  0  0  0
   26.5823  -21.4491  -10.2361 C   0  0  0  0  0  0  0  0  0  0  0  0
   26.1745  -21.4136   -8.9190 C   0  0  0  0  0  0  0  0  0  0  0  0
   25.9133  -20.2015   -8.3173 C   0  0  0  0  0  0  0  0  0  0  0  0
   26.0558  -19.0246   -9.0195 C   0  0  0  0  0  0  0  0  0  0  0  0
   26.4638  -19.1027  -10.3287 C   0  0  0  0  0  0  0  0  0  0  0  0
   26.7381  -20.2795  -10.9801 C   0  0  0  0  0  0  0  0  0  0  0  0
   25.1175  -19.5091  -14.3311 C   0  0  0  0  0  0  0  0  0  0  0  0
   24.7257  -18.3051  -14.2111 O   0  0  0  0  0  0  0  0  0  0  0  0
   24.1597  -20.5243  -14.2340 N   0  0  0  0  0  0  0  0  0  0  0  0
   24.2905  -21.9685  -14.3116 C   0  0  0  0  0  0  0  0  0  0  0  0
   23.0695  -22.4481  -15.0775 C   0  0  0  0  0  0  0  0  0  0  0  0
   22.0610  -21.3537  -14.9044 C   0  0  0  0  0  0  0  0  0  0  0  0
   22.7122  -20.3019  -14.0288 C   0  0  1  0  0  0  0  0  0  0  0  0
   22.3050  -20.5124  -12.6359 C   0  0  0  0  0  0  0  0  0  0  0  0
   21.0697  -20.0292  -12.2312 O   0  0  0  0  0  0  0  0  0  0  0  0
   22.9991  -21.1046  -11.7720 O   0  0  0  0  0  0  0  0  0  0  0  0
  2  3  2  0
  2  1  1  0
  4  2  1  0
  5  4  1  0
  5  6  1  6
  7  5  1  0
  7  8  2  0
  9  7  1  0
 10  9  1  0
 10 11  1  1
 11 12  1  0
 12 13  2  0
 12 20  1  0
 13 14  1  0
 14 15  1  0
 15 16  2  0
 16 17  1  0
 18 17  2  0
 19 18  1  0
 20 19  2  0
 20 15  1  0
 21 10  1  0
 22 21  2  0
 23 24  1  0
 23 21  1  0
 25 24  1  0
 26 27  1  0
 26 25  1  0
 27 23  1  0
 28 29  1  0
 27 28  1  1
 30 28  2  0
M  END
$$$$
