NWP.pdb
     RDKit          3D

 30 32  0  0  1  0  0  0  0  0999 V2000
   27.3355  -11.3206  -21.4374 N   0  0  0  0  0  0  0  0  0  0  0  0
   26.2332  -10.4694  -21.6965 C   0  0  0  0  0  0  0  0  0  0  0  0
   26.2657   -9.8386  -22.7900 O   0  0  0  0  0  0  0  0  0  0  0  0
   25.0997  -10.3077  -20.7646 C   0  0  0  0  0  0  0  0  0  0  0  0
   25.3560  -11.0023  -19.4752 C   0  0  2  0  0  0  0  0  0  0  0  0
   25.6352  -12.4034  -19.6611 N   0  0  0  0  0  0  0  0  0  0  0  0
   24.3037  -10.7407  -18.4506 C   0  0  0  0  0  0  0  0  0  0  0  0
   23.0764  -10.8600  -18.7799 O   0  0  0  0  0  0  0  0  0  0  0  0
   24.5482  -10.3640  -17.1194 N   0  0  0  0  0  0  0  0  0  0  0  0
   23.4210  -10.2049  -16.1330 C   0  0  1  0  0  0  0  0  0  0  0  0
   23.9481  -10.9333  -14.9326 C   0  0  0  0  0  0  0  0  0  0  0  0
   24.0568  -12.3662  -14.9637 C   0  0  0  0  0  0  0  0  0  0  0  0
   25.2414  -13.0975  -14.9011 C   0  0  0  0  0  0  0  0  0  0  0  0
   24.9503  -14.4278  -14.9718 N   0  0  0  0  0  0  0  0  0  0  0  0
   23.6167  -14.5823  -15.0778 C   0  0  0  0  0  0  0  0  0  0  0  0
   22.8304  -15.7109  -15.1800 C   0  0  0  0  0  0  0  0  0  0  0  0
   21.4618  -15.5832  -15.2801 C   0  0  0  0  0  0  0  0  0  0  0  0
   20.8716  -14.3381  -15.2792 C   0  0  0  0  0  0  0  0  0  0  0  0
   21.6893  -13.2394  -15.1758 C   0  0  0  0  0  0  0  0  0  0  0  0
   23.0566  -13.3048  -15.0734 C   0  0  0  0  0  0  0  0  0  0  0  0
   23.1378   -8.7923  -15.9561 C   0  0  0  0  0  0  0  0  0  0  0  0
   24.0905   -7.9636  -16.1086 O   0  0  0  0  0  0  0  0  0  0  0  0
   21.8739   -8.2876  -15.6317 N   0  0  0  0  0  0  0  0  0  0  0  0
   20.5830   -8.9448  -15.5286 C   0  0  0  0  0  0  0  0  0  0  0  0
   19.5774   -7.9606  -16.1011 C   0  0  0  0  0  0  0  0  0  0  0  0
   20.2440   -6.6246  -15.9778 C   0  0  0  0  0  0  0  0  0  0  0  0
   21.5858   -6.8715  -15.3179 C   0  0  1  0  0  0  0  0  0  0  0  0
   21.4675   -6.6300  -13.8764 C   0  0  0  0  0  0  0  0  0  0  0  0
   21.5693   -7.7137  -13.0170 O   0  0  0  0  0  0  0  0  0  0  0  0
   21.2789   -5.5022  -13.3556 O   0  0  0  0  0  0  0  0  0  0  0  0
  2  3  2  0
  2  1  1  0
  4  2  1  0
  5  4  1  0
  5  6  1  6
  7  5  1  0
  7  8  2  0
  9  7  1  0
 10  9  1  0
 10 11  1  1
 11 12  1  0
 12 13  2  0
 12 20  1  0
 13 14  1  0
 14 15  1  0
 15 16  2  0
 16 17  1  0
 18 17  2  0
 19 18  1  0
 20 19  2  0
 20 15  1  0
 21 10  1  0
 22 21  2  0
 23 24  1  0
 23 21  1  0
 25 24  1  0
 26 27  1  0
 26 25  1  0
 27 23  1  0
 28 29  1  0
 27 28  1  1
 30 28  2  0
M  END
$$$$
