NWP.pdb
     RDKit          3D

 30 32  0  0  1  0  0  0  0  0999 V2000
   15.2940  -22.5248   -0.7361 N   0  0  0  0  0  0  0  0  0  0  0  0
   14.8015  -21.6279    0.2436 C   0  0  0  0  0  0  0  0  0  0  0  0
   13.5668  -21.7077    0.4966 O   0  0  0  0  0  0  0  0  0  0  0  0
   15.6543  -20.6475    0.9442 C   0  0  0  0  0  0  0  0  0  0  0  0
   15.4906  -20.7443    2.4189 C   0  0  2  0  0  0  0  0  0  0  0  0
   14.1748  -20.3412    2.8452 N   0  0  0  0  0  0  0  0  0  0  0  0
   16.5878  -20.0728    3.1745 C   0  0  0  0  0  0  0  0  0  0  0  0
   17.7987  -20.3672    2.8991 O   0  0  0  0  0  0  0  0  0  0  0  0
   16.4034  -19.1197    4.1901 N   0  0  0  0  0  0  0  0  0  0  0  0
   17.5778  -18.4794    4.8828 C   0  0  1  0  0  0  0  0  0  0  0  0
   17.1517  -17.0437    4.9623 C   0  0  0  0  0  0  0  0  0  0  0  0
   17.7063  -16.0874    4.0436 C   0  0  0  0  0  0  0  0  0  0  0  0
   17.8434  -16.2603    2.6677 C   0  0  0  0  0  0  0  0  0  0  0  0
   18.4226  -15.1479    2.1324 N   0  0  0  0  0  0  0  0  0  0  0  0
   18.6647  -14.2603    3.1157 C   0  0  0  0  0  0  0  0  0  0  0  0
   19.2301  -13.0023    3.0957 C   0  0  0  0  0  0  0  0  0  0  0  0
   19.3642  -12.2949    4.2708 C   0  0  0  0  0  0  0  0  0  0  0  0
   18.9385  -12.8328    5.4659 C   0  0  0  0  0  0  0  0  0  0  0  0
   18.3811  -14.0879    5.4434 C   0  0  0  0  0  0  0  0  0  0  0  0
   18.2219  -14.8387    4.3053 C   0  0  0  0  0  0  0  0  0  0  0  0
   17.8108  -19.1529    6.1474 C   0  0  0  0  0  0  0  0  0  0  0  0
   16.8223  -19.7053    6.7265 O   0  0  0  0  0  0  0  0  0  0  0  0
   19.0634  -19.2344    6.7654 N   0  0  0  0  0  0  0  0  0  0  0  0
   20.3781  -18.8146    6.3136 C   0  0  0  0  0  0  0  0  0  0  0  0
   21.3364  -19.8931    6.7890 C   0  0  0  0  0  0  0  0  0  0  0  0
   20.6269  -20.5515    7.9327 C   0  0  0  0  0  0  0  0  0  0  0  0
   19.3092  -19.8218    8.1001 C   0  0  1  0  0  0  0  0  0  0  0  0
   19.4506  -18.8014    9.1438 C   0  0  0  0  0  0  0  0  0  0  0  0
   19.4938  -19.2149   10.4668 O   0  0  0  0  0  0  0  0  0  0  0  0
   19.5369  -17.5669    8.9267 O   0  0  0  0  0  0  0  0  0  0  0  0
  2  3  2  0
  2  1  1  0
  4  2  1  0
  5  4  1  0
  5  6  1  6
  7  5  1  0
  7  8  2  0
  9  7  1  0
 10  9  1  0
 10 11  1  1
 11 12  1  0
 12 13  2  0
 12 20  1  0
 13 14  1  0
 14 15  1  0
 15 16  2  0
 16 17  1  0
 18 17  2  0
 19 18  1  0
 20 19  2  0
 20 15  1  0
 21 10  1  0
 22 21  2  0
 23 24  1  0
 23 21  1  0
 25 24  1  0
 26 27  1  0
 26 25  1  0
 27 23  1  0
 28 29  1  0
 27 28  1  1
 30 28  2  0
M  END
$$$$
