ELR.pdb
     RDKit          3D

 29 28  0  0  1  0  0  0  0  0999 V2000
   25.0392  -18.7410  -17.2697 N   0  0  0  0  0  0  0  0  0  0  0  0
   24.7944  -20.0707  -17.6984 C   0  0  1  0  0  0  0  0  0  0  0  0
   25.8567  -20.7432  -18.4879 C   0  0  0  0  0  0  0  0  0  0  0  0
   26.6148  -19.7922  -19.3456 C   0  0  0  0  0  0  0  0  0  0  0  0
   27.4986  -18.8444  -18.6717 C   0  0  0  0  0  0  0  0  0  0  0  0
   28.5650  -19.0932  -18.0832 O   0  0  0  0  0  0  0  0  0  0  0  0
   24.3315  -20.8949  -16.5483 C   0  0  0  0  0  0  0  0  0  0  0  0
   24.0992  -22.1094  -16.7970 O   0  0  0  0  0  0  0  0  0  0  0  0
   27.0959  -17.4947  -18.6916 O   0  0  0  0  0  0  0  0  0  0  0  0
   24.7611  -22.7118  -11.6295 C   0  0  0  0  0  0  0  0  0  0  0  0
   23.9545  -21.4207  -11.6396 C   0  0  1  0  0  0  0  0  0  0  0  0
   24.2508  -20.6987  -10.3464 C   0  0  0  0  0  0  0  0  0  0  0  0
   24.3499  -20.6461  -12.8530 C   0  0  0  0  0  0  0  0  0  0  0  0
   23.7726  -21.1522  -14.1398 C   0  0  2  0  0  0  0  0  0  0  0  0
   24.1672  -20.3386  -15.2680 N   0  0  0  0  0  0  0  0  0  0  0  0
   22.2761  -21.1189  -13.9666 C   0  0  0  0  0  0  0  0  0  0  0  0
   21.6772  -20.0322  -13.7172 O   0  0  0  0  0  0  0  0  0  0  0  0
   15.4324  -25.0641  -10.2977 N   0  0  0  0  0  0  0  0  0  0  0  0
   15.9797  -25.8923  -11.2990 C   0  0  0  0  0  0  0  0  0  0  0  0
   15.4613  -27.0644  -11.4774 N   0  0  0  0  0  0  0  0  0  0  0  0
   17.0682  -25.4857  -12.1075 N   0  0  0  0  0  0  0  0  0  0  0  0
   18.1511  -24.6845  -11.5961 C   0  0  0  0  0  0  0  0  0  0  0  0
   18.3316  -23.3906  -12.3906 C   0  0  0  0  0  0  0  0  0  0  0  0
   19.7507  -23.3815  -12.8893 C   0  0  0  0  0  0  0  0  0  0  0  0
   20.0263  -22.2434  -13.8413 C   0  0  2  0  0  0  0  0  0  0  0  0
   21.4907  -22.2830  -14.0741 N   0  0  0  0  0  0  0  0  0  0  0  0
   19.6671  -20.9642  -13.1875 C   0  0  0  0  0  0  0  0  0  0  0  0
   20.4584  -20.4917  -12.1328 O   0  0  0  0  0  0  0  0  0  0  0  0
   18.6967  -20.2586  -13.5065 O   0  0  0  0  0  0  0  0  0  0  0  0
  2  1  1  1
  2  7  1  0
  2  3  1  0
  4  5  1  0
  4  3  1  0
  5  6  2  0
  7  8  2  0
  9  5  1  0
 11 13  1  0
 11 10  1  1
 12 11  1  0
 14 13  1  1
 15 14  1  0
 15  7  1  0
 16 14  1  0
 17 16  2  0
 18 19  1  0
 19 21  1  0
 20 19  2  0
 21 22  1  0
 22 23  1  0
 23 24  1  0
 25 24  1  1
 25 26  1  0
 25 27  1  0
 26 16  1  0
 27 28  1  0
 29 27  2  0
M  END
$$$$
