ELR.pdb
     RDKit          3D

 29 28  0  0  1  0  0  0  0  0999 V2000
   23.5662  -15.3604  -20.5260 N   0  0  0  0  0  0  0  0  0  0  0  0
   24.3135  -14.1701  -20.7170 C   0  0  1  0  0  0  0  0  0  0  0  0
   24.0237  -13.3659  -21.9307 C   0  0  0  0  0  0  0  0  0  0  0  0
   22.6116  -12.8986  -21.9785 C   0  0  0  0  0  0  0  0  0  0  0  0
   22.2314  -12.0359  -23.0943 C   0  0  0  0  0  0  0  0  0  0  0  0
   22.2577  -10.7936  -23.1317 O   0  0  0  0  0  0  0  0  0  0  0  0
   24.2883  -13.3529  -19.4729 C   0  0  0  0  0  0  0  0  0  0  0  0
   23.1904  -13.3241  -18.8529 O   0  0  0  0  0  0  0  0  0  0  0  0
   21.7841  -12.6870  -24.2606 O   0  0  0  0  0  0  0  0  0  0  0  0
   26.3960  -11.5085  -14.9934 C   0  0  0  0  0  0  0  0  0  0  0  0
   26.8452  -10.6326  -16.1547 C   0  0  1  0  0  0  0  0  0  0  0  0
   28.2340  -10.1361  -15.8286 C   0  0  0  0  0  0  0  0  0  0  0  0
   26.7894  -11.4590  -17.3967 C   0  0  0  0  0  0  0  0  0  0  0  0
   25.4157  -11.9052  -17.7958 C   0  0  2  0  0  0  0  0  0  0  0  0
   25.4279  -12.6600  -19.0289 N   0  0  0  0  0  0  0  0  0  0  0  0
   24.6001  -10.6486  -17.9576 C   0  0  0  0  0  0  0  0  0  0  0  0
   24.6509   -9.9772  -19.0293 O   0  0  0  0  0  0  0  0  0  0  0  0
   16.9025   -9.3116  -19.8785 N   0  0  0  0  0  0  0  0  0  0  0  0
   17.2465   -8.0175  -19.4370 C   0  0  0  0  0  0  0  0  0  0  0  0
   16.4131   -7.0522  -19.6561 N   0  0  0  0  0  0  0  0  0  0  0  0
   18.4636   -7.7436  -18.7680 N   0  0  0  0  0  0  0  0  0  0  0  0
   19.4373   -8.7683  -18.4889 C   0  0  0  0  0  0  0  0  0  0  0  0
   20.6993   -8.1986  -17.8403 C   0  0  0  0  0  0  0  0  0  0  0  0
   21.6505   -9.3493  -17.6564 C   0  0  0  0  0  0  0  0  0  0  0  0
   22.9847   -8.9186  -17.0978 C   0  0  2  0  0  0  0  0  0  0  0  0
   23.7565  -10.1746  -16.9342 N   0  0  0  0  0  0  0  0  0  0  0  0
   22.7780   -8.2926  -15.7718 C   0  0  0  0  0  0  0  0  0  0  0  0
   22.5074   -6.9202  -15.7004 O   0  0  0  0  0  0  0  0  0  0  0  0
   22.8262   -8.9011  -14.6908 O   0  0  0  0  0  0  0  0  0  0  0  0
  2  1  1  1
  2  7  1  0
  2  3  1  0
  4  5  1  0
  4  3  1  0
  5  6  2  0
  7  8  2  0
  9  5  1  0
 11 13  1  0
 11 10  1  1
 12 11  1  0
 14 13  1  6
 15 14  1  0
 15  7  1  0
 16 14  1  0
 17 16  2  0
 18 19  1  0
 19 21  1  0
 20 19  2  0
 21 22  1  0
 22 23  1  0
 23 24  1  0
 25 24  1  1
 25 26  1  0
 25 27  1  0
 26 16  1  0
 27 28  1  0
 29 27  2  0
M  END
$$$$
