ELR.pdb
     RDKit          3D

 29 28  0  0  1  0  0  0  0  0999 V2000
   23.0561  -21.7230   -8.7508 N   0  0  0  0  0  0  0  0  0  0  0  0
   23.1510  -20.6586   -9.6834 C   0  0  1  0  0  0  0  0  0  0  0  0
   22.1044  -19.6069   -9.6325 C   0  0  0  0  0  0  0  0  0  0  0  0
   20.7339  -20.1609   -9.8047 C   0  0  0  0  0  0  0  0  0  0  0  0
   20.3622  -20.6191  -11.1410 C   0  0  0  0  0  0  0  0  0  0  0  0
   21.0452  -20.5573  -12.1778 O   0  0  0  0  0  0  0  0  0  0  0  0
   24.5279  -20.0930   -9.6657 C   0  0  0  0  0  0  0  0  0  0  0  0
   24.7079  -19.0552  -10.3594 O   0  0  0  0  0  0  0  0  0  0  0  0
   19.0839  -21.1970  -11.2681 O   0  0  0  0  0  0  0  0  0  0  0  0
   28.0931  -20.8436   -5.3462 C   0  0  0  0  0  0  0  0  0  0  0  0
   27.2115  -20.1927   -6.4029 C   0  0  1  0  0  0  0  0  0  0  0  0
   27.3075  -18.6983   -6.2059 C   0  0  0  0  0  0  0  0  0  0  0  0
   27.6950  -20.6449   -7.7410 C   0  0  0  0  0  0  0  0  0  0  0  0
   26.8935  -20.1431   -8.9034 C   0  0  2  0  0  0  0  0  0  0  0  0
   25.5557  -20.6913   -8.9163 N   0  0  0  0  0  0  0  0  0  0  0  0
   27.6450  -20.5637  -10.1400 C   0  0  0  0  0  0  0  0  0  0  0  0
   28.5213  -21.4753  -10.0865 O   0  0  0  0  0  0  0  0  0  0  0  0
   27.3541  -25.0223  -16.3153 N   0  0  0  0  0  0  0  0  0  0  0  0
   26.2388  -24.5502  -15.5933 C   0  0  0  0  0  0  0  0  0  0  0  0
   25.2272  -25.3421  -15.4390 N   0  0  0  0  0  0  0  0  0  0  0  0
   26.1914  -23.2493  -15.0371 N   0  0  0  0  0  0  0  0  0  0  0  0
   27.2515  -22.2917  -15.2250 C   0  0  0  0  0  0  0  0  0  0  0  0
   28.3053  -22.3791  -14.1207 C   0  0  0  0  0  0  0  0  0  0  0  0
   27.6849  -21.7954  -12.8809 C   0  0  0  0  0  0  0  0  0  0  0  0
   28.1568  -20.3899  -12.5996 C   0  0  2  0  0  0  0  0  0  0  0  0
   27.4055  -19.9664  -11.3928 N   0  0  0  0  0  0  0  0  0  0  0  0
   27.7907  -19.5165  -13.7380 C   0  0  0  0  0  0  0  0  0  0  0  0
   28.6060  -19.5030  -14.8768 O   0  0  0  0  0  0  0  0  0  0  0  0
   26.7942  -18.7766  -13.7657 O   0  0  0  0  0  0  0  0  0  0  0  0
  2  1  1  1
  2  7  1  0
  2  3  1  0
  4  5  1  0
  4  3  1  0
  5  6  2  0
  7  8  2  0
  9  5  1  0
 11 13  1  0
 11 10  1  1
 12 11  1  0
 14 13  1  1
 15 14  1  0
 15  7  1  0
 16 14  1  0
 17 16  2  0
 18 19  1  0
 19 21  1  0
 20 19  2  0
 21 22  1  0
 22 23  1  0
 23 24  1  0
 25 24  1  6
 25 26  1  0
 25 27  1  0
 26 16  1  0
 27 28  1  0
 29 27  2  0
M  END
$$$$
