ELR.pdb
     RDKit          3D

 29 28  0  0  1  0  0  0  0  0999 V2000
   27.7607  -22.0730  -15.6547 N   0  0  0  0  0  0  0  0  0  0  0  0
   27.1342  -20.9821  -14.9996 C   0  0  1  0  0  0  0  0  0  0  0  0
   26.5630  -19.9079  -15.8502 C   0  0  0  0  0  0  0  0  0  0  0  0
   27.5422  -19.3889  -16.8435 C   0  0  0  0  0  0  0  0  0  0  0  0
   28.0198  -18.0210  -16.6579 C   0  0  0  0  0  0  0  0  0  0  0  0
   27.6288  -17.1917  -15.8184 O   0  0  0  0  0  0  0  0  0  0  0  0
   26.1620  -21.4887  -13.9924 C   0  0  0  0  0  0  0  0  0  0  0  0
   25.4052  -22.4219  -14.3757 O   0  0  0  0  0  0  0  0  0  0  0  0
   29.0401  -17.5938  -17.5302 O   0  0  0  0  0  0  0  0  0  0  0  0
   26.7152  -20.0093   -8.6572 C   0  0  0  0  0  0  0  0  0  0  0  0
   26.6866  -20.4269  -10.1209 C   0  0  1  0  0  0  0  0  0  0  0  0
   27.9016  -21.2910  -10.3627 C   0  0  0  0  0  0  0  0  0  0  0  0
   25.3972  -21.1381  -10.3665 C   0  0  0  0  0  0  0  0  0  0  0  0
   25.0012  -21.2459  -11.8076 C   0  0  2  0  0  0  0  0  0  0  0  0
   26.1025  -20.9486  -12.6960 N   0  0  0  0  0  0  0  0  0  0  0  0
   23.8834  -20.2554  -12.0077 C   0  0  0  0  0  0  0  0  0  0  0  0
   24.1072  -19.1223  -12.5251 O   0  0  0  0  0  0  0  0  0  0  0  0
   21.5089  -24.5578  -17.8970 N   0  0  0  0  0  0  0  0  0  0  0  0
   20.4309  -23.6490  -17.8912 C   0  0  0  0  0  0  0  0  0  0  0  0
   19.5779  -23.7020  -18.8628 N   0  0  0  0  0  0  0  0  0  0  0  0
   20.2540  -22.6895  -16.8655 N   0  0  0  0  0  0  0  0  0  0  0  0
   21.1716  -22.5630  -15.7618 C   0  0  0  0  0  0  0  0  0  0  0  0
   20.7083  -21.5162  -14.7483 C   0  0  0  0  0  0  0  0  0  0  0  0
   21.7479  -21.4734  -13.6619 C   0  0  0  0  0  0  0  0  0  0  0  0
   21.4440  -20.4398  -12.6051 C   0  0  2  0  0  0  0  0  0  0  0  0
   22.5578  -20.5467  -11.6314 N   0  0  0  0  0  0  0  0  0  0  0  0
   20.1703  -20.7888  -11.9351 C   0  0  0  0  0  0  0  0  0  0  0  0
   19.0019  -20.1042  -12.2926 O   0  0  0  0  0  0  0  0  0  0  0  0
   20.0512  -21.6612  -11.0599 O   0  0  0  0  0  0  0  0  0  0  0  0
  2  1  1  6
  2  7  1  0
  2  3  1  0
  4  5  1  0
  4  3  1  0
  5  6  2  0
  7  8  2  0
  9  5  1  0
 11 13  1  0
 11 10  1  1
 12 11  1  0
 14 13  1  1
 15 14  1  0
 15  7  1  0
 16 14  1  0
 17 16  2  0
 18 19  1  0
 19 21  1  0
 20 19  2  0
 21 22  1  0
 22 23  1  0
 23 24  1  0
 25 24  1  6
 25 26  1  0
 25 27  1  0
 26 16  1  0
 27 28  1  0
 29 27  2  0
M  END
$$$$
