ELR.pdb
     RDKit          3D

 29 28  0  0  1  0  0  0  0  0999 V2000
   13.6458  -23.0378    2.5407 N   0  0  0  0  0  0  0  0  0  0  0  0
   14.9658  -23.3261    2.1095 C   0  0  1  0  0  0  0  0  0  0  0  0
   15.4555  -22.6345    0.8905 C   0  0  0  0  0  0  0  0  0  0  0  0
   14.5620  -22.8470   -0.2805 C   0  0  0  0  0  0  0  0  0  0  0  0
   14.9653  -22.2403   -1.5466 C   0  0  0  0  0  0  0  0  0  0  0  0
   16.0272  -21.6429   -1.7935 O   0  0  0  0  0  0  0  0  0  0  0  0
   15.9098  -23.1999    3.2538 C   0  0  0  0  0  0  0  0  0  0  0  0
   15.3877  -22.9624    4.3770 O   0  0  0  0  0  0  0  0  0  0  0  0
   14.0454  -22.3448   -2.6083 O   0  0  0  0  0  0  0  0  0  0  0  0
   21.0922  -25.4141    2.9707 C   0  0  0  0  0  0  0  0  0  0  0  0
   19.6805  -25.1511    3.4762 C   0  0  1  0  0  0  0  0  0  0  0  0
   19.4455  -26.0763    4.6467 C   0  0  0  0  0  0  0  0  0  0  0  0
   19.5881  -23.7055    3.8375 C   0  0  0  0  0  0  0  0  0  0  0  0
   18.2116  -23.2311    4.1919 C   0  0  2  0  0  0  0  0  0  0  0  0
   17.2973  -23.3390    3.0771 N   0  0  0  0  0  0  0  0  0  0  0  0
   18.3621  -21.7912    4.6099 C   0  0  0  0  0  0  0  0  0  0  0  0
   18.2853  -20.8583    3.7580 O   0  0  0  0  0  0  0  0  0  0  0  0
   13.2759  -16.2180    5.1955 N   0  0  0  0  0  0  0  0  0  0  0  0
   14.1595  -16.9944    4.4182 C   0  0  0  0  0  0  0  0  0  0  0  0
   13.7853  -17.3461    3.2305 N   0  0  0  0  0  0  0  0  0  0  0  0
   15.4312  -17.3977    4.8917 N   0  0  0  0  0  0  0  0  0  0  0  0
   15.6990  -17.6161    6.2905 C   0  0  0  0  0  0  0  0  0  0  0  0
   17.1538  -18.0149    6.5402 C   0  0  0  0  0  0  0  0  0  0  0  0
   17.2966  -19.4426    6.0886 C   0  0  0  0  0  0  0  0  0  0  0  0
   18.6719  -20.0034    6.3561 C   0  0  2  0  0  0  0  0  0  0  0  0
   18.5915  -21.4280    5.9512 N   0  0  0  0  0  0  0  0  0  0  0  0
   18.9577  -19.9202    7.8067 C   0  0  0  0  0  0  0  0  0  0  0  0
   19.1981  -18.6667    8.3835 O   0  0  0  0  0  0  0  0  0  0  0  0
   19.0027  -20.8963    8.5726 O   0  0  0  0  0  0  0  0  0  0  0  0
  2  1  1  1
  2  7  1  0
  2  3  1  0
  4  5  1  0
  4  3  1  0
  5  6  2  0
  7  8  2  0
  9  5  1  0
 11 13  1  0
 11 10  1  1
 12 11  1  0
 14 13  1  6
 15 14  1  0
 15  7  1  0
 16 14  1  0
 17 16  2  0
 18 19  1  0
 19 21  1  0
 20 19  2  0
 21 22  1  0
 22 23  1  0
 23 24  1  0
 25 24  1  1
 25 26  1  0
 25 27  1  0
 26 16  1  0
 27 28  1  0
 29 27  2  0
M  END
$$$$
