EWT.pdb
     RDKit          3D

 31 32  0  0  1  0  0  0  0  0999 V2000
    8.9313  -18.9029   21.4922 N   0  0  0  0  0  0  0  0  0  0  0  0
   10.2100  -18.3354   21.7855 C   0  0  1  0  0  0  0  0  0  0  0  0
   10.7426  -17.3590   20.7901 C   0  0  0  0  0  0  0  0  0  0  0  0
   10.8844  -17.8354   19.3971 C   0  0  0  0  0  0  0  0  0  0  0  0
   11.3371  -16.8643   18.3934 C   0  0  0  0  0  0  0  0  0  0  0  0
   12.0284  -15.8563   18.5614 O   0  0  0  0  0  0  0  0  0  0  0  0
   10.2184  -17.7306   23.1710 C   0  0  0  0  0  0  0  0  0  0  0  0
   11.2435  -17.1356   23.5318 O   0  0  0  0  0  0  0  0  0  0  0  0
   10.9284  -17.1166   17.0626 O   0  0  0  0  0  0  0  0  0  0  0  0
    9.0987  -17.8348   24.0371 N   0  0  0  0  0  0  0  0  0  0  0  0
    9.1063  -17.1991   25.3645 C   0  0  1  0  0  0  0  0  0  0  0  0
    7.7378  -16.7119   25.7222 C   0  0  0  0  0  0  0  0  0  0  0  0
    7.3006  -15.5016   25.0452 C   0  0  0  0  0  0  0  0  0  0  0  0
    6.7960  -15.4219   23.7679 C   0  0  0  0  0  0  0  0  0  0  0  0
    6.5063  -14.1207   23.4970 N   0  0  0  0  0  0  0  0  0  0  0  0
    6.8039  -13.3574   24.5489 C   0  0  0  0  0  0  0  0  0  0  0  0
    6.7193  -12.0131   24.8283 C   0  0  0  0  0  0  0  0  0  0  0  0
    7.1039  -11.4587   26.0320 C   0  0  0  0  0  0  0  0  0  0  0  0
    7.5951  -12.3233   26.9857 C   0  0  0  0  0  0  0  0  0  0  0  0
    7.6862  -13.6730   26.7208 C   0  0  0  0  0  0  0  0  0  0  0  0
    7.2975  -14.2083   25.5137 C   0  0  0  0  0  0  0  0  0  0  0  0
    9.5017  -18.2478   26.3411 C   0  0  0  0  0  0  0  0  0  0  0  0
    8.7516  -19.2315   26.5808 O   0  0  0  0  0  0  0  0  0  0  0  0
   12.3097  -20.4513   26.1051 C   0  0  0  0  0  0  0  0  0  0  0  0
   12.4820  -19.7457   27.4291 C   0  0  1  0  0  0  0  0  0  0  0  0
   13.3572  -18.6540   27.2816 O   0  0  0  0  0  0  0  0  0  0  0  0
   11.1472  -19.2143   27.9322 C   0  0  2  0  0  0  0  0  0  0  0  0
   10.7520  -18.1516   27.0275 N   0  0  0  0  0  0  0  0  0  0  0  0
   11.3937  -18.6383   29.2918 C   0  0  0  0  0  0  0  0  0  0  0  0
   11.7137  -19.4257   30.3719 O   0  0  0  0  0  0  0  0  0  0  0  0
   11.3099  -17.4048   29.4674 O   0  0  0  0  0  0  0  0  0  0  0  0
  2  1  1  6
  3  2  1  0
  3  4  1  0
  5  4  1  0
  5  9  1  0
  6  5  2  0
  7  8  2  0
  7  2  1  0
 10  7  1  0
 11 10  1  0
 11 12  1  1
 12 13  1  0
 13 14  2  0
 13 21  1  0
 14 15  1  0
 15 16  1  0
 16 17  2  0
 18 17  1  0
 19 18  2  0
 20 21  2  0
 20 19  1  0
 21 16  1  0
 22 11  1  0
 23 22  2  0
 25 24  1  6
 25 27  1  0
 26 25  1  0
 27 29  1  0
 27 28  1  6
 28 22  1  0
 29 30  1  0
 31 29  2  0
M  END
$$$$
