EWT.pdb
     RDKit          3D

 31 32  0  0  1  0  0  0  0  0999 V2000
    6.6419  -16.3677   21.1385 N   0  0  0  0  0  0  0  0  0  0  0  0
    8.0344  -16.2382   20.8430 C   0  0  1  0  0  0  0  0  0  0  0  0
    8.3872  -15.3307   19.7117 C   0  0  0  0  0  0  0  0  0  0  0  0
    7.8708  -15.6973   18.3751 C   0  0  0  0  0  0  0  0  0  0  0  0
    8.5532  -16.7837   17.6615 C   0  0  0  0  0  0  0  0  0  0  0  0
    9.5906  -17.3727   17.9764 O   0  0  0  0  0  0  0  0  0  0  0  0
    8.8082  -15.8561   22.0841 C   0  0  0  0  0  0  0  0  0  0  0  0
    9.4472  -14.7949   22.0586 O   0  0  0  0  0  0  0  0  0  0  0  0
    7.9433  -17.2103   16.4583 O   0  0  0  0  0  0  0  0  0  0  0  0
    8.8114  -16.6757   23.2429 N   0  0  0  0  0  0  0  0  0  0  0  0
    9.6450  -16.3371   24.4077 C   0  0  1  0  0  0  0  0  0  0  0  0
    8.8392  -16.3981   25.6667 C   0  0  0  0  0  0  0  0  0  0  0  0
    7.6505  -15.5613   25.6978 C   0  0  0  0  0  0  0  0  0  0  0  0
    6.3579  -15.9769   25.4767 C   0  0  0  0  0  0  0  0  0  0  0  0
    5.5320  -14.9019   25.5894 N   0  0  0  0  0  0  0  0  0  0  0  0
    6.2403  -13.8089   25.8746 C   0  0  0  0  0  0  0  0  0  0  0  0
    5.9374  -12.4850   26.0933 C   0  0  0  0  0  0  0  0  0  0  0  0
    6.8844  -11.5235   26.3810 C   0  0  0  0  0  0  0  0  0  0  0  0
    8.1954  -11.9423   26.4461 C   0  0  0  0  0  0  0  0  0  0  0  0
    8.5150  -13.2656   26.2293 C   0  0  0  0  0  0  0  0  0  0  0  0
    7.5564  -14.2111   25.9433 C   0  0  0  0  0  0  0  0  0  0  0  0
   10.7148  -17.3663   24.4844 C   0  0  0  0  0  0  0  0  0  0  0  0
   10.4383  -18.5956   24.4805 O   0  0  0  0  0  0  0  0  0  0  0  0
   13.7612  -17.4943   22.2617 C   0  0  0  0  0  0  0  0  0  0  0  0
   14.2360  -17.5311   23.6947 C   0  0  1  0  0  0  0  0  0  0  0  0
   14.6388  -16.2455   24.1007 O   0  0  0  0  0  0  0  0  0  0  0  0
   13.1167  -17.9878   24.6198 C   0  0  2  0  0  0  0  0  0  0  0  0
   12.0858  -16.9689   24.5641 N   0  0  0  0  0  0  0  0  0  0  0  0
   13.6884  -18.0357   26.0026 C   0  0  0  0  0  0  0  0  0  0  0  0
   14.6880  -18.9127   26.3499 O   0  0  0  0  0  0  0  0  0  0  0  0
   13.2544  -17.2609   26.8804 O   0  0  0  0  0  0  0  0  0  0  0  0
  2  1  1  1
  3  2  1  0
  3  4  1  0
  5  4  1  0
  5  9  1  0
  6  5  2  0
  7  8  2  0
  7  2  1  0
 10  7  1  0
 11 10  1  0
 11 12  1  1
 12 13  1  0
 13 14  2  0
 13 21  1  0
 14 15  1  0
 15 16  1  0
 16 17  2  0
 18 17  1  0
 19 18  2  0
 20 21  2  0
 20 19  1  0
 21 16  1  0
 22 11  1  0
 23 22  2  0
 25 24  1  6
 25 27  1  0
 26 25  1  0
 27 29  1  0
 27 28  1  1
 28 22  1  0
 29 30  1  0
 31 29  2  0
M  END
$$$$
