EWT.pdb
     RDKit          3D

 31 32  0  0  1  0  0  0  0  0999 V2000
    6.2201  -15.4753   20.3396 N   0  0  0  0  0  0  0  0  0  0  0  0
    7.2714  -16.4051   20.6105 C   0  0  1  0  0  0  0  0  0  0  0  0
    8.1591  -16.7505   19.4613 C   0  0  0  0  0  0  0  0  0  0  0  0
    7.6843  -17.8105   18.5456 C   0  0  0  0  0  0  0  0  0  0  0  0
    8.7003  -18.6496   17.8983 C   0  0  0  0  0  0  0  0  0  0  0  0
    9.2452  -18.4839   16.8038 O   0  0  0  0  0  0  0  0  0  0  0  0
    8.0958  -15.9466   21.7918 C   0  0  0  0  0  0  0  0  0  0  0  0
    8.6190  -14.8254   21.7266 O   0  0  0  0  0  0  0  0  0  0  0  0
    9.1069  -19.7951   18.6221 O   0  0  0  0  0  0  0  0  0  0  0  0
    8.2722  -16.7625   22.9398 N   0  0  0  0  0  0  0  0  0  0  0  0
    9.1597  -16.3443   24.0370 C   0  0  1  0  0  0  0  0  0  0  0  0
    8.4447  -16.4183   25.3490 C   0  0  0  0  0  0  0  0  0  0  0  0
    7.3923  -15.4355   25.5518 C   0  0  0  0  0  0  0  0  0  0  0  0
    6.0388  -15.6638   25.4622 C   0  0  0  0  0  0  0  0  0  0  0  0
    5.3851  -14.4980   25.7149 N   0  0  0  0  0  0  0  0  0  0  0  0
    6.2632  -13.5261   25.9642 C   0  0  0  0  0  0  0  0  0  0  0  0
    6.1701  -12.1888   26.2730 C   0  0  0  0  0  0  0  0  0  0  0  0
    7.2655  -11.3787   26.4919 C   0  0  0  0  0  0  0  0  0  0  0  0
    8.5060  -11.9694   26.3886 C   0  0  0  0  0  0  0  0  0  0  0  0
    8.6158  -13.3084   26.0797 C   0  0  0  0  0  0  0  0  0  0  0  0
    7.5114  -14.1013   25.8646 C   0  0  0  0  0  0  0  0  0  0  0  0
   10.2922  -17.3067   24.0644 C   0  0  0  0  0  0  0  0  0  0  0  0
   10.0956  -18.5403   24.2290 O   0  0  0  0  0  0  0  0  0  0  0  0
   13.3864  -17.0814   21.6355 C   0  0  0  0  0  0  0  0  0  0  0  0
   13.8383  -17.2140   23.0702 C   0  0  1  0  0  0  0  0  0  0  0  0
   14.1759  -15.9494   23.5865 O   0  0  0  0  0  0  0  0  0  0  0  0
   12.7254  -17.7927   23.9326 C   0  0  2  0  0  0  0  0  0  0  0  0
   11.6332  -16.8385   23.9022 N   0  0  0  0  0  0  0  0  0  0  0  0
   13.2605  -17.8854   25.3277 C   0  0  0  0  0  0  0  0  0  0  0  0
   14.3203  -18.6986   25.6511 O   0  0  0  0  0  0  0  0  0  0  0  0
   12.7386  -17.2090   26.2384 O   0  0  0  0  0  0  0  0  0  0  0  0
  2  1  1  6
  3  2  1  0
  3  4  1  0
  5  4  1  0
  5  9  1  0
  6  5  2  0
  7  8  2  0
  7  2  1  0
 10  7  1  0
 11 10  1  0
 11 12  1  1
 12 13  1  0
 13 14  2  0
 13 21  1  0
 14 15  1  0
 15 16  1  0
 16 17  2  0
 18 17  1  0
 19 18  2  0
 20 21  2  0
 20 19  1  0
 21 16  1  0
 22 11  1  0
 23 22  2  0
 25 24  1  6
 25 27  1  0
 26 25  1  0
 27 29  1  0
 27 28  1  1
 28 22  1  0
 29 30  1  0
 31 29  2  0
M  END
$$$$
