EWT.pdb
     RDKit          3D

 31 32  0  0  1  0  0  0  0  0999 V2000
   10.1646  -15.7651   20.4961 N   0  0  0  0  0  0  0  0  0  0  0  0
   10.6183  -16.8454   21.3147 C   0  0  1  0  0  0  0  0  0  0  0  0
   11.9638  -17.4020   20.9866 C   0  0  0  0  0  0  0  0  0  0  0  0
   12.1247  -18.0176   19.6515 C   0  0  0  0  0  0  0  0  0  0  0  0
   12.6177  -19.3994   19.5991 C   0  0  0  0  0  0  0  0  0  0  0  0
   13.1635  -20.0513   20.4932 O   0  0  0  0  0  0  0  0  0  0  0  0
   10.5472  -16.4706   22.7775 C   0  0  0  0  0  0  0  0  0  0  0  0
   11.4470  -15.7490   23.2299 O   0  0  0  0  0  0  0  0  0  0  0  0
   12.4450  -20.0698   18.3653 O   0  0  0  0  0  0  0  0  0  0  0  0
    9.4931  -16.9237   23.6131 N   0  0  0  0  0  0  0  0  0  0  0  0
    9.4348  -16.5414   25.0333 C   0  0  1  0  0  0  0  0  0  0  0  0
    8.0404  -16.1602   25.4185 C   0  0  0  0  0  0  0  0  0  0  0  0
    7.5737  -14.8782   24.9156 C   0  0  0  0  0  0  0  0  0  0  0  0
    7.3204  -14.5644   23.6004 C   0  0  0  0  0  0  0  0  0  0  0  0
    6.9050  -13.2707   23.5360 N   0  0  0  0  0  0  0  0  0  0  0  0
    6.8800  -12.7371   24.7576 C   0  0  0  0  0  0  0  0  0  0  0  0
    6.5506  -11.5046   25.2724 C   0  0  0  0  0  0  0  0  0  0  0  0
    6.6107  -11.1990   26.6167 C   0  0  0  0  0  0  0  0  0  0  0  0
    7.0265  -12.2025   27.4643 C   0  0  0  0  0  0  0  0  0  0  0  0
    7.3601  -13.4428   26.9637 C   0  0  0  0  0  0  0  0  0  0  0  0
    7.2940  -13.7296   25.6190 C   0  0  0  0  0  0  0  0  0  0  0  0
    9.8275  -17.7414   25.8179 C   0  0  0  0  0  0  0  0  0  0  0  0
    9.3378  -18.8745   25.5651 O   0  0  0  0  0  0  0  0  0  0  0  0
   13.0660  -19.2877   26.1021 C   0  0  0  0  0  0  0  0  0  0  0  0
   12.6664  -18.9344   27.5148 C   0  0  1  0  0  0  0  0  0  0  0  0
   13.2364  -17.7013   27.8814 O   0  0  0  0  0  0  0  0  0  0  0  0
   11.1539  -18.8063   27.6291 C   0  0  2  0  0  0  0  0  0  0  0  0
   10.7763  -17.6225   26.8806 N   0  0  0  0  0  0  0  0  0  0  0  0
   10.8442  -18.5930   29.0781 C   0  0  0  0  0  0  0  0  0  0  0  0
   11.0736  -19.5629   30.0246 O   0  0  0  0  0  0  0  0  0  0  0  0
   10.3617  -17.5050   29.4557 O   0  0  0  0  0  0  0  0  0  0  0  0
  2  1  1  6
  3  2  1  0
  3  4  1  0
  5  4  1  0
  5  9  1  0
  6  5  2  0
  7  8  2  0
  7  2  1  0
 10  7  1  0
 11 10  1  0
 11 12  1  1
 12 13  1  0
 13 14  2  0
 13 21  1  0
 14 15  1  0
 15 16  1  0
 16 17  2  0
 18 17  1  0
 19 18  2  0
 20 21  2  0
 20 19  1  0
 21 16  1  0
 22 11  1  0
 23 22  2  0
 25 24  1  6
 25 27  1  0
 26 25  1  0
 27 29  1  0
 27 28  1  6
 28 22  1  0
 29 30  1  0
 31 29  2  0
M  END
$$$$
