TIW.pdb
     RDKit          3D

 30 31  0  0  1  0  0  0  0  0999 V2000
   29.0892  -24.6745  -18.1299 C   0  0  0  0  0  0  0  0  0  0  0  0
   28.7085  -23.7233  -17.0144 C   0  0  1  0  0  0  0  0  0  0  0  0
   29.7297  -23.7514  -16.0654 O   0  0  0  0  0  0  0  0  0  0  0  0
   28.5662  -22.3510  -17.6367 C   0  0  2  0  0  0  0  0  0  0  0  0
   29.8070  -22.0088  -18.2463 N   0  0  0  0  0  0  0  0  0  0  0  0
   28.1555  -21.3282  -16.6263 C   0  0  0  0  0  0  0  0  0  0  0  0
   29.0446  -20.5478  -16.1788 O   0  0  0  0  0  0  0  0  0  0  0  0
   24.8362  -17.7502  -17.7306 C   0  0  0  0  0  0  0  0  0  0  0  0
   25.8267  -18.5666  -16.9201 C   0  0  0  0  0  0  0  0  0  0  0  0
   25.1185  -19.5106  -15.9374 C   0  0  2  0  0  0  0  0  0  0  0  0
   24.3584  -18.7049  -14.9128 C   0  0  0  0  0  0  0  0  0  0  0  0
   26.1988  -20.3497  -15.2908 C   0  0  2  0  0  0  0  0  0  0  0  0
   26.8182  -21.2755  -16.2201 N   0  0  0  0  0  0  0  0  0  0  0  0
   25.8385  -21.0718  -14.0844 C   0  0  0  0  0  0  0  0  0  0  0  0
   25.0608  -22.1011  -14.1961 O   0  0  0  0  0  0  0  0  0  0  0  0
   26.2249  -20.8167  -12.7463 N   0  0  0  0  0  0  0  0  0  0  0  0
   25.7297  -21.5840  -11.6218 C   0  0  1  0  0  0  0  0  0  0  0  0
   26.8453  -21.7777  -10.6282 C   0  0  0  0  0  0  0  0  0  0  0  0
   26.7635  -20.8621   -9.5014 C   0  0  0  0  0  0  0  0  0  0  0  0
   25.6278  -20.1096   -9.2198 C   0  0  0  0  0  0  0  0  0  0  0  0
   25.9052  -19.3693   -8.1514 N   0  0  0  0  0  0  0  0  0  0  0  0
   27.1629  -19.6051   -7.7269 C   0  0  0  0  0  0  0  0  0  0  0  0
   27.8624  -19.0727   -6.6567 C   0  0  0  0  0  0  0  0  0  0  0  0
   29.1433  -19.4649   -6.3911 C   0  0  0  0  0  0  0  0  0  0  0  0
   29.6973  -20.4104   -7.2376 C   0  0  0  0  0  0  0  0  0  0  0  0
   29.0090  -20.9430   -8.3023 C   0  0  0  0  0  0  0  0  0  0  0  0
   27.7155  -20.5439   -8.5680 C   0  0  0  0  0  0  0  0  0  0  0  0
   24.5374  -20.9884  -10.9865 C   0  0  0  0  0  0  0  0  0  0  0  0
   23.6345  -21.6746  -10.2057 O   0  0  0  0  0  0  0  0  0  0  0  0
   24.3449  -19.7624  -11.1815 O   0  0  0  0  0  0  0  0  0  0  0  0
  2  1  1  6
  3  2  1  0
  4  2  1  0
  4  5  1  1
  6  7  2  0
  6  4  1  0
  9  8  1  0
 10  9  1  0
 10 12  1  0
 10 11  1  1
 12 13  1  6
 13  6  1  0
 14 12  1  0
 14 16  1  0
 15 14  2  0
 17 16  1  0
 17 28  1  0
 17 18  1  1
 18 19  1  0
 19 20  2  0
 19 27  1  0
 20 21  1  0
 21 22  1  0
 22 23  2  0
 23 24  1  0
 25 24  2  0
 26 25  1  0
 27 26  2  0
 27 22  1  0
 28 29  1  0
 30 28  2  0
M  END
$$$$
