TIW.pdb
     RDKit          3D

 30 31  0  0  1  0  0  0  0  0999 V2000
   28.5215  -14.4766  -17.2187 C   0  0  0  0  0  0  0  0  0  0  0  0
   27.3737  -15.3419  -16.7412 C   0  0  1  0  0  0  0  0  0  0  0  0
   26.5206  -14.5373  -15.9869 O   0  0  0  0  0  0  0  0  0  0  0  0
   26.6836  -15.8774  -17.9771 C   0  0  2  0  0  0  0  0  0  0  0  0
   26.1940  -14.7704  -18.7275 N   0  0  0  0  0  0  0  0  0  0  0  0
   25.5829  -16.8264  -17.6255 C   0  0  0  0  0  0  0  0  0  0  0  0
   24.4061  -16.3682  -17.5552 O   0  0  0  0  0  0  0  0  0  0  0  0
   23.9065  -20.3281  -20.5518 C   0  0  0  0  0  0  0  0  0  0  0  0
   24.0714  -19.4767  -19.3058 C   0  0  0  0  0  0  0  0  0  0  0  0
   24.8085  -20.2339  -18.1913 C   0  0  2  0  0  0  0  0  0  0  0  0
   23.9957  -21.4307  -17.7628 C   0  0  0  0  0  0  0  0  0  0  0  0
   24.9929  -19.2541  -17.0532 C   0  0  2  0  0  0  0  0  0  0  0  0
   25.8949  -18.1694  -17.3906 N   0  0  0  0  0  0  0  0  0  0  0  0
   25.3848  -19.8034  -15.7681 C   0  0  0  0  0  0  0  0  0  0  0  0
   26.5093  -19.4177  -15.2548 O   0  0  0  0  0  0  0  0  0  0  0  0
   24.6971  -20.7333  -14.9514 N   0  0  0  0  0  0  0  0  0  0  0  0
   25.2117  -21.1987  -13.6797 C   0  0  1  0  0  0  0  0  0  0  0  0
   25.2515  -20.0446  -12.7124 C   0  0  0  0  0  0  0  0  0  0  0  0
   24.7881  -20.4060  -11.3822 C   0  0  0  0  0  0  0  0  0  0  0  0
   25.6427  -20.8525  -10.3795 C   0  0  0  0  0  0  0  0  0  0  0  0
   24.8915  -21.1170   -9.3155 N   0  0  0  0  0  0  0  0  0  0  0  0
   23.5938  -20.8637   -9.5788 C   0  0  0  0  0  0  0  0  0  0  0  0
   22.4751  -20.9837   -8.7711 C   0  0  0  0  0  0  0  0  0  0  0  0
   21.2344  -20.6559   -9.2380 C   0  0  0  0  0  0  0  0  0  0  0  0
   21.1560  -20.2032  -10.5442 C   0  0  0  0  0  0  0  0  0  0  0  0
   22.2622  -20.0818  -11.3521 C   0  0  0  0  0  0  0  0  0  0  0  0
   23.5139  -20.4146  -10.8773 C   0  0  0  0  0  0  0  0  0  0  0  0
   24.4584  -22.3418  -13.1265 C   0  0  0  0  0  0  0  0  0  0  0  0
   24.9925  -23.3217  -12.3201 O   0  0  0  0  0  0  0  0  0  0  0  0
   23.2395  -22.4127  -13.4222 O   0  0  0  0  0  0  0  0  0  0  0  0
  2  1  1  6
  3  2  1  0
  4  2  1  0
  4  5  1  1
  6  7  2  0
  6  4  1  0
  9  8  1  0
 10  9  1  0
 10 12  1  0
 10 11  1  1
 12 13  1  6
 13  6  1  0
 14 12  1  0
 14 16  1  0
 15 14  2  0
 17 16  1  0
 17 28  1  0
 17 18  1  1
 18 19  1  0
 19 20  2  0
 19 27  1  0
 20 21  1  0
 21 22  1  0
 22 23  2  0
 23 24  1  0
 25 24  2  0
 26 25  1  0
 27 26  2  0
 27 22  1  0
 28 29  1  0
 30 28  2  0
M  END
$$$$
