TIW.pdb
     RDKit          3D

 30 31  0  0  1  0  0  0  0  0999 V2000
   26.7314  -23.8287  -16.8072 C   0  0  0  0  0  0  0  0  0  0  0  0
   28.1222  -24.0080  -17.3795 C   0  0  1  0  0  0  0  0  0  0  0  0
   27.9959  -24.6588  -18.6061 O   0  0  0  0  0  0  0  0  0  0  0  0
   28.7117  -22.6237  -17.5434 C   0  0  2  0  0  0  0  0  0  0  0  0
   30.0325  -22.7613  -18.0580 N   0  0  0  0  0  0  0  0  0  0  0  0
   28.7057  -21.8667  -16.2539 C   0  0  0  0  0  0  0  0  0  0  0  0
   29.6433  -22.0866  -15.4340 O   0  0  0  0  0  0  0  0  0  0  0  0
   26.8541  -16.3470  -14.2900 C   0  0  0  0  0  0  0  0  0  0  0  0
   26.9404  -17.8397  -14.0273 C   0  0  0  0  0  0  0  0  0  0  0  0
   27.2626  -18.6262  -15.3065 C   0  0  2  0  0  0  0  0  0  0  0  0
   26.1014  -18.5391  -16.2659 C   0  0  0  0  0  0  0  0  0  0  0  0
   27.5226  -20.0546  -14.8806 C   0  0  2  0  0  0  0  0  0  0  0  0
   27.6742  -20.9548  -16.0079 N   0  0  0  0  0  0  0  0  0  0  0  0
   26.5876  -20.6415  -13.9383 C   0  0  0  0  0  0  0  0  0  0  0  0
   25.4473  -21.0598  -14.3871 O   0  0  0  0  0  0  0  0  0  0  0  0
   26.7365  -20.8396  -12.5442 N   0  0  0  0  0  0  0  0  0  0  0  0
   25.7536  -21.5317  -11.7359 C   0  0  1  0  0  0  0  0  0  0  0  0
   26.4132  -22.0278  -10.4757 C   0  0  0  0  0  0  0  0  0  0  0  0
   26.5345  -20.9963   -9.4578 C   0  0  0  0  0  0  0  0  0  0  0  0
   25.5035  -20.1153   -9.1479 C   0  0  0  0  0  0  0  0  0  0  0  0
   25.9594  -19.2973   -8.2048 N   0  0  0  0  0  0  0  0  0  0  0  0
   27.2332  -19.6047   -7.8883 C   0  0  0  0  0  0  0  0  0  0  0  0
   28.0904  -19.0320   -6.9633 C   0  0  0  0  0  0  0  0  0  0  0  0
   29.3565  -19.5130   -6.7884 C   0  0  0  0  0  0  0  0  0  0  0  0
   29.7319  -20.5893   -7.5746 C   0  0  0  0  0  0  0  0  0  0  0  0
   28.8866  -21.1627   -8.4953 C   0  0  0  0  0  0  0  0  0  0  0  0
   27.6086  -20.6736   -8.6698 C   0  0  0  0  0  0  0  0  0  0  0  0
   24.5616  -20.7135  -11.4360 C   0  0  0  0  0  0  0  0  0  0  0  0
   23.3124  -21.2163  -11.1490 O   0  0  0  0  0  0  0  0  0  0  0  0
   24.7136  -19.4665  -11.4470 O   0  0  0  0  0  0  0  0  0  0  0  0
  2  1  1  6
  3  2  1  0
  4  2  1  0
  4  5  1  1
  6  7  2  0
  6  4  1  0
  9  8  1  0
 10  9  1  0
 10 12  1  0
 10 11  1  6
 12 13  1  6
 13  6  1  0
 14 12  1  0
 14 16  1  0
 15 14  2  0
 17 16  1  0
 17 28  1  0
 17 18  1  1
 18 19  1  0
 19 20  2  0
 19 27  1  0
 20 21  1  0
 21 22  1  0
 22 23  2  0
 23 24  1  0
 25 24  2  0
 26 25  1  0
 27 26  2  0
 27 22  1  0
 28 29  1  0
 30 28  2  0
M  END
$$$$
