TIW.pdb
     RDKit          3D

 30 31  0  0  1  0  0  0  0  0999 V2000
   28.8198  -18.6995  -16.5861 C   0  0  0  0  0  0  0  0  0  0  0  0
   27.5972  -19.2521  -15.8832 C   0  0  1  0  0  0  0  0  0  0  0  0
   26.5753  -19.3543  -16.8262 O   0  0  0  0  0  0  0  0  0  0  0  0
   27.9825  -20.6081  -15.3325 C   0  0  2  0  0  0  0  0  0  0  0  0
   28.3280  -21.4506  -16.4276 N   0  0  0  0  0  0  0  0  0  0  0  0
   26.8816  -21.2030  -14.5140 C   0  0  0  0  0  0  0  0  0  0  0  0
   26.2320  -22.1691  -15.0084 O   0  0  0  0  0  0  0  0  0  0  0  0
   25.0931  -21.1879   -8.5272 C   0  0  0  0  0  0  0  0  0  0  0  0
   24.8386  -21.4035  -10.0082 C   0  0  0  0  0  0  0  0  0  0  0  0
   25.9800  -20.8444  -10.8702 C   0  0  2  0  0  0  0  0  0  0  0  0
   26.1796  -19.3800  -10.5664 C   0  0  0  0  0  0  0  0  0  0  0  0
   25.5768  -21.0602  -12.3125 C   0  0  2  0  0  0  0  0  0  0  0  0
   26.6164  -20.6730  -13.2471 N   0  0  0  0  0  0  0  0  0  0  0  0
   24.3218  -20.4702  -12.7410 C   0  0  0  0  0  0  0  0  0  0  0  0
   24.3218  -19.2268  -13.1025 O   0  0  0  0  0  0  0  0  0  0  0  0
   23.0425  -21.0700  -12.8324 N   0  0  0  0  0  0  0  0  0  0  0  0
   21.9273  -20.4500  -13.5183 C   0  0  1  0  0  0  0  0  0  0  0  0
   22.3363  -20.1273  -14.9318 C   0  0  0  0  0  0  0  0  0  0  0  0
   21.2796  -19.4787  -15.6917 C   0  0  0  0  0  0  0  0  0  0  0  0
   20.1814  -18.8708  -15.0920 C   0  0  0  0  0  0  0  0  0  0  0  0
   19.4084  -18.4096  -16.0699 N   0  0  0  0  0  0  0  0  0  0  0  0
   19.9512  -18.6878  -17.2722 C   0  0  0  0  0  0  0  0  0  0  0  0
   19.5028  -18.3910  -18.5485 C   0  0  0  0  0  0  0  0  0  0  0  0
   20.2238  -18.7586  -19.6485 C   0  0  0  0  0  0  0  0  0  0  0  0
   21.4109  -19.4347  -19.4222 C   0  0  0  0  0  0  0  0  0  0  0  0
   21.8621  -19.7333  -18.1579 C   0  0  0  0  0  0  0  0  0  0  0  0
   21.1307  -19.3610  -17.0491 C   0  0  0  0  0  0  0  0  0  0  0  0
   20.6947  -21.2621  -13.4844 C   0  0  0  0  0  0  0  0  0  0  0  0
   20.5975  -22.5656  -13.9170 O   0  0  0  0  0  0  0  0  0  0  0  0
   19.6651  -20.7092  -13.0236 O   0  0  0  0  0  0  0  0  0  0  0  0
  2  1  1  6
  3  2  1  0
  4  2  1  0
  4  5  1  6
  6  7  2  0
  6  4  1  0
  9  8  1  0
 10  9  1  0
 10 12  1  0
 10 11  1  6
 12 13  1  6
 13  6  1  0
 14 12  1  0
 14 16  1  0
 15 14  2  0
 17 16  1  0
 17 28  1  0
 17 18  1  6
 18 19  1  0
 19 20  2  0
 19 27  1  0
 20 21  1  0
 21 22  1  0
 22 23  2  0
 23 24  1  0
 25 24  2  0
 26 25  1  0
 27 26  2  0
 27 22  1  0
 28 29  1  0
 30 28  2  0
M  END
$$$$
