TIW.pdb
     RDKit          3D

 30 31  0  0  1  0  0  0  0  0999 V2000
   23.5624  -24.4955  -16.7391 C   0  0  0  0  0  0  0  0  0  0  0  0
   24.2976  -23.7636  -15.6355 C   0  0  1  0  0  0  0  0  0  0  0  0
   24.3828  -24.6221  -14.5402 O   0  0  0  0  0  0  0  0  0  0  0  0
   25.6677  -23.4155  -16.1762 C   0  0  2  0  0  0  0  0  0  0  0  0
   26.3055  -24.6229  -16.5811 N   0  0  0  0  0  0  0  0  0  0  0  0
   26.4875  -22.6789  -15.1658 C   0  0  0  0  0  0  0  0  0  0  0  0
   27.4413  -23.2982  -14.6121 O   0  0  0  0  0  0  0  0  0  0  0  0
   27.8290  -17.6383  -16.1599 C   0  0  0  0  0  0  0  0  0  0  0  0
   27.8170  -18.9986  -15.4859 C   0  0  0  0  0  0  0  0  0  0  0  0
   26.8345  -19.0417  -14.3062 C   0  0  2  0  0  0  0  0  0  0  0  0
   27.3323  -18.1519  -13.1941 C   0  0  0  0  0  0  0  0  0  0  0  0
   26.7540  -20.4867  -13.8648 C   0  0  2  0  0  0  0  0  0  0  0  0
   26.1704  -21.3479  -14.8756 N   0  0  0  0  0  0  0  0  0  0  0  0
   26.1035  -20.7521  -12.5947 C   0  0  0  0  0  0  0  0  0  0  0  0
   24.8211  -20.9315  -12.5892 O   0  0  0  0  0  0  0  0  0  0  0  0
   26.6789  -20.8532  -11.3049 N   0  0  0  0  0  0  0  0  0  0  0  0
   25.9192  -21.2249  -10.1287 C   0  0  1  0  0  0  0  0  0  0  0  0
   26.8727  -21.5427   -9.0066 C   0  0  0  0  0  0  0  0  0  0  0  0
   27.1129  -20.4071   -8.1306 C   0  0  0  0  0  0  0  0  0  0  0  0
   26.6319  -19.1298   -8.3998 C   0  0  0  0  0  0  0  0  0  0  0  0
   27.0552  -18.3388   -7.4192 N   0  0  0  0  0  0  0  0  0  0  0  0
   27.7853  -19.0397   -6.5286 C   0  0  0  0  0  0  0  0  0  0  0  0
   28.4071  -18.6317   -5.3603 C   0  0  0  0  0  0  0  0  0  0  0  0
   29.0959  -19.5203   -4.5851 C   0  0  0  0  0  0  0  0  0  0  0  0
   29.1386  -20.8329   -5.0239 C   0  0  0  0  0  0  0  0  0  0  0  0
   28.5240  -21.2451   -6.1831 C   0  0  0  0  0  0  0  0  0  0  0  0
   27.8298  -20.3445   -6.9640 C   0  0  0  0  0  0  0  0  0  0  0  0
   24.9298  -20.2060   -9.7249 C   0  0  0  0  0  0  0  0  0  0  0  0
   23.7960  -20.4578   -8.9855 O   0  0  0  0  0  0  0  0  0  0  0  0
   25.1522  -19.0248  -10.0905 O   0  0  0  0  0  0  0  0  0  0  0  0
  2  1  1  6
  3  2  1  0
  4  2  1  0
  4  5  1  1
  6  7  2  0
  6  4  1  0
  9  8  1  0
 10  9  1  0
 10 12  1  0
 10 11  1  1
 12 13  1  6
 13  6  1  0
 14 12  1  0
 14 16  1  0
 15 14  2  0
 17 16  1  0
 17 28  1  0
 17 18  1  1
 18 19  1  0
 19 20  2  0
 19 27  1  0
 20 21  1  0
 21 22  1  0
 22 23  2  0
 23 24  1  0
 25 24  2  0
 26 25  1  0
 27 26  2  0
 27 22  1  0
 28 29  1  0
 30 28  2  0
M  END
$$$$
