EWP.pdb
     RDKit          3D

 31 33  0  0  1  0  0  0  0  0999 V2000
   26.5901  -18.0712  -19.1886 N   0  0  0  0  0  0  0  0  0  0  0  0
   26.3565  -18.0109  -17.7830 C   0  0  1  0  0  0  0  0  0  0  0  0
   25.2292  -17.0880  -17.4806 C   0  0  0  0  0  0  0  0  0  0  0  0
   25.2599  -15.7866  -18.2257 C   0  0  0  0  0  0  0  0  0  0  0  0
   24.2775  -15.6529  -19.2987 C   0  0  0  0  0  0  0  0  0  0  0  0
   24.5810  -15.0327  -20.3566 O   0  0  0  0  0  0  0  0  0  0  0  0
   26.1666  -19.3605  -17.1761 C   0  0  0  0  0  0  0  0  0  0  0  0
   25.5389  -20.2667  -17.7815 O   0  0  0  0  0  0  0  0  0  0  0  0
   22.9887  -16.1732  -19.2443 O   0  0  0  0  0  0  0  0  0  0  0  0
   26.6778  -19.6922  -15.8974 N   0  0  0  0  0  0  0  0  0  0  0  0
   26.2561  -20.9062  -15.1657 C   0  0  1  0  0  0  0  0  0  0  0  0
   27.1164  -20.8985  -13.9563 C   0  0  0  0  0  0  0  0  0  0  0  0
   26.7900  -19.9928  -12.8669 C   0  0  0  0  0  0  0  0  0  0  0  0
   26.7469  -18.6004  -12.9049 C   0  0  0  0  0  0  0  0  0  0  0  0
   26.3870  -18.1980  -11.6768 N   0  0  0  0  0  0  0  0  0  0  0  0
   26.2020  -19.2552  -10.8724 C   0  0  0  0  0  0  0  0  0  0  0  0
   25.8043  -19.3923   -9.5477 C   0  0  0  0  0  0  0  0  0  0  0  0
   25.6685  -20.6581   -8.9925 C   0  0  0  0  0  0  0  0  0  0  0  0
   25.9252  -21.7986   -9.7403 C   0  0  0  0  0  0  0  0  0  0  0  0
   26.3185  -21.6624  -11.0479 C   0  0  0  0  0  0  0  0  0  0  0  0
   26.4493  -20.4013  -11.5908 C   0  0  0  0  0  0  0  0  0  0  0  0
   24.8402  -20.9275  -14.9035 C   0  0  0  0  0  0  0  0  0  0  0  0
   24.1821  -19.8625  -15.1925 O   0  0  0  0  0  0  0  0  0  0  0  0
   24.1945  -22.0590  -14.3721 N   0  0  0  0  0  0  0  0  0  0  0  0
   24.8116  -23.3038  -14.0407 C   0  0  0  0  0  0  0  0  0  0  0  0
   23.8951  -24.3135  -14.7115 C   0  0  0  0  0  0  0  0  0  0  0  0
   22.6059  -23.5976  -14.9035 C   0  0  0  0  0  0  0  0  0  0  0  0
   22.7887  -22.2446  -14.1310 C   0  0  1  0  0  0  0  0  0  0  0  0
   22.3756  -22.4652  -12.7500 C   0  0  0  0  0  0  0  0  0  0  0  0
   23.2625  -22.7838  -11.9103 O   0  0  0  0  0  0  0  0  0  0  0  0
   21.0887  -22.3501  -12.2884 O   0  0  0  0  0  0  0  0  0  0  0  0
  2  1  1  6
  3  2  1  0
  3  4  1  0
  4  5  1  0
  5  9  1  0
  6  5  2  0
  7  8  2  0
  7  2  1  0
 10  7  1  0
 11 10  1  0
 11 12  1  1
 12 13  1  0
 13 21  1  0
 13 14  2  0
 14 15  1  0
 16 15  1  0
 16 17  2  0
 18 17  1  0
 19 18  2  0
 20 21  2  0
 20 19  1  0
 21 16  1  0
 22 23  2  0
 22 11  1  0
 24 22  1  0
 25 24  1  0
 26 27  1  0
 26 25  1  0
 27 28  1  0
 28 24  1  0
 28 29  1  1
 30 29  2  0
 31 29  1  0
M  END
$$$$
