EWP.pdb
     RDKit          3D

 31 33  0  0  1  0  0  0  0  0999 V2000
   29.3940  -21.9293  -16.1040 N   0  0  0  0  0  0  0  0  0  0  0  0
   28.4083  -20.9546  -15.7691 C   0  0  1  0  0  0  0  0  0  0  0  0
   27.6861  -20.5024  -16.9888 C   0  0  0  0  0  0  0  0  0  0  0  0
   28.3681  -19.4111  -17.7595 C   0  0  0  0  0  0  0  0  0  0  0  0
   28.3780  -18.0991  -17.1169 C   0  0  0  0  0  0  0  0  0  0  0  0
   29.3142  -17.7926  -16.3259 O   0  0  0  0  0  0  0  0  0  0  0  0
   27.4808  -21.4233  -14.6986 C   0  0  0  0  0  0  0  0  0  0  0  0
   26.9408  -22.5579  -14.7526 O   0  0  0  0  0  0  0  0  0  0  0  0
   27.4030  -17.1272  -17.3150 O   0  0  0  0  0  0  0  0  0  0  0  0
   27.1605  -20.6242  -13.5737 N   0  0  0  0  0  0  0  0  0  0  0  0
   26.0732  -20.9762  -12.6351 C   0  0  1  0  0  0  0  0  0  0  0  0
   26.4557  -20.2766  -11.3833 C   0  0  0  0  0  0  0  0  0  0  0  0
   27.5833  -20.7772  -10.6143 C   0  0  0  0  0  0  0  0  0  0  0  0
   28.6966  -21.4666  -11.0911 C   0  0  0  0  0  0  0  0  0  0  0  0
   29.4762  -21.7112  -10.0271 N   0  0  0  0  0  0  0  0  0  0  0  0
   28.9176  -21.2159   -8.9128 C   0  0  0  0  0  0  0  0  0  0  0  0
   29.3144  -21.1709   -7.5815 C   0  0  0  0  0  0  0  0  0  0  0  0
   28.5116  -20.5397   -6.6402 C   0  0  0  0  0  0  0  0  0  0  0  0
   27.3102  -19.9489   -7.0055 C   0  0  0  0  0  0  0  0  0  0  0  0
   26.9188  -19.9944   -8.3199 C   0  0  0  0  0  0  0  0  0  0  0  0
   27.7233  -20.6223   -9.2476 C   0  0  0  0  0  0  0  0  0  0  0  0
   24.7712  -20.6356  -13.1476 C   0  0  0  0  0  0  0  0  0  0  0  0
   24.6866  -19.5584  -13.8428 O   0  0  0  0  0  0  0  0  0  0  0  0
   23.6421  -21.4432  -12.9185 N   0  0  0  0  0  0  0  0  0  0  0  0
   23.6217  -22.6815  -12.2070 C   0  0  0  0  0  0  0  0  0  0  0  0
   22.8608  -23.5928  -13.1557 C   0  0  0  0  0  0  0  0  0  0  0  0
   22.0958  -22.6761  -14.0420 C   0  0  0  0  0  0  0  0  0  0  0  0
   22.3040  -21.2549  -13.4115 C   0  0  1  0  0  0  0  0  0  0  0  0
   21.2537  -21.0535  -12.4201 C   0  0  0  0  0  0  0  0  0  0  0  0
   20.0945  -20.7740  -12.8338 O   0  0  0  0  0  0  0  0  0  0  0  0
   21.4283  -21.1474  -11.0625 O   0  0  0  0  0  0  0  0  0  0  0  0
  2  1  1  6
  3  2  1  0
  3  4  1  0
  4  5  1  0
  5  9  1  0
  6  5  2  0
  7  8  2  0
  7  2  1  0
 10  7  1  0
 11 10  1  0
 11 12  1  1
 12 13  1  0
 13 21  1  0
 13 14  2  0
 14 15  1  0
 16 15  1  0
 16 17  2  0
 18 17  1  0
 19 18  2  0
 20 21  2  0
 20 19  1  0
 21 16  1  0
 22 23  2  0
 22 11  1  0
 24 22  1  0
 25 24  1  0
 26 27  1  0
 26 25  1  0
 27 28  1  0
 28 24  1  0
 28 29  1  1
 30 29  2  0
 31 29  1  0
M  END
$$$$
