EWP.pdb
     RDKit          3D

 31 33  0  0  1  0  0  0  0  0999 V2000
   22.3716  -19.2777  -12.7160 N   0  0  0  0  0  0  0  0  0  0  0  0
   23.0969  -20.1494  -11.8511 C   0  0  1  0  0  0  0  0  0  0  0  0
   22.7698  -21.5701  -12.1484 C   0  0  0  0  0  0  0  0  0  0  0  0
   21.3120  -21.9138  -12.0671 C   0  0  0  0  0  0  0  0  0  0  0  0
   20.5507  -21.1897  -11.0520 C   0  0  0  0  0  0  0  0  0  0  0  0
   19.7905  -20.2402  -11.3934 O   0  0  0  0  0  0  0  0  0  0  0  0
   24.5652  -19.8860  -11.8736 C   0  0  0  0  0  0  0  0  0  0  0  0
   25.1531  -19.5527  -12.9343 O   0  0  0  0  0  0  0  0  0  0  0  0
   20.5995  -21.4740   -9.6914 O   0  0  0  0  0  0  0  0  0  0  0  0
   25.3699  -19.9955  -10.7130 N   0  0  0  0  0  0  0  0  0  0  0  0
   26.8426  -19.8680  -10.7548 C   0  0  1  0  0  0  0  0  0  0  0  0
   27.1751  -19.2573   -9.4435 C   0  0  0  0  0  0  0  0  0  0  0  0
   26.7629  -19.9372   -8.2264 C   0  0  0  0  0  0  0  0  0  0  0  0
   25.8159  -20.9518   -8.1002 C   0  0  0  0  0  0  0  0  0  0  0  0
   25.7801  -21.2781   -6.7994 N   0  0  0  0  0  0  0  0  0  0  0  0
   26.6481  -20.5286   -6.1039 C   0  0  0  0  0  0  0  0  0  0  0  0
   27.0174  -20.4858   -4.7647 C   0  0  0  0  0  0  0  0  0  0  0  0
   27.9989  -19.5975   -4.3446 C   0  0  0  0  0  0  0  0  0  0  0  0
   28.6229  -18.7436   -5.2431 C   0  0  0  0  0  0  0  0  0  0  0  0
   28.2574  -18.7860   -6.5651 C   0  0  0  0  0  0  0  0  0  0  0  0
   27.2826  -19.6724   -6.9729 C   0  0  0  0  0  0  0  0  0  0  0  0
   27.4970  -21.1224  -11.0238 C   0  0  0  0  0  0  0  0  0  0  0  0
   26.7385  -22.1433  -11.2056 O   0  0  0  0  0  0  0  0  0  0  0  0
   28.8973  -21.2343  -11.1020 N   0  0  0  0  0  0  0  0  0  0  0  0
   29.8482  -20.3821  -10.4620 C   0  0  0  0  0  0  0  0  0  0  0  0
   30.7962  -20.0361  -11.5982 C   0  0  0  0  0  0  0  0  0  0  0  0
   30.5971  -21.1092  -12.6082 C   0  0  0  0  0  0  0  0  0  0  0  0
   29.6692  -22.1535  -11.8946 C   0  0  1  0  0  0  0  0  0  0  0  0
   30.5273  -23.0894  -11.1777 C   0  0  0  0  0  0  0  0  0  0  0  0
   30.6497  -22.9442   -9.9298 O   0  0  0  0  0  0  0  0  0  0  0  0
   31.2154  -24.1250  -11.7579 O   0  0  0  0  0  0  0  0  0  0  0  0
  2  1  1  6
  3  2  1  0
  3  4  1  0
  4  5  1  0
  5  9  1  0
  6  5  2  0
  7  8  2  0
  7  2  1  0
 10  7  1  0
 11 10  1  0
 11 12  1  1
 12 13  1  0
 13 21  1  0
 13 14  2  0
 14 15  1  0
 16 15  1  0
 16 17  2  0
 18 17  1  0
 19 18  2  0
 20 21  2  0
 20 19  1  0
 21 16  1  0
 22 23  2  0
 22 11  1  0
 24 22  1  0
 25 24  1  0
 26 27  1  0
 26 25  1  0
 27 28  1  0
 28 24  1  0
 28 29  1  1
 30 29  2  0
 31 29  1  0
M  END
$$$$
