EWP.pdb
     RDKit          3D

 31 33  0  0  1  0  0  0  0  0999 V2000
   27.4438  -17.7241  -19.1120 N   0  0  0  0  0  0  0  0  0  0  0  0
   26.4284  -17.5689  -18.1226 C   0  0  1  0  0  0  0  0  0  0  0  0
   25.1024  -17.3592  -18.7643 C   0  0  0  0  0  0  0  0  0  0  0  0
   24.9132  -16.0140  -19.4003 C   0  0  0  0  0  0  0  0  0  0  0  0
   24.9406  -14.8760  -18.4846 C   0  0  0  0  0  0  0  0  0  0  0  0
   26.0414  -14.3289  -18.1930 O   0  0  0  0  0  0  0  0  0  0  0  0
   26.4139  -18.6888  -17.1371 C   0  0  0  0  0  0  0  0  0  0  0  0
   26.0897  -19.8552  -17.4782 O   0  0  0  0  0  0  0  0  0  0  0  0
   23.8097  -14.3287  -17.8880 O   0  0  0  0  0  0  0  0  0  0  0  0
   26.7610  -18.5021  -15.7766 N   0  0  0  0  0  0  0  0  0  0  0  0
   26.5179  -19.5359  -14.7474 C   0  0  1  0  0  0  0  0  0  0  0  0
   27.4120  -19.1331  -13.6333 C   0  0  0  0  0  0  0  0  0  0  0  0
   27.5668  -20.0272  -12.4975 C   0  0  0  0  0  0  0  0  0  0  0  0
   28.4553  -21.0935  -12.3718 C   0  0  0  0  0  0  0  0  0  0  0  0
   28.2508  -21.6165  -11.1534 N   0  0  0  0  0  0  0  0  0  0  0  0
   27.2877  -20.9413  -10.5089 C   0  0  0  0  0  0  0  0  0  0  0  0
   26.7270  -21.0488   -9.2417 C   0  0  0  0  0  0  0  0  0  0  0  0
   25.7426  -20.1547   -8.8413 C   0  0  0  0  0  0  0  0  0  0  0  0
   25.3031  -19.1478   -9.6893 C   0  0  0  0  0  0  0  0  0  0  0  0
   25.8566  -19.0426  -10.9405 C   0  0  0  0  0  0  0  0  0  0  0  0
   26.8345  -19.9345  -11.3285 C   0  0  0  0  0  0  0  0  0  0  0  0
   25.1253  -19.6487  -14.3980 C   0  0  0  0  0  0  0  0  0  0  0  0
   24.4301  -18.5690  -14.4356 O   0  0  0  0  0  0  0  0  0  0  0  0
   24.5393  -20.8785  -14.0464 N   0  0  0  0  0  0  0  0  0  0  0  0
   25.2053  -22.1401  -13.9757 C   0  0  0  0  0  0  0  0  0  0  0  0
   24.2785  -23.0457  -14.7696 C   0  0  0  0  0  0  0  0  0  0  0  0
   22.9629  -22.3526  -14.7645 C   0  0  0  0  0  0  0  0  0  0  0  0
   23.1543  -21.1531  -13.7719 C   0  0  1  0  0  0  0  0  0  0  0  0
   22.8250  -21.6303  -12.4339 C   0  0  0  0  0  0  0  0  0  0  0  0
   21.6092  -21.6522  -12.0954 O   0  0  0  0  0  0  0  0  0  0  0  0
   23.7405  -22.0630  -11.5081 O   0  0  0  0  0  0  0  0  0  0  0  0
  2  1  1  6
  3  2  1  0
  3  4  1  0
  4  5  1  0
  5  9  1  0
  6  5  2  0
  7  8  2  0
  7  2  1  0
 10  7  1  0
 11 10  1  0
 11 12  1  1
 12 13  1  0
 13 21  1  0
 13 14  2  0
 14 15  1  0
 16 15  1  0
 16 17  2  0
 18 17  1  0
 19 18  2  0
 20 21  2  0
 20 19  1  0
 21 16  1  0
 22 23  2  0
 22 11  1  0
 24 22  1  0
 25 24  1  0
 26 27  1  0
 26 25  1  0
 27 28  1  0
 28 24  1  0
 28 29  1  1
 30 29  2  0
 31 29  1  0
M  END
$$$$
