EWP.pdb
     RDKit          3D

 31 33  0  0  1  0  0  0  0  0999 V2000
   29.2451  -21.6831  -16.9720 N   0  0  0  0  0  0  0  0  0  0  0  0
   28.3538  -20.7179  -16.4172 C   0  0  1  0  0  0  0  0  0  0  0  0
   27.5034  -20.1203  -17.4820 C   0  0  0  0  0  0  0  0  0  0  0  0
   28.1054  -20.1363  -18.8557 C   0  0  0  0  0  0  0  0  0  0  0  0
   28.4626  -18.8289  -19.4011 C   0  0  0  0  0  0  0  0  0  0  0  0
   29.6671  -18.4483  -19.3865 O   0  0  0  0  0  0  0  0  0  0  0  0
   27.5498  -21.2652  -15.2859 C   0  0  0  0  0  0  0  0  0  0  0  0
   27.0028  -22.3953  -15.3597 O   0  0  0  0  0  0  0  0  0  0  0  0
   27.5477  -17.9393  -19.9545 O   0  0  0  0  0  0  0  0  0  0  0  0
   27.3603  -20.5493  -14.0785 N   0  0  0  0  0  0  0  0  0  0  0  0
   26.3134  -20.9111  -13.0985 C   0  0  1  0  0  0  0  0  0  0  0  0
   26.6768  -20.1214  -11.8955 C   0  0  0  0  0  0  0  0  0  0  0  0
   27.7768  -20.5768  -11.0612 C   0  0  0  0  0  0  0  0  0  0  0  0
   28.9567  -21.1927  -11.4743 C   0  0  0  0  0  0  0  0  0  0  0  0
   29.6759  -21.4184  -10.3645 N   0  0  0  0  0  0  0  0  0  0  0  0
   29.0169  -20.9805   -9.2815 C   0  0  0  0  0  0  0  0  0  0  0  0
   29.3204  -20.9443   -7.9257 C   0  0  0  0  0  0  0  0  0  0  0  0
   28.4220  -20.3802   -7.0292 C   0  0  0  0  0  0  0  0  0  0  0  0
   27.2163  -19.8482   -7.4641 C   0  0  0  0  0  0  0  0  0  0  0  0
   26.9170  -19.8848   -8.8028 C   0  0  0  0  0  0  0  0  0  0  0  0
   27.8161  -20.4459   -9.6854 C   0  0  0  0  0  0  0  0  0  0  0  0
   24.9841  -20.6762  -13.6003 C   0  0  0  0  0  0  0  0  0  0  0  0
   24.8319  -19.6724  -14.3877 O   0  0  0  0  0  0  0  0  0  0  0  0
   23.8999  -21.5076  -13.2648 N   0  0  0  0  0  0  0  0  0  0  0  0
   23.9603  -22.6915  -12.4679 C   0  0  0  0  0  0  0  0  0  0  0  0
   23.1985  -23.6970  -13.3153 C   0  0  0  0  0  0  0  0  0  0  0  0
   22.3600  -22.8762  -14.2287 C   0  0  0  0  0  0  0  0  0  0  0  0
   22.5357  -21.4065  -13.7094 C   0  0  1  0  0  0  0  0  0  0  0  0
   21.5205  -21.1744  -12.6886 C   0  0  0  0  0  0  0  0  0  0  0  0
   21.8664  -21.2643  -11.4781 O   0  0  0  0  0  0  0  0  0  0  0  0
   20.2092  -20.8611  -12.9435 O   0  0  0  0  0  0  0  0  0  0  0  0
  2  1  1  6
  3  2  1  0
  3  4  1  0
  4  5  1  0
  5  9  1  0
  6  5  2  0
  7  8  2  0
  7  2  1  0
 10  7  1  0
 11 10  1  0
 11 12  1  1
 12 13  1  0
 13 21  1  0
 13 14  2  0
 14 15  1  0
 16 15  1  0
 16 17  2  0
 18 17  1  0
 19 18  2  0
 20 21  2  0
 20 19  1  0
 21 16  1  0
 22 23  2  0
 22 11  1  0
 24 22  1  0
 25 24  1  0
 26 27  1  0
 26 25  1  0
 27 28  1  0
 28 24  1  0
 28 29  1  1
 30 29  2  0
 31 29  1  0
M  END
$$$$
