EWP.pdb
     RDKit          3D

 31 33  0  0  1  0  0  0  0  0999 V2000
   21.8280  -15.9764  -16.1004 N   0  0  0  0  0  0  0  0  0  0  0  0
   22.2009  -17.3333  -16.3325 C   0  0  1  0  0  0  0  0  0  0  0  0
   22.3907  -17.5807  -17.7874 C   0  0  0  0  0  0  0  0  0  0  0  0
   21.1749  -17.3435  -18.6332 C   0  0  0  0  0  0  0  0  0  0  0  0
   19.9412  -17.9567  -18.1471 C   0  0  0  0  0  0  0  0  0  0  0  0
   18.8912  -17.2618  -18.0431 O   0  0  0  0  0  0  0  0  0  0  0  0
   23.3848  -17.7475  -15.5248 C   0  0  0  0  0  0  0  0  0  0  0  0
   24.5415  -17.3403  -15.8045 O   0  0  0  0  0  0  0  0  0  0  0  0
   19.8286  -19.2926  -17.7767 O   0  0  0  0  0  0  0  0  0  0  0  0
   23.2726  -18.6136  -14.4096 N   0  0  0  0  0  0  0  0  0  0  0  0
   24.4518  -19.2217  -13.7564 C   0  0  1  0  0  0  0  0  0  0  0  0
   23.8806  -19.8863  -12.5586 C   0  0  0  0  0  0  0  0  0  0  0  0
   24.7617  -20.6512  -11.6914 C   0  0  0  0  0  0  0  0  0  0  0  0
   25.0316  -22.0172  -11.7480 C   0  0  0  0  0  0  0  0  0  0  0  0
   25.9085  -22.2720  -10.7651 N   0  0  0  0  0  0  0  0  0  0  0  0
   26.2037  -21.1472  -10.0969 C   0  0  0  0  0  0  0  0  0  0  0  0
   27.0571  -20.8582   -9.0387 C   0  0  0  0  0  0  0  0  0  0  0  0
   27.1736  -19.5528   -8.5789 C   0  0  0  0  0  0  0  0  0  0  0  0
   26.4475  -18.5225   -9.1595 C   0  0  0  0  0  0  0  0  0  0  0  0
   25.6046  -18.8086  -10.2039 C   0  0  0  0  0  0  0  0  0  0  0  0
   25.4967  -20.1078  -10.6542 C   0  0  0  0  0  0  0  0  0  0  0  0
   25.1849  -20.0902  -14.6411 C   0  0  0  0  0  0  0  0  0  0  0  0
   24.5163  -20.6573  -15.5803 O   0  0  0  0  0  0  0  0  0  0  0  0
   26.5689  -20.3028  -14.5036 N   0  0  0  0  0  0  0  0  0  0  0  0
   27.4240  -19.6907  -13.5371 C   0  0  0  0  0  0  0  0  0  0  0  0
   28.5803  -19.1945  -14.3892 C   0  0  0  0  0  0  0  0  0  0  0  0
   28.5212  -20.0078  -15.6327 C   0  0  0  0  0  0  0  0  0  0  0  0
   27.4301  -21.0960  -15.3392 C   0  0  1  0  0  0  0  0  0  0  0  0
   28.0968  -22.2328  -14.7152 C   0  0  0  0  0  0  0  0  0  0  0  0
   28.9079  -22.9007  -15.4145 O   0  0  0  0  0  0  0  0  0  0  0  0
   27.9116  -22.6345  -13.4164 O   0  0  0  0  0  0  0  0  0  0  0  0
  2  1  1  6
  3  2  1  0
  3  4  1  0
  4  5  1  0
  5  9  1  0
  6  5  2  0
  7  8  2  0
  7  2  1  0
 10  7  1  0
 11 10  1  0
 11 12  1  1
 12 13  1  0
 13 21  1  0
 13 14  2  0
 14 15  1  0
 16 15  1  0
 16 17  2  0
 18 17  1  0
 19 18  2  0
 20 21  2  0
 20 19  1  0
 21 16  1  0
 22 23  2  0
 22 11  1  0
 24 22  1  0
 25 24  1  0
 26 27  1  0
 26 25  1  0
 27 28  1  0
 28 24  1  0
 28 29  1  1
 30 29  2  0
 31 29  1  0
M  END
$$$$
