EWP.pdb
     RDKit          3D

 31 33  0  0  1  0  0  0  0  0999 V2000
   28.0135  -17.1853  -15.0853 N   0  0  0  0  0  0  0  0  0  0  0  0
   27.9253  -18.5180  -15.5852 C   0  0  1  0  0  0  0  0  0  0  0  0
   29.1095  -18.8391  -16.4270 C   0  0  0  0  0  0  0  0  0  0  0  0
   29.4847  -17.7801  -17.4209 C   0  0  0  0  0  0  0  0  0  0  0  0
   28.4453  -17.4249  -18.3840 C   0  0  0  0  0  0  0  0  0  0  0  0
   27.9931  -16.2457  -18.4161 O   0  0  0  0  0  0  0  0  0  0  0  0
   27.7063  -19.5217  -14.5033 C   0  0  0  0  0  0  0  0  0  0  0  0
   27.7866  -20.7560  -14.7310 O   0  0  0  0  0  0  0  0  0  0  0  0
   27.8954  -18.3150  -19.3004 O   0  0  0  0  0  0  0  0  0  0  0  0
   27.3990  -19.1435  -13.1733 N   0  0  0  0  0  0  0  0  0  0  0  0
   26.6628  -20.0306  -12.2470 C   0  0  1  0  0  0  0  0  0  0  0  0
   27.4701  -19.9794  -11.0027 C   0  0  0  0  0  0  0  0  0  0  0  0
   26.8900  -20.4793   -9.7669 C   0  0  0  0  0  0  0  0  0  0  0  0
   26.1172  -21.6262   -9.5953 C   0  0  0  0  0  0  0  0  0  0  0  0
   25.8198  -21.6917   -8.2888 N   0  0  0  0  0  0  0  0  0  0  0  0
   26.3603  -20.6546   -7.6323 C   0  0  0  0  0  0  0  0  0  0  0  0
   26.3815  -20.2734   -6.2959 C   0  0  0  0  0  0  0  0  0  0  0  0
   27.0750  -19.1332   -5.9113 C   0  0  0  0  0  0  0  0  0  0  0  0
   27.7523  -18.3596   -6.8434 C   0  0  0  0  0  0  0  0  0  0  0  0
   27.7305  -18.7361   -8.1627 C   0  0  0  0  0  0  0  0  0  0  0  0
   27.0401  -19.8707   -8.5347 C   0  0  0  0  0  0  0  0  0  0  0  0
   25.2841  -19.6437  -12.0927 C   0  0  0  0  0  0  0  0  0  0  0  0
   25.0402  -18.3839  -12.0299 O   0  0  0  0  0  0  0  0  0  0  0  0
   24.2443  -20.5893  -12.0286 N   0  0  0  0  0  0  0  0  0  0  0  0
   24.3890  -22.0082  -12.1073 C   0  0  0  0  0  0  0  0  0  0  0  0
   23.3453  -22.3877  -13.1446 C   0  0  0  0  0  0  0  0  0  0  0  0
   22.3870  -21.2508  -13.1627 C   0  0  0  0  0  0  0  0  0  0  0  0
   22.8284  -20.3452  -11.9604 C   0  0  1  0  0  0  0  0  0  0  0  0
   22.1300  -20.8188  -10.7711 C   0  0  0  0  0  0  0  0  0  0  0  0
   20.9288  -20.4662  -10.6099 O   0  0  0  0  0  0  0  0  0  0  0  0
   22.6802  -21.6261   -9.8078 O   0  0  0  0  0  0  0  0  0  0  0  0
  2  1  1  1
  3  2  1  0
  3  4  1  0
  4  5  1  0
  5  9  1  0
  6  5  2  0
  7  8  2  0
  7  2  1  0
 10  7  1  0
 11 10  1  0
 11 12  1  1
 12 13  1  0
 13 21  1  0
 13 14  2  0
 14 15  1  0
 16 15  1  0
 16 17  2  0
 18 17  1  0
 19 18  2  0
 20 21  2  0
 20 19  1  0
 21 16  1  0
 22 23  2  0
 22 11  1  0
 24 22  1  0
 25 24  1  0
 26 27  1  0
 26 25  1  0
 27 28  1  0
 28 24  1  0
 28 29  1  1
 30 29  2  0
 31 29  1  0
M  END
$$$$
