GKH.pdb
     RDKit          3D

 24 24  0  0  1  0  0  0  0  0999 V2000
    6.5544  -17.5900   19.2909 N   0  0  0  0  0  0  0  0  0  0  0  0
    6.3809  -17.3233   20.6891 C   0  0  0  0  0  0  0  0  0  0  0  0
    7.5798  -16.7177   21.3092 C   0  0  0  0  0  0  0  0  0  0  0  0
    8.6617  -16.5256   20.6568 O   0  0  0  0  0  0  0  0  0  0  0  0
    7.5108  -16.3444   22.6691 N   0  0  0  0  0  0  0  0  0  0  0  0
    8.6801  -15.8045   23.4082 C   0  0  1  0  0  0  0  0  0  0  0  0
    8.0849  -15.2153   24.6397 C   0  0  0  0  0  0  0  0  0  0  0  0
    7.4659  -13.8763   24.5333 C   0  0  0  0  0  0  0  0  0  0  0  0
    6.8879  -13.3948   25.8627 C   0  0  0  0  0  0  0  0  0  0  0  0
    6.3316  -12.0231   25.6268 C   0  0  0  0  0  0  0  0  0  0  0  0
    5.6955  -11.4512   26.7836 N   0  0  0  0  0  0  0  0  0  0  0  0
    9.5192  -16.9651   23.7315 C   0  0  0  0  0  0  0  0  0  0  0  0
    9.0210  -18.1259   23.5762 O   0  0  0  0  0  0  0  0  0  0  0  0
   10.8537  -16.9462   24.2032 N   0  0  0  0  0  0  0  0  0  0  0  0
   11.9502  -17.4834   23.3547 C   0  0  1  0  0  0  0  0  0  0  0  0
   11.9034  -16.8505   22.0105 C   0  0  0  0  0  0  0  0  0  0  0  0
   11.7830  -17.8427   20.9222 C   0  0  0  0  0  0  0  0  0  0  0  0
   10.9772  -18.9427   20.7554 C   0  0  0  0  0  0  0  0  0  0  0  0
   11.1726  -19.5150   19.5307 N   0  0  0  0  0  0  0  0  0  0  0  0
   12.1024  -18.7635   18.9378 C   0  0  0  0  0  0  0  0  0  0  0  0
   12.4860  -17.7622   19.7363 N   0  0  0  0  0  0  0  0  0  0  0  0
   13.2352  -17.1563   24.0720 C   0  0  0  0  0  0  0  0  0  0  0  0
   13.3338  -15.9750   24.8462 O   0  0  0  0  0  0  0  0  0  0  0  0
   14.2719  -17.8382   24.0623 O   0  0  0  0  0  0  0  0  0  0  0  0
  1  2  1  0
  3  2  1  0
  3  4  2  0
  5  3  1  0
  6 12  1  0
  6  5  1  0
  6  7  1  1
  8  7  1  0
  9  8  1  0
 10  9  1  0
 11 10  1  0
 12 14  1  0
 13 12  2  0
 14 15  1  0
 15 16  1  6
 17 16  1  0
 17 18  2  0
 19 18  1  0
 20 19  1  0
 21 20  2  0
 21 17  1  0
 22 15  1  0
 23 22  1  0
 24 22  2  0
M  END
$$$$
