GKH.pdb
     RDKit          3D

 24 24  0  0  1  0  0  0  0  0999 V2000
    4.9236  -20.0975   21.5607 N   0  0  0  0  0  0  0  0  0  0  0  0
    5.0156  -18.9516   22.4177 C   0  0  0  0  0  0  0  0  0  0  0  0
    6.3466  -18.3074   22.3709 C   0  0  0  0  0  0  0  0  0  0  0  0
    7.4112  -18.9605   22.1004 O   0  0  0  0  0  0  0  0  0  0  0  0
    6.4272  -16.9230   22.6362 N   0  0  0  0  0  0  0  0  0  0  0  0
    7.7207  -16.1960   22.6939 C   0  0  1  0  0  0  0  0  0  0  0  0
    7.3448  -14.7756   22.4500 C   0  0  0  0  0  0  0  0  0  0  0  0
    6.9516  -14.3930   21.0765 C   0  0  0  0  0  0  0  0  0  0  0  0
    7.9380  -13.4159   20.4394 C   0  0  0  0  0  0  0  0  0  0  0  0
    7.4201  -13.1032   19.0681 C   0  0  0  0  0  0  0  0  0  0  0  0
    8.2385  -12.1701   18.3408 N   0  0  0  0  0  0  0  0  0  0  0  0
    8.2225  -16.3811   24.0612 C   0  0  0  0  0  0  0  0  0  0  0  0
    7.5171  -15.9375   25.0231 O   0  0  0  0  0  0  0  0  0  0  0  0
    9.4274  -17.0158   24.4474 N   0  0  0  0  0  0  0  0  0  0  0  0
    9.7902  -17.1106   25.8863 C   0  0  1  0  0  0  0  0  0  0  0  0
    9.8926  -18.5383   26.2871 C   0  0  0  0  0  0  0  0  0  0  0  0
    8.5778  -19.2116   26.3220 C   0  0  0  0  0  0  0  0  0  0  0  0
    7.2933  -18.7332   26.4143 C   0  0  0  0  0  0  0  0  0  0  0  0
    6.3827  -19.7475   26.3268 N   0  0  0  0  0  0  0  0  0  0  0  0
    7.1085  -20.8573   26.1779 C   0  0  0  0  0  0  0  0  0  0  0  0
    8.4152  -20.5746   26.1705 N   0  0  0  0  0  0  0  0  0  0  0  0
   11.1126  -16.4020   26.0337 C   0  0  0  0  0  0  0  0  0  0  0  0
   11.7145  -15.7840   24.9110 O   0  0  0  0  0  0  0  0  0  0  0  0
   11.7701  -16.2913   27.0803 O   0  0  0  0  0  0  0  0  0  0  0  0
  1  2  1  0
  3  2  1  0
  3  4  2  0
  5  3  1  0
  6 12  1  0
  6  5  1  0
  6  7  1  1
  8  7  1  0
  9  8  1  0
 10  9  1  0
 11 10  1  0
 12 14  1  0
 13 12  2  0
 14 15  1  0
 15 16  1  6
 17 16  1  0
 17 18  2  0
 19 18  1  0
 20 19  1  0
 21 20  2  0
 21 17  1  0
 22 15  1  0
 23 22  1  0
 24 22  2  0
M  END
$$$$
