GKH.pdb
     RDKit          3D

 24 24  0  0  1  0  0  0  0  0999 V2000
   10.7608  -20.1371   17.2253 N   0  0  0  0  0  0  0  0  0  0  0  0
   10.2451  -20.1739   18.5628 C   0  0  0  0  0  0  0  0  0  0  0  0
   10.4334  -18.8960   19.2841 C   0  0  0  0  0  0  0  0  0  0  0  0
   11.5732  -18.3253   19.3742 O   0  0  0  0  0  0  0  0  0  0  0  0
    9.3057  -18.2988   19.8883 N   0  0  0  0  0  0  0  0  0  0  0  0
    9.3676  -16.9757   20.5596 C   0  0  1  0  0  0  0  0  0  0  0  0
    7.9384  -16.5931   20.7304 C   0  0  0  0  0  0  0  0  0  0  0  0
    7.6412  -15.2028   21.1380 C   0  0  0  0  0  0  0  0  0  0  0  0
    8.1138  -14.1800   20.1066 C   0  0  0  0  0  0  0  0  0  0  0  0
    7.5963  -12.8439   20.5463 C   0  0  0  0  0  0  0  0  0  0  0  0
    7.9356  -11.7701   19.6510 N   0  0  0  0  0  0  0  0  0  0  0  0
   10.0077  -17.2164   21.8588 C   0  0  0  0  0  0  0  0  0  0  0  0
    9.6877  -18.2693   22.4980 O   0  0  0  0  0  0  0  0  0  0  0  0
   10.9679  -16.3973   22.4998 N   0  0  0  0  0  0  0  0  0  0  0  0
   11.5438  -16.8099   23.8071 C   0  0  1  0  0  0  0  0  0  0  0  0
   12.7426  -15.9855   24.1122 C   0  0  0  0  0  0  0  0  0  0  0  0
   13.8950  -16.3229   23.2512 C   0  0  0  0  0  0  0  0  0  0  0  0
   14.0683  -17.2554   22.2574 C   0  0  0  0  0  0  0  0  0  0  0  0
   15.3014  -17.1382   21.6819 N   0  0  0  0  0  0  0  0  0  0  0  0
   15.8916  -16.1272   22.3223 C   0  0  0  0  0  0  0  0  0  0  0  0
   15.0841  -15.6207   23.2596 N   0  0  0  0  0  0  0  0  0  0  0  0
   10.4569  -16.5994   24.8303 C   0  0  0  0  0  0  0  0  0  0  0  0
   10.6173  -17.0951   26.1468 O   0  0  0  0  0  0  0  0  0  0  0  0
    9.3806  -16.0110   24.6430 O   0  0  0  0  0  0  0  0  0  0  0  0
  1  2  1  0
  3  2  1  0
  3  4  2  0
  5  3  1  0
  6 12  1  0
  6  5  1  0
  6  7  1  1
  8  7  1  0
  9  8  1  0
 10  9  1  0
 11 10  1  0
 12 14  1  0
 13 12  2  0
 14 15  1  0
 15 16  1  1
 17 16  1  0
 17 18  2  0
 19 18  1  0
 20 19  1  0
 21 20  2  0
 21 17  1  0
 22 15  1  0
 23 22  1  0
 24 22  2  0
M  END
$$$$
