GKH.pdb
     RDKit          3D

 24 24  0  0  1  0  0  0  0  0999 V2000
    6.4886  -20.0224   20.5094 N   0  0  0  0  0  0  0  0  0  0  0  0
    6.2541  -19.0471   21.5340 C   0  0  0  0  0  0  0  0  0  0  0  0
    7.2400  -17.9443   21.5107 C   0  0  0  0  0  0  0  0  0  0  0  0
    8.4924  -18.1522   21.3650 O   0  0  0  0  0  0  0  0  0  0  0  0
    6.7656  -16.6224   21.6556 N   0  0  0  0  0  0  0  0  0  0  0  0
    7.6772  -15.4551   21.7629 C   0  0  1  0  0  0  0  0  0  0  0  0
    6.8182  -14.2946   21.3978 C   0  0  0  0  0  0  0  0  0  0  0  0
    7.3655  -13.3050   20.4446 C   0  0  0  0  0  0  0  0  0  0  0  0
    7.7890  -13.9426   19.1226 C   0  0  0  0  0  0  0  0  0  0  0  0
    8.3681  -12.8501   18.2756 C   0  0  0  0  0  0  0  0  0  0  0  0
    8.8179  -13.2974   16.9844 N   0  0  0  0  0  0  0  0  0  0  0  0
    8.0791  -15.3904   23.1735 C   0  0  0  0  0  0  0  0  0  0  0  0
    7.2507  -15.7940   24.0513 O   0  0  0  0  0  0  0  0  0  0  0  0
    9.3135  -14.9248   23.6867 N   0  0  0  0  0  0  0  0  0  0  0  0
    9.6067  -15.0421   25.1397 C   0  0  1  0  0  0  0  0  0  0  0  0
    8.3553  -15.3425   25.8836 C   0  0  0  0  0  0  0  0  0  0  0  0
    7.5586  -14.1299   26.1631 C   0  0  0  0  0  0  0  0  0  0  0  0
    7.7024  -12.8179   25.7822 C   0  0  0  0  0  0  0  0  0  0  0  0
    6.6571  -12.0590   26.2261 N   0  0  0  0  0  0  0  0  0  0  0  0
    5.8632  -12.9071   26.8827 C   0  0  0  0  0  0  0  0  0  0  0  0
    6.3688  -14.1445   26.8640 N   0  0  0  0  0  0  0  0  0  0  0  0
   10.6097  -16.1592   25.2771 C   0  0  0  0  0  0  0  0  0  0  0  0
   11.4289  -16.2384   26.4292 O   0  0  0  0  0  0  0  0  0  0  0  0
   10.8116  -17.0656   24.4542 O   0  0  0  0  0  0  0  0  0  0  0  0
  1  2  1  0
  3  2  1  0
  3  4  2  0
  5  3  1  0
  6 12  1  0
  6  5  1  0
  6  7  1  1
  8  7  1  0
  9  8  1  0
 10  9  1  0
 11 10  1  0
 12 14  1  0
 13 12  2  0
 14 15  1  0
 15 16  1  1
 17 16  1  0
 17 18  2  0
 19 18  1  0
 20 19  1  0
 21 20  2  0
 21 17  1  0
 22 15  1  0
 23 22  1  0
 24 22  2  0
M  END
$$$$
