GKH.pdb
     RDKit          3D

 24 24  0  0  1  0  0  0  0  0999 V2000
    7.7655  -16.8874   15.6144 N   0  0  0  0  0  0  0  0  0  0  0  0
    8.4296  -17.5104   16.7221 C   0  0  0  0  0  0  0  0  0  0  0  0
    7.7300  -17.2891   18.0068 C   0  0  0  0  0  0  0  0  0  0  0  0
    7.2707  -16.1456   18.3449 O   0  0  0  0  0  0  0  0  0  0  0  0
    7.5722  -18.3886   18.8783 N   0  0  0  0  0  0  0  0  0  0  0  0
    6.8283  -18.2902   20.1597 C   0  0  1  0  0  0  0  0  0  0  0  0
    6.6761  -19.7062   20.5956 C   0  0  0  0  0  0  0  0  0  0  0  0
    5.9743  -19.9626   21.8720 C   0  0  0  0  0  0  0  0  0  0  0  0
    5.9119  -21.4503   22.2133 C   0  0  0  0  0  0  0  0  0  0  0  0
    5.0612  -21.5823   23.4403 C   0  0  0  0  0  0  0  0  0  0  0  0
    4.9443  -22.9339   23.9191 N   0  0  0  0  0  0  0  0  0  0  0  0
    7.7049  -17.5484   21.0746 C   0  0  0  0  0  0  0  0  0  0  0  0
    8.9433  -17.8414   21.0865 O   0  0  0  0  0  0  0  0  0  0  0  0
    7.3272  -16.5150   21.9652 N   0  0  0  0  0  0  0  0  0  0  0  0
    8.3580  -15.8277   22.7874 C   0  0  1  0  0  0  0  0  0  0  0  0
    8.1558  -14.3565   22.7222 C   0  0  0  0  0  0  0  0  0  0  0  0
    8.5074  -13.7953   21.4014 C   0  0  0  0  0  0  0  0  0  0  0  0
    9.5084  -14.0869   20.5067 C   0  0  0  0  0  0  0  0  0  0  0  0
    9.3804  -13.3463   19.3663 N   0  0  0  0  0  0  0  0  0  0  0  0
    8.2942  -12.5950   19.5571 C   0  0  0  0  0  0  0  0  0  0  0  0
    7.7518  -12.8372   20.7547 N   0  0  0  0  0  0  0  0  0  0  0  0
    8.1873  -16.3444   24.1933 C   0  0  0  0  0  0  0  0  0  0  0  0
    9.1442  -16.0252   25.1867 O   0  0  0  0  0  0  0  0  0  0  0  0
    7.2560  -17.0548   24.6030 O   0  0  0  0  0  0  0  0  0  0  0  0
  1  2  1  0
  3  2  1  0
  3  4  2  0
  5  3  1  0
  6 12  1  0
  6  5  1  0
  6  7  1  1
  8  7  1  0
  9  8  1  0
 10  9  1  0
 11 10  1  0
 12 14  1  0
 13 12  2  0
 14 15  1  0
 15 16  1  1
 17 16  1  0
 17 18  2  0
 19 18  1  0
 20 19  1  0
 21 20  2  0
 21 17  1  0
 22 15  1  0
 23 22  1  0
 24 22  2  0
M  END
$$$$
