GKH.pdb
     RDKit          3D

 24 24  0  0  1  0  0  0  0  0999 V2000
    9.9985  -17.3310   18.5672 N   0  0  0  0  0  0  0  0  0  0  0  0
    9.5672  -18.1788   19.6403 C   0  0  0  0  0  0  0  0  0  0  0  0
    8.6258  -17.5033   20.5602 C   0  0  0  0  0  0  0  0  0  0  0  0
    8.5042  -16.2318   20.5988 O   0  0  0  0  0  0  0  0  0  0  0  0
    7.8419  -18.3044   21.4188 N   0  0  0  0  0  0  0  0  0  0  0  0
    6.8906  -17.7260   22.4013 C   0  0  1  0  0  0  0  0  0  0  0  0
    5.9428  -18.8402   22.6815 C   0  0  0  0  0  0  0  0  0  0  0  0
    4.8390  -19.0634   21.7228 C   0  0  0  0  0  0  0  0  0  0  0  0
    3.5882  -19.6257   22.3957 C   0  0  0  0  0  0  0  0  0  0  0  0
    2.5643  -19.8249   21.3194 C   0  0  0  0  0  0  0  0  0  0  0  0
    1.3025  -20.3150   21.8064 N   0  0  0  0  0  0  0  0  0  0  0  0
    7.6903  -17.4030   23.5895 C   0  0  0  0  0  0  0  0  0  0  0  0
    8.6179  -18.2077   23.9238 O   0  0  0  0  0  0  0  0  0  0  0  0
    7.5522  -16.2700   24.4268 N   0  0  0  0  0  0  0  0  0  0  0  0
    8.4402  -16.1051   25.6079 C   0  0  1  0  0  0  0  0  0  0  0  0
    8.2898  -14.7348   26.1640 C   0  0  0  0  0  0  0  0  0  0  0  0
    8.9586  -14.5789   27.4723 C   0  0  0  0  0  0  0  0  0  0  0  0
    8.4904  -14.6167   28.7633 C   0  0  0  0  0  0  0  0  0  0  0  0
    9.5126  -14.4986   29.6613 N   0  0  0  0  0  0  0  0  0  0  0  0
   10.6175  -14.3891   28.9212 C   0  0  0  0  0  0  0  0  0  0  0  0
   10.3241  -14.4334   27.6177 N   0  0  0  0  0  0  0  0  0  0  0  0
    8.0131  -17.1528   26.6042 C   0  0  0  0  0  0  0  0  0  0  0  0
    8.9758  -17.7736   27.4364 O   0  0  0  0  0  0  0  0  0  0  0  0
    6.8543  -17.5558   26.7898 O   0  0  0  0  0  0  0  0  0  0  0  0
  1  2  1  0
  3  2  1  0
  3  4  2  0
  5  3  1  0
  6 12  1  0
  6  5  1  0
  6  7  1  1
  8  7  1  0
  9  8  1  0
 10  9  1  0
 11 10  1  0
 12 14  1  0
 13 12  2  0
 14 15  1  0
 15 16  1  1
 17 16  1  0
 17 18  2  0
 19 18  1  0
 20 19  1  0
 21 20  2  0
 21 17  1  0
 22 15  1  0
 23 22  1  0
 24 22  2  0
M  END
$$$$
