GKH.pdb
     RDKit          3D

 24 24  0  0  1  0  0  0  0  0999 V2000
    8.9933  -18.7852   18.6637 N   0  0  0  0  0  0  0  0  0  0  0  0
    9.1428  -19.4549   19.9228 C   0  0  0  0  0  0  0  0  0  0  0  0
    8.1876  -18.9725   20.9445 C   0  0  0  0  0  0  0  0  0  0  0  0
    7.4756  -17.9255   20.7719 O   0  0  0  0  0  0  0  0  0  0  0  0
    8.0701  -19.7046   22.1460 N   0  0  0  0  0  0  0  0  0  0  0  0
    7.1777  -19.2802   23.2545 C   0  0  1  0  0  0  0  0  0  0  0  0
    6.7115  -20.5629   23.8506 C   0  0  0  0  0  0  0  0  0  0  0  0
    5.2530  -20.7904   23.9421 C   0  0  0  0  0  0  0  0  0  0  0  0
    4.6113  -21.0115   22.5736 C   0  0  0  0  0  0  0  0  0  0  0  0
    3.1431  -21.2045   22.8048 C   0  0  0  0  0  0  0  0  0  0  0  0
    2.3695  -21.2553   21.5929 N   0  0  0  0  0  0  0  0  0  0  0  0
    8.0308  -18.5417   24.1938 C   0  0  0  0  0  0  0  0  0  0  0  0
    9.2561  -18.8752   24.2790 O   0  0  0  0  0  0  0  0  0  0  0  0
    7.6435  -17.4709   25.0347 N   0  0  0  0  0  0  0  0  0  0  0  0
    8.6390  -16.8384   25.9402 C   0  0  1  0  0  0  0  0  0  0  0  0
    8.0557  -15.6179   26.5564 C   0  0  0  0  0  0  0  0  0  0  0  0
    8.9597  -14.9971   27.5467 C   0  0  0  0  0  0  0  0  0  0  0  0
   10.2277  -15.3129   27.9706 C   0  0  0  0  0  0  0  0  0  0  0  0
   10.6950  -14.3863   28.8586 N   0  0  0  0  0  0  0  0  0  0  0  0
    9.7113  -13.4931   28.9822 C   0  0  0  0  0  0  0  0  0  0  0  0
    8.6669  -13.8256   28.2166 N   0  0  0  0  0  0  0  0  0  0  0  0
    8.9757  -17.8737   26.9831 C   0  0  0  0  0  0  0  0  0  0  0  0
   10.2947  -17.9670   27.4891 O   0  0  0  0  0  0  0  0  0  0  0  0
    8.1894  -18.6975   27.4759 O   0  0  0  0  0  0  0  0  0  0  0  0
  1  2  1  0
  3  2  1  0
  3  4  2  0
  5  3  1  0
  6 12  1  0
  6  5  1  0
  6  7  1  1
  8  7  1  0
  9  8  1  0
 10  9  1  0
 11 10  1  0
 12 14  1  0
 13 12  2  0
 14 15  1  0
 15 16  1  1
 17 16  1  0
 17 18  2  0
 19 18  1  0
 20 19  1  0
 21 20  2  0
 21 17  1  0
 22 15  1  0
 23 22  1  0
 24 22  2  0
M  END
$$$$
