GKH.pdb
     RDKit          3D

 24 24  0  0  1  0  0  0  0  0999 V2000
   11.6828  -13.3831   18.8651 N   0  0  0  0  0  0  0  0  0  0  0  0
   11.9404  -14.2436   19.9828 C   0  0  0  0  0  0  0  0  0  0  0  0
   10.7037  -14.8031   20.5713 C   0  0  0  0  0  0  0  0  0  0  0  0
    9.5425  -14.3766   20.2509 O   0  0  0  0  0  0  0  0  0  0  0  0
   10.8270  -15.8435   21.5177 N   0  0  0  0  0  0  0  0  0  0  0  0
    9.6490  -16.5254   22.1114 C   0  0  1  0  0  0  0  0  0  0  0  0
    9.8989  -17.9694   21.8458 C   0  0  0  0  0  0  0  0  0  0  0  0
    8.9398  -18.9484   22.4018 C   0  0  0  0  0  0  0  0  0  0  0  0
    9.2681  -20.3826   21.9912 C   0  0  0  0  0  0  0  0  0  0  0  0
    8.1499  -21.2473   22.4897 C   0  0  0  0  0  0  0  0  0  0  0  0
    8.3635  -22.6525   22.2674 N   0  0  0  0  0  0  0  0  0  0  0  0
    9.7032  -16.2369   23.5499 C   0  0  0  0  0  0  0  0  0  0  0  0
   10.8449  -16.0508   24.0806 O   0  0  0  0  0  0  0  0  0  0  0  0
    8.6071  -16.1333   24.4396 N   0  0  0  0  0  0  0  0  0  0  0  0
    8.8457  -15.9678   25.8979 C   0  0  1  0  0  0  0  0  0  0  0  0
    7.6011  -15.4996   26.5622 C   0  0  0  0  0  0  0  0  0  0  0  0
    7.3411  -14.0639   26.3287 C   0  0  0  0  0  0  0  0  0  0  0  0
    8.0699  -13.0787   25.7078 C   0  0  0  0  0  0  0  0  0  0  0  0
    7.3743  -11.9040   25.6662 N   0  0  0  0  0  0  0  0  0  0  0  0
    6.2097  -12.1658   26.2627 C   0  0  0  0  0  0  0  0  0  0  0  0
    6.1572  -13.4389   26.6674 N   0  0  0  0  0  0  0  0  0  0  0  0
    9.2671  -17.3213   26.4110 C   0  0  0  0  0  0  0  0  0  0  0  0
    9.8960  -17.4359   27.6744 O   0  0  0  0  0  0  0  0  0  0  0  0
    9.1191  -18.4043   25.8237 O   0  0  0  0  0  0  0  0  0  0  0  0
  1  2  1  0
  3  2  1  0
  3  4  2  0
  5  3  1  0
  6 12  1  0
  6  5  1  0
  6  7  1  1
  8  7  1  0
  9  8  1  0
 10  9  1  0
 11 10  1  0
 12 14  1  0
 13 12  2  0
 14 15  1  0
 15 16  1  1
 17 16  1  0
 17 18  2  0
 19 18  1  0
 20 19  1  0
 21 20  2  0
 21 17  1  0
 22 15  1  0
 23 22  1  0
 24 22  2  0
M  END
$$$$
