GKH.pdb
     RDKit          3D

 24 24  0  0  1  0  0  0  0  0999 V2000
    4.4100  -19.4133   22.7312 N   0  0  0  0  0  0  0  0  0  0  0  0
    4.6217  -17.9959   22.7800 C   0  0  0  0  0  0  0  0  0  0  0  0
    5.9556  -17.5990   22.2782 C   0  0  0  0  0  0  0  0  0  0  0  0
    6.8569  -18.4562   21.9855 O   0  0  0  0  0  0  0  0  0  0  0  0
    6.2270  -16.2221   22.1226 N   0  0  0  0  0  0  0  0  0  0  0  0
    7.5735  -15.7105   21.7619 C   0  0  1  0  0  0  0  0  0  0  0  0
    7.2910  -14.4547   21.0126 C   0  0  0  0  0  0  0  0  0  0  0  0
    7.9696  -14.2601   19.7130 C   0  0  0  0  0  0  0  0  0  0  0  0
    7.5065  -12.9919   18.9985 C   0  0  0  0  0  0  0  0  0  0  0  0
    8.2869  -12.8989   17.7222 C   0  0  0  0  0  0  0  0  0  0  0  0
    8.0347  -13.9832   16.8110 N   0  0  0  0  0  0  0  0  0  0  0  0
    8.2466  -15.4247   23.0350 C   0  0  0  0  0  0  0  0  0  0  0  0
    7.5316  -15.0534   24.0202 O   0  0  0  0  0  0  0  0  0  0  0  0
    9.6327  -15.5204   23.3057 N   0  0  0  0  0  0  0  0  0  0  0  0
   10.1001  -15.9657   24.6452 C   0  0  1  0  0  0  0  0  0  0  0  0
    9.3179  -17.1514   25.0832 C   0  0  0  0  0  0  0  0  0  0  0  0
    9.7699  -17.6764   26.3883 C   0  0  0  0  0  0  0  0  0  0  0  0
   10.6325  -17.1840   27.3374 C   0  0  0  0  0  0  0  0  0  0  0  0
   10.6751  -17.9977   28.4335 N   0  0  0  0  0  0  0  0  0  0  0  0
    9.8332  -18.9964   28.1607 C   0  0  0  0  0  0  0  0  0  0  0  0
    9.2788  -18.8362   26.9548 N   0  0  0  0  0  0  0  0  0  0  0  0
   11.5624  -16.2982   24.4908 C   0  0  0  0  0  0  0  0  0  0  0  0
   11.9735  -17.2607   23.5373 O   0  0  0  0  0  0  0  0  0  0  0  0
   12.4975  -15.7999   25.1366 O   0  0  0  0  0  0  0  0  0  0  0  0
  1  2  1  0
  3  2  1  0
  3  4  2  0
  5  3  1  0
  6 12  1  0
  6  5  1  0
  6  7  1  6
  8  7  1  0
  9  8  1  0
 10  9  1  0
 11 10  1  0
 12 14  1  0
 13 12  2  0
 14 15  1  0
 15 16  1  6
 17 16  1  0
 17 18  2  0
 19 18  1  0
 20 19  1  0
 21 20  2  0
 21 17  1  0
 22 15  1  0
 23 22  1  0
 24 22  2  0
M  END
$$$$
