GKH.pdb
     RDKit          3D

 24 24  0  0  1  0  0  0  0  0999 V2000
    8.8371  -22.6633   21.0008 N   0  0  0  0  0  0  0  0  0  0  0  0
    8.9275  -21.2839   20.6194 C   0  0  0  0  0  0  0  0  0  0  0  0
   10.2834  -20.9033   20.1661 C   0  0  0  0  0  0  0  0  0  0  0  0
   11.2730  -21.7098   20.2233 O   0  0  0  0  0  0  0  0  0  0  0  0
   10.4747  -19.6011   19.6552 N   0  0  0  0  0  0  0  0  0  0  0  0
   11.8024  -19.1054   19.2119 C   0  0  1  0  0  0  0  0  0  0  0  0
   11.4984  -18.3096   17.9902 C   0  0  0  0  0  0  0  0  0  0  0  0
   11.2362  -19.0468   16.7352 C   0  0  0  0  0  0  0  0  0  0  0  0
   10.8593  -18.1182   15.5824 C   0  0  0  0  0  0  0  0  0  0  0  0
   10.7239  -18.9727   14.3585 C   0  0  0  0  0  0  0  0  0  0  0  0
   10.3726  -18.2344   13.1748 N   0  0  0  0  0  0  0  0  0  0  0  0
   12.2890  -18.2424   20.2955 C   0  0  0  0  0  0  0  0  0  0  0  0
   11.4341  -17.7559   21.1031 O   0  0  0  0  0  0  0  0  0  0  0  0
   13.6322  -17.8818   20.5590 N   0  0  0  0  0  0  0  0  0  0  0  0
   14.0045  -17.3157   21.8826 C   0  0  1  0  0  0  0  0  0  0  0  0
   13.7166  -18.3059   22.9532 C   0  0  0  0  0  0  0  0  0  0  0  0
   12.4477  -18.0255   23.6565 C   0  0  0  0  0  0  0  0  0  0  0  0
   11.4341  -17.1293   23.4184 C   0  0  0  0  0  0  0  0  0  0  0  0
   10.4105  -17.2963   24.3071 N   0  0  0  0  0  0  0  0  0  0  0  0
   10.7932  -18.3017   25.0966 C   0  0  0  0  0  0  0  0  0  0  0  0
   11.9975  -18.7577   24.7374 N   0  0  0  0  0  0  0  0  0  0  0  0
   15.4770  -17.0014   21.8060 C   0  0  0  0  0  0  0  0  0  0  0  0
   16.1013  -16.2732   22.8474 O   0  0  0  0  0  0  0  0  0  0  0  0
   16.2465  -17.3238   20.8874 O   0  0  0  0  0  0  0  0  0  0  0  0
  1  2  1  0
  3  2  1  0
  3  4  2  0
  5  3  1  0
  6 12  1  0
  6  5  1  0
  6  7  1  6
  8  7  1  0
  9  8  1  0
 10  9  1  0
 11 10  1  0
 12 14  1  0
 13 12  2  0
 14 15  1  0
 15 16  1  1
 17 16  1  0
 17 18  2  0
 19 18  1  0
 20 19  1  0
 21 20  2  0
 21 17  1  0
 22 15  1  0
 23 22  1  0
 24 22  2  0
M  END
$$$$
