PQY.pdb
     RDKit          3D

 29 30  0  0  1  0  0  0  0  0999 V2000
    8.2503  -15.2893   17.5919 N   0  0  0  0  0  0  0  0  0  0  0  0
    7.8991  -14.1893   16.6859 C   0  0  0  0  0  0  0  0  0  0  0  0
    7.6569  -13.0368   17.6650 C   0  0  0  0  0  0  0  0  0  0  0  0
    8.4253  -13.4041   18.8929 C   0  0  0  0  0  0  0  0  0  0  0  0
    9.1504  -14.7203   18.5761 C   0  0  1  0  0  0  0  0  0  0  0  0
    9.1219  -15.5916   19.8077 C   0  0  0  0  0  0  0  0  0  0  0  0
    8.0080  -15.7388   20.4225 O   0  0  0  0  0  0  0  0  0  0  0  0
   11.2819  -20.4994   21.3443 N   0  0  0  0  0  0  0  0  0  0  0  0
   11.4909  -20.0476   22.6873 C   0  0  0  0  0  0  0  0  0  0  0  0
   11.5636  -20.8534   23.6350 O   0  0  0  0  0  0  0  0  0  0  0  0
   11.6242  -18.5941   22.9522 C   0  0  0  0  0  0  0  0  0  0  0  0
   11.5265  -17.7346   21.7517 C   0  0  0  0  0  0  0  0  0  0  0  0
   10.2124  -17.0241   21.5347 C   0  0  2  0  0  0  0  0  0  0  0  0
   10.2583  -16.2460   20.3074 N   0  0  0  0  0  0  0  0  0  0  0  0
    9.9554  -16.1486   22.7051 C   0  0  0  0  0  0  0  0  0  0  0  0
   10.7189  -15.1945   22.9178 O   0  0  0  0  0  0  0  0  0  0  0  0
    6.0325  -10.9523   28.3956 O   0  0  0  0  0  0  0  0  0  0  0  0
    6.3206  -11.8575   27.3902 C   0  0  0  0  0  0  0  0  0  0  0  0
    5.7046  -13.0870   27.3596 C   0  0  0  0  0  0  0  0  0  0  0  0
    5.9905  -13.9913   26.3588 C   0  0  0  0  0  0  0  0  0  0  0  0
    6.9033  -13.7008   25.3500 C   0  0  0  0  0  0  0  0  0  0  0  0
    7.2497  -14.6628   24.2889 C   0  0  0  0  0  0  0  0  0  0  0  0
    8.5242  -15.3552   24.6018 C   0  0  2  0  0  0  0  0  0  0  0  0
    8.8722  -16.3559   23.5922 N   0  0  0  0  0  0  0  0  0  0  0  0
    8.4864  -15.9754   25.9393 C   0  0  0  0  0  0  0  0  0  0  0  0
    8.8478  -15.3452   27.1169 O   0  0  0  0  0  0  0  0  0  0  0  0
    7.5188  -12.4714   25.3808 C   0  0  0  0  0  0  0  0  0  0  0  0
    7.2409  -11.5598   26.3769 C   0  0  0  0  0  0  0  0  0  0  0  0
    8.0980  -17.1781   26.0333 O   0  0  0  0  0  0  0  0  0  0  0  0
  1  5  1  0
  2  1  1  0
  2  3  1  0
  3  4  1  0
  4  5  1  0
  5  6  1  1
  6  7  2  0
  8  9  1  0
  9 11  1  0
 10  9  2  0
 11 12  1  0
 13 12  1  1
 13 15  1  0
 13 14  1  0
 14  6  1  0
 15 24  1  0
 16 15  2  0
 18 17  1  0
 18 19  2  0
 20 19  1  0
 21 20  2  0
 22 21  1  0
 23 22  1  6
 23 25  1  0
 24 23  1  0
 25 29  2  0
 25 26  1  0
 27 28  2  0
 27 21  1  0
 28 18  1  0
M  END
$$$$
