PQY.pdb
     RDKit          3D

 29 30  0  0  1  0  0  0  0  0999 V2000
    8.9735  -13.7820   18.6677 N   0  0  0  0  0  0  0  0  0  0  0  0
    8.2317  -13.0085   17.6649 C   0  0  0  0  0  0  0  0  0  0  0  0
    6.8530  -13.6740   17.7071 C   0  0  0  0  0  0  0  0  0  0  0  0
    6.7724  -14.3123   19.0559 C   0  0  0  0  0  0  0  0  0  0  0  0
    8.0703  -13.9454   19.7902 C   0  0  1  0  0  0  0  0  0  0  0  0
    8.5205  -15.1405   20.5939 C   0  0  0  0  0  0  0  0  0  0  0  0
    7.6939  -15.6629   21.4211 O   0  0  0  0  0  0  0  0  0  0  0  0
   12.5550  -19.8261   18.6421 N   0  0  0  0  0  0  0  0  0  0  0  0
   12.3255  -18.4302   18.4182 C   0  0  0  0  0  0  0  0  0  0  0  0
   13.0751  -17.7636   17.6789 O   0  0  0  0  0  0  0  0  0  0  0  0
   11.1736  -17.7685   19.0784 C   0  0  0  0  0  0  0  0  0  0  0  0
   11.3072  -17.6099   20.5435 C   0  0  0  0  0  0  0  0  0  0  0  0
   10.1952  -16.8703   21.2472 C   0  0  2  0  0  0  0  0  0  0  0  0
    9.8005  -15.7033   20.4750 N   0  0  0  0  0  0  0  0  0  0  0  0
   10.6762  -16.4739   22.5939 C   0  0  0  0  0  0  0  0  0  0  0  0
   11.8831  -16.5895   22.8562 O   0  0  0  0  0  0  0  0  0  0  0  0
   10.9996  -14.8118   31.2226 O   0  0  0  0  0  0  0  0  0  0  0  0
   10.5695  -14.9335   29.9136 C   0  0  0  0  0  0  0  0  0  0  0  0
   10.6880  -13.8789   29.0385 C   0  0  0  0  0  0  0  0  0  0  0  0
   10.2594  -13.9976   27.7334 C   0  0  0  0  0  0  0  0  0  0  0  0
    9.6960  -15.1754   27.2531 C   0  0  0  0  0  0  0  0  0  0  0  0
    9.2009  -15.3156   25.8724 C   0  0  0  0  0  0  0  0  0  0  0  0
   10.2755  -15.8079   24.9753 C   0  0  2  0  0  0  0  0  0  0  0  0
    9.8142  -15.9671   23.5956 N   0  0  0  0  0  0  0  0  0  0  0  0
   10.8508  -17.0734   25.4675 C   0  0  0  0  0  0  0  0  0  0  0  0
   11.9884  -17.1775   26.2483 O   0  0  0  0  0  0  0  0  0  0  0  0
    9.5780  -16.2295   28.1284 C   0  0  0  0  0  0  0  0  0  0  0  0
   10.0027  -16.1220   29.4355 C   0  0  0  0  0  0  0  0  0  0  0  0
   10.2719  -18.1574   25.1576 O   0  0  0  0  0  0  0  0  0  0  0  0
  1  5  1  0
  2  1  1  0
  2  3  1  0
  3  4  1  0
  4  5  1  0
  5  6  1  1
  6  7  2  0
  8  9  1  0
  9 11  1  0
 10  9  2  0
 11 12  1  0
 13 12  1  6
 13 15  1  0
 13 14  1  0
 14  6  1  0
 15 24  1  0
 16 15  2  0
 18 17  1  0
 18 19  2  0
 20 19  1  0
 21 20  2  0
 22 21  1  0
 23 22  1  1
 23 25  1  0
 24 23  1  0
 25 29  2  0
 25 26  1  0
 27 28  2  0
 27 21  1  0
 28 18  1  0
M  END
$$$$
