PQY.pdb
     RDKit          3D

 29 30  0  0  1  0  0  0  0  0999 V2000
    9.3315  -13.8953   19.5449 N   0  0  0  0  0  0  0  0  0  0  0  0
    8.9954  -13.0756   18.3748 C   0  0  0  0  0  0  0  0  0  0  0  0
    7.4694  -13.1964   18.3306 C   0  0  0  0  0  0  0  0  0  0  0  0
    7.0682  -13.5472   19.7266 C   0  0  0  0  0  0  0  0  0  0  0  0
    8.3567  -13.5528   20.5622 C   0  0  1  0  0  0  0  0  0  0  0  0
    8.2813  -14.6895   21.5517 C   0  0  0  0  0  0  0  0  0  0  0  0
    7.2320  -14.7937   22.2789 O   0  0  0  0  0  0  0  0  0  0  0  0
   11.8862  -19.9061   21.5060 N   0  0  0  0  0  0  0  0  0  0  0  0
   10.9398  -19.4617   20.5272 C   0  0  0  0  0  0  0  0  0  0  0  0
   10.9039  -19.9668   19.3886 O   0  0  0  0  0  0  0  0  0  0  0  0
    9.9856  -18.3813   20.8776 C   0  0  0  0  0  0  0  0  0  0  0  0
   10.1202  -17.8595   22.2558 C   0  0  0  0  0  0  0  0  0  0  0  0
    9.1878  -16.7390   22.6479 C   0  0  2  0  0  0  0  0  0  0  0  0
    9.3064  -15.6348   21.7095 N   0  0  0  0  0  0  0  0  0  0  0  0
    9.5342  -16.3021   24.0232 C   0  0  0  0  0  0  0  0  0  0  0  0
   10.5525  -15.6149   24.1942 O   0  0  0  0  0  0  0  0  0  0  0  0
    5.6995  -10.9681   25.4802 O   0  0  0  0  0  0  0  0  0  0  0  0
    6.2575  -12.1543   25.9217 C   0  0  0  0  0  0  0  0  0  0  0  0
    5.5884  -13.3448   25.7572 C   0  0  0  0  0  0  0  0  0  0  0  0
    6.1422  -14.5285   26.1971 C   0  0  0  0  0  0  0  0  0  0  0  0
    7.3865  -14.5671   26.8181 C   0  0  0  0  0  0  0  0  0  0  0  0
    7.9841  -15.8147   27.3258 C   0  0  0  0  0  0  0  0  0  0  0  0
    9.1473  -16.2165   26.4967 C   0  0  2  0  0  0  0  0  0  0  0  0
    8.7493  -16.6367   25.1525 N   0  0  0  0  0  0  0  0  0  0  0  0
    9.9326  -17.2805   27.1495 C   0  0  0  0  0  0  0  0  0  0  0  0
   10.6333  -17.1366   28.3340 O   0  0  0  0  0  0  0  0  0  0  0  0
    8.0551  -13.3766   26.9821 C   0  0  0  0  0  0  0  0  0  0  0  0
    7.5107  -12.1873   26.5467 C   0  0  0  0  0  0  0  0  0  0  0  0
    9.9813  -18.4185   26.5939 O   0  0  0  0  0  0  0  0  0  0  0  0
  1  5  1  0
  2  1  1  0
  2  3  1  0
  3  4  1  0
  4  5  1  0
  5  6  1  1
  6  7  2  0
  8  9  1  0
  9 11  1  0
 10  9  2  0
 11 12  1  0
 13 12  1  6
 13 15  1  0
 13 14  1  0
 14  6  1  0
 15 24  1  0
 16 15  2  0
 18 17  1  0
 18 19  2  0
 20 19  1  0
 21 20  2  0
 22 21  1  0
 23 22  1  1
 23 25  1  0
 24 23  1  0
 25 29  2  0
 25 26  1  0
 27 28  2  0
 27 21  1  0
 28 18  1  0
M  END
$$$$
