PQY.pdb
     RDKit          3D

 29 30  0  0  1  0  0  0  0  0999 V2000
    8.6442  -14.9623   19.4320 N   0  0  0  0  0  0  0  0  0  0  0  0
    8.7563  -14.1707   18.2011 C   0  0  0  0  0  0  0  0  0  0  0  0
    7.5548  -13.2284   18.3193 C   0  0  0  0  0  0  0  0  0  0  0  0
    7.2520  -13.1687   19.7814 C   0  0  0  0  0  0  0  0  0  0  0  0
    8.3226  -14.0170   20.4834 C   0  0  1  0  0  0  0  0  0  0  0  0
    7.6705  -14.7692   21.6173 C   0  0  0  0  0  0  0  0  0  0  0  0
    7.2229  -14.0994   22.6130 O   0  0  0  0  0  0  0  0  0  0  0  0
    4.5313  -21.0160   22.7819 N   0  0  0  0  0  0  0  0  0  0  0  0
    5.8674  -20.5760   23.0516 C   0  0  0  0  0  0  0  0  0  0  0  0
    6.8350  -21.3553   22.9561 O   0  0  0  0  0  0  0  0  0  0  0  0
    6.1012  -19.1664   23.4506 C   0  0  0  0  0  0  0  0  0  0  0  0
    6.6852  -18.3124   22.3927 C   0  0  0  0  0  0  0  0  0  0  0  0
    6.9104  -16.8615   22.7434 C   0  0  2  0  0  0  0  0  0  0  0  0
    7.5327  -16.1657   21.6288 N   0  0  0  0  0  0  0  0  0  0  0  0
    7.7715  -16.8005   23.9505 C   0  0  0  0  0  0  0  0  0  0  0  0
    9.0021  -16.8710   23.8120 O   0  0  0  0  0  0  0  0  0  0  0  0
    7.0248  -10.2429   25.5933 O   0  0  0  0  0  0  0  0  0  0  0  0
    7.1372  -11.5485   26.0360 C   0  0  0  0  0  0  0  0  0  0  0  0
    6.0354  -12.2234   26.5078 C   0  0  0  0  0  0  0  0  0  0  0  0
    6.1451  -13.5248   26.9502 C   0  0  0  0  0  0  0  0  0  0  0  0
    7.3606  -14.2012   26.9376 C   0  0  0  0  0  0  0  0  0  0  0  0
    7.5092  -15.5802   27.4354 C   0  0  0  0  0  0  0  0  0  0  0  0
    8.1307  -16.4478   26.4045 C   0  0  2  0  0  0  0  0  0  0  0  0
    7.2471  -16.6642   25.2581 N   0  0  0  0  0  0  0  0  0  0  0  0
    8.5520  -17.7421   26.9721 C   0  0  0  0  0  0  0  0  0  0  0  0
    9.5432  -17.9065   27.9235 O   0  0  0  0  0  0  0  0  0  0  0  0
    8.4617  -13.5261   26.4655 C   0  0  0  0  0  0  0  0  0  0  0  0
    8.3639  -12.2248   26.0212 C   0  0  0  0  0  0  0  0  0  0  0  0
    7.9734  -18.7937   26.5653 O   0  0  0  0  0  0  0  0  0  0  0  0
  1  5  1  0
  2  1  1  0
  2  3  1  0
  3  4  1  0
  4  5  1  0
  5  6  1  1
  6  7  2  0
  8  9  1  0
  9 11  1  0
 10  9  2  0
 11 12  1  0
 13 12  1  6
 13 15  1  0
 13 14  1  0
 14  6  1  0
 15 24  1  0
 16 15  2  0
 18 17  1  0
 18 19  2  0
 20 19  1  0
 21 20  2  0
 22 21  1  0
 23 22  1  1
 23 25  1  0
 24 23  1  0
 25 29  2  0
 25 26  1  0
 27 28  2  0
 27 21  1  0
 28 18  1  0
M  END
$$$$
