PQY.pdb
     RDKit          3D

 29 30  0  0  1  0  0  0  0  0999 V2000
    9.2029  -13.8542   19.7749 N   0  0  0  0  0  0  0  0  0  0  0  0
    8.8124  -13.0077   18.6412 C   0  0  0  0  0  0  0  0  0  0  0  0
    7.2840  -13.0409   18.7322 C   0  0  0  0  0  0  0  0  0  0  0  0
    6.9883  -13.3788   20.1575 C   0  0  0  0  0  0  0  0  0  0  0  0
    8.3432  -13.4643   20.8754 C   0  0  1  0  0  0  0  0  0  0  0  0
    8.2902  -14.6023   21.8649 C   0  0  0  0  0  0  0  0  0  0  0  0
    7.3651  -14.5950   22.7508 O   0  0  0  0  0  0  0  0  0  0  0  0
   10.0837  -21.5144   22.5094 N   0  0  0  0  0  0  0  0  0  0  0  0
   10.7455  -20.2602   22.7105 C   0  0  0  0  0  0  0  0  0  0  0  0
   11.9551  -20.1193   22.4460 O   0  0  0  0  0  0  0  0  0  0  0  0
    9.9750  -19.1094   23.2421 C   0  0  0  0  0  0  0  0  0  0  0  0
   10.0013  -17.9001   22.3896 C   0  0  0  0  0  0  0  0  0  0  0  0
    9.1246  -16.7498   22.8219 C   0  0  2  0  0  0  0  0  0  0  0  0
    9.2063  -15.6653   21.8570 N   0  0  0  0  0  0  0  0  0  0  0  0
    9.5731  -16.2982   24.1625 C   0  0  0  0  0  0  0  0  0  0  0  0
   10.4834  -15.4590   24.2377 O   0  0  0  0  0  0  0  0  0  0  0  0
    6.2690  -10.9771   25.8025 O   0  0  0  0  0  0  0  0  0  0  0  0
    6.7932  -12.1787   26.2435 C   0  0  0  0  0  0  0  0  0  0  0  0
    8.0348  -12.2246   26.8336 C   0  0  0  0  0  0  0  0  0  0  0  0
    8.5597  -13.4214   27.2735 C   0  0  0  0  0  0  0  0  0  0  0  0
    7.8631  -14.6182   27.1403 C   0  0  0  0  0  0  0  0  0  0  0  0
    8.4167  -15.9136   27.5725 C   0  0  0  0  0  0  0  0  0  0  0  0
    9.5083  -16.3482   26.6662 C   0  0  2  0  0  0  0  0  0  0  0  0
    9.0044  -16.7852   25.3636 N   0  0  0  0  0  0  0  0  0  0  0  0
   10.3247  -17.4131   27.2779 C   0  0  0  0  0  0  0  0  0  0  0  0
   11.0441  -17.2855   28.4530 O   0  0  0  0  0  0  0  0  0  0  0  0
    6.6217  -14.5717   26.5504 C   0  0  0  0  0  0  0  0  0  0  0  0
    6.0873  -13.3810   26.1065 C   0  0  0  0  0  0  0  0  0  0  0  0
   10.3844  -18.5358   26.6930 O   0  0  0  0  0  0  0  0  0  0  0  0
  1  5  1  0
  2  1  1  0
  2  3  1  0
  3  4  1  0
  4  5  1  0
  5  6  1  1
  6  7  2  0
  8  9  1  0
  9 11  1  0
 10  9  2  0
 11 12  1  0
 13 12  1  6
 13 15  1  0
 13 14  1  0
 14  6  1  0
 15 24  1  0
 16 15  2  0
 18 17  1  0
 18 19  2  0
 20 19  1  0
 21 20  2  0
 22 21  1  0
 23 22  1  1
 23 25  1  0
 24 23  1  0
 25 29  2  0
 25 26  1  0
 27 28  2  0
 27 21  1  0
 28 18  1  0
M  END
$$$$
