PQY.pdb
     RDKit          3D

 29 30  0  0  1  0  0  0  0  0999 V2000
    9.0385  -13.0282   18.5877 N   0  0  0  0  0  0  0  0  0  0  0  0
    8.0065  -12.3342   17.8083 C   0  0  0  0  0  0  0  0  0  0  0  0
    6.7514  -13.1405   18.1548 C   0  0  0  0  0  0  0  0  0  0  0  0
    7.0566  -13.7870   19.4671 C   0  0  0  0  0  0  0  0  0  0  0  0
    8.4473  -13.2881   19.8859 C   0  0  1  0  0  0  0  0  0  0  0  0
    9.1931  -14.4315   20.5289 C   0  0  0  0  0  0  0  0  0  0  0  0
    8.6713  -14.9985   21.5520 O   0  0  0  0  0  0  0  0  0  0  0  0
   14.6544  -15.6766   17.8675 N   0  0  0  0  0  0  0  0  0  0  0  0
   14.5982  -15.1182   19.1853 C   0  0  0  0  0  0  0  0  0  0  0  0
   15.6374  -14.8133   19.8016 O   0  0  0  0  0  0  0  0  0  0  0  0
   13.2781  -14.8988   19.8254 C   0  0  0  0  0  0  0  0  0  0  0  0
   12.5215  -16.1351   20.1236 C   0  0  0  0  0  0  0  0  0  0  0  0
   11.1545  -15.9586   20.7392 C   0  0  2  0  0  0  0  0  0  0  0  0
   10.4287  -14.8999   20.0565 N   0  0  0  0  0  0  0  0  0  0  0  0
   11.3275  -15.6369   22.1776 C   0  0  0  0  0  0  0  0  0  0  0  0
   12.2159  -14.8373   22.5094 O   0  0  0  0  0  0  0  0  0  0  0  0
   10.4375  -14.3078   30.7250 O   0  0  0  0  0  0  0  0  0  0  0  0
   10.1866  -14.6777   29.4160 C   0  0  0  0  0  0  0  0  0  0  0  0
   10.1807  -16.0047   29.0539 C   0  0  0  0  0  0  0  0  0  0  0  0
    9.9315  -16.3758   27.7496 C   0  0  0  0  0  0  0  0  0  0  0  0
    9.6784  -15.4343   26.7572 C   0  0  0  0  0  0  0  0  0  0  0  0
    9.4420  -15.8044   25.3507 C   0  0  0  0  0  0  0  0  0  0  0  0
   10.7198  -15.8555   24.5980 C   0  0  2  0  0  0  0  0  0  0  0  0
   10.5191  -16.2049   23.1911 N   0  0  0  0  0  0  0  0  0  0  0  0
   11.6757  -16.7893   25.2216 C   0  0  0  0  0  0  0  0  0  0  0  0
   11.6516  -18.1651   25.0752 O   0  0  0  0  0  0  0  0  0  0  0  0
    9.6842  -14.1077   27.1198 C   0  0  0  0  0  0  0  0  0  0  0  0
    9.9326  -13.7252   28.4207 C   0  0  0  0  0  0  0  0  0  0  0  0
   12.5937  -16.3107   25.9526 O   0  0  0  0  0  0  0  0  0  0  0  0
  1  5  1  0
  2  1  1  0
  2  3  1  0
  3  4  1  0
  4  5  1  0
  5  6  1  6
  6  7  2  0
  8  9  1  0
  9 11  1  0
 10  9  2  0
 11 12  1  0
 13 12  1  6
 13 15  1  0
 13 14  1  0
 14  6  1  0
 15 24  1  0
 16 15  2  0
 18 17  1  0
 18 19  2  0
 20 19  1  0
 21 20  2  0
 22 21  1  0
 23 22  1  1
 23 25  1  0
 24 23  1  0
 25 29  2  0
 25 26  1  0
 27 28  2  0
 27 21  1  0
 28 18  1  0
M  END
$$$$
