PQY.pdb
     RDKit          3D

 29 30  0  0  1  0  0  0  0  0999 V2000
    9.1351  -14.2606   18.0307 N   0  0  0  0  0  0  0  0  0  0  0  0
    8.6921  -13.4048   16.9236 C   0  0  0  0  0  0  0  0  0  0  0  0
    7.2361  -13.1215   17.3047 C   0  0  0  0  0  0  0  0  0  0  0  0
    7.1760  -13.3268   18.7836 C   0  0  0  0  0  0  0  0  0  0  0  0
    8.6065  -13.6540   19.2368 C   0  0  1  0  0  0  0  0  0  0  0  0
    8.5387  -14.7110   20.3115 C   0  0  0  0  0  0  0  0  0  0  0  0
    7.9233  -14.4327   21.3998 O   0  0  0  0  0  0  0  0  0  0  0  0
   11.0462  -20.6024   20.0291 N   0  0  0  0  0  0  0  0  0  0  0  0
   10.5270  -20.5468   21.3627 C   0  0  0  0  0  0  0  0  0  0  0  0
   10.6538  -21.5084   22.1451 O   0  0  0  0  0  0  0  0  0  0  0  0
    9.8270  -19.3211   21.8191 C   0  0  0  0  0  0  0  0  0  0  0  0
    9.7605  -18.2361   20.8151 C   0  0  0  0  0  0  0  0  0  0  0  0
    9.0369  -16.9772   21.2279 C   0  0  2  0  0  0  0  0  0  0  0  0
    9.1177  -15.9816   20.1715 N   0  0  0  0  0  0  0  0  0  0  0  0
    9.6554  -16.4711   22.4783 C   0  0  0  0  0  0  0  0  0  0  0  0
   10.7919  -15.9767   22.4263 O   0  0  0  0  0  0  0  0  0  0  0  0
   11.1607  -14.1336   30.8327 O   0  0  0  0  0  0  0  0  0  0  0  0
   10.5551  -14.4908   29.6415 C   0  0  0  0  0  0  0  0  0  0  0  0
   10.2399  -13.5348   28.7040 C   0  0  0  0  0  0  0  0  0  0  0  0
    9.6356  -13.8883   27.5161 C   0  0  0  0  0  0  0  0  0  0  0  0
    9.3235  -15.2112   27.2199 C   0  0  0  0  0  0  0  0  0  0  0  0
    8.6484  -15.6095   25.9722 C   0  0  0  0  0  0  0  0  0  0  0  0
    9.6395  -15.9972   24.9381 C   0  0  2  0  0  0  0  0  0  0  0  0
    9.0019  -16.5279   23.7325 N   0  0  0  0  0  0  0  0  0  0  0  0
   10.6164  -16.9682   25.4651 C   0  0  0  0  0  0  0  0  0  0  0  0
   11.8421  -16.6407   26.0173 O   0  0  0  0  0  0  0  0  0  0  0  0
    9.6390  -16.1666   28.1574 C   0  0  0  0  0  0  0  0  0  0  0  0
   10.2427  -15.8246   29.3487 C   0  0  0  0  0  0  0  0  0  0  0  0
   10.3267  -18.2009   25.4126 O   0  0  0  0  0  0  0  0  0  0  0  0
  1  5  1  0
  2  1  1  0
  2  3  1  0
  3  4  1  0
  4  5  1  0
  5  6  1  1
  6  7  2  0
  8  9  1  0
  9 11  1  0
 10  9  2  0
 11 12  1  0
 13 12  1  6
 13 15  1  0
 13 14  1  0
 14  6  1  0
 15 24  1  0
 16 15  2  0
 18 17  1  0
 18 19  2  0
 20 19  1  0
 21 20  2  0
 22 21  1  0
 23 22  1  1
 23 25  1  0
 24 23  1  0
 25 29  2  0
 25 26  1  0
 27 28  2  0
 27 21  1  0
 28 18  1  0
M  END
$$$$
