PQY.pdb
     RDKit          3D

 29 30  0  0  1  0  0  0  0  0999 V2000
    9.2655  -14.0654   19.4080 N   0  0  0  0  0  0  0  0  0  0  0  0
    9.0020  -13.2521   18.2149 C   0  0  0  0  0  0  0  0  0  0  0  0
    7.4719  -13.2675   18.1520 C   0  0  0  0  0  0  0  0  0  0  0  0
    7.0299  -13.5565   19.5499 C   0  0  0  0  0  0  0  0  0  0  0  0
    8.3044  -13.6320   20.4034 C   0  0  1  0  0  0  0  0  0  0  0  0
    8.1374  -14.7370   21.4173 C   0  0  0  0  0  0  0  0  0  0  0  0
    7.1189  -14.7012   22.1931 O   0  0  0  0  0  0  0  0  0  0  0  0
   11.0548  -20.3818   21.3068 N   0  0  0  0  0  0  0  0  0  0  0  0
   10.1704  -19.8065   20.3382 C   0  0  0  0  0  0  0  0  0  0  0  0
   10.0473  -20.3029   19.2018 O   0  0  0  0  0  0  0  0  0  0  0  0
    9.3872  -18.5987   20.6966 C   0  0  0  0  0  0  0  0  0  0  0  0
    9.6068  -18.1049   22.0741 C   0  0  0  0  0  0  0  0  0  0  0  0
    8.8204  -16.8845   22.4876 C   0  0  2  0  0  0  0  0  0  0  0  0
    9.0456  -15.7990   21.5470 N   0  0  0  0  0  0  0  0  0  0  0  0
    9.2463  -16.4949   23.8547 C   0  0  0  0  0  0  0  0  0  0  0  0
   10.3429  -15.9342   24.0029 O   0  0  0  0  0  0  0  0  0  0  0  0
    6.4479  -10.5086   25.5449 O   0  0  0  0  0  0  0  0  0  0  0  0
    6.7750  -11.7968   25.9283 C   0  0  0  0  0  0  0  0  0  0  0  0
    5.8342  -12.7992   25.8830 C   0  0  0  0  0  0  0  0  0  0  0  0
    6.1576  -14.0839   26.2652 C   0  0  0  0  0  0  0  0  0  0  0  0
    7.4343  -14.4156   26.7074 C   0  0  0  0  0  0  0  0  0  0  0  0
    7.7948  -15.7734   27.1521 C   0  0  0  0  0  0  0  0  0  0  0  0
    8.9027  -16.3196   26.3299 C   0  0  2  0  0  0  0  0  0  0  0  0
    8.4521  -16.7358   25.0012 N   0  0  0  0  0  0  0  0  0  0  0  0
    9.5775  -17.4401   27.0111 C   0  0  0  0  0  0  0  0  0  0  0  0
    9.6907  -18.7234   26.5062 O   0  0  0  0  0  0  0  0  0  0  0  0
    8.3745  -13.4130   26.7523 C   0  0  0  0  0  0  0  0  0  0  0  0
    8.0622  -12.1250   26.3730 C   0  0  0  0  0  0  0  0  0  0  0  0
   10.0960  -17.2279   28.1479 O   0  0  0  0  0  0  0  0  0  0  0  0
  1  5  1  0
  2  1  1  0
  2  3  1  0
  3  4  1  0
  4  5  1  0
  5  6  1  1
  6  7  2  0
  8  9  1  0
  9 11  1  0
 10  9  2  0
 11 12  1  0
 13 12  1  6
 13 15  1  0
 13 14  1  0
 14  6  1  0
 15 24  1  0
 16 15  2  0
 18 17  1  0
 18 19  2  0
 20 19  1  0
 21 20  2  0
 22 21  1  0
 23 22  1  1
 23 25  1  0
 24 23  1  0
 25 29  2  0
 25 26  1  0
 27 28  2  0
 27 21  1  0
 28 18  1  0
M  END
$$$$
