PQY.pdb
     RDKit          3D

 29 30  0  0  1  0  0  0  0  0999 V2000
    6.6202  -19.0877   18.6019 N   0  0  0  0  0  0  0  0  0  0  0  0
    5.6475  -19.5323   17.5967 C   0  0  0  0  0  0  0  0  0  0  0  0
    4.6886  -20.3810   18.4368 C   0  0  0  0  0  0  0  0  0  0  0  0
    4.8509  -19.8790   19.8349 C   0  0  0  0  0  0  0  0  0  0  0  0
    5.8428  -18.7085   19.7655 C   0  0  1  0  0  0  0  0  0  0  0  0
    6.7395  -18.7677   20.9777 C   0  0  0  0  0  0  0  0  0  0  0  0
    6.2380  -18.4758   22.1195 O   0  0  0  0  0  0  0  0  0  0  0  0
   11.6204  -22.5593   21.8620 N   0  0  0  0  0  0  0  0  0  0  0  0
   11.8017  -21.6448   22.9493 C   0  0  0  0  0  0  0  0  0  0  0  0
   12.7103  -21.8095   23.7861 O   0  0  0  0  0  0  0  0  0  0  0  0
   10.8912  -20.4809   23.0790 C   0  0  0  0  0  0  0  0  0  0  0  0
    9.8969  -20.3487   21.9912 C   0  0  0  0  0  0  0  0  0  0  0  0
    8.9254  -19.1984   22.1001 C   0  0  2  0  0  0  0  0  0  0  0  0
    8.0940  -19.1281   20.9095 N   0  0  0  0  0  0  0  0  0  0  0  0
    9.7017  -17.9459   22.2763 C   0  0  0  0  0  0  0  0  0  0  0  0
   10.1770  -17.3904   21.2742 O   0  0  0  0  0  0  0  0  0  0  0  0
    9.9060  -17.8866   29.7477 O   0  0  0  0  0  0  0  0  0  0  0  0
    9.9985  -17.2483   28.5240 C   0  0  0  0  0  0  0  0  0  0  0  0
   11.1108  -16.5040   28.2066 C   0  0  0  0  0  0  0  0  0  0  0  0
   11.2050  -15.8664   26.9878 C   0  0  0  0  0  0  0  0  0  0  0  0
   10.1906  -15.9486   26.0394 C   0  0  0  0  0  0  0  0  0  0  0  0
   10.2538  -15.2495   24.7437 C   0  0  0  0  0  0  0  0  0  0  0  0
   10.7517  -16.1565   23.6801 C   0  0  2  0  0  0  0  0  0  0  0  0
    9.9236  -17.3553   23.5433 N   0  0  0  0  0  0  0  0  0  0  0  0
   12.1585  -16.5349   23.9095 C   0  0  0  0  0  0  0  0  0  0  0  0
   12.6033  -17.8203   24.1635 O   0  0  0  0  0  0  0  0  0  0  0  0
    9.0787  -16.6929   26.3571 C   0  0  0  0  0  0  0  0  0  0  0  0
    8.9736  -17.3343   27.5728 C   0  0  0  0  0  0  0  0  0  0  0  0
   13.0389  -15.6238   23.8775 O   0  0  0  0  0  0  0  0  0  0  0  0
  1  5  1  0
  2  1  1  0
  2  3  1  0
  3  4  1  0
  4  5  1  0
  5  6  1  1
  6  7  2  0
  8  9  1  0
  9 11  1  0
 10  9  2  0
 11 12  1  0
 13 12  1  6
 13 15  1  0
 13 14  1  0
 14  6  1  0
 15 24  1  0
 16 15  2  0
 18 17  1  0
 18 19  2  0
 20 19  1  0
 21 20  2  0
 22 21  1  0
 23 22  1  1
 23 25  1  0
 24 23  1  0
 25 29  2  0
 25 26  1  0
 27 28  2  0
 27 21  1  0
 28 18  1  0
M  END
$$$$
