GEQ.pdb
     RDKit          3D

 23 22  0  0  1  0  0  0  0  0999 V2000
    7.5519  -13.0364   17.4756 N   0  0  0  0  0  0  0  0  0  0  0  0
    8.6880  -13.2120   18.3410 C   0  0  0  0  0  0  0  0  0  0  0  0
    8.2889  -14.0046   19.5720 C   0  0  0  0  0  0  0  0  0  0  0  0
    7.2843  -13.6426   20.1336 O   0  0  0  0  0  0  0  0  0  0  0  0
    9.0577  -15.0941   20.0148 N   0  0  0  0  0  0  0  0  0  0  0  0
    8.9484  -16.0064   21.0608 C   0  0  1  0  0  0  0  0  0  0  0  0
    9.5715  -17.3922   20.8693 C   0  0  0  0  0  0  0  0  0  0  0  0
    9.3189  -18.4004   21.9280 C   0  0  0  0  0  0  0  0  0  0  0  0
    9.9875  -19.6524   21.5288 C   0  0  0  0  0  0  0  0  0  0  0  0
   10.5330  -19.7896   20.4342 O   0  0  0  0  0  0  0  0  0  0  0  0
    9.3616  -15.5915   22.3890 C   0  0  0  0  0  0  0  0  0  0  0  0
   10.6102  -15.2099   22.4396 O   0  0  0  0  0  0  0  0  0  0  0  0
    9.9796  -20.7188   22.4615 O   0  0  0  0  0  0  0  0  0  0  0  0
    5.5673  -12.3921   25.9695 N   0  0  0  0  0  0  0  0  0  0  0  0
    6.7541  -12.3936   26.7591 C   0  0  0  0  0  0  0  0  0  0  0  0
    6.7635  -11.5955   27.7518 O   0  0  0  0  0  0  0  0  0  0  0  0
    7.9048  -13.2795   26.4253 C   0  0  0  0  0  0  0  0  0  0  0  0
    7.7579  -14.0583   25.1761 C   0  0  0  0  0  0  0  0  0  0  0  0
    8.9489  -14.9084   24.7935 C   0  0  2  0  0  0  0  0  0  0  0  0
    8.5819  -15.5648   23.5159 N   0  0  0  0  0  0  0  0  0  0  0  0
    9.2898  -15.9170   25.7922 C   0  0  0  0  0  0  0  0  0  0  0  0
   10.1256  -15.6054   26.8434 O   0  0  0  0  0  0  0  0  0  0  0  0
    8.8291  -17.0828   25.7358 O   0  0  0  0  0  0  0  0  0  0  0  0
  1  2  1  0
  2  3  1  0
  3  5  1  0
  3  4  2  0
  5  6  1  0
  6 11  1  0
  6  7  1  6
  8  7  1  0
  9 13  1  0
  9  8  1  0
 10  9  2  0
 11 20  1  0
 11 12  2  0
 14 15  1  0
 15 17  1  0
 15 16  2  0
 17 18  1  0
 19 18  1  1
 19 21  1  0
 20 19  1  0
 21 22  1  0
 23 21  2  0
M  END
$$$$
