GEQ.pdb
     RDKit          3D

 23 22  0  0  1  0  0  0  0  0999 V2000
    6.9614  -12.9395   18.5423 N   0  0  0  0  0  0  0  0  0  0  0  0
    8.2868  -13.4158   18.8373 C   0  0  0  0  0  0  0  0  0  0  0  0
    8.2655  -14.2792   20.0850 C   0  0  0  0  0  0  0  0  0  0  0  0
    7.5679  -13.8887   20.9887 O   0  0  0  0  0  0  0  0  0  0  0  0
    9.0207  -15.4614   20.1628 N   0  0  0  0  0  0  0  0  0  0  0  0
    9.3247  -16.3617   21.1805 C   0  0  1  0  0  0  0  0  0  0  0  0
    9.6225  -17.8116   20.7874 C   0  0  0  0  0  0  0  0  0  0  0  0
    9.7626  -18.7964   21.8882 C   0  0  0  0  0  0  0  0  0  0  0  0
   10.0147  -20.1173   21.2837 C   0  0  0  0  0  0  0  0  0  0  0  0
   10.0870  -20.2834   20.0664 O   0  0  0  0  0  0  0  0  0  0  0  0
   10.3658  -16.0105   22.1290 C   0  0  0  0  0  0  0  0  0  0  0  0
   11.4781  -16.6677   21.9331 O   0  0  0  0  0  0  0  0  0  0  0  0
   10.1703  -21.2158   22.1648 O   0  0  0  0  0  0  0  0  0  0  0  0
    6.3963  -13.3509   24.0777 N   0  0  0  0  0  0  0  0  0  0  0  0
    6.6721  -13.7668   25.4129 C   0  0  0  0  0  0  0  0  0  0  0  0
    5.7954  -13.4592   26.2843 O   0  0  0  0  0  0  0  0  0  0  0  0
    7.9177  -14.5119   25.7500 C   0  0  0  0  0  0  0  0  0  0  0  0
    8.4539  -15.3643   24.6663 C   0  0  0  0  0  0  0  0  0  0  0  0
    9.9618  -15.4081   24.5564 C   0  0  2  0  0  0  0  0  0  0  0  0
   10.2722  -15.0917   23.1416 N   0  0  0  0  0  0  0  0  0  0  0  0
   10.5349  -16.7017   24.9152 C   0  0  0  0  0  0  0  0  0  0  0  0
   11.8085  -17.0389   24.5091 O   0  0  0  0  0  0  0  0  0  0  0  0
    9.9011  -17.5345   25.6075 O   0  0  0  0  0  0  0  0  0  0  0  0
  1  2  1  0
  2  3  1  0
  3  5  1  0
  3  4  2  0
  5  6  1  0
  6 11  1  0
  6  7  1  6
  8  7  1  0
  9 13  1  0
  9  8  1  0
 10  9  2  0
 11 20  1  0
 11 12  2  0
 14 15  1  0
 15 17  1  0
 15 16  2  0
 17 18  1  0
 19 18  1  6
 19 21  1  0
 20 19  1  0
 21 22  1  0
 23 21  2  0
M  END
$$$$
