GEQ.pdb
     RDKit          3D

 23 22  0  0  1  0  0  0  0  0999 V2000
    7.7085  -13.9812   16.3081 N   0  0  0  0  0  0  0  0  0  0  0  0
    9.1036  -13.6308   16.2681 C   0  0  0  0  0  0  0  0  0  0  0  0
    9.9200  -14.6498   17.0413 C   0  0  0  0  0  0  0  0  0  0  0  0
    9.2986  -15.3895   17.7641 O   0  0  0  0  0  0  0  0  0  0  0  0
   11.3173  -14.7125   16.9083 N   0  0  0  0  0  0  0  0  0  0  0  0
   12.3173  -15.5058   17.4642 C   0  0  1  0  0  0  0  0  0  0  0  0
   13.5462  -15.8147   16.6040 C   0  0  0  0  0  0  0  0  0  0  0  0
   13.3070  -16.4495   15.2845 C   0  0  0  0  0  0  0  0  0  0  0  0
   14.6123  -16.6156   14.6195 C   0  0  0  0  0  0  0  0  0  0  0  0
   14.9212  -15.9899   13.6058 O   0  0  0  0  0  0  0  0  0  0  0  0
   12.8529  -15.1384   18.7623 C   0  0  0  0  0  0  0  0  0  0  0  0
   13.3894  -13.9470   18.7748 O   0  0  0  0  0  0  0  0  0  0  0  0
   15.5196  -17.5410   15.1917 O   0  0  0  0  0  0  0  0  0  0  0  0
   10.7670  -17.4323   24.2165 N   0  0  0  0  0  0  0  0  0  0  0  0
   11.8661  -16.6300   24.6411 C   0  0  0  0  0  0  0  0  0  0  0  0
   12.0771  -16.5941   25.8968 O   0  0  0  0  0  0  0  0  0  0  0  0
   12.7033  -15.8829   23.6607 C   0  0  0  0  0  0  0  0  0  0  0  0
   12.4128  -16.1684   22.2385 C   0  0  0  0  0  0  0  0  0  0  0  0
   13.2938  -15.4553   21.2369 C   0  0  2  0  0  0  0  0  0  0  0  0
   12.8275  -15.8998   19.9016 N   0  0  0  0  0  0  0  0  0  0  0  0
   14.7140  -15.7538   21.3937 C   0  0  0  0  0  0  0  0  0  0  0  0
   15.5241  -14.9255   22.1410 O   0  0  0  0  0  0  0  0  0  0  0  0
   15.2362  -16.7683   20.8715 O   0  0  0  0  0  0  0  0  0  0  0  0
  1  2  1  0
  2  3  1  0
  3  5  1  0
  3  4  2  0
  5  6  1  0
  6 11  1  0
  6  7  1  6
  8  7  1  0
  9 13  1  0
  9  8  1  0
 10  9  2  0
 11 20  1  0
 11 12  2  0
 14 15  1  0
 15 17  1  0
 15 16  2  0
 17 18  1  0
 19 18  1  1
 19 21  1  0
 20 19  1  0
 21 22  1  0
 23 21  2  0
M  END
$$$$
