GEQ.pdb
     RDKit          3D

 23 22  0  0  1  0  0  0  0  0999 V2000
    1.6774  -19.9397   21.7550 N   0  0  0  0  0  0  0  0  0  0  0  0
    2.1359  -18.6084   22.0516 C   0  0  0  0  0  0  0  0  0  0  0  0
    3.6443  -18.6005   22.2166 C   0  0  0  0  0  0  0  0  0  0  0  0
    4.1463  -19.6433   22.5577 O   0  0  0  0  0  0  0  0  0  0  0  0
    4.3945  -17.4363   21.9800 N   0  0  0  0  0  0  0  0  0  0  0  0
    5.7470  -17.1137   22.0521 C   0  0  1  0  0  0  0  0  0  0  0  0
    6.2644  -15.9935   21.1450 C   0  0  0  0  0  0  0  0  0  0  0  0
    7.7332  -15.7920   21.0886 C   0  0  0  0  0  0  0  0  0  0  0  0
    8.0170  -14.8365   20.0022 C   0  0  0  0  0  0  0  0  0  0  0  0
    8.4956  -13.7221   20.2113 O   0  0  0  0  0  0  0  0  0  0  0  0
    6.3256  -16.8371   23.3543 C   0  0  0  0  0  0  0  0  0  0  0  0
    5.7113  -15.8765   23.9925 O   0  0  0  0  0  0  0  0  0  0  0  0
    7.7116  -15.2460   18.6808 O   0  0  0  0  0  0  0  0  0  0  0  0
    8.9636  -20.1227   29.2856 N   0  0  0  0  0  0  0  0  0  0  0  0
    8.1494  -19.8114   28.1577 C   0  0  0  0  0  0  0  0  0  0  0  0
    7.2947  -20.6960   27.8268 O   0  0  0  0  0  0  0  0  0  0  0  0
    8.3061  -18.5257   27.4212 C   0  0  0  0  0  0  0  0  0  0  0  0
    7.8114  -18.5346   26.0270 C   0  0  0  0  0  0  0  0  0  0  0  0
    7.9157  -17.2183   25.2894 C   0  0  2  0  0  0  0  0  0  0  0  0
    7.3937  -17.4776   23.9262 N   0  0  0  0  0  0  0  0  0  0  0  0
    9.2782  -16.7005   25.2113 C   0  0  0  0  0  0  0  0  0  0  0  0
    9.8422  -16.0514   26.2889 O   0  0  0  0  0  0  0  0  0  0  0  0
    9.9778  -16.8384   24.1788 O   0  0  0  0  0  0  0  0  0  0  0  0
  1  2  1  0
  2  3  1  0
  3  5  1  0
  3  4  2  0
  5  6  1  0
  6 11  1  0
  6  7  1  6
  8  7  1  0
  9 13  1  0
  9  8  1  0
 10  9  2  0
 11 20  1  0
 11 12  2  0
 14 15  1  0
 15 17  1  0
 15 16  2  0
 17 18  1  0
 19 18  1  1
 19 21  1  0
 20 19  1  0
 21 22  1  0
 23 21  2  0
M  END
$$$$
