GEQ.pdb
     RDKit          3D

 23 22  0  0  1  0  0  0  0  0999 V2000
    9.8752  -15.6086   13.0544 N   0  0  0  0  0  0  0  0  0  0  0  0
    9.0499  -15.7995   14.2176 C   0  0  0  0  0  0  0  0  0  0  0  0
    9.7134  -15.1831   15.4352 C   0  0  0  0  0  0  0  0  0  0  0  0
   10.8751  -14.8816   15.3109 O   0  0  0  0  0  0  0  0  0  0  0  0
    8.9987  -14.9826   16.6281 N   0  0  0  0  0  0  0  0  0  0  0  0
    9.3393  -14.5725   17.9143 C   0  0  1  0  0  0  0  0  0  0  0  0
    8.2584  -14.6424   18.9970 C   0  0  0  0  0  0  0  0  0  0  0  0
    8.6203  -14.1475   20.3480 C   0  0  0  0  0  0  0  0  0  0  0  0
    7.4954  -14.4428   21.2540 C   0  0  0  0  0  0  0  0  0  0  0  0
    6.5405  -15.1413   20.9151 O   0  0  0  0  0  0  0  0  0  0  0  0
   10.5241  -15.1395   18.5321 C   0  0  0  0  0  0  0  0  0  0  0  0
   10.5380  -16.4459   18.5063 O   0  0  0  0  0  0  0  0  0  0  0  0
    7.5444  -13.8826   22.5544 O   0  0  0  0  0  0  0  0  0  0  0  0
   17.2082  -15.6390   18.7473 N   0  0  0  0  0  0  0  0  0  0  0  0
   16.2833  -14.5555   18.6960 C   0  0  0  0  0  0  0  0  0  0  0  0
   16.3909  -13.7786   17.6923 O   0  0  0  0  0  0  0  0  0  0  0  0
   15.2625  -14.3581   19.7633 C   0  0  0  0  0  0  0  0  0  0  0  0
   13.9060  -14.0169   19.2814 C   0  0  0  0  0  0  0  0  0  0  0  0
   12.8344  -15.0452   19.5675 C   0  0  2  0  0  0  0  0  0  0  0  0
   11.5638  -14.4457   19.0941 N   0  0  0  0  0  0  0  0  0  0  0  0
   12.7246  -15.3948   20.9805 C   0  0  0  0  0  0  0  0  0  0  0  0
   13.5440  -16.3590   21.5278 O   0  0  0  0  0  0  0  0  0  0  0  0
   11.9006  -14.8276   21.7380 O   0  0  0  0  0  0  0  0  0  0  0  0
  1  2  1  0
  2  3  1  0
  3  5  1  0
  3  4  2  0
  5  6  1  0
  6 11  1  0
  6  7  1  1
  8  7  1  0
  9 13  1  0
  9  8  1  0
 10  9  2  0
 11 20  1  0
 11 12  2  0
 14 15  1  0
 15 17  1  0
 15 16  2  0
 17 18  1  0
 19 18  1  1
 19 21  1  0
 20 19  1  0
 21 22  1  0
 23 21  2  0
M  END
$$$$
