GEQ.pdb
     RDKit          3D

 23 22  0  0  1  0  0  0  0  0999 V2000
    8.3680  -17.3784   19.0903 N   0  0  0  0  0  0  0  0  0  0  0  0
    8.2850  -18.5647   19.9004 C   0  0  0  0  0  0  0  0  0  0  0  0
    8.0211  -18.1911   21.3474 C   0  0  0  0  0  0  0  0  0  0  0  0
    8.0828  -17.0155   21.6116 O   0  0  0  0  0  0  0  0  0  0  0  0
    7.7230  -19.1723   22.3078 N   0  0  0  0  0  0  0  0  0  0  0  0
    7.4484  -19.1524   23.6726 C   0  0  1  0  0  0  0  0  0  0  0  0
    6.8515  -20.4152   24.3005 C   0  0  0  0  0  0  0  0  0  0  0  0
    5.4917  -20.8128   23.8599 C   0  0  0  0  0  0  0  0  0  0  0  0
    5.1484  -22.0766   24.5372 C   0  0  0  0  0  0  0  0  0  0  0  0
    4.7163  -22.1121   25.6890 O   0  0  0  0  0  0  0  0  0  0  0  0
    8.4996  -18.7423   24.5857 C   0  0  0  0  0  0  0  0  0  0  0  0
    9.6768  -19.1964   24.2462 O   0  0  0  0  0  0  0  0  0  0  0  0
    5.3390  -23.2766   23.8086 O   0  0  0  0  0  0  0  0  0  0  0  0
    8.3923  -13.3992   27.8048 N   0  0  0  0  0  0  0  0  0  0  0  0
    9.5569  -14.0211   28.3423 C   0  0  0  0  0  0  0  0  0  0  0  0
   10.2011  -13.3434   29.2074 O   0  0  0  0  0  0  0  0  0  0  0  0
    9.9810  -15.3804   27.9035 C   0  0  0  0  0  0  0  0  0  0  0  0
    9.0404  -16.0700   26.9934 C   0  0  0  0  0  0  0  0  0  0  0  0
    9.4657  -17.4480   26.5376 C   0  0  2  0  0  0  0  0  0  0  0  0
    8.3538  -17.9563   25.6989 N   0  0  0  0  0  0  0  0  0  0  0  0
    9.7229  -18.3721   27.6379 C   0  0  0  0  0  0  0  0  0  0  0  0
   10.9550  -18.3977   28.2559 O   0  0  0  0  0  0  0  0  0  0  0  0
    8.8386  -19.1551   28.0617 O   0  0  0  0  0  0  0  0  0  0  0  0
  1  2  1  0
  2  3  1  0
  3  5  1  0
  3  4  2  0
  5  6  1  0
  6 11  1  0
  6  7  1  1
  8  7  1  0
  9 13  1  0
  9  8  1  0
 10  9  2  0
 11 20  1  0
 11 12  2  0
 14 15  1  0
 15 17  1  0
 15 16  2  0
 17 18  1  0
 19 18  1  1
 19 21  1  0
 20 19  1  0
 21 22  1  0
 23 21  2  0
M  END
$$$$
