GEQ.pdb
     RDKit          3D

 23 22  0  0  1  0  0  0  0  0999 V2000
   10.5699  -16.5879   18.5510 N   0  0  0  0  0  0  0  0  0  0  0  0
   11.4398  -16.5243   19.6954 C   0  0  0  0  0  0  0  0  0  0  0  0
   10.6422  -16.7322   20.9696 C   0  0  0  0  0  0  0  0  0  0  0  0
    9.4961  -16.3560   20.9455 O   0  0  0  0  0  0  0  0  0  0  0  0
   11.2230  -17.3308   22.1002 N   0  0  0  0  0  0  0  0  0  0  0  0
   10.8134  -17.5399   23.4144 C   0  0  1  0  0  0  0  0  0  0  0  0
   11.5162  -18.6392   24.2163 C   0  0  0  0  0  0  0  0  0  0  0  0
   11.0199  -18.8974   25.5903 C   0  0  0  0  0  0  0  0  0  0  0  0
   11.9033  -19.9029   26.2086 C   0  0  0  0  0  0  0  0  0  0  0  0
   12.8555  -19.5941   26.9246 O   0  0  0  0  0  0  0  0  0  0  0  0
   10.7562  -16.4010   24.3125 C   0  0  0  0  0  0  0  0  0  0  0  0
   11.9029  -15.7857   24.4308 O   0  0  0  0  0  0  0  0  0  0  0  0
   11.6206  -21.2659   25.9450 O   0  0  0  0  0  0  0  0  0  0  0  0
    6.0044  -11.3805   27.0855 N   0  0  0  0  0  0  0  0  0  0  0  0
    6.4104  -12.6294   26.5310 C   0  0  0  0  0  0  0  0  0  0  0  0
    5.4899  -13.3240   25.9899 O   0  0  0  0  0  0  0  0  0  0  0  0
    7.8294  -13.0795   26.5938 C   0  0  0  0  0  0  0  0  0  0  0  0
    8.1454  -14.2793   25.7882 C   0  0  0  0  0  0  0  0  0  0  0  0
    9.5959  -14.7080   25.7977 C   0  0  2  0  0  0  0  0  0  0  0  0
    9.6542  -15.9509   24.9916 N   0  0  0  0  0  0  0  0  0  0  0  0
   10.1211  -14.9571   27.1366 C   0  0  0  0  0  0  0  0  0  0  0  0
   10.2530  -16.2463   27.6071 O   0  0  0  0  0  0  0  0  0  0  0  0
   10.4780  -14.0192   27.8900 O   0  0  0  0  0  0  0  0  0  0  0  0
  1  2  1  0
  2  3  1  0
  3  5  1  0
  3  4  2  0
  5  6  1  0
  6 11  1  0
  6  7  1  1
  8  7  1  0
  9 13  1  0
  9  8  1  0
 10  9  2  0
 11 20  1  0
 11 12  2  0
 14 15  1  0
 15 17  1  0
 15 16  2  0
 17 18  1  0
 19 18  1  1
 19 21  1  0
 20 19  1  0
 21 22  1  0
 23 21  2  0
M  END
$$$$
