GEQ.pdb
     RDKit          3D

 23 22  0  0  1  0  0  0  0  0999 V2000
    5.3584  -16.8979   19.5645 N   0  0  0  0  0  0  0  0  0  0  0  0
    6.4457  -15.9856   19.8008 C   0  0  0  0  0  0  0  0  0  0  0  0
    7.1819  -16.3688   21.0712 C   0  0  0  0  0  0  0  0  0  0  0  0
    6.4924  -16.6139   22.0306 O   0  0  0  0  0  0  0  0  0  0  0  0
    8.5851  -16.4298   21.1071 N   0  0  0  0  0  0  0  0  0  0  0  0
    9.5279  -16.6653   22.1041 C   0  0  1  0  0  0  0  0  0  0  0  0
   10.9550  -17.0137   21.6710 C   0  0  0  0  0  0  0  0  0  0  0  0
   11.1156  -18.1199   20.6955 C   0  0  0  0  0  0  0  0  0  0  0  0
   12.5162  -18.1168   20.2350 C   0  0  0  0  0  0  0  0  0  0  0  0
   12.8457  -17.6961   19.1264 O   0  0  0  0  0  0  0  0  0  0  0  0
    9.6873  -15.6771   23.1553 C   0  0  0  0  0  0  0  0  0  0  0  0
   10.1660  -14.5417   22.7206 O   0  0  0  0  0  0  0  0  0  0  0  0
   13.4934  -18.6280   21.1243 O   0  0  0  0  0  0  0  0  0  0  0  0
    6.0614  -11.1533   26.7116 N   0  0  0  0  0  0  0  0  0  0  0  0
    6.3188  -12.5010   26.3251 C   0  0  0  0  0  0  0  0  0  0  0  0
    5.3099  -13.1682   25.9257 O   0  0  0  0  0  0  0  0  0  0  0  0
    7.6910  -13.0776   26.3949 C   0  0  0  0  0  0  0  0  0  0  0  0
    7.9674  -14.1633   25.4287 C   0  0  0  0  0  0  0  0  0  0  0  0
    9.3585  -14.7538   25.4915 C   0  0  2  0  0  0  0  0  0  0  0  0
    9.3817  -15.8388   24.4815 N   0  0  0  0  0  0  0  0  0  0  0  0
    9.7062  -15.2877   26.8048 C   0  0  0  0  0  0  0  0  0  0  0  0
   10.1005  -14.4432   27.8207 O   0  0  0  0  0  0  0  0  0  0  0  0
    9.6460  -16.5160   27.0542 O   0  0  0  0  0  0  0  0  0  0  0  0
  1  2  1  0
  2  3  1  0
  3  5  1  0
  3  4  2  0
  5  6  1  0
  6 11  1  0
  6  7  1  6
  8  7  1  0
  9 13  1  0
  9  8  1  0
 10  9  2  0
 11 20  1  0
 11 12  2  0
 14 15  1  0
 15 17  1  0
 15 16  2  0
 17 18  1  0
 19 18  1  1
 19 21  1  0
 20 19  1  0
 21 22  1  0
 23 21  2  0
M  END
$$$$
