LAQ.pdb
     RDKit          3D

 23 22  0  0  1  0  0  0  0  0999 V2000
  743.4661  485.3912  975.1036 C   0  0  0  0  0  0  0  0  0  0  0  0
  743.4071  485.2450  976.6234 C   0  0  2  0  0  0  0  0  0  0  0  0
  742.3326  484.2516  977.0076 C   0  0  0  0  0  0  0  0  0  0  0  0
  743.0977  486.6159  977.1904 C   0  0  0  0  0  0  0  0  0  0  0  0
  741.8935  487.1687  976.4491 C   0  0  2  0  0  0  0  0  0  0  0  0
  741.3289  486.1458  975.6199 N   0  0  0  0  0  0  0  0  0  0  0  0
  742.3646  488.3442  975.6795 C   0  0  0  0  0  0  0  0  0  0  0  0
  743.5061  488.2533  975.1478 O   0  0  0  0  0  0  0  0  0  0  0  0
  743.6953  490.3236  974.6489 C   0  0  0  0  0  0  0  0  0  0  0  0
  742.2401  490.6774  974.9427 C   0  0  2  0  0  0  0  0  0  0  0  0
  741.6050  489.5356  975.5209 N   0  0  0  0  0  0  0  0  0  0  0  0
  741.6331  491.0573  973.6265 C   0  0  0  0  0  0  0  0  0  0  0  0
  740.5976  491.7599  973.6357 O   0  0  0  0  0  0  0  0  0  0  0  0
  742.7969  496.2820  972.6971 N   0  0  0  0  0  0  0  0  0  0  0  0
  742.5231  494.9037  972.8950 C   0  0  0  0  0  0  0  0  0  0  0  0
  742.3088  494.4812  974.0383 O   0  0  0  0  0  0  0  0  0  0  0  0
  742.5018  494.0106  971.7275 C   0  0  0  0  0  0  0  0  0  0  0  0
  743.2402  492.7470  971.9565 C   0  0  0  0  0  0  0  0  0  0  0  0
  742.6920  491.5120  971.3597 C   0  0  2  0  0  0  0  0  0  0  0  0
  742.2033  490.6411  972.3942 N   0  0  0  0  0  0  0  0  0  0  0  0
  743.5938  490.8191  970.4009 C   0  0  0  0  0  0  0  0  0  0  0  0
  743.1140  489.7046  969.7437 O   0  0  0  0  0  0  0  0  0  0  0  0
  744.7523  491.1906  970.1588 O   0  0  0  0  0  0  0  0  0  0  0  0
  2  1  1  6
  2  3  1  0
  4  2  1  0
  5  4  1  0
  5  6  1  6
  7  8  2  0
  7  5  1  0
 10  9  1  6
 10 12  1  0
 10 11  1  0
 11  7  1  0
 12 20  1  0
 13 12  2  0
 15 14  1  0
 16 15  2  0
 17 15  1  0
 18 17  1  0
 19 18  1  1
 20 19  1  0
 21 22  1  0
 21 19  1  0
 23 21  2  0
M  END
$$$$
