LAQ.pdb
     RDKit          3D

 23 22  0  0  1  0  0  0  0  0999 V2000
   22.8308  -15.8663  -14.6548 C   0  0  0  0  0  0  0  0  0  0  0  0
   22.4943  -15.9356  -16.1440 C   0  0  2  0  0  0  0  0  0  0  0  0
   23.6718  -16.4890  -16.9166 C   0  0  0  0  0  0  0  0  0  0  0  0
   22.1730  -14.5245  -16.5935 C   0  0  0  0  0  0  0  0  0  0  0  0
   20.9655  -14.0460  -15.8076 C   0  0  2  0  0  0  0  0  0  0  0  0
   19.8742  -14.9531  -16.0037 N   0  0  0  0  0  0  0  0  0  0  0  0
   20.6667  -12.6709  -16.2731 C   0  0  0  0  0  0  0  0  0  0  0  0
   21.5798  -11.8115  -16.1256 O   0  0  0  0  0  0  0  0  0  0  0  0
   17.9238  -10.8163  -18.0044 C   0  0  0  0  0  0  0  0  0  0  0  0
   19.2557  -10.9335  -17.2692 C   0  0  2  0  0  0  0  0  0  0  0  0
   19.4294  -12.2920  -16.8618 N   0  0  0  0  0  0  0  0  0  0  0  0
   19.1671   -9.9988  -16.1012 C   0  0  0  0  0  0  0  0  0  0  0  0
   18.6857  -10.4354  -15.0320 O   0  0  0  0  0  0  0  0  0  0  0  0
   23.1699   -5.5396  -15.0700 N   0  0  0  0  0  0  0  0  0  0  0  0
   22.1945   -5.1129  -14.1319 C   0  0  0  0  0  0  0  0  0  0  0  0
   22.4516   -4.1743  -13.3674 O   0  0  0  0  0  0  0  0  0  0  0  0
   20.8974   -5.8035  -14.0938 C   0  0  0  0  0  0  0  0  0  0  0  0
   20.7789   -6.8618  -15.1236 C   0  0  0  0  0  0  0  0  0  0  0  0
   19.5483   -7.6790  -15.1316 C   0  0  2  0  0  0  0  0  0  0  0  0
   19.6120   -8.6529  -16.1877 N   0  0  0  0  0  0  0  0  0  0  0  0
   18.2769   -6.9072  -15.1348 C   0  0  0  0  0  0  0  0  0  0  0  0
   17.6253   -6.7295  -16.3381 O   0  0  0  0  0  0  0  0  0  0  0  0
   17.7701   -6.4172  -14.1138 O   0  0  0  0  0  0  0  0  0  0  0  0
  2  1  1  1
  2  3  1  0
  4  2  1  0
  5  4  1  0
  5  6  1  6
  7  8  2  0
  7  5  1  0
 10  9  1  1
 10 12  1  0
 10 11  1  0
 11  7  1  0
 12 20  1  0
 13 12  2  0
 15 14  1  0
 16 15  2  0
 17 15  1  0
 18 17  1  0
 19 18  1  6
 20 19  1  0
 21 22  1  0
 21 19  1  0
 23 21  2  0
M  END
$$$$
