LAQ.pdb
     RDKit          3D

 23 22  0  0  1  0  0  0  0  0999 V2000
   15.6581  -13.2516  -14.5989 C   0  0  0  0  0  0  0  0  0  0  0  0
   16.7423  -12.8264  -15.5887 C   0  0  2  0  0  0  0  0  0  0  0  0
   17.5771  -14.0231  -15.9893 C   0  0  0  0  0  0  0  0  0  0  0  0
   17.5959  -11.7852  -14.8931 C   0  0  0  0  0  0  0  0  0  0  0  0
   18.4524  -11.1030  -15.9446 C   0  0  2  0  0  0  0  0  0  0  0  0
   19.5593  -11.9466  -16.2842 N   0  0  0  0  0  0  0  0  0  0  0  0
   18.8704   -9.7985  -15.3787 C   0  0  0  0  0  0  0  0  0  0  0  0
   17.9681   -9.0992  -14.8394 O   0  0  0  0  0  0  0  0  0  0  0  0
   21.9871   -7.8002  -14.8868 C   0  0  0  0  0  0  0  0  0  0  0  0
   20.4756   -8.0069  -14.9150 C   0  0  2  0  0  0  0  0  0  0  0  0
   20.2076   -9.3172  -15.4177 N   0  0  0  0  0  0  0  0  0  0  0  0
   19.9281   -6.9348  -15.8075 C   0  0  0  0  0  0  0  0  0  0  0  0
   19.4534   -7.2746  -16.9142 O   0  0  0  0  0  0  0  0  0  0  0  0
   14.9089   -3.8117  -18.2890 N   0  0  0  0  0  0  0  0  0  0  0  0
   15.6170   -4.2102  -17.1257 C   0  0  0  0  0  0  0  0  0  0  0  0
   15.0516   -4.9103  -16.2761 O   0  0  0  0  0  0  0  0  0  0  0  0
   17.0117   -3.7761  -16.9610 C   0  0  0  0  0  0  0  0  0  0  0  0
   17.8685   -4.8156  -16.3446 C   0  0  0  0  0  0  0  0  0  0  0  0
   19.2940   -4.4932  -16.1294 C   0  0  2  0  0  0  0  0  0  0  0  0
   19.9397   -5.5673  -15.4243 N   0  0  0  0  0  0  0  0  0  0  0  0
   19.5560   -3.1627  -15.5185 C   0  0  0  0  0  0  0  0  0  0  0  0
   19.7317   -2.0826  -16.3591 O   0  0  0  0  0  0  0  0  0  0  0  0
   19.6225   -2.9719  -14.2943 O   0  0  0  0  0  0  0  0  0  0  0  0
  2  1  1  1
  2  3  1  0
  4  2  1  0
  5  4  1  0
  5  6  1  1
  7  8  2  0
  7  5  1  0
 10  9  1  6
 10 12  1  0
 10 11  1  0
 11  7  1  0
 12 20  1  0
 13 12  2  0
 15 14  1  0
 16 15  2  0
 17 15  1  0
 18 17  1  0
 19 18  1  1
 20 19  1  0
 21 22  1  0
 21 19  1  0
 23 21  2  0
M  END
$$$$
