LAQ.pdb
     RDKit          3D

 23 22  0  0  1  0  0  0  0  0999 V2000
   28.9766  -17.7707  -15.2250 C   0  0  0  0  0  0  0  0  0  0  0  0
   27.6613  -18.0403  -15.9552 C   0  0  2  0  0  0  0  0  0  0  0  0
   27.0627  -16.7390  -16.4429 C   0  0  0  0  0  0  0  0  0  0  0  0
   26.7352  -18.7200  -14.9669 C   0  0  0  0  0  0  0  0  0  0  0  0
   27.3922  -20.0145  -14.5231 C   0  0  2  0  0  0  0  0  0  0  0  0
   27.7686  -20.7813  -15.6732 N   0  0  0  0  0  0  0  0  0  0  0  0
   26.4180  -20.7151  -13.6532 C   0  0  0  0  0  0  0  0  0  0  0  0
   25.5862  -21.4713  -14.2278 O   0  0  0  0  0  0  0  0  0  0  0  0
   25.4512  -20.8089  -10.0423 C   0  0  0  0  0  0  0  0  0  0  0  0
   25.2444  -21.0673  -11.5318 C   0  0  2  0  0  0  0  0  0  0  0  0
   26.3836  -20.5738  -12.2389 N   0  0  0  0  0  0  0  0  0  0  0  0
   23.9874  -20.3426  -11.9066 C   0  0  0  0  0  0  0  0  0  0  0  0
   24.0879  -19.1724  -12.3380 O   0  0  0  0  0  0  0  0  0  0  0  0
   22.5371  -19.0960  -16.0605 N   0  0  0  0  0  0  0  0  0  0  0  0
   21.2076  -19.5921  -16.0591 C   0  0  0  0  0  0  0  0  0  0  0  0
   20.4231  -19.2397  -16.9489 O   0  0  0  0  0  0  0  0  0  0  0  0
   20.7968  -20.5163  -14.9923 C   0  0  0  0  0  0  0  0  0  0  0  0
   21.8766  -20.7810  -14.0133 C   0  0  0  0  0  0  0  0  0  0  0  0
   21.5532  -20.6431  -12.5785 C   0  0  2  0  0  0  0  0  0  0  0  0
   22.7102  -20.9512  -11.7822 N   0  0  0  0  0  0  0  0  0  0  0  0
   20.3355  -21.3712  -12.1322 C   0  0  0  0  0  0  0  0  0  0  0  0
   19.1256  -20.7094  -12.1813 O   0  0  0  0  0  0  0  0  0  0  0  0
   20.3491  -22.5416  -11.7207 O   0  0  0  0  0  0  0  0  0  0  0  0
  2  1  1  1
  2  3  1  0
  4  2  1  0
  5  4  1  0
  5  6  1  6
  7  8  2  0
  7  5  1  0
 10  9  1  1
 10 12  1  0
 10 11  1  0
 11  7  1  0
 12 20  1  0
 13 12  2  0
 15 14  1  0
 16 15  2  0
 17 15  1  0
 18 17  1  0
 19 18  1  6
 20 19  1  0
 21 22  1  0
 21 19  1  0
 23 21  2  0
M  END
$$$$
