LAQ.pdb
     RDKit          3D

 23 22  0  0  1  0  0  0  0  0999 V2000
   33.9600  -21.7856    6.8261 C   0  0  0  0  0  0  0  0  0  0  0  0
   34.3164  -21.9988    5.3553 C   0  0  2  0  0  0  0  0  0  0  0  0
   33.2479  -21.3954    4.4699 C   0  0  0  0  0  0  0  0  0  0  0  0
   34.4150  -23.4947    5.1339 C   0  0  0  0  0  0  0  0  0  0  0  0
   35.5533  -24.0209    5.9895 C   0  0  2  0  0  0  0  0  0  0  0  0
   36.7863  -23.9130    5.2682 N   0  0  0  0  0  0  0  0  0  0  0  0
   35.2119  -25.4179    6.3477 C   0  0  0  0  0  0  0  0  0  0  0  0
   35.0565  -26.2267    5.3908 O   0  0  0  0  0  0  0  0  0  0  0  0
   35.1234  -27.5799    9.3670 C   0  0  0  0  0  0  0  0  0  0  0  0
   34.7974  -27.2575    7.9117 C   0  0  2  0  0  0  0  0  0  0  0  0
   35.0570  -25.8706    7.6865 N   0  0  0  0  0  0  0  0  0  0  0  0
   33.3504  -27.6003    7.7263 C   0  0  0  0  0  0  0  0  0  0  0  0
   32.5052  -26.6894    7.8736 O   0  0  0  0  0  0  0  0  0  0  0  0
   31.4980  -32.0648    3.9811 N   0  0  0  0  0  0  0  0  0  0  0  0
   30.2471  -31.8236    4.6060 C   0  0  0  0  0  0  0  0  0  0  0  0
   29.2368  -32.4099    4.1972 O   0  0  0  0  0  0  0  0  0  0  0  0
   30.1861  -30.8765    5.7285 C   0  0  0  0  0  0  0  0  0  0  0  0
   31.5140  -30.3299    6.0925 C   0  0  0  0  0  0  0  0  0  0  0  0
   31.5731  -29.3367    7.1845 C   0  0  2  0  0  0  0  0  0  0  0  0
   32.9323  -28.9160    7.3930 N   0  0  0  0  0  0  0  0  0  0  0  0
   30.8951  -29.7416    8.4448 C   0  0  0  0  0  0  0  0  0  0  0  0
   29.5438  -29.4903    8.5677 O   0  0  0  0  0  0  0  0  0  0  0  0
   31.4785  -30.2950    9.3896 O   0  0  0  0  0  0  0  0  0  0  0  0
  2  1  1  1
  2  3  1  0
  4  2  1  0
  5  4  1  0
  5  6  1  6
  7  8  2  0
  7  5  1  0
 10  9  1  1
 10 12  1  0
 10 11  1  0
 11  7  1  0
 12 20  1  0
 13 12  2  0
 15 14  1  0
 16 15  2  0
 17 15  1  0
 18 17  1  0
 19 18  1  6
 20 19  1  0
 21 22  1  0
 21 19  1  0
 23 21  2  0
M  END
$$$$
