LAQ.pdb
     RDKit          3D

 23 22  0  0  1  0  0  0  0  0999 V2000
   21.3551  -14.2259  -19.3520 C   0  0  0  0  0  0  0  0  0  0  0  0
   20.0841  -14.8833  -19.8888 C   0  0  2  0  0  0  0  0  0  0  0  0
   20.2659  -15.2516  -21.3451 C   0  0  0  0  0  0  0  0  0  0  0  0
   18.9610  -13.8790  -19.7254 C   0  0  0  0  0  0  0  0  0  0  0  0
   18.8197  -13.5708  -18.2456 C   0  0  2  0  0  0  0  0  0  0  0  0
   18.4214  -14.7546  -17.5440 N   0  0  0  0  0  0  0  0  0  0  0  0
   17.8356  -12.4688  -18.1279 C   0  0  0  0  0  0  0  0  0  0  0  0
   16.8476  -12.5048  -18.9131 O   0  0  0  0  0  0  0  0  0  0  0  0
   16.0501  -10.6731  -15.9351 C   0  0  0  0  0  0  0  0  0  0  0  0
   16.9289  -10.4115  -17.1547 C   0  0  2  0  0  0  0  0  0  0  0  0
   17.9559  -11.4041  -17.1935 N   0  0  0  0  0  0  0  0  0  0  0  0
   17.4825   -9.0303  -16.9770 C   0  0  0  0  0  0  0  0  0  0  0  0
   16.7668   -8.1773  -16.4063 O   0  0  0  0  0  0  0  0  0  0  0  0
   22.7486   -5.0686  -14.4942 N   0  0  0  0  0  0  0  0  0  0  0  0
   21.6471   -5.9488  -14.6539 C   0  0  0  0  0  0  0  0  0  0  0  0
   21.2833   -6.6513  -13.7023 O   0  0  0  0  0  0  0  0  0  0  0  0
   20.9653   -6.0026  -15.9551 C   0  0  0  0  0  0  0  0  0  0  0  0
   20.2109   -7.2613  -16.1576 C   0  0  0  0  0  0  0  0  0  0  0  0
   19.3713   -7.3729  -17.3679 C   0  0  2  0  0  0  0  0  0  0  0  0
   18.7803   -8.6820  -17.4369 N   0  0  0  0  0  0  0  0  0  0  0  0
   20.0352   -6.9724  -18.6370 C   0  0  0  0  0  0  0  0  0  0  0  0
   20.1445   -7.9131  -19.6406 O   0  0  0  0  0  0  0  0  0  0  0  0
   20.4935   -5.8378  -18.8423 O   0  0  0  0  0  0  0  0  0  0  0  0
  2  1  1  6
  2  3  1  0
  4  2  1  0
  5  4  1  0
  5  6  1  1
  7  8  2  0
  7  5  1  0
 10  9  1  1
 10 12  1  0
 10 11  1  0
 11  7  1  0
 12 20  1  0
 13 12  2  0
 15 14  1  0
 16 15  2  0
 17 15  1  0
 18 17  1  0
 19 18  1  1
 20 19  1  0
 21 22  1  0
 21 19  1  0
 23 21  2  0
M  END
$$$$
