LAQ.pdb
     RDKit          3D

 23 22  0  0  1  0  0  0  0  0999 V2000
   25.3028  -21.0290   -7.4741 C   0  0  0  0  0  0  0  0  0  0  0  0
   26.5497  -20.4865   -8.1719 C   0  0  2  0  0  0  0  0  0  0  0  0
   27.1339  -19.3413   -7.3738 C   0  0  0  0  0  0  0  0  0  0  0  0
   26.1210  -20.0180   -9.5478 C   0  0  0  0  0  0  0  0  0  0  0  0
   25.6903  -21.2364  -10.3444 C   0  0  2  0  0  0  0  0  0  0  0  0
   26.7937  -22.1409  -10.4734 N   0  0  0  0  0  0  0  0  0  0  0  0
   25.1906  -20.7423  -11.6494 C   0  0  0  0  0  0  0  0  0  0  0  0
   24.3341  -19.8154  -11.6144 O   0  0  0  0  0  0  0  0  0  0  0  0
   25.6593  -21.4404  -15.2929 C   0  0  0  0  0  0  0  0  0  0  0  0
   25.0542  -20.7138  -14.0953 C   0  0  2  0  0  0  0  0  0  0  0  0
   25.6244  -21.2553  -12.9023 N   0  0  0  0  0  0  0  0  0  0  0  0
   23.5760  -20.9476  -14.1734 C   0  0  0  0  0  0  0  0  0  0  0  0
   23.1201  -22.0060  -13.6859 O   0  0  0  0  0  0  0  0  0  0  0  0
   18.3553  -17.3779  -14.2746 N   0  0  0  0  0  0  0  0  0  0  0  0
   19.2574  -17.4907  -13.1851 C   0  0  0  0  0  0  0  0  0  0  0  0
   18.9902  -16.9374  -12.1109 O   0  0  0  0  0  0  0  0  0  0  0  0
   20.4932  -18.2662  -13.3650 C   0  0  0  0  0  0  0  0  0  0  0  0
   20.6363  -18.8104  -14.7353 C   0  0  0  0  0  0  0  0  0  0  0  0
   21.2746  -20.1340  -14.8866 C   0  0  2  0  0  0  0  0  0  0  0  0
   22.7029  -20.0058  -14.7796 N   0  0  0  0  0  0  0  0  0  0  0  0
   20.8532  -20.9057  -16.0861 C   0  0  0  0  0  0  0  0  0  0  0  0
   19.6131  -21.5107  -16.0694 O   0  0  0  0  0  0  0  0  0  0  0  0
   21.5556  -21.0325  -17.1010 O   0  0  0  0  0  0  0  0  0  0  0  0
  2  1  1  1
  2  3  1  0
  4  2  1  0
  5  4  1  0
  5  6  1  6
  7  8  2  0
  7  5  1  0
 10  9  1  6
 10 12  1  0
 10 11  1  0
 11  7  1  0
 12 20  1  0
 13 12  2  0
 15 14  1  0
 16 15  2  0
 17 15  1  0
 18 17  1  0
 19 18  1  6
 20 19  1  0
 21 22  1  0
 21 19  1  0
 23 21  2  0
M  END
$$$$
