LAQ.pdb
     RDKit          3D

 23 22  0  0  1  0  0  0  0  0999 V2000
   27.9725  -14.8909  -16.3574 C   0  0  0  0  0  0  0  0  0  0  0  0
   26.4790  -15.1993  -16.4581 C   0  0  2  0  0  0  0  0  0  0  0  0
   25.6807  -14.1427  -15.7261 C   0  0  0  0  0  0  0  0  0  0  0  0
   26.2635  -16.5633  -15.8339 C   0  0  0  0  0  0  0  0  0  0  0  0
   27.1774  -17.5503  -16.5375 C   0  0  2  0  0  0  0  0  0  0  0  0
   26.7801  -17.6807  -17.9076 N   0  0  0  0  0  0  0  0  0  0  0  0
   27.0936  -18.8250  -15.7861 C   0  0  0  0  0  0  0  0  0  0  0  0
   26.0595  -19.5253  -15.9712 O   0  0  0  0  0  0  0  0  0  0  0  0
   29.1099  -20.7838  -13.3214 C   0  0  0  0  0  0  0  0  0  0  0  0
   27.8613  -20.4691  -14.1400 C   0  0  2  0  0  0  0  0  0  0  0  0
   28.1014  -19.2777  -14.8913 N   0  0  0  0  0  0  0  0  0  0  0  0
   26.7493  -20.2999  -13.1498 C   0  0  0  0  0  0  0  0  0  0  0  0
   26.4510  -19.1388  -12.7911 O   0  0  0  0  0  0  0  0  0  0  0  0
   24.4520  -20.6232   -8.0406 N   0  0  0  0  0  0  0  0  0  0  0  0
   25.8462  -20.7785   -8.2543 C   0  0  0  0  0  0  0  0  0  0  0  0
   26.5914  -20.9970   -7.2908 O   0  0  0  0  0  0  0  0  0  0  0  0
   26.3697  -20.6734   -9.6239 C   0  0  0  0  0  0  0  0  0  0  0  0
   25.3214  -20.3405  -10.6162 C   0  0  0  0  0  0  0  0  0  0  0  0
   24.9961  -21.3548  -11.6397 C   0  0  2  0  0  0  0  0  0  0  0  0
   26.0435  -21.4141  -12.6232 N   0  0  0  0  0  0  0  0  0  0  0  0
   23.6432  -21.2310  -12.2449 C   0  0  0  0  0  0  0  0  0  0  0  0
   22.5496  -21.2366  -11.4034 O   0  0  0  0  0  0  0  0  0  0  0  0
   23.4457  -21.1206  -13.4648 O   0  0  0  0  0  0  0  0  0  0  0  0
  2  1  1  1
  2  3  1  0
  4  2  1  0
  5  4  1  0
  5  6  1  6
  7  8  2  0
  7  5  1  0
 10  9  1  1
 10 12  1  0
 10 11  1  0
 11  7  1  0
 12 20  1  0
 13 12  2  0
 15 14  1  0
 16 15  2  0
 17 15  1  0
 18 17  1  0
 19 18  1  1
 20 19  1  0
 21 22  1  0
 21 19  1  0
 23 21  2  0
M  END
$$$$
