LAQ.pdb
     RDKit          3D

 23 22  0  0  1  0  0  0  0  0999 V2000
   17.7305  -14.4870  -16.9140 C   0  0  0  0  0  0  0  0  0  0  0  0
   19.0195  -14.7056  -16.1225 C   0  0  2  0  0  0  0  0  0  0  0  0
   18.8136  -15.7870  -15.0844 C   0  0  0  0  0  0  0  0  0  0  0  0
   19.3650  -13.3863  -15.4618 C   0  0  0  0  0  0  0  0  0  0  0  0
   19.7112  -12.3914  -16.5550 C   0  0  2  0  0  0  0  0  0  0  0  0
   20.7227  -12.9445  -17.4054 N   0  0  0  0  0  0  0  0  0  0  0  0
   20.1403  -11.1434  -15.8805 C   0  0  0  0  0  0  0  0  0  0  0  0
   19.3588  -10.6732  -15.0075 O   0  0  0  0  0  0  0  0  0  0  0  0
   23.0875   -8.8553  -15.7827 C   0  0  0  0  0  0  0  0  0  0  0  0
   21.6409   -9.2458  -15.4943 C   0  0  2  0  0  0  0  0  0  0  0  0
   21.3609  -10.4739  -16.1687 N   0  0  0  0  0  0  0  0  0  0  0  0
   20.7982   -8.1156  -16.0025 C   0  0  0  0  0  0  0  0  0  0  0  0
   20.2078   -8.2657  -17.0954 O   0  0  0  0  0  0  0  0  0  0  0  0
   15.7800   -7.1637  -15.6403 N   0  0  0  0  0  0  0  0  0  0  0  0
   16.1300   -6.2642  -16.6805 C   0  0  0  0  0  0  0  0  0  0  0  0
   15.2677   -5.9024  -17.4911 O   0  0  0  0  0  0  0  0  0  0  0  0
   17.5170   -5.7852  -16.7669 C   0  0  0  0  0  0  0  0  0  0  0  0
   18.3817   -6.3307  -15.6948 C   0  0  0  0  0  0  0  0  0  0  0  0
   19.7669   -5.8254  -15.6045 C   0  0  2  0  0  0  0  0  0  0  0  0
   20.6623   -6.9020  -15.2775 N   0  0  0  0  0  0  0  0  0  0  0  0
   19.9504   -4.6368  -14.7297 C   0  0  0  0  0  0  0  0  0  0  0  0
   19.3989   -3.4383  -15.1341 O   0  0  0  0  0  0  0  0  0  0  0  0
   20.5704   -4.6658  -13.6553 O   0  0  0  0  0  0  0  0  0  0  0  0
  2  1  1  1
  2  3  1  0
  4  2  1  0
  5  4  1  0
  5  6  1  1
  7  8  2  0
  7  5  1  0
 10  9  1  6
 10 12  1  0
 10 11  1  0
 11  7  1  0
 12 20  1  0
 13 12  2  0
 15 14  1  0
 16 15  2  0
 17 15  1  0
 18 17  1  0
 19 18  1  1
 20 19  1  0
 21 22  1  0
 21 19  1  0
 23 21  2  0
M  END
$$$$
