KCQ.pdb
     RDKit          3D

 25 24  0  0  1  0  0  0  0  0999 V2000
   18.3546  -12.9480  -17.0950 N   0  0  0  0  0  0  0  0  0  0  0  0
   19.5619  -12.1970  -16.9104 C   0  0  1  0  0  0  0  0  0  0  0  0
   20.5296  -12.3621  -18.0116 C   0  0  0  0  0  0  0  0  0  0  0  0
   21.1008  -13.7284  -18.1182 C   0  0  0  0  0  0  0  0  0  0  0  0
   22.1271  -13.8647  -19.1768 C   0  0  0  0  0  0  0  0  0  0  0  0
   22.6977  -15.3033  -19.1493 C   0  0  0  0  0  0  0  0  0  0  0  0
   23.7882  -15.3547  -20.1089 N   0  0  0  0  0  0  0  0  0  0  0  0
   19.2661  -10.7507  -16.6258 C   0  0  0  0  0  0  0  0  0  0  0  0
   18.6560  -10.0488  -17.4716 O   0  0  0  0  0  0  0  0  0  0  0  0
   19.6527  -10.1215  -15.4149 N   0  0  0  0  0  0  0  0  0  0  0  0
   19.3507   -8.7622  -15.1189 C   0  0  1  0  0  0  0  0  0  0  0  0
   18.2995   -8.7258  -14.0102 C   0  0  0  0  0  0  0  0  0  0  0  0
   16.7556   -9.4492  -14.6096 S   0  0  0  0  0  0  0  0  0  0  0  0
   20.5048   -7.9373  -14.7754 C   0  0  0  0  0  0  0  0  0  0  0  0
   21.4504   -8.3354  -14.0569 O   0  0  0  0  0  0  0  0  0  0  0  0
   21.9337   -2.3771  -17.5935 N   0  0  0  0  0  0  0  0  0  0  0  0
   22.9165   -2.4778  -16.5760 C   0  0  0  0  0  0  0  0  0  0  0  0
   23.7697   -1.5596  -16.4815 O   0  0  0  0  0  0  0  0  0  0  0  0
   22.8980   -3.6482  -15.6755 C   0  0  0  0  0  0  0  0  0  0  0  0
   21.7385   -4.5723  -15.9744 C   0  0  0  0  0  0  0  0  0  0  0  0
   21.7405   -5.7821  -15.0706 C   0  0  2  0  0  0  0  0  0  0  0  0
   20.5746   -6.6118  -15.2739 N   0  0  0  0  0  0  0  0  0  0  0  0
   21.7480   -5.3415  -13.6601 C   0  0  0  0  0  0  0  0  0  0  0  0
   22.8301   -5.1411  -13.0658 O   0  0  0  0  0  0  0  0  0  0  0  0
   20.5691   -5.1421  -12.9710 O   0  0  0  0  0  0  0  0  0  0  0  0
  2  8  1  0
  2  1  1  6
  3  2  1  0
  4  3  1  0
  5  4  1  0
  6  5  1  0
  6  7  1  0
  8  9  2  0
 10 11  1  0
 10  8  1  0
 11 12  1  1
 12 13  1  0
 14 11  1  0
 15 14  2  0
 16 17  1  0
 17 19  1  0
 17 18  2  0
 19 20  1  0
 21 20  1  6
 21 22  1  0
 21 23  1  0
 22 14  1  0
 23 25  1  0
 24 23  2  0
M  END
$$$$
