KCQ.pdb
     RDKit          3D

 25 24  0  0  1  0  0  0  0  0999 V2000
   17.9003  -12.6874  -16.6222 N   0  0  0  0  0  0  0  0  0  0  0  0
   19.1821  -12.0481  -16.5583 C   0  0  1  0  0  0  0  0  0  0  0  0
   20.0325  -12.3203  -17.7326 C   0  0  0  0  0  0  0  0  0  0  0  0
   20.2364  -13.7640  -18.0131 C   0  0  0  0  0  0  0  0  0  0  0  0
   21.1417  -14.0275  -19.1548 C   0  0  0  0  0  0  0  0  0  0  0  0
   21.3179  -15.5563  -19.3213 C   0  0  0  0  0  0  0  0  0  0  0  0
   22.1613  -15.7703  -20.4856 N   0  0  0  0  0  0  0  0  0  0  0  0
   19.0441  -10.5761  -16.2854 C   0  0  0  0  0  0  0  0  0  0  0  0
   18.1032   -9.9202  -16.7999 O   0  0  0  0  0  0  0  0  0  0  0  0
   19.9494   -9.8711  -15.4518 N   0  0  0  0  0  0  0  0  0  0  0  0
   19.7670   -8.5058  -15.0924 C   0  0  1  0  0  0  0  0  0  0  0  0
   18.4743   -8.3814  -14.2869 C   0  0  0  0  0  0  0  0  0  0  0  0
   18.6336   -9.2914  -12.7336 S   0  0  0  0  0  0  0  0  0  0  0  0
   20.8894   -7.9029  -14.3802 C   0  0  0  0  0  0  0  0  0  0  0  0
   21.8929   -8.5477  -13.9980 O   0  0  0  0  0  0  0  0  0  0  0  0
   24.2380   -6.0241  -17.7659 N   0  0  0  0  0  0  0  0  0  0  0  0
   24.7884   -5.1935  -16.7567 C   0  0  0  0  0  0  0  0  0  0  0  0
   25.8787   -4.6145  -16.9933 O   0  0  0  0  0  0  0  0  0  0  0  0
   24.0640   -5.0435  -15.4784 C   0  0  0  0  0  0  0  0  0  0  0  0
   22.7691   -5.8251  -15.4682 C   0  0  0  0  0  0  0  0  0  0  0  0
   22.0508   -5.6995  -14.1457 C   0  0  2  0  0  0  0  0  0  0  0  0
   20.8576   -6.5138  -14.0982 N   0  0  0  0  0  0  0  0  0  0  0  0
   21.6528   -4.2920  -13.9348 C   0  0  0  0  0  0  0  0  0  0  0  0
   20.6000   -3.8493  -14.4448 O   0  0  0  0  0  0  0  0  0  0  0  0
   22.4282   -3.4397  -13.1755 O   0  0  0  0  0  0  0  0  0  0  0  0
  2  8  1  0
  2  1  1  6
  3  2  1  0
  4  3  1  0
  5  4  1  0
  6  5  1  0
  6  7  1  0
  8  9  2  0
 10 11  1  0
 10  8  1  0
 11 12  1  1
 12 13  1  0
 14 11  1  0
 15 14  2  0
 16 17  1  0
 17 19  1  0
 17 18  2  0
 19 20  1  0
 21 20  1  6
 21 22  1  0
 21 23  1  0
 22 14  1  0
 23 25  1  0
 24 23  2  0
M  END
$$$$
