KCQ.pdb
     RDKit          3D

 25 24  0  0  1  0  0  0  0  0999 V2000
   23.4764  -21.5358  -14.2573 N   0  0  0  0  0  0  0  0  0  0  0  0
   22.5989  -20.4748  -14.6572 C   0  0  1  0  0  0  0  0  0  0  0  0
   21.2668  -20.5466  -14.0276 C   0  0  0  0  0  0  0  0  0  0  0  0
   20.4796  -21.7471  -14.4071 C   0  0  0  0  0  0  0  0  0  0  0  0
   19.5677  -21.5246  -15.5522 C   0  0  0  0  0  0  0  0  0  0  0  0
   18.8584  -22.8551  -15.9028 C   0  0  0  0  0  0  0  0  0  0  0  0
   18.0134  -22.6034  -17.0584 N   0  0  0  0  0  0  0  0  0  0  0  0
   23.2460  -19.1312  -14.4667 C   0  0  0  0  0  0  0  0  0  0  0  0
   23.1576  -18.5343  -13.3639 O   0  0  0  0  0  0  0  0  0  0  0  0
   23.9721  -18.4857  -15.5000 N   0  0  0  0  0  0  0  0  0  0  0  0
   24.5500  -17.1937  -15.3483 C   0  0  1  0  0  0  0  0  0  0  0  0
   26.0529  -17.3544  -15.1223 C   0  0  0  0  0  0  0  0  0  0  0  0
   26.7924  -15.7435  -14.7698 S   0  0  0  0  0  0  0  0  0  0  0  0
   24.2801  -16.2675  -16.4436 C   0  0  0  0  0  0  0  0  0  0  0  0
   24.4384  -16.5595  -17.6514 O   0  0  0  0  0  0  0  0  0  0  0  0
   19.9821  -14.1303  -15.3310 N   0  0  0  0  0  0  0  0  0  0  0  0
   19.9832  -14.8369  -16.5607 C   0  0  0  0  0  0  0  0  0  0  0  0
   19.0778  -15.6861  -16.7585 O   0  0  0  0  0  0  0  0  0  0  0  0
   21.0398  -14.5488  -17.5516 C   0  0  0  0  0  0  0  0  0  0  0  0
   22.0354  -13.5335  -17.0361 C   0  0  0  0  0  0  0  0  0  0  0  0
   23.4571  -14.0224  -17.1790 C   0  0  2  0  0  0  0  0  0  0  0  0
   23.8129  -14.9634  -16.1413 N   0  0  0  0  0  0  0  0  0  0  0  0
   24.3825  -12.8736  -17.0916 C   0  0  0  0  0  0  0  0  0  0  0  0
   25.2663  -12.8392  -16.2072 O   0  0  0  0  0  0  0  0  0  0  0  0
   24.2936  -11.8194  -17.9777 O   0  0  0  0  0  0  0  0  0  0  0  0
  2  8  1  0
  2  1  1  1
  3  2  1  0
  4  3  1  0
  5  4  1  0
  6  5  1  0
  6  7  1  0
  8  9  2  0
 10 11  1  0
 10  8  1  0
 11 12  1  6
 12 13  1  0
 14 11  1  0
 15 14  2  0
 16 17  1  0
 17 19  1  0
 17 18  2  0
 19 20  1  0
 21 20  1  1
 21 22  1  0
 21 23  1  0
 22 14  1  0
 23 25  1  0
 24 23  2  0
M  END
$$$$
