KCQ.pdb
     RDKit          3D

 25 24  0  0  1  0  0  0  0  0999 V2000
   25.3281  -21.2527  -14.5087 N   0  0  0  0  0  0  0  0  0  0  0  0
   24.4399  -20.7411  -15.5112 C   0  0  1  0  0  0  0  0  0  0  0  0
   23.1274  -21.4142  -15.5308 C   0  0  0  0  0  0  0  0  0  0  0  0
   23.0233  -22.5690  -14.6033 C   0  0  0  0  0  0  0  0  0  0  0  0
   21.7991  -22.5563  -13.7704 C   0  0  0  0  0  0  0  0  0  0  0  0
   20.5647  -22.7773  -14.6779 C   0  0  0  0  0  0  0  0  0  0  0  0
   19.4145  -22.9568  -13.8075 N   0  0  0  0  0  0  0  0  0  0  0  0
   24.3107  -19.2464  -15.4136 C   0  0  0  0  0  0  0  0  0  0  0  0
   23.1791  -18.7135  -15.2887 O   0  0  0  0  0  0  0  0  0  0  0  0
   25.4354  -18.3835  -15.4567 N   0  0  0  0  0  0  0  0  0  0  0  0
   25.3210  -16.9652  -15.4994 C   0  0  1  0  0  0  0  0  0  0  0  0
   26.6687  -16.3547  -15.1164 C   0  0  0  0  0  0  0  0  0  0  0  0
   26.5186  -14.5562  -15.0217 S   0  0  0  0  0  0  0  0  0  0  0  0
   24.8418  -16.4255  -16.7680 C   0  0  0  0  0  0  0  0  0  0  0  0
   25.2116  -16.8533  -17.8857 O   0  0  0  0  0  0  0  0  0  0  0  0
   20.3764  -17.5778  -19.5609 N   0  0  0  0  0  0  0  0  0  0  0  0
   19.9358  -16.2637  -19.2604 C   0  0  0  0  0  0  0  0  0  0  0  0
   18.7228  -15.9881  -19.4412 O   0  0  0  0  0  0  0  0  0  0  0  0
   20.9122  -15.2795  -18.7512 C   0  0  0  0  0  0  0  0  0  0  0  0
   22.2605  -15.9097  -18.4814 C   0  0  0  0  0  0  0  0  0  0  0  0
   23.2543  -14.9006  -17.9570 C   0  0  2  0  0  0  0  0  0  0  0  0
   23.9071  -15.3594  -16.7519 N   0  0  0  0  0  0  0  0  0  0  0  0
   22.5534  -13.6376  -17.6451 C   0  0  0  0  0  0  0  0  0  0  0  0
   22.5462  -13.1901  -16.4771 O   0  0  0  0  0  0  0  0  0  0  0  0
   21.8953  -12.9276  -18.6286 O   0  0  0  0  0  0  0  0  0  0  0  0
  2  8  1  0
  2  1  1  1
  3  2  1  0
  4  3  1  0
  5  4  1  0
  6  5  1  0
  6  7  1  0
  8  9  2  0
 10 11  1  0
 10  8  1  0
 11 12  1  6
 12 13  1  0
 14 11  1  0
 15 14  2  0
 16 17  1  0
 17 19  1  0
 17 18  2  0
 19 20  1  0
 21 20  1  1
 21 22  1  0
 21 23  1  0
 22 14  1  0
 23 25  1  0
 24 23  2  0
M  END
$$$$
