KCQ.pdb
     RDKit          3D

 25 24  0  0  1  0  0  0  0  0999 V2000
   28.4803  -21.4654  -16.8845 N   0  0  0  0  0  0  0  0  0  0  0  0
   27.6097  -21.2921  -15.7585 C   0  0  1  0  0  0  0  0  0  0  0  0
   27.6735  -19.9408  -15.1703 C   0  0  0  0  0  0  0  0  0  0  0  0
   26.7562  -19.7348  -14.0211 C   0  0  0  0  0  0  0  0  0  0  0  0
   26.9429  -20.7140  -12.9262 C   0  0  0  0  0  0  0  0  0  0  0  0
   25.8345  -20.5078  -11.8656 C   0  0  0  0  0  0  0  0  0  0  0  0
   26.0100  -21.5340  -10.8513 N   0  0  0  0  0  0  0  0  0  0  0  0
   26.2017  -21.7019  -16.0900 C   0  0  0  0  0  0  0  0  0  0  0  0
   25.5526  -21.0872  -16.9737 O   0  0  0  0  0  0  0  0  0  0  0  0
   25.5513  -22.7791  -15.4356 N   0  0  0  0  0  0  0  0  0  0  0  0
   24.2008  -23.1431  -15.7006 C   0  0  1  0  0  0  0  0  0  0  0  0
   23.9711  -24.5675  -15.1967 C   0  0  0  0  0  0  0  0  0  0  0  0
   24.2740  -24.6409  -13.4165 S   0  0  0  0  0  0  0  0  0  0  0  0
   23.2006  -22.2275  -15.1605 C   0  0  0  0  0  0  0  0  0  0  0  0
   23.3554  -21.5821  -14.0982 O   0  0  0  0  0  0  0  0  0  0  0  0
   20.8941  -17.3758  -17.3344 N   0  0  0  0  0  0  0  0  0  0  0  0
   19.8482  -17.6409  -16.4140 C   0  0  0  0  0  0  0  0  0  0  0  0
   18.9616  -16.7644  -16.2538 O   0  0  0  0  0  0  0  0  0  0  0  0
   19.8430  -18.9262  -15.6864 C   0  0  0  0  0  0  0  0  0  0  0  0
   20.9509  -19.8439  -16.1535 C   0  0  0  0  0  0  0  0  0  0  0  0
   20.9558  -21.1474  -15.3910 C   0  0  2  0  0  0  0  0  0  0  0  0
   21.9829  -22.0476  -15.8641 N   0  0  0  0  0  0  0  0  0  0  0  0
   19.6490  -21.8175  -15.5557 C   0  0  0  0  0  0  0  0  0  0  0  0
   19.4892  -22.6821  -16.4453 O   0  0  0  0  0  0  0  0  0  0  0  0
   18.5822  -21.5069  -14.7373 O   0  0  0  0  0  0  0  0  0  0  0  0
  2  8  1  0
  2  1  1  6
  3  2  1  0
  4  3  1  0
  5  4  1  0
  6  5  1  0
  6  7  1  0
  8  9  2  0
 10 11  1  0
 10  8  1  0
 11 12  1  1
 12 13  1  0
 14 11  1  0
 15 14  2  0
 16 17  1  0
 17 19  1  0
 17 18  2  0
 19 20  1  0
 21 20  1  6
 21 22  1  0
 21 23  1  0
 22 14  1  0
 23 25  1  0
 24 23  2  0
M  END
$$$$
