KCQ.pdb
     RDKit          3D

 25 24  0  0  1  0  0  0  0  0999 V2000
   24.8681  -15.2728  -20.1451 N   0  0  0  0  0  0  0  0  0  0  0  0
   23.9823  -14.1629  -19.9473 C   0  0  1  0  0  0  0  0  0  0  0  0
   22.6304  -14.5618  -19.5121 C   0  0  0  0  0  0  0  0  0  0  0  0
   22.0735  -15.7243  -20.2489 C   0  0  0  0  0  0  0  0  0  0  0  0
   22.0895  -16.9853  -19.4731 C   0  0  0  0  0  0  0  0  0  0  0  0
   21.5716  -18.1383  -20.3666 C   0  0  0  0  0  0  0  0  0  0  0  0
   21.6313  -19.3575  -19.5775 N   0  0  0  0  0  0  0  0  0  0  0  0
   24.5923  -13.1341  -19.0364 C   0  0  0  0  0  0  0  0  0  0  0  0
   23.8837  -12.2173  -18.5492 O   0  0  0  0  0  0  0  0  0  0  0  0
   25.9675  -13.1479  -18.6900 N   0  0  0  0  0  0  0  0  0  0  0  0
   26.5612  -12.1712  -17.8414 C   0  0  1  0  0  0  0  0  0  0  0  0
   27.9290  -12.6825  -17.3907 C   0  0  0  0  0  0  0  0  0  0  0  0
   27.7171  -14.0877  -16.2742 S   0  0  0  0  0  0  0  0  0  0  0  0
   26.6649  -10.8355  -18.4208 C   0  0  0  0  0  0  0  0  0  0  0  0
   26.9389  -10.6229  -19.6244 O   0  0  0  0  0  0  0  0  0  0  0  0
   23.5904   -5.8810  -16.0578 N   0  0  0  0  0  0  0  0  0  0  0  0
   24.3224   -5.2870  -17.1173 C   0  0  0  0  0  0  0  0  0  0  0  0
   24.1114   -4.0758  -17.3791 O   0  0  0  0  0  0  0  0  0  0  0  0
   25.2957   -6.1089  -17.8647 C   0  0  0  0  0  0  0  0  0  0  0  0
   25.3572   -7.5266  -17.3410 C   0  0  0  0  0  0  0  0  0  0  0  0
   26.3240   -8.3738  -18.1336 C   0  0  2  0  0  0  0  0  0  0  0  0
   26.4466   -9.7074  -17.5902 N   0  0  0  0  0  0  0  0  0  0  0  0
   27.6613   -7.7454  -18.1098 C   0  0  0  0  0  0  0  0  0  0  0  0
   28.4824   -8.0395  -17.2133 O   0  0  0  0  0  0  0  0  0  0  0  0
   28.0323   -6.8259  -19.0696 O   0  0  0  0  0  0  0  0  0  0  0  0
  2  8  1  0
  2  1  1  1
  3  2  1  0
  4  3  1  0
  5  4  1  0
  6  5  1  0
  6  7  1  0
  8  9  2  0
 10 11  1  0
 10  8  1  0
 11 12  1  6
 12 13  1  0
 14 11  1  0
 15 14  2  0
 16 17  1  0
 17 19  1  0
 17 18  2  0
 19 20  1  0
 21 20  1  1
 21 22  1  0
 21 23  1  0
 22 14  1  0
 23 25  1  0
 24 23  2  0
M  END
$$$$
