KCQ.pdb
     RDKit          3D

 25 24  0  0  1  0  0  0  0  0999 V2000
   27.7808  -20.3728  -15.8179 N   0  0  0  0  0  0  0  0  0  0  0  0
   27.4453  -19.7196  -14.5865 C   0  0  1  0  0  0  0  0  0  0  0  0
   27.0174  -18.3190  -14.7630 C   0  0  0  0  0  0  0  0  0  0  0  0
   27.7631  -17.5842  -15.8159 C   0  0  0  0  0  0  0  0  0  0  0  0
   27.3839  -17.9698  -17.1943 C   0  0  0  0  0  0  0  0  0  0  0  0
   28.1635  -17.0894  -18.2009 C   0  0  0  0  0  0  0  0  0  0  0  0
   27.6340  -17.3732  -19.5245 N   0  0  0  0  0  0  0  0  0  0  0  0
   26.4495  -20.5230  -13.7969 C   0  0  0  0  0  0  0  0  0  0  0  0
   25.6626  -21.3102  -14.3811 O   0  0  0  0  0  0  0  0  0  0  0  0
   26.3519  -20.4337  -12.3849 N   0  0  0  0  0  0  0  0  0  0  0  0
   25.2118  -20.8801  -11.6586 C   0  0  1  0  0  0  0  0  0  0  0  0
   25.5330  -20.8285  -10.1654 C   0  0  0  0  0  0  0  0  0  0  0  0
   27.1993  -21.4666   -9.8777 S   0  0  0  0  0  0  0  0  0  0  0  0
   23.9754  -20.1630  -11.9547 C   0  0  0  0  0  0  0  0  0  0  0  0
   23.9274  -18.9328  -12.1852 O   0  0  0  0  0  0  0  0  0  0  0  0
   23.3391  -21.9144  -16.8592 N   0  0  0  0  0  0  0  0  0  0  0  0
   22.0269  -21.3768  -16.8350 C   0  0  0  0  0  0  0  0  0  0  0  0
   21.4039  -21.2818  -17.9226 O   0  0  0  0  0  0  0  0  0  0  0  0
   21.4498  -20.9537  -15.5431 C   0  0  0  0  0  0  0  0  0  0  0  0
   22.4214  -21.1477  -14.4002 C   0  0  0  0  0  0  0  0  0  0  0  0
   21.8161  -20.7428  -13.0772 C   0  0  2  0  0  0  0  0  0  0  0  0
   22.7545  -20.8831  -11.9869 N   0  0  0  0  0  0  0  0  0  0  0  0
   20.6480  -21.6007  -12.7885 C   0  0  0  0  0  0  0  0  0  0  0  0
   20.8016  -22.7162  -12.2441 O   0  0  0  0  0  0  0  0  0  0  0  0
   19.3694  -21.1934  -13.1108 O   0  0  0  0  0  0  0  0  0  0  0  0
  2  8  1  0
  2  1  1  6
  3  2  1  0
  4  3  1  0
  5  4  1  0
  6  5  1  0
  6  7  1  0
  8  9  2  0
 10 11  1  0
 10  8  1  0
 11 12  1  1
 12 13  1  0
 14 11  1  0
 15 14  2  0
 16 17  1  0
 17 19  1  0
 17 18  2  0
 19 20  1  0
 21 20  1  6
 21 22  1  0
 21 23  1  0
 22 14  1  0
 23 25  1  0
 24 23  2  0
M  END
$$$$
