ENL.pdb
     RDKit          3D

 26 25  0  0  1  0  0  0  0  0999 V2000
    9.1231  -15.8902   18.4433 N   0  0  0  0  0  0  0  0  0  0  0  0
    9.8097  -16.4098   19.6115 C   0  0  1  0  0  0  0  0  0  0  0  0
   11.1407  -15.7636   19.8516 C   0  0  0  0  0  0  0  0  0  0  0  0
   11.5132  -14.6916   18.8881 C   0  0  0  0  0  0  0  0  0  0  0  0
   12.8422  -14.0846   19.1168 C   0  0  0  0  0  0  0  0  0  0  0  0
   13.0878  -12.8537   19.0147 O   0  0  0  0  0  0  0  0  0  0  0  0
    8.9165  -16.3115   20.7839 C   0  0  0  0  0  0  0  0  0  0  0  0
    8.0244  -15.4295   20.8118 O   0  0  0  0  0  0  0  0  0  0  0  0
   13.9493  -14.8768   19.4746 O   0  0  0  0  0  0  0  0  0  0  0  0
    6.1805  -17.3406   25.1286 N   0  0  0  0  0  0  0  0  0  0  0  0
    6.7378  -18.5231   24.5737 C   0  0  0  0  0  0  0  0  0  0  0  0
    6.3894  -19.6277   25.0792 O   0  0  0  0  0  0  0  0  0  0  0  0
    7.6835  -18.4808   23.4556 C   0  0  0  0  0  0  0  0  0  0  0  0
    8.0690  -17.0892   23.0149 C   0  0  2  0  0  0  0  0  0  0  0  0
    9.0039  -17.1764   21.9158 N   0  0  0  0  0  0  0  0  0  0  0  0
    8.6844  -16.4200   24.1911 C   0  0  0  0  0  0  0  0  0  0  0  0
    9.8769  -16.5937   24.5326 O   0  0  0  0  0  0  0  0  0  0  0  0
    6.0221  -11.9957   26.7071 C   0  0  0  0  0  0  0  0  0  0  0  0
    7.0161  -12.8153   25.8683 C   0  0  1  0  0  0  0  0  0  0  0  0
    7.9387  -11.8713   25.1911 C   0  0  0  0  0  0  0  0  0  0  0  0
    7.5914  -13.8306   26.7636 C   0  0  0  0  0  0  0  0  0  0  0  0
    8.4479  -14.8915   26.1783 C   0  0  2  0  0  0  0  0  0  0  0  0
    7.9079  -15.5286   24.9942 N   0  0  0  0  0  0  0  0  0  0  0  0
    8.9113  -15.8956   27.1702 C   0  0  0  0  0  0  0  0  0  0  0  0
    9.8002  -15.5764   28.1831 O   0  0  0  0  0  0  0  0  0  0  0  0
    8.4951  -17.0790   27.1057 O   0  0  0  0  0  0  0  0  0  0  0  0
  2  1  1  6
  3  2  1  0
  4  3  1  0
  5  4  1  0
  5  6  2  0
  7  2  1  0
  7  8  2  0
  9  5  1  0
 10 11  1  0
 11 12  2  0
 14 13  1  1
 13 11  1  0
 14 15  1  0
 15  7  1  0
 16 14  1  0
 17 16  2  0
 19 18  1  1
 19 21  1  0
 20 19  1  0
 22 21  1  1
 22 24  1  0
 22 23  1  0
 23 16  1  0
 24 25  1  0
 26 24  2  0
M  END
$$$$
