ENL.pdb
     RDKit          3D

 26 25  0  0  1  0  0  0  0  0999 V2000
    6.9100  -17.9690   21.9121 N   0  0  0  0  0  0  0  0  0  0  0  0
    7.8130  -19.0279   22.3234 C   0  0  1  0  0  0  0  0  0  0  0  0
    8.0426  -20.0569   21.2580 C   0  0  0  0  0  0  0  0  0  0  0  0
    7.2476  -19.8750   20.0126 C   0  0  0  0  0  0  0  0  0  0  0  0
    7.4861  -20.8945   18.9682 C   0  0  0  0  0  0  0  0  0  0  0  0
    6.8958  -20.9237   17.8562 O   0  0  0  0  0  0  0  0  0  0  0  0
    9.0734  -18.4301   22.8096 C   0  0  0  0  0  0  0  0  0  0  0  0
    9.9273  -19.1563   23.3735 O   0  0  0  0  0  0  0  0  0  0  0  0
    8.4209  -21.9285   19.1644 O   0  0  0  0  0  0  0  0  0  0  0  0
   12.5018  -16.8802   20.7500 N   0  0  0  0  0  0  0  0  0  0  0  0
   11.5328  -15.8535   20.9042 C   0  0  0  0  0  0  0  0  0  0  0  0
   11.0540  -15.3378   19.8545 O   0  0  0  0  0  0  0  0  0  0  0  0
   11.0937  -15.3975   22.2254 C   0  0  0  0  0  0  0  0  0  0  0  0
   10.6443  -16.5024   23.1509 C   0  0  2  0  0  0  0  0  0  0  0  0
    9.3914  -17.0452   22.6762 N   0  0  0  0  0  0  0  0  0  0  0  0
   10.4903  -15.8979   24.5003 C   0  0  0  0  0  0  0  0  0  0  0  0
   11.4355  -15.3625   25.1238 O   0  0  0  0  0  0  0  0  0  0  0  0
    6.4487  -12.6337   25.9810 C   0  0  0  0  0  0  0  0  0  0  0  0
    7.8815  -13.1882   25.9235 C   0  0  1  0  0  0  0  0  0  0  0  0
    8.8071  -12.1283   26.3933 C   0  0  0  0  0  0  0  0  0  0  0  0
    7.8694  -14.4716   26.6418 C   0  0  0  0  0  0  0  0  0  0  0  0
    9.0284  -15.3849   26.4855 C   0  0  2  0  0  0  0  0  0  0  0  0
    9.2164  -15.9100   25.1481 N   0  0  0  0  0  0  0  0  0  0  0  0
    9.0745  -16.4660   27.5034 C   0  0  0  0  0  0  0  0  0  0  0  0
    9.1281  -17.8053   27.1553 O   0  0  0  0  0  0  0  0  0  0  0  0
    9.0656  -16.1770   28.7258 O   0  0  0  0  0  0  0  0  0  0  0  0
  2  1  1  6
  3  2  1  0
  4  3  1  0
  5  4  1  0
  5  6  2  0
  7  2  1  0
  7  8  2  0
  9  5  1  0
 10 11  1  0
 11 12  2  0
 14 13  1  6
 13 11  1  0
 14 15  1  0
 15  7  1  0
 16 14  1  0
 17 16  2  0
 19 18  1  1
 19 21  1  0
 20 19  1  0
 22 21  1  6
 22 24  1  0
 22 23  1  0
 23 16  1  0
 24 25  1  0
 26 24  2  0
M  END
$$$$
