ENL.pdb
     RDKit          3D

 26 25  0  0  1  0  0  0  0  0999 V2000
    9.3661  -16.5127   18.8931 N   0  0  0  0  0  0  0  0  0  0  0  0
    9.9067  -17.2353   20.0296 C   0  0  1  0  0  0  0  0  0  0  0  0
   11.3654  -16.9757   20.2563 C   0  0  0  0  0  0  0  0  0  0  0  0
   11.6992  -15.6241   20.7836 C   0  0  0  0  0  0  0  0  0  0  0  0
   13.1345  -15.4026   21.0626 C   0  0  0  0  0  0  0  0  0  0  0  0
   13.6133  -15.2107   22.2114 O   0  0  0  0  0  0  0  0  0  0  0  0
    9.0903  -16.9417   21.2251 C   0  0  0  0  0  0  0  0  0  0  0  0
    8.5033  -15.8367   21.3193 O   0  0  0  0  0  0  0  0  0  0  0  0
   14.0824  -15.3932   20.0221 O   0  0  0  0  0  0  0  0  0  0  0  0
    6.0623  -17.5139   25.4718 N   0  0  0  0  0  0  0  0  0  0  0  0
    6.6165  -18.7704   25.1100 C   0  0  0  0  0  0  0  0  0  0  0  0
    6.1967  -19.7935   25.7216 O   0  0  0  0  0  0  0  0  0  0  0  0
    7.6386  -18.8927   24.0675 C   0  0  0  0  0  0  0  0  0  0  0  0
    7.9998  -17.5927   23.3902 C   0  0  2  0  0  0  0  0  0  0  0  0
    8.9209  -17.8562   22.3077 N   0  0  0  0  0  0  0  0  0  0  0  0
    8.6223  -16.7262   24.4255 C   0  0  0  0  0  0  0  0  0  0  0  0
    9.8417  -16.7644   24.7089 O   0  0  0  0  0  0  0  0  0  0  0  0
    5.8837  -12.0795   26.4951 C   0  0  0  0  0  0  0  0  0  0  0  0
    6.9540  -12.8938   25.7502 C   0  0  1  0  0  0  0  0  0  0  0  0
    7.9212  -11.9443   25.1470 C   0  0  0  0  0  0  0  0  0  0  0  0
    7.4613  -13.8968   26.6989 C   0  0  0  0  0  0  0  0  0  0  0  0
    8.3740  -14.9532   26.1964 C   0  0  2  0  0  0  0  0  0  0  0  0
    7.8210  -15.7925   25.1527 N   0  0  0  0  0  0  0  0  0  0  0  0
    8.9924  -15.7665   27.2749 C   0  0  0  0  0  0  0  0  0  0  0  0
   10.0274  -15.2864   28.0599 O   0  0  0  0  0  0  0  0  0  0  0  0
    8.5774  -16.9309   27.4985 O   0  0  0  0  0  0  0  0  0  0  0  0
  2  1  1  6
  3  2  1  0
  4  3  1  0
  5  4  1  0
  5  6  2  0
  7  2  1  0
  7  8  2  0
  9  5  1  0
 10 11  1  0
 11 12  2  0
 14 13  1  1
 13 11  1  0
 14 15  1  0
 15  7  1  0
 16 14  1  0
 17 16  2  0
 19 18  1  1
 19 21  1  0
 20 19  1  0
 22 21  1  1
 22 24  1  0
 22 23  1  0
 23 16  1  0
 24 25  1  0
 26 24  2  0
M  END
$$$$
