ENL.pdb
     RDKit          3D

 26 25  0  0  1  0  0  0  0  0999 V2000
    9.8284  -12.6565   18.9314 N   0  0  0  0  0  0  0  0  0  0  0  0
    8.4604  -13.1369   18.9945 C   0  0  1  0  0  0  0  0  0  0  0  0
    7.9427  -13.6232   17.6746 C   0  0  0  0  0  0  0  0  0  0  0  0
    8.7746  -14.6607   17.0054 C   0  0  0  0  0  0  0  0  0  0  0  0
    8.1819  -15.2370   15.7792 C   0  0  0  0  0  0  0  0  0  0  0  0
    7.1201  -14.8247   15.2420 O   0  0  0  0  0  0  0  0  0  0  0  0
    8.3535  -14.1615   20.0532 C   0  0  0  0  0  0  0  0  0  0  0  0
    7.2242  -14.5992   20.3810 O   0  0  0  0  0  0  0  0  0  0  0  0
    8.7929  -16.3191   15.1179 O   0  0  0  0  0  0  0  0  0  0  0  0
   11.8805  -17.2534   19.8934 N   0  0  0  0  0  0  0  0  0  0  0  0
   10.7844  -17.4074   20.7833 C   0  0  0  0  0  0  0  0  0  0  0  0
    9.9841  -18.3613   20.5672 O   0  0  0  0  0  0  0  0  0  0  0  0
   10.5753  -16.5015   21.9155 C   0  0  0  0  0  0  0  0  0  0  0  0
    9.3281  -15.6564   21.8184 C   0  0  2  0  0  0  0  0  0  0  0  0
    9.4797  -14.6999   20.7452 N   0  0  0  0  0  0  0  0  0  0  0  0
    9.1685  -14.9720   23.1285 C   0  0  0  0  0  0  0  0  0  0  0  0
    9.3766  -13.7478   23.2924 O   0  0  0  0  0  0  0  0  0  0  0  0
    8.0825  -12.3703   27.1124 C   0  0  0  0  0  0  0  0  0  0  0  0
    6.9540  -13.2892   26.6169 C   0  0  1  0  0  0  0  0  0  0  0  0
    5.7078  -12.4884   26.5342 C   0  0  0  0  0  0  0  0  0  0  0  0
    7.4446  -13.9432   25.3942 C   0  0  0  0  0  0  0  0  0  0  0  0
    8.4020  -15.0691   25.5252 C   0  0  2  0  0  0  0  0  0  0  0  0
    8.7594  -15.7154   24.2785 N   0  0  0  0  0  0  0  0  0  0  0  0
    8.0126  -16.0631   26.5584 C   0  0  0  0  0  0  0  0  0  0  0  0
    7.8050  -17.3986   26.2564 O   0  0  0  0  0  0  0  0  0  0  0  0
    7.8615  -15.7007   27.7516 O   0  0  0  0  0  0  0  0  0  0  0  0
  2  1  1  6
  3  2  1  0
  4  3  1  0
  5  4  1  0
  5  6  2  0
  7  2  1  0
  7  8  2  0
  9  5  1  0
 10 11  1  0
 11 12  2  0
 14 13  1  1
 13 11  1  0
 14 15  1  0
 15  7  1  0
 16 14  1  0
 17 16  2  0
 19 18  1  6
 19 21  1  0
 20 19  1  0
 22 21  1  6
 22 24  1  0
 22 23  1  0
 23 16  1  0
 24 25  1  0
 26 24  2  0
M  END
$$$$
