ENL.pdb
     RDKit          3D

 26 25  0  0  1  0  0  0  0  0999 V2000
    9.9342  -18.7882   18.8967 N   0  0  0  0  0  0  0  0  0  0  0  0
   10.6562  -18.3107   20.0615 C   0  0  1  0  0  0  0  0  0  0  0  0
   11.4846  -17.0924   19.7857 C   0  0  0  0  0  0  0  0  0  0  0  0
   12.6320  -17.2966   18.8594 C   0  0  0  0  0  0  0  0  0  0  0  0
   13.5166  -16.1226   18.6971 C   0  0  0  0  0  0  0  0  0  0  0  0
   13.7569  -15.5613   17.5957 O   0  0  0  0  0  0  0  0  0  0  0  0
    9.7045  -18.1047   21.1723 C   0  0  0  0  0  0  0  0  0  0  0  0
    8.5016  -17.8520   20.9197 O   0  0  0  0  0  0  0  0  0  0  0  0
   14.1642  -15.5440   19.8048 O   0  0  0  0  0  0  0  0  0  0  0  0
    9.8819  -21.4767   23.8741 N   0  0  0  0  0  0  0  0  0  0  0  0
    8.9053  -20.4688   24.0916 C   0  0  0  0  0  0  0  0  0  0  0  0
    7.7025  -20.7520   23.8265 O   0  0  0  0  0  0  0  0  0  0  0  0
    9.2632  -19.1440   24.6043 C   0  0  0  0  0  0  0  0  0  0  0  0
    9.1001  -18.0223   23.6071 C   0  0  2  0  0  0  0  0  0  0  0  0
   10.0731  -18.1763   22.5492 N   0  0  0  0  0  0  0  0  0  0  0  0
    9.3114  -16.7518   24.3496 C   0  0  0  0  0  0  0  0  0  0  0  0
   10.4430  -16.3371   24.6907 O   0  0  0  0  0  0  0  0  0  0  0  0
    8.0450  -11.6603   25.7618 C   0  0  0  0  0  0  0  0  0  0  0  0
    7.1515  -12.7015   26.4552 C   0  0  1  0  0  0  0  0  0  0  0  0
    5.8620  -12.0516   26.7954 C   0  0  0  0  0  0  0  0  0  0  0  0
    7.1262  -13.8868   25.5847 C   0  0  0  0  0  0  0  0  0  0  0  0
    8.3376  -14.7403   25.5102 C   0  0  2  0  0  0  0  0  0  0  0  0
    8.1923  -15.9386   24.7085 N   0  0  0  0  0  0  0  0  0  0  0  0
    8.9322  -15.0451   26.8371 C   0  0  0  0  0  0  0  0  0  0  0  0
    8.6833  -16.2343   27.5017 O   0  0  0  0  0  0  0  0  0  0  0  0
    9.6888  -14.2097   27.3919 O   0  0  0  0  0  0  0  0  0  0  0  0
  2  1  1  6
  3  2  1  0
  4  3  1  0
  5  4  1  0
  5  6  2  0
  7  2  1  0
  7  8  2  0
  9  5  1  0
 10 11  1  0
 11 12  2  0
 14 13  1  1
 13 11  1  0
 14 15  1  0
 15  7  1  0
 16 14  1  0
 17 16  2  0
 19 18  1  6
 19 21  1  0
 20 19  1  0
 22 21  1  1
 22 24  1  0
 22 23  1  0
 23 16  1  0
 24 25  1  0
 26 24  2  0
M  END
$$$$
