ENL.pdb
     RDKit          3D

 26 25  0  0  1  0  0  0  0  0999 V2000
    5.0903  -18.0416   23.6649 N   0  0  0  0  0  0  0  0  0  0  0  0
    6.1625  -18.8315   23.0884 C   0  0  1  0  0  0  0  0  0  0  0  0
    5.7113  -19.7054   21.9573 C   0  0  0  0  0  0  0  0  0  0  0  0
    4.2453  -19.7090   21.6987 C   0  0  0  0  0  0  0  0  0  0  0  0
    3.8208  -20.5207   20.5376 C   0  0  0  0  0  0  0  0  0  0  0  0
    4.6041  -21.1952   19.8182 O   0  0  0  0  0  0  0  0  0  0  0  0
    7.2712  -17.9358   22.7001 C   0  0  0  0  0  0  0  0  0  0  0  0
    8.2900  -18.4143   22.1457 O   0  0  0  0  0  0  0  0  0  0  0  0
    2.4676  -20.5885   20.1561 O   0  0  0  0  0  0  0  0  0  0  0  0
    6.1713  -14.4975   20.0258 N   0  0  0  0  0  0  0  0  0  0  0  0
    7.4401  -14.9621   20.4630 C   0  0  0  0  0  0  0  0  0  0  0  0
    8.0714  -15.7467   19.6995 O   0  0  0  0  0  0  0  0  0  0  0  0
    8.0104  -14.5554   21.7498 C   0  0  0  0  0  0  0  0  0  0  0  0
    8.4144  -15.7019   22.6451 C   0  0  2  0  0  0  0  0  0  0  0  0
    7.2587  -16.5257   22.9198 N   0  0  0  0  0  0  0  0  0  0  0  0
    8.9555  -15.1032   23.8936 C   0  0  0  0  0  0  0  0  0  0  0  0
   10.0686  -14.5319   23.9538 O   0  0  0  0  0  0  0  0  0  0  0  0
    5.8056  -12.3856   27.2819 C   0  0  0  0  0  0  0  0  0  0  0  0
    6.9875  -12.7795   26.3812 C   0  0  1  0  0  0  0  0  0  0  0  0
    7.6799  -11.5380   25.9568 C   0  0  0  0  0  0  0  0  0  0  0  0
    7.7611  -13.7930   27.1146 C   0  0  0  0  0  0  0  0  0  0  0  0
    8.7070  -14.6502   26.3583 C   0  0  2  0  0  0  0  0  0  0  0  0
    8.1965  -15.1636   25.1031 N   0  0  0  0  0  0  0  0  0  0  0  0
    9.3159  -15.7297   27.1776 C   0  0  0  0  0  0  0  0  0  0  0  0
    9.3326  -17.0508   26.7625 O   0  0  0  0  0  0  0  0  0  0  0  0
    9.8382  -15.4561   28.2867 O   0  0  0  0  0  0  0  0  0  0  0  0
  2  1  1  6
  3  2  1  0
  4  3  1  0
  5  4  1  0
  5  6  2  0
  7  2  1  0
  7  8  2  0
  9  5  1  0
 10 11  1  0
 11 12  2  0
 14 13  1  6
 13 11  1  0
 14 15  1  0
 15  7  1  0
 16 14  1  0
 17 16  2  0
 19 18  1  1
 19 21  1  0
 20 19  1  0
 22 21  1  1
 22 24  1  0
 22 23  1  0
 23 16  1  0
 24 25  1  0
 26 24  2  0
M  END
$$$$
