ENL.pdb
     RDKit          3D

 26 25  0  0  1  0  0  0  0  0999 V2000
    9.4674  -12.8818   19.6531 N   0  0  0  0  0  0  0  0  0  0  0  0
    8.1746  -13.5371   19.7247 C   0  0  1  0  0  0  0  0  0  0  0  0
    7.6828  -14.0223   18.3945 C   0  0  0  0  0  0  0  0  0  0  0  0
    8.5941  -13.7679   17.2452 C   0  0  0  0  0  0  0  0  0  0  0  0
    8.1807  -14.3979   15.9727 C   0  0  0  0  0  0  0  0  0  0  0  0
    7.0882  -15.0002   15.8004 O   0  0  0  0  0  0  0  0  0  0  0  0
    8.2321  -14.6166   20.7315 C   0  0  0  0  0  0  0  0  0  0  0  0
    7.1918  -15.2600   21.0111 O   0  0  0  0  0  0  0  0  0  0  0  0
    9.0150  -14.3591   14.8397 O   0  0  0  0  0  0  0  0  0  0  0  0
   10.0785  -19.2926   23.0609 N   0  0  0  0  0  0  0  0  0  0  0  0
   10.6915  -18.0204   23.2107 C   0  0  0  0  0  0  0  0  0  0  0  0
   11.3698  -17.8167   24.2574 O   0  0  0  0  0  0  0  0  0  0  0  0
   10.5522  -16.9715   22.1974 C   0  0  0  0  0  0  0  0  0  0  0  0
    9.4242  -16.0011   22.4527 C   0  0  2  0  0  0  0  0  0  0  0  0
    9.4242  -14.9851   21.4244 N   0  0  0  0  0  0  0  0  0  0  0  0
    9.6629  -15.4067   23.7942 C   0  0  0  0  0  0  0  0  0  0  0  0
   10.7421  -14.8607   24.1202 O   0  0  0  0  0  0  0  0  0  0  0  0
    5.9444  -12.5242   26.3748 C   0  0  0  0  0  0  0  0  0  0  0  0
    7.3616  -12.8980   25.9108 C   0  0  1  0  0  0  0  0  0  0  0  0
    8.2171  -11.6907   26.0180 C   0  0  0  0  0  0  0  0  0  0  0  0
    7.7528  -14.0985   26.6652 C   0  0  0  0  0  0  0  0  0  0  0  0
    8.8451  -14.9491   26.1316 C   0  0  2  0  0  0  0  0  0  0  0  0
    8.6338  -15.4417   24.7853 N   0  0  0  0  0  0  0  0  0  0  0  0
    9.2496  -16.0433   27.0515 C   0  0  0  0  0  0  0  0  0  0  0  0
    9.2176  -17.3751   26.6730 O   0  0  0  0  0  0  0  0  0  0  0  0
    9.6367  -15.7729   28.2155 O   0  0  0  0  0  0  0  0  0  0  0  0
  2  1  1  6
  3  2  1  0
  4  3  1  0
  5  4  1  0
  5  6  2  0
  7  2  1  0
  7  8  2  0
  9  5  1  0
 10 11  1  0
 11 12  2  0
 14 13  1  6
 13 11  1  0
 14 15  1  0
 15  7  1  0
 16 14  1  0
 17 16  2  0
 19 18  1  1
 19 21  1  0
 20 19  1  0
 22 21  1  1
 22 24  1  0
 22 23  1  0
 23 16  1  0
 24 25  1  0
 26 24  2  0
M  END
$$$$
