ENL.pdb
     RDKit          3D

 26 25  0  0  1  0  0  0  0  0999 V2000
   10.8503  -18.8313   22.4308 N   0  0  0  0  0  0  0  0  0  0  0  0
   10.8836  -17.6344   21.6109 C   0  0  1  0  0  0  0  0  0  0  0  0
   11.3938  -17.8817   20.2234 C   0  0  0  0  0  0  0  0  0  0  0  0
   11.0753  -19.2203   19.6550 C   0  0  0  0  0  0  0  0  0  0  0  0
   12.0441  -19.7172   18.6542 C   0  0  0  0  0  0  0  0  0  0  0  0
   11.9555  -20.8303   18.0717 O   0  0  0  0  0  0  0  0  0  0  0  0
    9.5473  -17.0050   21.6154 C   0  0  0  0  0  0  0  0  0  0  0  0
    9.3005  -16.0675   20.8187 O   0  0  0  0  0  0  0  0  0  0  0  0
   13.1614  -18.9466   18.2815 O   0  0  0  0  0  0  0  0  0  0  0  0
    7.3694  -18.5185   24.7037 N   0  0  0  0  0  0  0  0  0  0  0  0
    6.2591  -18.6190   23.8240 C   0  0  0  0  0  0  0  0  0  0  0  0
    5.3925  -19.5043   24.0735 O   0  0  0  0  0  0  0  0  0  0  0  0
    6.1092  -17.7355   22.6649 C   0  0  0  0  0  0  0  0  0  0  0  0
    7.2167  -16.7222   22.5036 C   0  0  2  0  0  0  0  0  0  0  0  0
    8.4914  -17.4037   22.4890 N   0  0  0  0  0  0  0  0  0  0  0  0
    7.1196  -15.7907   23.6581 C   0  0  0  0  0  0  0  0  0  0  0  0
    6.2108  -14.9368   23.7757 O   0  0  0  0  0  0  0  0  0  0  0  0
    7.9605  -11.7777   25.7228 C   0  0  0  0  0  0  0  0  0  0  0  0
    7.2758  -12.7165   26.7293 C   0  0  1  0  0  0  0  0  0  0  0  0
    6.0568  -12.0406   27.2374 C   0  0  0  0  0  0  0  0  0  0  0  0
    7.1237  -14.0179   26.0608 C   0  0  0  0  0  0  0  0  0  0  0  0
    8.3411  -14.7173   25.5809 C   0  0  2  0  0  0  0  0  0  0  0  0
    8.0929  -15.8433   24.7033 N   0  0  0  0  0  0  0  0  0  0  0  0
    9.2877  -15.0763   26.6682 C   0  0  0  0  0  0  0  0  0  0  0  0
    9.7390  -16.3721   26.8557 O   0  0  0  0  0  0  0  0  0  0  0  0
    9.7048  -14.1898   27.4544 O   0  0  0  0  0  0  0  0  0  0  0  0
  2  1  1  1
  3  2  1  0
  4  3  1  0
  5  4  1  0
  5  6  2  0
  7  2  1  0
  7  8  2  0
  9  5  1  0
 10 11  1  0
 11 12  2  0
 14 13  1  1
 13 11  1  0
 14 15  1  0
 15  7  1  0
 16 14  1  0
 17 16  2  0
 19 18  1  6
 19 21  1  0
 20 19  1  0
 22 21  1  1
 22 24  1  0
 22 23  1  0
 23 16  1  0
 24 25  1  0
 26 24  2  0
M  END
$$$$
