ENL.pdb
     RDKit          3D

 26 25  0  0  1  0  0  0  0  0999 V2000
    9.2317  -19.7365   19.7294 N   0  0  0  0  0  0  0  0  0  0  0  0
    8.9761  -18.3135   19.8546 C   0  0  1  0  0  0  0  0  0  0  0  0
    8.2156  -17.7447   18.6949 C   0  0  0  0  0  0  0  0  0  0  0  0
    8.8741  -17.8879   17.3675 C   0  0  0  0  0  0  0  0  0  0  0  0
    8.1136  -17.3228   16.2320 C   0  0  0  0  0  0  0  0  0  0  0  0
    8.5748  -16.4804   15.4174 O   0  0  0  0  0  0  0  0  0  0  0  0
    8.3107  -18.0512   21.1472 C   0  0  0  0  0  0  0  0  0  0  0  0
    7.0830  -17.7935   21.1717 O   0  0  0  0  0  0  0  0  0  0  0  0
    6.7820  -17.7080   15.9877 O   0  0  0  0  0  0  0  0  0  0  0  0
    7.1341  -20.5572   24.0431 N   0  0  0  0  0  0  0  0  0  0  0  0
    8.4377  -20.1787   24.4606 C   0  0  0  0  0  0  0  0  0  0  0  0
    9.2907  -21.0970   24.6220 O   0  0  0  0  0  0  0  0  0  0  0  0
    8.7962  -18.7784   24.6997 C   0  0  0  0  0  0  0  0  0  0  0  0
    8.3005  -17.8172   23.6462 C   0  0  2  0  0  0  0  0  0  0  0  0
    8.9905  -18.0726   22.4019 N   0  0  0  0  0  0  0  0  0  0  0  0
    8.5852  -16.4464   24.1460 C   0  0  0  0  0  0  0  0  0  0  0  0
    9.7189  -15.9171   24.0881 O   0  0  0  0  0  0  0  0  0  0  0  0
    7.3397  -11.2476   25.2932 C   0  0  0  0  0  0  0  0  0  0  0  0
    6.7363  -12.2645   26.2758 C   0  0  1  0  0  0  0  0  0  0  0  0
    5.5232  -11.6607   26.8797 C   0  0  0  0  0  0  0  0  0  0  0  0
    6.5928  -13.5309   25.5416 C   0  0  0  0  0  0  0  0  0  0  0  0
    7.7924  -14.3837   25.3536 C   0  0  2  0  0  0  0  0  0  0  0  0
    7.5388  -15.6654   24.7270 N   0  0  0  0  0  0  0  0  0  0  0  0
    8.6128  -14.5346   26.5829 C   0  0  0  0  0  0  0  0  0  0  0  0
    9.6633  -13.6818   26.8782 O   0  0  0  0  0  0  0  0  0  0  0  0
    8.3619  -15.4599   27.3945 O   0  0  0  0  0  0  0  0  0  0  0  0
  2  1  1  6
  3  2  1  0
  4  3  1  0
  5  4  1  0
  5  6  2  0
  7  2  1  0
  7  8  2  0
  9  5  1  0
 10 11  1  0
 11 12  2  0
 14 13  1  1
 13 11  1  0
 14 15  1  0
 15  7  1  0
 16 14  1  0
 17 16  2  0
 19 18  1  6
 19 21  1  0
 20 19  1  0
 22 21  1  1
 22 24  1  0
 22 23  1  0
 23 16  1  0
 24 25  1  0
 26 24  2  0
M  END
$$$$
