TPG.pdb
     RDKit          3D

 19 19  0  0  1  0  0  0  0  0999 V2000
   18.7387   -9.1215  -17.7721 C   0  0  0  0  0  0  0  0  0  0  0  0
   17.6102   -9.4744  -16.7790 C   0  0  1  0  0  0  0  0  0  0  0  0
   17.0821  -10.6642  -17.2838 O   0  0  0  0  0  0  0  0  0  0  0  0
   18.3166   -9.6790  -15.4693 C   0  0  2  0  0  0  0  0  0  0  0  0
   17.2795  -10.2144  -14.5636 N   0  0  0  0  0  0  0  0  0  0  0  0
   18.9021   -8.4964  -14.8509 C   0  0  0  0  0  0  0  0  0  0  0  0
   18.0791   -7.5451  -14.5698 O   0  0  0  0  0  0  0  0  0  0  0  0
   20.2419   -8.2473  -14.5158 N   0  0  0  0  0  0  0  0  0  0  0  0
   21.3400   -9.1697  -14.6966 C   0  0  0  0  0  0  0  0  0  0  0  0
   22.5976   -8.4474  -14.3479 C   0  0  0  0  0  0  0  0  0  0  0  0
   22.1541   -7.3274  -13.4701 C   0  0  0  0  0  0  0  0  0  0  0  0
   20.7411   -7.0180  -13.9450 C   0  0  1  0  0  0  0  0  0  0  0  0
   20.7828   -5.9163  -14.9278 C   0  0  0  0  0  0  0  0  0  0  0  0
   20.8959   -6.1385  -16.1515 O   0  0  0  0  0  0  0  0  0  0  0  0
   20.6934   -4.5774  -14.4820 N   0  0  0  0  0  0  0  0  0  0  0  0
   20.0428   -3.5298  -15.2232 C   0  0  0  0  0  0  0  0  0  0  0  0
   20.1163   -2.2304  -14.5109 C   0  0  0  0  0  0  0  0  0  0  0  0
   20.4946   -1.2005  -15.1190 O   0  0  0  0  0  0  0  0  0  0  0  0
   19.7808   -2.0897  -13.1748 O   0  0  0  0  0  0  0  0  0  0  0  0
  2  1  1  6
  2  3  1  0
  4  2  1  0
  4  5  1  1
  6  4  1  0
  7  6  2  0
  8  9  1  0
  8  6  1  0
 10 11  1  0
 10  9  1  0
 11 12  1  0
 12  8  1  0
 12 13  1  6
 13 15  1  0
 14 13  2  0
 15 16  1  0
 16 17  1  0
 17 19  1  0
 18 17  2  0
M  END
$$$$
