TPG.pdb
     RDKit          3D

 19 19  0  0  1  0  0  0  0  0999 V2000
   23.0601  -21.5951  -13.1455 C   0  0  0  0  0  0  0  0  0  0  0  0
   22.9670  -20.9077  -11.7661 C   0  0  1  0  0  0  0  0  0  0  0  0
   22.1504  -21.7619  -11.0225 O   0  0  0  0  0  0  0  0  0  0  0  0
   24.3813  -20.8935  -11.2603 C   0  0  2  0  0  0  0  0  0  0  0  0
   24.2647  -20.5385   -9.8310 N   0  0  0  0  0  0  0  0  0  0  0  0
   25.2933  -19.9513  -11.8960 C   0  0  0  0  0  0  0  0  0  0  0  0
   24.9726  -18.7069  -11.7965 O   0  0  0  0  0  0  0  0  0  0  0  0
   26.4774  -20.2096  -12.6033 N   0  0  0  0  0  0  0  0  0  0  0  0
   27.1286  -21.4955  -12.7131 C   0  0  0  0  0  0  0  0  0  0  0  0
   28.2633  -21.3460  -13.6697 C   0  0  0  0  0  0  0  0  0  0  0  0
   28.5676  -19.8869  -13.6633 C   0  0  0  0  0  0  0  0  0  0  0  0
   27.2315  -19.2283  -13.3480 C   0  0  1  0  0  0  0  0  0  0  0  0
   26.5643  -18.8421  -14.6078 C   0  0  0  0  0  0  0  0  0  0  0  0
   25.7052  -19.5747  -15.1414 O   0  0  0  0  0  0  0  0  0  0  0  0
   26.8997  -17.6174  -15.2301 N   0  0  0  0  0  0  0  0  0  0  0  0
   25.9516  -16.5668  -15.4899 C   0  0  0  0  0  0  0  0  0  0  0  0
   25.1927  -16.8135  -16.7408 C   0  0  0  0  0  0  0  0  0  0  0  0
   24.2521  -17.6434  -16.7522 O   0  0  0  0  0  0  0  0  0  0  0  0
   25.4746  -16.1591  -17.9281 O   0  0  0  0  0  0  0  0  0  0  0  0
  2  1  1  6
  2  3  1  0
  4  2  1  0
  4  5  1  1
  6  4  1  0
  7  6  2  0
  8  9  1  0
  8  6  1  0
 10 11  1  0
 10  9  1  0
 11 12  1  0
 12  8  1  0
 12 13  1  6
 13 15  1  0
 14 13  2  0
 15 16  1  0
 16 17  1  0
 17 19  1  0
 18 17  2  0
M  END
$$$$
