TPG.pdb
     RDKit          3D

 19 19  0  0  1  0  0  0  0  0999 V2000
   18.3269   -8.1244  -17.8300 C   0  0  0  0  0  0  0  0  0  0  0  0
   18.3413   -9.5567  -17.2535 C   0  0  1  0  0  0  0  0  0  0  0  0
   17.5606  -10.2857  -18.1527 O   0  0  0  0  0  0  0  0  0  0  0  0
   19.7867   -9.9627  -17.2997 C   0  0  2  0  0  0  0  0  0  0  0  0
   19.7877  -11.3896  -16.9167 N   0  0  0  0  0  0  0  0  0  0  0  0
   20.6951   -9.2473  -16.4128 C   0  0  0  0  0  0  0  0  0  0  0  0
   20.4591   -9.3692  -15.1516 O   0  0  0  0  0  0  0  0  0  0  0  0
   21.7964   -8.4416  -16.7405 N   0  0  0  0  0  0  0  0  0  0  0  0
   22.3154   -8.2270  -18.0725 C   0  0  0  0  0  0  0  0  0  0  0  0
   23.3877   -7.1945  -17.9776 C   0  0  0  0  0  0  0  0  0  0  0  0
   23.8263   -7.2411  -16.5539 C   0  0  0  0  0  0  0  0  0  0  0  0
   22.5835   -7.6851  -15.7948 C   0  0  1  0  0  0  0  0  0  0  0  0
   21.8667   -6.4975  -15.2875 C   0  0  0  0  0  0  0  0  0  0  0  0
   20.9035   -6.0026  -15.9094 O   0  0  0  0  0  0  0  0  0  0  0  0
   22.2735   -5.9014  -14.0714 N   0  0  0  0  0  0  0  0  0  0  0  0
   21.5060   -4.9040  -13.3741 C   0  0  0  0  0  0  0  0  0  0  0  0
   21.5530   -3.5943  -14.0695 C   0  0  0  0  0  0  0  0  0  0  0  0
   22.4249   -3.3782  -14.9451 O   0  0  0  0  0  0  0  0  0  0  0  0
   20.6620   -2.5701  -13.7966 O   0  0  0  0  0  0  0  0  0  0  0  0
  2  1  1  6
  2  3  1  0
  4  2  1  0
  4  5  1  1
  6  4  1  0
  7  6  2  0
  8  9  1  0
  8  6  1  0
 10 11  1  0
 10  9  1  0
 11 12  1  0
 12  8  1  0
 12 13  1  6
 13 15  1  0
 14 13  2  0
 15 16  1  0
 16 17  1  0
 17 19  1  0
 18 17  2  0
M  END
$$$$
