TPG.pdb
     RDKit          3D

 19 19  0  0  1  0  0  0  0  0999 V2000
   24.4353  -18.0991  -15.0801 C   0  0  0  0  0  0  0  0  0  0  0  0
   25.8421  -17.9725  -15.7038 C   0  0  1  0  0  0  0  0  0  0  0  0
   25.9846  -16.6020  -15.9292 O   0  0  0  0  0  0  0  0  0  0  0  0
   26.7708  -18.4701  -14.6332 C   0  0  2  0  0  0  0  0  0  0  0  0
   28.1257  -18.2156  -15.1642 N   0  0  0  0  0  0  0  0  0  0  0  0
   26.6702  -19.8816  -14.2851 C   0  0  0  0  0  0  0  0  0  0  0  0
   26.9277  -20.7131  -15.2356 O   0  0  0  0  0  0  0  0  0  0  0  0
   26.3320  -20.4652  -13.0545 N   0  0  0  0  0  0  0  0  0  0  0  0
   26.0451  -19.7472  -11.8332 C   0  0  0  0  0  0  0  0  0  0  0  0
   25.5929  -20.7440  -10.8198 C   0  0  0  0  0  0  0  0  0  0  0  0
   26.1432  -22.0426  -11.3016 C   0  0  0  0  0  0  0  0  0  0  0  0
   26.2045  -21.8838  -12.8146 C   0  0  1  0  0  0  0  0  0  0  0  0
   24.9811  -22.4498  -13.4183 C   0  0  0  0  0  0  0  0  0  0  0  0
   23.8455  -22.0510  -13.0854 O   0  0  0  0  0  0  0  0  0  0  0  0
   25.0890  -23.4659  -14.3957 N   0  0  0  0  0  0  0  0  0  0  0  0
   24.1823  -24.5787  -14.4954 C   0  0  0  0  0  0  0  0  0  0  0  0
   24.5030  -25.4415  -15.6590 C   0  0  0  0  0  0  0  0  0  0  0  0
   23.7892  -26.4403  -15.9168 O   0  0  0  0  0  0  0  0  0  0  0  0
   25.5768  -25.1968  -16.4983 O   0  0  0  0  0  0  0  0  0  0  0  0
  2  1  1  1
  2  3  1  0
  4  2  1  0
  4  5  1  6
  6  4  1  0
  7  6  2  0
  8  9  1  0
  8  6  1  0
 10 11  1  0
 10  9  1  0
 11 12  1  0
 12  8  1  0
 12 13  1  6
 13 15  1  0
 14 13  2  0
 15 16  1  0
 16 17  1  0
 17 19  1  0
 18 17  2  0
M  END
$$$$
