TPG.pdb
     RDKit          3D

 19 19  0  0  1  0  0  0  0  0999 V2000
   27.0654  -17.9601  -14.1380 C   0  0  0  0  0  0  0  0  0  0  0  0
   27.1251  -19.0387  -15.2412 C   0  0  1  0  0  0  0  0  0  0  0  0
   28.2998  -18.7414  -15.9349 O   0  0  0  0  0  0  0  0  0  0  0  0
   27.2238  -20.3355  -14.4898 C   0  0  2  0  0  0  0  0  0  0  0  0
   27.5924  -21.3349  -15.5135 N   0  0  0  0  0  0  0  0  0  0  0  0
   26.0165  -20.7926  -13.8137 C   0  0  0  0  0  0  0  0  0  0  0  0
   25.1160  -21.3200  -14.5701 O   0  0  0  0  0  0  0  0  0  0  0  0
   25.6957  -20.7400  -12.4486 N   0  0  0  0  0  0  0  0  0  0  0  0
   26.5165  -20.1535  -11.4132 C   0  0  0  0  0  0  0  0  0  0  0  0
   25.7326  -20.1846  -10.1446 C   0  0  0  0  0  0  0  0  0  0  0  0
   24.7222  -21.2597  -10.3561 C   0  0  0  0  0  0  0  0  0  0  0  0
   24.4820  -21.2559  -11.8595 C   0  0  1  0  0  0  0  0  0  0  0  0
   23.3056  -20.4176  -12.1674 C   0  0  0  0  0  0  0  0  0  0  0  0
   23.4127  -19.1875  -12.3539 O   0  0  0  0  0  0  0  0  0  0  0  0
   22.0260  -21.0130  -12.2548 N   0  0  0  0  0  0  0  0  0  0  0  0
   20.8354  -20.2975  -12.6299 C   0  0  0  0  0  0  0  0  0  0  0  0
   20.6166  -20.3331  -14.0970 C   0  0  0  0  0  0  0  0  0  0  0  0
   19.6924  -19.6588  -14.6114 O   0  0  0  0  0  0  0  0  0  0  0  0
   21.3990  -21.0911  -14.9518 O   0  0  0  0  0  0  0  0  0  0  0  0
  2  1  1  1
  2  3  1  0
  4  2  1  0
  4  5  1  6
  6  4  1  0
  7  6  2  0
  8  9  1  0
  8  6  1  0
 10 11  1  0
 10  9  1  0
 11 12  1  0
 12  8  1  0
 12 13  1  1
 13 15  1  0
 14 13  2  0
 15 16  1  0
 16 17  1  0
 17 19  1  0
 18 17  2  0
M  END
$$$$
