TPG.pdb
     RDKit          3D

 19 19  0  0  1  0  0  0  0  0999 V2000
   24.4933  -22.8384  -14.3169 C   0  0  0  0  0  0  0  0  0  0  0  0
   23.7376  -22.3413  -13.0656 C   0  0  1  0  0  0  0  0  0  0  0  0
   23.4485  -23.5130  -12.3635 O   0  0  0  0  0  0  0  0  0  0  0  0
   24.7354  -21.4805  -12.3448 C   0  0  2  0  0  0  0  0  0  0  0  0
   24.0921  -21.1618  -11.0537 N   0  0  0  0  0  0  0  0  0  0  0  0
   25.1097  -20.2306  -12.9938 C   0  0  0  0  0  0  0  0  0  0  0  0
   24.1843  -19.3362  -13.0636 O   0  0  0  0  0  0  0  0  0  0  0  0
   26.3421  -19.8619  -13.5548 N   0  0  0  0  0  0  0  0  0  0  0  0
   27.5184  -20.6990  -13.6259 C   0  0  0  0  0  0  0  0  0  0  0  0
   28.5436  -19.9688  -14.4262 C   0  0  0  0  0  0  0  0  0  0  0  0
   28.1413  -18.5367  -14.3314 C   0  0  0  0  0  0  0  0  0  0  0  0
   26.6287  -18.5843  -14.1644 C   0  0  1  0  0  0  0  0  0  0  0  0
   25.9833  -18.4320  -15.4841 C   0  0  0  0  0  0  0  0  0  0  0  0
   25.8692  -19.3966  -16.2690 O   0  0  0  0  0  0  0  0  0  0  0  0
   25.4807  -17.1696  -15.8756 N   0  0  0  0  0  0  0  0  0  0  0  0
   24.6915  -16.9555  -17.0595 C   0  0  0  0  0  0  0  0  0  0  0  0
   23.3846  -17.6530  -16.9777 C   0  0  0  0  0  0  0  0  0  0  0  0
   22.9834  -18.3513  -17.9394 O   0  0  0  0  0  0  0  0  0  0  0  0
   22.5618  -17.5721  -15.8669 O   0  0  0  0  0  0  0  0  0  0  0  0
  2  1  1  6
  2  3  1  0
  4  2  1  0
  4  5  1  1
  6  4  1  0
  7  6  2  0
  8  9  1  0
  8  6  1  0
 10 11  1  0
 10  9  1  0
 11 12  1  0
 12  8  1  0
 12 13  1  6
 13 15  1  0
 14 13  2  0
 15 16  1  0
 16 17  1  0
 17 19  1  0
 18 17  2  0
M  END
$$$$
