CFN.pdb
     RDKit          3D

 26 26  0  0  1  0  0  0  0  0999 V2000
   19.5138   -8.8735  -17.1567 N   0  0  0  0  0  0  0  0  0  0  0  0
   19.4123   -7.4435  -17.1638 C   0  0  1  0  0  0  0  0  0  0  0  0
   18.1562   -6.9848  -17.8363 C   0  0  0  0  0  0  0  0  0  0  0  0
   18.4329   -7.1344  -19.6441 S   0  0  0  0  0  0  0  0  0  0  0  0
   19.6230   -6.8587  -15.8235 C   0  0  0  0  0  0  0  0  0  0  0  0
   18.8140   -7.1857  -14.9145 O   0  0  0  0  0  0  0  0  0  0  0  0
   20.6573   -5.9680  -15.4934 N   0  0  0  0  0  0  0  0  0  0  0  0
   20.7557   -5.3249  -14.2087 C   0  0  1  0  0  0  0  0  0  0  0  0
   22.0885   -5.6050  -13.5401 C   0  0  0  0  0  0  0  0  0  0  0  0
   22.3182   -7.0353  -13.3052 C   0  0  0  0  0  0  0  0  0  0  0  0
   23.1091   -7.7530  -14.2038 C   0  0  0  0  0  0  0  0  0  0  0  0
   23.3510   -9.0986  -14.0202 C   0  0  0  0  0  0  0  0  0  0  0  0
   22.8257   -9.7886  -12.9481 C   0  0  0  0  0  0  0  0  0  0  0  0
   22.0455   -9.0975  -12.0547 C   0  0  0  0  0  0  0  0  0  0  0  0
   21.8027   -7.7369  -12.2432 C   0  0  0  0  0  0  0  0  0  0  0  0
   20.4237   -3.8843  -14.2496 C   0  0  0  0  0  0  0  0  0  0  0  0
   21.3570   -3.0404  -14.4661 O   0  0  0  0  0  0  0  0  0  0  0  0
   19.3033    0.8135  -15.5101 N   0  0  0  0  0  0  0  0  0  0  0  0
   18.5448   -0.2828  -16.0214 C   0  0  0  0  0  0  0  0  0  0  0  0
   17.5378   -0.0020  -16.6958 O   0  0  0  0  0  0  0  0  0  0  0  0
   18.9678   -1.6504  -15.7412 C   0  0  0  0  0  0  0  0  0  0  0  0
   18.7903   -1.9508  -14.2464 C   0  0  2  0  0  0  0  0  0  0  0  0
   19.1212   -3.3943  -14.0626 N   0  0  0  0  0  0  0  0  0  0  0  0
   17.3531   -1.8460  -13.9552 C   0  0  0  0  0  0  0  0  0  0  0  0
   16.5569   -2.7650  -14.2096 O   0  0  0  0  0  0  0  0  0  0  0  0
   16.8443   -0.6987  -13.3787 O   0  0  0  0  0  0  0  0  0  0  0  0
  2  5  1  0
  2  1  1  1
  3  2  1  0
  4  3  1  0
  5  6  2  0
  7  8  1  0
  7  5  1  0
  8  9  1  6
  9 10  1  0
 10 15  2  0
 11 12  2  0
 11 10  1  0
 12 13  1  0
 13 14  2  0
 15 14  1  0
 16  8  1  0
 17 16  2  0
 18 19  1  0
 19 20  2  0
 21 19  1  0
 22 21  1  6
 22 23  1  0
 23 16  1  0
 24 26  1  0
 24 22  1  0
 25 24  2  0
M  END
$$$$
