CFN.pdb
     RDKit          3D

 26 26  0  0  1  0  0  0  0  0999 V2000
   28.7253  -20.5786  -14.7722 N   0  0  0  0  0  0  0  0  0  0  0  0
   27.8091  -19.7468  -14.0481 C   0  0  1  0  0  0  0  0  0  0  0  0
   27.3398  -18.5933  -14.8785 C   0  0  0  0  0  0  0  0  0  0  0  0
   28.7344  -17.4050  -14.9787 S   0  0  0  0  0  0  0  0  0  0  0  0
   26.7160  -20.5230  -13.4274 C   0  0  0  0  0  0  0  0  0  0  0  0
   26.2000  -21.4469  -14.1112 O   0  0  0  0  0  0  0  0  0  0  0  0
   26.2143  -20.3038  -12.1341 N   0  0  0  0  0  0  0  0  0  0  0  0
   25.0705  -21.0042  -11.6097 C   0  0  1  0  0  0  0  0  0  0  0  0
   25.1193  -21.1075  -10.0968 C   0  0  0  0  0  0  0  0  0  0  0  0
   26.4793  -20.9776   -9.5608 C   0  0  0  0  0  0  0  0  0  0  0  0
   26.7219  -20.0586   -8.5387 C   0  0  0  0  0  0  0  0  0  0  0  0
   27.9849  -19.9052   -8.0058 C   0  0  0  0  0  0  0  0  0  0  0  0
   29.0557  -20.6480   -8.4566 C   0  0  0  0  0  0  0  0  0  0  0  0
   28.8342  -21.5565   -9.4617 C   0  0  0  0  0  0  0  0  0  0  0  0
   27.5559  -21.7092   -9.9984 C   0  0  0  0  0  0  0  0  0  0  0  0
   23.7825  -20.4762  -12.1094 C   0  0  0  0  0  0  0  0  0  0  0  0
   23.7077  -19.2477  -12.4490 O   0  0  0  0  0  0  0  0  0  0  0  0
   21.2936  -21.4392  -16.6753 N   0  0  0  0  0  0  0  0  0  0  0  0
   20.9486  -22.0878  -15.4510 C   0  0  0  0  0  0  0  0  0  0  0  0
   19.8012  -22.5619  -15.3712 O   0  0  0  0  0  0  0  0  0  0  0  0
   21.9270  -22.1671  -14.3718 C   0  0  0  0  0  0  0  0  0  0  0  0
   21.6509  -21.0636  -13.3412 C   0  0  2  0  0  0  0  0  0  0  0  0
   22.6284  -21.2664  -12.2320 N   0  0  0  0  0  0  0  0  0  0  0  0
   20.3350  -21.3474  -12.7505 C   0  0  0  0  0  0  0  0  0  0  0  0
   20.1861  -22.1628  -11.8251 O   0  0  0  0  0  0  0  0  0  0  0  0
   19.2096  -20.6992  -13.2203 O   0  0  0  0  0  0  0  0  0  0  0  0
  2  5  1  0
  2  1  1  6
  3  2  1  0
  4  3  1  0
  5  6  2  0
  7  8  1  0
  7  5  1  0
  8  9  1  1
  9 10  1  0
 10 15  2  0
 11 12  2  0
 11 10  1  0
 12 13  1  0
 13 14  2  0
 15 14  1  0
 16  8  1  0
 17 16  2  0
 18 19  1  0
 19 20  2  0
 21 19  1  0
 22 21  1  6
 22 23  1  0
 23 16  1  0
 24 26  1  0
 24 22  1  0
 25 24  2  0
M  END
$$$$
