CFN.pdb
     RDKit          3D

 26 26  0  0  1  0  0  0  0  0999 V2000
   42.5367   -3.6390   -2.3513 N   0  0  0  0  0  0  0  0  0  0  0  0
   41.9269   -2.7456   -3.2922 C   0  0  1  0  0  0  0  0  0  0  0  0
   42.9340   -2.1754   -4.2413 C   0  0  0  0  0  0  0  0  0  0  0  0
   43.5007   -3.5545   -5.3108 S   0  0  0  0  0  0  0  0  0  0  0  0
   40.7504   -3.3451   -3.9549 C   0  0  0  0  0  0  0  0  0  0  0  0
   40.7026   -4.6022   -4.0255 O   0  0  0  0  0  0  0  0  0  0  0  0
   39.6864   -2.6149   -4.5090 N   0  0  0  0  0  0  0  0  0  0  0  0
   38.5190   -3.2404   -5.0745 C   0  0  1  0  0  0  0  0  0  0  0  0
   37.2400   -2.5741   -4.6033 C   0  0  0  0  0  0  0  0  0  0  0  0
   37.0241   -2.7136   -3.1585 C   0  0  0  0  0  0  0  0  0  0  0  0
   36.4321   -1.6632   -2.4554 C   0  0  0  0  0  0  0  0  0  0  0  0
   36.2102   -1.7531   -1.0969 C   0  0  0  0  0  0  0  0  0  0  0  0
   36.5614   -2.8769   -0.3791 C   0  0  0  0  0  0  0  0  0  0  0  0
   37.1448   -3.9193   -1.0556 C   0  0  0  0  0  0  0  0  0  0  0  0
   37.3678   -3.8253   -2.4292 C   0  0  0  0  0  0  0  0  0  0  0  0
   38.5866   -3.3818   -6.5451 C   0  0  0  0  0  0  0  0  0  0  0  0
   39.0936   -2.4345   -7.2349 O   0  0  0  0  0  0  0  0  0  0  0  0
   38.3618   -5.2855  -11.3276 N   0  0  0  0  0  0  0  0  0  0  0  0
   38.6563   -6.3463  -10.4186 C   0  0  0  0  0  0  0  0  0  0  0  0
   38.8592   -7.4693  -10.9138 O   0  0  0  0  0  0  0  0  0  0  0  0
   38.7064   -6.0799   -8.9852 C   0  0  0  0  0  0  0  0  0  0  0  0
   38.2318   -4.6466   -8.7086 C   0  0  2  0  0  0  0  0  0  0  0  0
   38.1185   -4.5169   -7.2263 N   0  0  0  0  0  0  0  0  0  0  0  0
   36.8533   -4.5467   -9.2095 C   0  0  0  0  0  0  0  0  0  0  0  0
   35.8692   -4.8066   -8.4973 O   0  0  0  0  0  0  0  0  0  0  0  0
   36.6154   -4.1519  -10.5114 O   0  0  0  0  0  0  0  0  0  0  0  0
  2  5  1  0
  2  1  1  6
  3  2  1  0
  4  3  1  0
  5  6  2  0
  7  8  1  0
  7  5  1  0
  8  9  1  6
  9 10  1  0
 10 15  2  0
 11 12  2  0
 11 10  1  0
 12 13  1  0
 13 14  2  0
 15 14  1  0
 16  8  1  0
 17 16  2  0
 18 19  1  0
 19 20  2  0
 21 19  1  0
 22 21  1  1
 22 23  1  0
 23 16  1  0
 24 26  1  0
 24 22  1  0
 25 24  2  0
M  END
$$$$
