CFN.pdb
     RDKit          3D

 26 26  0  0  1  0  0  0  0  0999 V2000
   17.4501  -13.4016  -16.6465 N   0  0  0  0  0  0  0  0  0  0  0  0
   17.3533  -11.9794  -16.8000 C   0  0  1  0  0  0  0  0  0  0  0  0
   15.9466  -11.5511  -17.0797 C   0  0  0  0  0  0  0  0  0  0  0  0
   15.5383  -12.1305  -18.7722 S   0  0  0  0  0  0  0  0  0  0  0  0
   17.9923  -11.2494  -15.6859 C   0  0  0  0  0  0  0  0  0  0  0  0
   17.7066  -11.6141  -14.5141 O   0  0  0  0  0  0  0  0  0  0  0  0
   18.8920  -10.1822  -15.8409 N   0  0  0  0  0  0  0  0  0  0  0  0
   19.4964   -9.5002  -14.7259 C   0  0  1  0  0  0  0  0  0  0  0  0
   20.9069   -9.0413  -15.0448 C   0  0  0  0  0  0  0  0  0  0  0  0
   21.5461   -8.3439  -13.9229 C   0  0  0  0  0  0  0  0  0  0  0  0
   22.1480   -9.0936  -12.9111 C   0  0  0  0  0  0  0  0  0  0  0  0
   22.7606   -8.4784  -11.8392 C   0  0  0  0  0  0  0  0  0  0  0  0
   22.8048   -7.1052  -11.7214 C   0  0  0  0  0  0  0  0  0  0  0  0
   22.2176   -6.3529  -12.7082 C   0  0  0  0  0  0  0  0  0  0  0  0
   21.5989   -6.9781  -13.7907 C   0  0  0  0  0  0  0  0  0  0  0  0
   18.6505   -8.4200  -14.1736 C   0  0  0  0  0  0  0  0  0  0  0  0
   17.9698   -7.6963  -14.9755 O   0  0  0  0  0  0  0  0  0  0  0  0
   16.2104   -5.2065  -10.9852 N   0  0  0  0  0  0  0  0  0  0  0  0
   16.9232   -6.1135  -10.1441 C   0  0  0  0  0  0  0  0  0  0  0  0
   16.8252   -5.9353   -8.9167 O   0  0  0  0  0  0  0  0  0  0  0  0
   17.7164   -7.1834  -10.7392 C   0  0  0  0  0  0  0  0  0  0  0  0
   17.6787   -7.0655  -12.2692 C   0  0  2  0  0  0  0  0  0  0  0  0
   18.5565   -8.1498  -12.7990 N   0  0  0  0  0  0  0  0  0  0  0  0
   18.3620   -5.8120  -12.6201 C   0  0  0  0  0  0  0  0  0  0  0  0
   19.5818   -5.6518  -12.4478 O   0  0  0  0  0  0  0  0  0  0  0  0
   17.6481   -4.7613  -13.1621 O   0  0  0  0  0  0  0  0  0  0  0  0
  2  5  1  0
  2  1  1  1
  3  2  1  0
  4  3  1  0
  5  6  2  0
  7  8  1  0
  7  5  1  0
  8  9  1  6
  9 10  1  0
 10 15  2  0
 11 12  2  0
 11 10  1  0
 12 13  1  0
 13 14  2  0
 15 14  1  0
 16  8  1  0
 17 16  2  0
 18 19  1  0
 19 20  2  0
 21 19  1  0
 22 21  1  1
 22 23  1  0
 23 16  1  0
 24 26  1  0
 24 22  1  0
 25 24  2  0
M  END
$$$$
