CFN.pdb
     RDKit          3D

 26 26  0  0  1  0  0  0  0  0999 V2000
   21.8875  -20.4586  -14.2218 N   0  0  0  0  0  0  0  0  0  0  0  0
   22.6920  -20.2470  -15.3894 C   0  0  1  0  0  0  0  0  0  0  0  0
   22.0000  -20.7244  -16.6278 C   0  0  0  0  0  0  0  0  0  0  0  0
   21.9970  -22.5582  -16.5647 S   0  0  0  0  0  0  0  0  0  0  0  0
   23.1964  -18.8614  -15.4805 C   0  0  0  0  0  0  0  0  0  0  0  0
   22.3514  -17.9302  -15.3990 O   0  0  0  0  0  0  0  0  0  0  0  0
   24.5457  -18.5112  -15.6507 N   0  0  0  0  0  0  0  0  0  0  0  0
   24.9892  -17.1477  -15.7848 C   0  0  1  0  0  0  0  0  0  0  0  0
   26.4271  -16.9769  -15.3318 C   0  0  0  0  0  0  0  0  0  0  0  0
   26.9491  -15.6298  -15.5896 C   0  0  0  0  0  0  0  0  0  0  0  0
   27.7857  -15.4239  -16.6876 C   0  0  0  0  0  0  0  0  0  0  0  0
   28.2976  -14.1737  -16.9667 C   0  0  0  0  0  0  0  0  0  0  0  0
   28.0071  -13.0803  -16.1783 C   0  0  0  0  0  0  0  0  0  0  0  0
   27.1855  -13.2656  -15.0942 C   0  0  0  0  0  0  0  0  0  0  0  0
   26.6695  -14.5310  -14.8147 C   0  0  0  0  0  0  0  0  0  0  0  0
   24.7374  -16.5809  -17.1274 C   0  0  0  0  0  0  0  0  0  0  0  0
   24.9222  -17.3170  -18.1541 O   0  0  0  0  0  0  0  0  0  0  0  0
   21.6038  -14.7487  -20.9396 N   0  0  0  0  0  0  0  0  0  0  0  0
   22.0268  -13.8454  -19.9180 C   0  0  0  0  0  0  0  0  0  0  0  0
   22.0064  -12.6333  -20.1974 O   0  0  0  0  0  0  0  0  0  0  0  0
   22.4541  -14.3639  -18.6232 C   0  0  0  0  0  0  0  0  0  0  0  0
   23.9372  -14.7546  -18.6864 C   0  0  2  0  0  0  0  0  0  0  0  0
   24.2992  -15.2625  -17.3307 N   0  0  0  0  0  0  0  0  0  0  0  0
   24.7025  -13.5097  -18.8473 C   0  0  0  0  0  0  0  0  0  0  0  0
   25.3791  -13.2746  -19.8623 O   0  0  0  0  0  0  0  0  0  0  0  0
   24.6856  -12.5517  -17.8527 O   0  0  0  0  0  0  0  0  0  0  0  0
  2  5  1  0
  2  1  1  1
  3  2  1  0
  4  3  1  0
  5  6  2  0
  7  8  1  0
  7  5  1  0
  8  9  1  6
  9 10  1  0
 10 15  2  0
 11 12  2  0
 11 10  1  0
 12 13  1  0
 13 14  2  0
 15 14  1  0
 16  8  1  0
 17 16  2  0
 18 19  1  0
 19 20  2  0
 21 19  1  0
 22 21  1  1
 22 23  1  0
 23 16  1  0
 24 26  1  0
 24 22  1  0
 25 24  2  0
M  END
$$$$
