CFN.pdb
     RDKit          3D

 26 26  0  0  1  0  0  0  0  0999 V2000
   23.1840  -14.7573  -17.6321 N   0  0  0  0  0  0  0  0  0  0  0  0
   22.8391  -13.4743  -18.1707 C   0  0  1  0  0  0  0  0  0  0  0  0
   21.4287  -13.4493  -18.6714 C   0  0  0  0  0  0  0  0  0  0  0  0
   21.3536  -14.5816  -20.1133 S   0  0  0  0  0  0  0  0  0  0  0  0
   23.1668  -12.3701  -17.2456 C   0  0  0  0  0  0  0  0  0  0  0  0
   22.9260  -12.5483  -16.0217 O   0  0  0  0  0  0  0  0  0  0  0  0
   23.7255  -11.1413  -17.6332 N   0  0  0  0  0  0  0  0  0  0  0  0
   23.9827  -10.0711  -16.7046 C   0  0  1  0  0  0  0  0  0  0  0  0
   25.4249   -9.6045  -16.7696 C   0  0  0  0  0  0  0  0  0  0  0  0
   26.3819  -10.6634  -16.4280 C   0  0  0  0  0  0  0  0  0  0  0  0
   26.6748  -10.9071  -15.0853 C   0  0  0  0  0  0  0  0  0  0  0  0
   27.5677  -11.8931  -14.7202 C   0  0  0  0  0  0  0  0  0  0  0  0
   28.2055  -12.6757  -15.6595 C   0  0  0  0  0  0  0  0  0  0  0  0
   27.9285  -12.4490  -16.9848 C   0  0  0  0  0  0  0  0  0  0  0  0
   27.0252  -11.4511  -17.3507 C   0  0  0  0  0  0  0  0  0  0  0  0
   23.0127   -8.9597  -16.8108 C   0  0  0  0  0  0  0  0  0  0  0  0
   22.5501   -8.6503  -17.9598 O   0  0  0  0  0  0  0  0  0  0  0  0
   17.8342   -7.3007  -16.0495 N   0  0  0  0  0  0  0  0  0  0  0  0
   19.1564   -6.9332  -16.4432 C   0  0  0  0  0  0  0  0  0  0  0  0
   19.3094   -5.7818  -16.8889 O   0  0  0  0  0  0  0  0  0  0  0  0
   20.2458   -7.8944  -16.3115 C   0  0  0  0  0  0  0  0  0  0  0  0
   21.5118   -7.1776  -15.8222 C   0  0  2  0  0  0  0  0  0  0  0  0
   22.5699   -8.2229  -15.7006 N   0  0  0  0  0  0  0  0  0  0  0  0
   21.2492   -6.7346  -14.4452 C   0  0  0  0  0  0  0  0  0  0  0  0
   21.7629   -7.2917  -13.4608 O   0  0  0  0  0  0  0  0  0  0  0  0
   20.4080   -5.6650  -14.2093 O   0  0  0  0  0  0  0  0  0  0  0  0
  2  5  1  0
  2  1  1  1
  3  2  1  0
  4  3  1  0
  5  6  2  0
  7  8  1  0
  7  5  1  0
  8  9  1  6
  9 10  1  0
 10 15  2  0
 11 12  2  0
 11 10  1  0
 12 13  1  0
 13 14  2  0
 15 14  1  0
 16  8  1  0
 17 16  2  0
 18 19  1  0
 19 20  2  0
 21 19  1  0
 22 21  1  1
 22 23  1  0
 23 16  1  0
 24 26  1  0
 24 22  1  0
 25 24  2  0
M  END
$$$$
