CFN.pdb
     RDKit          3D

 26 26  0  0  1  0  0  0  0  0999 V2000
   20.3567  -13.2093  -19.0939 N   0  0  0  0  0  0  0  0  0  0  0  0
   21.1247  -12.0217  -19.3288 C   0  0  1  0  0  0  0  0  0  0  0  0
   20.9526  -11.5240  -20.7299 C   0  0  0  0  0  0  0  0  0  0  0  0
   21.8541  -12.6881  -21.8248 S   0  0  0  0  0  0  0  0  0  0  0  0
   20.8973  -10.9919  -18.2943 C   0  0  0  0  0  0  0  0  0  0  0  0
   19.7063  -10.7730  -17.9459 O   0  0  0  0  0  0  0  0  0  0  0  0
   21.9113  -10.2433  -17.6748 N   0  0  0  0  0  0  0  0  0  0  0  0
   21.6399   -9.1744  -16.7488 C   0  0  1  0  0  0  0  0  0  0  0  0
   22.7408   -9.0334  -15.7143 C   0  0  0  0  0  0  0  0  0  0  0  0
   22.4928   -7.9431  -14.7639 C   0  0  0  0  0  0  0  0  0  0  0  0
   21.8584   -8.2277  -13.5538 C   0  0  0  0  0  0  0  0  0  0  0  0
   21.6068   -7.2329  -12.6319 C   0  0  0  0  0  0  0  0  0  0  0  0
   21.9687   -5.9227  -12.8641 C   0  0  0  0  0  0  0  0  0  0  0  0
   22.5938   -5.6257  -14.0497 C   0  0  0  0  0  0  0  0  0  0  0  0
   22.8467   -6.6339  -14.9798 C   0  0  0  0  0  0  0  0  0  0  0  0
   21.3076   -7.8958  -17.4137 C   0  0  0  0  0  0  0  0  0  0  0  0
   22.0200   -7.5079  -18.3997 O   0  0  0  0  0  0  0  0  0  0  0  0
   19.0707   -3.5548  -18.9228 N   0  0  0  0  0  0  0  0  0  0  0  0
   18.2485   -4.7108  -19.0842 C   0  0  0  0  0  0  0  0  0  0  0  0
   17.2295   -4.5809  -19.7859 O   0  0  0  0  0  0  0  0  0  0  0  0
   18.6244   -5.9637  -18.4386 C   0  0  0  0  0  0  0  0  0  0  0  0
   19.9462   -5.7788  -17.6805 C   0  0  2  0  0  0  0  0  0  0  0  0
   20.2367   -7.0811  -17.0123 N   0  0  0  0  0  0  0  0  0  0  0  0
   19.6840   -4.8347  -16.5845 C   0  0  0  0  0  0  0  0  0  0  0  0
   20.1348   -3.6771  -16.5852 O   0  0  0  0  0  0  0  0  0  0  0  0
   18.9127   -5.2211  -15.5059 O   0  0  0  0  0  0  0  0  0  0  0  0
  2  5  1  0
  2  1  1  1
  3  2  1  0
  4  3  1  0
  5  6  2  0
  7  8  1  0
  7  5  1  0
  8  9  1  6
  9 10  1  0
 10 15  2  0
 11 12  2  0
 11 10  1  0
 12 13  1  0
 13 14  2  0
 15 14  1  0
 16  8  1  0
 17 16  2  0
 18 19  1  0
 19 20  2  0
 21 19  1  0
 22 21  1  6
 22 23  1  0
 23 16  1  0
 24 26  1  0
 24 22  1  0
 25 24  2  0
M  END
$$$$
