CFN.pdb
     RDKit          3D

 26 26  0  0  1  0  0  0  0  0999 V2000
   19.0037  -25.6238  -12.2305 N   0  0  0  0  0  0  0  0  0  0  0  0
   19.1988  -24.6959  -11.1551 C   0  0  1  0  0  0  0  0  0  0  0  0
   18.9910  -23.2831  -11.6036 C   0  0  0  0  0  0  0  0  0  0  0  0
   19.0741  -23.2868  -13.4366 S   0  0  0  0  0  0  0  0  0  0  0  0
   18.4270  -25.0623   -9.9499 C   0  0  0  0  0  0  0  0  0  0  0  0
   17.4412  -25.8318  -10.1043 O   0  0  0  0  0  0  0  0  0  0  0  0
   18.7141  -24.6150   -8.6500 N   0  0  0  0  0  0  0  0  0  0  0  0
   17.8746  -24.9103   -7.5178 C   0  0  1  0  0  0  0  0  0  0  0  0
   18.5822  -24.6310   -6.2051 C   0  0  0  0  0  0  0  0  0  0  0  0
   17.7722  -24.9879   -5.0345 C   0  0  0  0  0  0  0  0  0  0  0  0
   18.0741  -26.1538   -4.3291 C   0  0  0  0  0  0  0  0  0  0  0  0
   17.3389  -26.5259   -3.2229 C   0  0  0  0  0  0  0  0  0  0  0  0
   16.2807  -25.7673   -2.7687 C   0  0  0  0  0  0  0  0  0  0  0  0
   15.9704  -24.6173   -3.4512 C   0  0  0  0  0  0  0  0  0  0  0  0
   16.7158  -24.2439   -4.5694 C   0  0  0  0  0  0  0  0  0  0  0  0
   16.5405  -24.2771   -7.5988 C   0  0  0  0  0  0  0  0  0  0  0  0
   16.4484  -23.0833   -8.0418 O   0  0  0  0  0  0  0  0  0  0  0  0
   10.9778  -25.1048   -8.9581 N   0  0  0  0  0  0  0  0  0  0  0  0
   12.0894  -24.2164   -8.8411 C   0  0  0  0  0  0  0  0  0  0  0  0
   11.8411  -22.9982   -8.8877 O   0  0  0  0  0  0  0  0  0  0  0  0
   13.4346  -24.7559   -8.6763 C   0  0  0  0  0  0  0  0  0  0  0  0
   14.0227  -24.2800   -7.3406 C   0  0  2  0  0  0  0  0  0  0  0  0
   15.3596  -24.9303   -7.2112 N   0  0  0  0  0  0  0  0  0  0  0  0
   13.2020  -24.8729   -6.2747 C   0  0  0  0  0  0  0  0  0  0  0  0
   13.2785  -26.0751   -5.9709 O   0  0  0  0  0  0  0  0  0  0  0  0
   12.3085  -24.0899   -5.5705 O   0  0  0  0  0  0  0  0  0  0  0  0
  2  5  1  0
  2  1  1  6
  3  2  1  0
  4  3  1  0
  5  6  2  0
  7  8  1  0
  7  5  1  0
  8  9  1  1
  9 10  1  0
 10 15  2  0
 11 12  2  0
 11 10  1  0
 12 13  1  0
 13 14  2  0
 15 14  1  0
 16  8  1  0
 17 16  2  0
 18 19  1  0
 19 20  2  0
 21 19  1  0
 22 21  1  6
 22 23  1  0
 23 16  1  0
 24 26  1  0
 24 22  1  0
 25 24  2  0
M  END
$$$$
