CFN.pdb
     RDKit          3D

 26 26  0  0  1  0  0  0  0  0999 V2000
   25.1869  -11.5149  -19.9635 N   0  0  0  0  0  0  0  0  0  0  0  0
   24.9861  -10.1114  -20.1762 C   0  0  1  0  0  0  0  0  0  0  0  0
   24.2018   -9.8512  -21.4242 C   0  0  0  0  0  0  0  0  0  0  0  0
   25.2240  -10.4397  -22.8298 S   0  0  0  0  0  0  0  0  0  0  0  0
   24.4498   -9.4329  -18.9784 C   0  0  0  0  0  0  0  0  0  0  0  0
   23.5339  -10.0186  -18.3414 O   0  0  0  0  0  0  0  0  0  0  0  0
   24.8877   -8.1863  -18.5023 N   0  0  0  0  0  0  0  0  0  0  0  0
   24.3616   -7.5759  -17.3088 C   0  0  1  0  0  0  0  0  0  0  0  0
   25.3929   -7.5343  -16.1969 C   0  0  0  0  0  0  0  0  0  0  0  0
   25.8070   -8.8708  -15.7541 C   0  0  0  0  0  0  0  0  0  0  0  0
   27.0318   -9.3810  -16.1874 C   0  0  0  0  0  0  0  0  0  0  0  0
   27.4596  -10.6321  -15.7945 C   0  0  0  0  0  0  0  0  0  0  0  0
   26.7011  -11.4280  -14.9621 C   0  0  0  0  0  0  0  0  0  0  0  0
   25.4937  -10.9410  -14.5267 C   0  0  0  0  0  0  0  0  0  0  0  0
   25.0639   -9.6755  -14.9259 C   0  0  0  0  0  0  0  0  0  0  0  0
   23.7273   -6.2628  -17.5551 C   0  0  0  0  0  0  0  0  0  0  0  0
   24.4077   -5.3442  -18.1237 O   0  0  0  0  0  0  0  0  0  0  0  0
   20.3746   -2.4617  -18.2004 N   0  0  0  0  0  0  0  0  0  0  0  0
   19.8083   -3.7075  -18.6075 C   0  0  0  0  0  0  0  0  0  0  0  0
   18.7167   -3.6598  -19.2023 O   0  0  0  0  0  0  0  0  0  0  0  0
   20.5114   -4.9525  -18.3184 C   0  0  0  0  0  0  0  0  0  0  0  0
   21.7733   -4.6551  -17.4966 C   0  0  2  0  0  0  0  0  0  0  0  0
   22.4016   -5.9743  -17.1934 N   0  0  0  0  0  0  0  0  0  0  0  0
   21.3260   -4.1347  -16.1964 C   0  0  0  0  0  0  0  0  0  0  0  0
   20.9457   -2.9614  -16.0479 O   0  0  0  0  0  0  0  0  0  0  0  0
   21.3171   -4.9564  -15.0864 O   0  0  0  0  0  0  0  0  0  0  0  0
  2  5  1  0
  2  1  1  1
  3  2  1  0
  4  3  1  0
  5  6  2  0
  7  8  1  0
  7  5  1  0
  8  9  1  1
  9 10  1  0
 10 15  2  0
 11 12  2  0
 11 10  1  0
 12 13  1  0
 13 14  2  0
 15 14  1  0
 16  8  1  0
 17 16  2  0
 18 19  1  0
 19 20  2  0
 21 19  1  0
 22 21  1  6
 22 23  1  0
 23 16  1  0
 24 26  1  0
 24 22  1  0
 25 24  2  0
M  END
$$$$
