CFN.pdb
     RDKit          3D

 26 26  0  0  1  0  0  0  0  0999 V2000
   28.2530  -18.9676  -16.5286 N   0  0  0  0  0  0  0  0  0  0  0  0
   27.5108  -18.3794  -15.4523 C   0  0  1  0  0  0  0  0  0  0  0  0
   26.6696  -17.2353  -15.9253 C   0  0  0  0  0  0  0  0  0  0  0  0
   27.6001  -15.6983  -15.5528 S   0  0  0  0  0  0  0  0  0  0  0  0
   26.7675  -19.3858  -14.6666 C   0  0  0  0  0  0  0  0  0  0  0  0
   26.1937  -20.3098  -15.3027 O   0  0  0  0  0  0  0  0  0  0  0  0
   26.6565  -19.3846  -13.2666 N   0  0  0  0  0  0  0  0  0  0  0  0
   25.8986  -20.3710  -12.5411 C   0  0  1  0  0  0  0  0  0  0  0  0
   26.4204  -20.5538  -11.1283 C   0  0  0  0  0  0  0  0  0  0  0  0
   27.8429  -20.9123  -11.0886 C   0  0  0  0  0  0  0  0  0  0  0  0
   28.2032  -22.2353  -10.8281 C   0  0  0  0  0  0  0  0  0  0  0  0
   29.5284  -22.6153  -10.7826 C   0  0  0  0  0  0  0  0  0  0  0  0
   30.5482  -21.7108  -10.9910 C   0  0  0  0  0  0  0  0  0  0  0  0
   30.2110  -20.4052  -11.2484 C   0  0  0  0  0  0  0  0  0  0  0  0
   28.8700  -20.0241  -11.2937 C   0  0  0  0  0  0  0  0  0  0  0  0
   24.4389  -20.1381  -12.5900 C   0  0  0  0  0  0  0  0  0  0  0  0
   23.9866  -18.9820  -12.2918 O   0  0  0  0  0  0  0  0  0  0  0  0
   20.1236  -18.7009  -15.0738 N   0  0  0  0  0  0  0  0  0  0  0  0
   20.7354  -19.9893  -15.1394 C   0  0  0  0  0  0  0  0  0  0  0  0
   20.0461  -20.9145  -15.6048 O   0  0  0  0  0  0  0  0  0  0  0  0
   22.1057  -20.1659  -14.6716 C   0  0  0  0  0  0  0  0  0  0  0  0
   22.0977  -20.8099  -13.2783 C   0  0  2  0  0  0  0  0  0  0  0  0
   23.5178  -21.1336  -12.9534 N   0  0  0  0  0  0  0  0  0  0  0  0
   21.4275  -22.1116  -13.4110 C   0  0  0  0  0  0  0  0  0  0  0  0
   22.0100  -23.1143  -13.8567 O   0  0  0  0  0  0  0  0  0  0  0  0
   20.1064  -22.2531  -13.0340 O   0  0  0  0  0  0  0  0  0  0  0  0
  2  5  1  0
  2  1  1  6
  3  2  1  0
  4  3  1  0
  5  6  2  0
  7  8  1  0
  7  5  1  0
  8  9  1  1
  9 10  1  0
 10 15  2  0
 11 12  2  0
 11 10  1  0
 12 13  1  0
 13 14  2  0
 15 14  1  0
 16  8  1  0
 17 16  2  0
 18 19  1  0
 19 20  2  0
 21 19  1  0
 22 21  1  6
 22 23  1  0
 23 16  1  0
 24 26  1  0
 24 22  1  0
 25 24  2  0
M  END
$$$$
