CFN.pdb
     RDKit          3D

 26 26  0  0  1  0  0  0  0  0999 V2000
   28.6604  -23.1388  -17.5481 N   0  0  0  0  0  0  0  0  0  0  0  0
   27.9828  -21.9053  -17.2748 C   0  0  1  0  0  0  0  0  0  0  0  0
   27.1288  -21.4799  -18.4281 C   0  0  0  0  0  0  0  0  0  0  0  0
   28.2626  -20.8718  -19.7365 S   0  0  0  0  0  0  0  0  0  0  0  0
   27.2727  -21.9294  -15.9795 C   0  0  0  0  0  0  0  0  0  0  0  0
   26.8285  -23.0396  -15.5824 O   0  0  0  0  0  0  0  0  0  0  0  0
   27.0592  -20.8064  -15.1636 N   0  0  0  0  0  0  0  0  0  0  0  0
   26.2796  -20.8552  -13.9538 C   0  0  1  0  0  0  0  0  0  0  0  0
   26.7821  -19.8642  -12.9207 C   0  0  0  0  0  0  0  0  0  0  0  0
   26.4402  -20.2513  -11.5470 C   0  0  0  0  0  0  0  0  0  0  0  0
   25.3035  -19.7043  -10.9499 C   0  0  0  0  0  0  0  0  0  0  0  0
   24.9455  -20.0414   -9.6611 C   0  0  0  0  0  0  0  0  0  0  0  0
   25.6901  -20.9276   -8.9116 C   0  0  0  0  0  0  0  0  0  0  0  0
   26.8114  -21.4749   -9.4841 C   0  0  0  0  0  0  0  0  0  0  0  0
   27.1707  -21.1318  -10.7875 C   0  0  0  0  0  0  0  0  0  0  0  0
   24.8238  -20.7498  -14.1924 C   0  0  0  0  0  0  0  0  0  0  0  0
   24.4036  -19.9850  -15.1243 O   0  0  0  0  0  0  0  0  0  0  0  0
   19.7887  -23.5288  -14.3723 N   0  0  0  0  0  0  0  0  0  0  0  0
   20.3581  -22.6822  -13.3735 C   0  0  0  0  0  0  0  0  0  0  0  0
   19.5700  -21.9697  -12.7263 O   0  0  0  0  0  0  0  0  0  0  0  0
   21.8006  -22.6854  -13.1568 C   0  0  0  0  0  0  0  0  0  0  0  0
   22.4201  -21.4270  -13.7803 C   0  0  2  0  0  0  0  0  0  0  0  0
   23.8727  -21.4569  -13.4395 N   0  0  0  0  0  0  0  0  0  0  0  0
   21.8774  -20.2734  -13.0482 C   0  0  0  0  0  0  0  0  0  0  0  0
   22.3266  -19.9173  -11.9461 O   0  0  0  0  0  0  0  0  0  0  0  0
   20.8336  -19.5426  -13.5809 O   0  0  0  0  0  0  0  0  0  0  0  0
  2  5  1  0
  2  1  1  6
  3  2  1  0
  4  3  1  0
  5  6  2  0
  7  8  1  0
  7  5  1  0
  8  9  1  1
  9 10  1  0
 10 15  2  0
 11 12  2  0
 11 10  1  0
 12 13  1  0
 13 14  2  0
 15 14  1  0
 16  8  1  0
 17 16  2  0
 18 19  1  0
 19 20  2  0
 21 19  1  0
 22 21  1  1
 22 23  1  0
 23 16  1  0
 24 26  1  0
 24 22  1  0
 25 24  2  0
M  END
$$$$
