FRW.pdb
     RDKit          3D

 37 39  0  0  1  0  0  0  0  0999 V2000
    7.6372  -21.3628   21.7114 N   0  0  0  0  0  0  0  0  0  0  0  0
    7.5319  -20.3120   22.7033 C   0  0  1  0  0  0  0  0  0  0  0  0
    7.2021  -20.8972   24.0332 C   0  0  0  0  0  0  0  0  0  0  0  0
    7.0725  -19.7680   24.9943 C   0  0  0  0  0  0  0  0  0  0  0  0
    7.8548  -19.6496   26.1246 C   0  0  0  0  0  0  0  0  0  0  0  0
    7.7347  -18.6035   27.0072 C   0  0  0  0  0  0  0  0  0  0  0  0
    6.8122  -17.6226   26.7872 C   0  0  0  0  0  0  0  0  0  0  0  0
    6.0091  -17.7144   25.6560 C   0  0  0  0  0  0  0  0  0  0  0  0
    6.1420  -18.7649   24.7848 C   0  0  0  0  0  0  0  0  0  0  0  0
    8.8046  -19.5454   22.6812 C   0  0  0  0  0  0  0  0  0  0  0  0
    9.9247  -20.0431   22.9563 O   0  0  0  0  0  0  0  0  0  0  0  0
    9.0979  -13.4404   18.3622 N   0  0  0  0  0  0  0  0  0  0  0  0
    7.8436  -13.3889   19.0416 C   0  0  0  0  0  0  0  0  0  0  0  0
    7.0941  -12.3655   18.9571 N   0  0  0  0  0  0  0  0  0  0  0  0
    7.4241  -14.5145   19.8282 N   0  0  0  0  0  0  0  0  0  0  0  0
    8.2488  -15.6933   19.9619 C   0  0  0  0  0  0  0  0  0  0  0  0
    9.3392  -15.4307   20.9393 C   0  0  0  0  0  0  0  0  0  0  0  0
   10.2894  -16.6044   21.0037 C   0  0  0  0  0  0  0  0  0  0  0  0
   10.0412  -17.3690   22.2471 C   0  0  2  0  0  0  0  0  0  0  0  0
    8.8701  -18.1539   22.3403 N   0  0  0  0  0  0  0  0  0  0  0  0
   10.2308  -16.6316   23.5133 C   0  0  0  0  0  0  0  0  0  0  0  0
   10.8975  -15.5676   23.4983 O   0  0  0  0  0  0  0  0  0  0  0  0
    6.2366  -12.2683   19.5257 N   0  0  0  0  0  0  0  0  0  0  0  0
    9.7125  -17.0346   24.7583 C   0  0  1  0  0  0  0  0  0  0  0  0
   10.2304  -16.5696   26.0509 C   0  0  0  0  0  0  0  0  0  0  0  0
    9.1215  -16.0454   26.9063 C   0  0  0  0  0  0  0  0  0  0  0  0
    8.1932  -15.1864   26.1528 C   0  0  0  0  0  0  0  0  0  0  0  0
    7.2386  -15.6985   25.2675 N   0  0  0  0  0  0  0  0  0  0  0  0
    6.5203  -14.6655   24.7859 C   0  0  0  0  0  0  0  0  0  0  0  0
    6.9461  -13.4898   25.3024 C   0  0  0  0  0  0  0  0  0  0  0  0
    6.5387  -12.1846   25.1159 C   0  0  0  0  0  0  0  0  0  0  0  0
    7.1815  -11.1785   25.7878 C   0  0  0  0  0  0  0  0  0  0  0  0
    8.2120  -11.5107   26.6248 C   0  0  0  0  0  0  0  0  0  0  0  0
    8.6440  -12.8182   26.8321 C   0  0  0  0  0  0  0  0  0  0  0  0
    7.9943  -13.8310   26.1551 C   0  0  0  0  0  0  0  0  0  0  0  0
   11.1433  -17.5220   26.6572 O   0  0  0  0  0  0  0  0  0  0  0  0
   11.4877  -18.7763   26.2113 O   0  0  0  0  0  0  0  0  0  0  0  0
  2  1  1  6
  2  3  1  0
  3  4  1  0
  4  9  2  0
  5  6  2  0
  5  4  1  0
  6  7  1  0
  7  8  2  0
  9  8  1  0
 10 11  2  0
 10  2  1  0
 12 13  1  0
 13 14  2  0
 13 15  1  0
 15 16  1  0
 16 17  1  0
 17 18  1  0
 19 18  1  6
 19 20  1  0
 20 10  1  0
 21 19  1  0
 21 23  1  0
 22 21  2  0
 24 23  1  0
 24 35  1  0
 24 25  1  6
 26 25  1  0
 27 26  2  0
 28 29  1  0
 28 27  1  0
 29 34  2  0
 30 29  1  0
 30 31  2  0
 31 32  1  0
 32 33  2  0
 34 26  1  0
 34 33  1  0
 35 36  1  0
 37 35  2  0
M  END
$$$$
