FRW.pdb
     RDKit          3D

 37 39  0  0  1  0  0  0  0  0999 V2000
    7.5530  -21.0390   24.3995 N   0  0  0  0  0  0  0  0  0  0  0  0
    7.3629  -19.6103   24.5457 C   0  0  1  0  0  0  0  0  0  0  0  0
    8.2689  -19.0807   25.6033 C   0  0  0  0  0  0  0  0  0  0  0  0
    7.8925  -19.7436   26.8818 C   0  0  0  0  0  0  0  0  0  0  0  0
    6.6631  -19.5715   27.4839 C   0  0  0  0  0  0  0  0  0  0  0  0
    6.3181  -20.1883   28.6622 C   0  0  0  0  0  0  0  0  0  0  0  0
    7.2054  -21.0125   29.2906 C   0  0  0  0  0  0  0  0  0  0  0  0
    8.4527  -21.2057   28.7078 C   0  0  0  0  0  0  0  0  0  0  0  0
    8.7812  -20.5829   27.5311 C   0  0  0  0  0  0  0  0  0  0  0  0
    7.5688  -18.9916   23.2105 C   0  0  0  0  0  0  0  0  0  0  0  0
    8.3325  -19.4640   22.3320 O   0  0  0  0  0  0  0  0  0  0  0  0
    7.0019  -12.2769   17.9269 N   0  0  0  0  0  0  0  0  0  0  0  0
    8.0252  -13.2343   17.6555 C   0  0  0  0  0  0  0  0  0  0  0  0
    9.0422  -12.9265   16.9576 N   0  0  0  0  0  0  0  0  0  0  0  0
    7.9016  -14.5635   18.1845 N   0  0  0  0  0  0  0  0  0  0  0  0
    6.8460  -14.9158   19.1060 C   0  0  0  0  0  0  0  0  0  0  0  0
    7.3568  -14.8412   20.5013 C   0  0  0  0  0  0  0  0  0  0  0  0
    6.5605  -15.7510   21.4083 C   0  0  0  0  0  0  0  0  0  0  0  0
    7.4666  -16.7496   22.0197 C   0  0  2  0  0  0  0  0  0  0  0  0
    6.9079  -17.7870   22.7997 N   0  0  0  0  0  0  0  0  0  0  0  0
    8.6560  -16.2117   22.7116 C   0  0  0  0  0  0  0  0  0  0  0  0
    9.2825  -15.2600   22.1838 O   0  0  0  0  0  0  0  0  0  0  0  0
    9.7926  -13.6079   16.7560 N   0  0  0  0  0  0  0  0  0  0  0  0
    9.1510  -16.6899   23.9394 C   0  0  1  0  0  0  0  0  0  0  0  0
   10.3089  -16.1157   24.6357 C   0  0  0  0  0  0  0  0  0  0  0  0
   10.0043  -14.7322   25.1146 C   0  0  0  0  0  0  0  0  0  0  0  0
    8.6399  -14.6161   25.6552 C   0  0  0  0  0  0  0  0  0  0  0  0
    7.8632  -15.7295   25.9937 N   0  0  0  0  0  0  0  0  0  0  0  0
    6.6984  -15.2852   26.5044 C   0  0  0  0  0  0  0  0  0  0  0  0
    6.6559  -13.9331   26.5235 C   0  0  0  0  0  0  0  0  0  0  0  0
    5.6954  -13.0338   26.9397 C   0  0  0  0  0  0  0  0  0  0  0  0
    5.9398  -11.6907   26.8261 C   0  0  0  0  0  0  0  0  0  0  0  0
    7.1377  -11.2901   26.2993 C   0  0  0  0  0  0  0  0  0  0  0  0
    8.1245  -12.1747   25.8717 C   0  0  0  0  0  0  0  0  0  0  0  0
    7.8770  -13.5280   25.9880 C   0  0  0  0  0  0  0  0  0  0  0  0
   10.8918  -17.0370   25.5946 O   0  0  0  0  0  0  0  0  0  0  0  0
   12.0527  -16.8945   26.3176 O   0  0  0  0  0  0  0  0  0  0  0  0
  2  1  1  6
  2  3  1  0
  3  4  1  0
  4  9  2  0
  5  6  2  0
  5  4  1  0
  6  7  1  0
  7  8  2  0
  9  8  1  0
 10 11  2  0
 10  2  1  0
 12 13  1  0
 13 14  2  0
 13 15  1  0
 15 16  1  0
 16 17  1  0
 17 18  1  0
 19 18  1  1
 19 20  1  0
 20 10  1  0
 21 19  1  0
 21 23  1  0
 22 21  2  0
 24 23  1  0
 24 35  1  0
 24 25  1  1
 26 25  1  0
 27 26  2  0
 28 29  1  0
 28 27  1  0
 29 34  2  0
 30 29  1  0
 30 31  2  0
 31 32  1  0
 32 33  2  0
 34 26  1  0
 34 33  1  0
 35 36  1  0
 37 35  2  0
M  END
$$$$
