FRW.pdb
     RDKit          3D

 37 39  0  0  1  0  0  0  0  0999 V2000
    7.1572  -19.4825   19.8125 N   0  0  0  0  0  0  0  0  0  0  0  0
    7.0599  -18.8472   21.1109 C   0  0  1  0  0  0  0  0  0  0  0  0
    7.0669  -19.8792   22.1855 C   0  0  0  0  0  0  0  0  0  0  0  0
    6.8862  -19.1702   23.4818 C   0  0  0  0  0  0  0  0  0  0  0  0
    7.5749  -19.5118   24.6276 C   0  0  0  0  0  0  0  0  0  0  0  0
    7.4080  -18.8522   25.8213 C   0  0  0  0  0  0  0  0  0  0  0  0
    6.5316  -17.8107   25.9130 C   0  0  0  0  0  0  0  0  0  0  0  0
    5.8229  -17.4429   24.7748 C   0  0  0  0  0  0  0  0  0  0  0  0
    6.0015  -18.1114   23.5909 C   0  0  0  0  0  0  0  0  0  0  0  0
    8.1687  -17.8634   21.2130 C   0  0  0  0  0  0  0  0  0  0  0  0
    9.3818  -18.1621   21.0818 O   0  0  0  0  0  0  0  0  0  0  0  0
    7.6842  -14.2106   15.0867 N   0  0  0  0  0  0  0  0  0  0  0  0
    8.1771  -13.9255   16.3956 C   0  0  0  0  0  0  0  0  0  0  0  0
    9.3793  -14.1882   16.7148 N   0  0  0  0  0  0  0  0  0  0  0  0
    7.2988  -13.3290   17.3623 N   0  0  0  0  0  0  0  0  0  0  0  0
    7.7234  -13.0866   18.7220 C   0  0  0  0  0  0  0  0  0  0  0  0
    8.0997  -14.3748   19.3640 C   0  0  0  0  0  0  0  0  0  0  0  0
    8.5421  -14.1482   20.7913 C   0  0  0  0  0  0  0  0  0  0  0  0
    8.9213  -15.4440   21.3992 C   0  0  2  0  0  0  0  0  0  0  0  0
    7.9524  -16.4697   21.4730 N   0  0  0  0  0  0  0  0  0  0  0  0
    9.6482  -15.3724   22.6834 C   0  0  0  0  0  0  0  0  0  0  0  0
   10.1758  -14.2833   23.0186 O   0  0  0  0  0  0  0  0  0  0  0  0
    9.6296  -14.5480   17.6507 N   0  0  0  0  0  0  0  0  0  0  0  0
    9.7979  -16.4486   23.5782 C   0  0  1  0  0  0  0  0  0  0  0  0
   10.6490  -16.4079   24.7738 C   0  0  0  0  0  0  0  0  0  0  0  0
   10.4883  -15.1063   25.4923 C   0  0  0  0  0  0  0  0  0  0  0  0
    9.0913  -14.8514   25.8805 C   0  0  0  0  0  0  0  0  0  0  0  0
    8.2694  -15.8369   26.4379 N   0  0  0  0  0  0  0  0  0  0  0  0
    7.0804  -15.2733   26.7269 C   0  0  0  0  0  0  0  0  0  0  0  0
    7.0645  -13.9630   26.3904 C   0  0  0  0  0  0  0  0  0  0  0  0
    6.0955  -12.9851   26.4853 C   0  0  0  0  0  0  0  0  0  0  0  0
    6.3753  -11.7184   26.0448 C   0  0  0  0  0  0  0  0  0  0  0  0
    7.6159  -11.4707   25.5230 C   0  0  0  0  0  0  0  0  0  0  0  0
    8.6124  -12.4375   25.4152 C   0  0  0  0  0  0  0  0  0  0  0  0
    8.3292  -13.7132   25.8607 C   0  0  0  0  0  0  0  0  0  0  0  0
   10.5496  -17.6205   25.5662 O   0  0  0  0  0  0  0  0  0  0  0  0
    9.6730  -18.6690   25.4150 O   0  0  0  0  0  0  0  0  0  0  0  0
  2  1  1  6
  2  3  1  0
  3  4  1  0
  4  9  2  0
  5  6  2  0
  5  4  1  0
  6  7  1  0
  7  8  2  0
  9  8  1  0
 10 11  2  0
 10  2  1  0
 12 13  1  0
 13 14  2  0
 13 15  1  0
 15 16  1  0
 16 17  1  0
 17 18  1  0
 19 18  1  1
 19 20  1  0
 20 10  1  0
 21 19  1  0
 21 23  1  0
 22 21  2  0
 24 23  1  0
 24 35  1  0
 24 25  1  1
 26 25  1  0
 27 26  2  0
 28 29  1  0
 28 27  1  0
 29 34  2  0
 30 29  1  0
 30 31  2  0
 31 32  1  0
 32 33  2  0
 34 26  1  0
 34 33  1  0
 35 36  1  0
 37 35  2  0
M  END
$$$$
