FRW.pdb
     RDKit          3D

 37 39  0  0  1  0  0  0  0  0999 V2000
    7.0733  -16.3157   23.4853 N   0  0  0  0  0  0  0  0  0  0  0  0
    6.9338  -16.7489   22.1099 C   0  0  1  0  0  0  0  0  0  0  0  0
    6.1002  -15.7751   21.3505 C   0  0  0  0  0  0  0  0  0  0  0  0
    6.8964  -14.5252   21.2102 C   0  0  0  0  0  0  0  0  0  0  0  0
    8.0231  -14.2635   21.9622 C   0  0  0  0  0  0  0  0  0  0  0  0
    8.7575  -13.1102   21.8269 C   0  0  0  0  0  0  0  0  0  0  0  0
    8.3846  -12.1618   20.9198 C   0  0  0  0  0  0  0  0  0  0  0  0
    7.2531  -12.3973   20.1469 C   0  0  0  0  0  0  0  0  0  0  0  0
    6.5314  -13.5539   20.2941 C   0  0  0  0  0  0  0  0  0  0  0  0
    8.3005  -16.9324   21.5567 C   0  0  0  0  0  0  0  0  0  0  0  0
    8.5393  -17.1514   20.3430 O   0  0  0  0  0  0  0  0  0  0  0  0
   15.2653  -14.1190   19.5762 N   0  0  0  0  0  0  0  0  0  0  0  0
   15.4957  -15.3950   18.9795 C   0  0  0  0  0  0  0  0  0  0  0  0
   16.6702  -15.7722   18.6719 N   0  0  0  0  0  0  0  0  0  0  0  0
   14.3811  -16.2646   18.7283 N   0  0  0  0  0  0  0  0  0  0  0  0
   13.0313  -15.8837   19.0759 C   0  0  0  0  0  0  0  0  0  0  0  0
   12.6569  -16.5046   20.3750 C   0  0  0  0  0  0  0  0  0  0  0  0
   11.2222  -16.1823   20.7243 C   0  0  0  0  0  0  0  0  0  0  0  0
   10.8163  -16.9722   21.9090 C   0  0  2  0  0  0  0  0  0  0  0  0
    9.4829  -16.8755   22.3664 N   0  0  0  0  0  0  0  0  0  0  0  0
   11.7300  -16.9218   23.0690 C   0  0  0  0  0  0  0  0  0  0  0  0
   12.8848  -16.4558   22.9080 O   0  0  0  0  0  0  0  0  0  0  0  0
   16.8482  -16.6753   18.2021 N   0  0  0  0  0  0  0  0  0  0  0  0
   11.4016  -17.3621   24.3649 C   0  0  1  0  0  0  0  0  0  0  0  0
   10.8680  -16.4879   25.4168 C   0  0  0  0  0  0  0  0  0  0  0  0
    9.7404  -15.6578   24.8918 C   0  0  0  0  0  0  0  0  0  0  0  0
    9.1065  -14.8471   25.9445 C   0  0  0  0  0  0  0  0  0  0  0  0
    9.6685  -14.6846   27.2155 N   0  0  0  0  0  0  0  0  0  0  0  0
    8.8772  -13.8503   27.9174 C   0  0  0  0  0  0  0  0  0  0  0  0
    7.8152  -13.4478   27.1822 C   0  0  0  0  0  0  0  0  0  0  0  0
    6.7488  -12.6163   27.4574 C   0  0  0  0  0  0  0  0  0  0  0  0
    5.8016  -12.3980   26.4920 C   0  0  0  0  0  0  0  0  0  0  0  0
    5.9516  -13.0191   25.2818 C   0  0  0  0  0  0  0  0  0  0  0  0
    7.0168  -13.8626   24.9766 C   0  0  0  0  0  0  0  0  0  0  0  0
    7.9711  -14.0805   25.9503 C   0  0  0  0  0  0  0  0  0  0  0  0
   10.6468  -17.1948   26.6656 O   0  0  0  0  0  0  0  0  0  0  0  0
   10.9710  -16.7956   27.9408 O   0  0  0  0  0  0  0  0  0  0  0  0
  2  1  1  1
  2  3  1  0
  3  4  1  0
  4  9  2  0
  5  6  2  0
  5  4  1  0
  6  7  1  0
  7  8  2  0
  9  8  1  0
 10 11  2  0
 10  2  1  0
 12 13  1  0
 13 14  2  0
 13 15  1  0
 15 16  1  0
 16 17  1  0
 17 18  1  0
 19 18  1  6
 19 20  1  0
 20 10  1  0
 21 19  1  0
 21 23  1  0
 22 21  2  0
 24 23  1  0
 24 35  1  0
 24 25  1  1
 26 25  1  0
 27 26  2  0
 28 29  1  0
 28 27  1  0
 29 34  2  0
 30 29  1  0
 30 31  2  0
 31 32  1  0
 32 33  2  0
 34 26  1  0
 34 33  1  0
 35 36  1  0
 37 35  2  0
M  END
$$$$
