FRW.pdb
     RDKit          3D

 37 39  0  0  1  0  0  0  0  0999 V2000
    6.6720  -19.5422   25.2484 N   0  0  0  0  0  0  0  0  0  0  0  0
    7.1400  -18.2398   24.8199 C   0  0  1  0  0  0  0  0  0  0  0  0
    8.4525  -17.9349   25.4559 C   0  0  0  0  0  0  0  0  0  0  0  0
    8.1978  -17.6893   26.9017 C   0  0  0  0  0  0  0  0  0  0  0  0
    8.4254  -18.6385   27.8768 C   0  0  0  0  0  0  0  0  0  0  0  0
    8.1926  -18.4064   29.2109 C   0  0  0  0  0  0  0  0  0  0  0  0
    7.7156  -17.1967   29.6238 C   0  0  0  0  0  0  0  0  0  0  0  0
    7.4765  -16.2196   28.6641 C   0  0  0  0  0  0  0  0  0  0  0  0
    7.7145  -16.4673   27.3365 C   0  0  0  0  0  0  0  0  0  0  0  0
    7.1764  -18.2428   23.3345 C   0  0  0  0  0  0  0  0  0  0  0  0
    7.2382  -19.2874   22.6394 O   0  0  0  0  0  0  0  0  0  0  0  0
    6.6343  -14.3978   16.2091 N   0  0  0  0  0  0  0  0  0  0  0  0
    7.4513  -13.4606   16.9102 C   0  0  0  0  0  0  0  0  0  0  0  0
    7.3147  -12.2094   16.7311 N   0  0  0  0  0  0  0  0  0  0  0  0
    8.4388  -13.9430   17.8343 N   0  0  0  0  0  0  0  0  0  0  0  0
    8.3466  -15.2605   18.4203 C   0  0  0  0  0  0  0  0  0  0  0  0
    8.9462  -15.2437   19.7817 C   0  0  0  0  0  0  0  0  0  0  0  0
    7.8738  -15.3900   20.8367 C   0  0  0  0  0  0  0  0  0  0  0  0
    8.1165  -16.6260   21.6150 C   0  0  2  0  0  0  0  0  0  0  0  0
    7.1439  -17.0414   22.5520 N   0  0  0  0  0  0  0  0  0  0  0  0
    9.4582  -16.7621   22.2185 C   0  0  0  0  0  0  0  0  0  0  0  0
   10.4431  -16.9538   21.4636 O   0  0  0  0  0  0  0  0  0  0  0  0
    7.9448  -11.5220   17.1767 N   0  0  0  0  0  0  0  0  0  0  0  0
    9.7247  -16.6914   23.5988 C   0  0  1  0  0  0  0  0  0  0  0  0
   10.9741  -16.1697   24.1665 C   0  0  0  0  0  0  0  0  0  0  0  0
   10.8086  -14.7440   24.5859 C   0  0  0  0  0  0  0  0  0  0  0  0
   10.0091  -14.6126   25.8151 C   0  0  0  0  0  0  0  0  0  0  0  0
   10.4266  -15.1270   27.0474 N   0  0  0  0  0  0  0  0  0  0  0  0
    9.5040  -14.7953   27.9715 C   0  0  0  0  0  0  0  0  0  0  0  0
    8.4913  -14.0873   27.4206 C   0  0  0  0  0  0  0  0  0  0  0  0
    7.3387  -13.5403   27.9465 C   0  0  0  0  0  0  0  0  0  0  0  0
    6.4778  -12.8672   27.1203 C   0  0  0  0  0  0  0  0  0  0  0  0
    6.7977  -12.7632   25.7937 C   0  0  0  0  0  0  0  0  0  0  0  0
    7.9532  -13.3047   25.2361 C   0  0  0  0  0  0  0  0  0  0  0  0
    8.8202  -13.9817   26.0704 C   0  0  0  0  0  0  0  0  0  0  0  0
   11.5682  -17.0803   25.1287 O   0  0  0  0  0  0  0  0  0  0  0  0
   11.0775  -18.2824   25.5815 O   0  0  0  0  0  0  0  0  0  0  0  0
  2  1  1  1
  2  3  1  0
  3  4  1  0
  4  9  2  0
  5  6  2  0
  5  4  1  0
  6  7  1  0
  7  8  2  0
  9  8  1  0
 10 11  2  0
 10  2  1  0
 12 13  1  0
 13 14  2  0
 13 15  1  0
 15 16  1  0
 16 17  1  0
 17 18  1  0
 19 18  1  1
 19 20  1  0
 20 10  1  0
 21 19  1  0
 21 23  1  0
 22 21  2  0
 24 23  1  0
 24 35  1  0
 24 25  1  6
 26 25  1  0
 27 26  2  0
 28 29  1  0
 28 27  1  0
 29 34  2  0
 30 29  1  0
 30 31  2  0
 31 32  1  0
 32 33  2  0
 34 26  1  0
 34 33  1  0
 35 36  1  0
 37 35  2  0
M  END
$$$$
