FRW.pdb
     RDKit          3D

 37 39  0  0  1  0  0  0  0  0999 V2000
    6.6216  -18.0358   18.3860 N   0  0  0  0  0  0  0  0  0  0  0  0
    7.2246  -16.9201   19.0863 C   0  0  1  0  0  0  0  0  0  0  0  0
    6.1741  -16.1314   19.7895 C   0  0  0  0  0  0  0  0  0  0  0  0
    6.8630  -15.0460   20.5398 C   0  0  0  0  0  0  0  0  0  0  0  0
    7.0246  -15.0651   21.9100 C   0  0  0  0  0  0  0  0  0  0  0  0
    7.6645  -14.0629   22.5984 C   0  0  0  0  0  0  0  0  0  0  0  0
    8.1736  -12.9881   21.9298 C   0  0  0  0  0  0  0  0  0  0  0  0
    8.0264  -12.9407   20.5481 C   0  0  0  0  0  0  0  0  0  0  0  0
    7.3853  -13.9495   19.8761 C   0  0  0  0  0  0  0  0  0  0  0  0
    8.2707  -17.4688   19.9876 C   0  0  0  0  0  0  0  0  0  0  0  0
    8.0495  -18.3394   20.8658 O   0  0  0  0  0  0  0  0  0  0  0  0
   15.1095  -20.7440   17.0779 N   0  0  0  0  0  0  0  0  0  0  0  0
   14.6060  -19.4162   17.2226 C   0  0  0  0  0  0  0  0  0  0  0  0
   14.5209  -18.6351   16.2232 N   0  0  0  0  0  0  0  0  0  0  0  0
   14.1865  -18.9614   18.5183 N   0  0  0  0  0  0  0  0  0  0  0  0
   13.1588  -19.6495   19.2654 C   0  0  0  0  0  0  0  0  0  0  0  0
   11.9151  -18.8332   19.2705 C   0  0  0  0  0  0  0  0  0  0  0  0
   12.0139  -17.7202   20.2883 C   0  0  0  0  0  0  0  0  0  0  0  0
   10.6671  -17.4301   20.8305 C   0  0  2  0  0  0  0  0  0  0  0  0
    9.6414  -17.0501   19.9361 N   0  0  0  0  0  0  0  0  0  0  0  0
   10.6191  -16.5556   22.0204 C   0  0  0  0  0  0  0  0  0  0  0  0
   10.8651  -15.3322   21.8809 O   0  0  0  0  0  0  0  0  0  0  0  0
   14.1635  -17.6696   16.3137 N   0  0  0  0  0  0  0  0  0  0  0  0
   10.3125  -16.9937   23.3225 C   0  0  1  0  0  0  0  0  0  0  0  0
    9.6691  -16.1531   24.3397 C   0  0  0  0  0  0  0  0  0  0  0  0
    8.4708  -15.4616   23.7724 C   0  0  0  0  0  0  0  0  0  0  0  0
    7.7489  -14.6738   24.7851 C   0  0  0  0  0  0  0  0  0  0  0  0
    6.8052  -15.2378   25.6505 N   0  0  0  0  0  0  0  0  0  0  0  0
    6.3719  -14.2705   26.4820 C   0  0  0  0  0  0  0  0  0  0  0  0
    6.9760  -13.0894   26.2165 C   0  0  0  0  0  0  0  0  0  0  0  0
    6.8636  -11.8345   26.7796 C   0  0  0  0  0  0  0  0  0  0  0  0
    7.6178  -10.8053   26.2808 C   0  0  0  0  0  0  0  0  0  0  0  0
    8.4604  -11.0647   25.2341 C   0  0  0  0  0  0  0  0  0  0  0  0
    8.5940  -12.3203   24.6468 C   0  0  0  0  0  0  0  0  0  0  0  0
    7.8341  -13.3565   25.1514 C   0  0  0  0  0  0  0  0  0  0  0  0
    9.4993  -16.8457   25.6045 O   0  0  0  0  0  0  0  0  0  0  0  0
    9.5618  -16.3269   26.8763 O   0  0  0  0  0  0  0  0  0  0  0  0
  2  1  1  1
  2  3  1  0
  3  4  1  0
  4  9  2  0
  5  6  2  0
  5  4  1  0
  6  7  1  0
  7  8  2  0
  9  8  1  0
 10 11  2  0
 10  2  1  0
 12 13  1  0
 13 14  2  0
 13 15  1  0
 15 16  1  0
 16 17  1  0
 17 18  1  0
 19 18  1  6
 19 20  1  0
 20 10  1  0
 21 19  1  0
 21 23  1  0
 22 21  2  0
 24 23  1  0
 24 35  1  0
 24 25  1  1
 26 25  1  0
 27 26  2  0
 28 29  1  0
 28 27  1  0
 29 34  2  0
 30 29  1  0
 30 31  2  0
 31 32  1  0
 32 33  2  0
 34 26  1  0
 34 33  1  0
 35 36  1  0
 37 35  2  0
M  END
$$$$
