HKF.pdb
     RDKit          3D

 31 32  0  0  1  0  0  0  0  0999 V2000
   14.7632  -24.9289   -0.7817 N   0  0  0  0  0  0  0  0  0  0  0  0
   14.2924  -24.8555    0.6369 C   0  0  1  0  0  0  0  0  0  0  0  0
   15.1500  -25.8828    1.3386 C   0  0  0  0  0  0  0  0  0  0  0  0
   14.6140  -27.2487    1.3754 C   0  0  0  0  0  0  0  0  0  0  0  0
   15.2268  -28.3877    0.8473 C   0  0  0  0  0  0  0  0  0  0  0  0
   14.4299  -29.4355    1.0790 N   0  0  0  0  0  0  0  0  0  0  0  0
   13.3267  -29.0038    1.7385 C   0  0  0  0  0  0  0  0  0  0  0  0
   13.4642  -27.6802    1.9042 N   0  0  0  0  0  0  0  0  0  0  0  0
   14.7053  -23.5141    1.0773 C   0  0  0  0  0  0  0  0  0  0  0  0
   15.8394  -23.0894    0.6618 O   0  0  0  0  0  0  0  0  0  0  0  0
   13.9360  -22.6497    1.9286 N   0  0  0  0  0  0  0  0  0  0  0  0
   14.4730  -21.3620    2.2638 C   0  0  1  0  0  0  0  0  0  0  0  0
   13.4861  -20.3110    2.5641 C   0  0  0  0  0  0  0  0  0  0  0  0
   13.8627  -18.9445    2.9059 C   0  0  0  0  0  0  0  0  0  0  0  0
   12.7713  -17.9575    3.2095 C   0  0  0  0  0  0  0  0  0  0  0  0
   13.4114  -16.6024    3.6201 C   0  0  0  0  0  0  0  0  0  0  0  0
   12.4082  -15.5811    3.7414 N   0  0  0  0  0  0  0  0  0  0  0  0
   15.5660  -21.4649    3.2755 C   0  0  0  0  0  0  0  0  0  0  0  0
   15.6303  -22.4256    4.0751 O   0  0  0  0  0  0  0  0  0  0  0  0
   16.5690  -20.4786    3.3660 N   0  0  0  0  0  0  0  0  0  0  0  0
   17.5515  -20.5553    4.4594 C   0  0  1  0  0  0  0  0  0  0  0  0
   18.9288  -20.2621    3.9340 C   0  0  0  0  0  0  0  0  0  0  0  0
   19.9086  -20.2647    5.0271 C   0  0  0  0  0  0  0  0  0  0  0  0
   20.3970  -21.4753    5.5375 C   0  0  0  0  0  0  0  0  0  0  0  0
   21.3290  -21.5204    6.5405 C   0  0  0  0  0  0  0  0  0  0  0  0
   21.8317  -20.3683    7.0966 C   0  0  0  0  0  0  0  0  0  0  0  0
   21.3771  -19.1635    6.6223 C   0  0  0  0  0  0  0  0  0  0  0  0
   20.4429  -19.1262    5.6164 C   0  0  0  0  0  0  0  0  0  0  0  0
   17.1704  -19.5412    5.4492 C   0  0  0  0  0  0  0  0  0  0  0  0
   16.6405  -18.3319    5.0498 O   0  0  0  0  0  0  0  0  0  0  0  0
   17.3188  -19.7541    6.6699 O   0  0  0  0  0  0  0  0  0  0  0  0
  2  1  1  6
  3  4  1  0
  3  2  1  0
  4  5  2  0
  5  6  1  0
  7  6  1  0
  8  4  1  0
  8  7  2  0
  9  2  1  0
  9 10  2  0
 11  9  1  0
 12 11  1  0
 12 13  1  1
 14 13  1  0
 14 15  1  0
 15 16  1  0
 17 16  1  0
 18 12  1  0
 19 18  2  0
 20 18  1  0
 21 29  1  0
 21 20  1  0
 22 23  1  0
 21 22  1  6
 23 28  1  0
 24 23  2  0
 24 25  1  0
 25 26  2  0
 26 27  1  0
 28 27  2  0
 29 30  1  0
 31 29  2  0
M  END
$$$$
