HKF.pdb
     RDKit          3D

 31 32  0  0  1  0  0  0  0  0999 V2000
   21.3136  -21.5178  -13.9659 N   0  0  0  0  0  0  0  0  0  0  0  0
   21.8601  -20.2917  -13.3046 C   0  0  1  0  0  0  0  0  0  0  0  0
   20.8283  -19.9821  -12.2450 C   0  0  0  0  0  0  0  0  0  0  0  0
   19.6315  -19.2672  -12.7046 C   0  0  0  0  0  0  0  0  0  0  0  0
   19.4982  -17.8824  -12.8315 C   0  0  0  0  0  0  0  0  0  0  0  0
   18.2654  -17.6212  -13.2774 N   0  0  0  0  0  0  0  0  0  0  0  0
   17.6054  -18.7944  -13.4399 C   0  0  0  0  0  0  0  0  0  0  0  0
   18.4535  -19.7713  -13.0869 N   0  0  0  0  0  0  0  0  0  0  0  0
   23.0881  -20.7629  -12.6459 C   0  0  0  0  0  0  0  0  0  0  0  0
   23.0380  -21.9068  -12.0729 O   0  0  0  0  0  0  0  0  0  0  0  0
   24.3308  -20.0437  -12.6006 N   0  0  0  0  0  0  0  0  0  0  0  0
   25.4697  -20.6790  -12.0023 C   0  0  1  0  0  0  0  0  0  0  0  0
   26.6485  -20.8382  -12.8704 C   0  0  0  0  0  0  0  0  0  0  0  0
   26.6265  -21.6188  -14.1018 C   0  0  0  0  0  0  0  0  0  0  0  0
   27.8923  -21.7228  -14.9044 C   0  0  0  0  0  0  0  0  0  0  0  0
   27.6119  -22.5477  -16.1911 C   0  0  0  0  0  0  0  0  0  0  0  0
   28.8153  -22.7232  -16.9561 N   0  0  0  0  0  0  0  0  0  0  0  0
   25.7853  -20.1004  -10.6627 C   0  0  0  0  0  0  0  0  0  0  0  0
   25.7069  -18.8704  -10.4453 O   0  0  0  0  0  0  0  0  0  0  0  0
   26.1848  -20.9236   -9.5903 N   0  0  0  0  0  0  0  0  0  0  0  0
   26.7905  -20.3046   -8.4000 C   0  0  1  0  0  0  0  0  0  0  0  0
   27.1170  -21.3606   -7.3816 C   0  0  0  0  0  0  0  0  0  0  0  0
   27.7453  -20.7591   -6.1990 C   0  0  0  0  0  0  0  0  0  0  0  0
   26.9970  -20.5387   -5.0345 C   0  0  0  0  0  0  0  0  0  0  0  0
   27.5513  -20.0018   -3.9026 C   0  0  0  0  0  0  0  0  0  0  0  0
   28.8798  -19.6519   -3.8584 C   0  0  0  0  0  0  0  0  0  0  0  0
   29.6445  -19.8533   -4.9799 C   0  0  0  0  0  0  0  0  0  0  0  0
   29.0819  -20.3921   -6.1109 C   0  0  0  0  0  0  0  0  0  0  0  0
   28.0228  -19.6421   -8.8423 C   0  0  0  0  0  0  0  0  0  0  0  0
   28.3584  -18.3907   -8.3686 O   0  0  0  0  0  0  0  0  0  0  0  0
   28.7895  -20.1983   -9.6549 O   0  0  0  0  0  0  0  0  0  0  0  0
  2  1  1  6
  3  4  1  0
  3  2  1  0
  4  5  2  0
  5  6  1  0
  7  6  1  0
  8  4  1  0
  8  7  2  0
  9  2  1  0
  9 10  2  0
 11  9  1  0
 12 11  1  0
 12 13  1  6
 14 13  1  0
 14 15  1  0
 15 16  1  0
 17 16  1  0
 18 12  1  0
 19 18  2  0
 20 18  1  0
 21 29  1  0
 21 20  1  0
 22 23  1  0
 21 22  1  1
 23 28  1  0
 24 23  2  0
 24 25  1  0
 25 26  2  0
 26 27  1  0
 28 27  2  0
 29 30  1  0
 31 29  2  0
M  END
$$$$
