HKF.pdb
     RDKit          3D

 31 32  0  0  1  0  0  0  0  0999 V2000
   24.3156  -19.0941  -17.7830 N   0  0  0  0  0  0  0  0  0  0  0  0
   24.0094  -18.7927  -16.3495 C   0  0  1  0  0  0  0  0  0  0  0  0
   22.5024  -18.8859  -16.2915 C   0  0  0  0  0  0  0  0  0  0  0  0
   21.7669  -17.8548  -17.0334 C   0  0  0  0  0  0  0  0  0  0  0  0
   22.0153  -16.4805  -16.9978 C   0  0  0  0  0  0  0  0  0  0  0  0
   21.1376  -15.8769  -17.8052 N   0  0  0  0  0  0  0  0  0  0  0  0
   20.3352  -16.8207  -18.3565 C   0  0  0  0  0  0  0  0  0  0  0  0
   20.7373  -18.0052  -17.8732 N   0  0  0  0  0  0  0  0  0  0  0  0
   24.5825  -19.9332  -15.6183 C   0  0  0  0  0  0  0  0  0  0  0  0
   23.8012  -20.9170  -15.3713 O   0  0  0  0  0  0  0  0  0  0  0  0
   25.9431  -20.0274  -15.1674 N   0  0  0  0  0  0  0  0  0  0  0  0
   26.3430  -21.1930  -14.4323 C   0  0  1  0  0  0  0  0  0  0  0  0
   27.6074  -21.8187  -14.8549 C   0  0  0  0  0  0  0  0  0  0  0  0
   27.7304  -22.6147  -16.0703 C   0  0  0  0  0  0  0  0  0  0  0  0
   28.2530  -21.9479  -17.3111 C   0  0  0  0  0  0  0  0  0  0  0  0
   28.2853  -22.9832  -18.4693 C   0  0  0  0  0  0  0  0  0  0  0  0
   28.8729  -22.4104  -19.6486 N   0  0  0  0  0  0  0  0  0  0  0  0
   26.2438  -20.9781  -12.9582 C   0  0  0  0  0  0  0  0  0  0  0  0
   27.2484  -20.6928  -12.2686 O   0  0  0  0  0  0  0  0  0  0  0  0
   25.0086  -21.0897  -12.2882 N   0  0  0  0  0  0  0  0  0  0  0  0
   24.9649  -20.8920  -10.8301 C   0  0  1  0  0  0  0  0  0  0  0  0
   25.8297  -19.7251  -10.4438 C   0  0  0  0  0  0  0  0  0  0  0  0
   26.7047  -20.0820   -9.3203 C   0  0  0  0  0  0  0  0  0  0  0  0
   27.9356  -20.7105   -9.5533 C   0  0  0  0  0  0  0  0  0  0  0  0
   28.7909  -21.0384   -8.5346 C   0  0  0  0  0  0  0  0  0  0  0  0
   28.4765  -20.7625   -7.2253 C   0  0  0  0  0  0  0  0  0  0  0  0
   27.2794  -20.1472   -6.9583 C   0  0  0  0  0  0  0  0  0  0  0  0
   26.4272  -19.8213   -7.9847 C   0  0  0  0  0  0  0  0  0  0  0  0
   23.5679  -20.6141  -10.4776 C   0  0  0  0  0  0  0  0  0  0  0  0
   23.0977  -20.8725   -9.2067 O   0  0  0  0  0  0  0  0  0  0  0  0
   22.7798  -20.1392  -11.3207 O   0  0  0  0  0  0  0  0  0  0  0  0
  2  1  1  6
  3  4  1  0
  3  2  1  0
  4  5  2  0
  5  6  1  0
  7  6  1  0
  8  4  1  0
  8  7  2  0
  9  2  1  0
  9 10  2  0
 11  9  1  0
 12 11  1  0
 12 13  1  1
 14 13  1  0
 14 15  1  0
 15 16  1  0
 17 16  1  0
 18 12  1  0
 19 18  2  0
 20 18  1  0
 21 29  1  0
 21 20  1  0
 22 23  1  0
 21 22  1  6
 23 28  1  0
 24 23  2  0
 24 25  1  0
 25 26  2  0
 26 27  1  0
 28 27  2  0
 29 30  1  0
 31 29  2  0
M  END
$$$$
