HKF.pdb
     RDKit          3D

 31 32  0  0  1  0  0  0  0  0999 V2000
   29.6204  -30.1886  -16.1702 N   0  0  0  0  0  0  0  0  0  0  0  0
   28.4847  -29.8707  -17.0914 C   0  0  1  0  0  0  0  0  0  0  0  0
   27.3220  -30.6129  -16.4745 C   0  0  0  0  0  0  0  0  0  0  0  0
   27.2094  -32.0338  -16.8251 C   0  0  0  0  0  0  0  0  0  0  0  0
   27.3367  -33.1112  -15.9450 C   0  0  0  0  0  0  0  0  0  0  0  0
   27.1696  -34.2402  -16.6407 N   0  0  0  0  0  0  0  0  0  0  0  0
   26.9394  -33.9201  -17.9380 C   0  0  0  0  0  0  0  0  0  0  0  0
   26.9689  -32.5819  -18.0208 N   0  0  0  0  0  0  0  0  0  0  0  0
   28.2747  -28.4263  -16.9082 C   0  0  0  0  0  0  0  0  0  0  0  0
   28.5455  -27.9413  -15.7546 O   0  0  0  0  0  0  0  0  0  0  0  0
   27.7960  -27.5251  -17.9193 N   0  0  0  0  0  0  0  0  0  0  0  0
   27.8212  -26.1160  -17.6500 C   0  0  1  0  0  0  0  0  0  0  0  0
   28.4492  -25.2741  -18.6822 C   0  0  0  0  0  0  0  0  0  0  0  0
   28.5125  -23.8204  -18.5889 C   0  0  0  0  0  0  0  0  0  0  0  0
   29.7897  -23.1902  -18.1105 C   0  0  0  0  0  0  0  0  0  0  0  0
   29.6169  -21.6462  -18.0868 C   0  0  0  0  0  0  0  0  0  0  0  0
   30.7402  -21.0174  -17.4487 N   0  0  0  0  0  0  0  0  0  0  0  0
   26.4897  -25.6158  -17.1966 C   0  0  0  0  0  0  0  0  0  0  0  0
   25.4336  -25.9367  -17.7866 O   0  0  0  0  0  0  0  0  0  0  0  0
   26.3748  -24.7601  -16.0823 N   0  0  0  0  0  0  0  0  0  0  0  0
   25.0462  -24.2506  -15.7052 C   0  0  1  0  0  0  0  0  0  0  0  0
   25.1026  -23.6322  -14.3365 C   0  0  0  0  0  0  0  0  0  0  0  0
   23.7860  -23.1078  -13.9535 C   0  0  0  0  0  0  0  0  0  0  0  0
   22.7415  -23.9845  -13.6295 C   0  0  0  0  0  0  0  0  0  0  0  0
   21.5058  -23.5354  -13.2446 C   0  0  0  0  0  0  0  0  0  0  0  0
   21.2328  -22.1911  -13.1581 C   0  0  0  0  0  0  0  0  0  0  0  0
   22.2313  -21.3020  -13.4675 C   0  0  0  0  0  0  0  0  0  0  0  0
   23.4676  -21.7597  -13.8524 C   0  0  0  0  0  0  0  0  0  0  0  0
   24.6813  -23.2321  -16.6966 C   0  0  0  0  0  0  0  0  0  0  0  0
   25.6485  -22.4442  -17.2852 O   0  0  0  0  0  0  0  0  0  0  0  0
   23.4896  -23.0601  -17.0251 O   0  0  0  0  0  0  0  0  0  0  0  0
  2  1  1  1
  3  4  1  0
  3  2  1  0
  4  5  2  0
  5  6  1  0
  7  6  1  0
  8  4  1  0
  8  7  2  0
  9  2  1  0
  9 10  2  0
 11  9  1  0
 12 11  1  0
 12 13  1  6
 14 13  1  0
 14 15  1  0
 15 16  1  0
 17 16  1  0
 18 12  1  0
 19 18  2  0
 20 18  1  0
 21 29  1  0
 21 20  1  0
 22 23  1  0
 21 22  1  1
 23 28  1  0
 24 23  2  0
 24 25  1  0
 25 26  2  0
 26 27  1  0
 28 27  2  0
 29 30  1  0
 31 29  2  0
M  END
$$$$
