HKF.pdb
     RDKit          3D

 31 32  0  0  1  0  0  0  0  0999 V2000
   22.6137  -21.6952  -14.8039 N   0  0  0  0  0  0  0  0  0  0  0  0
   22.8572  -20.5519  -13.8695 C   0  0  1  0  0  0  0  0  0  0  0  0
   21.8037  -20.7468  -12.8040 C   0  0  0  0  0  0  0  0  0  0  0  0
   20.4669  -20.2303  -13.1215 C   0  0  0  0  0  0  0  0  0  0  0  0
   19.3914  -20.9759  -13.6104 C   0  0  0  0  0  0  0  0  0  0  0  0
   18.3517  -20.1515  -13.7723 N   0  0  0  0  0  0  0  0  0  0  0  0
   18.7272  -18.9022  -13.4026 C   0  0  0  0  0  0  0  0  0  0  0  0
   20.0085  -18.9788  -13.0142 N   0  0  0  0  0  0  0  0  0  0  0  0
   24.1769  -20.8446  -13.2892 C   0  0  0  0  0  0  0  0  0  0  0  0
   24.4656  -22.0766  -13.0938 O   0  0  0  0  0  0  0  0  0  0  0  0
   25.1601  -19.8602  -12.9317 N   0  0  0  0  0  0  0  0  0  0  0  0
   26.3756  -20.2996  -12.3086 C   0  0  1  0  0  0  0  0  0  0  0  0
   27.5970  -19.5739  -12.6961 C   0  0  0  0  0  0  0  0  0  0  0  0
   28.5446  -20.0852  -13.6793 C   0  0  0  0  0  0  0  0  0  0  0  0
   28.0991  -21.1920  -14.5924 C   0  0  0  0  0  0  0  0  0  0  0  0
   29.2281  -21.4906  -15.6175 C   0  0  0  0  0  0  0  0  0  0  0  0
   28.8578  -22.5773  -16.4812 N   0  0  0  0  0  0  0  0  0  0  0  0
   26.2147  -20.4575  -10.8327 C   0  0  0  0  0  0  0  0  0  0  0  0
   25.2049  -20.0242  -10.2337 O   0  0  0  0  0  0  0  0  0  0  0  0
   27.1998  -21.1034  -10.0584 N   0  0  0  0  0  0  0  0  0  0  0  0
   27.0774  -21.0932   -8.5915 C   0  0  1  0  0  0  0  0  0  0  0  0
   28.4282  -21.2879   -7.9619 C   0  0  0  0  0  0  0  0  0  0  0  0
   28.4523  -20.7205   -6.6082 C   0  0  0  0  0  0  0  0  0  0  0  0
   28.1288  -21.5164   -5.5008 C   0  0  0  0  0  0  0  0  0  0  0  0
   28.1621  -21.0315   -4.2200 C   0  0  0  0  0  0  0  0  0  0  0  0
   28.5181  -19.7294   -3.9615 C   0  0  0  0  0  0  0  0  0  0  0  0
   28.8419  -18.9197   -5.0210 C   0  0  0  0  0  0  0  0  0  0  0  0
   28.8064  -19.4128   -6.3023 C   0  0  0  0  0  0  0  0  0  0  0  0
   26.5381  -19.7811   -8.2161 C   0  0  0  0  0  0  0  0  0  0  0  0
   26.9993  -18.6309   -8.8221 O   0  0  0  0  0  0  0  0  0  0  0  0
   25.6528  -19.6818   -7.3421 O   0  0  0  0  0  0  0  0  0  0  0  0
  2  1  1  6
  3  4  1  0
  3  2  1  0
  4  5  2  0
  5  6  1  0
  7  6  1  0
  8  4  1  0
  8  7  2  0
  9  2  1  0
  9 10  2  0
 11  9  1  0
 12 11  1  0
 12 13  1  1
 14 13  1  0
 14 15  1  0
 15 16  1  0
 17 16  1  0
 18 12  1  0
 19 18  2  0
 20 18  1  0
 21 29  1  0
 21 20  1  0
 22 23  1  0
 21 22  1  1
 23 28  1  0
 24 23  2  0
 24 25  1  0
 25 26  2  0
 26 27  1  0
 28 27  2  0
 29 30  1  0
 31 29  2  0
M  END
$$$$
