HKF.pdb
     RDKit          3D

 31 32  0  0  1  0  0  0  0  0999 V2000
   23.9100  -18.1224  -14.6462 N   0  0  0  0  0  0  0  0  0  0  0  0
   23.1208  -19.1422  -13.8869 C   0  0  1  0  0  0  0  0  0  0  0  0
   22.1002  -19.6113  -14.8977 C   0  0  0  0  0  0  0  0  0  0  0  0
   21.1948  -18.5811  -15.4206 C   0  0  0  0  0  0  0  0  0  0  0  0
   20.9148  -18.3386  -16.7676 C   0  0  0  0  0  0  0  0  0  0  0  0
   20.0473  -17.3240  -16.8372 N   0  0  0  0  0  0  0  0  0  0  0  0
   19.7630  -16.9094  -15.5779 C   0  0  0  0  0  0  0  0  0  0  0  0
   20.4693  -17.6855  -14.7429 N   0  0  0  0  0  0  0  0  0  0  0  0
   24.0838  -20.2282  -13.6480 C   0  0  0  0  0  0  0  0  0  0  0  0
   23.6516  -21.4267  -13.7753 O   0  0  0  0  0  0  0  0  0  0  0  0
   25.4629  -20.0469  -13.2892 N   0  0  0  0  0  0  0  0  0  0  0  0
   26.2658  -21.2099  -13.0411 C   0  0  1  0  0  0  0  0  0  0  0  0
   27.3102  -21.4964  -14.0390 C   0  0  0  0  0  0  0  0  0  0  0  0
   27.4980  -20.6948  -15.2424 C   0  0  0  0  0  0  0  0  0  0  0  0
   28.7184  -20.9429  -16.0828 C   0  0  0  0  0  0  0  0  0  0  0  0
   28.2868  -21.1262  -17.5642 C   0  0  0  0  0  0  0  0  0  0  0  0
   28.0276  -22.5097  -17.8520 N   0  0  0  0  0  0  0  0  0  0  0  0
   26.7554  -21.2534  -11.6314 C   0  0  0  0  0  0  0  0  0  0  0  0
   27.9519  -21.5013  -11.3607 O   0  0  0  0  0  0  0  0  0  0  0  0
   25.8826  -21.0156  -10.5504 N   0  0  0  0  0  0  0  0  0  0  0  0
   26.4145  -21.0576   -9.1784 C   0  0  1  0  0  0  0  0  0  0  0  0
   27.5222  -20.0532   -9.0260 C   0  0  0  0  0  0  0  0  0  0  0  0
   28.0239  -20.0450   -7.6464 C   0  0  0  0  0  0  0  0  0  0  0  0
   27.6830  -19.0013   -6.7751 C   0  0  0  0  0  0  0  0  0  0  0  0
   28.1109  -18.9688   -5.4741 C   0  0  0  0  0  0  0  0  0  0  0  0
   28.9018  -19.9686   -4.9603 C   0  0  0  0  0  0  0  0  0  0  0  0
   29.2561  -21.0075   -5.7838 C   0  0  0  0  0  0  0  0  0  0  0  0
   28.8231  -21.0335   -7.0869 C   0  0  0  0  0  0  0  0  0  0  0  0
   25.3064  -20.7163   -8.2791 C   0  0  0  0  0  0  0  0  0  0  0  0
   25.2709  -21.2037   -6.9891 O   0  0  0  0  0  0  0  0  0  0  0  0
   24.3761  -19.9792   -8.6647 O   0  0  0  0  0  0  0  0  0  0  0  0
  2  1  1  6
  3  4  1  0
  3  2  1  0
  4  5  2  0
  5  6  1  0
  7  6  1  0
  8  4  1  0
  8  7  2  0
  9  2  1  0
  9 10  2  0
 11  9  1  0
 12 11  1  0
 12 13  1  6
 14 13  1  0
 14 15  1  0
 15 16  1  0
 17 16  1  0
 18 12  1  0
 19 18  2  0
 20 18  1  0
 21 29  1  0
 21 20  1  0
 22 23  1  0
 21 22  1  6
 23 28  1  0
 24 23  2  0
 24 25  1  0
 25 26  2  0
 26 27  1  0
 28 27  2  0
 29 30  1  0
 31 29  2  0
M  END
$$$$
