HKF.pdb
     RDKit          3D

 31 32  0  0  1  0  0  0  0  0999 V2000
   19.5086  -20.0727  -14.2293 N   0  0  0  0  0  0  0  0  0  0  0  0
   20.6190  -19.0798  -14.0852 C   0  0  1  0  0  0  0  0  0  0  0  0
   20.1679  -18.2236  -12.9248 C   0  0  0  0  0  0  0  0  0  0  0  0
   19.1164  -17.2433  -13.2217 C   0  0  0  0  0  0  0  0  0  0  0  0
   19.2817  -16.0460  -13.9221 C   0  0  0  0  0  0  0  0  0  0  0  0
   18.0958  -15.4324  -13.9850 N   0  0  0  0  0  0  0  0  0  0  0  0
   17.1767  -16.1987  -13.3473 C   0  0  0  0  0  0  0  0  0  0  0  0
   17.8201  -17.2854  -12.8964 N   0  0  0  0  0  0  0  0  0  0  0  0
   21.7668  -19.8931  -13.6549 C   0  0  0  0  0  0  0  0  0  0  0  0
   21.5632  -20.7307  -12.7082 O   0  0  0  0  0  0  0  0  0  0  0  0
   23.0876  -19.8219  -14.2152 N   0  0  0  0  0  0  0  0  0  0  0  0
   24.0696  -20.7732  -13.7800 C   0  0  1  0  0  0  0  0  0  0  0  0
   24.8339  -21.4432  -14.8457 C   0  0  0  0  0  0  0  0  0  0  0  0
   25.8421  -22.4619  -14.5775 C   0  0  0  0  0  0  0  0  0  0  0  0
   26.6051  -23.0348  -15.7381 C   0  0  0  0  0  0  0  0  0  0  0  0
   27.5649  -24.1409  -15.2190 C   0  0  0  0  0  0  0  0  0  0  0  0
   28.3270  -24.7026  -16.2997 N   0  0  0  0  0  0  0  0  0  0  0  0
   24.9226  -20.2255  -12.6840 C   0  0  0  0  0  0  0  0  0  0  0  0
   25.3802  -19.0615  -12.7295 O   0  0  0  0  0  0  0  0  0  0  0  0
   25.2441  -21.0042  -11.5538 N   0  0  0  0  0  0  0  0  0  0  0  0
   26.1948  -20.4712  -10.5644 C   0  0  1  0  0  0  0  0  0  0  0  0
   25.7989  -20.9109   -9.1828 C   0  0  0  0  0  0  0  0  0  0  0  0
   26.6976  -20.3276   -8.1792 C   0  0  0  0  0  0  0  0  0  0  0  0
   26.5785  -18.9777   -7.8212 C   0  0  0  0  0  0  0  0  0  0  0  0
   27.3816  -18.4016   -6.8726 C   0  0  0  0  0  0  0  0  0  0  0  0
   28.3499  -19.1295   -6.2232 C   0  0  0  0  0  0  0  0  0  0  0  0
   28.4961  -20.4549   -6.5472 C   0  0  0  0  0  0  0  0  0  0  0  0
   27.6871  -21.0256   -7.4990 C   0  0  0  0  0  0  0  0  0  0  0  0
   27.5144  -21.0175  -10.9014 C   0  0  0  0  0  0  0  0  0  0  0  0
   28.6456  -20.2337  -10.8078 O   0  0  0  0  0  0  0  0  0  0  0  0
   27.6373  -22.2007  -11.2787 O   0  0  0  0  0  0  0  0  0  0  0  0
  2  1  1  1
  3  4  1  0
  3  2  1  0
  4  5  2  0
  5  6  1  0
  7  6  1  0
  8  4  1  0
  8  7  2  0
  9  2  1  0
  9 10  2  0
 11  9  1  0
 12 11  1  0
 12 13  1  6
 14 13  1  0
 14 15  1  0
 15 16  1  0
 17 16  1  0
 18 12  1  0
 19 18  2  0
 20 18  1  0
 21 29  1  0
 21 20  1  0
 22 23  1  0
 21 22  1  1
 23 28  1  0
 24 23  2  0
 24 25  1  0
 25 26  2  0
 26 27  1  0
 28 27  2  0
 29 30  1  0
 31 29  2  0
M  END
$$$$
