HKF.pdb
     RDKit          3D

 31 32  0  0  1  0  0  0  0  0999 V2000
   26.2150  -18.6082  -16.5692 N   0  0  0  0  0  0  0  0  0  0  0  0
   27.0246  -19.4150  -15.6033 C   0  0  1  0  0  0  0  0  0  0  0  0
   28.1980  -18.5129  -15.2987 C   0  0  0  0  0  0  0  0  0  0  0  0
   29.2170  -18.4089  -16.3500 C   0  0  0  0  0  0  0  0  0  0  0  0
   29.7673  -17.2255  -16.8484 C   0  0  0  0  0  0  0  0  0  0  0  0
   30.6581  -17.5448  -17.7924 N   0  0  0  0  0  0  0  0  0  0  0  0
   30.6957  -18.8947  -17.9143 C   0  0  0  0  0  0  0  0  0  0  0  0
   29.8160  -19.3907  -17.0320 N   0  0  0  0  0  0  0  0  0  0  0  0
   26.1698  -19.4988  -14.4091 C   0  0  0  0  0  0  0  0  0  0  0  0
   25.5547  -18.4320  -14.0586 O   0  0  0  0  0  0  0  0  0  0  0  0
   25.9713  -20.6793  -13.6150 N   0  0  0  0  0  0  0  0  0  0  0  0
   25.0858  -20.6073  -12.4883 C   0  0  1  0  0  0  0  0  0  0  0  0
   23.8006  -21.3116  -12.6331 C   0  0  0  0  0  0  0  0  0  0  0  0
   22.7252  -21.2080  -11.6540 C   0  0  0  0  0  0  0  0  0  0  0  0
   21.4531  -21.9664  -11.9071 C   0  0  0  0  0  0  0  0  0  0  0  0
   20.4323  -21.6360  -10.7832 C   0  0  0  0  0  0  0  0  0  0  0  0
   19.1746  -22.2850  -11.0303 N   0  0  0  0  0  0  0  0  0  0  0  0
   25.7934  -20.9080  -11.2086 C   0  0  0  0  0  0  0  0  0  0  0  0
   26.3782  -21.9990  -11.0240 O   0  0  0  0  0  0  0  0  0  0  0  0
   25.8280  -19.9686  -10.1581 N   0  0  0  0  0  0  0  0  0  0  0  0
   26.5270  -20.3161   -8.9101 C   0  0  1  0  0  0  0  0  0  0  0  0
   27.3223  -19.1380   -8.4216 C   0  0  0  0  0  0  0  0  0  0  0  0
   27.9610  -19.4450   -7.1359 C   0  0  0  0  0  0  0  0  0  0  0  0
   29.1238  -20.2263   -7.0916 C   0  0  0  0  0  0  0  0  0  0  0  0
   29.7631  -20.5156   -5.9150 C   0  0  0  0  0  0  0  0  0  0  0  0
   29.2875  -20.0475   -4.7134 C   0  0  0  0  0  0  0  0  0  0  0  0
   28.1509  -19.2787   -4.7172 C   0  0  0  0  0  0  0  0  0  0  0  0
   27.5155  -18.9926   -5.9007 C   0  0  0  0  0  0  0  0  0  0  0  0
   25.4965  -20.6636   -7.9249 C   0  0  0  0  0  0  0  0  0  0  0  0
   25.7570  -21.5796   -6.9270 O   0  0  0  0  0  0  0  0  0  0  0  0
   24.3660  -20.1370   -7.9719 O   0  0  0  0  0  0  0  0  0  0  0  0
  2  1  1  6
  3  4  1  0
  3  2  1  0
  4  5  2  0
  5  6  1  0
  7  6  1  0
  8  4  1  0
  8  7  2  0
  9  2  1  0
  9 10  2  0
 11  9  1  0
 12 11  1  0
 12 13  1  6
 14 13  1  0
 14 15  1  0
 15 16  1  0
 17 16  1  0
 18 12  1  0
 19 18  2  0
 20 18  1  0
 21 29  1  0
 21 20  1  0
 22 23  1  0
 21 22  1  1
 23 28  1  0
 24 23  2  0
 24 25  1  0
 25 26  2  0
 26 27  1  0
 28 27  2  0
 29 30  1  0
 31 29  2  0
M  END
$$$$
