HKF.pdb
     RDKit          3D

 31 32  0  0  1  0  0  0  0  0999 V2000
   34.6771  -29.0676  -19.0417 N   0  0  0  0  0  0  0  0  0  0  0  0
   33.9383  -30.1417  -19.7765 C   0  0  1  0  0  0  0  0  0  0  0  0
   34.5414  -31.4134  -19.2265 C   0  0  0  0  0  0  0  0  0  0  0  0
   34.0722  -32.6626  -19.8380 C   0  0  0  0  0  0  0  0  0  0  0  0
   32.7399  -33.0236  -20.0536 C   0  0  0  0  0  0  0  0  0  0  0  0
   32.7225  -34.2295  -20.6299 N   0  0  0  0  0  0  0  0  0  0  0  0
   34.0009  -34.6520  -20.7902 C   0  0  0  0  0  0  0  0  0  0  0  0
   34.7947  -33.6868  -20.3036 N   0  0  0  0  0  0  0  0  0  0  0  0
   32.5574  -30.0213  -19.2841 C   0  0  0  0  0  0  0  0  0  0  0  0
   32.4023  -29.8511  -18.0246 O   0  0  0  0  0  0  0  0  0  0  0  0
   31.3791  -30.0759  -20.1039 N   0  0  0  0  0  0  0  0  0  0  0  0
   30.0957  -30.0117  -19.4654 C   0  0  1  0  0  0  0  0  0  0  0  0
   29.0524  -29.2667  -20.1901 C   0  0  0  0  0  0  0  0  0  0  0  0
   27.9975  -28.5203  -19.5148 C   0  0  0  0  0  0  0  0  0  0  0  0
   28.3836  -27.5808  -18.4077 C   0  0  0  0  0  0  0  0  0  0  0  0
   27.1013  -26.9159  -17.8349 C   0  0  0  0  0  0  0  0  0  0  0  0
   27.4295  -26.0101  -16.7692 N   0  0  0  0  0  0  0  0  0  0  0  0
   29.6499  -31.3527  -18.9838 C   0  0  0  0  0  0  0  0  0  0  0  0
   29.7667  -32.3762  -19.6945 O   0  0  0  0  0  0  0  0  0  0  0  0
   29.0790  -31.5137  -17.7050 N   0  0  0  0  0  0  0  0  0  0  0  0
   28.6100  -32.8469  -17.2934 C   0  0  1  0  0  0  0  0  0  0  0  0
   29.3750  -33.3104  -16.0855 C   0  0  0  0  0  0  0  0  0  0  0  0
   30.6841  -33.8456  -16.4790 C   0  0  0  0  0  0  0  0  0  0  0  0
   31.8471  -33.0887  -16.2814 C   0  0  0  0  0  0  0  0  0  0  0  0
   33.0895  -33.5612  -16.6130 C   0  0  0  0  0  0  0  0  0  0  0  0
   33.2521  -34.8117  -17.1599 C   0  0  0  0  0  0  0  0  0  0  0  0
   32.1358  -35.5823  -17.3679 C   0  0  0  0  0  0  0  0  0  0  0  0
   30.8937  -35.1019  -17.0328 C   0  0  0  0  0  0  0  0  0  0  0  0
   27.1868  -32.7160  -16.9608 C   0  0  0  0  0  0  0  0  0  0  0  0
   26.4449  -33.8199  -16.5947 O   0  0  0  0  0  0  0  0  0  0  0  0
   26.6217  -31.6041  -17.0031 O   0  0  0  0  0  0  0  0  0  0  0  0
  2  1  1  1
  3  4  1  0
  3  2  1  0
  4  5  2  0
  5  6  1  0
  7  6  1  0
  8  4  1  0
  8  7  2  0
  9  2  1  0
  9 10  2  0
 11  9  1  0
 12 11  1  0
 12 13  1  6
 14 13  1  0
 14 15  1  0
 15 16  1  0
 17 16  1  0
 18 12  1  0
 19 18  2  0
 20 18  1  0
 21 29  1  0
 21 20  1  0
 22 23  1  0
 21 22  1  1
 23 28  1  0
 24 23  2  0
 24 25  1  0
 25 26  2  0
 26 27  1  0
 28 27  2  0
 29 30  1  0
 31 29  2  0
M  END
$$$$
