TKS.pdb
     RDKit          3D

 23 22  0  0  1  0  0  0  0  0999 V2000
   21.9867   -8.4348  -13.2236 C   0  0  0  0  0  0  0  0  0  0  0  0
   22.5780   -8.9293  -14.5091 C   0  0  1  0  0  0  0  0  0  0  0  0
   23.8118   -9.5218  -14.1714 O   0  0  0  0  0  0  0  0  0  0  0  0
   21.6935   -9.9898  -15.1628 C   0  0  2  0  0  0  0  0  0  0  0  0
   22.4004  -10.4827  -16.3571 N   0  0  0  0  0  0  0  0  0  0  0  0
   20.3714   -9.4621  -15.5430 C   0  0  0  0  0  0  0  0  0  0  0  0
   20.2845   -8.7771  -16.6135 O   0  0  0  0  0  0  0  0  0  0  0  0
   19.1973   -9.6641  -14.8091 N   0  0  0  0  0  0  0  0  0  0  0  0
   17.9067   -9.1059  -15.2194 C   0  0  1  0  0  0  0  0  0  0  0  0
   16.8610  -10.1021  -14.7426 C   0  0  0  0  0  0  0  0  0  0  0  0
   15.4738   -9.6717  -15.1621 C   0  0  0  0  0  0  0  0  0  0  0  0
   14.4260  -10.6533  -14.6938 C   0  0  0  0  0  0  0  0  0  0  0  0
   13.0279  -10.2599  -15.1160 C   0  0  0  0  0  0  0  0  0  0  0  0
   12.0826  -11.2818  -14.6872 N   0  0  0  0  0  0  0  0  0  0  0  0
   17.7410   -7.8015  -14.5412 C   0  0  0  0  0  0  0  0  0  0  0  0
   17.8857   -7.6168  -13.3079 O   0  0  0  0  0  0  0  0  0  0  0  0
   19.1509   -4.5038  -15.9112 O   0  0  0  0  0  0  0  0  0  0  0  0
   17.8064   -4.2677  -15.6312 C   0  0  0  0  0  0  0  0  0  0  0  0
   17.3031   -5.3254  -14.6574 C   0  0  2  0  0  0  0  0  0  0  0  0
   17.3893   -6.6133  -15.2824 N   0  0  0  0  0  0  0  0  0  0  0  0
   15.9327   -5.0153  -14.1851 C   0  0  0  0  0  0  0  0  0  0  0  0
   15.7650   -3.9692  -13.2931 O   0  0  0  0  0  0  0  0  0  0  0  0
   14.9075   -5.6420  -14.5422 O   0  0  0  0  0  0  0  0  0  0  0  0
  2  1  1  1
  2  4  1  0
  3  2  1  0
  4  5  1  6
  6  4  1  0
  6  7  2  0
  8  6  1  0
  9  8  1  0
 10 11  1  0
  9 10  1  1
 11 12  1  0
 12 13  1  0
 13 14  1  0
 15  9  1  0
 16 15  2  0
 17 18  1  0
 19 18  1  6
 19 20  1  0
 19 21  1  0
 20 15  1  0
 21 22  1  0
 23 21  2  0
M  END
$$$$
