TKS.pdb
     RDKit          3D

 23 22  0  0  1  0  0  0  0  0999 V2000
   13.4256  -11.5524  -15.3576 C   0  0  0  0  0  0  0  0  0  0  0  0
   14.8403  -11.0667  -15.4554 C   0  0  1  0  0  0  0  0  0  0  0  0
   15.2003  -10.6424  -14.1601 O   0  0  0  0  0  0  0  0  0  0  0  0
   15.7899  -12.1855  -15.8807 C   0  0  2  0  0  0  0  0  0  0  0  0
   15.7280  -13.2359  -14.8501 N   0  0  0  0  0  0  0  0  0  0  0  0
   17.1775  -11.7157  -16.0370 C   0  0  0  0  0  0  0  0  0  0  0  0
   18.0334  -12.0726  -15.1637 O   0  0  0  0  0  0  0  0  0  0  0  0
   17.6251  -10.9030  -17.0846 N   0  0  0  0  0  0  0  0  0  0  0  0
   19.0327  -10.5314  -17.2464 C   0  0  1  0  0  0  0  0  0  0  0  0
   19.2831  -10.5241  -18.7465 C   0  0  0  0  0  0  0  0  0  0  0  0
   20.7060  -10.1168  -19.0548 C   0  0  0  0  0  0  0  0  0  0  0  0
   21.5712  -11.3177  -19.3552 C   0  0  0  0  0  0  0  0  0  0  0  0
   23.0116  -10.9453  -19.6277 C   0  0  0  0  0  0  0  0  0  0  0  0
   23.8184  -12.1542  -19.7249 N   0  0  0  0  0  0  0  0  0  0  0  0
   19.2127   -9.1788  -16.6746 C   0  0  0  0  0  0  0  0  0  0  0  0
   18.3526   -8.2655  -16.7217 O   0  0  0  0  0  0  0  0  0  0  0  0
   21.0010   -8.2221  -13.2119 O   0  0  0  0  0  0  0  0  0  0  0  0
   21.6188   -7.5941  -14.2917 C   0  0  0  0  0  0  0  0  0  0  0  0
   20.6328   -7.5002  -15.4490 C   0  0  2  0  0  0  0  0  0  0  0  0
   20.4350   -8.8091  -16.0006 N   0  0  0  0  0  0  0  0  0  0  0  0
   21.0849   -6.5197  -16.4646 C   0  0  0  0  0  0  0  0  0  0  0  0
   21.2219   -5.1948  -16.0850 O   0  0  0  0  0  0  0  0  0  0  0  0
   21.3536   -6.8123  -17.6535 O   0  0  0  0  0  0  0  0  0  0  0  0
  2  1  1  1
  2  4  1  0
  3  2  1  0
  4  5  1  1
  6  4  1  0
  6  7  2  0
  8  6  1  0
  9  8  1  0
 10 11  1  0
  9 10  1  6
 11 12  1  0
 12 13  1  0
 13 14  1  0
 15  9  1  0
 16 15  2  0
 17 18  1  0
 19 18  1  1
 19 20  1  0
 19 21  1  0
 20 15  1  0
 21 22  1  0
 23 21  2  0
M  END
$$$$
