TKS.pdb
     RDKit          3D

 23 22  0  0  1  0  0  0  0  0999 V2000
   26.5186  -10.3324  -15.0758 C   0  0  0  0  0  0  0  0  0  0  0  0
   26.5733  -10.9064  -16.4594 C   0  0  1  0  0  0  0  0  0  0  0  0
   27.5741  -11.8990  -16.4334 O   0  0  0  0  0  0  0  0  0  0  0  0
   25.2494  -11.5625  -16.8479 C   0  0  2  0  0  0  0  0  0  0  0  0
   25.4257  -12.1624  -18.1814 N   0  0  0  0  0  0  0  0  0  0  0  0
   24.1323  -10.6021  -16.8724 C   0  0  0  0  0  0  0  0  0  0  0  0
   24.0318   -9.8247  -17.8765 O   0  0  0  0  0  0  0  0  0  0  0  0
   23.1665  -10.4851  -15.8666 N   0  0  0  0  0  0  0  0  0  0  0  0
   22.0992   -9.4829  -15.9129 C   0  0  1  0  0  0  0  0  0  0  0  0
   20.8793  -10.1574  -15.3046 C   0  0  0  0  0  0  0  0  0  0  0  0
   20.0268  -10.7997  -16.3752 C   0  0  0  0  0  0  0  0  0  0  0  0
   18.8070  -11.4656  -15.7840 C   0  0  0  0  0  0  0  0  0  0  0  0
   17.9919  -12.2121  -16.8165 C   0  0  0  0  0  0  0  0  0  0  0  0
   16.7978  -12.7634  -16.1904 N   0  0  0  0  0  0  0  0  0  0  0  0
   22.5268   -8.3274  -15.0939 C   0  0  0  0  0  0  0  0  0  0  0  0
   22.8964   -8.4013  -13.8963 O   0  0  0  0  0  0  0  0  0  0  0  0
   22.6193   -4.4342  -16.7397 O   0  0  0  0  0  0  0  0  0  0  0  0
   23.5977   -4.8328  -15.8310 C   0  0  0  0  0  0  0  0  0  0  0  0
   23.0080   -5.8659  -14.8795 C   0  0  2  0  0  0  0  0  0  0  0  0
   22.5472   -6.9910  -15.6402 N   0  0  0  0  0  0  0  0  0  0  0  0
   21.9405   -5.2760  -14.0371 C   0  0  0  0  0  0  0  0  0  0  0  0
   20.6429   -5.7297  -14.2057 O   0  0  0  0  0  0  0  0  0  0  0  0
   22.1359   -4.3868  -13.1754 O   0  0  0  0  0  0  0  0  0  0  0  0
  2  1  1  1
  2  4  1  0
  3  2  1  0
  4  5  1  6
  6  4  1  0
  6  7  2  0
  8  6  1  0
  9  8  1  0
 10 11  1  0
  9 10  1  1
 11 12  1  0
 12 13  1  0
 13 14  1  0
 15  9  1  0
 16 15  2  0
 17 18  1  0
 19 18  1  6
 19 20  1  0
 19 21  1  0
 20 15  1  0
 21 22  1  0
 23 21  2  0
M  END
$$$$
