TKS.pdb
     RDKit          3D

 23 22  0  0  1  0  0  0  0  0999 V2000
   13.3288  -24.6276   -0.1553 C   0  0  0  0  0  0  0  0  0  0  0  0
   14.2520  -24.1606   -1.2399 C   0  0  1  0  0  0  0  0  0  0  0  0
   14.2561  -25.1771   -2.2167 O   0  0  0  0  0  0  0  0  0  0  0  0
   13.7518  -22.8695   -1.8857 C   0  0  2  0  0  0  0  0  0  0  0  0
   14.5629  -22.6334   -3.0921 N   0  0  0  0  0  0  0  0  0  0  0  0
   13.8511  -21.7126   -0.9788 C   0  0  0  0  0  0  0  0  0  0  0  0
   14.9922  -21.1676   -0.8249 O   0  0  0  0  0  0  0  0  0  0  0  0
   12.7740  -21.1650   -0.2730 N   0  0  0  0  0  0  0  0  0  0  0  0
   12.9148  -19.9910    0.5916 C   0  0  1  0  0  0  0  0  0  0  0  0
   11.5134  -19.4172    0.7323 C   0  0  0  0  0  0  0  0  0  0  0  0
   11.5509  -17.9069    0.7883 C   0  0  0  0  0  0  0  0  0  0  0  0
   10.1594  -17.3211    0.8266 C   0  0  0  0  0  0  0  0  0  0  0  0
   10.1632  -15.8086    0.8320 C   0  0  0  0  0  0  0  0  0  0  0  0
    8.7940  -15.3173    0.9079 N   0  0  0  0  0  0  0  0  0  0  0  0
   13.4306  -20.4510    1.8998 C   0  0  0  0  0  0  0  0  0  0  0  0
   13.1424  -21.5510    2.4319 O   0  0  0  0  0  0  0  0  0  0  0  0
   17.0457  -20.6779    3.2675 O   0  0  0  0  0  0  0  0  0  0  0  0
   15.8348  -21.2027    3.7148 C   0  0  0  0  0  0  0  0  0  0  0  0
   14.8484  -20.0647    3.9435 C   0  0  2  0  0  0  0  0  0  0  0  0
   14.3320  -19.6335    2.6769 N   0  0  0  0  0  0  0  0  0  0  0  0
   15.4701  -18.9576    4.7085 C   0  0  0  0  0  0  0  0  0  0  0  0
   15.8745  -19.2030    6.0102 O   0  0  0  0  0  0  0  0  0  0  0  0
   15.6555  -17.8050    4.2520 O   0  0  0  0  0  0  0  0  0  0  0  0
  2  1  1  1
  2  4  1  0
  3  2  1  0
  4  5  1  6
  6  4  1  0
  6  7  2  0
  8  6  1  0
  9  8  1  0
 10 11  1  0
  9 10  1  1
 11 12  1  0
 12 13  1  0
 13 14  1  0
 15  9  1  0
 16 15  2  0
 17 18  1  0
 19 18  1  6
 19 20  1  0
 19 21  1  0
 20 15  1  0
 21 22  1  0
 23 21  2  0
M  END
$$$$
