TKS.pdb
     RDKit          3D

 23 22  0  0  1  0  0  0  0  0999 V2000
   26.3916  -34.9046   -4.4274 C   0  0  0  0  0  0  0  0  0  0  0  0
   27.2475  -34.0335   -5.2965 C   0  0  1  0  0  0  0  0  0  0  0  0
   28.0247  -33.2479   -4.4211 O   0  0  0  0  0  0  0  0  0  0  0  0
   28.1886  -34.8626   -6.1690 C   0  0  2  0  0  0  0  0  0  0  0  0
   27.3587  -35.6244   -7.1176 N   0  0  0  0  0  0  0  0  0  0  0  0
   29.0223  -35.7843   -5.3777 C   0  0  0  0  0  0  0  0  0  0  0  0
   28.4740  -36.8321   -4.9041 O   0  0  0  0  0  0  0  0  0  0  0  0
   30.3822  -35.5908   -5.1107 N   0  0  0  0  0  0  0  0  0  0  0  0
   31.1389  -36.4617   -4.2081 C   0  0  1  0  0  0  0  0  0  0  0  0
   32.5981  -36.0769   -4.3976 C   0  0  0  0  0  0  0  0  0  0  0  0
   33.5092  -37.0347   -3.6641 C   0  0  0  0  0  0  0  0  0  0  0  0
   34.9572  -36.6237   -3.7882 C   0  0  0  0  0  0  0  0  0  0  0  0
   35.8932  -37.5554   -3.0512 C   0  0  0  0  0  0  0  0  0  0  0  0
   37.2685  -37.1126   -3.2360 N   0  0  0  0  0  0  0  0  0  0  0  0
   30.6934  -36.1785   -2.8260 C   0  0  0  0  0  0  0  0  0  0  0  0
   29.9404  -35.2278   -2.5014 O   0  0  0  0  0  0  0  0  0  0  0  0
   28.8080  -36.4938    1.0252 O   0  0  0  0  0  0  0  0  0  0  0  0
   29.2024  -36.6290   -0.3044 C   0  0  0  0  0  0  0  0  0  0  0  0
   30.7209  -36.7290   -0.3699 C   0  0  2  0  0  0  0  0  0  0  0  0
   31.1120  -37.0084   -1.7211 N   0  0  0  0  0  0  0  0  0  0  0  0
   31.2371  -37.7348    0.5889 C   0  0  0  0  0  0  0  0  0  0  0  0
   31.9740  -38.7980    0.0943 O   0  0  0  0  0  0  0  0  0  0  0  0
   31.0493  -37.6865    1.8274 O   0  0  0  0  0  0  0  0  0  0  0  0
  2  1  1  1
  2  4  1  0
  3  2  1  0
  4  5  1  6
  6  4  1  0
  6  7  2  0
  8  6  1  0
  9  8  1  0
 10 11  1  0
  9 10  1  1
 11 12  1  0
 12 13  1  0
 13 14  1  0
 15  9  1  0
 16 15  2  0
 17 18  1  0
 19 18  1  6
 19 20  1  0
 19 21  1  0
 20 15  1  0
 21 22  1  0
 23 21  2  0
M  END
$$$$
