TKS.pdb
     RDKit          3D

 23 22  0  0  1  0  0  0  0  0999 V2000
   19.4737  -12.5212  -23.3870 C   0  0  0  0  0  0  0  0  0  0  0  0
   19.1426  -12.2999  -21.9419 C   0  0  1  0  0  0  0  0  0  0  0  0
   18.7545  -13.5553  -21.4313 O   0  0  0  0  0  0  0  0  0  0  0  0
   20.3581  -11.8113  -21.1558 C   0  0  2  0  0  0  0  0  0  0  0  0
   21.3836  -12.8663  -21.2231 N   0  0  0  0  0  0  0  0  0  0  0  0
   20.0350  -11.5133  -19.7495 C   0  0  0  0  0  0  0  0  0  0  0  0
   19.1688  -10.6100  -19.5117 O   0  0  0  0  0  0  0  0  0  0  0  0
   20.6133  -12.1581  -18.6504 N   0  0  0  0  0  0  0  0  0  0  0  0
   20.2273  -11.8586  -17.2695 C   0  0  1  0  0  0  0  0  0  0  0  0
   20.7117  -13.0410  -16.4447 C   0  0  0  0  0  0  0  0  0  0  0  0
   19.7783  -14.2212  -16.5918 C   0  0  0  0  0  0  0  0  0  0  0  0
   20.1630  -15.3484  -15.6632 C   0  0  0  0  0  0  0  0  0  0  0  0
   19.2061  -16.5174  -15.7372 C   0  0  0  0  0  0  0  0  0  0  0  0
   19.6161  -17.5447  -14.7894 N   0  0  0  0  0  0  0  0  0  0  0  0
   20.9186  -10.6146  -16.8655 C   0  0  0  0  0  0  0  0  0  0  0  0
   22.0847  -10.3035  -17.2114 O   0  0  0  0  0  0  0  0  0  0  0  0
   21.2196   -6.1452  -16.0855 O   0  0  0  0  0  0  0  0  0  0  0  0
   20.5461   -7.2972  -16.4870 C   0  0  0  0  0  0  0  0  0  0  0  0
   20.9412   -8.4526  -15.5763 C   0  0  2  0  0  0  0  0  0  0  0  0
   20.2720   -9.6425  -16.0158 N   0  0  0  0  0  0  0  0  0  0  0  0
   20.6631   -8.1383  -14.1547 C   0  0  0  0  0  0  0  0  0  0  0  0
   21.3906   -7.1270  -13.5498 O   0  0  0  0  0  0  0  0  0  0  0  0
   19.8064   -8.7319  -13.4581 O   0  0  0  0  0  0  0  0  0  0  0  0
  2  1  1  6
  2  4  1  0
  3  2  1  0
  4  5  1  1
  6  4  1  0
  6  7  2  0
  8  6  1  0
  9  8  1  0
 10 11  1  0
  9 10  1  1
 11 12  1  0
 12 13  1  0
 13 14  1  0
 15  9  1  0
 16 15  2  0
 17 18  1  0
 19 18  1  6
 19 20  1  0
 19 21  1  0
 20 15  1  0
 21 22  1  0
 23 21  2  0
M  END
$$$$
