TKS.pdb
     RDKit          3D

 23 22  0  0  1  0  0  0  0  0999 V2000
   23.5989   -8.5776  -20.9182 C   0  0  0  0  0  0  0  0  0  0  0  0
   23.2668   -9.8836  -20.2616 C   0  0  1  0  0  0  0  0  0  0  0  0
   24.0663  -10.8563  -20.8956 O   0  0  0  0  0  0  0  0  0  0  0  0
   23.6115   -9.8673  -18.7733 C   0  0  2  0  0  0  0  0  0  0  0  0
   23.5037  -11.2500  -18.2776 N   0  0  0  0  0  0  0  0  0  0  0  0
   22.7205   -8.9850  -17.9997 C   0  0  0  0  0  0  0  0  0  0  0  0
   22.5875   -7.7787  -18.3869 O   0  0  0  0  0  0  0  0  0  0  0  0
   22.0036   -9.3813  -16.8652 N   0  0  0  0  0  0  0  0  0  0  0  0
   21.0387   -8.5044  -16.1978 C   0  0  1  0  0  0  0  0  0  0  0  0
   20.2095   -9.4146  -15.3050 C   0  0  0  0  0  0  0  0  0  0  0  0
   19.0924  -10.0672  -16.0872 C   0  0  0  0  0  0  0  0  0  0  0  0
   18.3607  -11.0924  -15.2538 C   0  0  0  0  0  0  0  0  0  0  0  0
   17.1547  -11.6672  -15.9628 C   0  0  0  0  0  0  0  0  0  0  0  0
   16.5451  -12.6972  -15.1325 N   0  0  0  0  0  0  0  0  0  0  0  0
   21.7992   -7.5244  -15.3916 C   0  0  0  0  0  0  0  0  0  0  0  0
   22.7126   -7.8229  -14.5836 O   0  0  0  0  0  0  0  0  0  0  0  0
   23.5846   -3.2015  -14.8101 O   0  0  0  0  0  0  0  0  0  0  0  0
   22.9251   -4.1498  -15.5897 C   0  0  0  0  0  0  0  0  0  0  0  0
   22.2221   -5.1476  -14.6785 C   0  0  2  0  0  0  0  0  0  0  0  0
   21.5293   -6.1090  -15.4862 N   0  0  0  0  0  0  0  0  0  0  0  0
   21.3244   -4.4620  -13.7186 C   0  0  0  0  0  0  0  0  0  0  0  0
   21.8834   -3.8903  -12.5878 O   0  0  0  0  0  0  0  0  0  0  0  0
   20.0831   -4.3645  -13.8636 O   0  0  0  0  0  0  0  0  0  0  0  0
  2  1  1  6
  2  4  1  0
  3  2  1  0
  4  5  1  1
  6  4  1  0
  6  7  2  0
  8  6  1  0
  9  8  1  0
 10 11  1  0
  9 10  1  1
 11 12  1  0
 12 13  1  0
 13 14  1  0
 15  9  1  0
 16 15  2  0
 17 18  1  0
 19 18  1  6
 19 20  1  0
 19 21  1  0
 20 15  1  0
 21 22  1  0
 23 21  2  0
M  END
$$$$
