TKS.pdb
     RDKit          3D

 23 22  0  0  1  0  0  0  0  0999 V2000
   23.9601  -10.6220  -14.5554 C   0  0  0  0  0  0  0  0  0  0  0  0
   23.8816  -11.2648  -15.9072 C   0  0  1  0  0  0  0  0  0  0  0  0
   24.5757  -12.4873  -15.8016 O   0  0  0  0  0  0  0  0  0  0  0  0
   22.4365  -11.5604  -16.3054 C   0  0  2  0  0  0  0  0  0  0  0  0
   22.4688  -12.2901  -17.5843 N   0  0  0  0  0  0  0  0  0  0  0  0
   21.6306  -10.3350  -16.4459 C   0  0  0  0  0  0  0  0  0  0  0  0
   21.9099   -9.5399  -17.4011 O   0  0  0  0  0  0  0  0  0  0  0  0
   20.5719   -9.9824  -15.6015 N   0  0  0  0  0  0  0  0  0  0  0  0
   19.8266   -8.7307  -15.7541 C   0  0  1  0  0  0  0  0  0  0  0  0
   18.3995   -9.0520  -15.3380 C   0  0  0  0  0  0  0  0  0  0  0  0
   17.6517   -9.7389  -16.4581 C   0  0  0  0  0  0  0  0  0  0  0  0
   16.2229  -10.0346  -16.0680 C   0  0  0  0  0  0  0  0  0  0  0  0
   15.4504  -10.7303  -17.1666 C   0  0  0  0  0  0  0  0  0  0  0  0
   14.0745  -10.9416  -16.7374 N   0  0  0  0  0  0  0  0  0  0  0  0
   20.4292   -7.7310  -14.8451 C   0  0  0  0  0  0  0  0  0  0  0  0
   21.1821   -8.0089  -13.8797 O   0  0  0  0  0  0  0  0  0  0  0  0
   23.2536   -4.5285  -14.3207 O   0  0  0  0  0  0  0  0  0  0  0  0
   22.4417   -5.4999  -14.9030 C   0  0  0  0  0  0  0  0  0  0  0  0
   21.0119   -5.3213  -14.4088 C   0  0  2  0  0  0  0  0  0  0  0  0
   20.1803   -6.3190  -15.0167 N   0  0  0  0  0  0  0  0  0  0  0  0
   20.5221   -3.9451  -14.6606 C   0  0  0  0  0  0  0  0  0  0  0  0
   20.7145   -2.9881  -13.6781 O   0  0  0  0  0  0  0  0  0  0  0  0
   19.9409   -3.5872  -15.7120 O   0  0  0  0  0  0  0  0  0  0  0  0
  2  1  1  1
  2  4  1  0
  3  2  1  0
  4  5  1  6
  6  4  1  0
  6  7  2  0
  8  6  1  0
  9  8  1  0
 10 11  1  0
  9 10  1  1
 11 12  1  0
 12 13  1  0
 13 14  1  0
 15  9  1  0
 16 15  2  0
 17 18  1  0
 19 18  1  6
 19 20  1  0
 19 21  1  0
 20 15  1  0
 21 22  1  0
 23 21  2  0
M  END
$$$$
