TKS.pdb
     RDKit          3D

 23 22  0  0  1  0  0  0  0  0999 V2000
   26.6729  -10.4948  -15.0616 C   0  0  0  0  0  0  0  0  0  0  0  0
   26.8815  -10.6582  -16.5369 C   0  0  1  0  0  0  0  0  0  0  0  0
   27.9628  -11.5507  -16.6840 O   0  0  0  0  0  0  0  0  0  0  0  0
   25.6545  -11.2674  -17.2133 C   0  0  2  0  0  0  0  0  0  0  0  0
   26.0163  -11.5571  -18.6113 N   0  0  0  0  0  0  0  0  0  0  0  0
   24.4866  -10.3700  -17.1719 C   0  0  0  0  0  0  0  0  0  0  0  0
   24.4395   -9.4083  -18.0060 O   0  0  0  0  0  0  0  0  0  0  0  0
   23.4179  -10.5021  -16.2784 N   0  0  0  0  0  0  0  0  0  0  0  0
   22.2876   -9.5706  -16.2599 C   0  0  1  0  0  0  0  0  0  0  0  0
   21.0934  -10.3870  -15.7901 C   0  0  0  0  0  0  0  0  0  0  0  0
   19.8302   -9.5567  -15.8090 C   0  0  0  0  0  0  0  0  0  0  0  0
   18.6258  -10.3749  -15.4079 C   0  0  0  0  0  0  0  0  0  0  0  0
   17.3245   -9.6262  -15.5918 C   0  0  0  0  0  0  0  0  0  0  0  0
   16.2055  -10.5170  -15.3157 N   0  0  0  0  0  0  0  0  0  0  0  0
   22.6034   -8.4941  -15.2953 C   0  0  0  0  0  0  0  0  0  0  0  0
   23.3524   -8.6298  -14.2969 O   0  0  0  0  0  0  0  0  0  0  0  0
   23.5472   -4.9790  -16.4455 O   0  0  0  0  0  0  0  0  0  0  0  0
   23.7761   -5.5123  -15.1786 C   0  0  0  0  0  0  0  0  0  0  0  0
   22.4712   -6.0711  -14.6259 C   0  0  2  0  0  0  0  0  0  0  0  0
   22.0496   -7.1692  -15.4464 N   0  0  0  0  0  0  0  0  0  0  0  0
   21.4362   -5.0158  -14.5160 C   0  0  0  0  0  0  0  0  0  0  0  0
   21.6367   -3.9892  -13.6082 O   0  0  0  0  0  0  0  0  0  0  0  0
   20.3831   -4.9905  -15.1956 O   0  0  0  0  0  0  0  0  0  0  0  0
  2  1  1  1
  2  4  1  0
  3  2  1  0
  4  5  1  6
  6  4  1  0
  6  7  2  0
  8  6  1  0
  9  8  1  0
 10 11  1  0
  9 10  1  1
 11 12  1  0
 12 13  1  0
 13 14  1  0
 15  9  1  0
 16 15  2  0
 17 18  1  0
 19 18  1  6
 19 20  1  0
 19 21  1  0
 20 15  1  0
 21 22  1  0
 23 21  2  0
M  END
$$$$
