WAA.pdb
     RDKit          3D

 25 26  0  0  1  0  0  0  0  0999 V2000
   25.6581  -23.0938  -13.8234 N   0  0  0  0  0  0  0  0  0  0  0  0
   25.2526  -21.8570  -13.1372 C   0  0  1  0  0  0  0  0  0  0  0  0
   26.5201  -21.2747  -12.5713 C   0  0  0  0  0  0  0  0  0  0  0  0
   26.5181  -21.1357  -11.1048 C   0  0  0  0  0  0  0  0  0  0  0  0
   25.3779  -21.0029  -10.3175 C   0  0  0  0  0  0  0  0  0  0  0  0
   25.7478  -20.9003   -9.0337 N   0  0  0  0  0  0  0  0  0  0  0  0
   27.0956  -20.9575   -8.9132 C   0  0  0  0  0  0  0  0  0  0  0  0
   27.9412  -20.8978   -7.8300 C   0  0  0  0  0  0  0  0  0  0  0  0
   29.3011  -20.9855   -8.0257 C   0  0  0  0  0  0  0  0  0  0  0  0
   29.7823  -21.1313   -9.3095 C   0  0  0  0  0  0  0  0  0  0  0  0
   28.9246  -21.1909  -10.3991 C   0  0  0  0  0  0  0  0  0  0  0  0
   27.5694  -21.1048  -10.2141 C   0  0  0  0  0  0  0  0  0  0  0  0
   24.6344  -20.9709  -14.1563 C   0  0  0  0  0  0  0  0  0  0  0  0
   24.9978  -21.0237  -15.3615 O   0  0  0  0  0  0  0  0  0  0  0  0
   21.7259  -18.6423  -14.3283 C   0  0  0  0  0  0  0  0  0  0  0  0
   22.9497  -19.2936  -14.9050 C   0  0  2  0  0  0  0  0  0  0  0  0
   23.6131  -20.0289  -13.8297 N   0  0  0  0  0  0  0  0  0  0  0  0
   23.8947  -18.2888  -15.4738 C   0  0  0  0  0  0  0  0  0  0  0  0
   23.5580  -17.5596  -16.4398 O   0  0  0  0  0  0  0  0  0  0  0  0
   27.2184  -16.8748  -14.5941 C   0  0  0  0  0  0  0  0  0  0  0  0
   26.1563  -17.2603  -15.6227 C   0  0  2  0  0  0  0  0  0  0  0  0
   25.2069  -18.1149  -14.9500 N   0  0  0  0  0  0  0  0  0  0  0  0
   26.8168  -17.9291  -16.7583 C   0  0  0  0  0  0  0  0  0  0  0  0
   26.6577  -19.1513  -16.9385 O   0  0  0  0  0  0  0  0  0  0  0  0
   27.6085  -17.1982  -17.6167 O   0  0  0  0  0  0  0  0  0  0  0  0
  2  1  1  6
  2  3  1  0
  2 13  1  0
  4  3  1  0
  4  5  2  0
  6  5  1  0
  7  6  1  0
  8  7  2  0
  9  8  1  0
 10  9  2  0
 10 11  1  0
 11 12  2  0
 12  7  1  0
 12  4  1  0
 13 14  2  0
 16 15  1  1
 17 13  1  0
 17 16  1  0
 18 16  1  0
 18 19  2  0
 21 20  1  1
 21 23  1  0
 21 22  1  0
 22 18  1  0
 23 25  1  0
 24 23  2  0
M  END
$$$$
