WAA.pdb
     RDKit          3D

 25 26  0  0  1  0  0  0  0  0999 V2000
   24.9110  -20.2760   -9.1044 N   0  0  0  0  0  0  0  0  0  0  0  0
   26.3389  -20.3041   -9.4585 C   0  0  1  0  0  0  0  0  0  0  0  0
   26.9888  -21.2080   -8.4454 C   0  0  0  0  0  0  0  0  0  0  0  0
   26.8517  -20.7499   -7.0521 C   0  0  0  0  0  0  0  0  0  0  0  0
   25.6855  -20.8314   -6.2965 C   0  0  0  0  0  0  0  0  0  0  0  0
   25.9220  -20.3236   -5.0793 N   0  0  0  0  0  0  0  0  0  0  0  0
   27.2036  -19.8983   -4.9738 C   0  0  0  0  0  0  0  0  0  0  0  0
   27.9146  -19.3163   -3.9503 C   0  0  0  0  0  0  0  0  0  0  0  0
   29.2370  -18.9863   -4.1454 C   0  0  0  0  0  0  0  0  0  0  0  0
   29.8166  -19.2492   -5.3684 C   0  0  0  0  0  0  0  0  0  0  0  0
   29.0945  -19.8368   -6.3979 C   0  0  0  0  0  0  0  0  0  0  0  0
   27.7778  -20.1690   -6.2129 C   0  0  0  0  0  0  0  0  0  0  0  0
   26.4394  -20.8443  -10.8384 C   0  0  0  0  0  0  0  0  0  0  0  0
   27.4474  -21.5090  -11.1981 O   0  0  0  0  0  0  0  0  0  0  0  0
   25.7854  -22.7009  -12.9791 C   0  0  0  0  0  0  0  0  0  0  0  0
   25.5752  -21.2235  -13.1452 C   0  0  2  0  0  0  0  0  0  0  0  0
   25.4166  -20.6424  -11.8132 N   0  0  0  0  0  0  0  0  0  0  0  0
   24.3630  -20.9260  -13.9626 C   0  0  0  0  0  0  0  0  0  0  0  0
   24.2386  -21.3860  -15.1250 O   0  0  0  0  0  0  0  0  0  0  0  0
   21.0882  -19.2216  -13.4476 C   0  0  0  0  0  0  0  0  0  0  0  0
   22.2422  -19.6787  -14.3386 C   0  0  2  0  0  0  0  0  0  0  0  0
   23.3043  -20.1154  -13.4638 N   0  0  0  0  0  0  0  0  0  0  0  0
   22.6456  -18.5564  -15.2049 C   0  0  0  0  0  0  0  0  0  0  0  0
   23.7092  -17.9482  -14.9802 O   0  0  0  0  0  0  0  0  0  0  0  0
   21.8432  -18.1843  -16.2611 O   0  0  0  0  0  0  0  0  0  0  0  0
  2  1  1  1
  2  3  1  0
  2 13  1  0
  4  3  1  0
  4  5  2  0
  6  5  1  0
  7  6  1  0
  8  7  2  0
  9  8  1  0
 10  9  2  0
 10 11  1  0
 11 12  2  0
 12  7  1  0
 12  4  1  0
 13 14  2  0
 16 15  1  1
 17 13  1  0
 17 16  1  0
 18 16  1  0
 18 19  2  0
 21 20  1  1
 21 23  1  0
 21 22  1  0
 22 18  1  0
 23 25  1  0
 24 23  2  0
M  END
$$$$
