WAA.pdb
     RDKit          3D

 25 26  0  0  1  0  0  0  0  0999 V2000
   26.7891  -21.8402  -10.5407 N   0  0  0  0  0  0  0  0  0  0  0  0
   26.0680  -20.7481   -9.8683 C   0  0  1  0  0  0  0  0  0  0  0  0
   27.1221  -19.7455   -9.4817 C   0  0  0  0  0  0  0  0  0  0  0  0
   28.1419  -20.2685   -8.5564 C   0  0  0  0  0  0  0  0  0  0  0  0
   29.1646  -21.1447   -8.9085 C   0  0  0  0  0  0  0  0  0  0  0  0
   29.9024  -21.4082   -7.8214 N   0  0  0  0  0  0  0  0  0  0  0  0
   29.4238  -20.7467   -6.7408 C   0  0  0  0  0  0  0  0  0  0  0  0
   29.8238  -20.6905   -5.4259 C   0  0  0  0  0  0  0  0  0  0  0  0
   29.1203  -19.9102   -4.5360 C   0  0  0  0  0  0  0  0  0  0  0  0
   28.0274  -19.2021   -4.9888 C   0  0  0  0  0  0  0  0  0  0  0  0
   27.6282  -19.2625   -6.3167 C   0  0  0  0  0  0  0  0  0  0  0  0
   28.3223  -20.0362   -7.2099 C   0  0  0  0  0  0  0  0  0  0  0  0
   25.0981  -20.1933  -10.8468 C   0  0  0  0  0  0  0  0  0  0  0  0
   24.2079  -19.3802  -10.4812 O   0  0  0  0  0  0  0  0  0  0  0  0
   25.0004  -19.6919  -14.4630 C   0  0  0  0  0  0  0  0  0  0  0  0
   24.2583  -19.8287  -13.1649 C   0  0  2  0  0  0  0  0  0  0  0  0
   25.1232  -20.5458  -12.2296 N   0  0  0  0  0  0  0  0  0  0  0  0
   22.9813  -20.5814  -13.3349 C   0  0  0  0  0  0  0  0  0  0  0  0
   22.0997  -20.1852  -14.1374 O   0  0  0  0  0  0  0  0  0  0  0  0
   21.5818  -23.8361  -12.1865 C   0  0  0  0  0  0  0  0  0  0  0  0
   21.4132  -22.3999  -12.6799 C   0  0  2  0  0  0  0  0  0  0  0  0
   22.7102  -21.7708  -12.6012 N   0  0  0  0  0  0  0  0  0  0  0  0
   20.4039  -21.7264  -11.8428 C   0  0  0  0  0  0  0  0  0  0  0  0
   20.7631  -20.9288  -10.9561 O   0  0  0  0  0  0  0  0  0  0  0  0
   19.0655  -21.9825  -12.0453 O   0  0  0  0  0  0  0  0  0  0  0  0
  2  1  1  6
  2  3  1  0
  2 13  1  0
  4  3  1  0
  4  5  2  0
  6  5  1  0
  7  6  1  0
  8  7  2  0
  9  8  1  0
 10  9  2  0
 10 11  1  0
 11 12  2  0
 12  7  1  0
 12  4  1  0
 13 14  2  0
 16 15  1  6
 17 13  1  0
 17 16  1  0
 18 16  1  0
 18 19  2  0
 21 20  1  1
 21 23  1  0
 21 22  1  0
 22 18  1  0
 23 25  1  0
 24 23  2  0
M  END
$$$$
