WAA.pdb
     RDKit          3D

 25 26  0  0  1  0  0  0  0  0999 V2000
   23.8982  -20.3410   -9.8938 N   0  0  0  0  0  0  0  0  0  0  0  0
   25.2057  -19.6848  -10.0513 C   0  0  1  0  0  0  0  0  0  0  0  0
   26.2156  -20.6611   -9.5102 C   0  0  0  0  0  0  0  0  0  0  0  0
   26.2594  -20.7311   -8.0395 C   0  0  0  0  0  0  0  0  0  0  0  0
   25.4522  -21.5503   -7.2554 C   0  0  0  0  0  0  0  0  0  0  0  0
   25.7617  -21.3566   -5.9661 N   0  0  0  0  0  0  0  0  0  0  0  0
   26.7481  -20.4373   -5.8388 C   0  0  0  0  0  0  0  0  0  0  0  0
   27.3980  -19.9077   -4.7483 C   0  0  0  0  0  0  0  0  0  0  0  0
   28.3835  -18.9652   -4.9381 C   0  0  0  0  0  0  0  0  0  0  0  0
   28.6944  -18.5747   -6.2234 C   0  0  0  0  0  0  0  0  0  0  0  0
   28.0355  -19.1124   -7.3202 C   0  0  0  0  0  0  0  0  0  0  0  0
   27.0534  -20.0513   -7.1412 C   0  0  0  0  0  0  0  0  0  0  0  0
   25.3964  -19.4264  -11.5014 C   0  0  0  0  0  0  0  0  0  0  0  0
   24.8058  -20.1295  -12.3641 O   0  0  0  0  0  0  0  0  0  0  0  0
   26.6978  -16.6880  -13.6124 C   0  0  0  0  0  0  0  0  0  0  0  0
   26.3043  -18.1245  -13.4231 C   0  0  2  0  0  0  0  0  0  0  0  0
   26.2442  -18.3855  -11.9859 N   0  0  0  0  0  0  0  0  0  0  0  0
   27.2858  -19.0544  -14.0543 C   0  0  0  0  0  0  0  0  0  0  0  0
   27.5907  -18.9452  -15.2681 O   0  0  0  0  0  0  0  0  0  0  0  0
   29.6202  -21.7035  -12.8535 C   0  0  0  0  0  0  0  0  0  0  0  0
   28.8352  -20.9999  -13.9595 C   0  0  2  0  0  0  0  0  0  0  0  0
   27.9133  -20.0957  -13.3139 N   0  0  0  0  0  0  0  0  0  0  0  0
   28.1521  -22.0184  -14.7776 C   0  0  0  0  0  0  0  0  0  0  0  0
   26.9088  -22.0238  -14.8536 O   0  0  0  0  0  0  0  0  0  0  0  0
   28.8931  -22.9614  -15.4555 O   0  0  0  0  0  0  0  0  0  0  0  0
  2  1  1  6
  2  3  1  0
  2 13  1  0
  4  3  1  0
  4  5  2  0
  6  5  1  0
  7  6  1  0
  8  7  2  0
  9  8  1  0
 10  9  2  0
 10 11  1  0
 11 12  2  0
 12  7  1  0
 12  4  1  0
 13 14  2  0
 16 15  1  1
 17 13  1  0
 17 16  1  0
 18 16  1  0
 18 19  2  0
 21 20  1  1
 21 23  1  0
 21 22  1  0
 22 18  1  0
 23 25  1  0
 24 23  2  0
M  END
$$$$
