WAA.pdb
     RDKit          3D

 25 26  0  0  1  0  0  0  0  0999 V2000
   26.8852  -22.4562  -13.8161 N   0  0  0  0  0  0  0  0  0  0  0  0
   25.8235  -21.8565  -12.9926 C   0  0  1  0  0  0  0  0  0  0  0  0
   26.3764  -20.5399  -12.5166 C   0  0  0  0  0  0  0  0  0  0  0  0
   27.3556  -20.6567  -11.4224 C   0  0  0  0  0  0  0  0  0  0  0  0
   28.7271  -20.8217  -11.5934 C   0  0  0  0  0  0  0  0  0  0  0  0
   29.3084  -20.8905  -10.3880 N   0  0  0  0  0  0  0  0  0  0  0  0
   28.3880  -20.7794   -9.4007 C   0  0  0  0  0  0  0  0  0  0  0  0
   28.4825  -20.7899   -8.0285 C   0  0  0  0  0  0  0  0  0  0  0  0
   27.3422  -20.6525   -7.2693 C   0  0  0  0  0  0  0  0  0  0  0  0
   26.1290  -20.5076   -7.9080 C   0  0  0  0  0  0  0  0  0  0  0  0
   26.0393  -20.4977   -9.2930 C   0  0  0  0  0  0  0  0  0  0  0  0
   27.1689  -20.6334  -10.0571 C   0  0  0  0  0  0  0  0  0  0  0  0
   24.6347  -21.6829  -13.8658 C   0  0  0  0  0  0  0  0  0  0  0  0
   24.5767  -20.7353  -14.6941 O   0  0  0  0  0  0  0  0  0  0  0  0
   21.9939  -23.6209  -15.3327 C   0  0  0  0  0  0  0  0  0  0  0  0
   22.3691  -22.3179  -14.6879 C   0  0  2  0  0  0  0  0  0  0  0  0
   23.5143  -22.5655  -13.8137 N   0  0  0  0  0  0  0  0  0  0  0  0
   21.2452  -21.7551  -13.8839 C   0  0  0  0  0  0  0  0  0  0  0  0
   20.1310  -21.5132  -14.4116 O   0  0  0  0  0  0  0  0  0  0  0  0
   20.7863  -20.6830  -10.3215 C   0  0  0  0  0  0  0  0  0  0  0  0
   20.3340  -20.7937  -11.7767 C   0  0  2  0  0  0  0  0  0  0  0  0
   21.3865  -21.4711  -12.4962 N   0  0  0  0  0  0  0  0  0  0  0  0
   20.0721  -19.4392  -12.2961 C   0  0  0  0  0  0  0  0  0  0  0  0
   20.9896  -18.7915  -12.8349 O   0  0  0  0  0  0  0  0  0  0  0  0
   18.8117  -18.8948  -12.1833 O   0  0  0  0  0  0  0  0  0  0  0  0
  2  1  1  6
  2  3  1  0
  2 13  1  0
  4  3  1  0
  4  5  2  0
  6  5  1  0
  7  6  1  0
  8  7  2  0
  9  8  1  0
 10  9  2  0
 10 11  1  0
 11 12  2  0
 12  7  1  0
 12  4  1  0
 13 14  2  0
 16 15  1  1
 17 13  1  0
 17 16  1  0
 18 16  1  0
 18 19  2  0
 21 20  1  1
 21 23  1  0
 21 22  1  0
 22 18  1  0
 23 25  1  0
 24 23  2  0
M  END
$$$$
