GIT.pdb
     RDKit          3D

 20 19  0  0  1  0  0  0  0  0999 V2000
   20.0300  -12.7739  -17.7882 N   0  0  0  0  0  0  0  0  0  0  0  0
   20.9798  -11.7524  -18.1649 C   0  0  0  0  0  0  0  0  0  0  0  0
   21.6563  -11.1990  -16.9469 C   0  0  0  0  0  0  0  0  0  0  0  0
   21.1314  -11.3966  -15.8200 O   0  0  0  0  0  0  0  0  0  0  0  0
   26.8053  -11.7082  -15.8143 C   0  0  0  0  0  0  0  0  0  0  0  0
   25.3238  -11.4719  -15.7964 C   0  0  0  0  0  0  0  0  0  0  0  0
   24.9535  -10.0064  -15.8541 C   0  0  2  0  0  0  0  0  0  0  0  0
   25.4506   -9.3600  -14.5648 C   0  0  0  0  0  0  0  0  0  0  0  0
   23.4804   -9.7816  -15.9408 C   0  0  2  0  0  0  0  0  0  0  0  0
   22.8658  -10.4647  -17.0493 N   0  0  0  0  0  0  0  0  0  0  0  0
   23.2726   -8.2906  -16.0619 C   0  0  0  0  0  0  0  0  0  0  0  0
   23.8144   -7.6532  -16.9777 O   0  0  0  0  0  0  0  0  0  0  0  0
   20.2837   -6.4559  -16.9944 C   0  0  0  0  0  0  0  0  0  0  0  0
   20.7163   -5.9357  -15.6371 C   0  0  1  0  0  0  0  0  0  0  0  0
   19.9046   -6.4888  -14.6751 O   0  0  0  0  0  0  0  0  0  0  0  0
   22.1857   -6.1969  -15.3816 C   0  0  2  0  0  0  0  0  0  0  0  0
   22.4578   -7.5893  -15.1362 N   0  0  0  0  0  0  0  0  0  0  0  0
   22.5447   -5.4256  -14.1671 C   0  0  0  0  0  0  0  0  0  0  0  0
   22.8126   -6.0531  -13.1157 O   0  0  0  0  0  0  0  0  0  0  0  0
   22.5826   -4.0320  -14.1969 O   0  0  0  0  0  0  0  0  0  0  0  0
  2  1  1  0
  3 10  1  0
  3  2  1  0
  4  3  2  0
  5  6  1  0
  7  6  1  0
  7  8  1  1
  9  7  1  0
  9 10  1  6
 11  9  1  0
 11 17  1  0
 12 11  2  0
 14 13  1  6
 14 15  1  0
 16 17  1  1
 16 14  1  0
 18 16  1  0
 19 18  2  0
 20 18  1  0
M  END
$$$$
