GIT.pdb
     RDKit          3D

 20 19  0  0  1  0  0  0  0  0999 V2000
   17.7670  -11.2212  -14.0052 N   0  0  0  0  0  0  0  0  0  0  0  0
   17.9299  -10.8040  -12.6315 C   0  0  0  0  0  0  0  0  0  0  0  0
   16.8137   -9.8861  -12.2326 C   0  0  0  0  0  0  0  0  0  0  0  0
   16.2369   -9.2106  -13.1245 O   0  0  0  0  0  0  0  0  0  0  0  0
   12.8853  -11.6907   -9.2046 C   0  0  0  0  0  0  0  0  0  0  0  0
   13.7002  -10.8776  -10.1668 C   0  0  0  0  0  0  0  0  0  0  0  0
   14.3699   -9.6851   -9.5208 C   0  0  2  0  0  0  0  0  0  0  0  0
   13.2691   -8.7123   -9.1092 C   0  0  0  0  0  0  0  0  0  0  0  0
   15.2947   -8.9655  -10.4456 C   0  0  2  0  0  0  0  0  0  0  0  0
   16.4060   -9.7722  -10.8786 N   0  0  0  0  0  0  0  0  0  0  0  0
   15.7882   -7.7443   -9.7068 C   0  0  0  0  0  0  0  0  0  0  0  0
   16.5363   -7.8639   -8.7247 O   0  0  0  0  0  0  0  0  0  0  0  0
   15.3613   -3.8385  -11.3707 C   0  0  0  0  0  0  0  0  0  0  0  0
   16.4679   -4.2475  -10.4177 C   0  0  1  0  0  0  0  0  0  0  0  0
   16.9407   -3.1228   -9.7841 O   0  0  0  0  0  0  0  0  0  0  0  0
   16.0030   -5.3125   -9.4468 C   0  0  2  0  0  0  0  0  0  0  0  0
   15.4094   -6.4401  -10.1168 N   0  0  0  0  0  0  0  0  0  0  0  0
   14.9729   -4.6784   -8.5891 C   0  0  0  0  0  0  0  0  0  0  0  0
   15.3406   -3.8508   -7.7226 O   0  0  0  0  0  0  0  0  0  0  0  0
   13.6245   -4.9980   -8.7454 O   0  0  0  0  0  0  0  0  0  0  0  0
  2  1  1  0
  3 10  1  0
  3  2  1  0
  4  3  2  0
  5  6  1  0
  7  6  1  0
  7  8  1  6
  9  7  1  0
  9 10  1  1
 11  9  1  0
 11 17  1  0
 12 11  2  0
 14 13  1  6
 14 15  1  0
 16 17  1  6
 16 14  1  0
 18 16  1  0
 19 18  2  0
 20 18  1  0
M  END
$$$$
