GIT.pdb
     RDKit          3D

 20 19  0  0  1  0  0  0  0  0999 V2000
   29.0284  -21.3994  -15.4177 N   0  0  0  0  0  0  0  0  0  0  0  0
   28.2998  -20.3755  -14.7049 C   0  0  0  0  0  0  0  0  0  0  0  0
   27.0758  -20.9598  -14.0660 C   0  0  0  0  0  0  0  0  0  0  0  0
   26.5170  -21.9447  -14.6158 O   0  0  0  0  0  0  0  0  0  0  0  0
   26.5720  -20.2555   -8.6986 C   0  0  0  0  0  0  0  0  0  0  0  0
   26.3567  -21.0395   -9.9596 C   0  0  0  0  0  0  0  0  0  0  0  0
   25.2227  -20.5059  -10.8065 C   0  0  2  0  0  0  0  0  0  0  0  0
   23.9283  -21.1025  -10.2625 C   0  0  0  0  0  0  0  0  0  0  0  0
   25.3373  -20.8938  -12.2435 C   0  0  2  0  0  0  0  0  0  0  0  0
   26.5476  -20.4217  -12.8644 N   0  0  0  0  0  0  0  0  0  0  0  0
   24.1287  -20.3240  -12.9473 C   0  0  0  0  0  0  0  0  0  0  0  0
   23.9395  -19.0986  -12.9781 O   0  0  0  0  0  0  0  0  0  0  0  0
   20.7105  -20.6299  -16.4039 C   0  0  0  0  0  0  0  0  0  0  0  0
   21.8818  -21.2432  -15.6609 C   0  0  1  0  0  0  0  0  0  0  0  0
   22.9894  -21.2008  -16.4742 O   0  0  0  0  0  0  0  0  0  0  0  0
   22.1117  -20.5669  -14.3258 C   0  0  2  0  0  0  0  0  0  0  0  0
   23.1879  -21.1725  -13.5855 N   0  0  0  0  0  0  0  0  0  0  0  0
   20.8576  -20.7286  -13.5513 C   0  0  0  0  0  0  0  0  0  0  0  0
   20.0672  -19.7586  -13.4805 O   0  0  0  0  0  0  0  0  0  0  0  0
   20.5665  -21.9355  -12.9161 O   0  0  0  0  0  0  0  0  0  0  0  0
  2  1  1  0
  3 10  1  0
  3  2  1  0
  4  3  2  0
  5  6  1  0
  7  6  1  0
  7  8  1  1
  9  7  1  0
  9 10  1  6
 11  9  1  0
 11 17  1  0
 12 11  2  0
 14 13  1  6
 14 15  1  0
 16 17  1  1
 16 14  1  0
 18 16  1  0
 19 18  2  0
 20 18  1  0
M  END
$$$$
