GIT.pdb
     RDKit          3D

 20 19  0  0  1  0  0  0  0  0999 V2000
   21.0666  -20.1341  -17.7460 N   0  0  0  0  0  0  0  0  0  0  0  0
   21.6329  -18.8919  -17.2728 C   0  0  0  0  0  0  0  0  0  0  0  0
   20.5632  -18.0301  -16.6721 C   0  0  0  0  0  0  0  0  0  0  0  0
   19.5375  -17.7735  -17.3552 O   0  0  0  0  0  0  0  0  0  0  0  0
   19.8426  -18.7483  -11.5984 C   0  0  0  0  0  0  0  0  0  0  0  0
   19.1999  -18.2691  -12.8666 C   0  0  0  0  0  0  0  0  0  0  0  0
   19.6183  -16.8681  -13.2541 C   0  0  2  0  0  0  0  0  0  0  0  0
   18.5596  -15.9111  -12.7148 C   0  0  0  0  0  0  0  0  0  0  0  0
   19.7014  -16.6735  -14.7318 C   0  0  2  0  0  0  0  0  0  0  0  0
   20.6929  -17.5077  -15.3596 N   0  0  0  0  0  0  0  0  0  0  0  0
   20.0190  -15.2152  -14.9629 C   0  0  0  0  0  0  0  0  0  0  0  0
   21.0984  -14.7390  -14.5799 O   0  0  0  0  0  0  0  0  0  0  0  0
   20.4748  -13.0984  -18.1224 C   0  0  0  0  0  0  0  0  0  0  0  0
   19.3288  -12.5714  -17.2803 C   0  0  1  0  0  0  0  0  0  0  0  0
   18.1441  -12.9859  -17.8413 O   0  0  0  0  0  0  0  0  0  0  0  0
   19.4647  -12.9864  -15.8304 C   0  0  2  0  0  0  0  0  0  0  0  0
   19.0954  -14.3619  -15.6196 N   0  0  0  0  0  0  0  0  0  0  0  0
   18.5364  -12.1256  -15.0582 C   0  0  0  0  0  0  0  0  0  0  0  0
   18.8328  -10.9188  -14.8957 O   0  0  0  0  0  0  0  0  0  0  0  0
   17.3595  -12.6505  -14.5254 O   0  0  0  0  0  0  0  0  0  0  0  0
  2  1  1  0
  3 10  1  0
  3  2  1  0
  4  3  2  0
  5  6  1  0
  7  6  1  0
  7  8  1  6
  9  7  1  0
  9 10  1  1
 11  9  1  0
 11 17  1  0
 12 11  2  0
 14 13  1  6
 14 15  1  0
 16 17  1  6
 16 14  1  0
 18 16  1  0
 19 18  2  0
 20 18  1  0
M  END
$$$$
