GIT.pdb
     RDKit          3D

 20 19  0  0  1  0  0  0  0  0999 V2000
   12.4050  -11.0340  -13.8406 N   0  0  0  0  0  0  0  0  0  0  0  0
   13.0449   -9.7396  -13.8904 C   0  0  0  0  0  0  0  0  0  0  0  0
   13.7572   -9.4634  -12.6004 C   0  0  0  0  0  0  0  0  0  0  0  0
   13.1632   -9.7042  -11.5170 O   0  0  0  0  0  0  0  0  0  0  0  0
   18.5005  -10.2288  -13.3331 C   0  0  0  0  0  0  0  0  0  0  0  0
   17.6234  -10.2891  -12.1173 C   0  0  0  0  0  0  0  0  0  0  0  0
   17.2947   -8.9252  -11.5517 C   0  0  2  0  0  0  0  0  0  0  0  0
   17.9429   -8.8356  -10.1736 C   0  0  0  0  0  0  0  0  0  0  0  0
   15.8282   -8.7032  -11.3833 C   0  0  2  0  0  0  0  0  0  0  0  0
   15.0758   -8.9406  -12.5878 N   0  0  0  0  0  0  0  0  0  0  0  0
   15.6524   -7.2744  -10.9270 C   0  0  0  0  0  0  0  0  0  0  0  0
   15.9234   -6.3337  -11.6888 O   0  0  0  0  0  0  0  0  0  0  0  0
   12.4880   -5.5238   -9.3478 C   0  0  0  0  0  0  0  0  0  0  0  0
   13.7183   -5.3743   -8.4736 C   0  0  1  0  0  0  0  0  0  0  0  0
   13.6024   -6.2271   -7.4016 O   0  0  0  0  0  0  0  0  0  0  0  0
   14.9927   -5.5962   -9.2608 C   0  0  2  0  0  0  0  0  0  0  0  0
   15.1761   -6.9772   -9.6241 N   0  0  0  0  0  0  0  0  0  0  0  0
   16.1101   -5.1897   -8.3749 C   0  0  0  0  0  0  0  0  0  0  0  0
   16.8396   -6.0818   -7.8820 O   0  0  0  0  0  0  0  0  0  0  0  0
   16.3420   -3.8428   -8.0976 O   0  0  0  0  0  0  0  0  0  0  0  0
  2  1  1  0
  3 10  1  0
  3  2  1  0
  4  3  2  0
  5  6  1  0
  7  6  1  0
  7  8  1  1
  9  7  1  0
  9 10  1  6
 11  9  1  0
 11 17  1  0
 12 11  2  0
 14 13  1  6
 14 15  1  0
 16 17  1  1
 16 14  1  0
 18 16  1  0
 19 18  2  0
 20 18  1  0
M  END
$$$$
