GIT.pdb
     RDKit          3D

 20 19  0  0  1  0  0  0  0  0999 V2000
   21.6588  -12.3490  -19.5187 N   0  0  0  0  0  0  0  0  0  0  0  0
   21.5459  -10.9305  -19.7689 C   0  0  0  0  0  0  0  0  0  0  0  0
   21.4003  -10.1859  -18.4758 C   0  0  0  0  0  0  0  0  0  0  0  0
   20.2895  -10.2110  -17.8843 O   0  0  0  0  0  0  0  0  0  0  0  0
   25.2122  -10.6766  -15.0305 C   0  0  0  0  0  0  0  0  0  0  0  0
   23.7955  -10.3681  -15.4164 C   0  0  0  0  0  0  0  0  0  0  0  0
   23.5841   -8.9198  -15.7985 C   0  0  2  0  0  0  0  0  0  0  0  0
   23.3367   -8.1405  -14.5105 C   0  0  0  0  0  0  0  0  0  0  0  0
   22.4029   -8.7196  -16.6890 C   0  0  2  0  0  0  0  0  0  0  0  0
   22.4865   -9.4630  -17.9192 N   0  0  0  0  0  0  0  0  0  0  0  0
   22.3172   -7.2391  -16.9744 C   0  0  0  0  0  0  0  0  0  0  0  0
   23.2870   -6.6354  -17.4578 O   0  0  0  0  0  0  0  0  0  0  0  0
   19.3347   -5.3115  -18.8603 C   0  0  0  0  0  0  0  0  0  0  0  0
   19.6986   -4.6976  -17.5221 C   0  0  1  0  0  0  0  0  0  0  0  0
   18.7223   -5.0211  -16.6099 O   0  0  0  0  0  0  0  0  0  0  0  0
   21.0812   -5.1200  -17.0718 C   0  0  2  0  0  0  0  0  0  0  0  0
   21.1325   -6.5093  -16.6977 N   0  0  0  0  0  0  0  0  0  0  0  0
   21.4041   -4.2990  -15.8800 C   0  0  0  0  0  0  0  0  0  0  0  0
   21.4422   -4.8582  -14.7590 O   0  0  0  0  0  0  0  0  0  0  0  0
   21.6595   -2.9339  -16.0067 O   0  0  0  0  0  0  0  0  0  0  0  0
  2  1  1  0
  3 10  1  0
  3  2  1  0
  4  3  2  0
  5  6  1  0
  7  6  1  0
  7  8  1  1
  9  7  1  0
  9 10  1  6
 11  9  1  0
 11 17  1  0
 12 11  2  0
 14 13  1  6
 14 15  1  0
 16 17  1  1
 16 14  1  0
 18 16  1  0
 19 18  2  0
 20 18  1  0
M  END
$$$$
