MHC.pdb
     RDKit          3D

 25 25  0  0  1  0  0  0  0  0999 V2000
    5.9518  -12.1819   26.7960 C   0  0  0  0  0  0  0  0  0  0  0  0
    7.2342  -13.3832   27.1837 S   0  0  0  0  0  0  0  0  0  0  0  0
    7.5892  -14.4216   25.7524 C   0  0  0  0  0  0  0  0  0  0  0  0
    6.5034  -15.4585   25.5358 C   0  0  0  0  0  0  0  0  0  0  0  0
    6.7555  -16.1987   24.2236 C   0  0  2  0  0  0  0  0  0  0  0  0
    5.7127  -17.1899   24.0367 N   0  0  0  0  0  0  0  0  0  0  0  0
    8.1040  -16.8310   24.2630 C   0  0  0  0  0  0  0  0  0  0  0  0
    8.2024  -17.9378   24.8835 O   0  0  0  0  0  0  0  0  0  0  0  0
    9.2078  -16.2160   23.6358 N   0  0  0  0  0  0  0  0  0  0  0  0
   10.4884  -16.9007   23.6563 C   0  0  1  0  0  0  0  0  0  0  0  0
   11.4285  -16.3383   22.6420 C   0  0  0  0  0  0  0  0  0  0  0  0
   11.0610  -16.6526   21.2501 C   0  0  0  0  0  0  0  0  0  0  0  0
   10.0178  -17.4539   20.7929 C   0  0  0  0  0  0  0  0  0  0  0  0
   10.0562  -17.4896   19.4667 N   0  0  0  0  0  0  0  0  0  0  0  0
   11.0772  -16.7486   19.0243 C   0  0  0  0  0  0  0  0  0  0  0  0
   11.6866  -16.2408   20.1077 N   0  0  0  0  0  0  0  0  0  0  0  0
   11.0994  -16.8704   25.0007 C   0  0  0  0  0  0  0  0  0  0  0  0
   11.3069  -15.7732   25.5601 O   0  0  0  0  0  0  0  0  0  0  0  0
   11.4659  -18.0490   25.6957 N   0  0  0  0  0  0  0  0  0  0  0  0
   11.9719  -17.9482   27.0347 C   0  0  1  0  0  0  0  0  0  0  0  0
   11.0056  -17.2726   27.9804 C   0  0  0  0  0  0  0  0  0  0  0  0
    9.5459  -18.3416   28.1255 S   0  0  0  0  0  0  0  0  0  0  0  0
   12.3934  -19.2774   27.5373 C   0  0  0  0  0  0  0  0  0  0  0  0
   12.1685  -20.4286   26.8224 O   0  0  0  0  0  0  0  0  0  0  0  0
   12.9731  -19.3644   28.6464 O   0  0  0  0  0  0  0  0  0  0  0  0
  2  1  1  0
  2  3  1  0
  3  4  1  0
  4  5  1  0
  5  7  1  0
  5  6  1  1
  7  9  1  0
  8  7  2  0
  9 10  1  0
 10 11  1  6
 11 12  1  0
 12 13  2  0
 12 16  1  0
 13 14  1  0
 14 15  1  0
 16 15  2  0
 17 19  1  0
 17 10  1  0
 18 17  2  0
 20 19  1  0
 20 23  1  0
 20 21  1  1
 22 21  1  0
 23 24  1  0
 25 23  2  0
M  END
$$$$
