MHC.pdb
     RDKit          3D

 25 25  0  0  1  0  0  0  0  0999 V2000
    7.1840  -13.2326   16.6261 C   0  0  0  0  0  0  0  0  0  0  0  0
    7.8070  -12.8979   18.2808 S   0  0  0  0  0  0  0  0  0  0  0  0
    6.7019  -13.5852   19.5295 C   0  0  0  0  0  0  0  0  0  0  0  0
    7.2956  -14.8224   20.1758 C   0  0  0  0  0  0  0  0  0  0  0  0
    8.6279  -14.4683   20.8336 C   0  0  2  0  0  0  0  0  0  0  0  0
    9.5491  -14.0110   19.8103 N   0  0  0  0  0  0  0  0  0  0  0  0
    9.1603  -15.6625   21.5479 C   0  0  0  0  0  0  0  0  0  0  0  0
    8.3759  -16.2398   22.3672 O   0  0  0  0  0  0  0  0  0  0  0  0
   10.4752  -16.1166   21.3137 N   0  0  0  0  0  0  0  0  0  0  0  0
   10.9560  -17.2664   22.0593 C   0  0  1  0  0  0  0  0  0  0  0  0
   12.2699  -17.7481   21.5394 C   0  0  0  0  0  0  0  0  0  0  0  0
   12.7955  -18.9277   22.2493 C   0  0  0  0  0  0  0  0  0  0  0  0
   12.2766  -19.5579   23.3775 C   0  0  0  0  0  0  0  0  0  0  0  0
   13.0711  -20.5692   23.7053 N   0  0  0  0  0  0  0  0  0  0  0  0
   14.0928  -20.6378   22.8458 C   0  0  0  0  0  0  0  0  0  0  0  0
   13.9246  -19.6408   21.9622 N   0  0  0  0  0  0  0  0  0  0  0  0
   11.0461  -16.9777   23.5050 C   0  0  0  0  0  0  0  0  0  0  0  0
   11.4974  -15.8781   23.8882 O   0  0  0  0  0  0  0  0  0  0  0  0
   10.6364  -17.9069   24.4926 N   0  0  0  0  0  0  0  0  0  0  0  0
   10.6234  -17.5091   25.8712 C   0  0  1  0  0  0  0  0  0  0  0  0
    9.7142  -16.3312   26.1360 C   0  0  0  0  0  0  0  0  0  0  0  0
    8.0129  -16.8683   25.8019 S   0  0  0  0  0  0  0  0  0  0  0  0
   10.2988  -18.6608   26.7461 C   0  0  0  0  0  0  0  0  0  0  0  0
    9.9287  -19.8803   26.2334 O   0  0  0  0  0  0  0  0  0  0  0  0
   10.3610  -18.5285   27.9920 O   0  0  0  0  0  0  0  0  0  0  0  0
  2  1  1  0
  2  3  1  0
  3  4  1  0
  4  5  1  0
  5  7  1  0
  5  6  1  6
  7  9  1  0
  8  7  2  0
  9 10  1  0
 10 11  1  6
 11 12  1  0
 12 13  2  0
 12 16  1  0
 13 14  1  0
 14 15  1  0
 16 15  2  0
 17 19  1  0
 17 10  1  0
 18 17  2  0
 20 19  1  0
 20 23  1  0
 20 21  1  6
 22 21  1  0
 23 24  1  0
 25 23  2  0
M  END
$$$$
