MHC.pdb
     RDKit          3D

 25 25  0  0  1  0  0  0  0  0999 V2000
    6.9416  -11.3454   25.0269 C   0  0  0  0  0  0  0  0  0  0  0  0
    6.9377  -11.1226   23.2412 S   0  0  0  0  0  0  0  0  0  0  0  0
    7.0231  -12.7154   22.3994 C   0  0  0  0  0  0  0  0  0  0  0  0
    7.8055  -13.7307   23.2106 C   0  0  0  0  0  0  0  0  0  0  0  0
    8.0415  -14.9852   22.3717 C   0  0  2  0  0  0  0  0  0  0  0  0
    6.7574  -15.5494   22.0006 N   0  0  0  0  0  0  0  0  0  0  0  0
    8.8556  -15.9577   23.1535 C   0  0  0  0  0  0  0  0  0  0  0  0
    8.2240  -16.7423   23.9315 O   0  0  0  0  0  0  0  0  0  0  0  0
   10.2599  -15.9917   23.0239 N   0  0  0  0  0  0  0  0  0  0  0  0
   11.0213  -16.8290   23.9341 C   0  0  1  0  0  0  0  0  0  0  0  0
   12.2595  -17.3574   23.2889 C   0  0  0  0  0  0  0  0  0  0  0  0
   12.0073  -18.4047   22.2835 C   0  0  0  0  0  0  0  0  0  0  0  0
   10.8048  -19.0387   21.9810 C   0  0  0  0  0  0  0  0  0  0  0  0
   11.0231  -19.9363   21.0280 N   0  0  0  0  0  0  0  0  0  0  0  0
   12.3154  -19.9262   20.6854 C   0  0  0  0  0  0  0  0  0  0  0  0
   12.9121  -18.9960   21.4482 N   0  0  0  0  0  0  0  0  0  0  0  0
   11.3536  -16.1126   25.1823 C   0  0  0  0  0  0  0  0  0  0  0  0
   11.8746  -14.9791   25.1236 O   0  0  0  0  0  0  0  0  0  0  0  0
   11.1035  -16.6621   26.4637 N   0  0  0  0  0  0  0  0  0  0  0  0
   11.3907  -15.8813   27.6328 C   0  0  1  0  0  0  0  0  0  0  0  0
   10.6898  -14.5422   27.6339 C   0  0  0  0  0  0  0  0  0  0  0  0
    8.9106  -14.8569   27.4614 S   0  0  0  0  0  0  0  0  0  0  0  0
   11.1002  -16.6542   28.8638 C   0  0  0  0  0  0  0  0  0  0  0  0
   10.5696  -17.9205   28.8177 O   0  0  0  0  0  0  0  0  0  0  0  0
   11.3423  -16.1464   29.9850 O   0  0  0  0  0  0  0  0  0  0  0  0
  2  1  1  0
  2  3  1  0
  3  4  1  0
  4  5  1  0
  5  7  1  0
  5  6  1  1
  7  9  1  0
  8  7  2  0
  9 10  1  0
 10 11  1  6
 11 12  1  0
 12 13  2  0
 12 16  1  0
 13 14  1  0
 14 15  1  0
 16 15  2  0
 17 19  1  0
 17 10  1  0
 18 17  2  0
 20 19  1  0
 20 23  1  0
 20 21  1  6
 22 21  1  0
 23 24  1  0
 25 23  2  0
M  END
$$$$
