MHC.pdb
     RDKit          3D

 25 25  0  0  1  0  0  0  0  0999 V2000
    6.1082  -12.2745   27.8365 C   0  0  0  0  0  0  0  0  0  0  0  0
    7.6188  -12.3470   26.8613 S   0  0  0  0  0  0  0  0  0  0  0  0
    7.3827  -13.3697   25.3946 C   0  0  0  0  0  0  0  0  0  0  0  0
    6.5340  -14.5895   25.6991 C   0  0  0  0  0  0  0  0  0  0  0  0
    6.3207  -15.3981   24.4209 C   0  0  2  0  0  0  0  0  0  0  0  0
    5.5018  -16.5553   24.7293 N   0  0  0  0  0  0  0  0  0  0  0  0
    7.6423  -15.8018   23.8640 C   0  0  0  0  0  0  0  0  0  0  0  0
    8.0869  -16.9436   24.2079 O   0  0  0  0  0  0  0  0  0  0  0  0
    8.3526  -14.9443   22.9978 N   0  0  0  0  0  0  0  0  0  0  0  0
    9.4998  -15.4748   22.2825 C   0  0  1  0  0  0  0  0  0  0  0  0
    9.9348  -14.5599   21.1860 C   0  0  0  0  0  0  0  0  0  0  0  0
    8.9021  -14.3241   20.1616 C   0  0  0  0  0  0  0  0  0  0  0  0
    8.3220  -13.1159   19.7833 C   0  0  0  0  0  0  0  0  0  0  0  0
    7.4182  -13.3527   18.8407 N   0  0  0  0  0  0  0  0  0  0  0  0
    7.3727  -14.6626   18.5773 C   0  0  0  0  0  0  0  0  0  0  0  0
    8.2740  -15.2515   19.3797 N   0  0  0  0  0  0  0  0  0  0  0  0
   10.6254  -15.7597   23.1955 C   0  0  0  0  0  0  0  0  0  0  0  0
   11.3542  -14.8245   23.5877 O   0  0  0  0  0  0  0  0  0  0  0  0
   10.9197  -17.0671   23.6543 N   0  0  0  0  0  0  0  0  0  0  0  0
   11.9591  -17.2550   24.6256 C   0  0  1  0  0  0  0  0  0  0  0  0
   11.4987  -18.0294   25.8390 C   0  0  0  0  0  0  0  0  0  0  0  0
   10.0006  -17.2199   26.4675 S   0  0  0  0  0  0  0  0  0  0  0  0
   13.1542  -17.8713   24.0018 C   0  0  0  0  0  0  0  0  0  0  0  0
   14.3133  -18.0843   24.7077 O   0  0  0  0  0  0  0  0  0  0  0  0
   13.1164  -18.2119   22.7951 O   0  0  0  0  0  0  0  0  0  0  0  0
  2  1  1  0
  2  3  1  0
  3  4  1  0
  4  5  1  0
  5  7  1  0
  5  6  1  1
  7  9  1  0
  8  7  2  0
  9 10  1  0
 10 11  1  6
 11 12  1  0
 12 13  2  0
 12 16  1  0
 13 14  1  0
 14 15  1  0
 16 15  2  0
 17 19  1  0
 17 10  1  0
 18 17  2  0
 20 19  1  0
 20 23  1  0
 20 21  1  1
 22 21  1  0
 23 24  1  0
 25 23  2  0
M  END
$$$$
