MHC.pdb
     RDKit          3D

 25 25  0  0  1  0  0  0  0  0999 V2000
    7.1348  -11.1838   25.1765 C   0  0  0  0  0  0  0  0  0  0  0  0
    5.7403  -12.1304   25.8068 S   0  0  0  0  0  0  0  0  0  0  0  0
    5.7355  -13.7962   25.1154 C   0  0  0  0  0  0  0  0  0  0  0  0
    7.0641  -14.4935   25.3380 C   0  0  0  0  0  0  0  0  0  0  0  0
    7.0858  -15.8133   24.5693 C   0  0  2  0  0  0  0  0  0  0  0  0
    6.0642  -16.6888   25.1123 N   0  0  0  0  0  0  0  0  0  0  0  0
    8.4392  -16.4269   24.6772 C   0  0  0  0  0  0  0  0  0  0  0  0
    8.6105  -17.2831   25.6031 O   0  0  0  0  0  0  0  0  0  0  0  0
    9.4696  -16.0627   23.7853 N   0  0  0  0  0  0  0  0  0  0  0  0
   10.7444  -16.7522   23.8782 C   0  0  1  0  0  0  0  0  0  0  0  0
   11.5741  -16.5405   22.6553 C   0  0  0  0  0  0  0  0  0  0  0  0
   11.0377  -17.1971   21.4501 C   0  0  0  0  0  0  0  0  0  0  0  0
   10.1423  -18.2609   21.3732 C   0  0  0  0  0  0  0  0  0  0  0  0
    9.9412  -18.5584   20.0956 N   0  0  0  0  0  0  0  0  0  0  0  0
   10.6626  -17.7405   19.3223 C   0  0  0  0  0  0  0  0  0  0  0  0
   11.3280  -16.9143   20.1456 N   0  0  0  0  0  0  0  0  0  0  0  0
   11.4926  -16.3509   25.0868 C   0  0  0  0  0  0  0  0  0  0  0  0
   11.8861  -15.1716   25.2063 O   0  0  0  0  0  0  0  0  0  0  0  0
   11.7883  -17.2580   26.1339 N   0  0  0  0  0  0  0  0  0  0  0  0
   11.8765  -16.7730   27.4815 C   0  0  1  0  0  0  0  0  0  0  0  0
   10.6649  -15.9723   27.9001 C   0  0  0  0  0  0  0  0  0  0  0  0
   11.1435  -14.9661   29.3329 S   0  0  0  0  0  0  0  0  0  0  0  0
   12.1515  -17.8852   28.4220 C   0  0  0  0  0  0  0  0  0  0  0  0
   12.9409  -17.7176   29.5336 O   0  0  0  0  0  0  0  0  0  0  0  0
   11.6535  -19.0161   28.2056 O   0  0  0  0  0  0  0  0  0  0  0  0
  2  1  1  0
  2  3  1  0
  3  4  1  0
  4  5  1  0
  5  7  1  0
  5  6  1  1
  7  9  1  0
  8  7  2  0
  9 10  1  0
 10 11  1  6
 11 12  1  0
 12 13  2  0
 12 16  1  0
 13 14  1  0
 14 15  1  0
 16 15  2  0
 17 19  1  0
 17 10  1  0
 18 17  2  0
 20 19  1  0
 20 23  1  0
 20 21  1  1
 22 21  1  0
 23 24  1  0
 25 23  2  0
M  END
$$$$
