MPR.pdb
     RDKit          3D

 27 27  0  0  1  0  0  0  0  0999 V2000
    9.9127  -12.1312   19.5753 C   0  0  0  0  0  0  0  0  0  0  0  0
    8.1289  -11.8142   19.6213 S   0  0  0  0  0  0  0  0  0  0  0  0
    7.3437  -12.6850   21.0218 C   0  0  0  0  0  0  0  0  0  0  0  0
    7.6454  -14.1439   20.9668 C   0  0  0  0  0  0  0  0  0  0  0  0
    6.9426  -14.9745   22.0118 C   0  0  2  0  0  0  0  0  0  0  0  0
    5.5614  -14.6620   22.1614 N   0  0  0  0  0  0  0  0  0  0  0  0
    7.6682  -14.9425   23.2806 C   0  0  0  0  0  0  0  0  0  0  0  0
    8.4060  -15.9706   23.5028 O   0  0  0  0  0  0  0  0  0  0  0  0
    7.6508  -13.9513   24.2492 N   0  0  0  0  0  0  0  0  0  0  0  0
    7.2950  -12.5222   24.0873 C   0  0  0  0  0  0  0  0  0  0  0  0
    6.1746  -12.4319   25.1542 C   0  0  0  0  0  0  0  0  0  0  0  0
    6.6452  -13.4285   26.2135 C   0  0  0  0  0  0  0  0  0  0  0  0
    7.9513  -13.9578   25.6759 C   0  0  1  0  0  0  0  0  0  0  0  0
    8.4634  -15.1402   26.2890 C   0  0  0  0  0  0  0  0  0  0  0  0
    7.6151  -16.0561   26.6072 O   0  0  0  0  0  0  0  0  0  0  0  0
   13.6762  -19.0320   22.9313 N   0  0  0  0  0  0  0  0  0  0  0  0
   12.8258  -20.1809   22.9422 C   0  0  0  0  0  0  0  0  0  0  0  0
   13.0896  -21.1939   22.1638 N   0  0  0  0  0  0  0  0  0  0  0  0
   11.6908  -20.2534   23.7779 N   0  0  0  0  0  0  0  0  0  0  0  0
   11.0173  -18.9772   24.1521 C   0  0  0  0  0  0  0  0  0  0  0  0
   11.7838  -18.2779   25.1932 C   0  0  0  0  0  0  0  0  0  0  0  0
   11.4207  -16.9840   25.7444 C   0  0  0  0  0  0  0  0  0  0  0  0
   10.2795  -16.8866   26.6875 C   0  0  2  0  0  0  0  0  0  0  0  0
    9.7913  -15.4449   26.6056 N   0  0  0  0  0  0  0  0  0  0  0  0
   10.7432  -16.9353   28.0886 C   0  0  0  0  0  0  0  0  0  0  0  0
   10.8409  -18.1757   28.7439 O   0  0  0  0  0  0  0  0  0  0  0  0
   11.0579  -15.9536   28.7463 O   0  0  0  0  0  0  0  0  0  0  0  0
  2  1  1  0
  3  2  1  0
  4  3  1  0
  4  5  1  0
  5  6  1  1
  7  8  2  0
  7  5  1  0
  9  7  1  0
 10  9  1  0
 11 10  1  0
 12 11  1  0
 12 13  1  0
 13 14  1  1
 13  9  1  0
 14 15  2  0
 17 18  2  0
 17 16  1  0
 19 17  1  0
 20 19  1  0
 21 20  1  0
 22 21  1  0
 23 22  1  6
 24 23  1  0
 24 14  1  0
 25 26  1  0
 25 23  1  0
 27 25  2  0
M  END
$$$$
