MPR.pdb
     RDKit          3D

 27 27  0  0  1  0  0  0  0  0999 V2000
    8.1075  -11.3425   24.9818 C   0  0  0  0  0  0  0  0  0  0  0  0
    8.7617  -12.1937   23.5216 S   0  0  0  0  0  0  0  0  0  0  0  0
    7.4434  -13.1107   22.6512 C   0  0  0  0  0  0  0  0  0  0  0  0
    7.9985  -13.8300   21.4693 C   0  0  0  0  0  0  0  0  0  0  0  0
    7.3829  -15.1817   21.2056 C   0  0  2  0  0  0  0  0  0  0  0  0
    5.9844  -15.2377   21.4683 N   0  0  0  0  0  0  0  0  0  0  0  0
    8.1274  -16.2381   21.8890 C   0  0  0  0  0  0  0  0  0  0  0  0
    7.8118  -16.4046   23.1233 O   0  0  0  0  0  0  0  0  0  0  0  0
    9.1130  -17.0617   21.3683 N   0  0  0  0  0  0  0  0  0  0  0  0
    9.1717  -17.6771   20.0218 C   0  0  0  0  0  0  0  0  0  0  0  0
   10.5487  -17.1296   19.5681 C   0  0  0  0  0  0  0  0  0  0  0  0
   11.3279  -17.0641   20.8815 C   0  0  0  0  0  0  0  0  0  0  0  0
   10.3603  -17.5798   21.9173 C   0  0  1  0  0  0  0  0  0  0  0  0
   10.6928  -17.3326   23.2829 C   0  0  0  0  0  0  0  0  0  0  0  0
   11.4702  -16.3357   23.5308 O   0  0  0  0  0  0  0  0  0  0  0  0
    5.3664  -13.3853   25.9169 N   0  0  0  0  0  0  0  0  0  0  0  0
    6.6386  -13.3905   26.5688 C   0  0  0  0  0  0  0  0  0  0  0  0
    7.2233  -12.2627   26.8649 N   0  0  0  0  0  0  0  0  0  0  0  0
    7.2934  -14.5951   26.9033 N   0  0  0  0  0  0  0  0  0  0  0  0
    8.7619  -14.6814   26.6615 C   0  0  0  0  0  0  0  0  0  0  0  0
    9.0919  -15.9194   25.9411 C   0  0  0  0  0  0  0  0  0  0  0  0
    9.7649  -17.0584   26.5407 C   0  0  0  0  0  0  0  0  0  0  0  0
   10.8531  -17.7384   25.7961 C   0  0  2  0  0  0  0  0  0  0  0  0
   10.2860  -18.0460   24.4151 N   0  0  0  0  0  0  0  0  0  0  0  0
   11.0727  -19.1059   26.3084 C   0  0  0  0  0  0  0  0  0  0  0  0
   11.8211  -19.2940   27.4840 O   0  0  0  0  0  0  0  0  0  0  0  0
   10.6441  -20.1198   25.7758 O   0  0  0  0  0  0  0  0  0  0  0  0
  2  1  1  0
  3  2  1  0
  4  3  1  0
  4  5  1  0
  5  6  1  1
  7  8  2  0
  7  5  1  0
  9  7  1  0
 10  9  1  0
 11 10  1  0
 12 11  1  0
 12 13  1  0
 13 14  1  1
 13  9  1  0
 14 15  2  0
 17 18  2  0
 17 16  1  0
 19 17  1  0
 20 19  1  0
 21 20  1  0
 22 21  1  0
 23 22  1  1
 24 23  1  0
 24 14  1  0
 25 26  1  0
 25 23  1  0
 27 25  2  0
M  END
$$$$
