MPR.pdb
     RDKit          3D

 27 27  0  0  1  0  0  0  0  0999 V2000
    5.4143  -14.2319   19.5791 C   0  0  0  0  0  0  0  0  0  0  0  0
    6.7990  -14.1182   18.4154 S   0  0  0  0  0  0  0  0  0  0  0  0
    8.3852  -13.9238   19.3000 C   0  0  0  0  0  0  0  0  0  0  0  0
    8.1501  -13.4988   20.7095 C   0  0  0  0  0  0  0  0  0  0  0  0
    9.3911  -13.4301   21.5643 C   0  0  2  0  0  0  0  0  0  0  0  0
   10.5896  -13.7493   20.8647 N   0  0  0  0  0  0  0  0  0  0  0  0
    9.2274  -14.2130   22.7882 C   0  0  0  0  0  0  0  0  0  0  0  0
    9.8896  -15.3137   22.8136 O   0  0  0  0  0  0  0  0  0  0  0  0
    8.4561  -13.9094   23.8989 N   0  0  0  0  0  0  0  0  0  0  0  0
    7.8544  -12.6058   24.2645 C   0  0  0  0  0  0  0  0  0  0  0  0
    6.3750  -13.0509   24.3874 C   0  0  0  0  0  0  0  0  0  0  0  0
    6.5026  -14.4869   24.8954 C   0  0  0  0  0  0  0  0  0  0  0  0
    7.9890  -14.7075   25.0261 C   0  0  1  0  0  0  0  0  0  0  0  0
    8.4252  -16.0585   25.1698 C   0  0  0  0  0  0  0  0  0  0  0  0
    7.5746  -16.9866   24.8964 O   0  0  0  0  0  0  0  0  0  0  0  0
   16.1276  -17.1043   23.1750 N   0  0  0  0  0  0  0  0  0  0  0  0
   14.9347  -16.8157   23.9076 C   0  0  0  0  0  0  0  0  0  0  0  0
   14.6738  -15.5903   24.2709 N   0  0  0  0  0  0  0  0  0  0  0  0
   14.0187  -17.8302   24.2591 N   0  0  0  0  0  0  0  0  0  0  0  0
   12.9752  -18.2040   23.2623 C   0  0  0  0  0  0  0  0  0  0  0  0
   11.6339  -18.0730   23.8491 C   0  0  0  0  0  0  0  0  0  0  0  0
   11.3435  -18.2234   25.2643 C   0  0  0  0  0  0  0  0  0  0  0  0
    9.9581  -18.0126   25.7516 C   0  0  2  0  0  0  0  0  0  0  0  0
    9.6777  -16.5238   25.5835 N   0  0  0  0  0  0  0  0  0  0  0  0
    9.8880  -18.1361   27.2215 C   0  0  0  0  0  0  0  0  0  0  0  0
    9.8135  -16.9755   28.0121 O   0  0  0  0  0  0  0  0  0  0  0  0
    9.8909  -19.1991   27.8260 O   0  0  0  0  0  0  0  0  0  0  0  0
  2  1  1  0
  3  2  1  0
  4  3  1  0
  4  5  1  0
  5  6  1  6
  7  8  2  0
  7  5  1  0
  9  7  1  0
 10  9  1  0
 11 10  1  0
 12 11  1  0
 12 13  1  0
 13 14  1  6
 13  9  1  0
 14 15  2  0
 17 18  2  0
 17 16  1  0
 19 17  1  0
 20 19  1  0
 21 20  1  0
 22 21  1  0
 23 22  1  1
 24 23  1  0
 24 14  1  0
 25 26  1  0
 25 23  1  0
 27 25  2  0
M  END
$$$$
