MPR.pdb
     RDKit          3D

 27 27  0  0  1  0  0  0  0  0999 V2000
    7.6306  -11.0501   22.7987 C   0  0  0  0  0  0  0  0  0  0  0  0
    7.8719  -11.9261   21.2306 S   0  0  0  0  0  0  0  0  0  0  0  0
    7.3005  -13.6568   21.3512 C   0  0  0  0  0  0  0  0  0  0  0  0
    7.5846  -14.3915   20.0855 C   0  0  0  0  0  0  0  0  0  0  0  0
    7.1901  -15.8474   20.0977 C   0  0  2  0  0  0  0  0  0  0  0  0
    5.8162  -16.0684   20.4001 N   0  0  0  0  0  0  0  0  0  0  0  0
    8.0871  -16.6255   20.9506 C   0  0  0  0  0  0  0  0  0  0  0  0
    7.9702  -16.3899   22.2081 O   0  0  0  0  0  0  0  0  0  0  0  0
    9.0282  -17.5670   20.5650 N   0  0  0  0  0  0  0  0  0  0  0  0
    8.9361  -18.5519   19.4620 C   0  0  0  0  0  0  0  0  0  0  0  0
   10.2206  -18.1639   18.6866 C   0  0  0  0  0  0  0  0  0  0  0  0
   11.1600  -17.7151   19.8058 C   0  0  0  0  0  0  0  0  0  0  0  0
   10.3553  -17.9017   21.0678 C   0  0  1  0  0  0  0  0  0  0  0  0
   10.8517  -17.2635   22.2436 C   0  0  0  0  0  0  0  0  0  0  0  0
   11.2866  -16.0569   22.1224 O   0  0  0  0  0  0  0  0  0  0  0  0
    8.8016  -12.7452   28.1250 N   0  0  0  0  0  0  0  0  0  0  0  0
    8.0366  -13.5327   27.2096 C   0  0  0  0  0  0  0  0  0  0  0  0
    7.0261  -13.0005   26.5792 N   0  0  0  0  0  0  0  0  0  0  0  0
    8.3418  -14.8888   26.9658 N   0  0  0  0  0  0  0  0  0  0  0  0
    9.4838  -15.4917   27.7105 C   0  0  0  0  0  0  0  0  0  0  0  0
   10.5553  -15.8794   26.7819 C   0  0  0  0  0  0  0  0  0  0  0  0
   10.3381  -16.5996   25.5394 C   0  0  0  0  0  0  0  0  0  0  0  0
   11.5011  -16.9597   24.6915 C   0  0  2  0  0  0  0  0  0  0  0  0
   10.9391  -17.7837   23.5389 N   0  0  0  0  0  0  0  0  0  0  0  0
   12.3502  -17.9688   25.3560 C   0  0  0  0  0  0  0  0  0  0  0  0
   13.3927  -17.5496   26.2015 O   0  0  0  0  0  0  0  0  0  0  0  0
   12.2168  -19.1774   25.2255 O   0  0  0  0  0  0  0  0  0  0  0  0
  2  1  1  0
  3  2  1  0
  4  3  1  0
  4  5  1  0
  5  6  1  1
  7  8  2  0
  7  5  1  0
  9  7  1  0
 10  9  1  0
 11 10  1  0
 12 11  1  0
 12 13  1  0
 13 14  1  1
 13  9  1  0
 14 15  2  0
 17 18  2  0
 17 16  1  0
 19 17  1  0
 20 19  1  0
 21 20  1  0
 22 21  1  0
 23 22  1  1
 24 23  1  0
 24 14  1  0
 25 26  1  0
 25 23  1  0
 27 25  2  0
M  END
$$$$
