MPR.pdb
     RDKit          3D

 27 27  0  0  1  0  0  0  0  0999 V2000
    8.2450  -11.9323   27.3034 C   0  0  0  0  0  0  0  0  0  0  0  0
    6.5256  -11.6434   26.8087 S   0  0  0  0  0  0  0  0  0  0  0  0
    5.7860  -13.1530   26.0943 C   0  0  0  0  0  0  0  0  0  0  0  0
    6.7805  -13.8743   25.2499 C   0  0  0  0  0  0  0  0  0  0  0  0
    6.2421  -15.0914   24.5397 C   0  0  2  0  0  0  0  0  0  0  0  0
    5.6967  -16.0735   25.4148 N   0  0  0  0  0  0  0  0  0  0  0  0
    7.2369  -15.6445   23.6220 C   0  0  0  0  0  0  0  0  0  0  0  0
    7.9486  -16.5954   24.1119 O   0  0  0  0  0  0  0  0  0  0  0  0
    7.4936  -15.2676   22.3132 N   0  0  0  0  0  0  0  0  0  0  0  0
    6.5727  -14.6156   21.3531 C   0  0  0  0  0  0  0  0  0  0  0  0
    7.4296  -13.3717   21.0064 C   0  0  0  0  0  0  0  0  0  0  0  0
    8.8554  -13.9134   21.1072 C   0  0  0  0  0  0  0  0  0  0  0  0
    8.6792  -15.3668   21.4704 C   0  0  1  0  0  0  0  0  0  0  0  0
    9.8361  -16.0517   21.9487 C   0  0  0  0  0  0  0  0  0  0  0  0
   10.4048  -15.5843   23.0060 O   0  0  0  0  0  0  0  0  0  0  0  0
   16.2495  -21.8117   23.2432 N   0  0  0  0  0  0  0  0  0  0  0  0
   15.2737  -22.5234   22.4787 C   0  0  0  0  0  0  0  0  0  0  0  0
   15.1300  -23.8097   22.6417 N   0  0  0  0  0  0  0  0  0  0  0  0
   14.4515  -21.8696   21.5363 N   0  0  0  0  0  0  0  0  0  0  0  0
   13.2161  -21.1999   22.0339 C   0  0  0  0  0  0  0  0  0  0  0  0
   13.1734  -19.8011   21.5842 C   0  0  0  0  0  0  0  0  0  0  0  0
   11.9491  -19.0623   21.3294 C   0  0  0  0  0  0  0  0  0  0  0  0
   11.7067  -17.7834   22.0413 C   0  0  2  0  0  0  0  0  0  0  0  0
   10.4558  -17.1838   21.4096 N   0  0  0  0  0  0  0  0  0  0  0  0
   12.7116  -16.7684   21.6662 C   0  0  0  0  0  0  0  0  0  0  0  0
   12.5559  -16.0483   20.4684 O   0  0  0  0  0  0  0  0  0  0  0  0
   13.6997  -16.4957   22.3329 O   0  0  0  0  0  0  0  0  0  0  0  0
  2  1  1  0
  3  2  1  0
  4  3  1  0
  4  5  1  0
  5  6  1  1
  7  8  2  0
  7  5  1  0
  9  7  1  0
 10  9  1  0
 11 10  1  0
 12 11  1  0
 12 13  1  0
 13 14  1  1
 13  9  1  0
 14 15  2  0
 17 18  2  0
 17 16  1  0
 19 17  1  0
 20 19  1  0
 21 20  1  0
 22 21  1  0
 23 22  1  6
 24 23  1  0
 24 14  1  0
 25 26  1  0
 25 23  1  0
 27 25  2  0
M  END
$$$$
