MPR.pdb
     RDKit          3D

 27 27  0  0  1  0  0  0  0  0999 V2000
   10.7579  -14.4892   30.2082 C   0  0  0  0  0  0  0  0  0  0  0  0
    9.6252  -13.7121   29.0259 S   0  0  0  0  0  0  0  0  0  0  0  0
    9.5552  -14.6586   27.4652 C   0  0  0  0  0  0  0  0  0  0  0  0
    9.2734  -16.0970   27.7373 C   0  0  0  0  0  0  0  0  0  0  0  0
    7.9584  -16.5973   27.1933 C   0  0  2  0  0  0  0  0  0  0  0  0
    7.5252  -17.8233   27.7737 N   0  0  0  0  0  0  0  0  0  0  0  0
    7.9795  -16.6419   25.7322 C   0  0  0  0  0  0  0  0  0  0  0  0
    8.5429  -17.6843   25.2354 O   0  0  0  0  0  0  0  0  0  0  0  0
    7.4724  -15.7084   24.8422 N   0  0  0  0  0  0  0  0  0  0  0  0
    6.2181  -14.9277   24.9536 C   0  0  0  0  0  0  0  0  0  0  0  0
    6.8116  -13.5016   24.8275 C   0  0  0  0  0  0  0  0  0  0  0  0
    7.9987  -13.7189   23.8893 C   0  0  0  0  0  0  0  0  0  0  0  0
    7.9574  -15.1920   23.5679 C   0  0  1  0  0  0  0  0  0  0  0  0
    9.1287  -15.7505   22.9741 C   0  0  0  0  0  0  0  0  0  0  0  0
   10.2674  -15.3636   23.4360 O   0  0  0  0  0  0  0  0  0  0  0  0
    7.7438  -14.6671   16.1520 N   0  0  0  0  0  0  0  0  0  0  0  0
    7.7914  -13.7884   17.2784 C   0  0  0  0  0  0  0  0  0  0  0  0
    6.9606  -12.7858   17.3580 N   0  0  0  0  0  0  0  0  0  0  0  0
    8.7253  -13.9715   18.3205 N   0  0  0  0  0  0  0  0  0  0  0  0
    9.2726  -15.3415   18.5343 C   0  0  0  0  0  0  0  0  0  0  0  0
   10.5951  -15.2726   19.1720 C   0  0  0  0  0  0  0  0  0  0  0  0
   10.8382  -15.5399   20.5789 C   0  0  0  0  0  0  0  0  0  0  0  0
   10.4993  -16.8716   21.1381 C   0  0  2  0  0  0  0  0  0  0  0  0
    9.2114  -16.6772   21.9298 N   0  0  0  0  0  0  0  0  0  0  0  0
   11.4295  -17.2440   22.2230 C   0  0  0  0  0  0  0  0  0  0  0  0
   12.0276  -18.5166   22.2171 O   0  0  0  0  0  0  0  0  0  0  0  0
   11.7302  -16.5128   23.1559 O   0  0  0  0  0  0  0  0  0  0  0  0
  2  1  1  0
  3  2  1  0
  4  3  1  0
  4  5  1  0
  5  6  1  1
  7  8  2  0
  7  5  1  0
  9  7  1  0
 10  9  1  0
 11 10  1  0
 12 11  1  0
 12 13  1  0
 13 14  1  1
 13  9  1  0
 14 15  2  0
 17 18  2  0
 17 16  1  0
 19 17  1  0
 20 19  1  0
 21 20  1  0
 22 21  1  0
 23 22  1  1
 24 23  1  0
 24 14  1  0
 25 26  1  0
 25 23  1  0
 27 25  2  0
M  END
$$$$
