MPR.pdb
     RDKit          3D

 27 27  0  0  1  0  0  0  0  0999 V2000
    6.7549  -12.8112   28.4095 C   0  0  0  0  0  0  0  0  0  0  0  0
    6.6762  -12.0358   26.7733 S   0  0  0  0  0  0  0  0  0  0  0  0
    7.0985  -13.2322   25.4592 C   0  0  0  0  0  0  0  0  0  0  0  0
    6.1845  -14.4088   25.5088 C   0  0  0  0  0  0  0  0  0  0  0  0
    5.9506  -15.0840   24.1803 C   0  0  2  0  0  0  0  0  0  0  0  0
    5.1179  -16.2364   24.2596 N   0  0  0  0  0  0  0  0  0  0  0  0
    7.2162  -15.3490   23.4981 C   0  0  0  0  0  0  0  0  0  0  0  0
    8.1559  -15.7822   24.2598 O   0  0  0  0  0  0  0  0  0  0  0  0
    7.5108  -15.1895   22.1532 N   0  0  0  0  0  0  0  0  0  0  0  0
    6.5651  -15.0387   21.0227 C   0  0  0  0  0  0  0  0  0  0  0  0
    7.0913  -13.6994   20.4473 C   0  0  0  0  0  0  0  0  0  0  0  0
    8.5888  -13.7773   20.7438 C   0  0  0  0  0  0  0  0  0  0  0  0
    8.7681  -15.1142   21.4188 C   0  0  1  0  0  0  0  0  0  0  0  0
   10.0035  -15.3262   22.1007 C   0  0  0  0  0  0  0  0  0  0  0  0
   10.2103  -14.6453   23.1746 O   0  0  0  0  0  0  0  0  0  0  0  0
   11.2063  -20.5484   28.0675 N   0  0  0  0  0  0  0  0  0  0  0  0
   12.5467  -20.0915   27.8730 C   0  0  0  0  0  0  0  0  0  0  0  0
   13.4907  -20.4766   28.6868 N   0  0  0  0  0  0  0  0  0  0  0  0
   12.8854  -19.2208   26.8152 N   0  0  0  0  0  0  0  0  0  0  0  0
   11.7799  -18.6885   25.9686 C   0  0  0  0  0  0  0  0  0  0  0  0
   12.3170  -17.8332   24.9005 C   0  0  0  0  0  0  0  0  0  0  0  0
   11.5037  -17.1858   23.8861 C   0  0  0  0  0  0  0  0  0  0  0  0
   12.1636  -16.5268   22.7323 C   0  0  2  0  0  0  0  0  0  0  0  0
   11.0483  -16.1876   21.7503 N   0  0  0  0  0  0  0  0  0  0  0  0
   12.9373  -17.5006   21.9362 C   0  0  0  0  0  0  0  0  0  0  0  0
   12.2683  -18.3432   21.0306 O   0  0  0  0  0  0  0  0  0  0  0  0
   14.1504  -17.6390   22.0035 O   0  0  0  0  0  0  0  0  0  0  0  0
  2  1  1  0
  3  2  1  0
  4  3  1  0
  4  5  1  0
  5  6  1  1
  7  8  2  0
  7  5  1  0
  9  7  1  0
 10  9  1  0
 11 10  1  0
 12 11  1  0
 12 13  1  0
 13 14  1  1
 13  9  1  0
 14 15  2  0
 17 18  2  0
 17 16  1  0
 19 17  1  0
 20 19  1  0
 21 20  1  0
 22 21  1  0
 23 22  1  1
 24 23  1  0
 24 14  1  0
 25 26  1  0
 25 23  1  0
 27 25  2  0
M  END
$$$$
