MPR.pdb
     RDKit          3D

 27 27  0  0  1  0  0  0  0  0999 V2000
    5.9837  -18.2617   23.2177 C   0  0  0  0  0  0  0  0  0  0  0  0
    5.3257  -17.5314   21.6951 S   0  0  0  0  0  0  0  0  0  0  0  0
    6.3131  -16.0829   21.1822 C   0  0  0  0  0  0  0  0  0  0  0  0
    5.9920  -14.9022   22.0338 C   0  0  0  0  0  0  0  0  0  0  0  0
    7.0375  -13.8148   22.0267 C   0  0  2  0  0  0  0  0  0  0  0  0
    7.7975  -13.7556   20.8240 N   0  0  0  0  0  0  0  0  0  0  0  0
    7.8775  -13.8888   23.2210 C   0  0  0  0  0  0  0  0  0  0  0  0
    8.8868  -14.6772   23.1191 O   0  0  0  0  0  0  0  0  0  0  0  0
    7.7122  -13.2201   24.4237 N   0  0  0  0  0  0  0  0  0  0  0  0
    7.3799  -11.7921   24.6366 C   0  0  0  0  0  0  0  0  0  0  0  0
    6.1125  -11.9688   25.5106 C   0  0  0  0  0  0  0  0  0  0  0  0
    6.4227  -13.2473   26.2890 C   0  0  0  0  0  0  0  0  0  0  0  0
    7.7962  -13.6510   25.8141 C   0  0  1  0  0  0  0  0  0  0  0  0
    8.2149  -14.9799   26.1223 C   0  0  0  0  0  0  0  0  0  0  0  0
    7.3642  -15.9277   25.9282 O   0  0  0  0  0  0  0  0  0  0  0  0
   11.2566  -21.9782   23.7143 N   0  0  0  0  0  0  0  0  0  0  0  0
   12.1644  -21.8811   24.8143 C   0  0  0  0  0  0  0  0  0  0  0  0
   12.9036  -22.9050   25.1411 N   0  0  0  0  0  0  0  0  0  0  0  0
   12.2849  -20.6963   25.5715 N   0  0  0  0  0  0  0  0  0  0  0  0
   11.4103  -19.5447   25.2095 C   0  0  0  0  0  0  0  0  0  0  0  0
   11.6902  -18.3935   26.0795 C   0  0  0  0  0  0  0  0  0  0  0  0
   11.0081  -17.1146   25.9864 C   0  0  0  0  0  0  0  0  0  0  0  0
    9.7792  -16.8829   26.7846 C   0  0  2  0  0  0  0  0  0  0  0  0
    9.4496  -15.4032   26.6249 N   0  0  0  0  0  0  0  0  0  0  0  0
   10.0675  -16.9406   28.2317 C   0  0  0  0  0  0  0  0  0  0  0  0
   10.5588  -15.7974   28.8869 O   0  0  0  0  0  0  0  0  0  0  0  0
    9.9099  -17.9334   28.9281 O   0  0  0  0  0  0  0  0  0  0  0  0
  2  1  1  0
  3  2  1  0
  4  3  1  0
  4  5  1  0
  5  6  1  6
  7  8  2  0
  7  5  1  0
  9  7  1  0
 10  9  1  0
 11 10  1  0
 12 11  1  0
 12 13  1  0
 13 14  1  6
 13  9  1  0
 14 15  2  0
 17 18  2  0
 17 16  1  0
 19 17  1  0
 20 19  1  0
 21 20  1  0
 22 21  1  0
 23 22  1  6
 24 23  1  0
 24 14  1  0
 25 26  1  0
 25 23  1  0
 27 25  2  0
M  END
$$$$
