MPR.pdb
     RDKit          3D

 27 27  0  0  1  0  0  0  0  0999 V2000
    8.2895  -11.5413   26.1838 C   0  0  0  0  0  0  0  0  0  0  0  0
    7.7283  -13.0488   27.0188 S   0  0  0  0  0  0  0  0  0  0  0  0
    7.6111  -14.4438   25.8456 C   0  0  0  0  0  0  0  0  0  0  0  0
    6.1955  -14.6640   25.4334 C   0  0  0  0  0  0  0  0  0  0  0  0
    6.0035  -15.7138   24.3673 C   0  0  2  0  0  0  0  0  0  0  0  0
    5.7509  -17.0171   24.8824 N   0  0  0  0  0  0  0  0  0  0  0  0
    7.1053  -15.6914   23.4066 C   0  0  0  0  0  0  0  0  0  0  0  0
    8.0595  -16.5120   23.6652 O   0  0  0  0  0  0  0  0  0  0  0  0
    7.2346  -14.9030   22.2741 N   0  0  0  0  0  0  0  0  0  0  0  0
    6.2096  -14.0424   21.6384 C   0  0  0  0  0  0  0  0  0  0  0  0
    6.9822  -12.6991   21.6530 C   0  0  0  0  0  0  0  0  0  0  0  0
    8.4324  -13.1494   21.4784 C   0  0  0  0  0  0  0  0  0  0  0  0
    8.3475  -14.6512   21.3665 C   0  0  1  0  0  0  0  0  0  0  0  0
    9.5680  -15.3744   21.5205 C   0  0  0  0  0  0  0  0  0  0  0  0
   10.0134  -15.5337   22.7188 O   0  0  0  0  0  0  0  0  0  0  0  0
    8.5780  -17.6636   15.3111 N   0  0  0  0  0  0  0  0  0  0  0  0
    9.0821  -16.4061   15.7671 C   0  0  0  0  0  0  0  0  0  0  0  0
    9.0961  -15.3795   14.9625 N   0  0  0  0  0  0  0  0  0  0  0  0
    9.5763  -16.2389   17.0784 N   0  0  0  0  0  0  0  0  0  0  0  0
   10.9894  -16.6306   17.3468 C   0  0  0  0  0  0  0  0  0  0  0  0
   11.0582  -17.5565   18.4863 C   0  0  0  0  0  0  0  0  0  0  0  0
   12.0008  -17.4314   19.5843 C   0  0  0  0  0  0  0  0  0  0  0  0
   11.5511  -16.8402   20.8686 C   0  0  2  0  0  0  0  0  0  0  0  0
   10.3692  -15.9414   20.5242 N   0  0  0  0  0  0  0  0  0  0  0  0
   12.5185  -15.8380   21.3590 C   0  0  0  0  0  0  0  0  0  0  0  0
   12.3389  -14.4824   21.0307 O   0  0  0  0  0  0  0  0  0  0  0  0
   13.4943  -16.0996   22.0480 O   0  0  0  0  0  0  0  0  0  0  0  0
  2  1  1  0
  3  2  1  0
  4  3  1  0
  4  5  1  0
  5  6  1  1
  7  8  2  0
  7  5  1  0
  9  7  1  0
 10  9  1  0
 11 10  1  0
 12 11  1  0
 12 13  1  0
 13 14  1  1
 13  9  1  0
 14 15  2  0
 17 18  2  0
 17 16  1  0
 19 17  1  0
 20 19  1  0
 21 20  1  0
 22 21  1  0
 23 22  1  6
 24 23  1  0
 24 14  1  0
 25 26  1  0
 25 23  1  0
 27 25  2  0
M  END
$$$$
