FCS.pdb
     RDKit          3D

 24 24  0  0  1  0  0  0  0  0999 V2000
    6.4349  -16.3072   24.8189 N   0  0  0  0  0  0  0  0  0  0  0  0
    7.4794  -15.7465   23.9826 C   0  0  1  0  0  0  0  0  0  0  0  0
    7.0856  -14.3811   23.4492 C   0  0  0  0  0  0  0  0  0  0  0  0
    6.9904  -13.3766   24.5264 C   0  0  0  0  0  0  0  0  0  0  0  0
    5.8831  -13.3485   25.3784 C   0  0  0  0  0  0  0  0  0  0  0  0
    5.8413  -12.3905   26.3693 C   0  0  0  0  0  0  0  0  0  0  0  0
    6.8236  -11.4571   26.5735 C   0  0  0  0  0  0  0  0  0  0  0  0
    7.9215  -11.4930   25.7207 C   0  0  0  0  0  0  0  0  0  0  0  0
    7.9990  -12.4456   24.7087 C   0  0  0  0  0  0  0  0  0  0  0  0
    8.7346  -15.6362   24.7702 C   0  0  0  0  0  0  0  0  0  0  0  0
    9.8044  -15.2620   24.2162 O   0  0  0  0  0  0  0  0  0  0  0  0
    8.7913  -15.9386   26.1503 N   0  0  0  0  0  0  0  0  0  0  0  0
    9.9928  -15.8843   26.9513 C   0  0  1  0  0  0  0  0  0  0  0  0
    9.6790  -15.0439   28.1701 C   0  0  0  0  0  0  0  0  0  0  0  0
   11.2408  -14.6378   28.9962 S   0  0  0  0  0  0  0  0  0  0  0  0
   10.5261  -17.2039   27.2839 C   0  0  0  0  0  0  0  0  0  0  0  0
    9.7822  -18.0953   27.7667 O   0  0  0  0  0  0  0  0  0  0  0  0
   14.5080  -18.0791   26.4851 O   0  0  0  0  0  0  0  0  0  0  0  0
   13.5489  -19.0858   26.2836 C   0  0  0  0  0  0  0  0  0  0  0  0
   12.4078  -18.7938   27.2346 C   0  0  2  0  0  0  0  0  0  0  0  0
   11.9041  -17.4590   27.0500 N   0  0  0  0  0  0  0  0  0  0  0  0
   12.9047  -18.9375   28.6139 C   0  0  0  0  0  0  0  0  0  0  0  0
   12.9502  -17.8284   29.4536 O   0  0  0  0  0  0  0  0  0  0  0  0
   13.2861  -20.0590   29.0302 O   0  0  0  0  0  0  0  0  0  0  0  0
  2  1  1  1
  2 10  1  0
  3  2  1  0
  4  9  2  0
  4  3  1  0
  5  4  1  0
  6  7  1  0
  6  5  2  0
  7  8  2  0
  8  9  1  0
 10 11  2  0
 12 10  1  0
 12 13  1  0
 13 16  1  0
 13 14  1  1
 14 15  1  0
 16 17  2  0
 18 19  1  0
 20 19  1  6
 20 22  1  0
 21 16  1  0
 21 20  1  0
 22 24  2  0
 22 23  1  0
M  END
$$$$
