FCS.pdb
     RDKit          3D

 24 24  0  0  1  0  0  0  0  0999 V2000
    6.2861  -14.2396   22.5462 N   0  0  0  0  0  0  0  0  0  0  0  0
    7.5716  -14.8969   22.4037 C   0  0  1  0  0  0  0  0  0  0  0  0
    8.5568  -14.0237   21.6482 C   0  0  0  0  0  0  0  0  0  0  0  0
    8.1640  -13.8462   20.2366 C   0  0  0  0  0  0  0  0  0  0  0  0
    7.6295  -12.6337   19.7930 C   0  0  0  0  0  0  0  0  0  0  0  0
    7.2781  -12.5179   18.4646 C   0  0  0  0  0  0  0  0  0  0  0  0
    7.4207  -13.5236   17.5447 C   0  0  0  0  0  0  0  0  0  0  0  0
    7.9534  -14.7264   17.9956 C   0  0  0  0  0  0  0  0  0  0  0  0
    8.3199  -14.8807   19.3296 C   0  0  0  0  0  0  0  0  0  0  0  0
    8.1127  -15.2173   23.7500 C   0  0  0  0  0  0  0  0  0  0  0  0
    8.1417  -14.3358   24.6520 O   0  0  0  0  0  0  0  0  0  0  0  0
    8.6112  -16.4985   24.0802 N   0  0  0  0  0  0  0  0  0  0  0  0
    9.1784  -16.8507   25.3618 C   0  0  1  0  0  0  0  0  0  0  0  0
    8.1212  -16.5745   26.4088 C   0  0  0  0  0  0  0  0  0  0  0  0
    6.6337  -15.9704   25.5669 S   0  0  0  0  0  0  0  0  0  0  0  0
    9.6931  -18.2178   25.4102 C   0  0  0  0  0  0  0  0  0  0  0  0
    8.9295  -19.1995   25.2253 O   0  0  0  0  0  0  0  0  0  0  0  0
   13.6653  -18.6702   25.8949 O   0  0  0  0  0  0  0  0  0  0  0  0
   13.0595  -19.7719   25.2679 C   0  0  0  0  0  0  0  0  0  0  0  0
   11.6014  -19.7540   25.6742 C   0  0  2  0  0  0  0  0  0  0  0  0
   11.0758  -18.4149   25.6710 N   0  0  0  0  0  0  0  0  0  0  0  0
   11.4909  -20.3143   27.0322 C   0  0  0  0  0  0  0  0  0  0  0  0
   10.9764  -19.5347   28.0642 O   0  0  0  0  0  0  0  0  0  0  0  0
   11.8606  -21.4930   27.2570 O   0  0  0  0  0  0  0  0  0  0  0  0
  2  1  1  1
  2 10  1  0
  3  2  1  0
  4  9  2  0
  4  3  1  0
  5  4  1  0
  6  7  1  0
  6  5  2  0
  7  8  2  0
  8  9  1  0
 10 11  2  0
 12 10  1  0
 12 13  1  0
 13 16  1  0
 13 14  1  1
 14 15  1  0
 16 17  2  0
 18 19  1  0
 20 19  1  1
 20 22  1  0
 21 16  1  0
 21 20  1  0
 22 24  2  0
 22 23  1  0
M  END
$$$$
