FCS.pdb
     RDKit          3D

 24 24  0  0  1  0  0  0  0  0999 V2000
    5.7744  -17.9842   25.4650 N   0  0  0  0  0  0  0  0  0  0  0  0
    6.2926  -16.6384   25.3060 C   0  0  1  0  0  0  0  0  0  0  0  0
    6.8642  -16.1099   26.6090 C   0  0  0  0  0  0  0  0  0  0  0  0
    6.9723  -14.6379   26.6049 C   0  0  0  0  0  0  0  0  0  0  0  0
    5.8297  -13.8393   26.7014 C   0  0  0  0  0  0  0  0  0  0  0  0
    5.9837  -12.4691   26.6932 C   0  0  0  0  0  0  0  0  0  0  0  0
    7.1950  -11.8355   26.5956 C   0  0  0  0  0  0  0  0  0  0  0  0
    8.3263  -12.6386   26.4999 C   0  0  0  0  0  0  0  0  0  0  0  0
    8.2103  -14.0257   26.5050 C   0  0  0  0  0  0  0  0  0  0  0  0
    7.3455  -16.6370   24.2575 C   0  0  0  0  0  0  0  0  0  0  0  0
    8.2146  -17.5508   24.2251 O   0  0  0  0  0  0  0  0  0  0  0  0
    7.4241  -15.6330   23.2651 N   0  0  0  0  0  0  0  0  0  0  0  0
    8.4131  -15.5988   22.2119 C   0  0  1  0  0  0  0  0  0  0  0  0
    8.0078  -14.4989   21.2547 C   0  0  0  0  0  0  0  0  0  0  0  0
    6.3784  -14.9106   20.5751 S   0  0  0  0  0  0  0  0  0  0  0  0
    9.7806  -15.4555   22.7074 C   0  0  0  0  0  0  0  0  0  0  0  0
   10.1446  -14.4061   23.2968 O   0  0  0  0  0  0  0  0  0  0  0  0
   11.9505  -18.7282   22.9343 O   0  0  0  0  0  0  0  0  0  0  0  0
   12.5296  -17.6600   23.6397 C   0  0  0  0  0  0  0  0  0  0  0  0
   12.0452  -16.3889   22.9756 C   0  0  2  0  0  0  0  0  0  0  0  0
   10.6914  -16.5278   22.5091 N   0  0  0  0  0  0  0  0  0  0  0  0
   12.9248  -16.0992   21.8300 C   0  0  0  0  0  0  0  0  0  0  0  0
   14.2715  -15.8193   22.0431 O   0  0  0  0  0  0  0  0  0  0  0  0
   12.4593  -16.1051   20.6639 O   0  0  0  0  0  0  0  0  0  0  0  0
  2  1  1  1
  2 10  1  0
  3  2  1  0
  4  9  2  0
  4  3  1  0
  5  4  1  0
  6  7  1  0
  6  5  2  0
  7  8  2  0
  8  9  1  0
 10 11  2  0
 12 10  1  0
 12 13  1  0
 13 16  1  0
 13 14  1  6
 14 15  1  0
 16 17  2  0
 18 19  1  0
 20 19  1  6
 20 22  1  0
 21 16  1  0
 21 20  1  0
 22 24  2  0
 22 23  1  0
M  END
$$$$
