FCS.pdb
     RDKit          3D

 24 24  0  0  1  0  0  0  0  0999 V2000
   -1.8580  -25.6720   26.0849 N   0  0  0  0  0  0  0  0  0  0  0  0
   -3.2954  -25.7474   26.2666 C   0  0  1  0  0  0  0  0  0  0  0  0
   -3.7056  -27.0763   26.8747 C   0  0  0  0  0  0  0  0  0  0  0  0
   -3.5562  -28.1888   25.9164 C   0  0  0  0  0  0  0  0  0  0  0  0
   -2.5232  -29.1188   26.0600 C   0  0  0  0  0  0  0  0  0  0  0  0
   -2.4263  -30.1400   25.1385 C   0  0  0  0  0  0  0  0  0  0  0  0
   -3.2849  -30.3024   24.0828 C   0  0  0  0  0  0  0  0  0  0  0  0
   -4.3097  -29.3720   23.9483 C   0  0  0  0  0  0  0  0  0  0  0  0
   -4.4394  -28.3274   24.8590 C   0  0  0  0  0  0  0  0  0  0  0  0
   -3.7397  -24.6338   27.1444 C   0  0  0  0  0  0  0  0  0  0  0  0
   -3.0875  -24.3422   28.1841 O   0  0  0  0  0  0  0  0  0  0  0  0
   -4.8908  -23.8621   26.8641 N   0  0  0  0  0  0  0  0  0  0  0  0
   -5.4111  -22.8256   27.7262 C   0  0  1  0  0  0  0  0  0  0  0  0
   -5.4951  -21.5596   26.9012 C   0  0  0  0  0  0  0  0  0  0  0  0
   -3.8284  -20.8596   26.7654 S   0  0  0  0  0  0  0  0  0  0  0  0
   -6.6777  -23.1836   28.3615 C   0  0  0  0  0  0  0  0  0  0  0  0
   -7.6318  -23.6403   27.6816 O   0  0  0  0  0  0  0  0  0  0  0  0
   -9.1754  -23.8045   32.3954 O   0  0  0  0  0  0  0  0  0  0  0  0
   -7.8959  -23.5377   31.8799 C   0  0  0  0  0  0  0  0  0  0  0  0
   -8.0663  -23.3111   30.3929 C   0  0  2  0  0  0  0  0  0  0  0  0
   -6.8088  -23.0048   29.7649 N   0  0  0  0  0  0  0  0  0  0  0  0
   -8.9924  -22.1821   30.1984 C   0  0  0  0  0  0  0  0  0  0  0  0
  -10.3210  -22.4251   29.8622 O   0  0  0  0  0  0  0  0  0  0  0  0
   -8.5828  -21.0032   30.3361 O   0  0  0  0  0  0  0  0  0  0  0  0
  2  1  1  1
  2 10  1  0
  3  2  1  0
  4  9  2  0
  4  3  1  0
  5  4  1  0
  6  7  1  0
  6  5  2  0
  7  8  2  0
  8  9  1  0
 10 11  2  0
 12 10  1  0
 12 13  1  0
 13 16  1  0
 13 14  1  6
 14 15  1  0
 16 17  2  0
 18 19  1  0
 20 19  1  1
 20 22  1  0
 21 16  1  0
 21 20  1  0
 22 24  2  0
 22 23  1  0
M  END
$$$$
