FCS.pdb
     RDKit          3D

 24 24  0  0  1  0  0  0  0  0999 V2000
    9.5762  -15.3866   21.8859 N   0  0  0  0  0  0  0  0  0  0  0  0
    9.1362  -14.7249   23.0997 C   0  0  1  0  0  0  0  0  0  0  0  0
    7.6452  -14.4430   23.0649 C   0  0  0  0  0  0  0  0  0  0  0  0
    7.2284  -13.5520   24.1653 C   0  0  0  0  0  0  0  0  0  0  0  0
    7.6496  -12.2202   24.2021 C   0  0  0  0  0  0  0  0  0  0  0  0
    7.2329  -11.4284   25.2513 C   0  0  0  0  0  0  0  0  0  0  0  0
    6.4258  -11.8676   26.2680 C   0  0  0  0  0  0  0  0  0  0  0  0
    6.0117  -13.1943   26.2228 C   0  0  0  0  0  0  0  0  0  0  0  0
    6.4120  -14.0240   25.1793 C   0  0  0  0  0  0  0  0  0  0  0  0
    9.4595  -15.5798   24.2713 C   0  0  0  0  0  0  0  0  0  0  0  0
    9.2929  -16.8289   24.2146 O   0  0  0  0  0  0  0  0  0  0  0  0
    9.9592  -15.0472   25.4820 N   0  0  0  0  0  0  0  0  0  0  0  0
   10.4931  -15.8397   26.5661 C   0  0  1  0  0  0  0  0  0  0  0  0
   11.0108  -14.8752   27.6110 C   0  0  0  0  0  0  0  0  0  0  0  0
    9.5901  -14.0353   28.3609 S   0  0  0  0  0  0  0  0  0  0  0  0
    9.5370  -16.8079   27.0998 C   0  0  0  0  0  0  0  0  0  0  0  0
    8.3106  -16.7110   26.8401 O   0  0  0  0  0  0  0  0  0  0  0  0
    8.5042  -20.8834   26.6109 O   0  0  0  0  0  0  0  0  0  0  0  0
    9.2940  -19.7245   26.5267 C   0  0  0  0  0  0  0  0  0  0  0  0
    9.3317  -19.1238   27.9157 C   0  0  2  0  0  0  0  0  0  0  0  0
   10.0227  -17.8620   27.9193 N   0  0  0  0  0  0  0  0  0  0  0  0
   10.0328  -20.0624   28.8086 C   0  0  0  0  0  0  0  0  0  0  0  0
    9.3015  -20.9198   29.6255 O   0  0  0  0  0  0  0  0  0  0  0  0
   11.2879  -20.0880   28.8319 O   0  0  0  0  0  0  0  0  0  0  0  0
  2  1  1  6
  2 10  1  0
  3  2  1  0
  4  9  2  0
  4  3  1  0
  5  4  1  0
  6  7  1  0
  6  5  2  0
  7  8  2  0
  8  9  1  0
 10 11  2  0
 12 10  1  0
 12 13  1  0
 13 16  1  0
 13 14  1  1
 14 15  1  0
 16 17  2  0
 18 19  1  0
 20 19  1  6
 20 22  1  0
 21 16  1  0
 21 20  1  0
 22 24  2  0
 22 23  1  0
M  END
$$$$
