FCS.pdb
     RDKit          3D

 24 24  0  0  1  0  0  0  0  0999 V2000
    6.1159  -18.0530   19.1097 N   0  0  0  0  0  0  0  0  0  0  0  0
    7.0931  -17.2830   19.8559 C   0  0  1  0  0  0  0  0  0  0  0  0
    6.4233  -16.3921   20.8863 C   0  0  0  0  0  0  0  0  0  0  0  0
    6.9725  -15.0223   20.8687 C   0  0  0  0  0  0  0  0  0  0  0  0
    6.9751  -14.2708   19.6906 C   0  0  0  0  0  0  0  0  0  0  0  0
    7.4994  -12.9960   19.7261 C   0  0  0  0  0  0  0  0  0  0  0  0
    8.0221  -12.4144   20.8516 C   0  0  0  0  0  0  0  0  0  0  0  0
    8.0151  -13.1699   22.0190 C   0  0  0  0  0  0  0  0  0  0  0  0
    7.4941  -14.4607   22.0220 C   0  0  0  0  0  0  0  0  0  0  0  0
    8.0389  -18.2095   20.5305 C   0  0  0  0  0  0  0  0  0  0  0  0
    7.6076  -19.2128   21.1620 O   0  0  0  0  0  0  0  0  0  0  0  0
    9.4393  -18.0169   20.4989 N   0  0  0  0  0  0  0  0  0  0  0  0
   10.4022  -18.9115   21.0997 C   0  0  1  0  0  0  0  0  0  0  0  0
   11.5372  -19.0739   20.1119 C   0  0  0  0  0  0  0  0  0  0  0  0
   12.1413  -17.4238   19.6660 S   0  0  0  0  0  0  0  0  0  0  0  0
   10.8479  -18.4776   22.4223 C   0  0  0  0  0  0  0  0  0  0  0  0
   10.9456  -17.2549   22.6990 O   0  0  0  0  0  0  0  0  0  0  0  0
   10.9858  -21.1753   25.3707 O   0  0  0  0  0  0  0  0  0  0  0  0
   11.0442  -19.8374   25.7955 C   0  0  0  0  0  0  0  0  0  0  0  0
   11.6810  -19.0523   24.6688 C   0  0  2  0  0  0  0  0  0  0  0  0
   11.1688  -19.4670   23.3900 N   0  0  0  0  0  0  0  0  0  0  0  0
   13.1354  -19.2835   24.7059 C   0  0  0  0  0  0  0  0  0  0  0  0
   13.8813  -18.8355   25.7923 O   0  0  0  0  0  0  0  0  0  0  0  0
   13.7001  -19.8838   23.7586 O   0  0  0  0  0  0  0  0  0  0  0  0
  2  1  1  1
  2 10  1  0
  3  2  1  0
  4  9  2  0
  4  3  1  0
  5  4  1  0
  6  7  1  0
  6  5  2  0
  7  8  2  0
  8  9  1  0
 10 11  2  0
 12 10  1  0
 12 13  1  0
 13 16  1  0
 13 14  1  6
 14 15  1  0
 16 17  2  0
 18 19  1  0
 20 19  1  1
 20 22  1  0
 21 16  1  0
 21 20  1  0
 22 24  2  0
 22 23  1  0
M  END
$$$$
