FCS.pdb
     RDKit          3D

 24 24  0  0  1  0  0  0  0  0999 V2000
    6.4867  -16.8346   26.0795 N   0  0  0  0  0  0  0  0  0  0  0  0
    7.1110  -15.8259   25.2443 C   0  0  1  0  0  0  0  0  0  0  0  0
    8.1590  -15.0434   26.0146 C   0  0  0  0  0  0  0  0  0  0  0  0
    7.6368  -13.7485   26.4931 C   0  0  0  0  0  0  0  0  0  0  0  0
    8.2566  -13.0772   27.5504 C   0  0  0  0  0  0  0  0  0  0  0  0
    7.7304  -11.8705   27.9604 C   0  0  0  0  0  0  0  0  0  0  0  0
    6.6300  -11.2829   27.3930 C   0  0  0  0  0  0  0  0  0  0  0  0
    6.0201  -11.9584   26.3416 C   0  0  0  0  0  0  0  0  0  0  0  0
    6.5227  -13.1790   25.8999 C   0  0  0  0  0  0  0  0  0  0  0  0
    7.7368  -16.4805   24.0663 C   0  0  0  0  0  0  0  0  0  0  0  0
    8.0140  -17.7109   24.0929 O   0  0  0  0  0  0  0  0  0  0  0  0
    8.0462  -15.7723   22.8823 N   0  0  0  0  0  0  0  0  0  0  0  0
    8.7257  -16.3425   21.7415 C   0  0  1  0  0  0  0  0  0  0  0  0
    8.4505  -15.4375   20.5601 C   0  0  0  0  0  0  0  0  0  0  0  0
    6.6622  -15.4204   20.2634 S   0  0  0  0  0  0  0  0  0  0  0  0
   10.1508  -16.5707   21.9719 C   0  0  0  0  0  0  0  0  0  0  0  0
   10.8356  -15.7478   22.6314 O   0  0  0  0  0  0  0  0  0  0  0  0
   13.6040  -19.8046   22.2906 O   0  0  0  0  0  0  0  0  0  0  0  0
   12.3133  -19.5772   21.7844 C   0  0  0  0  0  0  0  0  0  0  0  0
   12.0923  -18.0800   21.8176 C   0  0  2  0  0  0  0  0  0  0  0  0
   10.7471  -17.7431   21.4347 N   0  0  0  0  0  0  0  0  0  0  0  0
   13.0354  -17.4506   20.8771 C   0  0  0  0  0  0  0  0  0  0  0  0
   14.3862  -17.3662   21.2021 O   0  0  0  0  0  0  0  0  0  0  0  0
   12.6203  -16.9914   19.7848 O   0  0  0  0  0  0  0  0  0  0  0  0
  2  1  1  1
  2 10  1  0
  3  2  1  0
  4  9  2  0
  4  3  1  0
  5  4  1  0
  6  7  1  0
  6  5  2  0
  7  8  2  0
  8  9  1  0
 10 11  2  0
 12 10  1  0
 12 13  1  0
 13 16  1  0
 13 14  1  6
 14 15  1  0
 16 17  2  0
 18 19  1  0
 20 19  1  6
 20 22  1  0
 21 16  1  0
 21 20  1  0
 22 24  2  0
 22 23  1  0
M  END
$$$$
