FCS.pdb
     RDKit          3D

 24 24  0  0  1  0  0  0  0  0999 V2000
    5.8310  -16.9623   25.3904 N   0  0  0  0  0  0  0  0  0  0  0  0
    6.7189  -15.8730   25.0302 C   0  0  1  0  0  0  0  0  0  0  0  0
    7.4195  -15.3055   26.2512 C   0  0  0  0  0  0  0  0  0  0  0  0
    7.1099  -13.8758   26.4478 C   0  0  0  0  0  0  0  0  0  0  0  0
    5.8951  -13.4814   27.0147 C   0  0  0  0  0  0  0  0  0  0  0  0
    5.6533  -12.1336   27.1774 C   0  0  0  0  0  0  0  0  0  0  0  0
    6.5349  -11.1488   26.8158 C   0  0  0  0  0  0  0  0  0  0  0  0
    7.7411  -11.5510   26.2525 C   0  0  0  0  0  0  0  0  0  0  0  0
    8.0207  -12.9027   26.0726 C   0  0  0  0  0  0  0  0  0  0  0  0
    7.7266  -16.3617   24.0536 C   0  0  0  0  0  0  0  0  0  0  0  0
    8.2938  -17.4753   24.2257 O   0  0  0  0  0  0  0  0  0  0  0  0
    8.0923  -15.6189   22.9074 N   0  0  0  0  0  0  0  0  0  0  0  0
    9.1522  -15.9877   21.9970 C   0  0  1  0  0  0  0  0  0  0  0  0
    9.0294  -15.0923   20.7831 C   0  0  0  0  0  0  0  0  0  0  0  0
    7.2927  -15.0766   20.2635 S   0  0  0  0  0  0  0  0  0  0  0  0
   10.4792  -15.9493   22.6085 C   0  0  0  0  0  0  0  0  0  0  0  0
   10.8101  -15.0037   23.3684 O   0  0  0  0  0  0  0  0  0  0  0  0
   12.0555  -18.7814   24.3730 O   0  0  0  0  0  0  0  0  0  0  0  0
   13.0422  -18.3978   23.4493 C   0  0  0  0  0  0  0  0  0  0  0  0
   12.6736  -17.0090   22.9732 C   0  0  2  0  0  0  0  0  0  0  0  0
   11.3886  -17.0037   22.3263 N   0  0  0  0  0  0  0  0  0  0  0  0
   13.6992  -16.5587   22.0163 C   0  0  0  0  0  0  0  0  0  0  0  0
   14.9998  -16.3243   22.4532 O   0  0  0  0  0  0  0  0  0  0  0  0
   13.3994  -16.3870   20.8092 O   0  0  0  0  0  0  0  0  0  0  0  0
  2  1  1  1
  2 10  1  0
  3  2  1  0
  4  9  2  0
  4  3  1  0
  5  4  1  0
  6  7  1  0
  6  5  2  0
  7  8  2  0
  8  9  1  0
 10 11  2  0
 12 10  1  0
 12 13  1  0
 13 16  1  0
 13 14  1  6
 14 15  1  0
 16 17  2  0
 18 19  1  0
 20 19  1  6
 20 22  1  0
 21 16  1  0
 21 20  1  0
 22 24  2  0
 22 23  1  0
M  END
$$$$
