FCS.pdb
     RDKit          3D

 24 24  0  0  1  0  0  0  0  0999 V2000
    6.9508  -16.1609   25.9954 N   0  0  0  0  0  0  0  0  0  0  0  0
    7.3292  -15.3478   24.8550 C   0  0  1  0  0  0  0  0  0  0  0  0
    8.2482  -14.2123   25.2678 C   0  0  0  0  0  0  0  0  0  0  0  0
    7.5196  -13.1491   25.9870 C   0  0  0  0  0  0  0  0  0  0  0  0
    7.7351  -12.9351   27.3509 C   0  0  0  0  0  0  0  0  0  0  0  0
    7.0298  -11.9293   27.9772 C   0  0  0  0  0  0  0  0  0  0  0  0
    6.1240  -11.1200   27.3426 C   0  0  0  0  0  0  0  0  0  0  0  0
    5.9163  -11.3406   25.9854 C   0  0  0  0  0  0  0  0  0  0  0  0
    6.6100  -12.3467   25.3190 C   0  0  0  0  0  0  0  0  0  0  0  0
    8.0065  -16.2013   23.8448 C   0  0  0  0  0  0  0  0  0  0  0  0
    8.4833  -17.3221   24.1734 O   0  0  0  0  0  0  0  0  0  0  0  0
    8.1474  -15.8085   22.4939 N   0  0  0  0  0  0  0  0  0  0  0  0
    8.9097  -16.5362   21.5051 C   0  0  1  0  0  0  0  0  0  0  0  0
    8.5982  -15.9192   20.1588 C   0  0  0  0  0  0  0  0  0  0  0  0
    6.8025  -15.9679   19.9146 S   0  0  0  0  0  0  0  0  0  0  0  0
   10.3406  -16.5844   21.7989 C   0  0  0  0  0  0  0  0  0  0  0  0
   11.0352  -15.5363   21.7879 O   0  0  0  0  0  0  0  0  0  0  0  0
   11.6994  -20.0386   23.1525 O   0  0  0  0  0  0  0  0  0  0  0  0
   12.5915  -18.9967   23.4571 C   0  0  0  0  0  0  0  0  0  0  0  0
   12.3228  -17.8906   22.4593 C   0  0  2  0  0  0  0  0  0  0  0  0
   10.9313  -17.8416   22.0974 N   0  0  0  0  0  0  0  0  0  0  0  0
   13.1281  -18.1478   21.2529 C   0  0  0  0  0  0  0  0  0  0  0  0
   14.5158  -18.2051   21.3447 O   0  0  0  0  0  0  0  0  0  0  0  0
   12.5626  -18.3149   20.1444 O   0  0  0  0  0  0  0  0  0  0  0  0
  2  1  1  1
  2 10  1  0
  3  2  1  0
  4  9  2  0
  4  3  1  0
  5  4  1  0
  6  7  1  0
  6  5  2  0
  7  8  2  0
  8  9  1  0
 10 11  2  0
 12 10  1  0
 12 13  1  0
 13 16  1  0
 13 14  1  6
 14 15  1  0
 16 17  2  0
 18 19  1  0
 20 19  1  1
 20 22  1  0
 21 16  1  0
 21 20  1  0
 22 24  2  0
 22 23  1  0
M  END
$$$$
