EKN.pdb
     RDKit          3D

 27 26  0  0  1  0  0  0  0  0999 V2000
    8.9804  -16.2771   19.2459 N   0  0  0  0  0  0  0  0  0  0  0  0
    9.5808  -17.1703   20.1516 C   0  0  1  0  0  0  0  0  0  0  0  0
   10.7524  -17.9377   19.6897 C   0  0  0  0  0  0  0  0  0  0  0  0
   11.7214  -17.2922   18.7837 C   0  0  0  0  0  0  0  0  0  0  0  0
   12.8737  -18.0961   18.3592 C   0  0  0  0  0  0  0  0  0  0  0  0
   14.0643  -17.7943   18.5508 O   0  0  0  0  0  0  0  0  0  0  0  0
    9.7982  -16.5396   21.4883 C   0  0  0  0  0  0  0  0  0  0  0  0
   10.8750  -16.7595   22.1280 O   0  0  0  0  0  0  0  0  0  0  0  0
   12.6041  -19.2850   17.6925 O   0  0  0  0  0  0  0  0  0  0  0  0
    8.8350  -15.6989   22.0726 N   0  0  0  0  0  0  0  0  0  0  0  0
    8.8494  -15.1449   23.4027 C   0  0  1  0  0  0  0  0  0  0  0  0
    7.6862  -14.1813   23.6883 C   0  0  0  0  0  0  0  0  0  0  0  0
    7.7947  -13.5343   25.0272 C   0  0  0  0  0  0  0  0  0  0  0  0
    6.6324  -12.5577   25.2284 C   0  0  0  0  0  0  0  0  0  0  0  0
    6.8138  -11.8347   26.5437 C   0  0  0  0  0  0  0  0  0  0  0  0
    5.6491  -11.0256   26.7945 N   0  0  0  0  0  0  0  0  0  0  0  0
    9.0328  -16.0711   24.4942 C   0  0  0  0  0  0  0  0  0  0  0  0
    8.2208  -17.0403   24.6597 O   0  0  0  0  0  0  0  0  0  0  0  0
   12.4285  -20.0115   26.1533 N   0  0  0  0  0  0  0  0  0  0  0  0
   12.5576  -18.6363   26.4558 C   0  0  0  0  0  0  0  0  0  0  0  0
   13.2266  -18.3660   27.5123 O   0  0  0  0  0  0  0  0  0  0  0  0
   11.9963  -17.5294   25.6636 C   0  0  0  0  0  0  0  0  0  0  0  0
   10.6045  -17.2431   26.1102 C   0  0  2  0  0  0  0  0  0  0  0  0
   10.0750  -16.0274   25.4654 N   0  0  0  0  0  0  0  0  0  0  0  0
   10.5931  -16.9013   27.5783 C   0  0  0  0  0  0  0  0  0  0  0  0
   10.4168  -17.7480   28.4718 O   0  0  0  0  0  0  0  0  0  0  0  0
   10.7858  -15.5823   27.9952 O   0  0  0  0  0  0  0  0  0  0  0  0
  2  1  1  6
  2  3  1  0
  2  7  1  0
  4  3  1  0
  5  4  1  0
  5  9  1  0
  6  5  2  0
  7 10  1  0
  7  8  2  0
 10 11  1  0
 11 12  1  1
 13 14  1  0
 13 12  1  0
 14 15  1  0
 16 15  1  0
 17 11  1  0
 17 18  2  0
 20 19  1  0
 20 22  1  0
 21 20  2  0
 23 22  1  6
 23 24  1  0
 24 17  1  0
 25 27  1  0
 25 23  1  0
 26 25  2  0
M  END
$$$$
