EKN.pdb
     RDKit          3D

 27 26  0  0  1  0  0  0  0  0999 V2000
   10.3733  -16.2007   19.4857 N   0  0  0  0  0  0  0  0  0  0  0  0
    9.3328  -16.4811   20.3898 C   0  0  1  0  0  0  0  0  0  0  0  0
    8.8637  -17.8755   20.4908 C   0  0  0  0  0  0  0  0  0  0  0  0
    9.8495  -18.9711   20.4245 C   0  0  0  0  0  0  0  0  0  0  0  0
    9.3243  -20.3414   20.4445 C   0  0  0  0  0  0  0  0  0  0  0  0
   10.0176  -21.3725   20.4059 O   0  0  0  0  0  0  0  0  0  0  0  0
    9.5789  -15.8598   21.7259 C   0  0  0  0  0  0  0  0  0  0  0  0
   10.7670  -15.7424   22.1639 O   0  0  0  0  0  0  0  0  0  0  0  0
    7.9443  -20.4888   20.5118 O   0  0  0  0  0  0  0  0  0  0  0  0
    8.5230  -15.3951   22.5289 N   0  0  0  0  0  0  0  0  0  0  0  0
    8.6119  -14.8430   23.8570 C   0  0  1  0  0  0  0  0  0  0  0  0
    7.3628  -14.0587   24.2901 C   0  0  0  0  0  0  0  0  0  0  0  0
    7.5360  -13.3915   25.6122 C   0  0  0  0  0  0  0  0  0  0  0  0
    6.2585  -12.6326   25.9828 C   0  0  0  0  0  0  0  0  0  0  0  0
    6.4378  -11.9929   27.3408 C   0  0  0  0  0  0  0  0  0  0  0  0
    5.2221  -11.3074   27.6964 N   0  0  0  0  0  0  0  0  0  0  0  0
    9.0533  -15.7312   24.9053 C   0  0  0  0  0  0  0  0  0  0  0  0
    8.5343  -16.8894   25.0293 O   0  0  0  0  0  0  0  0  0  0  0  0
   12.4679  -19.1989   27.2521 N   0  0  0  0  0  0  0  0  0  0  0  0
   12.1728  -18.2230   26.2723 C   0  0  0  0  0  0  0  0  0  0  0  0
   12.0429  -18.6643   25.0784 O   0  0  0  0  0  0  0  0  0  0  0  0
   12.0072  -16.7816   26.5227 C   0  0  0  0  0  0  0  0  0  0  0  0
   10.5753  -16.4776   26.7979 C   0  0  2  0  0  0  0  0  0  0  0  0
   10.0595  -15.4500   25.8748 N   0  0  0  0  0  0  0  0  0  0  0  0
   10.4347  -15.8391   28.1562 C   0  0  0  0  0  0  0  0  0  0  0  0
   10.5766  -14.6193   28.3516 O   0  0  0  0  0  0  0  0  0  0  0  0
   10.1315  -16.6208   29.2732 O   0  0  0  0  0  0  0  0  0  0  0  0
  2  1  1  6
  2  3  1  0
  2  7  1  0
  4  3  1  0
  5  4  1  0
  5  9  1  0
  6  5  2  0
  7 10  1  0
  7  8  2  0
 10 11  1  0
 11 12  1  1
 13 14  1  0
 13 12  1  0
 14 15  1  0
 16 15  1  0
 17 11  1  0
 17 18  2  0
 20 19  1  0
 20 22  1  0
 21 20  2  0
 23 22  1  6
 23 24  1  0
 24 17  1  0
 25 27  1  0
 25 23  1  0
 26 25  2  0
M  END
$$$$
