EKN.pdb
     RDKit          3D

 27 26  0  0  1  0  0  0  0  0999 V2000
    8.3438  -14.8030   14.6726 N   0  0  0  0  0  0  0  0  0  0  0  0
    8.7400  -15.7956   15.5872 C   0  0  1  0  0  0  0  0  0  0  0  0
    9.4673  -16.9663   15.0626 C   0  0  0  0  0  0  0  0  0  0  0  0
    9.7710  -17.0356   13.6205 C   0  0  0  0  0  0  0  0  0  0  0  0
   10.7076  -18.0790   13.1869 C   0  0  0  0  0  0  0  0  0  0  0  0
   11.7123  -17.8878   12.4801 O   0  0  0  0  0  0  0  0  0  0  0  0
    9.3947  -15.2062   16.7937 C   0  0  0  0  0  0  0  0  0  0  0  0
   10.4088  -14.4502   16.6620 O   0  0  0  0  0  0  0  0  0  0  0  0
   10.4438  -19.3783   13.6028 O   0  0  0  0  0  0  0  0  0  0  0  0
    8.9202  -15.4656   18.0912 N   0  0  0  0  0  0  0  0  0  0  0  0
    9.6858  -15.5013   19.3114 C   0  0  1  0  0  0  0  0  0  0  0  0
    8.9099  -16.0554   20.5172 C   0  0  0  0  0  0  0  0  0  0  0  0
    9.6866  -15.9677   21.7868 C   0  0  0  0  0  0  0  0  0  0  0  0
    8.8548  -16.5264   22.9448 C   0  0  0  0  0  0  0  0  0  0  0  0
    9.6503  -16.4159   24.2257 C   0  0  0  0  0  0  0  0  0  0  0  0
    8.8294  -16.8588   25.3231 N   0  0  0  0  0  0  0  0  0  0  0  0
   11.0063  -16.0786   19.2373 C   0  0  0  0  0  0  0  0  0  0  0  0
   11.3145  -16.8605   18.2782 O   0  0  0  0  0  0  0  0  0  0  0  0
   15.9051  -13.3811   19.1957 N   0  0  0  0  0  0  0  0  0  0  0  0
   15.0129  -14.2481   18.5235 C   0  0  0  0  0  0  0  0  0  0  0  0
   15.5100  -14.8900   17.5348 O   0  0  0  0  0  0  0  0  0  0  0  0
   13.5982  -14.4587   18.8728 C   0  0  0  0  0  0  0  0  0  0  0  0
   13.4643  -15.6677   19.7324 C   0  0  2  0  0  0  0  0  0  0  0  0
   12.0683  -15.8657   20.1637 N   0  0  0  0  0  0  0  0  0  0  0  0
   14.2117  -15.4671   21.0261 C   0  0  0  0  0  0  0  0  0  0  0  0
   13.6536  -15.1507   22.0913 O   0  0  0  0  0  0  0  0  0  0  0  0
   15.5975  -15.6351   21.0713 O   0  0  0  0  0  0  0  0  0  0  0  0
  2  1  1  6
  2  3  1  0
  2  7  1  0
  4  3  1  0
  5  4  1  0
  5  9  1  0
  6  5  2  0
  7 10  1  0
  7  8  2  0
 10 11  1  0
 11 12  1  1
 13 14  1  0
 13 12  1  0
 14 15  1  0
 16 15  1  0
 17 11  1  0
 17 18  2  0
 20 19  1  0
 20 22  1  0
 21 20  2  0
 23 22  1  6
 23 24  1  0
 24 17  1  0
 25 27  1  0
 25 23  1  0
 26 25  2  0
M  END
$$$$
