EKN.pdb
     RDKit          3D

 27 26  0  0  1  0  0  0  0  0999 V2000
    8.5064  -18.1750   18.4427 N   0  0  0  0  0  0  0  0  0  0  0  0
    9.8768  -18.1607   18.7593 C   0  0  1  0  0  0  0  0  0  0  0  0
   10.8366  -17.9451   17.6606 C   0  0  0  0  0  0  0  0  0  0  0  0
   10.4488  -18.3148   16.2860 C   0  0  0  0  0  0  0  0  0  0  0  0
   11.4263  -18.0483   15.2241 C   0  0  0  0  0  0  0  0  0  0  0  0
   12.1745  -18.8990   14.7124 O   0  0  0  0  0  0  0  0  0  0  0  0
   10.1610  -17.3002   19.9471 C   0  0  0  0  0  0  0  0  0  0  0  0
   11.3625  -17.0814   20.3014 O   0  0  0  0  0  0  0  0  0  0  0  0
   11.5159  -16.7415   14.7606 O   0  0  0  0  0  0  0  0  0  0  0  0
    9.1269  -16.7167   20.6994 N   0  0  0  0  0  0  0  0  0  0  0  0
    9.2415  -16.0429   21.9680 C   0  0  1  0  0  0  0  0  0  0  0  0
    7.9326  -15.3969   22.4502 C   0  0  0  0  0  0  0  0  0  0  0  0
    8.1110  -14.6097   23.7038 C   0  0  0  0  0  0  0  0  0  0  0  0
    6.8141  -13.8683   24.0411 C   0  0  0  0  0  0  0  0  0  0  0  0
    7.0223  -13.0497   25.2949 C   0  0  0  0  0  0  0  0  0  0  0  0
    5.8034  -12.3451   25.5985 N   0  0  0  0  0  0  0  0  0  0  0  0
    9.8839  -16.7685   23.0373 C   0  0  0  0  0  0  0  0  0  0  0  0
    9.5002  -17.9470   23.3374 O   0  0  0  0  0  0  0  0  0  0  0  0
   13.2910  -18.6384   23.0540 N   0  0  0  0  0  0  0  0  0  0  0  0
   13.8548  -17.6504   23.8940 C   0  0  0  0  0  0  0  0  0  0  0  0
   15.1160  -17.4761   23.7681 O   0  0  0  0  0  0  0  0  0  0  0  0
   13.1149  -16.8328   24.8696 C   0  0  0  0  0  0  0  0  0  0  0  0
   11.6636  -17.1618   24.8075 C   0  0  2  0  0  0  0  0  0  0  0  0
   10.9592  -16.2956   23.8445 N   0  0  0  0  0  0  0  0  0  0  0  0
   11.0042  -16.8402   26.1244 C   0  0  0  0  0  0  0  0  0  0  0  0
   10.2469  -15.8672   26.2854 O   0  0  0  0  0  0  0  0  0  0  0  0
   11.2298  -17.6492   27.2404 O   0  0  0  0  0  0  0  0  0  0  0  0
  2  1  1  6
  2  3  1  0
  2  7  1  0
  4  3  1  0
  5  4  1  0
  5  9  1  0
  6  5  2  0
  7 10  1  0
  7  8  2  0
 10 11  1  0
 11 12  1  1
 13 14  1  0
 13 12  1  0
 14 15  1  0
 16 15  1  0
 17 11  1  0
 17 18  2  0
 20 19  1  0
 20 22  1  0
 21 20  2  0
 23 22  1  1
 23 24  1  0
 24 17  1  0
 25 27  1  0
 25 23  1  0
 26 25  2  0
M  END
$$$$
