EKN.pdb
     RDKit          3D

 27 26  0  0  1  0  0  0  0  0999 V2000
    8.4727  -17.6070   20.2951 N   0  0  0  0  0  0  0  0  0  0  0  0
    9.8382  -17.4207   20.5770 C   0  0  1  0  0  0  0  0  0  0  0  0
   10.7126  -16.9623   19.4816 C   0  0  0  0  0  0  0  0  0  0  0  0
   10.2478  -17.0975   18.0879 C   0  0  0  0  0  0  0  0  0  0  0  0
   11.2796  -17.1947   17.0486 C   0  0  0  0  0  0  0  0  0  0  0  0
   12.5040  -17.2352   17.2595 O   0  0  0  0  0  0  0  0  0  0  0  0
   10.0418  -16.6447   21.8373 C   0  0  0  0  0  0  0  0  0  0  0  0
   11.2186  -16.4250   22.2661 O   0  0  0  0  0  0  0  0  0  0  0  0
   10.8457  -17.2449   15.7295 O   0  0  0  0  0  0  0  0  0  0  0  0
    8.9575  -16.1429   22.5778 N   0  0  0  0  0  0  0  0  0  0  0  0
    8.9993  -15.5181   23.8756 C   0  0  1  0  0  0  0  0  0  0  0  0
    7.8111  -14.5839   24.1554 C   0  0  0  0  0  0  0  0  0  0  0  0
    7.8975  -13.9336   25.4943 C   0  0  0  0  0  0  0  0  0  0  0  0
    6.7435  -12.9417   25.6658 C   0  0  0  0  0  0  0  0  0  0  0  0
    6.8601  -12.2737   27.0171 C   0  0  0  0  0  0  0  0  0  0  0  0
    5.7418  -11.3837   27.1943 N   0  0  0  0  0  0  0  0  0  0  0  0
    9.2584  -16.3772   25.0060 C   0  0  0  0  0  0  0  0  0  0  0  0
    8.3988  -17.2489   25.3627 O   0  0  0  0  0  0  0  0  0  0  0  0
   13.6984  -19.1196   28.1189 N   0  0  0  0  0  0  0  0  0  0  0  0
   12.4787  -19.0574   27.4062 C   0  0  0  0  0  0  0  0  0  0  0  0
   11.6381  -19.9843   27.6729 O   0  0  0  0  0  0  0  0  0  0  0  0
   12.1193  -18.0318   26.4129 C   0  0  0  0  0  0  0  0  0  0  0  0
   10.7732  -17.4759   26.7246 C   0  0  2  0  0  0  0  0  0  0  0  0
   10.4298  -16.3651   25.8177 N   0  0  0  0  0  0  0  0  0  0  0  0
   10.7830  -16.8325   28.0879 C   0  0  0  0  0  0  0  0  0  0  0  0
   10.7063  -15.6034   28.2598 O   0  0  0  0  0  0  0  0  0  0  0  0
   10.8820  -17.6203   29.2369 O   0  0  0  0  0  0  0  0  0  0  0  0
  2  1  1  6
  2  3  1  0
  2  7  1  0
  4  3  1  0
  5  4  1  0
  5  9  1  0
  6  5  2  0
  7 10  1  0
  7  8  2  0
 10 11  1  0
 11 12  1  1
 13 14  1  0
 13 12  1  0
 14 15  1  0
 16 15  1  0
 17 11  1  0
 17 18  2  0
 20 19  1  0
 20 22  1  0
 21 20  2  0
 23 22  1  6
 23 24  1  0
 24 17  1  0
 25 27  1  0
 25 23  1  0
 26 25  2  0
M  END
$$$$
