EKN.pdb
     RDKit          3D

 27 26  0  0  1  0  0  0  0  0999 V2000
   10.6261  -18.2073   16.2910 N   0  0  0  0  0  0  0  0  0  0  0  0
   11.6659  -18.6117   17.1478 C   0  0  1  0  0  0  0  0  0  0  0  0
   12.9795  -17.9595   16.9942 C   0  0  0  0  0  0  0  0  0  0  0  0
   13.5996  -17.9006   15.6569 C   0  0  0  0  0  0  0  0  0  0  0  0
   14.9462  -17.3227   15.5723 C   0  0  0  0  0  0  0  0  0  0  0  0
   15.6145  -16.9247   16.5420 O   0  0  0  0  0  0  0  0  0  0  0  0
   11.2174  -18.6716   18.5716 C   0  0  0  0  0  0  0  0  0  0  0  0
   11.5354  -17.7416   19.3785 O   0  0  0  0  0  0  0  0  0  0  0  0
   15.5102  -17.2159   14.3070 O   0  0  0  0  0  0  0  0  0  0  0  0
   10.4445  -19.7406   19.0571 N   0  0  0  0  0  0  0  0  0  0  0  0
   10.0294  -19.9725   20.4174 C   0  0  1  0  0  0  0  0  0  0  0  0
    9.3870  -21.3501   20.6460 C   0  0  0  0  0  0  0  0  0  0  0  0
    8.9049  -21.5316   22.0451 C   0  0  0  0  0  0  0  0  0  0  0  0
    7.4272  -21.9333   22.0379 C   0  0  0  0  0  0  0  0  0  0  0  0
    6.9534  -22.1077   23.4629 C   0  0  0  0  0  0  0  0  0  0  0  0
    5.5552  -22.4527   23.4497 N   0  0  0  0  0  0  0  0  0  0  0  0
   10.9881  -19.6713   21.4532 C   0  0  0  0  0  0  0  0  0  0  0  0
   12.1795  -20.1198   21.3782 O   0  0  0  0  0  0  0  0  0  0  0  0
   11.5121  -15.3190   22.2308 N   0  0  0  0  0  0  0  0  0  0  0  0
   12.2619  -16.2702   22.9604 C   0  0  0  0  0  0  0  0  0  0  0  0
   13.4999  -16.3513   22.6482 O   0  0  0  0  0  0  0  0  0  0  0  0
   11.7347  -17.1434   24.0222 C   0  0  0  0  0  0  0  0  0  0  0  0
   11.8083  -18.5667   23.5892 C   0  0  2  0  0  0  0  0  0  0  0  0
   10.7461  -18.8862   22.6178 N   0  0  0  0  0  0  0  0  0  0  0  0
   11.5116  -19.4769   24.7536 C   0  0  0  0  0  0  0  0  0  0  0  0
   10.4598  -20.1327   24.8527 O   0  0  0  0  0  0  0  0  0  0  0  0
   12.4366  -19.6170   25.7907 O   0  0  0  0  0  0  0  0  0  0  0  0
  2  1  1  6
  2  3  1  0
  2  7  1  0
  4  3  1  0
  5  4  1  0
  5  9  1  0
  6  5  2  0
  7 10  1  0
  7  8  2  0
 10 11  1  0
 11 12  1  6
 13 14  1  0
 13 12  1  0
 14 15  1  0
 16 15  1  0
 17 11  1  0
 17 18  2  0
 20 19  1  0
 20 22  1  0
 21 20  2  0
 23 22  1  1
 23 24  1  0
 24 17  1  0
 25 27  1  0
 25 23  1  0
 26 25  2  0
M  END
$$$$
