EKN.pdb
     RDKit          3D

 27 26  0  0  1  0  0  0  0  0999 V2000
    9.4279  -13.2013   18.9960 N   0  0  0  0  0  0  0  0  0  0  0  0
    9.8561  -14.4915   19.3573 C   0  0  1  0  0  0  0  0  0  0  0  0
   11.2864  -14.8136   19.1982 C   0  0  0  0  0  0  0  0  0  0  0  0
   12.2933  -13.9414   19.8322 C   0  0  0  0  0  0  0  0  0  0  0  0
   13.7030  -14.2984   19.6335 C   0  0  0  0  0  0  0  0  0  0  0  0
   14.3151  -14.2161   18.5546 O   0  0  0  0  0  0  0  0  0  0  0  0
    9.3209  -14.8984   20.6914 C   0  0  0  0  0  0  0  0  0  0  0  0
    9.2656  -14.0527   21.6396 O   0  0  0  0  0  0  0  0  0  0  0  0
   14.4000  -14.7634   20.7419 O   0  0  0  0  0  0  0  0  0  0  0  0
    8.8708  -16.2070   20.9377 N   0  0  0  0  0  0  0  0  0  0  0  0
    8.2136  -16.6972   22.1227 C   0  0  1  0  0  0  0  0  0  0  0  0
    7.5832  -18.0890   21.9544 C   0  0  0  0  0  0  0  0  0  0  0  0
    6.9151  -18.5688   23.1979 C   0  0  0  0  0  0  0  0  0  0  0  0
    6.4242  -20.0062   23.0029 C   0  0  0  0  0  0  0  0  0  0  0  0
    5.6658  -20.4430   24.2356 C   0  0  0  0  0  0  0  0  0  0  0  0
    5.3768  -21.8500   24.1301 N   0  0  0  0  0  0  0  0  0  0  0  0
    8.9494  -16.6099   23.3612 C   0  0  0  0  0  0  0  0  0  0  0  0
   10.2134  -16.7785   23.3727 O   0  0  0  0  0  0  0  0  0  0  0  0
    9.2289  -13.6891   28.7311 N   0  0  0  0  0  0  0  0  0  0  0  0
    9.6427  -14.5078   27.6550 C   0  0  0  0  0  0  0  0  0  0  0  0
   10.7578  -15.1125   27.8213 O   0  0  0  0  0  0  0  0  0  0  0  0
    8.9021  -14.7087   26.3984 C   0  0  0  0  0  0  0  0  0  0  0  0
    9.2392  -16.0392   25.8200 C   0  0  2  0  0  0  0  0  0  0  0  0
    8.3977  -16.3418   24.6477 N   0  0  0  0  0  0  0  0  0  0  0  0
    8.8917  -17.1312   26.7993 C   0  0  0  0  0  0  0  0  0  0  0  0
    7.7939  -17.7152   26.8046 O   0  0  0  0  0  0  0  0  0  0  0  0
    9.8198  -17.5345   27.7620 O   0  0  0  0  0  0  0  0  0  0  0  0
  2  1  1  1
  2  3  1  0
  2  7  1  0
  4  3  1  0
  5  4  1  0
  5  9  1  0
  6  5  2  0
  7 10  1  0
  7  8  2  0
 10 11  1  0
 11 12  1  6
 13 14  1  0
 13 12  1  0
 14 15  1  0
 16 15  1  0
 17 11  1  0
 17 18  2  0
 20 19  1  0
 20 22  1  0
 21 20  2  0
 23 22  1  1
 23 24  1  0
 24 17  1  0
 25 27  1  0
 25 23  1  0
 26 25  2  0
M  END
$$$$
