FLE.pdb
     RDKit          3D

 29 29  0  0  1  0  0  0  0  0999 V2000
    8.3494  -15.9430   21.5938 N   0  0  0  0  0  0  0  0  0  0  0  0
    9.6366  -15.5056   22.0330 C   0  0  1  0  0  0  0  0  0  0  0  0
   10.0284  -14.1694   21.4172 C   0  0  0  0  0  0  0  0  0  0  0  0
    9.0179  -13.7544   20.4326 C   0  0  0  0  0  0  0  0  0  0  0  0
    8.0922  -12.8085   20.8163 C   0  0  0  0  0  0  0  0  0  0  0  0
    7.1441  -12.4171   19.8965 C   0  0  0  0  0  0  0  0  0  0  0  0
    7.1310  -12.9622   18.6314 C   0  0  0  0  0  0  0  0  0  0  0  0
    8.0726  -13.9078   18.2785 C   0  0  0  0  0  0  0  0  0  0  0  0
    9.0248  -14.3177   19.1646 C   0  0  0  0  0  0  0  0  0  0  0  0
    9.7203  -15.3867   23.5175 C   0  0  0  0  0  0  0  0  0  0  0  0
   10.8344  -15.3870   24.0972 O   0  0  0  0  0  0  0  0  0  0  0  0
    8.2667  -12.0649   26.4205 C   0  0  0  0  0  0  0  0  0  0  0  0
    7.2110  -13.0244   25.8330 C   0  0  2  0  0  0  0  0  0  0  0  0
    5.8758  -12.4440   26.2199 C   0  0  0  0  0  0  0  0  0  0  0  0
    7.4426  -14.4078   26.3021 C   0  0  0  0  0  0  0  0  0  0  0  0
    8.6941  -15.0884   25.8116 C   0  0  2  0  0  0  0  0  0  0  0  0
    8.5728  -15.2695   24.3365 N   0  0  0  0  0  0  0  0  0  0  0  0
    8.9385  -16.4319   26.3499 C   0  0  0  0  0  0  0  0  0  0  0  0
    8.3780  -16.8074   27.4496 O   0  0  0  0  0  0  0  0  0  0  0  0
    9.7565  -17.4358   25.7822 N   0  0  0  0  0  0  0  0  0  0  0  0
    9.9460  -18.7514   26.4111 C   0  0  1  0  0  0  0  0  0  0  0  0
   10.2911  -19.7780   25.3961 C   0  0  0  0  0  0  0  0  0  0  0  0
   11.6501  -19.5304   24.8093 C   0  0  0  0  0  0  0  0  0  0  0  0
   12.0198  -20.6108   23.8402 C   0  0  0  0  0  0  0  0  0  0  0  0
   11.5771  -21.7526   24.0228 O   0  0  0  0  0  0  0  0  0  0  0  0
   10.9677  -18.5956   27.4495 C   0  0  0  0  0  0  0  0  0  0  0  0
   11.1879  -19.4804   28.3041 O   0  0  0  0  0  0  0  0  0  0  0  0
   12.8348  -20.3122   22.7799 O   0  0  0  0  0  0  0  0  0  0  0  0
   11.7396  -17.4508   27.5281 O   0  0  0  0  0  0  0  0  0  0  0  0
  2  1  1  1
  2  3  1  0
  2 10  1  0
  4  3  1  0
  4  9  2  0
  5  4  1  0
  6  5  2  0
  6  7  1  0
  7  8  2  0
  8  9  1  0
 10 11  2  0
 13 15  1  0
 13 12  1  1
 14 13  1  0
 16 15  1  1
 16 18  1  0
 17 16  1  0
 17 10  1  0
 18 19  2  0
 20 18  1  0
 20 21  1  0
 21 26  1  0
 22 23  1  0
 21 22  1  6
 24 23  1  0
 24 28  1  0
 25 24  2  0
 26 27  2  0
 26 29  1  0
M  END
$$$$
