FLE.pdb
     RDKit          3D

 29 29  0  0  1  0  0  0  0  0999 V2000
    9.6270  -17.9222   20.9232 N   0  0  0  0  0  0  0  0  0  0  0  0
    9.1703  -16.6036   21.2296 C   0  0  1  0  0  0  0  0  0  0  0  0
    7.8853  -16.2562   20.4904 C   0  0  0  0  0  0  0  0  0  0  0  0
    7.7038  -14.7973   20.4569 C   0  0  0  0  0  0  0  0  0  0  0  0
    6.6087  -14.2674   21.1042 C   0  0  0  0  0  0  0  0  0  0  0  0
    6.4356  -12.9008   21.0752 C   0  0  0  0  0  0  0  0  0  0  0  0
    7.3378  -12.0960   20.4149 C   0  0  0  0  0  0  0  0  0  0  0  0
    8.4246  -12.6584   19.7763 C   0  0  0  0  0  0  0  0  0  0  0  0
    8.6259  -14.0072   19.7854 C   0  0  0  0  0  0  0  0  0  0  0  0
    8.9456  -16.4054   22.6908 C   0  0  0  0  0  0  0  0  0  0  0  0
    9.3542  -17.2541   23.5215 O   0  0  0  0  0  0  0  0  0  0  0  0
    6.1760  -12.4755   26.6381 C   0  0  0  0  0  0  0  0  0  0  0  0
    7.3755  -13.4145   26.3939 C   0  0  2  0  0  0  0  0  0  0  0  0
    8.5917  -12.6410   26.8323 C   0  0  0  0  0  0  0  0  0  0  0  0
    7.4065  -13.8686   24.9866 C   0  0  0  0  0  0  0  0  0  0  0  0
    8.5287  -14.7963   24.5993 C   0  0  2  0  0  0  0  0  0  0  0  0
    8.2738  -15.2739   23.2098 N   0  0  0  0  0  0  0  0  0  0  0  0
    8.6560  -16.0123   25.4116 C   0  0  0  0  0  0  0  0  0  0  0  0
    7.6192  -16.7327   25.6768 O   0  0  0  0  0  0  0  0  0  0  0  0
    9.8436  -16.5347   25.9738 N   0  0  0  0  0  0  0  0  0  0  0  0
    9.8648  -17.7704   26.7706 C   0  0  1  0  0  0  0  0  0  0  0  0
   10.6617  -18.8233   26.0925 C   0  0  0  0  0  0  0  0  0  0  0  0
   10.7666  -20.0584   26.9386 C   0  0  0  0  0  0  0  0  0  0  0  0
   11.5744  -21.1137   26.2477 C   0  0  0  0  0  0  0  0  0  0  0  0
   12.7934  -21.1647   26.4585 O   0  0  0  0  0  0  0  0  0  0  0  0
   10.3731  -17.4237   28.1001 C   0  0  0  0  0  0  0  0  0  0  0  0
   10.8638  -16.3024   28.3531 O   0  0  0  0  0  0  0  0  0  0  0  0
   10.9491  -21.9930   25.4033 O   0  0  0  0  0  0  0  0  0  0  0  0
   10.3307  -18.3320   29.1421 O   0  0  0  0  0  0  0  0  0  0  0  0
  2  1  1  1
  2  3  1  0
  2 10  1  0
  4  3  1  0
  4  9  2  0
  5  4  1  0
  6  5  2  0
  6  7  1  0
  7  8  2  0
  8  9  1  0
 10 11  2  0
 13 15  1  0
 13 12  1  6
 14 13  1  0
 16 15  1  1
 16 18  1  0
 17 16  1  0
 17 10  1  0
 18 19  2  0
 20 18  1  0
 20 21  1  0
 21 26  1  0
 22 23  1  0
 21 22  1  6
 24 23  1  0
 24 28  1  0
 25 24  2  0
 26 27  2  0
 26 29  1  0
M  END
$$$$
