FLE.pdb
     RDKit          3D

 29 29  0  0  1  0  0  0  0  0999 V2000
    6.3753  -17.1455   25.7665 N   0  0  0  0  0  0  0  0  0  0  0  0
    7.0431  -16.0503   25.1375 C   0  0  1  0  0  0  0  0  0  0  0  0
    8.0844  -15.4147   26.0485 C   0  0  0  0  0  0  0  0  0  0  0  0
    7.6723  -14.0491   26.4062 C   0  0  0  0  0  0  0  0  0  0  0  0
    6.3975  -13.6495   26.0684 C   0  0  0  0  0  0  0  0  0  0  0  0
    6.0077  -12.3709   26.4022 C   0  0  0  0  0  0  0  0  0  0  0  0
    6.8758  -11.5239   27.0554 C   0  0  0  0  0  0  0  0  0  0  0  0
    8.1463  -11.9550   27.3797 C   0  0  0  0  0  0  0  0  0  0  0  0
    8.5642  -13.2142   27.0640 C   0  0  0  0  0  0  0  0  0  0  0  0
    7.7070  -16.4466   23.8620 C   0  0  0  0  0  0  0  0  0  0  0  0
    7.8741  -17.6585   23.5777 O   0  0  0  0  0  0  0  0  0  0  0  0
    6.4336  -14.1833   20.4467 C   0  0  0  0  0  0  0  0  0  0  0  0
    7.8132  -13.6639   20.9019 C   0  0  2  0  0  0  0  0  0  0  0  0
    8.0529  -12.4039   20.1118 C   0  0  0  0  0  0  0  0  0  0  0  0
    8.8476  -14.7070   20.7302 C   0  0  0  0  0  0  0  0  0  0  0  0
    8.7307  -15.9270   21.6065 C   0  0  2  0  0  0  0  0  0  0  0  0
    8.1752  -15.4985   22.9223 N   0  0  0  0  0  0  0  0  0  0  0  0
    9.9934  -16.6067   21.9199 C   0  0  0  0  0  0  0  0  0  0  0  0
   10.5252  -17.4211   21.0723 O   0  0  0  0  0  0  0  0  0  0  0  0
   10.7558  -16.4737   23.1032 N   0  0  0  0  0  0  0  0  0  0  0  0
   12.0652  -17.1196   23.2776 C   0  0  1  0  0  0  0  0  0  0  0  0
   13.0501  -16.5906   22.3012 C   0  0  0  0  0  0  0  0  0  0  0  0
   13.9837  -15.6079   22.9455 C   0  0  0  0  0  0  0  0  0  0  0  0
   15.2838  -15.5396   22.2048 C   0  0  0  0  0  0  0  0  0  0  0  0
   15.9872  -16.5565   22.1403 O   0  0  0  0  0  0  0  0  0  0  0  0
   12.4671  -16.9217   24.6725 C   0  0  0  0  0  0  0  0  0  0  0  0
   13.5267  -17.3978   25.1334 O   0  0  0  0  0  0  0  0  0  0  0  0
   15.6621  -14.3602   21.6191 O   0  0  0  0  0  0  0  0  0  0  0  0
   11.6826  -16.1918   25.5468 O   0  0  0  0  0  0  0  0  0  0  0  0
  2  1  1  1
  2  3  1  0
  2 10  1  0
  4  3  1  0
  4  9  2  0
  5  4  1  0
  6  5  2  0
  6  7  1  0
  7  8  2  0
  8  9  1  0
 10 11  2  0
 13 15  1  0
 13 12  1  6
 14 13  1  0
 16 15  1  6
 16 18  1  0
 17 16  1  0
 17 10  1  0
 18 19  2  0
 20 18  1  0
 20 21  1  0
 21 26  1  0
 22 23  1  0
 21 22  1  6
 24 23  1  0
 24 28  1  0
 25 24  2  0
 26 27  2  0
 26 29  1  0
M  END
$$$$
