FLE.pdb
     RDKit          3D

 29 29  0  0  1  0  0  0  0  0999 V2000
    5.7149  -17.5460   25.1088 N   0  0  0  0  0  0  0  0  0  0  0  0
    6.4231  -16.3075   25.0347 C   0  0  1  0  0  0  0  0  0  0  0  0
    6.9669  -15.8766   26.3900 C   0  0  0  0  0  0  0  0  0  0  0  0
    6.8800  -14.4148   26.5244 C   0  0  0  0  0  0  0  0  0  0  0  0
    8.0518  -13.7115   26.7017 C   0  0  0  0  0  0  0  0  0  0  0  0
    7.9743  -12.3416   26.8277 C   0  0  0  0  0  0  0  0  0  0  0  0
    6.7548  -11.7031   26.7764 C   0  0  0  0  0  0  0  0  0  0  0  0
    5.5994  -12.4369   26.5977 C   0  0  0  0  0  0  0  0  0  0  0  0
    5.6403  -13.7940   26.4695 C   0  0  0  0  0  0  0  0  0  0  0  0
    7.5540  -16.3569   24.0635 C   0  0  0  0  0  0  0  0  0  0  0  0
    8.2156  -17.4127   23.9056 O   0  0  0  0  0  0  0  0  0  0  0  0
    6.9983  -14.6296   19.9177 C   0  0  0  0  0  0  0  0  0  0  0  0
    7.6085  -13.6284   20.9205 C   0  0  2  0  0  0  0  0  0  0  0  0
    7.6283  -12.3015   20.2074 C   0  0  0  0  0  0  0  0  0  0  0  0
    8.9305  -14.0974   21.3893 C   0  0  0  0  0  0  0  0  0  0  0  0
    8.9501  -15.3683   22.1983 C   0  0  2  0  0  0  0  0  0  0  0  0
    7.9352  -15.2402   23.2833 N   0  0  0  0  0  0  0  0  0  0  0  0
   10.2146  -15.6666   22.8813 C   0  0  0  0  0  0  0  0  0  0  0  0
   10.6156  -14.9330   23.8639 O   0  0  0  0  0  0  0  0  0  0  0  0
   11.1066  -16.7239   22.5884 N   0  0  0  0  0  0  0  0  0  0  0  0
   12.3550  -16.9358   23.3358 C   0  0  1  0  0  0  0  0  0  0  0  0
   12.7158  -18.3754   23.3653 C   0  0  0  0  0  0  0  0  0  0  0  0
   12.8098  -18.9432   21.9792 C   0  0  0  0  0  0  0  0  0  0  0  0
   13.2197  -20.3833   22.0172 C   0  0  0  0  0  0  0  0  0  0  0  0
   13.3046  -21.0072   20.9511 O   0  0  0  0  0  0  0  0  0  0  0  0
   13.3818  -16.0928   22.7181 C   0  0  0  0  0  0  0  0  0  0  0  0
   14.5127  -15.9408   23.2277 O   0  0  0  0  0  0  0  0  0  0  0  0
   13.4896  -20.9734   23.2240 O   0  0  0  0  0  0  0  0  0  0  0  0
   13.1401  -15.4230   21.5325 O   0  0  0  0  0  0  0  0  0  0  0  0
  2  1  1  1
  2  3  1  0
  2 10  1  0
  4  3  1  0
  4  9  2  0
  5  4  1  0
  6  5  2  0
  6  7  1  0
  7  8  2  0
  8  9  1  0
 10 11  2  0
 13 15  1  0
 13 12  1  6
 14 13  1  0
 16 15  1  1
 16 18  1  0
 17 16  1  0
 17 10  1  0
 18 19  2  0
 20 18  1  0
 20 21  1  0
 21 26  1  0
 22 23  1  0
 21 22  1  6
 24 23  1  0
 24 28  1  0
 25 24  2  0
 26 27  2  0
 26 29  1  0
M  END
$$$$
