LDC.pdb
     RDKit          3D

 23 22  0  0  1  0  0  0  0  0999 V2000
   23.2708  -11.6912  -14.3980 C   0  0  0  0  0  0  0  0  0  0  0  0
   22.7632  -11.0461  -15.6422 C   0  0  2  0  0  0  0  0  0  0  0  0
   23.9731  -10.7298  -16.5307 C   0  0  0  0  0  0  0  0  0  0  0  0
   21.9476   -9.8127  -15.4370 C   0  0  0  0  0  0  0  0  0  0  0  0
   20.7549  -10.0857  -14.5793 C   0  0  2  0  0  0  0  0  0  0  0  0
   19.8356  -10.9685  -15.2570 N   0  0  0  0  0  0  0  0  0  0  0  0
   20.0532   -8.8229  -14.1832 C   0  0  0  0  0  0  0  0  0  0  0  0
   19.3663   -8.2417  -15.0461 O   0  0  0  0  0  0  0  0  0  0  0  0
   20.1312   -8.2642  -12.8915 N   0  0  0  0  0  0  0  0  0  0  0  0
   19.4325   -6.9711  -12.5556 C   0  0  1  0  0  0  0  0  0  0  0  0
   19.1126   -7.0495  -11.0968 C   0  0  0  0  0  0  0  0  0  0  0  0
   18.3097   -5.9980  -10.5493 C   0  0  0  0  0  0  0  0  0  0  0  0
   17.7712   -5.0040  -11.0738 O   0  0  0  0  0  0  0  0  0  0  0  0
   20.3611   -5.8938  -12.9131 C   0  0  0  0  0  0  0  0  0  0  0  0
   21.5477   -5.8525  -12.4237 O   0  0  0  0  0  0  0  0  0  0  0  0
   18.0666   -6.0814   -9.1412 O   0  0  0  0  0  0  0  0  0  0  0  0
   20.0685   -4.8405  -13.7978 N   0  0  0  0  0  0  0  0  0  0  0  0
   21.0652   -3.8308  -14.1552 C   0  0  1  0  0  0  0  0  0  0  0  0
   21.2531   -3.8917  -15.6415 C   0  0  0  0  0  0  0  0  0  0  0  0
   21.8012   -5.5073  -16.2086 S   0  0  0  0  0  0  0  0  0  0  0  0
   20.5203   -2.4870  -13.7739 C   0  0  0  0  0  0  0  0  0  0  0  0
   21.3055   -1.3485  -13.8118 O   0  0  0  0  0  0  0  0  0  0  0  0
   19.3160   -2.3606  -13.4044 O   0  0  0  0  0  0  0  0  0  0  0  0
  2  1  1  1
  2  3  1  0
  4  2  1  0
  5  4  1  0
  5  7  1  0
  5  6  1  6
  7  9  1  0
  7  8  2  0
  9 10  1  0
 10 11  1  1
 12 11  1  0
 12 16  1  0
 13 12  2  0
 14 17  1  0
 14 10  1  0
 15 14  2  0
 18 21  1  0
 18 17  1  0
 18 19  1  6
 20 19  1  0
 21 22  1  0
 23 21  2  0
M  END
$$$$
