LDC.pdb
     RDKit          3D

 23 22  0  0  1  0  0  0  0  0999 V2000
   19.2056  -17.2211  -15.4781 C   0  0  0  0  0  0  0  0  0  0  0  0
   20.6780  -17.0665  -15.3059 C   0  0  2  0  0  0  0  0  0  0  0  0
   21.0218  -17.4520  -13.8613 C   0  0  0  0  0  0  0  0  0  0  0  0
   21.2195  -15.7094  -15.6118 C   0  0  0  0  0  0  0  0  0  0  0  0
   20.8435  -15.2717  -16.9901 C   0  0  2  0  0  0  0  0  0  0  0  0
   21.5046  -16.0898  -17.9788 N   0  0  0  0  0  0  0  0  0  0  0  0
   21.1657  -13.8275  -17.2230 C   0  0  0  0  0  0  0  0  0  0  0  0
   22.3540  -13.5232  -17.4456 O   0  0  0  0  0  0  0  0  0  0  0  0
   20.1975  -12.8033  -17.2030 N   0  0  0  0  0  0  0  0  0  0  0  0
   20.5799  -11.3616  -17.4228 C   0  0  1  0  0  0  0  0  0  0  0  0
   19.4977  -10.7800  -18.2755 C   0  0  0  0  0  0  0  0  0  0  0  0
   19.5961   -9.3868  -18.5912 C   0  0  0  0  0  0  0  0  0  0  0  0
   18.7292   -8.5299  -18.8507 O   0  0  0  0  0  0  0  0  0  0  0  0
   20.6915  -10.7555  -16.0920 C   0  0  0  0  0  0  0  0  0  0  0  0
   19.7730  -10.9207  -15.2097 O   0  0  0  0  0  0  0  0  0  0  0  0
   20.9254   -8.8568  -18.6208 O   0  0  0  0  0  0  0  0  0  0  0  0
   21.7726   -9.9696  -15.6544 N   0  0  0  0  0  0  0  0  0  0  0  0
   21.7780   -9.3235  -14.3417 C   0  0  1  0  0  0  0  0  0  0  0  0
   23.1912   -9.3364  -13.8408 C   0  0  0  0  0  0  0  0  0  0  0  0
   23.7711  -10.9890  -13.4347 S   0  0  0  0  0  0  0  0  0  0  0  0
   21.3232   -7.9062  -14.5213 C   0  0  0  0  0  0  0  0  0  0  0  0
   20.8879   -7.1431  -13.4525 O   0  0  0  0  0  0  0  0  0  0  0  0
   21.3268   -7.3681  -15.6674 O   0  0  0  0  0  0  0  0  0  0  0  0
  2  1  1  1
  2  3  1  0
  4  2  1  0
  5  4  1  0
  5  7  1  0
  5  6  1  6
  7  9  1  0
  7  8  2  0
  9 10  1  0
 10 11  1  6
 12 11  1  0
 12 16  1  0
 13 12  2  0
 14 17  1  0
 14 10  1  0
 15 14  2  0
 18 21  1  0
 18 17  1  0
 18 19  1  6
 20 19  1  0
 21 22  1  0
 23 21  2  0
M  END
$$$$
