LDC.pdb
     RDKit          3D

 23 22  0  0  1  0  0  0  0  0999 V2000
   10.9443  -12.2725  -13.2930 C   0  0  0  0  0  0  0  0  0  0  0  0
   11.4801  -13.1631  -12.2246 C   0  0  2  0  0  0  0  0  0  0  0  0
   10.3707  -13.3629  -11.1839 C   0  0  0  0  0  0  0  0  0  0  0  0
   12.7242  -12.6822  -11.5544 C   0  0  0  0  0  0  0  0  0  0  0  0
   13.8229  -12.4591  -12.5423 C   0  0  2  0  0  0  0  0  0  0  0  0
   14.3920  -13.7185  -12.9591 N   0  0  0  0  0  0  0  0  0  0  0  0
   14.8956  -11.5707  -11.9910 C   0  0  0  0  0  0  0  0  0  0  0  0
   15.5560  -11.9873  -11.0191 O   0  0  0  0  0  0  0  0  0  0  0  0
   15.1924  -10.2959  -12.5140 N   0  0  0  0  0  0  0  0  0  0  0  0
   16.3232   -9.4672  -11.9594 C   0  0  1  0  0  0  0  0  0  0  0  0
   17.1243   -9.0290  -13.1437 C   0  0  0  0  0  0  0  0  0  0  0  0
   18.2814   -8.2262  -12.8856 C   0  0  0  0  0  0  0  0  0  0  0  0
   18.7958   -7.8265  -11.8232 O   0  0  0  0  0  0  0  0  0  0  0  0
   15.7032   -8.3696  -11.2101 C   0  0  0  0  0  0  0  0  0  0  0  0
   14.7062   -7.7189  -11.6917 O   0  0  0  0  0  0  0  0  0  0  0  0
   18.9965   -7.7895  -14.0461 O   0  0  0  0  0  0  0  0  0  0  0  0
   16.1099   -7.9354   -9.9358 N   0  0  0  0  0  0  0  0  0  0  0  0
   15.5000   -6.7772   -9.2820 C   0  0  1  0  0  0  0  0  0  0  0  0
   15.4070   -7.0856   -7.8176 C   0  0  0  0  0  0  0  0  0  0  0  0
   14.7766   -5.7050   -6.8538 S   0  0  0  0  0  0  0  0  0  0  0  0
   16.4041   -5.5992   -9.4892 C   0  0  0  0  0  0  0  0  0  0  0  0
   15.9057   -4.3138   -9.6045 O   0  0  0  0  0  0  0  0  0  0  0  0
   17.6585   -5.7543   -9.5644 O   0  0  0  0  0  0  0  0  0  0  0  0
  2  1  1  6
  2  3  1  0
  4  2  1  0
  5  4  1  0
  5  7  1  0
  5  6  1  1
  7  9  1  0
  7  8  2  0
  9 10  1  0
 10 11  1  6
 12 11  1  0
 12 16  1  0
 13 12  2  0
 14 17  1  0
 14 10  1  0
 15 14  2  0
 18 21  1  0
 18 17  1  0
 18 19  1  1
 20 19  1  0
 21 22  1  0
 23 21  2  0
M  END
$$$$
