LDC.pdb
     RDKit          3D

 23 22  0  0  1  0  0  0  0  0999 V2000
   18.1490  -14.3648  -15.6390 C   0  0  0  0  0  0  0  0  0  0  0  0
   19.6046  -14.1200  -15.8464 C   0  0  2  0  0  0  0  0  0  0  0  0
   20.3365  -14.5486  -14.5680 C   0  0  0  0  0  0  0  0  0  0  0  0
   19.9744  -12.7169  -16.1970 C   0  0  0  0  0  0  0  0  0  0  0  0
   19.2971  -12.2735  -17.4529 C   0  0  2  0  0  0  0  0  0  0  0  0
   19.8640  -12.9453  -18.5979 N   0  0  0  0  0  0  0  0  0  0  0  0
   19.3817  -10.7893  -17.6370 C   0  0  0  0  0  0  0  0  0  0  0  0
   20.4506  -10.3149  -18.0691 O   0  0  0  0  0  0  0  0  0  0  0  0
   18.3190   -9.9096  -17.3478 N   0  0  0  0  0  0  0  0  0  0  0  0
   18.4687   -8.4193  -17.5209 C   0  0  1  0  0  0  0  0  0  0  0  0
   17.0919   -7.9016  -17.7906 C   0  0  0  0  0  0  0  0  0  0  0  0
   16.9407   -6.4822  -17.9019 C   0  0  0  0  0  0  0  0  0  0  0  0
   15.9740   -5.7288  -17.6757 O   0  0  0  0  0  0  0  0  0  0  0  0
   19.0707   -7.9170  -16.2816 C   0  0  0  0  0  0  0  0  0  0  0  0
   18.7233   -8.3876  -15.1383 O   0  0  0  0  0  0  0  0  0  0  0  0
   18.0999   -5.7753  -18.3549 O   0  0  0  0  0  0  0  0  0  0  0  0
   20.0562   -6.9159  -16.2145 N   0  0  0  0  0  0  0  0  0  0  0  0
   20.5822   -6.4325  -14.9376 C   0  0  1  0  0  0  0  0  0  0  0  0
   22.0013   -6.9040  -14.8292 C   0  0  0  0  0  0  0  0  0  0  0  0
   22.8675   -6.1889  -13.4253 S   0  0  0  0  0  0  0  0  0  0  0  0
   20.5530   -4.9336  -14.9626 C   0  0  0  0  0  0  0  0  0  0  0  0
   20.4289   -4.1911  -13.8018 O   0  0  0  0  0  0  0  0  0  0  0  0
   20.6423   -4.3050  -16.0580 O   0  0  0  0  0  0  0  0  0  0  0  0
  2  1  1  1
  2  3  1  0
  4  2  1  0
  5  4  1  0
  5  7  1  0
  5  6  1  6
  7  9  1  0
  7  8  2  0
  9 10  1  0
 10 11  1  1
 12 11  1  0
 12 16  1  0
 13 12  2  0
 14 17  1  0
 14 10  1  0
 15 14  2  0
 18 21  1  0
 18 17  1  0
 18 19  1  6
 20 19  1  0
 21 22  1  0
 23 21  2  0
M  END
$$$$
