LDC.pdb
     RDKit          3D

 23 22  0  0  1  0  0  0  0  0999 V2000
   19.2069  -12.7064  -15.0585 C   0  0  0  0  0  0  0  0  0  0  0  0
   17.9460  -12.2765  -15.7272 C   0  0  2  0  0  0  0  0  0  0  0  0
   18.2238  -12.1871  -17.2333 C   0  0  0  0  0  0  0  0  0  0  0  0
   17.3698  -10.9885  -15.2399 C   0  0  0  0  0  0  0  0  0  0  0  0
   17.0723  -11.0448  -13.7766 C   0  0  2  0  0  0  0  0  0  0  0  0
   16.0641  -12.0412  -13.5032 N   0  0  0  0  0  0  0  0  0  0  0  0
   16.6337   -9.7145  -13.2460 C   0  0  0  0  0  0  0  0  0  0  0  0
   15.5925   -9.2137  -13.7146 O   0  0  0  0  0  0  0  0  0  0  0  0
   17.3358   -9.0065  -12.2497 N   0  0  0  0  0  0  0  0  0  0  0  0
   16.8705   -7.6522  -11.7780 C   0  0  1  0  0  0  0  0  0  0  0  0
   17.4218   -7.4917  -10.3972 C   0  0  0  0  0  0  0  0  0  0  0  0
   16.9260   -6.3947   -9.6221 C   0  0  0  0  0  0  0  0  0  0  0  0
   17.1994   -5.9981   -8.4727 O   0  0  0  0  0  0  0  0  0  0  0  0
   17.3802   -6.6783  -12.7488 C   0  0  0  0  0  0  0  0  0  0  0  0
   18.6275   -6.6356  -13.0518 O   0  0  0  0  0  0  0  0  0  0  0  0
   15.9313   -5.5900  -10.2639 O   0  0  0  0  0  0  0  0  0  0  0  0
   16.5920   -5.7329  -13.4290 N   0  0  0  0  0  0  0  0  0  0  0  0
   17.1622   -4.8192  -14.4194 C   0  0  1  0  0  0  0  0  0  0  0  0
   16.2840   -4.8683  -15.6336 C   0  0  0  0  0  0  0  0  0  0  0  0
   16.4520   -6.4042  -16.5529 S   0  0  0  0  0  0  0  0  0  0  0  0
   17.1395   -3.4363  -13.8406 C   0  0  0  0  0  0  0  0  0  0  0  0
   17.9818   -2.4417  -14.3048 O   0  0  0  0  0  0  0  0  0  0  0  0
   16.3406   -3.1424  -12.9033 O   0  0  0  0  0  0  0  0  0  0  0  0
  2  1  1  1
  2  3  1  0
  4  2  1  0
  5  4  1  0
  5  7  1  0
  5  6  1  6
  7  9  1  0
  7  8  2  0
  9 10  1  0
 10 11  1  1
 12 11  1  0
 12 16  1  0
 13 12  2  0
 14 17  1  0
 14 10  1  0
 15 14  2  0
 18 21  1  0
 18 17  1  0
 18 19  1  6
 20 19  1  0
 21 22  1  0
 23 21  2  0
M  END
$$$$
