LDC.pdb
     RDKit          3D

 23 22  0  0  1  0  0  0  0  0999 V2000
   28.9530  -20.6427  -16.5889 C   0  0  0  0  0  0  0  0  0  0  0  0
   27.9743  -19.8510  -17.3870 C   0  0  2  0  0  0  0  0  0  0  0  0
   28.7698  -18.9007  -18.2912 C   0  0  0  0  0  0  0  0  0  0  0  0
   26.9758  -19.0777  -16.5912 C   0  0  0  0  0  0  0  0  0  0  0  0
   26.1616  -19.9768  -15.7185 C   0  0  2  0  0  0  0  0  0  0  0  0
   25.9370  -21.2457  -16.3690 N   0  0  0  0  0  0  0  0  0  0  0  0
   24.8513  -19.3540  -15.3459 C   0  0  0  0  0  0  0  0  0  0  0  0
   24.8735  -18.2496  -14.7678 O   0  0  0  0  0  0  0  0  0  0  0  0
   23.6035  -19.9515  -15.6154 N   0  0  0  0  0  0  0  0  0  0  0  0
   22.3119  -19.2525  -15.2741 C   0  0  1  0  0  0  0  0  0  0  0  0
   21.4628  -19.3463  -16.5015 C   0  0  0  0  0  0  0  0  0  0  0  0
   20.1333  -18.8219  -16.4146 C   0  0  0  0  0  0  0  0  0  0  0  0
   19.1398  -18.9476  -17.1565 O   0  0  0  0  0  0  0  0  0  0  0  0
   21.7621  -19.9465  -14.1050 C   0  0  0  0  0  0  0  0  0  0  0  0
   21.7748  -21.2285  -14.0290 O   0  0  0  0  0  0  0  0  0  0  0  0
   19.8723  -17.9975  -15.2740 O   0  0  0  0  0  0  0  0  0  0  0  0
   21.1942  -19.3112  -12.9862 N   0  0  0  0  0  0  0  0  0  0  0  0
   20.6420  -20.0695  -11.8633 C   0  0  1  0  0  0  0  0  0  0  0  0
   21.0947  -19.3974  -10.6018 C   0  0  0  0  0  0  0  0  0  0  0  0
   20.3658  -20.1218   -9.1266 S   0  0  0  0  0  0  0  0  0  0  0  0
   19.1467  -20.0088  -11.9544 C   0  0  0  0  0  0  0  0  0  0  0  0
   18.3523  -21.0703  -11.5590 O   0  0  0  0  0  0  0  0  0  0  0  0
   18.5691  -18.9739  -12.3997 O   0  0  0  0  0  0  0  0  0  0  0  0
  2  1  1  1
  2  3  1  0
  4  2  1  0
  5  4  1  0
  5  7  1  0
  5  6  1  6
  7  9  1  0
  7  8  2  0
  9 10  1  0
 10 11  1  6
 12 11  1  0
 12 16  1  0
 13 12  2  0
 14 17  1  0
 14 10  1  0
 15 14  2  0
 18 21  1  0
 18 17  1  0
 18 19  1  1
 20 19  1  0
 21 22  1  0
 23 21  2  0
M  END
$$$$
