LDC.pdb
     RDKit          3D

 23 22  0  0  1  0  0  0  0  0999 V2000
   21.5348  -13.9804  -18.1913 C   0  0  0  0  0  0  0  0  0  0  0  0
   20.1422  -13.5729  -18.5327 C   0  0  2  0  0  0  0  0  0  0  0  0
   19.9300  -13.8439  -20.0277 C   0  0  0  0  0  0  0  0  0  0  0  0
   19.7949  -12.1553  -18.2193 C   0  0  0  0  0  0  0  0  0  0  0  0
   19.9634  -11.8629  -16.7637 C   0  0  2  0  0  0  0  0  0  0  0  0
   19.1080  -12.7162  -15.9738 N   0  0  0  0  0  0  0  0  0  0  0  0
   19.6837  -10.4255  -16.4485 C   0  0  0  0  0  0  0  0  0  0  0  0
   20.2074   -9.5566  -17.1731 O   0  0  0  0  0  0  0  0  0  0  0  0
   18.8630  -10.0107  -15.3802 N   0  0  0  0  0  0  0  0  0  0  0  0
   18.5799   -8.5506  -15.1331 C   0  0  1  0  0  0  0  0  0  0  0  0
   17.3299   -8.5125  -14.3131 C   0  0  0  0  0  0  0  0  0  0  0  0
   16.1179   -8.9237  -14.9551 C   0  0  0  0  0  0  0  0  0  0  0  0
   15.3198   -9.8489  -14.7099 O   0  0  0  0  0  0  0  0  0  0  0  0
   19.7627   -8.0083  -14.4566 C   0  0  0  0  0  0  0  0  0  0  0  0
   20.6157   -8.7837  -13.8905 O   0  0  0  0  0  0  0  0  0  0  0  0
   15.7301   -8.1439  -16.0910 O   0  0  0  0  0  0  0  0  0  0  0  0
   20.0812   -6.6415  -14.3658 N   0  0  0  0  0  0  0  0  0  0  0  0
   21.4407   -6.1812  -14.0819 C   0  0  1  0  0  0  0  0  0  0  0  0
   22.3121   -6.6269  -15.2177 C   0  0  0  0  0  0  0  0  0  0  0  0
   23.9498   -5.8866  -15.1711 S   0  0  0  0  0  0  0  0  0  0  0  0
   21.4198   -4.6831  -14.0248 C   0  0  0  0  0  0  0  0  0  0  0  0
   20.5804   -3.9381  -14.8339 O   0  0  0  0  0  0  0  0  0  0  0  0
   22.1776   -4.0574  -13.2266 O   0  0  0  0  0  0  0  0  0  0  0  0
  2  1  1  6
  2  3  1  0
  4  2  1  0
  5  4  1  0
  5  7  1  0
  5  6  1  1
  7  9  1  0
  7  8  2  0
  9 10  1  0
 10 11  1  1
 12 11  1  0
 12 16  1  0
 13 12  2  0
 14 17  1  0
 14 10  1  0
 15 14  2  0
 18 21  1  0
 18 17  1  0
 18 19  1  6
 20 19  1  0
 21 22  1  0
 23 21  2  0
M  END
$$$$
