TTC.pdb
     RDKit          3D

 21 20  0  0  1  0  0  0  0  0999 V2000
   15.6025  -11.2913  -15.9267 C   0  0  0  0  0  0  0  0  0  0  0  0
   16.0083  -12.7531  -15.8634 C   0  0  1  0  0  0  0  0  0  0  0  0
   14.9002  -13.5009  -16.2583 O   0  0  0  0  0  0  0  0  0  0  0  0
   17.1462  -13.0241  -16.8242 C   0  0  2  0  0  0  0  0  0  0  0  0
   17.4223  -14.4448  -16.7580 N   0  0  0  0  0  0  0  0  0  0  0  0
   18.3764  -12.2919  -16.4472 C   0  0  0  0  0  0  0  0  0  0  0  0
   19.0897  -12.6280  -15.4682 O   0  0  0  0  0  0  0  0  0  0  0  0
   21.7242   -9.0371  -18.0999 C   0  0  0  0  0  0  0  0  0  0  0  0
   20.5401   -9.9608  -18.2810 C   0  0  1  0  0  0  0  0  0  0  0  0
   21.0064  -11.1419  -18.8574 O   0  0  0  0  0  0  0  0  0  0  0  0
   19.9439  -10.3609  -16.9247 C   0  0  2  0  0  0  0  0  0  0  0  0
   18.7948  -11.1639  -17.1978 N   0  0  0  0  0  0  0  0  0  0  0  0
   19.6964   -9.1995  -16.0745 C   0  0  0  0  0  0  0  0  0  0  0  0
   18.8086   -8.3811  -16.4202 O   0  0  0  0  0  0  0  0  0  0  0  0
   20.3891   -8.9159  -14.8692 N   0  0  0  0  0  0  0  0  0  0  0  0
   20.0613   -7.7234  -14.1155 C   0  0  1  0  0  0  0  0  0  0  0  0
   20.3962   -7.8477  -12.6523 C   0  0  0  0  0  0  0  0  0  0  0  0
   19.2632   -9.0750  -11.9379 S   0  0  0  0  0  0  0  0  0  0  0  0
   20.8267   -6.5474  -14.6432 C   0  0  0  0  0  0  0  0  0  0  0  0
   21.7798   -6.7703  -15.6203 O   0  0  0  0  0  0  0  0  0  0  0  0
   20.6053   -5.4058  -14.2096 O   0  0  0  0  0  0  0  0  0  0  0  0
  2  1  1  6
  3  2  1  0
  4  2  1  0
  4  5  1  1
  4  6  1  0
  6  7  2  0
  9  8  1  1
  9 10  1  0
  9 11  1  0
 11 13  1  0
 12  6  1  0
 11 12  1  6
 13 15  1  0
 13 14  2  0
 15 16  1  0
 16 19  1  0
 16 17  1  1
 18 17  1  0
 19 20  1  0
 21 19  2  0
M  END
$$$$
