TTC.pdb
     RDKit          3D

 21 20  0  0  1  0  0  0  0  0999 V2000
   22.4738  -11.4947  -14.3427 C   0  0  0  0  0  0  0  0  0  0  0  0
   22.6626  -12.1525  -15.6982 C   0  0  1  0  0  0  0  0  0  0  0  0
   22.9656  -13.4925  -15.4621 O   0  0  0  0  0  0  0  0  0  0  0  0
   21.3816  -12.0772  -16.5012 C   0  0  2  0  0  0  0  0  0  0  0  0
   21.6056  -12.8270  -17.7204 N   0  0  0  0  0  0  0  0  0  0  0  0
   21.0375  -10.6845  -16.8667 C   0  0  0  0  0  0  0  0  0  0  0  0
   21.7460   -9.9949  -17.6431 O   0  0  0  0  0  0  0  0  0  0  0  0
   17.4715   -7.2486  -16.7568 C   0  0  0  0  0  0  0  0  0  0  0  0
   17.9729   -8.6714  -16.6455 C   0  0  1  0  0  0  0  0  0  0  0  0
   17.6872   -9.3182  -17.8475 O   0  0  0  0  0  0  0  0  0  0  0  0
   19.5004   -8.7050  -16.5020 C   0  0  2  0  0  0  0  0  0  0  0  0
   19.8712  -10.0746  -16.3388 N   0  0  0  0  0  0  0  0  0  0  0  0
   19.9683   -7.8099  -15.4471 C   0  0  0  0  0  0  0  0  0  0  0  0
   19.8567   -8.1806  -14.2524 O   0  0  0  0  0  0  0  0  0  0  0  0
   20.5486   -6.5339  -15.6662 N   0  0  0  0  0  0  0  0  0  0  0  0
   20.9188   -5.7089  -14.5348 C   0  0  1  0  0  0  0  0  0  0  0  0
   22.3835   -5.3585  -14.5229 C   0  0  0  0  0  0  0  0  0  0  0  0
   22.6619   -4.2344  -13.1231 S   0  0  0  0  0  0  0  0  0  0  0  0
   20.1581   -4.4174  -14.5614 C   0  0  0  0  0  0  0  0  0  0  0  0
   19.7140   -3.8933  -13.3610 O   0  0  0  0  0  0  0  0  0  0  0  0
   19.9362   -3.8390  -15.6367 O   0  0  0  0  0  0  0  0  0  0  0  0
  2  1  1  1
  3  2  1  0
  4  2  1  0
  4  5  1  6
  4  6  1  0
  6  7  2  0
  9  8  1  6
  9 10  1  0
  9 11  1  0
 11 13  1  0
 12  6  1  0
 11 12  1  1
 13 15  1  0
 13 14  2  0
 15 16  1  0
 16 19  1  0
 16 17  1  6
 18 17  1  0
 19 20  1  0
 21 19  2  0
M  END
$$$$
