TTC.pdb
     RDKit          3D

 21 20  0  0  1  0  0  0  0  0999 V2000
   17.5029   -8.9444  -17.6166 C   0  0  0  0  0  0  0  0  0  0  0  0
   17.6113  -10.4038  -17.2112 C   0  0  1  0  0  0  0  0  0  0  0  0
   16.6815  -11.1086  -17.9738 O   0  0  0  0  0  0  0  0  0  0  0  0
   18.9956  -10.9329  -17.5198 C   0  0  2  0  0  0  0  0  0  0  0  0
   18.9867  -12.3454  -17.1977 N   0  0  0  0  0  0  0  0  0  0  0  0
   20.0367  -10.2739  -16.6992 C   0  0  0  0  0  0  0  0  0  0  0  0
   20.2320  -10.5671  -15.4925 O   0  0  0  0  0  0  0  0  0  0  0  0
   23.9524   -7.1940  -17.0030 C   0  0  0  0  0  0  0  0  0  0  0  0
   22.8564   -8.0226  -17.6355 C   0  0  1  0  0  0  0  0  0  0  0  0
   23.4476   -9.1572  -18.1905 O   0  0  0  0  0  0  0  0  0  0  0  0
   21.8747   -8.5361  -16.5735 C   0  0  2  0  0  0  0  0  0  0  0  0
   20.8627   -9.2696  -17.2648 N   0  0  0  0  0  0  0  0  0  0  0  0
   21.3810   -7.4578  -15.7213 C   0  0  0  0  0  0  0  0  0  0  0  0
   20.5967   -6.6119  -16.2178 O   0  0  0  0  0  0  0  0  0  0  0  0
   21.7211   -7.2853  -14.3547 N   0  0  0  0  0  0  0  0  0  0  0  0
   21.0872   -6.2363  -13.5832 C   0  0  1  0  0  0  0  0  0  0  0  0
   20.9011   -6.6081  -12.1355 C   0  0  0  0  0  0  0  0  0  0  0  0
   19.7875   -8.0425  -12.0818 S   0  0  0  0  0  0  0  0  0  0  0  0
   21.9218   -4.9913  -13.6134 C   0  0  0  0  0  0  0  0  0  0  0  0
   23.1774   -5.0575  -14.1893 O   0  0  0  0  0  0  0  0  0  0  0  0
   21.4904   -3.9320  -13.1319 O   0  0  0  0  0  0  0  0  0  0  0  0
  2  1  1  6
  3  2  1  0
  4  2  1  0
  4  5  1  1
  4  6  1  0
  6  7  2  0
  9  8  1  1
  9 10  1  0
  9 11  1  0
 11 13  1  0
 12  6  1  0
 11 12  1  6
 13 15  1  0
 13 14  2  0
 15 16  1  0
 16 19  1  0
 16 17  1  1
 18 17  1  0
 19 20  1  0
 21 19  2  0
M  END
$$$$
