TTC.pdb
     RDKit          3D

 21 20  0  0  1  0  0  0  0  0999 V2000
   22.7338  -15.2670  -17.3003 C   0  0  0  0  0  0  0  0  0  0  0  0
   23.4506  -16.2854  -16.4315 C   0  0  1  0  0  0  0  0  0  0  0  0
   23.4265  -17.4971  -17.1200 O   0  0  0  0  0  0  0  0  0  0  0  0
   24.8919  -15.8737  -16.2205 C   0  0  2  0  0  0  0  0  0  0  0  0
   25.5233  -16.9311  -15.4575 N   0  0  0  0  0  0  0  0  0  0  0  0
   25.0016  -14.6138  -15.4509 C   0  0  0  0  0  0  0  0  0  0  0  0
   24.9628  -14.5837  -14.1948 O   0  0  0  0  0  0  0  0  0  0  0  0
   26.5779   -9.9932  -15.4447 C   0  0  0  0  0  0  0  0  0  0  0  0
   26.4479  -11.3774  -16.0406 C   0  0  1  0  0  0  0  0  0  0  0  0
   27.5352  -12.1328  -15.6025 O   0  0  0  0  0  0  0  0  0  0  0  0
   25.1978  -12.0894  -15.5062 C   0  0  2  0  0  0  0  0  0  0  0  0
   25.1574  -13.3760  -16.1251 N   0  0  0  0  0  0  0  0  0  0  0  0
   23.9936  -11.2823  -15.6831 C   0  0  0  0  0  0  0  0  0  0  0  0
   23.4785  -11.2157  -16.8265 O   0  0  0  0  0  0  0  0  0  0  0  0
   23.3474  -10.5549  -14.6504 N   0  0  0  0  0  0  0  0  0  0  0  0
   22.1336   -9.8200  -14.9403 C   0  0  1  0  0  0  0  0  0  0  0  0
   20.9647  -10.2712  -14.1045 C   0  0  0  0  0  0  0  0  0  0  0  0
   20.6539  -12.0164  -14.5023 S   0  0  0  0  0  0  0  0  0  0  0  0
   22.3317   -8.3594  -14.6668 C   0  0  0  0  0  0  0  0  0  0  0  0
   21.3227   -7.4829  -15.0228 O   0  0  0  0  0  0  0  0  0  0  0  0
   23.3769   -7.9543  -14.1342 O   0  0  0  0  0  0  0  0  0  0  0  0
  2  1  1  6
  3  2  1  0
  4  2  1  0
  4  5  1  1
  4  6  1  0
  6  7  2  0
  9  8  1  1
  9 10  1  0
  9 11  1  0
 11 13  1  0
 12  6  1  0
 11 12  1  6
 13 15  1  0
 13 14  2  0
 15 16  1  0
 16 19  1  0
 16 17  1  1
 18 17  1  0
 19 20  1  0
 21 19  2  0
M  END
$$$$
