TTC.pdb
     RDKit          3D

 21 20  0  0  1  0  0  0  0  0999 V2000
   17.4978  -12.6549  -14.9138 C   0  0  0  0  0  0  0  0  0  0  0  0
   18.2069  -11.3455  -15.2108 C   0  0  1  0  0  0  0  0  0  0  0  0
   19.5743  -11.6157  -15.2202 O   0  0  0  0  0  0  0  0  0  0  0  0
   17.8035  -10.8276  -16.5748 C   0  0  2  0  0  0  0  0  0  0  0  0
   18.2244  -11.8205  -17.5422 N   0  0  0  0  0  0  0  0  0  0  0  0
   18.4701   -9.5467  -16.9010 C   0  0  0  0  0  0  0  0  0  0  0  0
   19.4135   -9.4672  -17.7280 O   0  0  0  0  0  0  0  0  0  0  0  0
   18.0900   -4.6253  -16.5283 C   0  0  0  0  0  0  0  0  0  0  0  0
   17.5380   -6.0335  -16.5197 C   0  0  1  0  0  0  0  0  0  0  0  0
   16.9142   -6.2532  -17.7475 O   0  0  0  0  0  0  0  0  0  0  0  0
   18.6700   -7.0660  -16.4319 C   0  0  2  0  0  0  0  0  0  0  0  0
   18.0534   -8.3446  -16.2747 N   0  0  0  0  0  0  0  0  0  0  0  0
   19.6439   -6.7202  -15.4000 C   0  0  0  0  0  0  0  0  0  0  0  0
   19.2951   -6.7970  -14.1960 O   0  0  0  0  0  0  0  0  0  0  0  0
   20.9747   -6.2975  -15.6515 N   0  0  0  0  0  0  0  0  0  0  0  0
   21.8441   -5.9627  -14.5426 C   0  0  1  0  0  0  0  0  0  0  0  0
   23.3018   -6.1665  -14.8621 C   0  0  0  0  0  0  0  0  0  0  0  0
   23.5493   -7.9411  -15.1621 S   0  0  0  0  0  0  0  0  0  0  0  0
   21.6743   -4.5220  -14.1648 C   0  0  0  0  0  0  0  0  0  0  0  0
   22.0980   -4.1185  -12.9115 O   0  0  0  0  0  0  0  0  0  0  0  0
   21.1657   -3.7175  -14.9612 O   0  0  0  0  0  0  0  0  0  0  0  0
  2  1  1  6
  3  2  1  0
  4  2  1  0
  4  5  1  6
  4  6  1  0
  6  7  2  0
  9  8  1  6
  9 10  1  0
  9 11  1  0
 11 13  1  0
 12  6  1  0
 11 12  1  1
 13 15  1  0
 13 14  2  0
 15 16  1  0
 16 19  1  0
 16 17  1  6
 18 17  1  0
 19 20  1  0
 21 19  2  0
M  END
$$$$
