TTC.pdb
     RDKit          3D

 21 20  0  0  1  0  0  0  0  0999 V2000
   27.1037  -19.9533  -12.4341 C   0  0  0  0  0  0  0  0  0  0  0  0
   26.8251  -21.4413  -12.3161 C   0  0  1  0  0  0  0  0  0  0  0  0
   27.1742  -21.8196  -11.0207 O   0  0  0  0  0  0  0  0  0  0  0  0
   25.3513  -21.7175  -12.5236 C   0  0  2  0  0  0  0  0  0  0  0  0
   25.1604  -23.1413  -12.3355 N   0  0  0  0  0  0  0  0  0  0  0  0
   24.9082  -21.3643  -13.8912 C   0  0  0  0  0  0  0  0  0  0  0  0
   25.0504  -22.1408  -14.8694 O   0  0  0  0  0  0  0  0  0  0  0  0
   21.4964  -20.3803  -14.9312 C   0  0  0  0  0  0  0  0  0  0  0  0
   22.3887  -19.1975  -15.2358 C   0  0  1  0  0  0  0  0  0  0  0  0
   22.3782  -18.3588  -14.1217 O   0  0  0  0  0  0  0  0  0  0  0  0
   23.8467  -19.6419  -15.4146 C   0  0  2  0  0  0  0  0  0  0  0  0
   24.2962  -20.1099  -14.1423 N   0  0  0  0  0  0  0  0  0  0  0  0
   24.6675  -18.5909  -16.0099 C   0  0  0  0  0  0  0  0  0  0  0  0
   24.9262  -17.5708  -15.3245 O   0  0  0  0  0  0  0  0  0  0  0  0
   25.2056  -18.6292  -17.3222 N   0  0  0  0  0  0  0  0  0  0  0  0
   26.0700  -17.5594  -17.7760 C   0  0  1  0  0  0  0  0  0  0  0  0
   27.4748  -18.0239  -18.0571 C   0  0  0  0  0  0  0  0  0  0  0  0
   28.1196  -18.7614  -16.5271 S   0  0  0  0  0  0  0  0  0  0  0  0
   25.5406  -16.9663  -19.0470 C   0  0  0  0  0  0  0  0  0  0  0  0
   26.1720  -15.8486  -19.5618 O   0  0  0  0  0  0  0  0  0  0  0  0
   24.5605  -17.4707  -19.6172 O   0  0  0  0  0  0  0  0  0  0  0  0
  2  1  1  1
  3  2  1  0
  4  2  1  0
  4  5  1  6
  4  6  1  0
  6  7  2  0
  9  8  1  1
  9 10  1  0
  9 11  1  0
 11 13  1  0
 12  6  1  0
 11 12  1  1
 13 15  1  0
 13 14  2  0
 15 16  1  0
 16 19  1  0
 16 17  1  6
 18 17  1  0
 19 20  1  0
 21 19  2  0
M  END
$$$$
