TTC.pdb
     RDKit          3D

 21 20  0  0  1  0  0  0  0  0999 V2000
   16.8044  -11.8579  -17.0852 C   0  0  0  0  0  0  0  0  0  0  0  0
   17.5411  -13.1849  -17.0396 C   0  0  1  0  0  0  0  0  0  0  0  0
   16.7677  -14.1046  -17.7460 O   0  0  0  0  0  0  0  0  0  0  0  0
   18.8892  -13.0604  -17.7168 C   0  0  2  0  0  0  0  0  0  0  0  0
   19.5011  -14.3730  -17.6787 N   0  0  0  0  0  0  0  0  0  0  0  0
   19.7786  -12.1106  -17.0108 C   0  0  0  0  0  0  0  0  0  0  0  0
   20.3064  -12.3762  -15.9012 O   0  0  0  0  0  0  0  0  0  0  0  0
   22.3832   -7.9192  -17.5628 C   0  0  0  0  0  0  0  0  0  0  0  0
   21.5771   -9.0796  -18.1028 C   0  0  1  0  0  0  0  0  0  0  0  0
   22.4709  -10.0025  -18.6452 O   0  0  0  0  0  0  0  0  0  0  0  0
   20.8478   -9.8151  -16.9704 C   0  0  2  0  0  0  0  0  0  0  0  0
   20.0672  -10.8442  -17.5799 N   0  0  0  0  0  0  0  0  0  0  0  0
   20.0985   -8.8962  -16.1178 C   0  0  0  0  0  0  0  0  0  0  0  0
   19.1154   -8.2884  -16.6091 O   0  0  0  0  0  0  0  0  0  0  0  0
   20.3960   -8.6297  -14.7564 N   0  0  0  0  0  0  0  0  0  0  0  0
   19.5882   -7.6825  -14.0163 C   0  0  1  0  0  0  0  0  0  0  0  0
   19.6711   -7.8842  -12.5261 C   0  0  0  0  0  0  0  0  0  0  0  0
   18.9520   -9.5113  -12.1572 S   0  0  0  0  0  0  0  0  0  0  0  0
   20.0419   -6.2813  -14.2960 C   0  0  0  0  0  0  0  0  0  0  0  0
   19.2286   -5.2366  -13.8959 O   0  0  0  0  0  0  0  0  0  0  0  0
   21.1208   -6.0717  -14.8723 O   0  0  0  0  0  0  0  0  0  0  0  0
  2  1  1  6
  3  2  1  0
  4  2  1  0
  4  5  1  1
  4  6  1  0
  6  7  2  0
  9  8  1  1
  9 10  1  0
  9 11  1  0
 11 13  1  0
 12  6  1  0
 11 12  1  6
 13 15  1  0
 13 14  2  0
 15 16  1  0
 16 19  1  0
 16 17  1  1
 18 17  1  0
 19 20  1  0
 21 19  2  0
M  END
$$$$
