TTC.pdb
     RDKit          3D

 21 20  0  0  1  0  0  0  0  0999 V2000
   18.6416  -13.8717  -15.0283 C   0  0  0  0  0  0  0  0  0  0  0  0
   17.7623  -14.2982  -16.1905 C   0  0  1  0  0  0  0  0  0  0  0  0
   17.1421  -15.4891  -15.8165 O   0  0  0  0  0  0  0  0  0  0  0  0
   16.6966  -13.2555  -16.4527 C   0  0  2  0  0  0  0  0  0  0  0  0
   15.8581  -13.7704  -17.5161 N   0  0  0  0  0  0  0  0  0  0  0  0
   17.2775  -11.9688  -16.8982 C   0  0  0  0  0  0  0  0  0  0  0  0
   17.9413  -11.8587  -17.9601 O   0  0  0  0  0  0  0  0  0  0  0  0
   17.1665   -7.0754  -16.3562 C   0  0  0  0  0  0  0  0  0  0  0  0
   16.5971   -8.4721  -16.2416 C   0  0  1  0  0  0  0  0  0  0  0  0
   15.7438   -8.6737  -17.3259 O   0  0  0  0  0  0  0  0  0  0  0  0
   17.7030   -9.5279  -16.3740 C   0  0  2  0  0  0  0  0  0  0  0  0
   17.0972  -10.7964  -16.1212 N   0  0  0  0  0  0  0  0  0  0  0  0
   18.8563   -9.2172  -15.5338 C   0  0  0  0  0  0  0  0  0  0  0  0
   18.7139   -9.2418  -14.2863 O   0  0  0  0  0  0  0  0  0  0  0  0
   20.1467   -8.8841  -16.0207 N   0  0  0  0  0  0  0  0  0  0  0  0
   21.2315   -8.6611  -15.0874 C   0  0  1  0  0  0  0  0  0  0  0  0
   22.5714   -9.0676  -15.6424 C   0  0  0  0  0  0  0  0  0  0  0  0
   22.6789  -10.8777  -15.5315 S   0  0  0  0  0  0  0  0  0  0  0  0
   21.3245   -7.2069  -14.7353 C   0  0  0  0  0  0  0  0  0  0  0  0
   20.5806   -6.3046  -15.4737 O   0  0  0  0  0  0  0  0  0  0  0  0
   22.0525   -6.8296  -13.8037 O   0  0  0  0  0  0  0  0  0  0  0  0
  2  1  1  1
  3  2  1  0
  4  2  1  0
  4  5  1  6
  4  6  1  0
  6  7  2  0
  9  8  1  6
  9 10  1  0
  9 11  1  0
 11 13  1  0
 12  6  1  0
 11 12  1  1
 13 15  1  0
 13 14  2  0
 15 16  1  0
 16 19  1  0
 16 17  1  6
 18 17  1  0
 19 20  1  0
 21 19  2  0
M  END
$$$$
