TTC.pdb
     RDKit          3D

 21 20  0  0  1  0  0  0  0  0999 V2000
   19.4802  -12.1859  -14.9910 C   0  0  0  0  0  0  0  0  0  0  0  0
   20.6715  -12.8173  -15.6893 C   0  0  1  0  0  0  0  0  0  0  0  0
   20.5250  -14.1989  -15.5760 O   0  0  0  0  0  0  0  0  0  0  0  0
   20.6766  -12.4470  -17.1571 C   0  0  2  0  0  0  0  0  0  0  0  0
   21.7490  -13.1989  -17.7762 N   0  0  0  0  0  0  0  0  0  0  0  0
   20.9383  -11.0047  -17.3641 C   0  0  0  0  0  0  0  0  0  0  0  0
   22.0976  -10.5435  -17.5174 O   0  0  0  0  0  0  0  0  0  0  0  0
   18.7348   -6.6559  -18.3561 C   0  0  0  0  0  0  0  0  0  0  0  0
   18.7006   -8.1582  -18.1830 C   0  0  1  0  0  0  0  0  0  0  0  0
   18.6804   -8.7323  -19.4538 O   0  0  0  0  0  0  0  0  0  0  0  0
   19.9861   -8.6627  -17.5135 C   0  0  2  0  0  0  0  0  0  0  0  0
   19.8630  -10.0808  -17.3959 N   0  0  0  0  0  0  0  0  0  0  0  0
   20.2595   -7.9618  -16.2617 C   0  0  0  0  0  0  0  0  0  0  0  0
   19.6035   -8.2812  -15.2395 O   0  0  0  0  0  0  0  0  0  0  0  0
   21.2225   -6.9319  -16.1040 N   0  0  0  0  0  0  0  0  0  0  0  0
   21.4535   -6.3585  -14.7943 C   0  0  1  0  0  0  0  0  0  0  0  0
   22.8296   -5.7628  -14.6527 C   0  0  0  0  0  0  0  0  0  0  0  0
   22.9608   -5.0921  -12.9694 S   0  0  0  0  0  0  0  0  0  0  0  0
   20.4694   -5.2599  -14.5261 C   0  0  0  0  0  0  0  0  0  0  0  0
   19.8480   -5.2233  -13.2911 O   0  0  0  0  0  0  0  0  0  0  0  0
   20.2235   -4.4085  -15.3949 O   0  0  0  0  0  0  0  0  0  0  0  0
  2  1  1  1
  3  2  1  0
  4  2  1  0
  4  5  1  6
  4  6  1  0
  6  7  2  0
  9  8  1  6
  9 10  1  0
  9 11  1  0
 11 13  1  0
 12  6  1  0
 11 12  1  1
 13 15  1  0
 13 14  2  0
 15 16  1  0
 16 19  1  0
 16 17  1  6
 18 17  1  0
 19 20  1  0
 21 19  2  0
M  END
$$$$
