DFL.pdb
     RDKit          3D

 28 28  0  0  1  0  0  0  0  0999 V2000
   12.3477  -16.4416   20.0981 N   0  0  0  0  0  0  0  0  0  0  0  0
   11.4354  -17.3115   20.8247 C   0  0  1  0  0  0  0  0  0  0  0  0
   12.1349  -18.5413   21.2893 C   0  0  0  0  0  0  0  0  0  0  0  0
   12.4358  -19.4275   20.1221 C   0  0  0  0  0  0  0  0  0  0  0  0
   12.3414  -19.0302   18.9529 O   0  0  0  0  0  0  0  0  0  0  0  0
   10.8581  -16.5892   21.9957 C   0  0  0  0  0  0  0  0  0  0  0  0
   11.5828  -15.8630   22.7099 O   0  0  0  0  0  0  0  0  0  0  0  0
   12.8324  -20.7326   20.3975 O   0  0  0  0  0  0  0  0  0  0  0  0
    9.4899  -16.6884   22.3613 N   0  0  0  0  0  0  0  0  0  0  0  0
    9.0123  -16.0664   23.5460 C   0  0  1  0  0  0  0  0  0  0  0  0
    7.6950  -15.4042   23.3944 C   0  0  0  0  0  0  0  0  0  0  0  0
    7.2962  -14.4720   24.4346 C   0  0  0  0  0  0  0  0  0  0  0  0
    6.5350  -14.9659   25.4822 C   0  0  0  0  0  0  0  0  0  0  0  0
    6.1043  -14.2082   26.5226 C   0  0  0  0  0  0  0  0  0  0  0  0
    6.4246  -12.8521   26.5872 C   0  0  0  0  0  0  0  0  0  0  0  0
    7.1807  -12.3363   25.5559 C   0  0  0  0  0  0  0  0  0  0  0  0
    7.6069  -13.1272   24.5082 C   0  0  0  0  0  0  0  0  0  0  0  0
    9.2799  -16.7565   24.8136 C   0  0  0  0  0  0  0  0  0  0  0  0
    9.3287  -18.0010   24.8356 O   0  0  0  0  0  0  0  0  0  0  0  0
   11.5029  -14.0725   27.4223 C   0  0  0  0  0  0  0  0  0  0  0  0
   10.1243  -14.2483   27.9641 C   0  0  2  0  0  0  0  0  0  0  0  0
    9.7499  -13.2156   28.9634 C   0  0  0  0  0  0  0  0  0  0  0  0
    9.7364  -15.6300   28.3273 C   0  0  0  0  0  0  0  0  0  0  0  0
    9.8892  -16.6807   27.2641 C   0  0  2  0  0  0  0  0  0  0  0  0
    9.4858  -16.0236   25.9888 N   0  0  0  0  0  0  0  0  0  0  0  0
    9.1193  -17.8998   27.4586 C   0  0  0  0  0  0  0  0  0  0  0  0
    9.4291  -18.7463   28.3494 O   0  0  0  0  0  0  0  0  0  0  0  0
    7.9869  -18.2614   26.7103 O   0  0  0  0  0  0  0  0  0  0  0  0
  2  6  1  0
  2  1  1  1
  3  2  1  0
  4  3  1  0
  4  8  1  0
  5  4  2  0
  6  7  2  0
  9  6  1  0
 10  9  1  0
 11 12  1  0
 10 11  1  6
 12 17  2  0
 13 14  2  0
 13 12  1  0
 14 15  1  0
 15 16  2  0
 17 16  1  0
 18 10  1  0
 19 18  2  0
 21 20  1  1
 21 23  1  0
 22 21  1  0
 24 23  1  1
 24 25  1  0
 24 26  1  0
 25 18  1  0
 26 27  2  0
 26 28  1  0
M  END
$$$$
