DFL.pdb
     RDKit          3D

 28 28  0  0  1  0  0  0  0  0999 V2000
    9.5394  -18.6376   20.2326 N   0  0  0  0  0  0  0  0  0  0  0  0
   10.6802  -17.7670   20.4723 C   0  0  1  0  0  0  0  0  0  0  0  0
   11.0703  -17.0515   19.2259 C   0  0  0  0  0  0  0  0  0  0  0  0
   12.2647  -17.7116   18.6127 C   0  0  0  0  0  0  0  0  0  0  0  0
   12.3582  -18.9426   18.5149 O   0  0  0  0  0  0  0  0  0  0  0  0
   10.3565  -16.7761   21.5399 C   0  0  0  0  0  0  0  0  0  0  0  0
   11.2268  -15.9738   21.9418 O   0  0  0  0  0  0  0  0  0  0  0  0
   13.2823  -16.8842   18.1476 O   0  0  0  0  0  0  0  0  0  0  0  0
    9.0773  -16.6946   22.1502 N   0  0  0  0  0  0  0  0  0  0  0  0
    8.8473  -15.7971   23.2272 C   0  0  1  0  0  0  0  0  0  0  0  0
    7.6077  -14.9953   23.0941 C   0  0  0  0  0  0  0  0  0  0  0  0
    7.2626  -14.1171   24.1984 C   0  0  0  0  0  0  0  0  0  0  0  0
    6.3073  -14.5622   25.0985 C   0  0  0  0  0  0  0  0  0  0  0  0
    5.8996  -13.8482   26.1783 C   0  0  0  0  0  0  0  0  0  0  0  0
    6.4477  -12.5926   26.4410 C   0  0  0  0  0  0  0  0  0  0  0  0
    7.4001  -12.1269   25.5593 C   0  0  0  0  0  0  0  0  0  0  0  0
    7.7982  -12.8717   24.4677 C   0  0  0  0  0  0  0  0  0  0  0  0
    9.2089  -16.2643   24.5710 C   0  0  0  0  0  0  0  0  0  0  0  0
    8.3554  -16.8448   25.2683 O   0  0  0  0  0  0  0  0  0  0  0  0
    9.2950  -13.2869   28.8981 C   0  0  0  0  0  0  0  0  0  0  0  0
   10.0834  -14.4705   28.4483 C   0  0  2  0  0  0  0  0  0  0  0  0
   11.3894  -14.6046   29.1425 C   0  0  0  0  0  0  0  0  0  0  0  0
   10.1321  -14.7062   26.9877 C   0  0  0  0  0  0  0  0  0  0  0  0
   10.7834  -15.9790   26.5258 C   0  0  2  0  0  0  0  0  0  0  0  0
   10.5041  -16.0662   25.0645 N   0  0  0  0  0  0  0  0  0  0  0  0
   10.3417  -17.1969   27.1882 C   0  0  0  0  0  0  0  0  0  0  0  0
    9.1709  -17.6542   27.0262 O   0  0  0  0  0  0  0  0  0  0  0  0
   11.1342  -17.9750   28.0481 O   0  0  0  0  0  0  0  0  0  0  0  0
  2  6  1  0
  2  1  1  6
  3  2  1  0
  4  3  1  0
  4  8  1  0
  5  4  2  0
  6  7  2  0
  9  6  1  0
 10  9  1  0
 11 12  1  0
 10 11  1  1
 12 17  2  0
 13 14  2  0
 13 12  1  0
 14 15  1  0
 15 16  2  0
 17 16  1  0
 18 10  1  0
 19 18  2  0
 21 20  1  6
 21 23  1  0
 22 21  1  0
 24 23  1  1
 24 25  1  0
 24 26  1  0
 25 18  1  0
 26 27  2  0
 26 28  1  0
M  END
$$$$
