DFL.pdb
     RDKit          3D

 28 28  0  0  1  0  0  0  0  0999 V2000
   10.4728  -17.6797   19.9571 N   0  0  0  0  0  0  0  0  0  0  0  0
   11.5260  -17.4423   20.9324 C   0  0  1  0  0  0  0  0  0  0  0  0
   12.6293  -16.6405   20.3346 C   0  0  0  0  0  0  0  0  0  0  0  0
   13.2691  -17.4065   19.2201 C   0  0  0  0  0  0  0  0  0  0  0  0
   13.9194  -16.8478   18.3263 O   0  0  0  0  0  0  0  0  0  0  0  0
   10.9750  -16.7301   22.1222 C   0  0  0  0  0  0  0  0  0  0  0  0
   11.7350  -16.0999   22.8890 O   0  0  0  0  0  0  0  0  0  0  0  0
   13.1080  -18.7887   19.2212 O   0  0  0  0  0  0  0  0  0  0  0  0
    9.5932  -16.7332   22.4478 N   0  0  0  0  0  0  0  0  0  0  0  0
    9.1364  -16.1543   23.6621 C   0  0  1  0  0  0  0  0  0  0  0  0
    7.7419  -15.6549   23.6088 C   0  0  0  0  0  0  0  0  0  0  0  0
    7.3940  -14.5594   24.4970 C   0  0  0  0  0  0  0  0  0  0  0  0
    7.8294  -13.2897   24.1518 C   0  0  0  0  0  0  0  0  0  0  0  0
    7.5670  -12.1784   24.8852 C   0  0  0  0  0  0  0  0  0  0  0  0
    6.8165  -12.2685   26.0577 C   0  0  0  0  0  0  0  0  0  0  0  0
    6.3721  -13.5216   26.4232 C   0  0  0  0  0  0  0  0  0  0  0  0
    6.6523  -14.6373   25.6607 C   0  0  0  0  0  0  0  0  0  0  0  0
    9.5798  -16.7889   24.9093 C   0  0  0  0  0  0  0  0  0  0  0  0
   10.0089  -17.9580   24.8834 O   0  0  0  0  0  0  0  0  0  0  0  0
   10.6877  -13.6013   27.4088 C   0  0  0  0  0  0  0  0  0  0  0  0
    9.5319  -14.2613   28.0821 C   0  0  2  0  0  0  0  0  0  0  0  0
    8.9020  -13.4175   29.1293 C   0  0  0  0  0  0  0  0  0  0  0  0
    9.7196  -15.6801   28.4608 C   0  0  0  0  0  0  0  0  0  0  0  0
   10.1323  -16.6262   27.3690 C   0  0  2  0  0  0  0  0  0  0  0  0
    9.5280  -16.0852   26.1187 N   0  0  0  0  0  0  0  0  0  0  0  0
    9.7392  -18.0156   27.5485 C   0  0  0  0  0  0  0  0  0  0  0  0
   10.3179  -18.7665   28.3895 O   0  0  0  0  0  0  0  0  0  0  0  0
    8.7110  -18.6566   26.8378 O   0  0  0  0  0  0  0  0  0  0  0  0
  2  6  1  0
  2  1  1  6
  3  2  1  0
  4  3  1  0
  4  8  1  0
  5  4  2  0
  6  7  2  0
  9  6  1  0
 10  9  1  0
 11 12  1  0
 10 11  1  6
 12 17  2  0
 13 14  2  0
 13 12  1  0
 14 15  1  0
 15 16  2  0
 17 16  1  0
 18 10  1  0
 19 18  2  0
 21 20  1  1
 21 23  1  0
 22 21  1  0
 24 23  1  1
 24 25  1  0
 24 26  1  0
 25 18  1  0
 26 27  2  0
 26 28  1  0
M  END
$$$$
