DFL.pdb
     RDKit          3D

 28 28  0  0  1  0  0  0  0  0999 V2000
    9.6240  -17.8780   19.3073 N   0  0  0  0  0  0  0  0  0  0  0  0
   10.5351  -17.8535   20.4413 C   0  0  1  0  0  0  0  0  0  0  0  0
   11.9499  -17.9402   19.9848 C   0  0  0  0  0  0  0  0  0  0  0  0
   12.1666  -19.2191   19.2391 C   0  0  0  0  0  0  0  0  0  0  0  0
   12.8936  -19.2820   18.2384 O   0  0  0  0  0  0  0  0  0  0  0  0
   10.3385  -16.6041   21.2330 C   0  0  0  0  0  0  0  0  0  0  0  0
   11.2635  -15.7698   21.3364 O   0  0  0  0  0  0  0  0  0  0  0  0
   11.5154  -20.3531   19.7148 O   0  0  0  0  0  0  0  0  0  0  0  0
    9.1239  -16.3023   21.9032 N   0  0  0  0  0  0  0  0  0  0  0  0
    9.0177  -15.1433   22.7178 C   0  0  1  0  0  0  0  0  0  0  0  0
    7.8374  -14.2980   22.4188 C   0  0  0  0  0  0  0  0  0  0  0  0
    7.6188  -13.9290   21.0310 C   0  0  0  0  0  0  0  0  0  0  0  0
    8.0801  -12.6899   20.6156 C   0  0  0  0  0  0  0  0  0  0  0  0
    7.9511  -12.2250   19.3471 C   0  0  0  0  0  0  0  0  0  0  0  0
    7.3308  -13.0041   18.3704 C   0  0  0  0  0  0  0  0  0  0  0  0
    6.8623  -14.2413   18.7590 C   0  0  0  0  0  0  0  0  0  0  0  0
    7.0050  -14.6922   20.0556 C   0  0  0  0  0  0  0  0  0  0  0  0
    9.4106  -15.2816   24.1255 C   0  0  0  0  0  0  0  0  0  0  0  0
   10.4796  -14.7754   24.5159 O   0  0  0  0  0  0  0  0  0  0  0  0
    8.8116  -12.7716   27.2534 C   0  0  0  0  0  0  0  0  0  0  0  0
    7.6214  -13.3918   26.6026 C   0  0  2  0  0  0  0  0  0  0  0  0
    6.3784  -12.5970   26.7721 C   0  0  0  0  0  0  0  0  0  0  0  0
    7.4551  -14.8497   26.7987 C   0  0  0  0  0  0  0  0  0  0  0  0
    8.6435  -15.7166   26.4928 C   0  0  2  0  0  0  0  0  0  0  0  0
    8.5885  -15.9707   25.0253 N   0  0  0  0  0  0  0  0  0  0  0  0
    8.7123  -16.9795   27.2121 C   0  0  0  0  0  0  0  0  0  0  0  0
    9.1840  -17.0505   28.3862 O   0  0  0  0  0  0  0  0  0  0  0  0
    8.2778  -18.2157   26.7060 O   0  0  0  0  0  0  0  0  0  0  0  0
  2  6  1  0
  2  1  1  6
  3  2  1  0
  4  3  1  0
  4  8  1  0
  5  4  2  0
  6  7  2  0
  9  6  1  0
 10  9  1  0
 11 12  1  0
 10 11  1  1
 12 17  2  0
 13 14  2  0
 13 12  1  0
 14 15  1  0
 15 16  2  0
 17 16  1  0
 18 10  1  0
 19 18  2  0
 21 20  1  1
 21 23  1  0
 22 21  1  0
 24 23  1  1
 24 25  1  0
 24 26  1  0
 25 18  1  0
 26 27  2  0
 26 28  1  0
M  END
$$$$
