DFL.pdb
     RDKit          3D

 28 28  0  0  1  0  0  0  0  0999 V2000
   10.4530  -17.9768   19.7793 N   0  0  0  0  0  0  0  0  0  0  0  0
   11.5460  -17.5546   20.6418 C   0  0  1  0  0  0  0  0  0  0  0  0
   12.5339  -16.7390   19.8826 C   0  0  0  0  0  0  0  0  0  0  0  0
   13.0668  -17.5288   18.7291 C   0  0  0  0  0  0  0  0  0  0  0  0
   13.6289  -18.6215   18.8837 O   0  0  0  0  0  0  0  0  0  0  0  0
   11.0187  -16.7629   21.7914 C   0  0  0  0  0  0  0  0  0  0  0  0
   11.8044  -16.1921   22.5784 O   0  0  0  0  0  0  0  0  0  0  0  0
   12.9068  -16.9876   17.4571 O   0  0  0  0  0  0  0  0  0  0  0  0
    9.6308  -16.6222   22.0551 N   0  0  0  0  0  0  0  0  0  0  0  0
    9.1824  -15.9242   23.2084 C   0  0  1  0  0  0  0  0  0  0  0  0
    7.8781  -15.2418   23.0351 C   0  0  0  0  0  0  0  0  0  0  0  0
    7.4366  -14.3696   24.1094 C   0  0  0  0  0  0  0  0  0  0  0  0
    6.6951  -14.9370   25.1336 C   0  0  0  0  0  0  0  0  0  0  0  0
    6.2291  -14.2403   26.2011 C   0  0  0  0  0  0  0  0  0  0  0  0
    6.4900  -12.8752   26.3204 C   0  0  0  0  0  0  0  0  0  0  0  0
    7.2255  -12.2868   25.3133 C   0  0  0  0  0  0  0  0  0  0  0  0
    7.6883  -13.0165   24.2371 C   0  0  0  0  0  0  0  0  0  0  0  0
    9.4509  -16.5483   24.5096 C   0  0  0  0  0  0  0  0  0  0  0  0
    9.2451  -17.7677   24.6587 O   0  0  0  0  0  0  0  0  0  0  0  0
   10.3292  -12.9396   27.5760 C   0  0  0  0  0  0  0  0  0  0  0  0
   10.4326  -14.3198   28.1322 C   0  0  2  0  0  0  0  0  0  0  0  0
   10.5457  -14.3494   29.6127 C   0  0  0  0  0  0  0  0  0  0  0  0
   11.3470  -15.2430   27.4232 C   0  0  0  0  0  0  0  0  0  0  0  0
   10.7175  -16.3934   26.6899 C   0  0  2  0  0  0  0  0  0  0  0  0
    9.9410  -15.7823   25.5743 N   0  0  0  0  0  0  0  0  0  0  0  0
    9.8530  -17.2560   27.4809 C   0  0  0  0  0  0  0  0  0  0  0  0
   10.3149  -17.9981   28.3986 O   0  0  0  0  0  0  0  0  0  0  0  0
    8.4610  -17.3581   27.3239 O   0  0  0  0  0  0  0  0  0  0  0  0
  2  6  1  0
  2  1  1  6
  3  2  1  0
  4  3  1  0
  4  8  1  0
  5  4  2  0
  6  7  2  0
  9  6  1  0
 10  9  1  0
 11 12  1  0
 10 11  1  6
 12 17  2  0
 13 14  2  0
 13 12  1  0
 14 15  1  0
 15 16  2  0
 17 16  1  0
 18 10  1  0
 19 18  2  0
 21 20  1  6
 21 23  1  0
 22 21  1  0
 24 23  1  1
 24 25  1  0
 24 26  1  0
 25 18  1  0
 26 27  2  0
 26 28  1  0
M  END
$$$$
