DFL.pdb
     RDKit          3D

 28 28  0  0  1  0  0  0  0  0999 V2000
   10.4350  -17.8744   20.1248 N   0  0  0  0  0  0  0  0  0  0  0  0
   11.4927  -17.4399   21.0244 C   0  0  1  0  0  0  0  0  0  0  0  0
   12.4538  -16.5479   20.3186 C   0  0  0  0  0  0  0  0  0  0  0  0
   13.3681  -17.3630   19.4594 C   0  0  0  0  0  0  0  0  0  0  0  0
   12.9451  -18.0709   18.5354 O   0  0  0  0  0  0  0  0  0  0  0  0
   10.9100  -16.7233   22.1963 C   0  0  0  0  0  0  0  0  0  0  0  0
   11.6460  -16.0693   22.9665 O   0  0  0  0  0  0  0  0  0  0  0  0
   14.7302  -17.2980   19.7363 O   0  0  0  0  0  0  0  0  0  0  0  0
    9.5236  -16.7484   22.5005 N   0  0  0  0  0  0  0  0  0  0  0  0
    9.0340  -16.1411   23.6879 C   0  0  1  0  0  0  0  0  0  0  0  0
    7.6535  -15.6135   23.5744 C   0  0  0  0  0  0  0  0  0  0  0  0
    7.2162  -14.6723   24.5905 C   0  0  0  0  0  0  0  0  0  0  0  0
    7.5154  -13.3330   24.3967 C   0  0  0  0  0  0  0  0  0  0  0  0
    7.1583  -12.3490   25.2605 C   0  0  0  0  0  0  0  0  0  0  0  0
    6.4447  -12.6534   26.4199 C   0  0  0  0  0  0  0  0  0  0  0  0
    6.1354  -13.9796   26.6360 C   0  0  0  0  0  0  0  0  0  0  0  0
    6.5100  -14.9627   25.7427 C   0  0  0  0  0  0  0  0  0  0  0  0
    9.4164  -16.7651   24.9604 C   0  0  0  0  0  0  0  0  0  0  0  0
    9.4934  -18.0061   25.0357 O   0  0  0  0  0  0  0  0  0  0  0  0
   12.1541  -14.2220   27.0443 C   0  0  0  0  0  0  0  0  0  0  0  0
   10.8432  -14.1432   27.7517 C   0  0  2  0  0  0  0  0  0  0  0  0
   10.7360  -12.9743   28.6613 C   0  0  0  0  0  0  0  0  0  0  0  0
   10.3258  -15.4122   28.3114 C   0  0  0  0  0  0  0  0  0  0  0  0
   10.1811  -16.5660   27.3598 C   0  0  2  0  0  0  0  0  0  0  0  0
    9.6996  -15.9734   26.0800 N   0  0  0  0  0  0  0  0  0  0  0  0
    9.2835  -17.6305   27.7818 C   0  0  0  0  0  0  0  0  0  0  0  0
    9.6262  -18.4808   28.6568 O   0  0  0  0  0  0  0  0  0  0  0  0
    7.9837  -17.8270   27.2869 O   0  0  0  0  0  0  0  0  0  0  0  0
  2  6  1  0
  2  1  1  6
  3  2  1  0
  4  3  1  0
  4  8  1  0
  5  4  2  0
  6  7  2  0
  9  6  1  0
 10  9  1  0
 11 12  1  0
 10 11  1  6
 12 17  2  0
 13 14  2  0
 13 12  1  0
 14 15  1  0
 15 16  2  0
 17 16  1  0
 18 10  1  0
 19 18  2  0
 21 20  1  1
 21 23  1  0
 22 21  1  0
 24 23  1  1
 24 25  1  0
 24 26  1  0
 25 18  1  0
 26 27  2  0
 26 28  1  0
M  END
$$$$
