DFL.pdb
     RDKit          3D

 28 28  0  0  1  0  0  0  0  0999 V2000
    9.8668  -18.5276   20.5564 N   0  0  0  0  0  0  0  0  0  0  0  0
   11.0464  -17.8108   21.0162 C   0  0  1  0  0  0  0  0  0  0  0  0
   11.7279  -17.1305   19.8803 C   0  0  0  0  0  0  0  0  0  0  0  0
   12.3776  -18.1462   18.9945 C   0  0  0  0  0  0  0  0  0  0  0  0
   11.9000  -19.2769   18.8296 O   0  0  0  0  0  0  0  0  0  0  0  0
   10.6668  -16.8039   22.0499 C   0  0  0  0  0  0  0  0  0  0  0  0
   11.4997  -15.9599   22.4454 O   0  0  0  0  0  0  0  0  0  0  0  0
   13.5537  -17.7727   18.3513 O   0  0  0  0  0  0  0  0  0  0  0  0
    9.3739  -16.7526   22.6341 N   0  0  0  0  0  0  0  0  0  0  0  0
    9.0543  -15.7543   23.5931 C   0  0  1  0  0  0  0  0  0  0  0  0
    7.6056  -15.4606   23.7028 C   0  0  0  0  0  0  0  0  0  0  0  0
    7.2131  -14.3700   24.5782 C   0  0  0  0  0  0  0  0  0  0  0  0
    7.5496  -13.0826   24.1909 C   0  0  0  0  0  0  0  0  0  0  0  0
    7.2361  -11.9741   24.9085 C   0  0  0  0  0  0  0  0  0  0  0  0
    6.5322  -12.0863   26.1075 C   0  0  0  0  0  0  0  0  0  0  0  0
    6.1862  -13.3573   26.5152 C   0  0  0  0  0  0  0  0  0  0  0  0
    6.5167  -14.4696   25.7681 C   0  0  0  0  0  0  0  0  0  0  0  0
    9.8411  -15.7464   24.8323 C   0  0  0  0  0  0  0  0  0  0  0  0
   10.9356  -15.1523   24.8595 O   0  0  0  0  0  0  0  0  0  0  0  0
   11.1777  -13.7155   27.6093 C   0  0  0  0  0  0  0  0  0  0  0  0
    9.8093  -14.2073   27.9420 C   0  0  2  0  0  0  0  0  0  0  0  0
    9.0841  -13.3273   28.8933 C   0  0  0  0  0  0  0  0  0  0  0  0
    9.6859  -15.6557   28.2219 C   0  0  0  0  0  0  0  0  0  0  0  0
   10.2206  -16.5973   27.1804 C   0  0  2  0  0  0  0  0  0  0  0  0
    9.3640  -16.3949   25.9778 N   0  0  0  0  0  0  0  0  0  0  0  0
   10.2385  -18.0059   27.5447 C   0  0  0  0  0  0  0  0  0  0  0  0
   11.0977  -18.4728   28.3508 O   0  0  0  0  0  0  0  0  0  0  0  0
    9.3378  -18.9704   27.0636 O   0  0  0  0  0  0  0  0  0  0  0  0
  2  6  1  0
  2  1  1  6
  3  2  1  0
  4  3  1  0
  4  8  1  0
  5  4  2  0
  6  7  2  0
  9  6  1  0
 10  9  1  0
 11 12  1  0
 10 11  1  1
 12 17  2  0
 13 14  2  0
 13 12  1  0
 14 15  1  0
 15 16  2  0
 17 16  1  0
 18 10  1  0
 19 18  2  0
 21 20  1  1
 21 23  1  0
 22 21  1  0
 24 23  1  1
 24 25  1  0
 24 26  1  0
 25 18  1  0
 26 27  2  0
 26 28  1  0
M  END
$$$$
