DFL.pdb
     RDKit          3D

 28 28  0  0  1  0  0  0  0  0999 V2000
   10.4260  -18.2094   19.8985 N   0  0  0  0  0  0  0  0  0  0  0  0
   11.5304  -17.5995   20.6231 C   0  0  1  0  0  0  0  0  0  0  0  0
   12.3081  -16.6916   19.7351 C   0  0  0  0  0  0  0  0  0  0  0  0
   13.2185  -17.4932   18.8592 C   0  0  0  0  0  0  0  0  0  0  0  0
   13.1184  -18.7234   18.7574 O   0  0  0  0  0  0  0  0  0  0  0  0
   11.0165  -16.8350   21.7969 C   0  0  0  0  0  0  0  0  0  0  0  0
   11.7922  -16.1363   22.4843 O   0  0  0  0  0  0  0  0  0  0  0  0
   14.1957  -16.8003   18.1512 O   0  0  0  0  0  0  0  0  0  0  0  0
    9.6540  -16.8625   22.1949 N   0  0  0  0  0  0  0  0  0  0  0  0
    9.2296  -16.1763   23.3643 C   0  0  1  0  0  0  0  0  0  0  0  0
    7.8338  -15.6813   23.3040 C   0  0  0  0  0  0  0  0  0  0  0  0
    7.4669  -14.6148   24.2192 C   0  0  0  0  0  0  0  0  0  0  0  0
    6.6682  -14.9448   25.3027 C   0  0  0  0  0  0  0  0  0  0  0  0
    6.2607  -14.0498   26.2381 C   0  0  0  0  0  0  0  0  0  0  0  0
    6.6461  -12.7121   26.1489 C   0  0  0  0  0  0  0  0  0  0  0  0
    7.4406  -12.3582   25.0790 C   0  0  0  0  0  0  0  0  0  0  0  0
    7.8419  -13.2868   24.1401 C   0  0  0  0  0  0  0  0  0  0  0  0
    9.7069  -16.6973   24.6510 C   0  0  0  0  0  0  0  0  0  0  0  0
   10.4229  -17.7163   24.6721 O   0  0  0  0  0  0  0  0  0  0  0  0
   11.5059  -13.9245   27.5186 C   0  0  0  0  0  0  0  0  0  0  0  0
   10.0477  -14.0501   27.8060 C   0  0  2  0  0  0  0  0  0  0  0  0
    9.5283  -12.9750   28.6890 C   0  0  0  0  0  0  0  0  0  0  0  0
    9.5612  -15.4092   28.1342 C   0  0  0  0  0  0  0  0  0  0  0  0
    9.8979  -16.5048   27.1626 C   0  0  2  0  0  0  0  0  0  0  0  0
    9.3668  -16.0516   25.8460 N   0  0  0  0  0  0  0  0  0  0  0  0
    9.3715  -17.8230   27.4822 C   0  0  0  0  0  0  0  0  0  0  0  0
    8.3029  -18.2570   26.9569 O   0  0  0  0  0  0  0  0  0  0  0  0
    9.9673  -18.7302   28.3739 O   0  0  0  0  0  0  0  0  0  0  0  0
  2  6  1  0
  2  1  1  6
  3  2  1  0
  4  3  1  0
  4  8  1  0
  5  4  2  0
  6  7  2  0
  9  6  1  0
 10  9  1  0
 11 12  1  0
 10 11  1  1
 12 17  2  0
 13 14  2  0
 13 12  1  0
 14 15  1  0
 15 16  2  0
 17 16  1  0
 18 10  1  0
 19 18  2  0
 21 20  1  1
 21 23  1  0
 22 21  1  0
 24 23  1  1
 24 25  1  0
 24 26  1  0
 25 18  1  0
 26 27  2  0
 26 28  1  0
M  END
$$$$
