DFL.pdb
     RDKit          3D

 28 28  0  0  1  0  0  0  0  0999 V2000
   10.6457  -17.9862   20.1094 N   0  0  0  0  0  0  0  0  0  0  0  0
   11.6785  -17.4865   21.0041 C   0  0  1  0  0  0  0  0  0  0  0  0
   12.6199  -16.5907   20.2769 C   0  0  0  0  0  0  0  0  0  0  0  0
   13.3661  -17.3700   19.2405 C   0  0  0  0  0  0  0  0  0  0  0  0
   13.8499  -18.4851   19.4777 O   0  0  0  0  0  0  0  0  0  0  0  0
   11.0597  -16.7469   22.1428 C   0  0  0  0  0  0  0  0  0  0  0  0
   11.7600  -16.0157   22.8760 O   0  0  0  0  0  0  0  0  0  0  0  0
   13.4998  -16.7924   17.9816 O   0  0  0  0  0  0  0  0  0  0  0  0
    9.6777  -16.8346   22.4555 N   0  0  0  0  0  0  0  0  0  0  0  0
    9.1574  -16.1944   23.6121 C   0  0  1  0  0  0  0  0  0  0  0  0
    7.7959  -15.6358   23.4352 C   0  0  0  0  0  0  0  0  0  0  0  0
    7.2925  -14.7671   24.4849 C   0  0  0  0  0  0  0  0  0  0  0  0
    7.5468  -13.4094   24.3721 C   0  0  0  0  0  0  0  0  0  0  0  0
    7.1265  -12.4870   25.2746 C   0  0  0  0  0  0  0  0  0  0  0  0
    6.3898  -12.8791   26.3923 C   0  0  0  0  0  0  0  0  0  0  0  0
    6.1241  -14.2253   26.5278 C   0  0  0  0  0  0  0  0  0  0  0  0
    6.5627  -15.1446   25.5964 C   0  0  0  0  0  0  0  0  0  0  0  0
    9.4742  -16.8045   24.9092 C   0  0  0  0  0  0  0  0  0  0  0  0
    9.5743  -18.0431   24.9958 O   0  0  0  0  0  0  0  0  0  0  0  0
   11.7256  -13.8903   27.2393 C   0  0  0  0  0  0  0  0  0  0  0  0
   10.3580  -14.0872   27.8013 C   0  0  2  0  0  0  0  0  0  0  0  0
    9.9151  -12.9700   28.6737 C   0  0  0  0  0  0  0  0  0  0  0  0
   10.0551  -15.4384   28.3246 C   0  0  0  0  0  0  0  0  0  0  0  0
   10.1089  -16.5752   27.3436 C   0  0  2  0  0  0  0  0  0  0  0  0
    9.6695  -16.0021   26.0399 N   0  0  0  0  0  0  0  0  0  0  0  0
    9.2986  -17.7382   27.6719 C   0  0  0  0  0  0  0  0  0  0  0  0
    9.6145  -18.5231   28.6155 O   0  0  0  0  0  0  0  0  0  0  0  0
    8.1180  -18.1072   27.0063 O   0  0  0  0  0  0  0  0  0  0  0  0
  2  6  1  0
  2  1  1  6
  3  2  1  0
  4  3  1  0
  4  8  1  0
  5  4  2  0
  6  7  2  0
  9  6  1  0
 10  9  1  0
 11 12  1  0
 10 11  1  6
 12 17  2  0
 13 14  2  0
 13 12  1  0
 14 15  1  0
 15 16  2  0
 17 16  1  0
 18 10  1  0
 19 18  2  0
 21 20  1  1
 21 23  1  0
 22 21  1  0
 24 23  1  1
 24 25  1  0
 24 26  1  0
 25 18  1  0
 26 27  2  0
 26 28  1  0
M  END
$$$$
