DFL.pdb
     RDKit          3D

 28 28  0  0  1  0  0  0  0  0999 V2000
   10.6660  -17.3858   20.0006 N   0  0  0  0  0  0  0  0  0  0  0  0
   10.2108  -17.9096   21.2793 C   0  0  1  0  0  0  0  0  0  0  0  0
   11.1865  -18.8933   21.8252 C   0  0  0  0  0  0  0  0  0  0  0  0
   11.4091  -19.9926   20.8351 C   0  0  0  0  0  0  0  0  0  0  0  0
   10.4781  -20.6820   20.3972 O   0  0  0  0  0  0  0  0  0  0  0  0
   10.0215  -16.7959   22.2541 C   0  0  0  0  0  0  0  0  0  0  0  0
   10.9077  -15.9264   22.3995 O   0  0  0  0  0  0  0  0  0  0  0  0
   12.7165  -20.2177   20.4151 O   0  0  0  0  0  0  0  0  0  0  0  0
    8.8578  -16.6672   23.0571 N   0  0  0  0  0  0  0  0  0  0  0  0
    8.6916  -15.5451   23.9125 C   0  0  1  0  0  0  0  0  0  0  0  0
    7.3497  -14.9199   23.8387 C   0  0  0  0  0  0  0  0  0  0  0  0
    7.1027  -13.7735   24.6957 C   0  0  0  0  0  0  0  0  0  0  0  0
    7.5172  -12.5312   24.2420 C   0  0  0  0  0  0  0  0  0  0  0  0
    7.3403  -11.3785   24.9363 C   0  0  0  0  0  0  0  0  0  0  0  0
    6.7065  -11.3942   26.1788 C   0  0  0  0  0  0  0  0  0  0  0  0
    6.2852  -12.6186   26.6527 C   0  0  0  0  0  0  0  0  0  0  0  0
    6.4769  -13.7775   25.9282 C   0  0  0  0  0  0  0  0  0  0  0  0
    9.3340  -15.6128   25.2306 C   0  0  0  0  0  0  0  0  0  0  0  0
    9.3636  -14.5969   25.9509 O   0  0  0  0  0  0  0  0  0  0  0  0
   11.3861  -13.8972   27.2882 C   0  0  0  0  0  0  0  0  0  0  0  0
   10.2964  -14.7381   27.8630 C   0  0  2  0  0  0  0  0  0  0  0  0
    9.7213  -14.1800   29.1132 C   0  0  0  0  0  0  0  0  0  0  0  0
   10.5441  -16.1972   27.8933 C   0  0  0  0  0  0  0  0  0  0  0  0
   11.0534  -16.8267   26.6277 C   0  0  2  0  0  0  0  0  0  0  0  0
    9.9035  -16.8104   25.6797 N   0  0  0  0  0  0  0  0  0  0  0  0
   11.5723  -18.1802   26.7540 C   0  0  0  0  0  0  0  0  0  0  0  0
   12.6162  -18.4314   27.4273 O   0  0  0  0  0  0  0  0  0  0  0  0
   10.9952  -19.3186   26.1676 O   0  0  0  0  0  0  0  0  0  0  0  0
  2  6  1  0
  2  1  1  6
  3  2  1  0
  4  3  1  0
  4  8  1  0
  5  4  2  0
  6  7  2  0
  9  6  1  0
 10  9  1  0
 11 12  1  0
 10 11  1  1
 12 17  2  0
 13 14  2  0
 13 12  1  0
 14 15  1  0
 15 16  2  0
 17 16  1  0
 18 10  1  0
 19 18  2  0
 21 20  1  1
 21 23  1  0
 22 21  1  0
 24 23  1  1
 24 25  1  0
 24 26  1  0
 25 18  1  0
 26 27  2  0
 26 28  1  0
M  END
$$$$
