CQM.pdb
     RDKit          3D

 24 23  0  0  1  0  0  0  0  0999 V2000
   27.7850  -20.4772  -15.5302 N   0  0  0  0  0  0  0  0  0  0  0  0
   26.8967  -21.0712  -14.5548 C   0  0  1  0  0  0  0  0  0  0  0  0
   27.6016  -21.3962  -13.2581 C   0  0  0  0  0  0  0  0  0  0  0  0
   26.4097  -22.1199  -12.0971 S   0  0  0  0  0  0  0  0  0  0  0  0
   25.7202  -20.2209  -14.3883 C   0  0  0  0  0  0  0  0  0  0  0  0
   25.7581  -19.0322  -13.9651 O   0  0  0  0  0  0  0  0  0  0  0  0
   23.8077  -19.6988  -18.5351 N   0  0  0  0  0  0  0  0  0  0  0  0
   23.8258  -18.4255  -17.8886 C   0  0  0  0  0  0  0  0  0  0  0  0
   24.3109  -17.4632  -18.5303 O   0  0  0  0  0  0  0  0  0  0  0  0
   23.2812  -18.3116  -16.5248 C   0  0  0  0  0  0  0  0  0  0  0  0
   22.7863  -19.6366  -16.0117 C   0  0  0  0  0  0  0  0  0  0  0  0
   23.2286  -19.9421  -14.6032 C   0  0  2  0  0  0  0  0  0  0  0  0
   24.4403  -20.7331  -14.7136 N   0  0  0  0  0  0  0  0  0  0  0  0
   22.1455  -20.6980  -13.9181 C   0  0  0  0  0  0  0  0  0  0  0  0
   21.8547  -21.8321  -14.3676 O   0  0  0  0  0  0  0  0  0  0  0  0
   20.9378  -19.9272   -7.4679 C   0  0  0  0  0  0  0  0  0  0  0  0
   19.4386  -20.7412   -8.0311 S   0  0  0  0  0  0  0  0  0  0  0  0
   19.5043  -21.2864   -9.7209 C   0  0  0  0  0  0  0  0  0  0  0  0
   20.5087  -20.6924  -10.6132 C   0  0  0  0  0  0  0  0  0  0  0  0
   20.4426  -21.0153  -12.0622 C   0  0  2  0  0  0  0  0  0  0  0  0
   21.4368  -20.2067  -12.7989 N   0  0  0  0  0  0  0  0  0  0  0  0
   19.1388  -20.9258  -12.7267 C   0  0  0  0  0  0  0  0  0  0  0  0
   18.6887  -19.9466  -13.3476 O   0  0  0  0  0  0  0  0  0  0  0  0
   18.2497  -22.0377  -12.6951 O   0  0  0  0  0  0  0  0  0  0  0  0
  2  1  1  6
  3  2  1  0
  3  4  1  0
  5  2  1  0
  5  6  2  0
  7  8  1  0
  8  9  2  0
  8 10  1  0
 10 11  1  0
 12 11  1  6
 12 13  1  0
 13  5  1  0
 14 12  1  0
 15 14  2  0
 16 17  1  0
 17 18  1  0
 18 19  1  0
 20 19  1  1
 20 22  1  0
 20 21  1  0
 21 14  1  0
 22 24  1  0
 23 22  2  0
M  END
$$$$
