CQM.pdb
     RDKit          3D

 24 23  0  0  1  0  0  0  0  0999 V2000
   19.2422  -22.4398  -12.5371 N   0  0  0  0  0  0  0  0  0  0  0  0
   18.9699  -22.2606  -11.1275 C   0  0  1  0  0  0  0  0  0  0  0  0
   18.2569  -20.9593  -10.8407 C   0  0  0  0  0  0  0  0  0  0  0  0
   18.6287  -19.7724  -12.1618 S   0  0  0  0  0  0  0  0  0  0  0  0
   18.2747  -23.4385  -10.6136 C   0  0  0  0  0  0  0  0  0  0  0  0
   17.5088  -24.1673  -11.3034 O   0  0  0  0  0  0  0  0  0  0  0  0
   20.6303  -27.9531  -10.5859 N   0  0  0  0  0  0  0  0  0  0  0  0
   19.6934  -28.4679   -9.6390 C   0  0  0  0  0  0  0  0  0  0  0  0
   19.6725  -29.7106   -9.4702 O   0  0  0  0  0  0  0  0  0  0  0  0
   18.8164  -27.5270   -8.9213 C   0  0  0  0  0  0  0  0  0  0  0  0
   19.0408  -26.1078   -9.3675 C   0  0  0  0  0  0  0  0  0  0  0  0
   18.0784  -25.1226   -8.7543 C   0  0  2  0  0  0  0  0  0  0  0  0
   18.4500  -23.8137   -9.2591 N   0  0  0  0  0  0  0  0  0  0  0  0
   18.2066  -25.1914   -7.2735 C   0  0  0  0  0  0  0  0  0  0  0  0
   19.3037  -24.8531   -6.7690 O   0  0  0  0  0  0  0  0  0  0  0  0
   14.0361  -22.9573   -2.4685 C   0  0  0  0  0  0  0  0  0  0  0  0
   14.4196  -24.6729   -2.0983 S   0  0  0  0  0  0  0  0  0  0  0  0
   15.9191  -25.2563   -2.8520 C   0  0  0  0  0  0  0  0  0  0  0  0
   15.9903  -25.3224   -4.3177 C   0  0  0  0  0  0  0  0  0  0  0  0
   17.2987  -25.6414   -4.9458 C   0  0  2  0  0  0  0  0  0  0  0  0
   17.1649  -25.6142   -6.4177 N   0  0  0  0  0  0  0  0  0  0  0  0
   17.9771  -26.8732   -4.5312 C   0  0  0  0  0  0  0  0  0  0  0  0
   17.8971  -27.9852   -5.0826 O   0  0  0  0  0  0  0  0  0  0  0  0
   18.8277  -26.8636   -3.3894 O   0  0  0  0  0  0  0  0  0  0  0  0
  2  1  1  6
  3  2  1  0
  3  4  1  0
  5  2  1  0
  5  6  2  0
  7  8  1  0
  8  9  2  0
  8 10  1  0
 10 11  1  0
 12 11  1  6
 12 13  1  0
 13  5  1  0
 14 12  1  0
 15 14  2  0
 16 17  1  0
 17 18  1  0
 18 19  1  0
 20 19  1  1
 20 22  1  0
 20 21  1  0
 21 14  1  0
 22 24  1  0
 23 22  2  0
M  END
$$$$
