CQM.pdb
     RDKit          3D

 24 23  0  0  1  0  0  0  0  0999 V2000
   27.1042  -19.5881  -16.1225 N   0  0  0  0  0  0  0  0  0  0  0  0
   27.4558  -20.2667  -14.8940 C   0  0  1  0  0  0  0  0  0  0  0  0
   28.9271  -20.1448  -14.5708 C   0  0  0  0  0  0  0  0  0  0  0  0
   29.3451  -21.3130  -13.2468 S   0  0  0  0  0  0  0  0  0  0  0  0
   26.5771  -19.8113  -13.8191 C   0  0  0  0  0  0  0  0  0  0  0  0
   26.3066  -18.5999  -13.5892 O   0  0  0  0  0  0  0  0  0  0  0  0
   21.3109  -19.9904  -11.4505 N   0  0  0  0  0  0  0  0  0  0  0  0
   21.7368  -19.7676  -12.7952 C   0  0  0  0  0  0  0  0  0  0  0  0
   20.9516  -19.1455  -13.5500 O   0  0  0  0  0  0  0  0  0  0  0  0
   23.0551  -20.2710  -13.2173 C   0  0  0  0  0  0  0  0  0  0  0  0
   23.7788  -20.9498  -12.0862 C   0  0  0  0  0  0  0  0  0  0  0  0
   25.1538  -20.3891  -11.8261 C   0  0  2  0  0  0  0  0  0  0  0  0
   25.9745  -20.7648  -12.9625 N   0  0  0  0  0  0  0  0  0  0  0  0
   25.6746  -20.9744  -10.5611 C   0  0  0  0  0  0  0  0  0  0  0  0
   25.7610  -22.2236  -10.4915 O   0  0  0  0  0  0  0  0  0  0  0  0
   29.9619  -19.0315   -5.3921 C   0  0  0  0  0  0  0  0  0  0  0  0
   28.2536  -19.1210   -4.8433 S   0  0  0  0  0  0  0  0  0  0  0  0
   27.2307  -20.1807   -5.8370 C   0  0  0  0  0  0  0  0  0  0  0  0
   27.0588  -19.8598   -7.2602 C   0  0  0  0  0  0  0  0  0  0  0  0
   26.2297  -20.7699   -8.0924 C   0  0  2  0  0  0  0  0  0  0  0  0
   26.0721  -20.2010   -9.4476 N   0  0  0  0  0  0  0  0  0  0  0  0
   24.9222  -21.1779   -7.5696 C   0  0  0  0  0  0  0  0  0  0  0  0
   23.8098  -20.7997   -7.9776 O   0  0  0  0  0  0  0  0  0  0  0  0
   24.8484  -22.0975   -6.4850 O   0  0  0  0  0  0  0  0  0  0  0  0
  2  1  1  6
  3  2  1  0
  3  4  1  0
  5  2  1  0
  5  6  2  0
  7  8  1  0
  8  9  2  0
  8 10  1  0
 10 11  1  0
 12 11  1  6
 12 13  1  0
 13  5  1  0
 14 12  1  0
 15 14  2  0
 16 17  1  0
 17 18  1  0
 18 19  1  0
 20 19  1  1
 20 22  1  0
 20 21  1  0
 21 14  1  0
 22 24  1  0
 23 22  2  0
M  END
$$$$
