CQM.pdb
     RDKit          3D

 24 23  0  0  1  0  0  0  0  0999 V2000
   33.5698  -31.3082  -18.0460 N   0  0  0  0  0  0  0  0  0  0  0  0
   32.4434  -30.4752  -17.6845 C   0  0  1  0  0  0  0  0  0  0  0  0
   32.6642  -29.0234  -18.0418 C   0  0  0  0  0  0  0  0  0  0  0  0
   34.2481  -28.4733  -17.3482 S   0  0  0  0  0  0  0  0  0  0  0  0
   31.2202  -31.0410  -18.2487 C   0  0  0  0  0  0  0  0  0  0  0  0
   31.1715  -32.1255  -18.8928 O   0  0  0  0  0  0  0  0  0  0  0  0
   27.8824  -33.9052  -15.5451 N   0  0  0  0  0  0  0  0  0  0  0  0
   27.5914  -32.5586  -15.1691 C   0  0  0  0  0  0  0  0  0  0  0  0
   27.0962  -32.3749  -14.0314 O   0  0  0  0  0  0  0  0  0  0  0  0
   27.8849  -31.4741  -16.1215 C   0  0  0  0  0  0  0  0  0  0  0  0
   28.4271  -32.0066  -17.4200 C   0  0  0  0  0  0  0  0  0  0  0  0
   28.7134  -30.9341  -18.4401 C   0  0  2  0  0  0  0  0  0  0  0  0
   29.9936  -30.3531  -18.0799 N   0  0  0  0  0  0  0  0  0  0  0  0
   27.6225  -29.9237  -18.3866 C   0  0  0  0  0  0  0  0  0  0  0  0
   27.7744  -28.9450  -17.6173 O   0  0  0  0  0  0  0  0  0  0  0  0
   27.4382  -25.2167  -23.8035 C   0  0  0  0  0  0  0  0  0  0  0  0
   27.9881  -26.4945  -22.6669 S   0  0  0  0  0  0  0  0  0  0  0  0
   26.6800  -27.2188  -21.7071 C   0  0  0  0  0  0  0  0  0  0  0  0
   27.0095  -28.3065  -20.7764 C   0  0  0  0  0  0  0  0  0  0  0  0
   25.9160  -28.8840  -19.9524 C   0  0  2  0  0  0  0  0  0  0  0  0
   26.4377  -30.0115  -19.1513 N   0  0  0  0  0  0  0  0  0  0  0  0
   24.6826  -29.2879  -20.6343 C   0  0  0  0  0  0  0  0  0  0  0  0
   23.8235  -28.5322  -21.1221 O   0  0  0  0  0  0  0  0  0  0  0  0
   24.3773  -30.6704  -20.7867 O   0  0  0  0  0  0  0  0  0  0  0  0
  2  1  1  6
  3  2  1  0
  3  4  1  0
  5  2  1  0
  5  6  2  0
  7  8  1  0
  8  9  2  0
  8 10  1  0
 10 11  1  0
 12 11  1  1
 12 13  1  0
 13  5  1  0
 14 12  1  0
 15 14  2  0
 16 17  1  0
 17 18  1  0
 18 19  1  0
 20 19  1  6
 20 22  1  0
 20 21  1  0
 21 14  1  0
 22 24  1  0
 23 22  2  0
M  END
$$$$
