CQM.pdb
     RDKit          3D

 24 23  0  0  1  0  0  0  0  0999 V2000
   28.1790  -20.0273  -15.4029 N   0  0  0  0  0  0  0  0  0  0  0  0
   28.2725  -18.7568  -14.7171 C   0  0  1  0  0  0  0  0  0  0  0  0
   28.1525  -17.5834  -15.6620 C   0  0  0  0  0  0  0  0  0  0  0  0
   29.5044  -17.6508  -16.8705 S   0  0  0  0  0  0  0  0  0  0  0  0
   27.3119  -18.7272  -13.6166 C   0  0  0  0  0  0  0  0  0  0  0  0
   27.0872  -17.7138  -12.8981 O   0  0  0  0  0  0  0  0  0  0  0  0
   22.4155  -22.3903  -13.7140 N   0  0  0  0  0  0  0  0  0  0  0  0
   22.1844  -21.7395  -12.4640 C   0  0  0  0  0  0  0  0  0  0  0  0
   21.0834  -21.9515  -11.9018 O   0  0  0  0  0  0  0  0  0  0  0  0
   23.2351  -20.8687  -11.9096 C   0  0  0  0  0  0  0  0  0  0  0  0
   24.4373  -20.8051  -12.8120 C   0  0  0  0  0  0  0  0  0  0  0  0
   25.5402  -19.9212  -12.2872 C   0  0  2  0  0  0  0  0  0  0  0  0
   26.5691  -19.8936  -13.3104 N   0  0  0  0  0  0  0  0  0  0  0  0
   26.0514  -20.5025  -11.0166 C   0  0  0  0  0  0  0  0  0  0  0  0
   26.6292  -21.6139  -11.0772 O   0  0  0  0  0  0  0  0  0  0  0  0
   29.6445  -18.6195   -5.9009 C   0  0  0  0  0  0  0  0  0  0  0  0
   28.1865  -19.3035   -5.1048 S   0  0  0  0  0  0  0  0  0  0  0  0
   27.1476  -20.2500   -6.1918 C   0  0  0  0  0  0  0  0  0  0  0  0
   26.9437  -19.7699   -7.5651 C   0  0  0  0  0  0  0  0  0  0  0  0
   26.1052  -20.5873   -8.4799 C   0  0  2  0  0  0  0  0  0  0  0  0
   25.9197  -19.8710   -9.7595 N   0  0  0  0  0  0  0  0  0  0  0  0
   24.8098  -21.0617   -7.9837 C   0  0  0  0  0  0  0  0  0  0  0  0
   23.7004  -20.5381   -8.1888 O   0  0  0  0  0  0  0  0  0  0  0  0
   24.7456  -22.2351   -7.1796 O   0  0  0  0  0  0  0  0  0  0  0  0
  2  1  1  6
  3  2  1  0
  3  4  1  0
  5  2  1  0
  5  6  2  0
  7  8  1  0
  8  9  2  0
  8 10  1  0
 10 11  1  0
 12 11  1  6
 12 13  1  0
 13  5  1  0
 14 12  1  0
 15 14  2  0
 16 17  1  0
 17 18  1  0
 18 19  1  0
 20 19  1  1
 20 22  1  0
 20 21  1  0
 21 14  1  0
 22 24  1  0
 23 22  2  0
M  END
$$$$
