CQM.pdb
     RDKit          3D

 24 23  0  0  1  0  0  0  0  0999 V2000
   14.6473  -13.2416  -12.7861 N   0  0  0  0  0  0  0  0  0  0  0  0
   14.7312  -11.8717  -13.2442 C   0  0  1  0  0  0  0  0  0  0  0  0
   13.3752  -11.2924  -13.5753 C   0  0  0  0  0  0  0  0  0  0  0  0
   12.5868  -12.3129  -14.8518 S   0  0  0  0  0  0  0  0  0  0  0  0
   15.4886  -11.0816  -12.2763 C   0  0  0  0  0  0  0  0  0  0  0  0
   15.3397  -11.1596  -11.0252 O   0  0  0  0  0  0  0  0  0  0  0  0
   20.3678   -7.6193  -14.1241 N   0  0  0  0  0  0  0  0  0  0  0  0
   20.3417   -7.2810  -12.7369 C   0  0  0  0  0  0  0  0  0  0  0  0
   21.2368   -6.5088  -12.3178 O   0  0  0  0  0  0  0  0  0  0  0  0
   19.2810   -7.8468  -11.8858 C   0  0  0  0  0  0  0  0  0  0  0  0
   18.3587   -8.7415  -12.6686 C   0  0  0  0  0  0  0  0  0  0  0  0
   17.2466   -9.3346  -11.8413 C   0  0  2  0  0  0  0  0  0  0  0  0
   16.4596  -10.1599  -12.7388 N   0  0  0  0  0  0  0  0  0  0  0  0
   16.4358   -8.2256  -11.2697 C   0  0  0  0  0  0  0  0  0  0  0  0
   15.6732   -7.6033  -12.0467 O   0  0  0  0  0  0  0  0  0  0  0  0
   12.0838   -8.7525   -7.0191 C   0  0  0  0  0  0  0  0  0  0  0  0
   12.1911   -6.9609   -7.0978 S   0  0  0  0  0  0  0  0  0  0  0  0
   13.7153   -6.3585   -7.7839 C   0  0  0  0  0  0  0  0  0  0  0  0
   14.5770   -7.2967   -8.5155 C   0  0  0  0  0  0  0  0  0  0  0  0
   15.6664   -6.7410   -9.3595 C   0  0  2  0  0  0  0  0  0  0  0  0
   16.4822   -7.8439   -9.9101 N   0  0  0  0  0  0  0  0  0  0  0  0
   16.5408   -5.7229   -8.7693 C   0  0  0  0  0  0  0  0  0  0  0  0
   16.1917   -4.6193   -8.3142 O   0  0  0  0  0  0  0  0  0  0  0  0
   17.9420   -5.9590   -8.6781 O   0  0  0  0  0  0  0  0  0  0  0  0
  2  1  1  1
  3  2  1  0
  3  4  1  0
  5  2  1  0
  5  6  2  0
  7  8  1  0
  8  9  2  0
  8 10  1  0
 10 11  1  0
 12 11  1  6
 12 13  1  0
 13  5  1  0
 14 12  1  0
 15 14  2  0
 16 17  1  0
 17 18  1  0
 18 19  1  0
 20 19  1  1
 20 22  1  0
 20 21  1  0
 21 14  1  0
 22 24  1  0
 23 22  2  0
M  END
$$$$
