CQM.pdb
     RDKit          3D

 24 23  0  0  1  0  0  0  0  0999 V2000
   25.0968  -21.4952  -14.9745 N   0  0  0  0  0  0  0  0  0  0  0  0
   24.1713  -22.5933  -14.7983 C   0  0  1  0  0  0  0  0  0  0  0  0
   24.8571  -23.8514  -14.3180 C   0  0  0  0  0  0  0  0  0  0  0  0
   26.1646  -24.3029  -15.4924 S   0  0  0  0  0  0  0  0  0  0  0  0
   23.0649  -22.1638  -13.9462 C   0  0  0  0  0  0  0  0  0  0  0  0
   23.2070  -21.5204  -12.8695 O   0  0  0  0  0  0  0  0  0  0  0  0
   21.0125  -18.6917  -12.5318 N   0  0  0  0  0  0  0  0  0  0  0  0
   19.9060  -19.0431  -13.3634 C   0  0  0  0  0  0  0  0  0  0  0  0
   18.7654  -18.6884  -12.9808 O   0  0  0  0  0  0  0  0  0  0  0  0
   20.1592  -19.7903  -14.6072 C   0  0  0  0  0  0  0  0  0  0  0  0
   19.7254  -21.2263  -14.4908 C   0  0  0  0  0  0  0  0  0  0  0  0
   20.5819  -22.0421  -13.5562 C   0  0  2  0  0  0  0  0  0  0  0  0
   21.7354  -22.4734  -14.3241 N   0  0  0  0  0  0  0  0  0  0  0  0
   19.7857  -23.2020  -13.0719 C   0  0  0  0  0  0  0  0  0  0  0  0
   19.5472  -24.1241  -13.8876 O   0  0  0  0  0  0  0  0  0  0  0  0
   18.3921  -24.2082   -6.6039 C   0  0  0  0  0  0  0  0  0  0  0  0
   17.5886  -25.6049   -7.3983 S   0  0  0  0  0  0  0  0  0  0  0  0
   17.6420  -25.5545   -9.1735 C   0  0  0  0  0  0  0  0  0  0  0  0
   18.4689  -24.5291   -9.8237 C   0  0  0  0  0  0  0  0  0  0  0  0
   18.4488  -24.4442  -11.3071 C   0  0  2  0  0  0  0  0  0  0  0  0
   19.2909  -23.3142  -11.7532 N   0  0  0  0  0  0  0  0  0  0  0  0
   17.1444  -24.3853  -11.9737 C   0  0  0  0  0  0  0  0  0  0  0  0
   16.5473  -25.3301  -12.5195 O   0  0  0  0  0  0  0  0  0  0  0  0
   16.4369  -23.1512  -12.0383 O   0  0  0  0  0  0  0  0  0  0  0  0
  2  1  1  1
  3  2  1  0
  3  4  1  0
  5  2  1  0
  5  6  2  0
  7  8  1  0
  8  9  2  0
  8 10  1  0
 10 11  1  0
 12 11  1  6
 12 13  1  0
 13  5  1  0
 14 12  1  0
 15 14  2  0
 16 17  1  0
 17 18  1  0
 18 19  1  0
 20 19  1  1
 20 22  1  0
 20 21  1  0
 21 14  1  0
 22 24  1  0
 23 22  2  0
M  END
$$$$
