CQM.pdb
     RDKit          3D

 24 23  0  0  1  0  0  0  0  0999 V2000
   27.2632  -16.8648  -16.4860 N   0  0  0  0  0  0  0  0  0  0  0  0
   27.2672  -18.2084  -15.9494 C   0  0  1  0  0  0  0  0  0  0  0  0
   28.6567  -18.6771  -15.5834 C   0  0  0  0  0  0  0  0  0  0  0  0
   29.4625  -19.3611  -17.0583 S   0  0  0  0  0  0  0  0  0  0  0  0
   26.3082  -18.2953  -14.8505 C   0  0  0  0  0  0  0  0  0  0  0  0
   26.1034  -17.3732  -14.0130 O   0  0  0  0  0  0  0  0  0  0  0  0
   21.2917  -18.9777  -14.3368 N   0  0  0  0  0  0  0  0  0  0  0  0
   21.2917  -19.9066  -13.2522 C   0  0  0  0  0  0  0  0  0  0  0  0
   20.3080  -19.8803  -12.4744 O   0  0  0  0  0  0  0  0  0  0  0  0
   22.4281  -20.8325  -13.1077 C   0  0  0  0  0  0  0  0  0  0  0  0
   23.5070  -20.5497  -14.1175 C   0  0  0  0  0  0  0  0  0  0  0  0
   24.6031  -19.6557  -13.5960 C   0  0  2  0  0  0  0  0  0  0  0  0
   25.5433  -19.4761  -14.6868 N   0  0  0  0  0  0  0  0  0  0  0  0
   25.2437  -20.3202  -12.4289 C   0  0  0  0  0  0  0  0  0  0  0  0
   25.8178  -21.4172  -12.6280 O   0  0  0  0  0  0  0  0  0  0  0  0
   29.8812  -19.1865   -7.0214 C   0  0  0  0  0  0  0  0  0  0  0  0
   28.1109  -18.9234   -6.8663 S   0  0  0  0  0  0  0  0  0  0  0  0
   27.1276  -20.0321   -7.8465 C   0  0  0  0  0  0  0  0  0  0  0  0
   26.6098  -19.5591   -9.1373 C   0  0  0  0  0  0  0  0  0  0  0  0
   25.8017  -20.4974   -9.9587 C   0  0  2  0  0  0  0  0  0  0  0  0
   25.2373  -19.7820  -11.1226 N   0  0  0  0  0  0  0  0  0  0  0  0
   24.7475  -21.2640   -9.2877 C   0  0  0  0  0  0  0  0  0  0  0  0
   24.8839  -22.0003   -8.2946 O   0  0  0  0  0  0  0  0  0  0  0  0
   23.4099  -21.2036   -9.7722 O   0  0  0  0  0  0  0  0  0  0  0  0
  2  1  1  1
  3  2  1  0
  3  4  1  0
  5  2  1  0
  5  6  2  0
  7  8  1  0
  8  9  2  0
  8 10  1  0
 10 11  1  0
 12 11  1  6
 12 13  1  0
 13  5  1  0
 14 12  1  0
 15 14  2  0
 16 17  1  0
 17 18  1  0
 18 19  1  0
 20 19  1  1
 20 22  1  0
 20 21  1  0
 21 14  1  0
 22 24  1  0
 23 22  2  0
M  END
$$$$
