GFH.pdb
     RDKit          3D

 26 27  0  0  1  0  0  0  0  0999 V2000
   21.4042  -21.8203  -12.2678 N   0  0  0  0  0  0  0  0  0  0  0  0
   21.8152  -20.7925  -11.3643 C   0  0  0  0  0  0  0  0  0  0  0  0
   23.2140  -20.3229  -11.6602 C   0  0  0  0  0  0  0  0  0  0  0  0
   23.4137  -19.1217  -11.9697 O   0  0  0  0  0  0  0  0  0  0  0  0
   24.3295  -21.1995  -11.6015 N   0  0  0  0  0  0  0  0  0  0  0  0
   25.6936  -20.8281  -11.8816 C   0  0  1  0  0  0  0  0  0  0  0  0
   26.6261  -21.3929  -10.8394 C   0  0  0  0  0  0  0  0  0  0  0  0
   26.4243  -20.8346   -9.5013 C   0  0  0  0  0  0  0  0  0  0  0  0
   27.2120  -19.8246   -8.9787 C   0  0  0  0  0  0  0  0  0  0  0  0
   26.9831  -19.3240   -7.6999 C   0  0  0  0  0  0  0  0  0  0  0  0
   25.9570  -19.8341   -6.9294 C   0  0  0  0  0  0  0  0  0  0  0  0
   25.1562  -20.8479   -7.4372 C   0  0  0  0  0  0  0  0  0  0  0  0
   25.4112  -21.3252   -8.7171 C   0  0  0  0  0  0  0  0  0  0  0  0
   26.1127  -21.1449  -13.2561 C   0  0  0  0  0  0  0  0  0  0  0  0
   25.8626  -22.2648  -13.7407 O   0  0  0  0  0  0  0  0  0  0  0  0
   26.8172  -20.2268  -14.1201 N   0  0  0  0  0  0  0  0  0  0  0  0
   26.3526  -19.9801  -15.4709 C   0  0  1  0  0  0  0  0  0  0  0  0
   24.9106  -19.6590  -15.5648 C   0  0  0  0  0  0  0  0  0  0  0  0
   24.3755  -19.3461  -16.8942 C   0  0  0  0  0  0  0  0  0  0  0  0
   24.4079  -19.9997  -18.1035 C   0  0  0  0  0  0  0  0  0  0  0  0
   23.7206  -19.2615  -18.9854 N   0  0  0  0  0  0  0  0  0  0  0  0
   23.2689  -18.1777  -18.3524 C   0  0  0  0  0  0  0  0  0  0  0  0
   23.6477  -18.1912  -17.0701 N   0  0  0  0  0  0  0  0  0  0  0  0
   27.2278  -18.9909  -16.1315 C   0  0  0  0  0  0  0  0  0  0  0  0
   27.7696  -19.2668  -17.3696 O   0  0  0  0  0  0  0  0  0  0  0  0
   27.4910  -17.8980  -15.5877 O   0  0  0  0  0  0  0  0  0  0  0  0
  2  1  1  0
  3  2  1  0
  3  4  2  0
  5  3  1  0
  6  5  1  0
  6  7  1  1
  8  7  1  0
  8 13  1  0
  9  8  2  0
 10  9  1  0
 10 11  2  0
 11 12  1  0
 12 13  2  0
 14  6  1  0
 14 16  1  0
 15 14  2  0
 17 16  1  0
 17 24  1  0
 17 18  1  1
 19 18  1  0
 19 23  1  0
 20 21  1  0
 20 19  2  0
 21 22  1  0
 22 23  2  0
 24 26  2  0
 24 25  1  0
M  END
$$$$
