GFH.pdb
     RDKit          3D

 26 27  0  0  1  0  0  0  0  0999 V2000
   41.9023   -5.1361   -5.0178 N   0  0  0  0  0  0  0  0  0  0  0  0
   41.5377   -4.1697   -6.0051 C   0  0  0  0  0  0  0  0  0  0  0  0
   40.1673   -4.4409   -6.5649 C   0  0  0  0  0  0  0  0  0  0  0  0
   39.7946   -5.6267   -6.7483 O   0  0  0  0  0  0  0  0  0  0  0  0
   39.2699   -3.3919   -6.8971 N   0  0  0  0  0  0  0  0  0  0  0  0
   37.9876   -3.5655   -7.5317 C   0  0  1  0  0  0  0  0  0  0  0  0
   36.8782   -3.0655   -6.6406 C   0  0  0  0  0  0  0  0  0  0  0  0
   36.6954   -3.8580   -5.4235 C   0  0  0  0  0  0  0  0  0  0  0  0
   36.2005   -5.1498   -5.4318 C   0  0  0  0  0  0  0  0  0  0  0  0
   36.0433   -5.8664   -4.2486 C   0  0  0  0  0  0  0  0  0  0  0  0
   36.3827   -5.2914   -3.0399 C   0  0  0  0  0  0  0  0  0  0  0  0
   36.8810   -3.9960   -3.0121 C   0  0  0  0  0  0  0  0  0  0  0  0
   37.0255   -3.3082   -4.2108 C   0  0  0  0  0  0  0  0  0  0  0  0
   37.9289   -3.0014   -8.8895 C   0  0  0  0  0  0  0  0  0  0  0  0
   38.4858   -1.9151   -9.1369 O   0  0  0  0  0  0  0  0  0  0  0  0
   37.2518   -3.6303   -9.9993 N   0  0  0  0  0  0  0  0  0  0  0  0
   37.2673   -3.0212  -11.3147 C   0  0  1  0  0  0  0  0  0  0  0  0
   37.0247   -3.9715  -12.4235 C   0  0  0  0  0  0  0  0  0  0  0  0
   36.9222   -3.4153  -13.7769 C   0  0  0  0  0  0  0  0  0  0  0  0
   37.0795   -2.1505  -14.2929 C   0  0  0  0  0  0  0  0  0  0  0  0
   36.8975   -2.2245  -15.6182 N   0  0  0  0  0  0  0  0  0  0  0  0
   36.6346   -3.4950  -15.9279 C   0  0  0  0  0  0  0  0  0  0  0  0
   36.6405   -4.2569  -14.8290 N   0  0  0  0  0  0  0  0  0  0  0  0
   36.3779   -1.8426  -11.3344 C   0  0  0  0  0  0  0  0  0  0  0  0
   36.7730   -0.6904  -11.9816 O   0  0  0  0  0  0  0  0  0  0  0  0
   35.2633   -1.8665  -10.7715 O   0  0  0  0  0  0  0  0  0  0  0  0
  2  1  1  0
  3  2  1  0
  3  4  2  0
  5  3  1  0
  6  5  1  0
  6  7  1  1
  8  7  1  0
  8 13  1  0
  9  8  2  0
 10  9  1  0
 10 11  2  0
 11 12  1  0
 12 13  2  0
 14  6  1  0
 14 16  1  0
 15 14  2  0
 17 16  1  0
 17 24  1  0
 17 18  1  6
 19 18  1  0
 19 23  1  0
 20 21  1  0
 20 19  2  0
 21 22  1  0
 22 23  2  0
 24 26  2  0
 24 25  1  0
M  END
$$$$
