GFH.pdb
     RDKit          3D

 26 27  0  0  1  0  0  0  0  0999 V2000
   28.5513  -22.5671  -15.5655 N   0  0  0  0  0  0  0  0  0  0  0  0
   28.3049  -21.3453  -14.8670 C   0  0  0  0  0  0  0  0  0  0  0  0
   27.2382  -21.5130  -13.8187 C   0  0  0  0  0  0  0  0  0  0  0  0
   26.6163  -22.6014  -13.7338 O   0  0  0  0  0  0  0  0  0  0  0  0
   26.9056  -20.4726  -12.9115 N   0  0  0  0  0  0  0  0  0  0  0  0
   25.7662  -20.4727  -12.0290 C   0  0  1  0  0  0  0  0  0  0  0  0
   26.0549  -19.6729  -10.7833 C   0  0  0  0  0  0  0  0  0  0  0  0
   27.1653  -20.1989   -9.9875 C   0  0  0  0  0  0  0  0  0  0  0  0
   28.3220  -20.7078  -10.5504 C   0  0  0  0  0  0  0  0  0  0  0  0
   29.3531  -21.1978   -9.7536 C   0  0  0  0  0  0  0  0  0  0  0  0
   29.2334  -21.1820   -8.3780 C   0  0  0  0  0  0  0  0  0  0  0  0
   28.0799  -20.6751   -7.7954 C   0  0  0  0  0  0  0  0  0  0  0  0
   27.0695  -20.1937   -8.6191 C   0  0  0  0  0  0  0  0  0  0  0  0
   24.5163  -20.0679  -12.6917 C   0  0  0  0  0  0  0  0  0  0  0  0
   24.5528  -19.3107  -13.6801 O   0  0  0  0  0  0  0  0  0  0  0  0
   23.2020  -20.4943  -12.2721 N   0  0  0  0  0  0  0  0  0  0  0  0
   22.1908  -20.8417  -13.2511 C   0  0  1  0  0  0  0  0  0  0  0  0
   22.5906  -21.9283  -14.1733 C   0  0  0  0  0  0  0  0  0  0  0  0
   21.6378  -22.3057  -15.2227 C   0  0  0  0  0  0  0  0  0  0  0  0
   20.9623  -21.5939  -16.1859 C   0  0  0  0  0  0  0  0  0  0  0  0
   20.2387  -22.4632  -16.9041 N   0  0  0  0  0  0  0  0  0  0  0  0
   20.4516  -23.6838  -16.4101 C   0  0  0  0  0  0  0  0  0  0  0  0
   21.3023  -23.6313  -15.3798 N   0  0  0  0  0  0  0  0  0  0  0  0
   20.8978  -21.0770  -12.5776 C   0  0  0  0  0  0  0  0  0  0  0  0
   20.7801  -22.0834  -11.6418 O   0  0  0  0  0  0  0  0  0  0  0  0
   19.8975  -20.3768  -12.8397 O   0  0  0  0  0  0  0  0  0  0  0  0
  2  1  1  0
  3  2  1  0
  3  4  2  0
  5  3  1  0
  6  5  1  0
  6  7  1  1
  8  7  1  0
  8 13  1  0
  9  8  2  0
 10  9  1  0
 10 11  2  0
 11 12  1  0
 12 13  2  0
 14  6  1  0
 14 16  1  0
 15 14  2  0
 17 16  1  0
 17 24  1  0
 17 18  1  1
 19 18  1  0
 19 23  1  0
 20 21  1  0
 20 19  2  0
 21 22  1  0
 22 23  2  0
 24 26  2  0
 24 25  1  0
M  END
$$$$
