GFH.pdb
     RDKit          3D

 26 27  0  0  1  0  0  0  0  0999 V2000
   29.0562  -22.2136  -18.4432 N   0  0  0  0  0  0  0  0  0  0  0  0
   28.4291  -21.0819  -17.8370 C   0  0  0  0  0  0  0  0  0  0  0  0
   27.7348  -21.4550  -16.5550 C   0  0  0  0  0  0  0  0  0  0  0  0
   27.5980  -22.6668  -16.2525 O   0  0  0  0  0  0  0  0  0  0  0  0
   27.2228  -20.4748  -15.6645 N   0  0  0  0  0  0  0  0  0  0  0  0
   26.4859  -20.7529  -14.4575 C   0  0  1  0  0  0  0  0  0  0  0  0
   26.9131  -19.8279  -13.3454 C   0  0  0  0  0  0  0  0  0  0  0  0
   26.2843  -20.1234  -12.0569 C   0  0  0  0  0  0  0  0  0  0  0  0
   25.0846  -19.5626  -11.6568 C   0  0  0  0  0  0  0  0  0  0  0  0
   24.5233  -19.8731  -10.4212 C   0  0  0  0  0  0  0  0  0  0  0  0
   25.1631  -20.7532   -9.5709 C   0  0  0  0  0  0  0  0  0  0  0  0
   26.3678  -21.3257   -9.9555 C   0  0  0  0  0  0  0  0  0  0  0  0
   26.9010  -20.9947  -11.1953 C   0  0  0  0  0  0  0  0  0  0  0  0
   25.0281  -20.7726  -14.6569 C   0  0  0  0  0  0  0  0  0  0  0  0
   24.4574  -19.7942  -15.1752 O   0  0  0  0  0  0  0  0  0  0  0  0
   24.1746  -21.8768  -14.2857 N   0  0  0  0  0  0  0  0  0  0  0  0
   22.7580  -21.8504  -14.5919 C   0  0  1  0  0  0  0  0  0  0  0  0
   22.1714  -23.1841  -14.8538 C   0  0  0  0  0  0  0  0  0  0  0  0
   20.7251  -23.2493  -15.0894 C   0  0  0  0  0  0  0  0  0  0  0  0
   19.6333  -22.7785  -14.3989 C   0  0  0  0  0  0  0  0  0  0  0  0
   18.5372  -23.1014  -15.0985 N   0  0  0  0  0  0  0  0  0  0  0  0
   18.9254  -23.7541  -16.1950 C   0  0  0  0  0  0  0  0  0  0  0  0
   20.2576  -23.8657  -16.2278 N   0  0  0  0  0  0  0  0  0  0  0  0
   22.0353  -21.0725  -13.5656 C   0  0  0  0  0  0  0  0  0  0  0  0
   21.1432  -20.0911  -13.9445 O   0  0  0  0  0  0  0  0  0  0  0  0
   22.2164  -21.2861  -12.3486 O   0  0  0  0  0  0  0  0  0  0  0  0
  2  1  1  0
  3  2  1  0
  3  4  2  0
  5  3  1  0
  6  5  1  0
  6  7  1  1
  8  7  1  0
  8 13  1  0
  9  8  2  0
 10  9  1  0
 10 11  2  0
 11 12  1  0
 12 13  2  0
 14  6  1  0
 14 16  1  0
 15 14  2  0
 17 16  1  0
 17 24  1  0
 17 18  1  1
 19 18  1  0
 19 23  1  0
 20 21  1  0
 20 19  2  0
 21 22  1  0
 22 23  2  0
 24 26  2  0
 24 25  1  0
M  END
$$$$
