GFH.pdb
     RDKit          3D

 26 27  0  0  1  0  0  0  0  0999 V2000
   19.1489  -17.1003  -12.3796 N   0  0  0  0  0  0  0  0  0  0  0  0
   20.3888  -17.7881  -12.5564 C   0  0  0  0  0  0  0  0  0  0  0  0
   20.1902  -19.1248  -13.2186 C   0  0  0  0  0  0  0  0  0  0  0  0
   19.1623  -19.3281  -13.9119 O   0  0  0  0  0  0  0  0  0  0  0  0
   21.1343  -20.1769  -13.0862 N   0  0  0  0  0  0  0  0  0  0  0  0
   21.0701  -21.4421  -13.7735 C   0  0  1  0  0  0  0  0  0  0  0  0
   22.3959  -21.7708  -14.4131 C   0  0  0  0  0  0  0  0  0  0  0  0
   22.8005  -20.8242  -15.4539 C   0  0  0  0  0  0  0  0  0  0  0  0
   23.4990  -19.6607  -15.1851 C   0  0  0  0  0  0  0  0  0  0  0  0
   23.8632  -18.7891  -16.2078 C   0  0  0  0  0  0  0  0  0  0  0  0
   23.5288  -19.0776  -17.5162 C   0  0  0  0  0  0  0  0  0  0  0  0
   22.8281  -20.2406  -17.8049 C   0  0  0  0  0  0  0  0  0  0  0  0
   22.4797  -21.0891  -16.7611 C   0  0  0  0  0  0  0  0  0  0  0  0
   20.5533  -22.5349  -12.9345 C   0  0  0  0  0  0  0  0  0  0  0  0
   20.9333  -22.6462  -11.7535 O   0  0  0  0  0  0  0  0  0  0  0  0
   19.6055  -23.5256  -13.3881 N   0  0  0  0  0  0  0  0  0  0  0  0
   18.6860  -24.1487  -12.4566 C   0  0  1  0  0  0  0  0  0  0  0  0
   18.2854  -23.2775  -11.3289 C   0  0  0  0  0  0  0  0  0  0  0  0
   18.6153  -23.7345   -9.9747 C   0  0  0  0  0  0  0  0  0  0  0  0
   19.3295  -24.8030   -9.4859 C   0  0  0  0  0  0  0  0  0  0  0  0
   19.3375  -24.7119   -8.1492 N   0  0  0  0  0  0  0  0  0  0  0  0
   18.6512  -23.6208   -7.8063 C   0  0  0  0  0  0  0  0  0  0  0  0
   18.1922  -22.9937   -8.8945 N   0  0  0  0  0  0  0  0  0  0  0  0
   17.5467  -24.7356  -13.1904 C   0  0  0  0  0  0  0  0  0  0  0  0
   17.2954  -24.3566  -14.4926 O   0  0  0  0  0  0  0  0  0  0  0  0
   16.7974  -25.5770  -12.6516 O   0  0  0  0  0  0  0  0  0  0  0  0
  2  1  1  0
  3  2  1  0
  3  4  2  0
  5  3  1  0
  6  5  1  0
  6  7  1  1
  8  7  1  0
  8 13  1  0
  9  8  2  0
 10  9  1  0
 10 11  2  0
 11 12  1  0
 12 13  2  0
 14  6  1  0
 14 16  1  0
 15 14  2  0
 17 16  1  0
 17 24  1  0
 17 18  1  1
 19 18  1  0
 19 23  1  0
 20 21  1  0
 20 19  2  0
 21 22  1  0
 22 23  2  0
 24 26  2  0
 24 25  1  0
M  END
$$$$
