GFH.pdb
     RDKit          3D

 26 27  0  0  1  0  0  0  0  0999 V2000
   39.8628  -23.2016    6.5979 N   0  0  0  0  0  0  0  0  0  0  0  0
   38.8819  -23.4777    5.5963 C   0  0  0  0  0  0  0  0  0  0  0  0
   37.5310  -23.7435    6.2037 C   0  0  0  0  0  0  0  0  0  0  0  0
   37.4166  -23.8273    7.4521 O   0  0  0  0  0  0  0  0  0  0  0  0
   36.3671  -23.9050    5.4066 N   0  0  0  0  0  0  0  0  0  0  0  0
   35.0730  -24.3068    5.8978 C   0  0  1  0  0  0  0  0  0  0  0  0
   33.9992  -24.0072    4.8820 C   0  0  0  0  0  0  0  0  0  0  0  0
   33.5074  -22.6293    4.9311 C   0  0  0  0  0  0  0  0  0  0  0  0
   33.7678  -21.7726    5.9856 C   0  0  0  0  0  0  0  0  0  0  0  0
   33.2790  -20.4689    5.9894 C   0  0  0  0  0  0  0  0  0  0  0  0
   32.5208  -20.0100    4.9305 C   0  0  0  0  0  0  0  0  0  0  0  0
   32.2493  -20.8555    3.8636 C   0  0  0  0  0  0  0  0  0  0  0  0
   32.7520  -22.1507    3.8907 C   0  0  0  0  0  0  0  0  0  0  0  0
   35.0375  -25.6986    6.3741 C   0  0  0  0  0  0  0  0  0  0  0  0
   35.9837  -26.4679    6.1200 O   0  0  0  0  0  0  0  0  0  0  0  0
   33.9528  -26.2649    7.1411 N   0  0  0  0  0  0  0  0  0  0  0  0
   34.2216  -27.1337    8.2699 C   0  0  1  0  0  0  0  0  0  0  0  0
   35.1059  -26.5360    9.2955 C   0  0  0  0  0  0  0  0  0  0  0  0
   36.4615  -27.0829    9.4174 C   0  0  0  0  0  0  0  0  0  0  0  0
   37.1736  -28.0123    8.6965 C   0  0  0  0  0  0  0  0  0  0  0  0
   38.3943  -28.1038    9.2411 N   0  0  0  0  0  0  0  0  0  0  0  0
   38.4503  -27.2588   10.2716 C   0  0  0  0  0  0  0  0  0  0  0  0
   37.2875  -26.6140   10.4136 N   0  0  0  0  0  0  0  0  0  0  0  0
   32.9535  -27.6626    8.8113 C   0  0  0  0  0  0  0  0  0  0  0  0
   32.7453  -29.0246    8.8760 O   0  0  0  0  0  0  0  0  0  0  0  0
   32.0555  -26.8951    9.2164 O   0  0  0  0  0  0  0  0  0  0  0  0
  2  1  1  0
  3  2  1  0
  3  4  2  0
  5  3  1  0
  6  5  1  0
  6  7  1  6
  8  7  1  0
  8 13  1  0
  9  8  2  0
 10  9  1  0
 10 11  2  0
 11 12  1  0
 12 13  2  0
 14  6  1  0
 14 16  1  0
 15 14  2  0
 17 16  1  0
 17 24  1  0
 17 18  1  1
 19 18  1  0
 19 23  1  0
 20 21  1  0
 20 19  2  0
 21 22  1  0
 22 23  2  0
 24 26  2  0
 24 25  1  0
M  END
$$$$
