GFH.pdb
     RDKit          3D

 26 27  0  0  1  0  0  0  0  0999 V2000
   31.6041  -22.0870   -9.9377 N   0  0  0  0  0  0  0  0  0  0  0  0
   30.7658  -20.9502  -10.1530 C   0  0  0  0  0  0  0  0  0  0  0  0
   29.3658  -21.1935   -9.6574 C   0  0  0  0  0  0  0  0  0  0  0  0
   28.8750  -22.3482   -9.7242 O   0  0  0  0  0  0  0  0  0  0  0  0
   28.5705  -20.1523   -9.1103 N   0  0  0  0  0  0  0  0  0  0  0  0
   27.1986  -20.2882   -8.6900 C   0  0  1  0  0  0  0  0  0  0  0  0
   26.9066  -19.3851   -7.5179 C   0  0  0  0  0  0  0  0  0  0  0  0
   27.7339  -19.6579   -6.3414 C   0  0  0  0  0  0  0  0  0  0  0  0
   27.7474  -20.8815   -5.6961 C   0  0  0  0  0  0  0  0  0  0  0  0
   28.5508  -21.0959   -4.5795 C   0  0  0  0  0  0  0  0  0  0  0  0
   29.3523  -20.0801   -4.0972 C   0  0  0  0  0  0  0  0  0  0  0  0
   29.3518  -18.8455   -4.7318 C   0  0  0  0  0  0  0  0  0  0  0  0
   28.5384  -18.6644   -5.8438 C   0  0  0  0  0  0  0  0  0  0  0  0
   26.2342  -20.1279   -9.7898 C   0  0  0  0  0  0  0  0  0  0  0  0
   26.1377  -19.0345  -10.3787 O   0  0  0  0  0  0  0  0  0  0  0  0
   25.3580  -21.1759  -10.2581 N   0  0  0  0  0  0  0  0  0  0  0  0
   24.5333  -20.9786  -11.4339 C   0  0  1  0  0  0  0  0  0  0  0  0
   24.6553  -22.0530  -12.4448 C   0  0  0  0  0  0  0  0  0  0  0  0
   23.8129  -21.9508  -13.6413 C   0  0  0  0  0  0  0  0  0  0  0  0
   22.8865  -21.0290  -14.0684 C   0  0  0  0  0  0  0  0  0  0  0  0
   22.4396  -21.4246  -15.2679 N   0  0  0  0  0  0  0  0  0  0  0  0
   23.0646  -22.5589  -15.5871 C   0  0  0  0  0  0  0  0  0  0  0  0
   23.9142  -22.9154  -14.6179 N   0  0  0  0  0  0  0  0  0  0  0  0
   23.1413  -20.6947  -11.0307 C   0  0  0  0  0  0  0  0  0  0  0  0
   22.2174  -20.2955  -11.9738 O   0  0  0  0  0  0  0  0  0  0  0  0
   22.7784  -20.8095   -9.8413 O   0  0  0  0  0  0  0  0  0  0  0  0
  2  1  1  0
  3  2  1  0
  3  4  2  0
  5  3  1  0
  6  5  1  0
  6  7  1  1
  8  7  1  0
  8 13  1  0
  9  8  2  0
 10  9  1  0
 10 11  2  0
 11 12  1  0
 12 13  2  0
 14  6  1  0
 14 16  1  0
 15 14  2  0
 17 16  1  0
 17 24  1  0
 17 18  1  6
 19 18  1  0
 19 23  1  0
 20 21  1  0
 20 19  2  0
 21 22  1  0
 22 23  2  0
 24 26  2  0
 24 25  1  0
M  END
$$$$
