GFH.pdb
     RDKit          3D

 26 27  0  0  1  0  0  0  0  0999 V2000
   25.5068  -11.7236  -21.3703 N   0  0  0  0  0  0  0  0  0  0  0  0
   26.4780  -11.4224  -20.3665 C   0  0  0  0  0  0  0  0  0  0  0  0
   25.8275  -11.0454  -19.0629 C   0  0  0  0  0  0  0  0  0  0  0  0
   24.8900  -11.7487  -18.6102 O   0  0  0  0  0  0  0  0  0  0  0  0
   26.2405   -9.9097  -18.3175 N   0  0  0  0  0  0  0  0  0  0  0  0
   25.7204   -9.5279  -17.0287 C   0  0  1  0  0  0  0  0  0  0  0  0
   26.8255   -9.4627  -16.0043 C   0  0  0  0  0  0  0  0  0  0  0  0
   27.6003  -10.6996  -15.8916 C   0  0  0  0  0  0  0  0  0  0  0  0
   28.7654  -10.9272  -16.6018 C   0  0  0  0  0  0  0  0  0  0  0  0
   29.4701  -12.1199  -16.4627 C   0  0  0  0  0  0  0  0  0  0  0  0
   29.0106  -13.1003  -15.6058 C   0  0  0  0  0  0  0  0  0  0  0  0
   27.8432  -12.8896  -14.8848 C   0  0  0  0  0  0  0  0  0  0  0  0
   27.1638  -11.6883  -15.0466 C   0  0  0  0  0  0  0  0  0  0  0  0
   24.9052   -8.3036  -17.0693 C   0  0  0  0  0  0  0  0  0  0  0  0
   25.1600   -7.4134  -17.9025 O   0  0  0  0  0  0  0  0  0  0  0  0
   23.7919   -8.0421  -16.1874 N   0  0  0  0  0  0  0  0  0  0  0  0
   22.8522   -6.9778  -16.4801 C   0  0  1  0  0  0  0  0  0  0  0  0
   22.3836   -6.9546  -17.8840 C   0  0  0  0  0  0  0  0  0  0  0  0
   21.4418   -5.8956  -18.2623 C   0  0  0  0  0  0  0  0  0  0  0  0
   21.5910   -4.5628  -18.5656 C   0  0  0  0  0  0  0  0  0  0  0  0
   20.3814   -4.0762  -18.8741 N   0  0  0  0  0  0  0  0  0  0  0  0
   19.4982   -5.0702  -18.7694 C   0  0  0  0  0  0  0  0  0  0  0  0
   20.1066   -6.2013  -18.3972 N   0  0  0  0  0  0  0  0  0  0  0  0
   21.7594   -6.9837  -15.4869 C   0  0  0  0  0  0  0  0  0  0  0  0
   21.0075   -5.8458  -15.2811 O   0  0  0  0  0  0  0  0  0  0  0  0
   21.4982   -8.0080  -14.8218 O   0  0  0  0  0  0  0  0  0  0  0  0
  2  1  1  0
  3  2  1  0
  3  4  2  0
  5  3  1  0
  6  5  1  0
  6  7  1  1
  8  7  1  0
  8 13  1  0
  9  8  2  0
 10  9  1  0
 10 11  2  0
 11 12  1  0
 12 13  2  0
 14  6  1  0
 14 16  1  0
 15 14  2  0
 17 16  1  0
 17 24  1  0
 17 18  1  6
 19 18  1  0
 19 23  1  0
 20 21  1  0
 20 19  2  0
 21 22  1  0
 22 23  2  0
 24 26  2  0
 24 25  1  0
M  END
$$$$
