NQI.pdb
     RDKit          3D

 26 25  0  0  1  0  0  0  0  0999 V2000
    8.6606  -12.5744   17.9486 N   0  0  0  0  0  0  0  0  0  0  0  0
    7.9457  -13.7986   17.9714 C   0  0  0  0  0  0  0  0  0  0  0  0
    7.9178  -14.5075   16.9482 O   0  0  0  0  0  0  0  0  0  0  0  0
    7.2583  -14.1998   19.1951 C   0  0  0  0  0  0  0  0  0  0  0  0
    7.7069  -15.4874   19.7963 C   0  0  2  0  0  0  0  0  0  0  0  0
    7.4217  -16.6048   18.9543 N   0  0  0  0  0  0  0  0  0  0  0  0
    7.2758  -15.6755   21.2017 C   0  0  0  0  0  0  0  0  0  0  0  0
    6.3311  -14.9922   21.6499 O   0  0  0  0  0  0  0  0  0  0  0  0
    6.8216  -20.8367   24.7913 N   0  0  0  0  0  0  0  0  0  0  0  0
    6.1001  -20.3755   23.6333 C   0  0  0  0  0  0  0  0  0  0  0  0
    5.3292  -21.1984   23.1139 O   0  0  0  0  0  0  0  0  0  0  0  0
    6.2933  -19.0177   23.1281 C   0  0  0  0  0  0  0  0  0  0  0  0
    7.2875  -18.2253   23.9194 C   0  0  0  0  0  0  0  0  0  0  0  0
    7.5808  -16.8618   23.4394 C   0  0  2  0  0  0  0  0  0  0  0  0
    7.8964  -16.6190   22.0966 N   0  0  0  0  0  0  0  0  0  0  0  0
    8.3339  -16.0643   24.4650 C   0  0  0  0  0  0  0  0  0  0  0  0
    9.5760  -15.9928   24.2729 O   0  0  0  0  0  0  0  0  0  0  0  0
    6.1684  -11.6483   26.6818 C   0  0  0  0  0  0  0  0  0  0  0  0
    7.1328  -12.6345   26.0421 C   0  0  0  0  0  0  0  0  0  0  0  0
    7.7299  -13.5185   27.1106 C   0  0  2  0  0  0  0  0  0  0  0  0
    8.5166  -12.7234   28.1072 C   0  0  0  0  0  0  0  0  0  0  0  0
    8.5207  -14.6790   26.5610 C   0  0  2  0  0  0  0  0  0  0  0  0
    7.7617  -15.4381   25.5627 N   0  0  0  0  0  0  0  0  0  0  0  0
    8.9068  -15.5449   27.6985 C   0  0  0  0  0  0  0  0  0  0  0  0
    9.7621  -15.1978   28.5451 O   0  0  0  0  0  0  0  0  0  0  0  0
    8.3306  -16.8062   27.8871 O   0  0  0  0  0  0  0  0  0  0  0  0
  2  1  1  0
  3  2  2  0
  4  2  1  0
  5  4  1  0
  5  6  1  6
  7  8  2  0
  7  5  1  0
 10 12  1  0
 10  9  1  0
 11 10  2  0
 13 12  1  0
 14 13  1  1
 14 15  1  0
 15  7  1  0
 16 14  1  0
 17 16  2  0
 18 19  1  0
 19 20  1  0
 20 21  1  1
 22 20  1  0
 22 23  1  6
 23 16  1  0
 24 22  1  0
 25 24  2  0
 26 24  1  0
M  END
$$$$
