NQI.pdb
     RDKit          3D

 26 25  0  0  1  0  0  0  0  0999 V2000
    9.1820  -14.1275   16.6637 N   0  0  0  0  0  0  0  0  0  0  0  0
    7.9856  -13.5337   17.1392 C   0  0  0  0  0  0  0  0  0  0  0  0
    7.1687  -13.0694   16.3220 O   0  0  0  0  0  0  0  0  0  0  0  0
    7.7388  -13.4803   18.5769 C   0  0  0  0  0  0  0  0  0  0  0  0
    8.7953  -14.0841   19.4371 C   0  0  2  0  0  0  0  0  0  0  0  0
    9.5958  -15.0288   18.7262 N   0  0  0  0  0  0  0  0  0  0  0  0
    8.2942  -14.5877   20.7379 C   0  0  0  0  0  0  0  0  0  0  0  0
    7.5988  -13.8405   21.4578 O   0  0  0  0  0  0  0  0  0  0  0  0
    5.7844  -19.4829   22.8036 N   0  0  0  0  0  0  0  0  0  0  0  0
    6.3802  -19.0144   24.0282 C   0  0  0  0  0  0  0  0  0  0  0  0
    5.7021  -19.1763   25.0554 O   0  0  0  0  0  0  0  0  0  0  0  0
    7.7010  -18.3886   24.0215 C   0  0  0  0  0  0  0  0  0  0  0  0
    8.1281  -17.9172   22.6658 C   0  0  0  0  0  0  0  0  0  0  0  0
    8.2222  -16.4582   22.4709 C   0  0  2  0  0  0  0  0  0  0  0  0
    8.5694  -15.9145   21.2278 N   0  0  0  0  0  0  0  0  0  0  0  0
    8.7760  -15.7722   23.6866 C   0  0  0  0  0  0  0  0  0  0  0  0
   10.0318  -15.6920   23.7235 O   0  0  0  0  0  0  0  0  0  0  0  0
    6.0171  -11.7373   26.0900 C   0  0  0  0  0  0  0  0  0  0  0  0
    7.0945  -12.6008   25.4532 C   0  0  0  0  0  0  0  0  0  0  0  0
    7.6389  -13.5642   26.4806 C   0  0  2  0  0  0  0  0  0  0  0  0
    8.2414  -12.8429   27.6473 C   0  0  0  0  0  0  0  0  0  0  0  0
    8.5786  -14.5932   25.9043 C   0  0  2  0  0  0  0  0  0  0  0  0
    8.0141  -15.2533   24.7232 N   0  0  0  0  0  0  0  0  0  0  0  0
    8.8775  -15.5808   26.9664 C   0  0  0  0  0  0  0  0  0  0  0  0
    8.3347  -16.7089   27.0048 O   0  0  0  0  0  0  0  0  0  0  0  0
    9.7897  -15.3015   27.9903 O   0  0  0  0  0  0  0  0  0  0  0  0
  2  1  1  0
  3  2  2  0
  4  2  1  0
  5  4  1  0
  5  6  1  6
  7  8  2  0
  7  5  1  0
 10 12  1  0
 10  9  1  0
 11 10  2  0
 13 12  1  0
 14 13  1  6
 14 15  1  0
 15  7  1  0
 16 14  1  0
 17 16  2  0
 18 19  1  0
 19 20  1  0
 20 21  1  1
 22 20  1  0
 22 23  1  6
 23 16  1  0
 24 22  1  0
 25 24  2  0
 26 24  1  0
M  END
$$$$
