NQI.pdb
     RDKit          3D

 26 25  0  0  1  0  0  0  0  0999 V2000
    8.8262  -13.3395   17.3914 N   0  0  0  0  0  0  0  0  0  0  0  0
    7.9122  -14.4076   17.2074 C   0  0  0  0  0  0  0  0  0  0  0  0
    7.7173  -14.8526   16.0609 O   0  0  0  0  0  0  0  0  0  0  0  0
    7.2204  -14.9616   18.3673 C   0  0  0  0  0  0  0  0  0  0  0  0
    8.0828  -15.6596   19.3621 C   0  0  2  0  0  0  0  0  0  0  0  0
    8.7771  -16.7687   18.7906 N   0  0  0  0  0  0  0  0  0  0  0  0
    7.3925  -15.9805   20.6337 C   0  0  0  0  0  0  0  0  0  0  0  0
    6.2321  -16.4417   20.6020 O   0  0  0  0  0  0  0  0  0  0  0  0
    7.6892  -20.1958   24.1102 N   0  0  0  0  0  0  0  0  0  0  0  0
    6.9921  -19.3706   25.0626 C   0  0  0  0  0  0  0  0  0  0  0  0
    6.7644  -19.8929   26.1656 O   0  0  0  0  0  0  0  0  0  0  0  0
    6.5902  -18.0092   24.7143 C   0  0  0  0  0  0  0  0  0  0  0  0
    6.9966  -17.6055   23.3307 C   0  0  0  0  0  0  0  0  0  0  0  0
    7.5269  -16.2388   23.1680 C   0  0  2  0  0  0  0  0  0  0  0  0
    7.9952  -15.7865   21.9281 N   0  0  0  0  0  0  0  0  0  0  0  0
    8.2909  -15.7938   24.3818 C   0  0  0  0  0  0  0  0  0  0  0  0
    9.5059  -16.1236   24.3933 O   0  0  0  0  0  0  0  0  0  0  0  0
    5.8424  -11.6625   26.9767 C   0  0  0  0  0  0  0  0  0  0  0  0
    6.9630  -12.3383   26.2024 C   0  0  0  0  0  0  0  0  0  0  0  0
    7.7159  -13.2717   27.1199 C   0  0  2  0  0  0  0  0  0  0  0  0
    8.5147  -12.5174   28.1383 C   0  0  0  0  0  0  0  0  0  0  0  0
    8.5504  -14.2929   26.3887 C   0  0  2  0  0  0  0  0  0  0  0  0
    7.7532  -15.0788   25.4421 N   0  0  0  0  0  0  0  0  0  0  0  0
    9.1828  -15.1708   27.3997 C   0  0  0  0  0  0  0  0  0  0  0  0
    8.7842  -16.3381   27.6173 O   0  0  0  0  0  0  0  0  0  0  0  0
   10.2676  -14.7372   28.1701 O   0  0  0  0  0  0  0  0  0  0  0  0
  2  1  1  0
  3  2  2  0
  4  2  1  0
  5  4  1  0
  5  6  1  6
  7  8  2  0
  7  5  1  0
 10 12  1  0
 10  9  1  0
 11 10  2  0
 13 12  1  0
 14 13  1  6
 14 15  1  0
 15  7  1  0
 16 14  1  0
 17 16  2  0
 18 19  1  0
 19 20  1  0
 20 21  1  1
 22 20  1  0
 22 23  1  6
 23 16  1  0
 24 22  1  0
 25 24  2  0
 26 24  1  0
M  END
$$$$
