NQI.pdb
     RDKit          3D

 26 25  0  0  1  0  0  0  0  0999 V2000
    8.3696  -15.2762   17.3797 N   0  0  0  0  0  0  0  0  0  0  0  0
    8.0345  -14.1245   18.1357 C   0  0  0  0  0  0  0  0  0  0  0  0
    8.1896  -12.9971   17.6304 O   0  0  0  0  0  0  0  0  0  0  0  0
    7.5151  -14.2873   19.4901 C   0  0  0  0  0  0  0  0  0  0  0  0
    7.3577  -15.6935   19.9577 C   0  0  2  0  0  0  0  0  0  0  0  0
    6.4445  -16.4331   19.1467 N   0  0  0  0  0  0  0  0  0  0  0  0
    7.0972  -15.8165   21.4115 C   0  0  0  0  0  0  0  0  0  0  0  0
    6.2501  -15.0715   21.9478 O   0  0  0  0  0  0  0  0  0  0  0  0
    7.2487  -21.0019   25.1043 N   0  0  0  0  0  0  0  0  0  0  0  0
    7.0852  -19.9205   26.0412 C   0  0  0  0  0  0  0  0  0  0  0  0
    6.7908  -20.2504   27.2013 O   0  0  0  0  0  0  0  0  0  0  0  0
    7.2593  -18.5334   25.6146 C   0  0  0  0  0  0  0  0  0  0  0  0
    7.4111  -18.3824   24.1325 C   0  0  0  0  0  0  0  0  0  0  0  0
    7.5623  -17.0081   23.6186 C   0  0  2  0  0  0  0  0  0  0  0  0
    7.7787  -16.7640   22.2565 N   0  0  0  0  0  0  0  0  0  0  0  0
    8.3046  -16.1336   24.5877 C   0  0  0  0  0  0  0  0  0  0  0  0
    9.5574  -16.1504   24.4641 O   0  0  0  0  0  0  0  0  0  0  0  0
    5.9226  -11.6079   26.6443 C   0  0  0  0  0  0  0  0  0  0  0  0
    6.9355  -12.5348   25.9909 C   0  0  0  0  0  0  0  0  0  0  0  0
    7.5965  -13.3836   27.0503 C   0  0  2  0  0  0  0  0  0  0  0  0
    8.3371  -12.5441   28.0459 C   0  0  0  0  0  0  0  0  0  0  0  0
    8.4570  -14.4873   26.4888 C   0  0  2  0  0  0  0  0  0  0  0  0
    7.7120  -15.3513   25.5681 N   0  0  0  0  0  0  0  0  0  0  0  0
    8.9928  -15.2691   27.6265 C   0  0  0  0  0  0  0  0  0  0  0  0
    8.5366  -16.3920   27.9422 O   0  0  0  0  0  0  0  0  0  0  0  0
   10.0455  -14.7890   28.4137 O   0  0  0  0  0  0  0  0  0  0  0  0
  2  1  1  0
  3  2  2  0
  4  2  1  0
  5  4  1  0
  5  6  1  6
  7  8  2  0
  7  5  1  0
 10 12  1  0
 10  9  1  0
 11 10  2  0
 13 12  1  0
 14 13  1  1
 14 15  1  0
 15  7  1  0
 16 14  1  0
 17 16  2  0
 18 19  1  0
 19 20  1  0
 20 21  1  1
 22 20  1  0
 22 23  1  6
 23 16  1  0
 24 22  1  0
 25 24  2  0
 26 24  1  0
M  END
$$$$
