NQI.pdb
     RDKit          3D

 26 25  0  0  1  0  0  0  0  0999 V2000
    8.9956  -13.3433   16.3482 N   0  0  0  0  0  0  0  0  0  0  0  0
    7.6513  -13.4988   16.7712 C   0  0  0  0  0  0  0  0  0  0  0  0
    6.7303  -13.3279   15.9508 O   0  0  0  0  0  0  0  0  0  0  0  0
    7.3779  -13.8561   18.1599 C   0  0  0  0  0  0  0  0  0  0  0  0
    8.5753  -14.0509   19.0253 C   0  0  2  0  0  0  0  0  0  0  0  0
    9.6441  -14.6949   18.3311 N   0  0  0  0  0  0  0  0  0  0  0  0
    8.2707  -14.6567   20.3431 C   0  0  0  0  0  0  0  0  0  0  0  0
    7.4623  -14.0884   21.1070 O   0  0  0  0  0  0  0  0  0  0  0  0
    9.3229  -20.5923   22.6743 N   0  0  0  0  0  0  0  0  0  0  0  0
    9.1673  -19.7768   23.8511 C   0  0  0  0  0  0  0  0  0  0  0  0
    9.0536  -20.3917   24.9235 O   0  0  0  0  0  0  0  0  0  0  0  0
    9.1452  -18.3189   23.7487 C   0  0  0  0  0  0  0  0  0  0  0  0
    9.2661  -17.8203   22.3419 C   0  0  0  0  0  0  0  0  0  0  0  0
    8.7981  -16.4456   22.0835 C   0  0  2  0  0  0  0  0  0  0  0  0
    8.8657  -15.8865   20.8012 N   0  0  0  0  0  0  0  0  0  0  0  0
    9.1025  -15.5319   23.2357 C   0  0  0  0  0  0  0  0  0  0  0  0
   10.2699  -15.0607   23.2439 O   0  0  0  0  0  0  0  0  0  0  0  0
    6.4973  -11.3037   26.7210 C   0  0  0  0  0  0  0  0  0  0  0  0
    7.6040  -12.3463   26.7134 C   0  0  0  0  0  0  0  0  0  0  0  0
    7.3245  -13.3680   25.6373 C   0  0  2  0  0  0  0  0  0  0  0  0
    6.0935  -14.1658   25.9416 C   0  0  0  0  0  0  0  0  0  0  0  0
    8.5065  -14.2493   25.3207 C   0  0  2  0  0  0  0  0  0  0  0  0
    8.2107  -15.2009   24.2454 N   0  0  0  0  0  0  0  0  0  0  0  0
    8.8884  -14.9604   26.5621 C   0  0  0  0  0  0  0  0  0  0  0  0
    9.3136  -14.3591   27.5753 O   0  0  0  0  0  0  0  0  0  0  0  0
    8.7929  -16.3525   26.6676 O   0  0  0  0  0  0  0  0  0  0  0  0
  2  1  1  0
  3  2  2  0
  4  2  1  0
  5  4  1  0
  5  6  1  6
  7  8  2  0
  7  5  1  0
 10 12  1  0
 10  9  1  0
 11 10  2  0
 13 12  1  0
 14 13  1  6
 14 15  1  0
 15  7  1  0
 16 14  1  0
 17 16  2  0
 18 19  1  0
 19 20  1  0
 20 21  1  1
 22 20  1  0
 22 23  1  6
 23 16  1  0
 24 22  1  0
 25 24  2  0
 26 24  1  0
M  END
$$$$
