NQI.pdb
     RDKit          3D

 26 25  0  0  1  0  0  0  0  0999 V2000
    7.6986  -18.5390   17.8077 N   0  0  0  0  0  0  0  0  0  0  0  0
    6.4805  -17.8472   18.0264 C   0  0  0  0  0  0  0  0  0  0  0  0
    5.5681  -17.9377   17.1839 O   0  0  0  0  0  0  0  0  0  0  0  0
    6.3240  -17.0442   19.2354 C   0  0  0  0  0  0  0  0  0  0  0  0
    7.5453  -16.8973   20.0766 C   0  0  2  0  0  0  0  0  0  0  0  0
    8.5136  -17.9106   19.8041 N   0  0  0  0  0  0  0  0  0  0  0  0
    7.2612  -16.7181   21.5201 C   0  0  0  0  0  0  0  0  0  0  0  0
    6.5050  -15.7937   21.8860 O   0  0  0  0  0  0  0  0  0  0  0  0
    7.3415  -21.0489   26.2781 N   0  0  0  0  0  0  0  0  0  0  0  0
    7.1461  -19.7878   26.9455 C   0  0  0  0  0  0  0  0  0  0  0  0
    6.8712  -19.8530   28.1544 O   0  0  0  0  0  0  0  0  0  0  0  0
    7.2682  -18.5301   26.2108 C   0  0  0  0  0  0  0  0  0  0  0  0
    7.4499  -18.7187   24.7364 C   0  0  0  0  0  0  0  0  0  0  0  0
    7.6014  -17.4959   23.9257 C   0  0  2  0  0  0  0  0  0  0  0  0
    7.8184  -17.5653   22.5438 N   0  0  0  0  0  0  0  0  0  0  0  0
    8.3432  -16.4251   24.6729 C   0  0  0  0  0  0  0  0  0  0  0  0
    9.5845  -16.3968   24.4644 O   0  0  0  0  0  0  0  0  0  0  0  0
    5.7421  -11.8533   26.5640 C   0  0  0  0  0  0  0  0  0  0  0  0
    6.7886  -12.6999   25.8568 C   0  0  0  0  0  0  0  0  0  0  0  0
    7.6054  -13.4492   26.8821 C   0  0  2  0  0  0  0  0  0  0  0  0
    8.3469  -12.5132   27.7867 C   0  0  0  0  0  0  0  0  0  0  0  0
    8.5119  -14.4953   26.2836 C   0  0  2  0  0  0  0  0  0  0  0  0
    7.7621  -15.5142   25.5429 N   0  0  0  0  0  0  0  0  0  0  0  0
    9.2863  -15.1097   27.3861 C   0  0  0  0  0  0  0  0  0  0  0  0
    8.8973  -16.1376   27.9869 O   0  0  0  0  0  0  0  0  0  0  0  0
   10.5030  -14.5686   27.8166 O   0  0  0  0  0  0  0  0  0  0  0  0
  2  1  1  0
  3  2  2  0
  4  2  1  0
  5  4  1  0
  5  6  1  1
  7  8  2  0
  7  5  1  0
 10 12  1  0
 10  9  1  0
 11 10  2  0
 13 12  1  0
 14 13  1  1
 14 15  1  0
 15  7  1  0
 16 14  1  0
 17 16  2  0
 18 19  1  0
 19 20  1  0
 20 21  1  6
 22 20  1  0
 22 23  1  1
 23 16  1  0
 24 22  1  0
 25 24  2  0
 26 24  1  0
M  END
$$$$
