NQI.pdb
     RDKit          3D

 26 25  0  0  1  0  0  0  0  0999 V2000
    7.3322  -15.9135   15.7585 N   0  0  0  0  0  0  0  0  0  0  0  0
    7.6290  -14.9030   16.7077 C   0  0  0  0  0  0  0  0  0  0  0  0
    8.0950  -13.8168   16.3164 O   0  0  0  0  0  0  0  0  0  0  0  0
    7.3810  -15.1598   18.1231 C   0  0  0  0  0  0  0  0  0  0  0  0
    8.5454  -14.9571   19.0308 C   0  0  2  0  0  0  0  0  0  0  0  0
    9.7465  -15.5196   18.5019 N   0  0  0  0  0  0  0  0  0  0  0  0
    8.2808  -15.3350   20.4392 C   0  0  0  0  0  0  0  0  0  0  0  0
    7.2498  -14.9129   21.0040 O   0  0  0  0  0  0  0  0  0  0  0  0
   10.2720  -20.8823   23.2777 N   0  0  0  0  0  0  0  0  0  0  0  0
   10.0562  -20.1997   22.0282 C   0  0  0  0  0  0  0  0  0  0  0  0
   10.7199  -20.6142   21.0644 O   0  0  0  0  0  0  0  0  0  0  0  0
    9.1095  -19.0895   21.9403 C   0  0  0  0  0  0  0  0  0  0  0  0
    9.3891  -17.9915   22.9194 C   0  0  0  0  0  0  0  0  0  0  0  0
    8.9850  -16.6300   22.5212 C   0  0  2  0  0  0  0  0  0  0  0  0
    9.1621  -16.1769   21.2079 N   0  0  0  0  0  0  0  0  0  0  0  0
    9.2353  -15.6356   23.6182 C   0  0  0  0  0  0  0  0  0  0  0  0
   10.3034  -14.9788   23.5043 O   0  0  0  0  0  0  0  0  0  0  0  0
    5.7197  -12.0920   25.2872 C   0  0  0  0  0  0  0  0  0  0  0  0
    6.9636  -12.8715   24.8910 C   0  0  0  0  0  0  0  0  0  0  0  0
    7.5139  -13.5886   26.1005 C   0  0  2  0  0  0  0  0  0  0  0  0
    7.8107  -12.6359   27.2179 C   0  0  0  0  0  0  0  0  0  0  0  0
    8.6891  -14.4809   25.7899 C   0  0  2  0  0  0  0  0  0  0  0  0
    8.3958  -15.4176   24.7009 N   0  0  0  0  0  0  0  0  0  0  0  0
    9.0463  -15.2094   27.0285 C   0  0  0  0  0  0  0  0  0  0  0  0
    8.7626  -16.4171   27.2014 O   0  0  0  0  0  0  0  0  0  0  0  0
    9.7249  -14.5803   28.0783 O   0  0  0  0  0  0  0  0  0  0  0  0
  2  1  1  0
  3  2  2  0
  4  2  1  0
  5  4  1  0
  5  6  1  6
  7  8  2  0
  7  5  1  0
 10 12  1  0
 10  9  1  0
 11 10  2  0
 13 12  1  0
 14 13  1  1
 14 15  1  0
 15  7  1  0
 16 14  1  0
 17 16  2  0
 18 19  1  0
 19 20  1  0
 20 21  1  1
 22 20  1  0
 22 23  1  6
 23 16  1  0
 24 22  1  0
 25 24  2  0
 26 24  1  0
M  END
$$$$
