NQI.pdb
     RDKit          3D

 26 25  0  0  1  0  0  0  0  0999 V2000
    7.6759  -12.6426   16.6556 N   0  0  0  0  0  0  0  0  0  0  0  0
    8.2496  -13.7482   17.3328 C   0  0  0  0  0  0  0  0  0  0  0  0
    9.1228  -14.4272   16.7610 O   0  0  0  0  0  0  0  0  0  0  0  0
    7.8030  -14.0651   18.6859 C   0  0  0  0  0  0  0  0  0  0  0  0
    8.5268  -15.1788   19.3616 C   0  0  2  0  0  0  0  0  0  0  0  0
    8.5508  -16.3664   18.5692 N   0  0  0  0  0  0  0  0  0  0  0  0
    8.1025  -15.4067   20.7632 C   0  0  0  0  0  0  0  0  0  0  0  0
    7.5763  -14.4726   21.4041 O   0  0  0  0  0  0  0  0  0  0  0  0
    6.9636  -20.2069   25.1413 N   0  0  0  0  0  0  0  0  0  0  0  0
    6.1580  -20.0325   23.9603 C   0  0  0  0  0  0  0  0  0  0  0  0
    5.1027  -20.6855   23.9248 O   0  0  0  0  0  0  0  0  0  0  0  0
    6.5910  -19.1369   22.8895 C   0  0  0  0  0  0  0  0  0  0  0  0
    7.8451  -18.3857   23.2142 C   0  0  0  0  0  0  0  0  0  0  0  0
    7.9148  -16.9844   22.7589 C   0  0  2  0  0  0  0  0  0  0  0  0
    8.2659  -16.6679   21.4406 N   0  0  0  0  0  0  0  0  0  0  0  0
    8.4424  -16.0789   23.8344 C   0  0  0  0  0  0  0  0  0  0  0  0
    9.6949  -16.0825   23.9625 O   0  0  0  0  0  0  0  0  0  0  0  0
    6.9921  -10.9591   26.9409 C   0  0  0  0  0  0  0  0  0  0  0  0
    7.9754  -12.1043   26.7576 C   0  0  0  0  0  0  0  0  0  0  0  0
    7.4253  -13.0823   25.7473 C   0  0  2  0  0  0  0  0  0  0  0  0
    5.9598  -13.3179   25.9501 C   0  0  0  0  0  0  0  0  0  0  0  0
    8.2013  -14.3731   25.6728 C   0  0  2  0  0  0  0  0  0  0  0  0
    7.6603  -15.2823   24.6579 N   0  0  0  0  0  0  0  0  0  0  0  0
    8.1679  -15.0012   27.0133 C   0  0  0  0  0  0  0  0  0  0  0  0
    7.4312  -15.9791   27.2772 O   0  0  0  0  0  0  0  0  0  0  0  0
    8.9650  -14.5302   28.0627 O   0  0  0  0  0  0  0  0  0  0  0  0
  2  1  1  0
  3  2  2  0
  4  2  1  0
  5  4  1  0
  5  6  1  6
  7  8  2  0
  7  5  1  0
 10 12  1  0
 10  9  1  0
 11 10  2  0
 13 12  1  0
 14 13  1  1
 14 15  1  0
 15  7  1  0
 16 14  1  0
 17 16  2  0
 18 19  1  0
 19 20  1  0
 20 21  1  1
 22 20  1  0
 22 23  1  6
 23 16  1  0
 24 22  1  0
 25 24  2  0
 26 24  1  0
M  END
$$$$
