KYH.pdb
     RDKit          3D

 32 33  0  0  1  0  0  0  0  0999 V2000
   12.2964  -18.3812   19.9189 N   0  0  0  0  0  0  0  0  0  0  0  0
   11.6450  -17.1626   20.2808 C   0  0  1  0  0  0  0  0  0  0  0  0
   10.3911  -16.8779   19.4840 C   0  0  0  0  0  0  0  0  0  0  0  0
   10.7756  -16.3215   18.1403 C   0  0  0  0  0  0  0  0  0  0  0  0
    9.7654  -15.3186   17.6711 C   0  0  0  0  0  0  0  0  0  0  0  0
   10.1187  -14.7042   16.3231 C   0  0  0  0  0  0  0  0  0  0  0  0
    9.2297  -13.5966   16.0165 N   0  0  0  0  0  0  0  0  0  0  0  0
   11.2742  -17.1757   21.7260 C   0  0  0  0  0  0  0  0  0  0  0  0
   10.7935  -18.2204   22.2566 O   0  0  0  0  0  0  0  0  0  0  0  0
    9.7796  -14.6931   30.0256 O   0  0  0  0  0  0  0  0  0  0  0  0
   10.1365  -14.6995   28.6786 C   0  0  0  0  0  0  0  0  0  0  0  0
   11.1743  -15.5146   28.2639 C   0  0  0  0  0  0  0  0  0  0  0  0
   11.5531  -15.5440   26.9342 C   0  0  0  0  0  0  0  0  0  0  0  0
   10.9024  -14.7625   26.0063 C   0  0  0  0  0  0  0  0  0  0  0  0
   11.2875  -14.7700   24.5926 C   0  0  0  0  0  0  0  0  0  0  0  0
   10.8211  -16.0017   23.8543 C   0  0  2  0  0  0  0  0  0  0  0  0
   11.4540  -16.0238   22.5218 N   0  0  0  0  0  0  0  0  0  0  0  0
    9.3492  -15.9501   23.7137 C   0  0  0  0  0  0  0  0  0  0  0  0
    8.8240  -14.9866   23.1354 O   0  0  0  0  0  0  0  0  0  0  0  0
    9.8688  -13.9497   26.4143 C   0  0  0  0  0  0  0  0  0  0  0  0
    9.4873  -13.9170   27.7397 C   0  0  0  0  0  0  0  0  0  0  0  0
    8.5215  -16.9862   24.2298 N   0  0  0  0  0  0  0  0  0  0  0  0
    7.1070  -17.1198   23.8842 C   0  0  1  0  0  0  0  0  0  0  0  0
    6.8936  -17.1255   22.4145 C   0  0  0  0  0  0  0  0  0  0  0  0
    6.9377  -15.7507   21.8779 C   0  0  0  0  0  0  0  0  0  0  0  0
    7.0345  -14.5564   22.5973 C   0  0  0  0  0  0  0  0  0  0  0  0
    7.0214  -13.5535   21.7270 N   0  0  0  0  0  0  0  0  0  0  0  0
    6.9203  -14.0846   20.5013 C   0  0  0  0  0  0  0  0  0  0  0  0
    6.8671  -15.4187   20.5560 N   0  0  0  0  0  0  0  0  0  0  0  0
    6.4803  -18.2406   24.5878 C   0  0  0  0  0  0  0  0  0  0  0  0
    5.2382  -18.4434   24.3530 O   0  0  0  0  0  0  0  0  0  0  0  0
    7.0898  -19.0979   25.4729 O   0  0  0  0  0  0  0  0  0  0  0  0
  2  1  1  6
  2  3  1  0
  3  4  1  0
  4  5  1  0
  6  5  1  0
  7  6  1  0
  8  2  1  0
  9  8  2  0
 10 11  1  0
 11 21  2  0
 11 12  1  0
 12 13  2  0
 13 14  1  0
 14 15  1  0
 16 15  1  1
 16 17  1  0
 17  8  1  0
 18 16  1  0
 18 22  1  0
 19 18  2  0
 20 14  2  0
 21 20  1  0
 23 22  1  0
 23 30  1  0
 23 24  1  6
 24 25  1  0
 25 29  1  0
 25 26  2  0
 26 27  1  0
 28 27  1  0
 29 28  2  0
 30 32  1  0
 31 30  2  0
M  END
$$$$
