KYH.pdb
     RDKit          3D

 32 33  0  0  1  0  0  0  0  0999 V2000
   10.2399  -16.4629   18.8133 N   0  0  0  0  0  0  0  0  0  0  0  0
    9.2684  -16.8840   19.7719 C   0  0  1  0  0  0  0  0  0  0  0  0
    9.4219  -18.3244   20.2079 C   0  0  0  0  0  0  0  0  0  0  0  0
    9.1890  -19.2255   19.0261 C   0  0  0  0  0  0  0  0  0  0  0  0
    9.3607  -20.6636   19.4119 C   0  0  0  0  0  0  0  0  0  0  0  0
    9.1325  -21.6225   18.2508 C   0  0  0  0  0  0  0  0  0  0  0  0
    9.4106  -22.9903   18.6542 N   0  0  0  0  0  0  0  0  0  0  0  0
    9.3315  -16.0285   20.9926 C   0  0  0  0  0  0  0  0  0  0  0  0
   10.4454  -15.6132   21.4293 O   0  0  0  0  0  0  0  0  0  0  0  0
    6.8586  -11.8118   28.3404 O   0  0  0  0  0  0  0  0  0  0  0  0
    6.8798  -12.4333   27.0935 C   0  0  0  0  0  0  0  0  0  0  0  0
    7.3984  -11.7464   26.0106 C   0  0  0  0  0  0  0  0  0  0  0  0
    7.4339  -12.3350   24.7598 C   0  0  0  0  0  0  0  0  0  0  0  0
    6.9535  -13.6120   24.5760 C   0  0  0  0  0  0  0  0  0  0  0  0
    6.9735  -14.2568   23.2605 C   0  0  0  0  0  0  0  0  0  0  0  0
    8.2881  -14.9299   22.9465 C   0  0  2  0  0  0  0  0  0  0  0  0
    8.1505  -15.6701   21.6778 N   0  0  0  0  0  0  0  0  0  0  0  0
    8.6242  -15.8646   24.0430 C   0  0  0  0  0  0  0  0  0  0  0  0
    7.8894  -16.8397   24.2614 O   0  0  0  0  0  0  0  0  0  0  0  0
    6.4365  -14.2998   25.6509 C   0  0  0  0  0  0  0  0  0  0  0  0
    6.3990  -13.7167   26.9007 C   0  0  0  0  0  0  0  0  0  0  0  0
    9.7765  -15.6671   24.8542 N   0  0  0  0  0  0  0  0  0  0  0  0
   10.1959  -16.6171   25.8837 C   0  0  1  0  0  0  0  0  0  0  0  0
   11.6526  -16.8989   25.8175 C   0  0  0  0  0  0  0  0  0  0  0  0
   11.9746  -17.6886   24.6123 C   0  0  0  0  0  0  0  0  0  0  0  0
   11.0818  -18.2339   23.6855 C   0  0  0  0  0  0  0  0  0  0  0  0
   11.7906  -18.8845   22.7701 N   0  0  0  0  0  0  0  0  0  0  0  0
   13.0835  -18.7604   23.0980 C   0  0  0  0  0  0  0  0  0  0  0  0
   13.2318  -18.0390   24.2131 N   0  0  0  0  0  0  0  0  0  0  0  0
    9.7185  -16.2243   27.2110 C   0  0  0  0  0  0  0  0  0  0  0  0
    9.4841  -14.9786   27.3913 O   0  0  0  0  0  0  0  0  0  0  0  0
    9.4949  -17.0565   28.2821 O   0  0  0  0  0  0  0  0  0  0  0  0
  2  1  1  6
  2  3  1  0
  3  4  1  0
  4  5  1  0
  6  5  1  0
  7  6  1  0
  8  2  1  0
  9  8  2  0
 10 11  1  0
 11 21  2  0
 11 12  1  0
 12 13  2  0
 13 14  1  0
 14 15  1  0
 16 15  1  1
 16 17  1  0
 17  8  1  0
 18 16  1  0
 18 22  1  0
 19 18  2  0
 20 14  2  0
 21 20  1  0
 23 22  1  0
 23 30  1  0
 23 24  1  1
 24 25  1  0
 25 29  1  0
 25 26  2  0
 26 27  1  0
 28 27  1  0
 29 28  2  0
 30 32  1  0
 31 30  2  0
M  END
$$$$
