KYH.pdb
     RDKit          3D

 32 33  0  0  1  0  0  0  0  0999 V2000
    8.1463  -16.5559   19.1176 N   0  0  0  0  0  0  0  0  0  0  0  0
    8.8889  -15.3381   19.1932 C   0  0  1  0  0  0  0  0  0  0  0  0
    8.3543  -14.2380   18.3030 C   0  0  0  0  0  0  0  0  0  0  0  0
    9.0841  -14.2684   16.9880 C   0  0  0  0  0  0  0  0  0  0  0  0
    8.1409  -14.0179   15.8504 C   0  0  0  0  0  0  0  0  0  0  0  0
    8.8246  -14.0614   14.4901 C   0  0  0  0  0  0  0  0  0  0  0  0
    7.8861  -13.7212   13.4344 N   0  0  0  0  0  0  0  0  0  0  0  0
    8.9094  -14.8228   20.5933 C   0  0  0  0  0  0  0  0  0  0  0  0
    9.7208  -13.9106   20.9303 O   0  0  0  0  0  0  0  0  0  0  0  0
    6.8262  -12.5520   28.7518 O   0  0  0  0  0  0  0  0  0  0  0  0
    6.8192  -12.9969   27.4313 C   0  0  0  0  0  0  0  0  0  0  0  0
    6.5194  -14.3222   27.1719 C   0  0  0  0  0  0  0  0  0  0  0  0
    6.5040  -14.7952   25.8725 C   0  0  0  0  0  0  0  0  0  0  0  0
    6.7869  -13.9535   24.8205 C   0  0  0  0  0  0  0  0  0  0  0  0
    6.7836  -14.4301   23.4350 C   0  0  0  0  0  0  0  0  0  0  0  0
    8.1490  -14.8497   22.9457 C   0  0  2  0  0  0  0  0  0  0  0  0
    8.0250  -15.3449   21.5616 N   0  0  0  0  0  0  0  0  0  0  0  0
    8.6652  -15.9240   23.8223 C   0  0  0  0  0  0  0  0  0  0  0  0
    8.0460  -16.9955   23.9051 O   0  0  0  0  0  0  0  0  0  0  0  0
    7.0858  -12.6336   25.0737 C   0  0  0  0  0  0  0  0  0  0  0  0
    7.1023  -12.1571   26.3684 C   0  0  0  0  0  0  0  0  0  0  0  0
    9.8609  -15.7523   24.5745 N   0  0  0  0  0  0  0  0  0  0  0  0
   10.4310  -16.8065   25.4123 C   0  0  1  0  0  0  0  0  0  0  0  0
   11.8483  -17.0841   25.0660 C   0  0  0  0  0  0  0  0  0  0  0  0
   11.9398  -17.7659   23.7596 C   0  0  0  0  0  0  0  0  0  0  0  0
   10.8893  -18.1481   22.9209 C   0  0  0  0  0  0  0  0  0  0  0  0
   11.4130  -18.7492   21.8588 N   0  0  0  0  0  0  0  0  0  0  0  0
   12.7438  -18.7514   22.0121 C   0  0  0  0  0  0  0  0  0  0  0  0
   13.0990  -18.1613   23.1573 N   0  0  0  0  0  0  0  0  0  0  0  0
   10.1974  -16.5541   26.8355 C   0  0  0  0  0  0  0  0  0  0  0  0
   10.0572  -15.3308   27.1861 O   0  0  0  0  0  0  0  0  0  0  0  0
   10.1116  -17.4964   27.8328 O   0  0  0  0  0  0  0  0  0  0  0  0
  2  1  1  1
  2  3  1  0
  3  4  1  0
  4  5  1  0
  6  5  1  0
  7  6  1  0
  8  2  1  0
  9  8  2  0
 10 11  1  0
 11 21  2  0
 11 12  1  0
 12 13  2  0
 13 14  1  0
 14 15  1  0
 16 15  1  1
 16 17  1  0
 17  8  1  0
 18 16  1  0
 18 22  1  0
 19 18  2  0
 20 14  2  0
 21 20  1  0
 23 22  1  0
 23 30  1  0
 23 24  1  1
 24 25  1  0
 25 29  1  0
 25 26  2  0
 26 27  1  0
 28 27  1  0
 29 28  2  0
 30 32  1  0
 31 30  2  0
M  END
$$$$
