KYH.pdb
     RDKit          3D

 32 33  0  0  1  0  0  0  0  0999 V2000
   10.1819  -17.3556   18.4869 N   0  0  0  0  0  0  0  0  0  0  0  0
    9.3867  -17.7436   19.6082 C   0  0  1  0  0  0  0  0  0  0  0  0
    9.7906  -19.0681   20.2170 C   0  0  0  0  0  0  0  0  0  0  0  0
    9.3692  -20.1827   19.2988 C   0  0  0  0  0  0  0  0  0  0  0  0
    9.0763  -21.4302   20.0761 C   0  0  0  0  0  0  0  0  0  0  0  0
    8.5856  -22.5756   19.2003 C   0  0  0  0  0  0  0  0  0  0  0  0
    8.2728  -23.7410   20.0095 N   0  0  0  0  0  0  0  0  0  0  0  0
    9.4533  -16.7089   20.6811 C   0  0  0  0  0  0  0  0  0  0  0  0
   10.5526  -16.1479   20.9654 O   0  0  0  0  0  0  0  0  0  0  0  0
    7.1722  -11.9555   27.7401 O   0  0  0  0  0  0  0  0  0  0  0  0
    7.1622  -12.6651   26.5409 C   0  0  0  0  0  0  0  0  0  0  0  0
    6.5170  -13.8877   26.4906 C   0  0  0  0  0  0  0  0  0  0  0  0
    6.4889  -14.6167   25.3159 C   0  0  0  0  0  0  0  0  0  0  0  0
    7.1026  -14.1353   24.1814 C   0  0  0  0  0  0  0  0  0  0  0  0
    7.0930  -14.8900   22.9256 C   0  0  0  0  0  0  0  0  0  0  0  0
    8.4500  -15.4325   22.5459 C   0  0  2  0  0  0  0  0  0  0  0  0
    8.2920  -16.3409   21.3942 N   0  0  0  0  0  0  0  0  0  0  0  0
    9.0129  -16.1706   23.6980 C   0  0  0  0  0  0  0  0  0  0  0  0
    8.5147  -17.2568   24.0303 O   0  0  0  0  0  0  0  0  0  0  0  0
    7.7458  -12.9188   24.2265 C   0  0  0  0  0  0  0  0  0  0  0  0
    7.7765  -12.1879   25.3962 C   0  0  0  0  0  0  0  0  0  0  0  0
   10.1172  -15.6581   24.4348 N   0  0  0  0  0  0  0  0  0  0  0  0
   10.6793  -16.3386   25.6006 C   0  0  1  0  0  0  0  0  0  0  0  0
    9.6538  -16.5858   26.6460 C   0  0  0  0  0  0  0  0  0  0  0  0
    9.5572  -15.4319   27.5620 C   0  0  0  0  0  0  0  0  0  0  0  0
   10.0555  -14.1412   27.3644 C   0  0  0  0  0  0  0  0  0  0  0  0
    9.7678  -13.4229   28.4437 N   0  0  0  0  0  0  0  0  0  0  0  0
    9.1125  -14.2215   29.2965 C   0  0  0  0  0  0  0  0  0  0  0  0
    8.9669  -15.4505   28.7924 N   0  0  0  0  0  0  0  0  0  0  0  0
   11.4471  -17.5252   25.2181 C   0  0  0  0  0  0  0  0  0  0  0  0
   12.0245  -18.1650   26.1647 O   0  0  0  0  0  0  0  0  0  0  0  0
   11.6096  -18.0228   23.9469 O   0  0  0  0  0  0  0  0  0  0  0  0
  2  1  1  6
  2  3  1  0
  3  4  1  0
  4  5  1  0
  6  5  1  0
  7  6  1  0
  8  2  1  0
  9  8  2  0
 10 11  1  0
 11 21  2  0
 11 12  1  0
 12 13  2  0
 13 14  1  0
 14 15  1  0
 16 15  1  1
 16 17  1  0
 17  8  1  0
 18 16  1  0
 18 22  1  0
 19 18  2  0
 20 14  2  0
 21 20  1  0
 23 22  1  0
 23 30  1  0
 23 24  1  1
 24 25  1  0
 25 29  1  0
 25 26  2  0
 26 27  1  0
 28 27  1  0
 29 28  2  0
 30 32  1  0
 31 30  2  0
M  END
$$$$
