PIG.pdb
     RDKit          3D

 20 20  0  0  1  0  0  0  0  0999 V2000
   21.5529  -19.8573  -15.3919 N   0  0  0  0  0  0  0  0  0  0  0  0
   20.2899  -20.3949  -15.7916 C   0  0  0  0  0  0  0  0  0  0  0  0
   20.0809  -19.9239  -17.2159 C   0  0  0  0  0  0  0  0  0  0  0  0
   20.7009  -18.5416  -17.1668 C   0  0  0  0  0  0  0  0  0  0  0  0
   21.9306  -18.8220  -16.2928 C   0  0  1  0  0  0  0  0  0  0  0  0
   22.2859  -17.5507  -15.6456 C   0  0  0  0  0  0  0  0  0  0  0  0
   21.8640  -17.3119  -14.4795 O   0  0  0  0  0  0  0  0  0  0  0  0
   27.0043  -16.3557  -15.4921 C   0  0  0  0  0  0  0  0  0  0  0  0
   25.5790  -16.1749  -14.9942 C   0  0  0  0  0  0  0  0  0  0  0  0
   24.8456  -15.1307  -15.7625 C   0  0  2  0  0  0  0  0  0  0  0  0
   25.2709  -13.7252  -15.3643 C   0  0  0  0  0  0  0  0  0  0  0  0
   23.3575  -15.2752  -15.7922 C   0  0  2  0  0  0  0  0  0  0  0  0
   23.0827  -16.6236  -16.3231 N   0  0  0  0  0  0  0  0  0  0  0  0
   22.6401  -14.2659  -16.5698 C   0  0  0  0  0  0  0  0  0  0  0  0
   22.8999  -14.0769  -17.7736 O   0  0  0  0  0  0  0  0  0  0  0  0
   21.6308  -13.4816  -15.9596 N   0  0  0  0  0  0  0  0  0  0  0  0
   20.8539  -12.4948  -16.6520 C   0  0  0  0  0  0  0  0  0  0  0  0
   21.2661  -11.1220  -16.3593 C   0  0  0  0  0  0  0  0  0  0  0  0
   22.2507  -10.4945  -17.0995 O   0  0  0  0  0  0  0  0  0  0  0  0
   20.7258  -10.4898  -15.4229 O   0  0  0  0  0  0  0  0  0  0  0  0
  1  2  1  0
  3  2  1  0
  4  5  1  0
  4  3  1  0
  5  1  1  0
  5  6  1  1
  7  6  2  0
  9  8  1  0
  9 10  1  0
 10 12  1  0
 10 11  1  1
 12 13  1  6
 13  6  1  0
 14 15  2  0
 14 12  1  0
 16 14  1  0
 17 16  1  0
 18 17  1  0
 18 19  1  0
 20 18  2  0
M  END
$$$$
