PIG.pdb
     RDKit          3D

 20 20  0  0  1  0  0  0  0  0999 V2000
   30.6515  -20.8590  -10.2642 N   0  0  0  0  0  0  0  0  0  0  0  0
   32.0686  -20.6716  -10.2882 C   0  0  0  0  0  0  0  0  0  0  0  0
   32.6635  -22.0422  -10.0403 C   0  0  0  0  0  0  0  0  0  0  0  0
   31.6666  -22.6269   -9.0594 C   0  0  0  0  0  0  0  0  0  0  0  0
   30.3525  -22.1144   -9.6637 C   0  0  1  0  0  0  0  0  0  0  0  0
   29.3807  -22.0471   -8.5625 C   0  0  0  0  0  0  0  0  0  0  0  0
   29.0519  -23.1089   -7.9630 O   0  0  0  0  0  0  0  0  0  0  0  0
   30.0082  -18.7470   -4.6098 C   0  0  0  0  0  0  0  0  0  0  0  0
   29.5432  -19.9230   -5.4541 C   0  0  0  0  0  0  0  0  0  0  0  0
   28.3001  -19.6107   -6.2131 C   0  0  2  0  0  0  0  0  0  0  0  0
   27.1915  -19.0979   -5.3060 C   0  0  0  0  0  0  0  0  0  0  0  0
   27.8156  -20.6867   -7.1316 C   0  0  2  0  0  0  0  0  0  0  0  0
   28.8332  -20.8159   -8.1915 N   0  0  0  0  0  0  0  0  0  0  0  0
   26.4941  -20.4689   -7.7182 C   0  0  0  0  0  0  0  0  0  0  0  0
   25.4562  -20.6874   -7.0644 O   0  0  0  0  0  0  0  0  0  0  0  0
   26.3744  -20.0026   -9.0502 N   0  0  0  0  0  0  0  0  0  0  0  0
   25.1275  -19.6619   -9.6715 C   0  0  0  0  0  0  0  0  0  0  0  0
   24.6875  -20.6417  -10.6648 C   0  0  0  0  0  0  0  0  0  0  0  0
   23.5356  -20.4475  -11.4040 O   0  0  0  0  0  0  0  0  0  0  0  0
   25.3570  -21.6819  -10.8606 O   0  0  0  0  0  0  0  0  0  0  0  0
  1  2  1  0
  3  2  1  0
  4  5  1  0
  4  3  1  0
  5  1  1  0
  5  6  1  1
  7  6  2  0
  9  8  1  0
  9 10  1  0
 10 12  1  0
 10 11  1  1
 12 13  1  6
 13  6  1  0
 14 15  2  0
 14 12  1  0
 16 14  1  0
 17 16  1  0
 18 17  1  0
 18 19  1  0
 20 18  2  0
M  END
$$$$
