PIG.pdb
     RDKit          3D

 20 20  0  0  1  0  0  0  0  0999 V2000
   21.9349  -16.2778  -16.2757 N   0  0  0  0  0  0  0  0  0  0  0  0
   20.5638  -16.4827  -16.6250 C   0  0  0  0  0  0  0  0  0  0  0  0
   20.2985  -15.5522  -17.7903 C   0  0  0  0  0  0  0  0  0  0  0  0
   21.1523  -14.3565  -17.4174 C   0  0  0  0  0  0  0  0  0  0  0  0
   22.3953  -15.0669  -16.8654 C   0  0  1  0  0  0  0  0  0  0  0  0
   23.0304  -14.1335  -15.9237 C   0  0  0  0  0  0  0  0  0  0  0  0
   22.5980  -14.0610  -14.7394 O   0  0  0  0  0  0  0  0  0  0  0  0
   28.1099  -14.2616  -15.7693 C   0  0  0  0  0  0  0  0  0  0  0  0
   26.6916  -14.0027  -15.2863 C   0  0  0  0  0  0  0  0  0  0  0  0
   26.2381  -12.6182  -15.5966 C   0  0  2  0  0  0  0  0  0  0  0  0
   27.0616  -11.5702  -14.8627 C   0  0  0  0  0  0  0  0  0  0  0  0
   24.7699  -12.3718  -15.4563 C   0  0  2  0  0  0  0  0  0  0  0  0
   24.1006  -13.3396  -16.3456 N   0  0  0  0  0  0  0  0  0  0  0  0
   24.3259  -11.0117  -15.7577 C   0  0  0  0  0  0  0  0  0  0  0  0
   24.4480  -10.5340  -16.9019 O   0  0  0  0  0  0  0  0  0  0  0  0
   23.7456  -10.2109  -14.7438 N   0  0  0  0  0  0  0  0  0  0  0  0
   23.2621   -8.8772  -14.9538 C   0  0  0  0  0  0  0  0  0  0  0  0
   21.8917   -8.8307  -15.4639 C   0  0  0  0  0  0  0  0  0  0  0  0
   21.2211   -9.9836  -15.8273 O   0  0  0  0  0  0  0  0  0  0  0  0
   21.3012   -7.7323  -15.5793 O   0  0  0  0  0  0  0  0  0  0  0  0
  1  2  1  0
  3  2  1  0
  4  5  1  0
  4  3  1  0
  5  1  1  0
  5  6  1  1
  7  6  2  0
  9  8  1  0
  9 10  1  0
 10 12  1  0
 10 11  1  1
 12 13  1  6
 13  6  1  0
 14 15  2  0
 14 12  1  0
 16 14  1  0
 17 16  1  0
 18 17  1  0
 18 19  1  0
 20 18  2  0
M  END
$$$$
