PIG.pdb
     RDKit          3D

 20 20  0  0  1  0  0  0  0  0999 V2000
   23.8511  -20.9470   -8.8107 N   0  0  0  0  0  0  0  0  0  0  0  0
   22.4323  -20.7812   -8.7514 C   0  0  0  0  0  0  0  0  0  0  0  0
   21.8884  -21.5030   -9.9669 C   0  0  0  0  0  0  0  0  0  0  0  0
   22.9686  -21.2175  -10.9913 C   0  0  0  0  0  0  0  0  0  0  0  0
   24.2221  -21.3672  -10.1190 C   0  0  1  0  0  0  0  0  0  0  0  0
   25.2717  -20.5510  -10.7465 C   0  0  0  0  0  0  0  0  0  0  0  0
   25.3480  -19.3217  -10.4673 O   0  0  0  0  0  0  0  0  0  0  0  0
   30.1795  -21.8813  -10.3534 C   0  0  0  0  0  0  0  0  0  0  0  0
   28.9305  -21.0481  -10.5937 C   0  0  0  0  0  0  0  0  0  0  0  0
   28.5146  -21.0617  -12.0239 C   0  0  2  0  0  0  0  0  0  0  0  0
   29.6340  -20.6055  -12.9479 C   0  0  0  0  0  0  0  0  0  0  0  0
   27.2240  -20.3709  -12.3288 C   0  0  2  0  0  0  0  0  0  0  0  0
   26.1699  -21.1398  -11.6408 N   0  0  0  0  0  0  0  0  0  0  0  0
   26.9046  -20.2265  -13.7484 C   0  0  0  0  0  0  0  0  0  0  0  0
   27.5673  -19.4691  -14.4829 O   0  0  0  0  0  0  0  0  0  0  0  0
   25.8273  -20.9520  -14.3133 N   0  0  0  0  0  0  0  0  0  0  0  0
   25.5083  -20.9550  -15.7115 C   0  0  0  0  0  0  0  0  0  0  0  0
   24.5756  -19.8954  -16.0958 C   0  0  0  0  0  0  0  0  0  0  0  0
   24.8856  -18.9939  -17.0970 O   0  0  0  0  0  0  0  0  0  0  0  0
   23.4707  -19.7902  -15.5157 O   0  0  0  0  0  0  0  0  0  0  0  0
  1  2  1  0
  3  2  1  0
  4  5  1  0
  4  3  1  0
  5  1  1  0
  5  6  1  6
  7  6  2  0
  9  8  1  0
  9 10  1  0
 10 12  1  0
 10 11  1  6
 12 13  1  1
 13  6  1  0
 14 15  2  0
 14 12  1  0
 16 14  1  0
 17 16  1  0
 18 17  1  0
 18 19  1  0
 20 18  2  0
M  END
$$$$
