PIG.pdb
     RDKit          3D

 20 20  0  0  1  0  0  0  0  0999 V2000
   29.1235  -20.5364  -14.6603 N   0  0  0  0  0  0  0  0  0  0  0  0
   29.0616  -20.0250  -15.9940 C   0  0  0  0  0  0  0  0  0  0  0  0
   28.4330  -18.6523  -15.8734 C   0  0  0  0  0  0  0  0  0  0  0  0
   27.4354  -18.8785  -14.7546 C   0  0  0  0  0  0  0  0  0  0  0  0
   28.2651  -19.7709  -13.8219 C   0  0  1  0  0  0  0  0  0  0  0  0
   27.3081  -20.5672  -13.0399 C   0  0  0  0  0  0  0  0  0  0  0  0
   27.7137  -21.5955  -12.4293 O   0  0  0  0  0  0  0  0  0  0  0  0
   27.0968  -20.5647   -8.8087 C   0  0  0  0  0  0  0  0  0  0  0  0
   26.7754  -20.9223  -10.2512 C   0  0  0  0  0  0  0  0  0  0  0  0
   25.4427  -20.4072  -10.6724 C   0  0  2  0  0  0  0  0  0  0  0  0
   24.3678  -20.6886   -9.6330 C   0  0  0  0  0  0  0  0  0  0  0  0
   25.0037  -20.7971  -12.0476 C   0  0  2  0  0  0  0  0  0  0  0  0
   25.9663  -20.1810  -12.9800 N   0  0  0  0  0  0  0  0  0  0  0  0
   23.6367  -20.4211  -12.4049 C   0  0  0  0  0  0  0  0  0  0  0  0
   23.2591  -19.2353  -12.3442 O   0  0  0  0  0  0  0  0  0  0  0  0
   22.7141  -21.4087  -12.8285 N   0  0  0  0  0  0  0  0  0  0  0  0
   21.4208  -21.1161  -13.3750 C   0  0  0  0  0  0  0  0  0  0  0  0
   20.3806  -20.9691  -12.3569 C   0  0  0  0  0  0  0  0  0  0  0  0
   19.0922  -20.5992  -12.6946 O   0  0  0  0  0  0  0  0  0  0  0  0
   20.6473  -21.1792  -11.1514 O   0  0  0  0  0  0  0  0  0  0  0  0
  1  2  1  0
  3  2  1  0
  4  5  1  0
  4  3  1  0
  5  1  1  0
  5  6  1  6
  7  6  2  0
  9  8  1  0
  9 10  1  0
 10 12  1  0
 10 11  1  1
 12 13  1  6
 13  6  1  0
 14 15  2  0
 14 12  1  0
 16 14  1  0
 17 16  1  0
 18 17  1  0
 18 19  1  0
 20 18  2  0
M  END
$$$$
