PIG.pdb
     RDKit          3D

 20 20  0  0  1  0  0  0  0  0999 V2000
   29.9117  -20.3780  -11.8012 N   0  0  0  0  0  0  0  0  0  0  0  0
   31.1802  -20.2833  -11.1486 C   0  0  0  0  0  0  0  0  0  0  0  0
   31.6844  -21.7069  -11.0333 C   0  0  0  0  0  0  0  0  0  0  0  0
   30.3934  -22.4611  -10.7834 C   0  0  0  0  0  0  0  0  0  0  0  0
   29.4531  -21.7243  -11.7465 C   0  0  1  0  0  0  0  0  0  0  0  0
   28.0931  -21.8836  -11.2113 C   0  0  0  0  0  0  0  0  0  0  0  0
   27.6228  -23.0452  -11.0551 O   0  0  0  0  0  0  0  0  0  0  0  0
   27.0165  -19.4925   -6.9872 C   0  0  0  0  0  0  0  0  0  0  0  0
   26.9454  -20.4810   -8.1404 C   0  0  0  0  0  0  0  0  0  0  0  0
   25.8761  -20.1281   -9.1155 C   0  0  2  0  0  0  0  0  0  0  0  0
   24.4896  -20.2028   -8.4936 C   0  0  0  0  0  0  0  0  0  0  0  0
   25.9371  -20.8412  -10.4284 C   0  0  2  0  0  0  0  0  0  0  0  0
   27.3379  -20.7546  -10.8823 N   0  0  0  0  0  0  0  0  0  0  0  0
   25.0347  -20.3383  -11.4631 C   0  0  0  0  0  0  0  0  0  0  0  0
   25.0860  -19.1518  -11.8402 O   0  0  0  0  0  0  0  0  0  0  0  0
   24.0806  -21.2007  -12.0564 N   0  0  0  0  0  0  0  0  0  0  0  0
   23.1654  -20.7978  -13.0845 C   0  0  0  0  0  0  0  0  0  0  0  0
   21.8274  -20.4872  -12.5808 C   0  0  0  0  0  0  0  0  0  0  0  0
   20.8410  -19.9981  -13.4167 O   0  0  0  0  0  0  0  0  0  0  0  0
   21.5552  -20.6626  -11.3710 O   0  0  0  0  0  0  0  0  0  0  0  0
  1  2  1  0
  3  2  1  0
  4  5  1  0
  4  3  1  0
  5  1  1  0
  5  6  1  1
  7  6  2  0
  9  8  1  0
  9 10  1  0
 10 12  1  0
 10 11  1  1
 12 13  1  6
 13  6  1  0
 14 15  2  0
 14 12  1  0
 16 14  1  0
 17 16  1  0
 18 17  1  0
 18 19  1  0
 20 18  2  0
M  END
$$$$
