MHF.pdb
     RDKit          3D

 30 31  0  0  1  0  0  0  0  0999 V2000
   21.6899  -19.0047  -19.7957 C   0  0  0  0  0  0  0  0  0  0  0  0
   22.4799  -17.4648  -20.2674 S   0  0  0  0  0  0  0  0  0  0  0  0
   24.2829  -17.6816  -20.4221 C   0  0  0  0  0  0  0  0  0  0  0  0
   24.7567  -18.9028  -19.7174 C   0  0  0  0  0  0  0  0  0  0  0  0
   25.6139  -18.6105  -18.5364 C   0  0  2  0  0  0  0  0  0  0  0  0
   27.0252  -18.7013  -18.9307 N   0  0  0  0  0  0  0  0  0  0  0  0
   25.3396  -19.4976  -17.3861 C   0  0  0  0  0  0  0  0  0  0  0  0
   25.3131  -20.7374  -17.5607 O   0  0  0  0  0  0  0  0  0  0  0  0
   25.1000  -19.0269  -16.0717 N   0  0  0  0  0  0  0  0  0  0  0  0
   24.8046  -19.9148  -14.9540 C   0  0  1  0  0  0  0  0  0  0  0  0
   25.7098  -19.5754  -13.7669 C   0  0  0  0  0  0  0  0  0  0  0  0
   25.4354  -20.4247  -12.5899 C   0  0  0  0  0  0  0  0  0  0  0  0
   25.5677  -21.7846  -12.4050 C   0  0  0  0  0  0  0  0  0  0  0  0
   25.1840  -22.1124  -11.1471 N   0  0  0  0  0  0  0  0  0  0  0  0
   24.8155  -20.9716  -10.5504 C   0  0  0  0  0  0  0  0  0  0  0  0
   24.9669  -19.9603  -11.4175 N   0  0  0  0  0  0  0  0  0  0  0  0
   23.3797  -19.9170  -14.6234 C   0  0  0  0  0  0  0  0  0  0  0  0
   22.7618  -18.8333  -14.4550 O   0  0  0  0  0  0  0  0  0  0  0  0
   22.5917  -21.1022  -14.4679 N   0  0  0  0  0  0  0  0  0  0  0  0
   21.2135  -21.0456  -13.9664 C   0  0  1  0  0  0  0  0  0  0  0  0
   20.4150  -22.0420  -14.7756 C   0  0  0  0  0  0  0  0  0  0  0  0
   19.9073  -21.4083  -16.0005 C   0  0  0  0  0  0  0  0  0  0  0  0
   18.5720  -21.4012  -16.2915 C   0  0  0  0  0  0  0  0  0  0  0  0
   18.1118  -20.7906  -17.4395 C   0  0  0  0  0  0  0  0  0  0  0  0
   19.0041  -20.1868  -18.2937 C   0  0  0  0  0  0  0  0  0  0  0  0
   20.3597  -20.1746  -18.0315 C   0  0  0  0  0  0  0  0  0  0  0  0
   20.7906  -20.8019  -16.8607 C   0  0  0  0  0  0  0  0  0  0  0  0
   21.1535  -21.2644  -12.5242 C   0  0  0  0  0  0  0  0  0  0  0  0
   20.1856  -20.5882  -11.7640 O   0  0  0  0  0  0  0  0  0  0  0  0
   21.9176  -22.0282  -11.8927 O   0  0  0  0  0  0  0  0  0  0  0  0
  1  2  1  0
  2  3  1  0
  4  3  1  0
  5  6  1  6
  5  4  1  0
  7  5  1  0
  8  7  2  0
  9  7  1  0
 10  9  1  0
 10 11  1  1
 11 12  1  0
 12 13  2  0
 12 16  1  0
 13 14  1  0
 14 15  1  0
 16 15  2  0
 17 18  2  0
 17 10  1  0
 19 17  1  0
 20 19  1  0
 21 22  1  0
 20 21  1  6
 22 23  2  0
 22 27  1  0
 23 24  1  0
 24 25  2  0
 26 25  1  0
 27 26  2  0
 28 29  1  0
 28 20  1  0
 30 28  2  0
M  END
$$$$
