MHF.pdb
     RDKit          3D

 30 31  0  0  1  0  0  0  0  0999 V2000
   28.5300  -16.6927  -18.1583 C   0  0  0  0  0  0  0  0  0  0  0  0
   28.6962  -15.6534  -16.7057 S   0  0  0  0  0  0  0  0  0  0  0  0
   27.0613  -15.1374  -16.0870 C   0  0  0  0  0  0  0  0  0  0  0  0
   26.4326  -16.1867  -15.2407 C   0  0  0  0  0  0  0  0  0  0  0  0
   25.3996  -16.9845  -15.9558 C   0  0  2  0  0  0  0  0  0  0  0  0
   24.1872  -16.1718  -16.1143 N   0  0  0  0  0  0  0  0  0  0  0  0
   25.0826  -18.2613  -15.2818 C   0  0  0  0  0  0  0  0  0  0  0  0
   24.3076  -18.2594  -14.2981 O   0  0  0  0  0  0  0  0  0  0  0  0
   25.6090  -19.5133  -15.6846 N   0  0  0  0  0  0  0  0  0  0  0  0
   25.2700  -20.7658  -15.0203 C   0  0  1  0  0  0  0  0  0  0  0  0
   25.6597  -21.9486  -15.9107 C   0  0  0  0  0  0  0  0  0  0  0  0
   25.2744  -23.2470  -15.3209 C   0  0  0  0  0  0  0  0  0  0  0  0
   24.6149  -23.5477  -14.1480 C   0  0  0  0  0  0  0  0  0  0  0  0
   24.4930  -24.8920  -14.0262 N   0  0  0  0  0  0  0  0  0  0  0  0
   25.0692  -25.4278  -15.1097 C   0  0  0  0  0  0  0  0  0  0  0  0
   25.5375  -24.4395  -15.8852 N   0  0  0  0  0  0  0  0  0  0  0  0
   25.8330  -20.8358  -13.6721 C   0  0  0  0  0  0  0  0  0  0  0  0
   27.0770  -20.7608  -13.4952 O   0  0  0  0  0  0  0  0  0  0  0  0
   25.0529  -20.9895  -12.4815 N   0  0  0  0  0  0  0  0  0  0  0  0
   25.6852  -21.1532  -11.1671 C   0  0  1  0  0  0  0  0  0  0  0  0
   26.6945  -20.0364  -11.0279 C   0  0  0  0  0  0  0  0  0  0  0  0
   27.3328  -20.0929   -9.7055 C   0  0  0  0  0  0  0  0  0  0  0  0
   26.8703  -19.3377   -8.6645 C   0  0  0  0  0  0  0  0  0  0  0  0
   27.4739  -19.4128   -7.4265 C   0  0  0  0  0  0  0  0  0  0  0  0
   28.5464  -20.2531   -7.2421 C   0  0  0  0  0  0  0  0  0  0  0  0
   29.0401  -21.0304   -8.2710 C   0  0  0  0  0  0  0  0  0  0  0  0
   28.4052  -20.9294   -9.5106 C   0  0  0  0  0  0  0  0  0  0  0  0
   24.6968  -21.2007  -10.0938 C   0  0  0  0  0  0  0  0  0  0  0  0
   23.5710  -20.3636  -10.1557 O   0  0  0  0  0  0  0  0  0  0  0  0
   24.7745  -21.9493   -9.0939 O   0  0  0  0  0  0  0  0  0  0  0  0
  1  2  1  0
  2  3  1  0
  4  3  1  0
  5  6  1  1
  5  4  1  0
  7  5  1  0
  8  7  2  0
  9  7  1  0
 10  9  1  0
 10 11  1  6
 11 12  1  0
 12 13  2  0
 12 16  1  0
 13 14  1  0
 14 15  1  0
 16 15  2  0
 17 18  2  0
 17 10  1  0
 19 17  1  0
 20 19  1  0
 21 22  1  0
 20 21  1  1
 22 23  2  0
 22 27  1  0
 23 24  1  0
 24 25  2  0
 26 25  1  0
 27 26  2  0
 28 29  1  0
 28 20  1  0
 30 28  2  0
M  END
$$$$
