MHF.pdb
     RDKit          3D

 30 31  0  0  1  0  0  0  0  0999 V2000
   22.0027  -13.0447  -17.0413 C   0  0  0  0  0  0  0  0  0  0  0  0
   23.2548  -14.0065  -16.1898 S   0  0  0  0  0  0  0  0  0  0  0  0
   23.0644  -15.7829  -16.5501 C   0  0  0  0  0  0  0  0  0  0  0  0
   21.7036  -16.2754  -16.2062 C   0  0  0  0  0  0  0  0  0  0  0  0
   21.7093  -17.4017  -15.2334 C   0  0  2  0  0  0  0  0  0  0  0  0
   22.9859  -18.1196  -15.3345 N   0  0  0  0  0  0  0  0  0  0  0  0
   20.5758  -18.3327  -15.4165 C   0  0  0  0  0  0  0  0  0  0  0  0
   19.4240  -17.8708  -15.5845 O   0  0  0  0  0  0  0  0  0  0  0  0
   20.7103  -19.7430  -15.4144 N   0  0  0  0  0  0  0  0  0  0  0  0
   19.5944  -20.6454  -15.6698 C   0  0  1  0  0  0  0  0  0  0  0  0
   20.0134  -21.7178  -16.6788 C   0  0  0  0  0  0  0  0  0  0  0  0
   20.4908  -21.1371  -17.9505 C   0  0  0  0  0  0  0  0  0  0  0  0
   21.7602  -21.0379  -18.4794 C   0  0  0  0  0  0  0  0  0  0  0  0
   21.7049  -20.4139  -19.6813 N   0  0  0  0  0  0  0  0  0  0  0  0
   20.4163  -20.1254  -19.9032 C   0  0  0  0  0  0  0  0  0  0  0  0
   19.6894  -20.5599  -18.8638 N   0  0  0  0  0  0  0  0  0  0  0  0
   19.0413  -21.1904  -14.4301 C   0  0  0  0  0  0  0  0  0  0  0  0
   19.7655  -21.8605  -13.6485 O   0  0  0  0  0  0  0  0  0  0  0  0
   17.6833  -21.0181  -14.0110 N   0  0  0  0  0  0  0  0  0  0  0  0
   17.2127  -21.5173  -12.7135 C   0  0  1  0  0  0  0  0  0  0  0  0
   16.8450  -20.3051  -11.8885 C   0  0  0  0  0  0  0  0  0  0  0  0
   18.0595  -19.6028  -11.4514 C   0  0  0  0  0  0  0  0  0  0  0  0
   18.8369  -20.0966  -10.4415 C   0  0  0  0  0  0  0  0  0  0  0  0
   19.9805  -19.4307  -10.0527 C   0  0  0  0  0  0  0  0  0  0  0  0
   20.3377  -18.2641  -10.6867 C   0  0  0  0  0  0  0  0  0  0  0  0
   19.5764  -17.7364  -11.7106 C   0  0  0  0  0  0  0  0  0  0  0  0
   18.4255  -18.4363  -12.0785 C   0  0  0  0  0  0  0  0  0  0  0  0
   16.1303  -22.4849  -12.8667 C   0  0  0  0  0  0  0  0  0  0  0  0
   15.6098  -22.7403  -14.1457 O   0  0  0  0  0  0  0  0  0  0  0  0
   15.6140  -23.1234  -11.9223 O   0  0  0  0  0  0  0  0  0  0  0  0
  1  2  1  0
  2  3  1  0
  4  3  1  0
  5  6  1  6
  5  4  1  0
  7  5  1  0
  8  7  2  0
  9  7  1  0
 10  9  1  0
 10 11  1  6
 11 12  1  0
 12 13  2  0
 12 16  1  0
 13 14  1  0
 14 15  1  0
 16 15  2  0
 17 18  2  0
 17 10  1  0
 19 17  1  0
 20 19  1  0
 21 22  1  0
 20 21  1  1
 22 23  2  0
 22 27  1  0
 23 24  1  0
 24 25  2  0
 26 25  1  0
 27 26  2  0
 28 29  1  0
 28 20  1  0
 30 28  2  0
M  END
$$$$
