MHF.pdb
     RDKit          3D

 30 31  0  0  1  0  0  0  0  0999 V2000
   21.3561  -15.6050  -20.8102 C   0  0  0  0  0  0  0  0  0  0  0  0
   21.2114  -14.0268  -21.6506 S   0  0  0  0  0  0  0  0  0  0  0  0
   22.0356  -12.7080  -20.7002 C   0  0  0  0  0  0  0  0  0  0  0  0
   21.0557  -11.7724  -20.0860 C   0  0  0  0  0  0  0  0  0  0  0  0
   20.3750  -12.3311  -18.8862 C   0  0  2  0  0  0  0  0  0  0  0  0
   19.3259  -13.2632  -19.3174 N   0  0  0  0  0  0  0  0  0  0  0  0
   19.8107  -11.2899  -18.0014 C   0  0  0  0  0  0  0  0  0  0  0  0
   18.8732  -10.5726  -18.4192 O   0  0  0  0  0  0  0  0  0  0  0  0
   20.2709  -11.0457  -16.6840 N   0  0  0  0  0  0  0  0  0  0  0  0
   19.6248  -10.1006  -15.7818 C   0  0  1  0  0  0  0  0  0  0  0  0
   19.1084  -10.8352  -14.5419 C   0  0  0  0  0  0  0  0  0  0  0  0
   17.8353  -11.5401  -14.7958 C   0  0  0  0  0  0  0  0  0  0  0  0
   17.0698  -11.6418  -15.9380 C   0  0  0  0  0  0  0  0  0  0  0  0
   15.9719  -12.3950  -15.6844 N   0  0  0  0  0  0  0  0  0  0  0  0
   16.0482  -12.7611  -14.3986 C   0  0  0  0  0  0  0  0  0  0  0  0
   17.1667  -12.2473  -13.8671 N   0  0  0  0  0  0  0  0  0  0  0  0
   20.4929   -8.9648  -15.4718 C   0  0  0  0  0  0  0  0  0  0  0  0
   21.6596   -9.1528  -15.0382 O   0  0  0  0  0  0  0  0  0  0  0  0
   20.1103   -7.5939  -15.6268 N   0  0  0  0  0  0  0  0  0  0  0  0
   21.0074   -6.4994  -15.2376 C   0  0  1  0  0  0  0  0  0  0  0  0
   20.6146   -5.2990  -16.0683 C   0  0  0  0  0  0  0  0  0  0  0  0
   21.4402   -4.1392  -15.7040 C   0  0  0  0  0  0  0  0  0  0  0  0
   22.6058   -3.8661  -16.3633 C   0  0  0  0  0  0  0  0  0  0  0  0
   23.3618   -2.7659  -16.0163 C   0  0  0  0  0  0  0  0  0  0  0  0
   22.9376   -1.9414  -15.0011 C   0  0  0  0  0  0  0  0  0  0  0  0
   21.7656   -2.1866  -14.3135 C   0  0  0  0  0  0  0  0  0  0  0  0
   21.0252   -3.3088  -14.6910 C   0  0  0  0  0  0  0  0  0  0  0  0
   20.9787   -6.2629  -13.7973 C   0  0  0  0  0  0  0  0  0  0  0  0
   22.1798   -6.0055  -13.1169 O   0  0  0  0  0  0  0  0  0  0  0  0
   19.9395   -6.2713  -13.1001 O   0  0  0  0  0  0  0  0  0  0  0  0
  1  2  1  0
  2  3  1  0
  4  3  1  0
  5  6  1  6
  5  4  1  0
  7  5  1  0
  8  7  2  0
  9  7  1  0
 10  9  1  0
 10 11  1  1
 11 12  1  0
 12 13  2  0
 12 16  1  0
 13 14  1  0
 14 15  1  0
 16 15  2  0
 17 18  2  0
 17 10  1  0
 19 17  1  0
 20 19  1  0
 21 22  1  0
 20 21  1  6
 22 23  2  0
 22 27  1  0
 23 24  1  0
 24 25  2  0
 26 25  1  0
 27 26  2  0
 28 29  1  0
 28 20  1  0
 30 28  2  0
M  END
$$$$
