MHF.pdb
     RDKit          3D

 30 31  0  0  1  0  0  0  0  0999 V2000
   27.1588  -14.1640  -18.3340 C   0  0  0  0  0  0  0  0  0  0  0  0
   27.2937  -15.7976  -17.6053 S   0  0  0  0  0  0  0  0  0  0  0  0
   25.8762  -16.8394  -18.0821 C   0  0  0  0  0  0  0  0  0  0  0  0
   25.9544  -18.1941  -17.4728 C   0  0  0  0  0  0  0  0  0  0  0  0
   25.3174  -18.2777  -16.1303 C   0  0  2  0  0  0  0  0  0  0  0  0
   26.0208  -17.3795  -15.2062 N   0  0  0  0  0  0  0  0  0  0  0  0
   25.2820  -19.6529  -15.5891 C   0  0  0  0  0  0  0  0  0  0  0  0
   24.8207  -20.5781  -16.2957 O   0  0  0  0  0  0  0  0  0  0  0  0
   25.7458  -19.9997  -14.2962 N   0  0  0  0  0  0  0  0  0  0  0  0
   25.7600  -21.3707  -13.8013 C   0  0  1  0  0  0  0  0  0  0  0  0
   27.1897  -21.7759  -13.4334 C   0  0  0  0  0  0  0  0  0  0  0  0
   28.0150  -22.0677  -14.6233 C   0  0  0  0  0  0  0  0  0  0  0  0
   27.7376  -21.9467  -15.9684 C   0  0  0  0  0  0  0  0  0  0  0  0
   28.8120  -22.3449  -16.6923 N   0  0  0  0  0  0  0  0  0  0  0  0
   29.7518  -22.7111  -15.8116 C   0  0  0  0  0  0  0  0  0  0  0  0
   29.2719  -22.5443  -14.5709 N   0  0  0  0  0  0  0  0  0  0  0  0
   24.7972  -21.5675  -12.7177 C   0  0  0  0  0  0  0  0  0  0  0  0
   24.6592  -22.6992  -12.1842 O   0  0  0  0  0  0  0  0  0  0  0  0
   23.9598  -20.5341  -12.1881 N   0  0  0  0  0  0  0  0  0  0  0  0
   22.9666  -20.8127  -11.1440 C   0  0  1  0  0  0  0  0  0  0  0  0
   23.1559  -19.7630  -10.0726 C   0  0  0  0  0  0  0  0  0  0  0  0
   24.3599  -20.0569   -9.2831 C   0  0  0  0  0  0  0  0  0  0  0  0
   24.3710  -21.0640   -8.3592 C   0  0  0  0  0  0  0  0  0  0  0  0
   25.5140  -21.3341   -7.6360 C   0  0  0  0  0  0  0  0  0  0  0  0
   26.6468  -20.5842   -7.8481 C   0  0  0  0  0  0  0  0  0  0  0  0
   26.6717  -19.5594   -8.7732 C   0  0  0  0  0  0  0  0  0  0  0  0
   25.4972  -19.3136   -9.4875 C   0  0  0  0  0  0  0  0  0  0  0  0
   21.6130  -20.8725  -11.6874 C   0  0  0  0  0  0  0  0  0  0  0  0
   20.5486  -21.2386  -10.8478 O   0  0  0  0  0  0  0  0  0  0  0  0
   21.3164  -20.6164  -12.8759 O   0  0  0  0  0  0  0  0  0  0  0  0
  1  2  1  0
  2  3  1  0
  4  3  1  0
  5  6  1  1
  5  4  1  0
  7  5  1  0
  8  7  2  0
  9  7  1  0
 10  9  1  0
 10 11  1  1
 11 12  1  0
 12 13  2  0
 12 16  1  0
 13 14  1  0
 14 15  1  0
 16 15  2  0
 17 18  2  0
 17 10  1  0
 19 17  1  0
 20 19  1  0
 21 22  1  0
 20 21  1  1
 22 23  2  0
 22 27  1  0
 23 24  1  0
 24 25  2  0
 26 25  1  0
 27 26  2  0
 28 29  1  0
 28 20  1  0
 30 28  2  0
M  END
$$$$
