MHF.pdb
     RDKit          3D

 30 31  0  0  1  0  0  0  0  0999 V2000
   28.2543  -13.7277  -15.3617 C   0  0  0  0  0  0  0  0  0  0  0  0
   26.7443  -12.8669  -15.8054 S   0  0  0  0  0  0  0  0  0  0  0  0
   26.6581  -12.5947  -17.6056 C   0  0  0  0  0  0  0  0  0  0  0  0
   25.5546  -11.6676  -17.9736 C   0  0  0  0  0  0  0  0  0  0  0  0
   24.2300  -12.0794  -17.4341 C   0  0  2  0  0  0  0  0  0  0  0  0
   23.8191  -13.3361  -18.0724 N   0  0  0  0  0  0  0  0  0  0  0  0
   23.1867  -11.0464  -17.6055 C   0  0  0  0  0  0  0  0  0  0  0  0
   23.2540  -10.2630  -18.5802 O   0  0  0  0  0  0  0  0  0  0  0  0
   22.0927  -10.8814  -16.7208 N   0  0  0  0  0  0  0  0  0  0  0  0
   21.1501   -9.7743  -16.8245 C   0  0  1  0  0  0  0  0  0  0  0  0
   19.7347  -10.3153  -17.0429 C   0  0  0  0  0  0  0  0  0  0  0  0
   19.5664  -10.9270  -18.3769 C   0  0  0  0  0  0  0  0  0  0  0  0
   19.8321  -12.2029  -18.8271 C   0  0  0  0  0  0  0  0  0  0  0  0
   19.5196  -12.2956  -20.1426 N   0  0  0  0  0  0  0  0  0  0  0  0
   19.0634  -11.0924  -20.5129 C   0  0  0  0  0  0  0  0  0  0  0  0
   19.0922  -10.2726  -19.4523 N   0  0  0  0  0  0  0  0  0  0  0  0
   21.2596   -8.8589  -15.6889 C   0  0  0  0  0  0  0  0  0  0  0  0
   21.0327   -9.2636  -14.5187 O   0  0  0  0  0  0  0  0  0  0  0  0
   21.6197   -7.4778  -15.8006 N   0  0  0  0  0  0  0  0  0  0  0  0
   21.7488   -6.6214  -14.6158 C   0  0  1  0  0  0  0  0  0  0  0  0
   23.1877   -6.7197  -14.1628 C   0  0  0  0  0  0  0  0  0  0  0  0
   24.0910   -6.3607  -15.2648 C   0  0  0  0  0  0  0  0  0  0  0  0
   24.3423   -5.0537  -15.5756 C   0  0  0  0  0  0  0  0  0  0  0  0
   25.2029   -4.7350  -16.6054 C   0  0  0  0  0  0  0  0  0  0  0  0
   25.8096   -5.7401  -17.3211 C   0  0  0  0  0  0  0  0  0  0  0  0
   25.5791   -7.0710  -17.0348 C   0  0  0  0  0  0  0  0  0  0  0  0
   24.7025   -7.3574  -15.9862 C   0  0  0  0  0  0  0  0  0  0  0  0
   21.2994   -5.2581  -14.8823 C   0  0  0  0  0  0  0  0  0  0  0  0
   20.9637   -4.8871  -16.1944 O   0  0  0  0  0  0  0  0  0  0  0  0
   21.1862   -4.3679  -14.0102 O   0  0  0  0  0  0  0  0  0  0  0  0
  1  2  1  0
  2  3  1  0
  4  3  1  0
  5  6  1  6
  5  4  1  0
  7  5  1  0
  8  7  2  0
  9  7  1  0
 10  9  1  0
 10 11  1  1
 11 12  1  0
 12 13  2  0
 12 16  1  0
 13 14  1  0
 14 15  1  0
 16 15  2  0
 17 18  2  0
 17 10  1  0
 19 17  1  0
 20 19  1  0
 21 22  1  0
 20 21  1  6
 22 23  2  0
 22 27  1  0
 23 24  1  0
 24 25  2  0
 26 25  1  0
 27 26  2  0
 28 29  1  0
 28 20  1  0
 30 28  2  0
M  END
$$$$
