MHF.pdb
     RDKit          3D

 30 31  0  0  1  0  0  0  0  0999 V2000
   33.2381  -20.9463  -10.5327 C   0  0  0  0  0  0  0  0  0  0  0  0
   33.5424  -22.2496  -11.7272 S   0  0  0  0  0  0  0  0  0  0  0  0
   32.1510  -22.3965  -12.8953 C   0  0  0  0  0  0  0  0  0  0  0  0
   30.9859  -21.5723  -12.4757 C   0  0  0  0  0  0  0  0  0  0  0  0
   29.9001  -21.5204  -13.4923 C   0  0  2  0  0  0  0  0  0  0  0  0
   30.4003  -20.8485  -14.6980 N   0  0  0  0  0  0  0  0  0  0  0  0
   28.6750  -20.8557  -12.9998 C   0  0  0  0  0  0  0  0  0  0  0  0
   28.5385  -19.6219  -13.1644 O   0  0  0  0  0  0  0  0  0  0  0  0
   27.6231  -21.5378  -12.3401 N   0  0  0  0  0  0  0  0  0  0  0  0
   26.4394  -20.8601  -11.8259 C   0  0  1  0  0  0  0  0  0  0  0  0
   25.2204  -21.2252  -12.6771 C   0  0  0  0  0  0  0  0  0  0  0  0
   23.9778  -20.6039  -12.1749 C   0  0  0  0  0  0  0  0  0  0  0  0
   23.7692  -19.6809  -11.1720 C   0  0  0  0  0  0  0  0  0  0  0  0
   22.4446  -19.4130  -11.0686 N   0  0  0  0  0  0  0  0  0  0  0  0
   21.8302  -20.1589  -11.9954 C   0  0  0  0  0  0  0  0  0  0  0  0
   22.7515  -20.8727  -12.6581 N   0  0  0  0  0  0  0  0  0  0  0  0
   26.2511  -21.1046  -10.3961 C   0  0  0  0  0  0  0  0  0  0  0  0
   26.1939  -22.2810   -9.9518 O   0  0  0  0  0  0  0  0  0  0  0  0
   26.1204  -20.0715   -9.4136 N   0  0  0  0  0  0  0  0  0  0  0  0
   25.8082  -20.3809   -8.0133 C   0  0  1  0  0  0  0  0  0  0  0  0
   26.2563  -19.1916   -7.1948 C   0  0  0  0  0  0  0  0  0  0  0  0
   27.3059  -19.5948   -6.2487 C   0  0  0  0  0  0  0  0  0  0  0  0
   28.6003  -19.1879   -6.4134 C   0  0  0  0  0  0  0  0  0  0  0  0
   29.5703  -19.5656   -5.5084 C   0  0  0  0  0  0  0  0  0  0  0  0
   29.2299  -20.3557   -4.4359 C   0  0  0  0  0  0  0  0  0  0  0  0
   27.9326  -20.7851   -4.2382 C   0  0  0  0  0  0  0  0  0  0  0  0
   26.9764  -20.3841   -5.1734 C   0  0  0  0  0  0  0  0  0  0  0  0
   24.4016  -20.7299   -7.8373 C   0  0  0  0  0  0  0  0  0  0  0  0
   24.0423  -21.6736   -6.8615 O   0  0  0  0  0  0  0  0  0  0  0  0
   23.4631  -20.2414   -8.5056 O   0  0  0  0  0  0  0  0  0  0  0  0
  1  2  1  0
  2  3  1  0
  4  3  1  0
  5  6  1  6
  5  4  1  0
  7  5  1  0
  8  7  2  0
  9  7  1  0
 10  9  1  0
 10 11  1  6
 11 12  1  0
 12 13  2  0
 12 16  1  0
 13 14  1  0
 14 15  1  0
 16 15  2  0
 17 18  2  0
 17 10  1  0
 19 17  1  0
 20 19  1  0
 21 22  1  0
 20 21  1  1
 22 23  2  0
 22 27  1  0
 23 24  1  0
 24 25  2  0
 26 25  1  0
 27 26  2  0
 28 29  1  0
 28 20  1  0
 30 28  2  0
M  END
$$$$
