MHF.pdb
     RDKit          3D

 30 31  0  0  1  0  0  0  0  0999 V2000
   29.8332  -15.3406  -16.8095 C   0  0  0  0  0  0  0  0  0  0  0  0
   29.6729  -16.4248  -18.2296 S   0  0  0  0  0  0  0  0  0  0  0  0
   27.9300  -16.5670  -18.7435 C   0  0  0  0  0  0  0  0  0  0  0  0
   27.0493  -16.9634  -17.6122 C   0  0  0  0  0  0  0  0  0  0  0  0
   27.4737  -18.2239  -16.9444 C   0  0  2  0  0  0  0  0  0  0  0  0
   27.5966  -19.2852  -17.9514 N   0  0  0  0  0  0  0  0  0  0  0  0
   26.5603  -18.6425  -15.8601 C   0  0  0  0  0  0  0  0  0  0  0  0
   26.1843  -17.7982  -15.0151 O   0  0  0  0  0  0  0  0  0  0  0  0
   26.0721  -19.9640  -15.7114 N   0  0  0  0  0  0  0  0  0  0  0  0
   25.0682  -20.3307  -14.7202 C   0  0  1  0  0  0  0  0  0  0  0  0
   24.0825  -21.3340  -15.3250 C   0  0  0  0  0  0  0  0  0  0  0  0
   23.0320  -21.7366  -14.3677 C   0  0  0  0  0  0  0  0  0  0  0  0
   22.9691  -22.7944  -13.4856 C   0  0  0  0  0  0  0  0  0  0  0  0
   21.7929  -22.7570  -12.8133 N   0  0  0  0  0  0  0  0  0  0  0  0
   21.1263  -21.6886  -13.2684 C   0  0  0  0  0  0  0  0  0  0  0  0
   21.8711  -21.0777  -14.2009 N   0  0  0  0  0  0  0  0  0  0  0  0
   25.6784  -20.7876  -13.4717 C   0  0  0  0  0  0  0  0  0  0  0  0
   26.7539  -21.4414  -13.4888 O   0  0  0  0  0  0  0  0  0  0  0  0
   25.1307  -20.5427  -12.1718 N   0  0  0  0  0  0  0  0  0  0  0  0
   25.8486  -20.9318  -10.9523 C   0  0  1  0  0  0  0  0  0  0  0  0
   26.8498  -19.8352  -10.6684 C   0  0  0  0  0  0  0  0  0  0  0  0
   27.3940  -19.9854   -9.3117 C   0  0  0  0  0  0  0  0  0  0  0  0
   28.5644  -20.6553   -9.0896 C   0  0  0  0  0  0  0  0  0  0  0  0
   29.0670  -20.7757   -7.8108 C   0  0  0  0  0  0  0  0  0  0  0  0
   28.3843  -20.2175   -6.7559 C   0  0  0  0  0  0  0  0  0  0  0  0
   27.1994  -19.5338   -6.9431 C   0  0  0  0  0  0  0  0  0  0  0  0
   26.7197  -19.4311   -8.2506 C   0  0  0  0  0  0  0  0  0  0  0  0
   24.9323  -21.2027   -9.8485 C   0  0  0  0  0  0  0  0  0  0  0  0
   25.2884  -22.1480   -8.8731 O   0  0  0  0  0  0  0  0  0  0  0  0
   23.8228  -20.6439   -9.6976 O   0  0  0  0  0  0  0  0  0  0  0  0
  1  2  1  0
  2  3  1  0
  4  3  1  0
  5  6  1  6
  5  4  1  0
  7  5  1  0
  8  7  2  0
  9  7  1  0
 10  9  1  0
 10 11  1  6
 11 12  1  0
 12 13  2  0
 12 16  1  0
 13 14  1  0
 14 15  1  0
 16 15  2  0
 17 18  2  0
 17 10  1  0
 19 17  1  0
 20 19  1  0
 21 22  1  0
 20 21  1  1
 22 23  2  0
 22 27  1  0
 23 24  1  0
 24 25  2  0
 26 25  1  0
 27 26  2  0
 28 29  1  0
 28 20  1  0
 30 28  2  0
M  END
$$$$
