MHF.pdb
     RDKit          3D

 30 31  0  0  1  0  0  0  0  0999 V2000
   19.2431  -17.0655  -12.9489 C   0  0  0  0  0  0  0  0  0  0  0  0
   19.2338  -17.2841  -14.7293 S   0  0  0  0  0  0  0  0  0  0  0  0
   20.8549  -17.8726  -15.3189 C   0  0  0  0  0  0  0  0  0  0  0  0
   21.5830  -18.6346  -14.2693 C   0  0  0  0  0  0  0  0  0  0  0  0
   23.0029  -18.9138  -14.6172 C   0  0  2  0  0  0  0  0  0  0  0  0
   23.0629  -19.5063  -15.9591 N   0  0  0  0  0  0  0  0  0  0  0  0
   23.6806  -19.7865  -13.6352 C   0  0  0  0  0  0  0  0  0  0  0  0
   22.9915  -20.5056  -12.8760 O   0  0  0  0  0  0  0  0  0  0  0  0
   25.0880  -19.8643  -13.4940 N   0  0  0  0  0  0  0  0  0  0  0  0
   25.7405  -20.7527  -12.5403 C   0  0  1  0  0  0  0  0  0  0  0  0
   26.9597  -21.4102  -13.1921 C   0  0  0  0  0  0  0  0  0  0  0  0
   26.5821  -22.3800  -14.2404 C   0  0  0  0  0  0  0  0  0  0  0  0
   25.3458  -22.7601  -14.7181 C   0  0  0  0  0  0  0  0  0  0  0  0
   25.5002  -23.6953  -15.6869 N   0  0  0  0  0  0  0  0  0  0  0  0
   26.8174  -23.8991  -15.8151 C   0  0  0  0  0  0  0  0  0  0  0  0
   27.4649  -23.1092  -14.9465 N   0  0  0  0  0  0  0  0  0  0  0  0
   26.0440  -20.0711  -11.2821 C   0  0  0  0  0  0  0  0  0  0  0  0
   26.2465  -18.8289  -11.2619 O   0  0  0  0  0  0  0  0  0  0  0  0
   26.1344  -20.7274  -10.0130 N   0  0  0  0  0  0  0  0  0  0  0  0
   27.0567  -20.2586   -8.9720 C   0  0  1  0  0  0  0  0  0  0  0  0
   26.2065  -19.8377   -7.7950 C   0  0  0  0  0  0  0  0  0  0  0  0
   27.0624  -19.4496   -6.6653 C   0  0  0  0  0  0  0  0  0  0  0  0
   27.5359  -18.1734   -6.5430 C   0  0  0  0  0  0  0  0  0  0  0  0
   28.3278  -17.8235   -5.4693 C   0  0  0  0  0  0  0  0  0  0  0  0
   28.6406  -18.7661   -4.5185 C   0  0  0  0  0  0  0  0  0  0  0  0
   28.1798  -20.0645   -4.6098 C   0  0  0  0  0  0  0  0  0  0  0  0
   27.3807  -20.3840   -5.7096 C   0  0  0  0  0  0  0  0  0  0  0  0
   28.0648  -21.2643   -8.6498 C   0  0  0  0  0  0  0  0  0  0  0  0
   27.7158  -22.6242   -8.6787 O   0  0  0  0  0  0  0  0  0  0  0  0
   29.2493  -21.0042   -8.3410 O   0  0  0  0  0  0  0  0  0  0  0  0
  1  2  1  0
  2  3  1  0
  4  3  1  0
  5  6  1  6
  5  4  1  0
  7  5  1  0
  8  7  2  0
  9  7  1  0
 10  9  1  0
 10 11  1  6
 11 12  1  0
 12 13  2  0
 12 16  1  0
 13 14  1  0
 14 15  1  0
 16 15  2  0
 17 18  2  0
 17 10  1  0
 19 17  1  0
 20 19  1  0
 21 22  1  0
 20 21  1  1
 22 23  2  0
 22 27  1  0
 23 24  1  0
 24 25  2  0
 26 25  1  0
 27 26  2  0
 28 29  1  0
 28 20  1  0
 30 28  2  0
M  END
$$$$
