FHC.pdb
     RDKit          3D

 28 29  0  0  1  0  0  0  0  0999 V2000
   26.4948  -18.8741  -19.4356 N   0  0  0  0  0  0  0  0  0  0  0  0
   26.3313  -18.4317  -18.0664 C   0  0  1  0  0  0  0  0  0  0  0  0
   25.5585  -17.1329  -18.0238 C   0  0  0  0  0  0  0  0  0  0  0  0
   26.3319  -16.1022  -18.7248 C   0  0  0  0  0  0  0  0  0  0  0  0
   27.6572  -15.9054  -18.3610 C   0  0  0  0  0  0  0  0  0  0  0  0
   28.4295  -14.9372  -18.9981 C   0  0  0  0  0  0  0  0  0  0  0  0
   27.8511  -14.1836  -19.9919 C   0  0  0  0  0  0  0  0  0  0  0  0
   26.5467  -14.3817  -20.3456 C   0  0  0  0  0  0  0  0  0  0  0  0
   25.7714  -15.3341  -19.7255 C   0  0  0  0  0  0  0  0  0  0  0  0
   25.5755  -19.4559  -17.2857 C   0  0  0  0  0  0  0  0  0  0  0  0
   24.6093  -20.0718  -17.8037 O   0  0  0  0  0  0  0  0  0  0  0  0
   25.9372  -19.7473  -15.9506 N   0  0  0  0  0  0  0  0  0  0  0  0
   25.2368  -20.7878  -15.2071 C   0  0  1  0  0  0  0  0  0  0  0  0
   26.2137  -21.6416  -14.4326 C   0  0  0  0  0  0  0  0  0  0  0  0
   27.1248  -22.3449  -15.3464 C   0  0  0  0  0  0  0  0  0  0  0  0
   27.1479  -22.1961  -16.7128 C   0  0  0  0  0  0  0  0  0  0  0  0
   28.1299  -23.0173  -17.1894 N   0  0  0  0  0  0  0  0  0  0  0  0
   28.6974  -23.6536  -16.1624 C   0  0  0  0  0  0  0  0  0  0  0  0
   28.0717  -23.2300  -15.0555 N   0  0  0  0  0  0  0  0  0  0  0  0
   24.1888  -20.1827  -14.3308 C   0  0  0  0  0  0  0  0  0  0  0  0
   24.3757  -19.0447  -13.8533 O   0  0  0  0  0  0  0  0  0  0  0  0
   22.9967  -20.9035  -14.0508 N   0  0  0  0  0  0  0  0  0  0  0  0
   21.7960  -20.3428  -13.4821 C   0  0  1  0  0  0  0  0  0  0  0  0
   21.3845  -19.1297  -14.2382 C   0  0  0  0  0  0  0  0  0  0  0  0
   19.9799  -18.2751  -13.5265 S   0  0  0  0  0  0  0  0  0  0  0  0
   20.7155  -21.3444  -13.2836 C   0  0  0  0  0  0  0  0  0  0  0  0
   19.8345  -21.2660  -12.2187 O   0  0  0  0  0  0  0  0  0  0  0  0
   20.5922  -22.2839  -14.0937 O   0  0  0  0  0  0  0  0  0  0  0  0
  2  1  1  6
  2  3  1  0
  3  4  1  0
  4  9  2  0
  5  6  2  0
  5  4  1  0
  6  7  1  0
  7  8  2  0
  9  8  1  0
 10 12  1  0
 10  2  1  0
 11 10  2  0
 13 12  1  0
 13 14  1  1
 14 15  1  0
 15 16  2  0
 16 17  1  0
 18 17  1  0
 19 15  1  0
 19 18  2  0
 20 13  1  0
 21 20  2  0
 22 20  1  0
 23 26  1  0
 23 22  1  0
 23 24  1  6
 25 24  1  0
 26 27  1  0
 28 26  2  0
M  END
$$$$
