FHC.pdb
     RDKit          3D

 28 29  0  0  1  0  0  0  0  0999 V2000
   21.6976  -24.7703  -18.1193 N   0  0  0  0  0  0  0  0  0  0  0  0
   21.2110  -23.6116  -17.3995 C   0  0  1  0  0  0  0  0  0  0  0  0
   20.7940  -22.5291  -18.3692 C   0  0  0  0  0  0  0  0  0  0  0  0
   21.9744  -22.0923  -19.1225 C   0  0  0  0  0  0  0  0  0  0  0  0
   22.8650  -21.2194  -18.5123 C   0  0  0  0  0  0  0  0  0  0  0  0
   23.9985  -20.7770  -19.1898 C   0  0  0  0  0  0  0  0  0  0  0  0
   24.2143  -21.2231  -20.4723 C   0  0  0  0  0  0  0  0  0  0  0  0
   23.3346  -22.0818  -21.0676 C   0  0  0  0  0  0  0  0  0  0  0  0
   22.2107  -22.5275  -20.4111 C   0  0  0  0  0  0  0  0  0  0  0  0
   20.0257  -23.9854  -16.5718 C   0  0  0  0  0  0  0  0  0  0  0  0
   19.1445  -24.7584  -17.0269 O   0  0  0  0  0  0  0  0  0  0  0  0
   19.8783  -23.4738  -15.2623 N   0  0  0  0  0  0  0  0  0  0  0  0
   18.7346  -23.8594  -14.4443 C   0  0  1  0  0  0  0  0  0  0  0  0
   19.1354  -23.9929  -12.9935 C   0  0  0  0  0  0  0  0  0  0  0  0
   19.8303  -25.2671  -12.7632 C   0  0  0  0  0  0  0  0  0  0  0  0
   20.0057  -26.2556  -13.7023 C   0  0  0  0  0  0  0  0  0  0  0  0
   20.6951  -27.2671  -13.0963 N   0  0  0  0  0  0  0  0  0  0  0  0
   20.9407  -26.9247  -11.8298 C   0  0  0  0  0  0  0  0  0  0  0  0
   20.4071  -25.7084  -11.6508 N   0  0  0  0  0  0  0  0  0  0  0  0
   17.6096  -22.8958  -14.6388 C   0  0  0  0  0  0  0  0  0  0  0  0
   17.8487  -21.6707  -14.6368 O   0  0  0  0  0  0  0  0  0  0  0  0
   16.2862  -23.3795  -14.8231 N   0  0  0  0  0  0  0  0  0  0  0  0
   15.1241  -22.5607  -15.0656 C   0  0  1  0  0  0  0  0  0  0  0  0
   14.0498  -23.3661  -15.7056 C   0  0  0  0  0  0  0  0  0  0  0  0
   12.5456  -22.4455  -16.0210 S   0  0  0  0  0  0  0  0  0  0  0  0
   14.6902  -21.7868  -13.8728 C   0  0  0  0  0  0  0  0  0  0  0  0
   14.3554  -20.4462  -13.9551 O   0  0  0  0  0  0  0  0  0  0  0  0
   14.6232  -22.3529  -12.7642 O   0  0  0  0  0  0  0  0  0  0  0  0
  2  1  1  6
  2  3  1  0
  3  4  1  0
  4  9  2  0
  5  6  2  0
  5  4  1  0
  6  7  1  0
  7  8  2  0
  9  8  1  0
 10 12  1  0
 10  2  1  0
 11 10  2  0
 13 12  1  0
 13 14  1  1
 14 15  1  0
 15 16  2  0
 16 17  1  0
 18 17  1  0
 19 15  1  0
 19 18  2  0
 20 13  1  0
 21 20  2  0
 22 20  1  0
 23 26  1  0
 23 22  1  0
 23 24  1  1
 25 24  1  0
 26 27  1  0
 28 26  2  0
M  END
$$$$
