FHC.pdb
     RDKit          3D

 28 29  0  0  1  0  0  0  0  0999 V2000
   28.4667  -20.8824  -17.2615 N   0  0  0  0  0  0  0  0  0  0  0  0
   27.4479  -21.6134  -16.5369 C   0  0  1  0  0  0  0  0  0  0  0  0
   28.0664  -22.3716  -15.3843 C   0  0  0  0  0  0  0  0  0  0  0  0
   28.7030  -23.5853  -15.9074 C   0  0  0  0  0  0  0  0  0  0  0  0
   27.9079  -24.6950  -16.1601 C   0  0  0  0  0  0  0  0  0  0  0  0
   28.4692  -25.8693  -16.6557 C   0  0  0  0  0  0  0  0  0  0  0  0
   29.8238  -25.9040  -16.8881 C   0  0  0  0  0  0  0  0  0  0  0  0
   30.6010  -24.8091  -16.6376 C   0  0  0  0  0  0  0  0  0  0  0  0
   30.0611  -23.6422  -16.1479 C   0  0  0  0  0  0  0  0  0  0  0  0
   26.4331  -20.6658  -15.9874 C   0  0  0  0  0  0  0  0  0  0  0  0
   26.7767  -19.7382  -15.2112 O   0  0  0  0  0  0  0  0  0  0  0  0
   25.0690  -20.7994  -16.3337 N   0  0  0  0  0  0  0  0  0  0  0  0
   24.0976  -19.8012  -15.9028 C   0  0  1  0  0  0  0  0  0  0  0  0
   23.9085  -18.7448  -16.9665 C   0  0  0  0  0  0  0  0  0  0  0  0
   25.0206  -17.7843  -16.9462 C   0  0  0  0  0  0  0  0  0  0  0  0
   25.9432  -17.6182  -17.9517 C   0  0  0  0  0  0  0  0  0  0  0  0
   26.8032  -16.6365  -17.5489 N   0  0  0  0  0  0  0  0  0  0  0  0
   26.4331  -16.2064  -16.3407 C   0  0  0  0  0  0  0  0  0  0  0  0
   25.3503  -16.9167  -15.9958 N   0  0  0  0  0  0  0  0  0  0  0  0
   22.8129  -20.4601  -15.5187 C   0  0  0  0  0  0  0  0  0  0  0  0
   22.3209  -21.3238  -16.2735 O   0  0  0  0  0  0  0  0  0  0  0  0
   22.1669  -20.0997  -14.3053 N   0  0  0  0  0  0  0  0  0  0  0  0
   20.9052  -20.6236  -13.8435 C   0  0  1  0  0  0  0  0  0  0  0  0
   20.6862  -20.2602  -12.4179 C   0  0  0  0  0  0  0  0  0  0  0  0
   19.1527  -20.8891  -11.7380 S   0  0  0  0  0  0  0  0  0  0  0  0
   19.7686  -20.3016  -14.7459 C   0  0  0  0  0  0  0  0  0  0  0  0
   19.5157  -19.0076  -15.1677 O   0  0  0  0  0  0  0  0  0  0  0  0
   19.0176  -21.2159  -15.1384 O   0  0  0  0  0  0  0  0  0  0  0  0
  2  1  1  1
  2  3  1  0
  3  4  1  0
  4  9  2  0
  5  6  2  0
  5  4  1  0
  6  7  1  0
  7  8  2  0
  9  8  1  0
 10 12  1  0
 10  2  1  0
 11 10  2  0
 13 12  1  0
 13 14  1  6
 14 15  1  0
 15 16  2  0
 16 17  1  0
 18 17  1  0
 19 15  1  0
 19 18  2  0
 20 13  1  0
 21 20  2  0
 22 20  1  0
 23 26  1  0
 23 22  1  0
 23 24  1  1
 25 24  1  0
 26 27  1  0
 28 26  2  0
M  END
$$$$
