FHC.pdb
     RDKit          3D

 28 29  0  0  1  0  0  0  0  0999 V2000
   29.1108  -21.2072  -13.5171 N   0  0  0  0  0  0  0  0  0  0  0  0
   28.0934  -21.2146  -12.4865 C   0  0  1  0  0  0  0  0  0  0  0  0
   28.5723  -20.4525  -11.2716 C   0  0  0  0  0  0  0  0  0  0  0  0
   29.6756  -21.1966  -10.6544 C   0  0  0  0  0  0  0  0  0  0  0  0
   30.9142  -21.1876  -11.2813 C   0  0  0  0  0  0  0  0  0  0  0  0
   31.9901  -21.8810  -10.7324 C   0  0  0  0  0  0  0  0  0  0  0  0
   31.7977  -22.5721   -9.5595 C   0  0  0  0  0  0  0  0  0  0  0  0
   30.5768  -22.5774   -8.9472 C   0  0  0  0  0  0  0  0  0  0  0  0
   29.5048  -21.8972   -9.4773 C   0  0  0  0  0  0  0  0  0  0  0  0
   26.8494  -20.5618  -12.9924 C   0  0  0  0  0  0  0  0  0  0  0  0
   26.8369  -19.3356  -13.2707 O   0  0  0  0  0  0  0  0  0  0  0  0
   25.6662  -21.3157  -13.1657 N   0  0  0  0  0  0  0  0  0  0  0  0
   24.4938  -20.7150  -13.7903 C   0  0  1  0  0  0  0  0  0  0  0  0
   24.3874  -21.1308  -15.2391 C   0  0  0  0  0  0  0  0  0  0  0  0
   25.3904  -20.4309  -16.0539 C   0  0  0  0  0  0  0  0  0  0  0  0
   26.5498  -20.9898  -16.5366 C   0  0  0  0  0  0  0  0  0  0  0  0
   27.2016  -20.0171  -17.2400 N   0  0  0  0  0  0  0  0  0  0  0  0
   26.4788  -18.8957  -17.1985 C   0  0  0  0  0  0  0  0  0  0  0  0
   25.3854  -19.1707  -16.4741 N   0  0  0  0  0  0  0  0  0  0  0  0
   23.2635  -21.0465  -13.0101 C   0  0  0  0  0  0  0  0  0  0  0  0
   23.1369  -22.1909  -12.5282 O   0  0  0  0  0  0  0  0  0  0  0  0
   22.2553  -20.0623  -12.8249 N   0  0  0  0  0  0  0  0  0  0  0  0
   21.0508  -20.2362  -12.0513 C   0  0  1  0  0  0  0  0  0  0  0  0
   20.6029  -18.9321  -11.4934 C   0  0  0  0  0  0  0  0  0  0  0  0
   19.2526  -19.0706  -10.3242 S   0  0  0  0  0  0  0  0  0  0  0  0
   19.9950  -20.9976  -12.7693 C   0  0  0  0  0  0  0  0  0  0  0  0
   19.1994  -21.9281  -12.1234 O   0  0  0  0  0  0  0  0  0  0  0  0
   19.8144  -20.7986  -13.9866 O   0  0  0  0  0  0  0  0  0  0  0  0
  2  1  1  6
  2  3  1  0
  3  4  1  0
  4  9  2  0
  5  6  2  0
  5  4  1  0
  6  7  1  0
  7  8  2  0
  9  8  1  0
 10 12  1  0
 10  2  1  0
 11 10  2  0
 13 12  1  0
 13 14  1  6
 14 15  1  0
 15 16  2  0
 16 17  1  0
 18 17  1  0
 19 15  1  0
 19 18  2  0
 20 13  1  0
 21 20  2  0
 22 20  1  0
 23 26  1  0
 23 22  1  0
 23 24  1  6
 25 24  1  0
 26 27  1  0
 28 26  2  0
M  END
$$$$
