FHC.pdb
     RDKit          3D

 28 29  0  0  1  0  0  0  0  0999 V2000
   23.1612  -13.1097  -17.5732 N   0  0  0  0  0  0  0  0  0  0  0  0
   23.4194  -12.3187  -16.3879 C   0  0  1  0  0  0  0  0  0  0  0  0
   24.8486  -11.8253  -16.3879 C   0  0  0  0  0  0  0  0  0  0  0  0
   25.7442  -12.9781  -16.2439 C   0  0  0  0  0  0  0  0  0  0  0  0
   25.8593  -13.5767  -14.9966 C   0  0  0  0  0  0  0  0  0  0  0  0
   26.6987  -14.6728  -14.8127 C   0  0  0  0  0  0  0  0  0  0  0  0
   27.4079  -15.1464  -15.8911 C   0  0  0  0  0  0  0  0  0  0  0  0
   27.2906  -14.5534  -17.1159 C   0  0  0  0  0  0  0  0  0  0  0  0
   26.4657  -13.4701  -17.3130 C   0  0  0  0  0  0  0  0  0  0  0  0
   22.5115  -11.1336  -16.3572 C   0  0  0  0  0  0  0  0  0  0  0  0
   22.1699  -10.5604  -17.4229 O   0  0  0  0  0  0  0  0  0  0  0  0
   22.0226  -10.6393  -15.1263 N   0  0  0  0  0  0  0  0  0  0  0  0
   21.1295   -9.4872  -15.0967 C   0  0  1  0  0  0  0  0  0  0  0  0
   19.9514   -9.7469  -14.1868 C   0  0  0  0  0  0  0  0  0  0  0  0
   18.9588  -10.6000  -14.8551 C   0  0  0  0  0  0  0  0  0  0  0  0
   19.0690  -11.0919  -16.1340 C   0  0  0  0  0  0  0  0  0  0  0  0
   17.9479  -11.8334  -16.3767 N   0  0  0  0  0  0  0  0  0  0  0  0
   17.1686  -11.8061  -15.2933 C   0  0  0  0  0  0  0  0  0  0  0  0
   17.8021  -11.0524  -14.3840 N   0  0  0  0  0  0  0  0  0  0  0  0
   21.8845   -8.2558  -14.7149 C   0  0  0  0  0  0  0  0  0  0  0  0
   22.6673   -8.2970  -13.7435 O   0  0  0  0  0  0  0  0  0  0  0  0
   21.7057   -7.0567  -15.4562 N   0  0  0  0  0  0  0  0  0  0  0  0
   22.3770   -5.8070  -15.1972 C   0  0  1  0  0  0  0  0  0  0  0  0
   23.0177   -5.2981  -16.4394 C   0  0  0  0  0  0  0  0  0  0  0  0
   23.8235   -3.7105  -16.2401 S   0  0  0  0  0  0  0  0  0  0  0  0
   21.5236   -4.8160  -14.4904 C   0  0  0  0  0  0  0  0  0  0  0  0
   20.2077   -4.5928  -14.8574 O   0  0  0  0  0  0  0  0  0  0  0  0
   21.9981   -4.1637  -13.5399 O   0  0  0  0  0  0  0  0  0  0  0  0
  2  1  1  6
  2  3  1  0
  3  4  1  0
  4  9  2  0
  5  6  2  0
  5  4  1  0
  6  7  1  0
  7  8  2  0
  9  8  1  0
 10 12  1  0
 10  2  1  0
 11 10  2  0
 13 12  1  0
 13 14  1  1
 14 15  1  0
 15 16  2  0
 16 17  1  0
 18 17  1  0
 19 15  1  0
 19 18  2  0
 20 13  1  0
 21 20  2  0
 22 20  1  0
 23 26  1  0
 23 22  1  0
 23 24  1  6
 25 24  1  0
 26 27  1  0
 28 26  2  0
M  END
$$$$
