FHC.pdb
     RDKit          3D

 28 29  0  0  1  0  0  0  0  0999 V2000
   20.3444  -10.3102  -15.8317 N   0  0  0  0  0  0  0  0  0  0  0  0
   21.2525   -9.6426  -14.9223 C   0  0  1  0  0  0  0  0  0  0  0  0
   22.5707   -9.3637  -15.6083 C   0  0  0  0  0  0  0  0  0  0  0  0
   23.2058  -10.6425  -15.9445 C   0  0  0  0  0  0  0  0  0  0  0  0
   23.8514  -11.3473  -14.9376 C   0  0  0  0  0  0  0  0  0  0  0  0
   24.4694  -12.5651  -15.2109 C   0  0  0  0  0  0  0  0  0  0  0  0
   24.4256  -13.0513  -16.4962 C   0  0  0  0  0  0  0  0  0  0  0  0
   23.7889  -12.3534  -17.4827 C   0  0  0  0  0  0  0  0  0  0  0  0
   23.1739  -11.1493  -17.2281 C   0  0  0  0  0  0  0  0  0  0  0  0
   20.6671   -8.3423  -14.4792 C   0  0  0  0  0  0  0  0  0  0  0  0
   19.8713   -7.7120  -15.2211 O   0  0  0  0  0  0  0  0  0  0  0  0
   21.0006   -7.8016  -13.2164 N   0  0  0  0  0  0  0  0  0  0  0  0
   20.4004   -6.5509  -12.7679 C   0  0  1  0  0  0  0  0  0  0  0  0
   20.1436   -6.5844  -11.2792 C   0  0  0  0  0  0  0  0  0  0  0  0
   18.9255   -7.3505  -10.9808 C   0  0  0  0  0  0  0  0  0  0  0  0
   18.1482   -7.9979  -11.9116 C   0  0  0  0  0  0  0  0  0  0  0  0
   17.1178   -8.5860  -11.2347 N   0  0  0  0  0  0  0  0  0  0  0  0
   17.2460   -8.3170   -9.9336 C   0  0  0  0  0  0  0  0  0  0  0  0
   18.3488   -7.5668   -9.8038 N   0  0  0  0  0  0  0  0  0  0  0  0
   21.2520   -5.3923  -13.1737 C   0  0  0  0  0  0  0  0  0  0  0  0
   22.4927   -5.4818  -13.0709 O   0  0  0  0  0  0  0  0  0  0  0  0
   20.6457   -4.2067  -13.6697 N   0  0  0  0  0  0  0  0  0  0  0  0
   21.3210   -3.1712  -14.4122 C   0  0  1  0  0  0  0  0  0  0  0  0
   22.0375   -3.7553  -15.5775 C   0  0  0  0  0  0  0  0  0  0  0  0
   22.9354   -2.5505  -16.5531 S   0  0  0  0  0  0  0  0  0  0  0  0
   20.4452   -2.0155  -14.7400 C   0  0  0  0  0  0  0  0  0  0  0  0
   19.1348   -2.1868  -15.1520 O   0  0  0  0  0  0  0  0  0  0  0  0
   20.8952   -0.8570  -14.6439 O   0  0  0  0  0  0  0  0  0  0  0  0
  2  1  1  6
  2  3  1  0
  3  4  1  0
  4  9  2  0
  5  6  2  0
  5  4  1  0
  6  7  1  0
  7  8  2  0
  9  8  1  0
 10 12  1  0
 10  2  1  0
 11 10  2  0
 13 12  1  0
 13 14  1  1
 14 15  1  0
 15 16  2  0
 16 17  1  0
 18 17  1  0
 19 15  1  0
 19 18  2  0
 20 13  1  0
 21 20  2  0
 22 20  1  0
 23 26  1  0
 23 22  1  0
 23 24  1  6
 25 24  1  0
 26 27  1  0
 28 26  2  0
M  END
$$$$
