FHC.pdb
     RDKit          3D

 28 29  0  0  1  0  0  0  0  0999 V2000
   24.0943  -31.4912  -19.3409 N   0  0  0  0  0  0  0  0  0  0  0  0
   24.2589  -31.0199  -17.9814 C   0  0  1  0  0  0  0  0  0  0  0  0
   22.9257  -30.5947  -17.4089 C   0  0  0  0  0  0  0  0  0  0  0  0
   22.4714  -29.3931  -18.1172 C   0  0  0  0  0  0  0  0  0  0  0  0
   23.2180  -28.2291  -17.9947 C   0  0  0  0  0  0  0  0  0  0  0  0
   22.8240  -27.0639  -18.6480 C   0  0  0  0  0  0  0  0  0  0  0  0
   21.6828  -27.0931  -19.4142 C   0  0  0  0  0  0  0  0  0  0  0  0
   20.9523  -28.2412  -19.5310 C   0  0  0  0  0  0  0  0  0  0  0  0
   21.3288  -29.3999  -18.8917 C   0  0  0  0  0  0  0  0  0  0  0  0
   24.8127  -32.1115  -17.1262 C   0  0  0  0  0  0  0  0  0  0  0  0
   24.6175  -33.3181  -17.4212 O   0  0  0  0  0  0  0  0  0  0  0  0
   25.5658  -31.8019  -15.9706 N   0  0  0  0  0  0  0  0  0  0  0  0
   26.1418  -32.8670  -15.1585 C   0  0  1  0  0  0  0  0  0  0  0  0
   27.4980  -32.4623  -14.6292 C   0  0  0  0  0  0  0  0  0  0  0  0
   28.5101  -32.5292  -15.6926 C   0  0  0  0  0  0  0  0  0  0  0  0
   28.2775  -32.9396  -16.9838 C   0  0  0  0  0  0  0  0  0  0  0  0
   29.4662  -32.8569  -17.6515 N   0  0  0  0  0  0  0  0  0  0  0  0
   30.4038  -32.4128  -16.8116 C   0  0  0  0  0  0  0  0  0  0  0  0
   29.8008  -32.2211  -15.6302 N   0  0  0  0  0  0  0  0  0  0  0  0
   25.1971  -33.2562  -14.0683 C   0  0  0  0  0  0  0  0  0  0  0  0
   24.6165  -32.3637  -13.4169 O   0  0  0  0  0  0  0  0  0  0  0  0
   24.9698  -34.6300  -13.7848 N   0  0  0  0  0  0  0  0  0  0  0  0
   24.0700  -35.1371  -12.7784 C   0  0  1  0  0  0  0  0  0  0  0  0
   23.2277  -36.2264  -13.3408 C   0  0  0  0  0  0  0  0  0  0  0  0
   23.7984  -37.8722  -12.9219 S   0  0  0  0  0  0  0  0  0  0  0  0
   24.7482  -35.4765  -11.4998 C   0  0  0  0  0  0  0  0  0  0  0  0
   26.0907  -35.8106  -11.4522 O   0  0  0  0  0  0  0  0  0  0  0  0
   24.0975  -35.4624  -10.4366 O   0  0  0  0  0  0  0  0  0  0  0  0
  2  1  1  6
  2  3  1  0
  3  4  1  0
  4  9  2  0
  5  6  2  0
  5  4  1  0
  6  7  1  0
  7  8  2  0
  9  8  1  0
 10 12  1  0
 10  2  1  0
 11 10  2  0
 13 12  1  0
 13 14  1  1
 14 15  1  0
 15 16  2  0
 16 17  1  0
 18 17  1  0
 19 15  1  0
 19 18  2  0
 20 13  1  0
 21 20  2  0
 22 20  1  0
 23 26  1  0
 23 22  1  0
 23 24  1  6
 25 24  1  0
 26 27  1  0
 28 26  2  0
M  END
$$$$
