FHC.pdb
     RDKit          3D

 28 29  0  0  1  0  0  0  0  0999 V2000
   23.7224  -16.3148  -18.7950 N   0  0  0  0  0  0  0  0  0  0  0  0
   24.1498  -17.2713  -17.7951 C   0  0  1  0  0  0  0  0  0  0  0  0
   24.7572  -16.5550  -16.6101 C   0  0  0  0  0  0  0  0  0  0  0  0
   26.0068  -15.9162  -17.0368 C   0  0  0  0  0  0  0  0  0  0  0  0
   26.0834  -14.5301  -17.0173 C   0  0  0  0  0  0  0  0  0  0  0  0
   27.2493  -13.8803  -17.4150 C   0  0  0  0  0  0  0  0  0  0  0  0
   28.3187  -14.6405  -17.8258 C   0  0  0  0  0  0  0  0  0  0  0  0
   28.2375  -16.0038  -17.8428 C   0  0  0  0  0  0  0  0  0  0  0  0
   27.0928  -16.6599  -17.4530 C   0  0  0  0  0  0  0  0  0  0  0  0
   22.9801  -18.0666  -17.3164 C   0  0  0  0  0  0  0  0  0  0  0  0
   21.8658  -17.5160  -17.1258 O   0  0  0  0  0  0  0  0  0  0  0  0
   23.1104  -19.4525  -17.0706 N   0  0  0  0  0  0  0  0  0  0  0  0
   21.9469  -20.2480  -16.6975 C   0  0  1  0  0  0  0  0  0  0  0  0
   22.0983  -21.6737  -17.1745 C   0  0  0  0  0  0  0  0  0  0  0  0
   22.1303  -21.7281  -18.6428 C   0  0  0  0  0  0  0  0  0  0  0  0
   23.2234  -22.0776  -19.3995 C   0  0  0  0  0  0  0  0  0  0  0  0
   22.8444  -22.0045  -20.7097 N   0  0  0  0  0  0  0  0  0  0  0  0
   21.5662  -21.6247  -20.7694 C   0  0  0  0  0  0  0  0  0  0  0  0
   21.1545  -21.4632  -19.5043 N   0  0  0  0  0  0  0  0  0  0  0  0
   21.7103  -20.1614  -15.2248 C   0  0  0  0  0  0  0  0  0  0  0  0
   22.5952  -19.6727  -14.4927 O   0  0  0  0  0  0  0  0  0  0  0  0
   20.4880  -20.6332  -14.6747 N   0  0  0  0  0  0  0  0  0  0  0  0
   19.9204  -20.2120  -13.4177 C   0  0  1  0  0  0  0  0  0  0  0  0
   19.9459  -18.7286  -13.3111 C   0  0  0  0  0  0  0  0  0  0  0  0
   19.7340  -18.1193  -11.6398 S   0  0  0  0  0  0  0  0  0  0  0  0
   18.5991  -20.8304  -13.1319 C   0  0  0  0  0  0  0  0  0  0  0  0
   18.3522  -21.5120  -11.9526 O   0  0  0  0  0  0  0  0  0  0  0  0
   17.6827  -20.7373  -13.9719 O   0  0  0  0  0  0  0  0  0  0  0  0
  2  1  1  6
  2  3  1  0
  3  4  1  0
  4  9  2  0
  5  6  2  0
  5  4  1  0
  6  7  1  0
  7  8  2  0
  9  8  1  0
 10 12  1  0
 10  2  1  0
 11 10  2  0
 13 12  1  0
 13 14  1  1
 14 15  1  0
 15 16  2  0
 16 17  1  0
 18 17  1  0
 19 15  1  0
 19 18  2  0
 20 13  1  0
 21 20  2  0
 22 20  1  0
 23 26  1  0
 23 22  1  0
 23 24  1  6
 25 24  1  0
 26 27  1  0
 28 26  2  0
M  END
$$$$
