FHC.pdb
     RDKit          3D

 28 29  0  0  1  0  0  0  0  0999 V2000
   27.5137  -11.9119  -17.6504 N   0  0  0  0  0  0  0  0  0  0  0  0
   27.2707  -10.5314  -17.2863 C   0  0  1  0  0  0  0  0  0  0  0  0
   27.6835   -9.6116  -18.4131 C   0  0  0  0  0  0  0  0  0  0  0  0
   29.1421   -9.6699  -18.5576 C   0  0  0  0  0  0  0  0  0  0  0  0
   29.6805  -10.5245  -19.5100 C   0  0  0  0  0  0  0  0  0  0  0  0
   31.0597  -10.6138  -19.6814 C   0  0  0  0  0  0  0  0  0  0  0  0
   31.8727   -9.8389  -18.8884 C   0  0  0  0  0  0  0  0  0  0  0  0
   31.3373   -8.9999  -17.9530 C   0  0  0  0  0  0  0  0  0  0  0  0
   29.9770   -8.9009  -17.7721 C   0  0  0  0  0  0  0  0  0  0  0  0
   25.8171  -10.3230  -17.0159 C   0  0  0  0  0  0  0  0  0  0  0  0
   24.9461  -10.9026  -17.7134 O   0  0  0  0  0  0  0  0  0  0  0  0
   25.3998   -9.4691  -15.9695 N   0  0  0  0  0  0  0  0  0  0  0  0
   23.9814   -9.2960  -15.6800 C   0  0  1  0  0  0  0  0  0  0  0  0
   23.6410   -9.8564  -14.3187 C   0  0  0  0  0  0  0  0  0  0  0  0
   23.7638  -11.3209  -14.3158 C   0  0  0  0  0  0  0  0  0  0  0  0
   24.8900  -12.0212  -13.9539 C   0  0  0  0  0  0  0  0  0  0  0  0
   24.5974  -13.3487  -14.0878 N   0  0  0  0  0  0  0  0  0  0  0  0
   23.3392  -13.4729  -14.5160 C   0  0  0  0  0  0  0  0  0  0  0  0
   22.8542  -12.2305  -14.6471 N   0  0  0  0  0  0  0  0  0  0  0  0
   23.5958   -7.8592  -15.8179 C   0  0  0  0  0  0  0  0  0  0  0  0
   24.4358   -6.9743  -15.5549 O   0  0  0  0  0  0  0  0  0  0  0  0
   22.2846   -7.5153  -16.2445 N   0  0  0  0  0  0  0  0  0  0  0  0
   21.8667   -6.2083  -16.6879 C   0  0  1  0  0  0  0  0  0  0  0  0
   22.7879   -5.7012  -17.7399 C   0  0  0  0  0  0  0  0  0  0  0  0
   22.5757   -3.9613  -18.1104 S   0  0  0  0  0  0  0  0  0  0  0  0
   20.4247   -6.1405  -17.0429 C   0  0  0  0  0  0  0  0  0  0  0  0
   19.6415   -5.0492  -16.7085 O   0  0  0  0  0  0  0  0  0  0  0  0
   19.8984   -7.0880  -17.6587 O   0  0  0  0  0  0  0  0  0  0  0  0
  2  1  1  6
  2  3  1  0
  3  4  1  0
  4  9  2  0
  5  6  2  0
  5  4  1  0
  6  7  1  0
  7  8  2  0
  9  8  1  0
 10 12  1  0
 10  2  1  0
 11 10  2  0
 13 12  1  0
 13 14  1  1
 14 15  1  0
 15 16  2  0
 16 17  1  0
 18 17  1  0
 19 15  1  0
 19 18  2  0
 20 13  1  0
 21 20  2  0
 22 20  1  0
 23 26  1  0
 23 22  1  0
 23 24  1  6
 25 24  1  0
 26 27  1  0
 28 26  2  0
M  END
$$$$
