FHC.pdb
     RDKit          3D

 28 29  0  0  1  0  0  0  0  0999 V2000
   23.0592   -2.6190  -15.6792 N   0  0  0  0  0  0  0  0  0  0  0  0
   23.8007   -3.7472  -16.2034 C   0  0  1  0  0  0  0  0  0  0  0  0
   25.2869   -3.5117  -16.0564 C   0  0  0  0  0  0  0  0  0  0  0  0
   25.7059   -2.5168  -17.0496 C   0  0  0  0  0  0  0  0  0  0  0  0
   26.2390   -2.9632  -18.2513 C   0  0  0  0  0  0  0  0  0  0  0  0
   26.6515   -2.0548  -19.2231 C   0  0  0  0  0  0  0  0  0  0  0  0
   26.5190   -0.7107  -18.9657 C   0  0  0  0  0  0  0  0  0  0  0  0
   25.9939   -0.2775  -17.7816 C   0  0  0  0  0  0  0  0  0  0  0  0
   25.5821   -1.1626  -16.8122 C   0  0  0  0  0  0  0  0  0  0  0  0
   23.4432   -4.9869  -15.4515 C   0  0  0  0  0  0  0  0  0  0  0  0
   22.9268   -4.9157  -14.3072 O   0  0  0  0  0  0  0  0  0  0  0  0
   23.6810   -6.2601  -16.0179 N   0  0  0  0  0  0  0  0  0  0  0  0
   23.0141   -7.4412  -15.4834 C   0  0  1  0  0  0  0  0  0  0  0  0
   21.5145   -7.2559  -15.4859 C   0  0  0  0  0  0  0  0  0  0  0  0
   20.8423   -8.4645  -14.9887 C   0  0  0  0  0  0  0  0  0  0  0  0
   20.0137   -9.2727  -15.7303 C   0  0  0  0  0  0  0  0  0  0  0  0
   19.5964  -10.2811  -14.9089 N   0  0  0  0  0  0  0  0  0  0  0  0
   20.1420  -10.1100  -13.7028 C   0  0  0  0  0  0  0  0  0  0  0  0
   20.8932   -9.0025  -13.7752 N   0  0  0  0  0  0  0  0  0  0  0  0
   23.4392   -8.6610  -16.2342 C   0  0  0  0  0  0  0  0  0  0  0  0
   23.2572   -8.7119  -17.4680 O   0  0  0  0  0  0  0  0  0  0  0  0
   24.0429   -9.7449  -15.5414 N   0  0  0  0  0  0  0  0  0  0  0  0
   24.5008  -10.9712  -16.1465 C   0  0  1  0  0  0  0  0  0  0  0  0
   25.6139  -11.5550  -15.3510 C   0  0  0  0  0  0  0  0  0  0  0  0
   26.9821  -10.4293  -15.0861 S   0  0  0  0  0  0  0  0  0  0  0  0
   23.3999  -11.9199  -16.4594 C   0  0  0  0  0  0  0  0  0  0  0  0
   23.5288  -12.8900  -17.4385 O   0  0  0  0  0  0  0  0  0  0  0  0
   22.3277  -11.8469  -15.8276 O   0  0  0  0  0  0  0  0  0  0  0  0
  2  1  1  1
  2  3  1  0
  3  4  1  0
  4  9  2  0
  5  6  2  0
  5  4  1  0
  6  7  1  0
  7  8  2  0
  9  8  1  0
 10 12  1  0
 10  2  1  0
 11 10  2  0
 13 12  1  0
 13 14  1  6
 14 15  1  0
 15 16  2  0
 16 17  1  0
 18 17  1  0
 19 15  1  0
 19 18  2  0
 20 13  1  0
 21 20  2  0
 22 20  1  0
 23 26  1  0
 23 22  1  0
 23 24  1  1
 25 24  1  0
 26 27  1  0
 28 26  2  0
M  END
$$$$
