TFW.pdb
     RDKit          3D

 33 35  0  0  1  0  0  0  0  0999 V2000
   13.4247   -5.7116   -7.2817 C   0  0  0  0  0  0  0  0  0  0  0  0
   14.3711   -5.3076   -8.3904 C   0  0  1  0  0  0  0  0  0  0  0  0
   15.3958   -4.5080   -7.8469 O   0  0  0  0  0  0  0  0  0  0  0  0
   14.9553   -6.5644   -8.9754 C   0  0  2  0  0  0  0  0  0  0  0  0
   15.6753   -7.2662   -7.9334 N   0  0  0  0  0  0  0  0  0  0  0  0
   15.8221   -6.3102  -10.1334 C   0  0  0  0  0  0  0  0  0  0  0  0
   15.3979   -5.7552  -11.1855 O   0  0  0  0  0  0  0  0  0  0  0  0
   17.1835   -6.7038  -10.0632 N   0  0  0  0  0  0  0  0  0  0  0  0
   18.0936   -6.5006  -11.1674 C   0  0  1  0  0  0  0  0  0  0  0  0
   19.4905   -6.7284  -10.6096 C   0  0  0  0  0  0  0  0  0  0  0  0
   20.4998   -6.7512  -11.6804 C   0  0  0  0  0  0  0  0  0  0  0  0
   20.8602   -5.5710  -12.3204 C   0  0  0  0  0  0  0  0  0  0  0  0
   21.7977   -5.5324  -13.3267 C   0  0  0  0  0  0  0  0  0  0  0  0
   22.4229   -6.6911  -13.7406 C   0  0  0  0  0  0  0  0  0  0  0  0
   22.0782   -7.8665  -13.1186 C   0  0  0  0  0  0  0  0  0  0  0  0
   21.1320   -7.8927  -12.1057 C   0  0  0  0  0  0  0  0  0  0  0  0
   17.7442   -7.4450  -12.2469 C   0  0  0  0  0  0  0  0  0  0  0  0
   17.6683   -8.6695  -11.9895 O   0  0  0  0  0  0  0  0  0  0  0  0
   17.4792   -7.0306  -13.5991 N   0  0  0  0  0  0  0  0  0  0  0  0
   17.1486   -8.0220  -14.5956 C   0  0  1  0  0  0  0  0  0  0  0  0
   15.8208   -7.6903  -15.2710 C   0  0  0  0  0  0  0  0  0  0  0  0
   16.0584   -6.8718  -16.4701 C   0  0  0  0  0  0  0  0  0  0  0  0
   16.7393   -7.2038  -17.6356 C   0  0  0  0  0  0  0  0  0  0  0  0
   16.6987   -6.1468  -18.4340 N   0  0  0  0  0  0  0  0  0  0  0  0
   16.0367   -5.1437  -17.8701 C   0  0  0  0  0  0  0  0  0  0  0  0
   15.7213   -3.8512  -18.2825 C   0  0  0  0  0  0  0  0  0  0  0  0
   15.0063   -3.0356  -17.4493 C   0  0  0  0  0  0  0  0  0  0  0  0
   14.5837   -3.4449  -16.2112 C   0  0  0  0  0  0  0  0  0  0  0  0
   14.8878   -4.7215  -15.7878 C   0  0  0  0  0  0  0  0  0  0  0  0
   15.6154   -5.5633  -16.6259 C   0  0  0  0  0  0  0  0  0  0  0  0
   18.1825   -7.9876  -15.6523 C   0  0  0  0  0  0  0  0  0  0  0  0
   19.1139   -6.9643  -15.7311 O   0  0  0  0  0  0  0  0  0  0  0  0
   18.2606   -8.8987  -16.5370 O   0  0  0  0  0  0  0  0  0  0  0  0
  2  1  1  1
  2  3  1  0
  4  2  1  0
  4  5  1  1
  6  4  1  0
  6  7  2  0
  8  6  1  0
  9  8  1  0
  9 10  1  1
 10 11  1  0
 11 12  2  0
 12 13  1  0
 14 13  2  0
 15 14  1  0
 16 11  1  0
 16 15  2  0
 17  9  1  0
 18 17  2  0
 19 17  1  0
 20 21  1  6
 20 19  1  0
 21 22  1  0
 22 30  1  0
 23 22  2  0
 23 24  1  0
 24 25  1  0
 25 26  1  0
 26 27  2  0
 28 27  1  0
 29 28  2  0
 30 25  2  0
 30 29  1  0
 31 32  1  0
 31 20  1  0
 33 31  2  0
M  END
$$$$
