TFW.pdb
     RDKit          3D

 33 35  0  0  1  0  0  0  0  0999 V2000
   29.1400  -20.1844  -18.7216 C   0  0  0  0  0  0  0  0  0  0  0  0
   28.0515  -20.3656  -17.6871 C   0  0  1  0  0  0  0  0  0  0  0  0
   26.8195  -20.5426  -18.3473 O   0  0  0  0  0  0  0  0  0  0  0  0
   28.3837  -21.5918  -16.8815 C   0  0  2  0  0  0  0  0  0  0  0  0
   28.3828  -22.7383  -17.7659 N   0  0  0  0  0  0  0  0  0  0  0  0
   27.4713  -21.8004  -15.7498 C   0  0  0  0  0  0  0  0  0  0  0  0
   26.4964  -22.6012  -15.8071 O   0  0  0  0  0  0  0  0  0  0  0  0
   27.6966  -21.0742  -14.5518 N   0  0  0  0  0  0  0  0  0  0  0  0
   26.8061  -21.1788  -13.4182 C   0  0  1  0  0  0  0  0  0  0  0  0
   27.5640  -20.6012  -12.2323 C   0  0  0  0  0  0  0  0  0  0  0  0
   26.7143  -20.5333  -11.0327 C   0  0  0  0  0  0  0  0  0  0  0  0
   26.3335  -19.2984  -10.5202 C   0  0  0  0  0  0  0  0  0  0  0  0
   25.5401  -19.1748   -9.4029 C   0  0  0  0  0  0  0  0  0  0  0  0
   25.0880  -20.2989   -8.7421 C   0  0  0  0  0  0  0  0  0  0  0  0
   25.4552  -21.5274   -9.2354 C   0  0  0  0  0  0  0  0  0  0  0  0
   26.2551  -21.6392  -10.3621 C   0  0  0  0  0  0  0  0  0  0  0  0
   25.5652  -20.4396  -13.7230 C   0  0  0  0  0  0  0  0  0  0  0  0
   25.6420  -19.2745  -14.1794 O   0  0  0  0  0  0  0  0  0  0  0  0
   24.2516  -20.9923  -13.5245 N   0  0  0  0  0  0  0  0  0  0  0  0
   23.0890  -20.1831  -13.8052 C   0  0  1  0  0  0  0  0  0  0  0  0
   22.7100  -20.2717  -15.2809 C   0  0  0  0  0  0  0  0  0  0  0  0
   21.5244  -19.4418  -15.5452 C   0  0  0  0  0  0  0  0  0  0  0  0
   20.8460  -18.5858  -14.6855 C   0  0  0  0  0  0  0  0  0  0  0  0
   19.8379  -18.0577  -15.3648 N   0  0  0  0  0  0  0  0  0  0  0  0
   19.8100  -18.5101  -16.6125 C   0  0  0  0  0  0  0  0  0  0  0  0
   18.9734  -18.2713  -17.7004 C   0  0  0  0  0  0  0  0  0  0  0  0
   19.2140  -18.9095  -18.8859 C   0  0  0  0  0  0  0  0  0  0  0  0
   20.2570  -19.7843  -19.0469 C   0  0  0  0  0  0  0  0  0  0  0  0
   21.0944  -20.0317  -17.9796 C   0  0  0  0  0  0  0  0  0  0  0  0
   20.8616  -19.3888  -16.7661 C   0  0  0  0  0  0  0  0  0  0  0  0
   21.9452  -20.7244  -13.0400 C   0  0  0  0  0  0  0  0  0  0  0  0
   20.9329  -19.9072  -12.5621 O   0  0  0  0  0  0  0  0  0  0  0  0
   21.8419  -21.9670  -12.7868 O   0  0  0  0  0  0  0  0  0  0  0  0
  2  1  1  6
  2  3  1  0
  4  2  1  0
  4  5  1  6
  6  4  1  0
  6  7  2  0
  8  6  1  0
  9  8  1  0
  9 10  1  1
 10 11  1  0
 11 12  2  0
 12 13  1  0
 14 13  2  0
 15 14  1  0
 16 11  1  0
 16 15  2  0
 17  9  1  0
 18 17  2  0
 19 17  1  0
 20 21  1  6
 20 19  1  0
 21 22  1  0
 22 30  1  0
 23 22  2  0
 23 24  1  0
 24 25  1  0
 25 26  1  0
 26 27  2  0
 28 27  1  0
 29 28  2  0
 30 25  2  0
 30 29  1  0
 31 32  1  0
 31 20  1  0
 33 31  2  0
M  END
$$$$
