TFW.pdb
     RDKit          3D

 33 35  0  0  1  0  0  0  0  0999 V2000
   29.4495  -19.8898  -14.0915 C   0  0  0  0  0  0  0  0  0  0  0  0
   28.8021  -20.2122  -12.7630 C   0  0  1  0  0  0  0  0  0  0  0  0
   27.5804  -20.8730  -12.9994 O   0  0  0  0  0  0  0  0  0  0  0  0
   29.7363  -21.1149  -12.0046 C   0  0  2  0  0  0  0  0  0  0  0  0
   29.9159  -22.3348  -12.7637 N   0  0  0  0  0  0  0  0  0  0  0  0
   29.2728  -21.4073  -10.6420 C   0  0  0  0  0  0  0  0  0  0  0  0
   28.7034  -22.4937  -10.3411 O   0  0  0  0  0  0  0  0  0  0  0  0
   29.4736  -20.4318   -9.6314 N   0  0  0  0  0  0  0  0  0  0  0  0
   28.8972  -20.5703   -8.3133 C   0  0  1  0  0  0  0  0  0  0  0  0
   29.7998  -19.7843   -7.3740 C   0  0  0  0  0  0  0  0  0  0  0  0
   29.1712  -19.5963   -6.0567 C   0  0  0  0  0  0  0  0  0  0  0  0
   29.1765  -20.6328   -5.1303 C   0  0  0  0  0  0  0  0  0  0  0  0
   28.6052  -20.5132   -3.8843 C   0  0  0  0  0  0  0  0  0  0  0  0
   27.9958  -19.3335   -3.5080 C   0  0  0  0  0  0  0  0  0  0  0  0
   27.9817  -18.2990   -4.4118 C   0  0  0  0  0  0  0  0  0  0  0  0
   28.5606  -18.4314   -5.6645 C   0  0  0  0  0  0  0  0  0  0  0  0
   27.5141  -20.0554   -8.3465 C   0  0  0  0  0  0  0  0  0  0  0  0
   27.3209  -18.8260   -8.4976 O   0  0  0  0  0  0  0  0  0  0  0  0
   26.3569  -20.9006   -8.2157 N   0  0  0  0  0  0  0  0  0  0  0  0
   25.1194  -20.5169   -8.8532 C   0  0  1  0  0  0  0  0  0  0  0  0
   25.2401  -20.6095  -10.3718 C   0  0  0  0  0  0  0  0  0  0  0  0
   23.9578  -20.2549  -10.9996 C   0  0  0  0  0  0  0  0  0  0  0  0
   22.6780  -20.2933  -10.4584 C   0  0  0  0  0  0  0  0  0  0  0  0
   21.8367  -19.8883  -11.3989 N   0  0  0  0  0  0  0  0  0  0  0  0
   22.4792  -19.5867  -12.5208 C   0  0  0  0  0  0  0  0  0  0  0  0
   22.0651  -19.1268  -13.7687 C   0  0  0  0  0  0  0  0  0  0  0  0
   22.9960  -18.9052  -14.7460 C   0  0  0  0  0  0  0  0  0  0  0  0
   24.3345  -19.1203  -14.5431 C   0  0  0  0  0  0  0  0  0  0  0  0
   24.7608  -19.5756  -13.3132 C   0  0  0  0  0  0  0  0  0  0  0  0
   23.8240  -19.8057  -12.3084 C   0  0  0  0  0  0  0  0  0  0  0  0
   24.0680  -21.4762   -8.4518 C   0  0  0  0  0  0  0  0  0  0  0  0
   24.3368  -22.5479   -7.6151 O   0  0  0  0  0  0  0  0  0  0  0  0
   22.8685  -21.3582   -8.8592 O   0  0  0  0  0  0  0  0  0  0  0  0
  2  1  1  6
  2  3  1  0
  4  2  1  0
  4  5  1  6
  6  4  1  0
  6  7  2  0
  8  6  1  0
  9  8  1  0
  9 10  1  1
 10 11  1  0
 11 12  2  0
 12 13  1  0
 14 13  2  0
 15 14  1  0
 16 11  1  0
 16 15  2  0
 17  9  1  0
 18 17  2  0
 19 17  1  0
 20 21  1  6
 20 19  1  0
 21 22  1  0
 22 30  1  0
 23 22  2  0
 23 24  1  0
 24 25  1  0
 25 26  1  0
 26 27  2  0
 28 27  1  0
 29 28  2  0
 30 25  2  0
 30 29  1  0
 31 32  1  0
 31 20  1  0
 33 31  2  0
M  END
$$$$
