TFW.pdb
     RDKit          3D

 33 35  0  0  1  0  0  0  0  0999 V2000
   20.2898  -22.9944   -9.3705 C   0  0  0  0  0  0  0  0  0  0  0  0
   21.1650  -22.1807  -10.2978 C   0  0  1  0  0  0  0  0  0  0  0  0
   20.3430  -21.3812  -11.1164 O   0  0  0  0  0  0  0  0  0  0  0  0
   22.0476  -21.3083   -9.4475 C   0  0  2  0  0  0  0  0  0  0  0  0
   21.2130  -20.3623   -8.7367 N   0  0  0  0  0  0  0  0  0  0  0  0
   23.0865  -20.6153  -10.2204 C   0  0  0  0  0  0  0  0  0  0  0  0
   22.9003  -19.4759  -10.7323 O   0  0  0  0  0  0  0  0  0  0  0  0
   24.3423  -21.2523  -10.3956 N   0  0  0  0  0  0  0  0  0  0  0  0
   25.3849  -20.6704  -11.2099 C   0  0  1  0  0  0  0  0  0  0  0  0
   26.6987  -21.0283  -10.5314 C   0  0  0  0  0  0  0  0  0  0  0  0
   26.7818  -20.4489   -9.1812 C   0  0  0  0  0  0  0  0  0  0  0  0
   26.7433  -19.0694   -9.0138 C   0  0  0  0  0  0  0  0  0  0  0  0
   26.8161  -18.4728   -7.7761 C   0  0  0  0  0  0  0  0  0  0  0  0
   26.9323  -19.2438   -6.6373 C   0  0  0  0  0  0  0  0  0  0  0  0
   26.9719  -20.6091   -6.7850 C   0  0  0  0  0  0  0  0  0  0  0  0
   26.8977  -21.1986   -8.0375 C   0  0  0  0  0  0  0  0  0  0  0  0
   25.2762  -21.2165  -12.5771 C   0  0  0  0  0  0  0  0  0  0  0  0
   24.9831  -22.4253  -12.7329 O   0  0  0  0  0  0  0  0  0  0  0  0
   25.4889  -20.4246  -13.7595 N   0  0  0  0  0  0  0  0  0  0  0  0
   24.9538  -20.8742  -15.0231 C   0  0  1  0  0  0  0  0  0  0  0  0
   23.4305  -20.9505  -14.9707 C   0  0  0  0  0  0  0  0  0  0  0  0
   22.8521  -19.6241  -15.2360 C   0  0  0  0  0  0  0  0  0  0  0  0
   23.3205  -18.3726  -14.8533 C   0  0  0  0  0  0  0  0  0  0  0  0
   22.4667  -17.4705  -15.3156 N   0  0  0  0  0  0  0  0  0  0  0  0
   21.4696  -18.0469  -15.9760 C   0  0  0  0  0  0  0  0  0  0  0  0
   20.3458  -17.5549  -16.6358 C   0  0  0  0  0  0  0  0  0  0  0  0
   19.4822  -18.4296  -17.2357 C   0  0  0  0  0  0  0  0  0  0  0  0
   19.6815  -19.7856  -17.2125 C   0  0  0  0  0  0  0  0  0  0  0  0
   20.7892  -20.2887  -16.5634 C   0  0  0  0  0  0  0  0  0  0  0  0
   21.6775  -19.4098  -15.9480 C   0  0  0  0  0  0  0  0  0  0  0  0
   25.2933  -19.8744  -16.0584 C   0  0  0  0  0  0  0  0  0  0  0  0
   25.9122  -18.6753  -15.7421 O   0  0  0  0  0  0  0  0  0  0  0  0
   25.0302  -20.0730  -17.2874 O   0  0  0  0  0  0  0  0  0  0  0  0
  2  1  1  1
  2  3  1  0
  4  2  1  0
  4  5  1  6
  6  4  1  0
  6  7  2  0
  8  6  1  0
  9  8  1  0
  9 10  1  1
 10 11  1  0
 11 12  2  0
 12 13  1  0
 14 13  2  0
 15 14  1  0
 16 11  1  0
 16 15  2  0
 17  9  1  0
 18 17  2  0
 19 17  1  0
 20 21  1  1
 20 19  1  0
 21 22  1  0
 22 30  1  0
 23 22  2  0
 23 24  1  0
 24 25  1  0
 25 26  1  0
 26 27  2  0
 28 27  1  0
 29 28  2  0
 30 25  2  0
 30 29  1  0
 31 32  1  0
 31 20  1  0
 33 31  2  0
M  END
$$$$
