TFW.pdb
     RDKit          3D

 33 35  0  0  1  0  0  0  0  0999 V2000
   10.0943  -18.2951  -12.8124 C   0  0  0  0  0  0  0  0  0  0  0  0
   10.0908  -19.2444  -11.6348 C   0  0  1  0  0  0  0  0  0  0  0  0
    8.8067  -19.8103  -11.5088 O   0  0  0  0  0  0  0  0  0  0  0  0
   11.1026  -20.3226  -11.9119 C   0  0  2  0  0  0  0  0  0  0  0  0
   10.7380  -20.9912  -13.1435 N   0  0  0  0  0  0  0  0  0  0  0  0
   11.2329  -21.2851  -10.8102 C   0  0  0  0  0  0  0  0  0  0  0  0
   10.3884  -22.2030  -10.6120 O   0  0  0  0  0  0  0  0  0  0  0  0
   12.3485  -21.1758   -9.9402 N   0  0  0  0  0  0  0  0  0  0  0  0
   12.5538  -22.0962   -8.8450 C   0  0  1  0  0  0  0  0  0  0  0  0
   13.5108  -23.1598   -9.3622 C   0  0  0  0  0  0  0  0  0  0  0  0
   14.6920  -22.5560   -9.9994 C   0  0  0  0  0  0  0  0  0  0  0  0
   15.6139  -21.8550   -9.2305 C   0  0  0  0  0  0  0  0  0  0  0  0
   16.7359  -21.2710   -9.7720 C   0  0  0  0  0  0  0  0  0  0  0  0
   16.9856  -21.3657  -11.1261 C   0  0  0  0  0  0  0  0  0  0  0  0
   16.0843  -22.0551  -11.9006 C   0  0  0  0  0  0  0  0  0  0  0  0
   14.9572  -22.6393  -11.3434 C   0  0  0  0  0  0  0  0  0  0  0  0
   13.0946  -21.3468   -7.6938 C   0  0  0  0  0  0  0  0  0  0  0  0
   13.8162  -20.3427   -7.9001 O   0  0  0  0  0  0  0  0  0  0  0  0
   12.8328  -21.7096   -6.3262 N   0  0  0  0  0  0  0  0  0  0  0  0
   13.3375  -20.8771   -5.2598 C   0  0  1  0  0  0  0  0  0  0  0  0
   12.6990  -19.4916   -5.3048 C   0  0  0  0  0  0  0  0  0  0  0  0
   11.2772  -19.5821   -4.9378 C   0  0  0  0  0  0  0  0  0  0  0  0
   10.7077  -19.9803   -3.7340 C   0  0  0  0  0  0  0  0  0  0  0  0
    9.3918  -19.9052   -3.8731 N   0  0  0  0  0  0  0  0  0  0  0  0
    9.0604  -19.4842   -5.0877 C   0  0  0  0  0  0  0  0  0  0  0  0
    7.8427  -19.2433   -5.7197 C   0  0  0  0  0  0  0  0  0  0  0  0
    7.8332  -18.8019   -7.0142 C   0  0  0  0  0  0  0  0  0  0  0  0
    8.9873  -18.5853   -7.7213 C   0  0  0  0  0  0  0  0  0  0  0  0
   10.2011  -18.8192   -7.1102 C   0  0  0  0  0  0  0  0  0  0  0  0
   10.2261  -19.2688   -5.7920 C   0  0  0  0  0  0  0  0  0  0  0  0
   12.9478  -21.4822   -3.9680 C   0  0  0  0  0  0  0  0  0  0  0  0
   12.1815  -22.6353   -3.9021 O   0  0  0  0  0  0  0  0  0  0  0  0
   13.3001  -20.9680   -2.8588 O   0  0  0  0  0  0  0  0  0  0  0  0
  2  1  1  6
  2  3  1  0
  4  2  1  0
  4  5  1  6
  6  4  1  0
  6  7  2  0
  8  6  1  0
  9  8  1  0
  9 10  1  6
 10 11  1  0
 11 12  2  0
 12 13  1  0
 14 13  2  0
 15 14  1  0
 16 11  1  0
 16 15  2  0
 17  9  1  0
 18 17  2  0
 19 17  1  0
 20 21  1  6
 20 19  1  0
 21 22  1  0
 22 30  1  0
 23 22  2  0
 23 24  1  0
 24 25  1  0
 25 26  1  0
 26 27  2  0
 28 27  1  0
 29 28  2  0
 30 25  2  0
 30 29  1  0
 31 32  1  0
 31 20  1  0
 33 31  2  0
M  END
$$$$
