TFW.pdb
     RDKit          3D

 33 35  0  0  1  0  0  0  0  0999 V2000
   26.4327  -20.3807  -18.0976 C   0  0  0  0  0  0  0  0  0  0  0  0
   27.0777  -21.7148  -18.4013 C   0  0  1  0  0  0  0  0  0  0  0  0
   27.9214  -21.5694  -19.5202 O   0  0  0  0  0  0  0  0  0  0  0  0
   27.8850  -22.1185  -17.1978 C   0  0  2  0  0  0  0  0  0  0  0  0
   28.5246  -23.3873  -17.4766 N   0  0  0  0  0  0  0  0  0  0  0  0
   27.0856  -22.1920  -15.9680 C   0  0  0  0  0  0  0  0  0  0  0  0
   26.2185  -23.0906  -15.7790 O   0  0  0  0  0  0  0  0  0  0  0  0
   27.2982  -21.2168  -14.9595 N   0  0  0  0  0  0  0  0  0  0  0  0
   26.5229  -21.2004  -13.7398 C   0  0  1  0  0  0  0  0  0  0  0  0
   27.4022  -20.5367  -12.6906 C   0  0  0  0  0  0  0  0  0  0  0  0
   26.6727  -20.3328  -11.4288 C   0  0  0  0  0  0  0  0  0  0  0  0
   26.5115  -21.3904  -10.5410 C   0  0  0  0  0  0  0  0  0  0  0  0
   25.8401  -21.2575   -9.3474 C   0  0  0  0  0  0  0  0  0  0  0  0
   25.2937  -20.0424   -8.9874 C   0  0  0  0  0  0  0  0  0  0  0  0
   25.4439  -18.9866   -9.8536 C   0  0  0  0  0  0  0  0  0  0  0  0
   26.1226  -19.1328  -11.0536 C   0  0  0  0  0  0  0  0  0  0  0  0
   25.2681  -20.4636  -13.9882 C   0  0  0  0  0  0  0  0  0  0  0  0
   25.3108  -19.3657  -14.5919 O   0  0  0  0  0  0  0  0  0  0  0  0
   23.9777  -20.9449  -13.5712 N   0  0  0  0  0  0  0  0  0  0  0  0
   22.7998  -20.1583  -13.8518 C   0  0  1  0  0  0  0  0  0  0  0  0
   22.6095  -19.9843  -15.3560 C   0  0  0  0  0  0  0  0  0  0  0  0
   21.4265  -19.1502  -15.6190 C   0  0  0  0  0  0  0  0  0  0  0  0
   21.0498  -17.9527  -15.0224 C   0  0  0  0  0  0  0  0  0  0  0  0
   19.9087  -17.5731  -15.5795 N   0  0  0  0  0  0  0  0  0  0  0  0
   19.5120  -18.4417  -16.5016 C   0  0  0  0  0  0  0  0  0  0  0  0
   18.4093  -18.5019  -17.3506 C   0  0  0  0  0  0  0  0  0  0  0  0
   18.2812  -19.5565  -18.2120 C   0  0  0  0  0  0  0  0  0  0  0  0
   19.2052  -20.5672  -18.2729 C   0  0  0  0  0  0  0  0  0  0  0  0
   20.3025  -20.5226  -17.4391 C   0  0  0  0  0  0  0  0  0  0  0  0
   20.4462  -19.4545  -16.5566 C   0  0  0  0  0  0  0  0  0  0  0  0
   21.6161  -20.8934  -13.3566 C   0  0  0  0  0  0  0  0  0  0  0  0
   20.5209  -20.2374  -12.8170 O   0  0  0  0  0  0  0  0  0  0  0  0
   21.5530  -22.1633  -13.4046 O   0  0  0  0  0  0  0  0  0  0  0  0
  2  1  1  1
  2  3  1  0
  4  2  1  0
  4  5  1  6
  6  4  1  0
  6  7  2  0
  8  6  1  0
  9  8  1  0
  9 10  1  1
 10 11  1  0
 11 12  2  0
 12 13  1  0
 14 13  2  0
 15 14  1  0
 16 11  1  0
 16 15  2  0
 17  9  1  0
 18 17  2  0
 19 17  1  0
 20 21  1  6
 20 19  1  0
 21 22  1  0
 22 30  1  0
 23 22  2  0
 23 24  1  0
 24 25  1  0
 25 26  1  0
 26 27  2  0
 28 27  1  0
 29 28  2  0
 30 25  2  0
 30 29  1  0
 31 32  1  0
 31 20  1  0
 33 31  2  0
M  END
$$$$
