TFW.pdb
     RDKit          3D

 33 35  0  0  1  0  0  0  0  0999 V2000
   34.7674  -31.5516  -19.8879 C   0  0  0  0  0  0  0  0  0  0  0  0
   33.3096  -31.1689  -20.0161 C   0  0  1  0  0  0  0  0  0  0  0  0
   32.9008  -31.3694  -21.3494 O   0  0  0  0  0  0  0  0  0  0  0  0
   32.5191  -32.0594  -19.0968 C   0  0  2  0  0  0  0  0  0  0  0  0
   32.7004  -33.4330  -19.5173 N   0  0  0  0  0  0  0  0  0  0  0  0
   31.0937  -31.7098  -19.0437 C   0  0  0  0  0  0  0  0  0  0  0  0
   30.2226  -32.3223  -19.7228 O   0  0  0  0  0  0  0  0  0  0  0  0
   30.6854  -30.6457  -18.1986 N   0  0  0  0  0  0  0  0  0  0  0  0
   29.3002  -30.2485  -18.0884 C   0  0  1  0  0  0  0  0  0  0  0  0
   29.0600  -29.9616  -16.6138 C   0  0  0  0  0  0  0  0  0  0  0  0
   27.7092  -29.4252  -16.3835 C   0  0  0  0  0  0  0  0  0  0  0  0
   26.6345  -30.2930  -16.2275 C   0  0  0  0  0  0  0  0  0  0  0  0
   25.3509  -29.8481  -16.0092 C   0  0  0  0  0  0  0  0  0  0  0  0
   25.0856  -28.4957  -15.9369 C   0  0  0  0  0  0  0  0  0  0  0  0
   26.1365  -27.6241  -16.0891 C   0  0  0  0  0  0  0  0  0  0  0  0
   27.4256  -28.0844  -16.3087 C   0  0  0  0  0  0  0  0  0  0  0  0
   29.0777  -29.0688  -18.9475 C   0  0  0  0  0  0  0  0  0  0  0  0
   29.7678  -28.0383  -18.7646 O   0  0  0  0  0  0  0  0  0  0  0  0
   28.0988  -29.0368  -20.0016 N   0  0  0  0  0  0  0  0  0  0  0  0
   27.9956  -27.8672  -20.8421 C   0  0  1  0  0  0  0  0  0  0  0  0
   27.5790  -28.2525  -22.2588 C   0  0  0  0  0  0  0  0  0  0  0  0
   26.4401  -29.1824  -22.2116 C   0  0  0  0  0  0  0  0  0  0  0  0
   25.2651  -29.0906  -21.4746 C   0  0  0  0  0  0  0  0  0  0  0  0
   24.5377  -30.1633  -21.7516 N   0  0  0  0  0  0  0  0  0  0  0  0
   25.1571  -30.9525  -22.6211 C   0  0  0  0  0  0  0  0  0  0  0  0
   24.8264  -32.1666  -23.2184 C   0  0  0  0  0  0  0  0  0  0  0  0
   25.7014  -32.7434  -24.0973 C   0  0  0  0  0  0  0  0  0  0  0  0
   26.9036  -32.1673  -24.4165 C   0  0  0  0  0  0  0  0  0  0  0  0
   27.2460  -30.9654  -23.8337 C   0  0  0  0  0  0  0  0  0  0  0  0
   26.3647  -30.3662  -22.9367 C   0  0  0  0  0  0  0  0  0  0  0  0
   26.9259  -26.9979  -20.3067 C   0  0  0  0  0  0  0  0  0  0  0  0
   26.8094  -25.6679  -20.6790 O   0  0  0  0  0  0  0  0  0  0  0  0
   26.0645  -27.4353  -19.4787 O   0  0  0  0  0  0  0  0  0  0  0  0
  2  1  1  6
  2  3  1  0
  4  2  1  0
  4  5  1  6
  6  4  1  0
  6  7  2  0
  8  6  1  0
  9  8  1  0
  9 10  1  1
 10 11  1  0
 11 12  2  0
 12 13  1  0
 14 13  2  0
 15 14  1  0
 16 11  1  0
 16 15  2  0
 17  9  1  0
 18 17  2  0
 19 17  1  0
 20 21  1  6
 20 19  1  0
 21 22  1  0
 22 30  1  0
 23 22  2  0
 23 24  1  0
 24 25  1  0
 25 26  1  0
 26 27  2  0
 28 27  1  0
 29 28  2  0
 30 25  2  0
 30 29  1  0
 31 32  1  0
 31 20  1  0
 33 31  2  0
M  END
$$$$
