TFW.pdb
     RDKit          3D

 33 35  0  0  1  0  0  0  0  0999 V2000
   28.5106  -17.9788  -14.3654 C   0  0  0  0  0  0  0  0  0  0  0  0
   27.3936  -18.7858  -13.7418 C   0  0  1  0  0  0  0  0  0  0  0  0
   26.6396  -19.3899  -14.7673 O   0  0  0  0  0  0  0  0  0  0  0  0
   28.0205  -19.8427  -12.8740 C   0  0  2  0  0  0  0  0  0  0  0  0
   28.8520  -20.6878  -13.7052 N   0  0  0  0  0  0  0  0  0  0  0  0
   27.0327  -20.6403  -12.1357 C   0  0  0  0  0  0  0  0  0  0  0  0
   26.7415  -21.8250  -12.4622 O   0  0  0  0  0  0  0  0  0  0  0  0
   26.3851  -20.0550  -11.0171 N   0  0  0  0  0  0  0  0  0  0  0  0
   25.3315  -20.7391  -10.3024 C   0  0  1  0  0  0  0  0  0  0  0  0
   25.4279  -20.2695   -8.8586 C   0  0  0  0  0  0  0  0  0  0  0  0
   26.7856  -20.4556   -8.3223 C   0  0  0  0  0  0  0  0  0  0  0  0
   27.2569  -19.6171   -7.3186 C   0  0  0  0  0  0  0  0  0  0  0  0
   28.5163  -19.7450   -6.7794 C   0  0  0  0  0  0  0  0  0  0  0  0
   29.3693  -20.7323   -7.2292 C   0  0  0  0  0  0  0  0  0  0  0  0
   28.9192  -21.5697   -8.2210 C   0  0  0  0  0  0  0  0  0  0  0  0
   27.6480  -21.4309   -8.7565 C   0  0  0  0  0  0  0  0  0  0  0  0
   24.0391  -20.4030  -10.9315 C   0  0  0  0  0  0  0  0  0  0  0  0
   23.5969  -19.2337  -10.8369 O   0  0  0  0  0  0  0  0  0  0  0  0
   23.2476  -21.3577  -11.6612 N   0  0  0  0  0  0  0  0  0  0  0  0
   21.9781  -20.9529  -12.2176 C   0  0  1  0  0  0  0  0  0  0  0  0
   22.1766  -19.9358  -13.3380 C   0  0  0  0  0  0  0  0  0  0  0  0
   23.0468  -20.5011  -14.3807 C   0  0  0  0  0  0  0  0  0  0  0  0
   23.5866  -21.7787  -14.4723 C   0  0  0  0  0  0  0  0  0  0  0  0
   24.3094  -21.8258  -15.5822 N   0  0  0  0  0  0  0  0  0  0  0  0
   24.2796  -20.6645  -16.2246 C   0  0  0  0  0  0  0  0  0  0  0  0
   24.8582  -20.2076  -17.4065 C   0  0  0  0  0  0  0  0  0  0  0  0
   24.6310  -18.9213  -17.8124 C   0  0  0  0  0  0  0  0  0  0  0  0
   23.8482  -18.0554  -17.0939 C   0  0  0  0  0  0  0  0  0  0  0  0
   23.2681  -18.4922  -15.9216 C   0  0  0  0  0  0  0  0  0  0  0  0
   23.4906  -19.7996  -15.4959 C   0  0  0  0  0  0  0  0  0  0  0  0
   21.3349  -22.1364  -12.8279 C   0  0  0  0  0  0  0  0  0  0  0  0
   20.0149  -22.1150  -13.2500 O   0  0  0  0  0  0  0  0  0  0  0  0
   21.9678  -23.2279  -12.9915 O   0  0  0  0  0  0  0  0  0  0  0  0
  2  1  1  6
  2  3  1  0
  4  2  1  0
  4  5  1  6
  6  4  1  0
  6  7  2  0
  8  6  1  0
  9  8  1  0
  9 10  1  1
 10 11  1  0
 11 12  2  0
 12 13  1  0
 14 13  2  0
 15 14  1  0
 16 11  1  0
 16 15  2  0
 17  9  1  0
 18 17  2  0
 19 17  1  0
 20 21  1  6
 20 19  1  0
 21 22  1  0
 22 30  1  0
 23 22  2  0
 23 24  1  0
 24 25  1  0
 25 26  1  0
 26 27  2  0
 28 27  1  0
 29 28  2  0
 30 25  2  0
 30 29  1  0
 31 32  1  0
 31 20  1  0
 33 31  2  0
M  END
$$$$
