TFW.pdb
     RDKit          3D

 33 35  0  0  1  0  0  0  0  0999 V2000
   27.9597  -20.2330  -18.8237 C   0  0  0  0  0  0  0  0  0  0  0  0
   27.0506  -20.4911  -17.6426 C   0  0  1  0  0  0  0  0  0  0  0  0
   25.7905  -20.9042  -18.1184 O   0  0  0  0  0  0  0  0  0  0  0  0
   27.6715  -21.5840  -16.8161 C   0  0  2  0  0  0  0  0  0  0  0  0
   27.7761  -22.7757  -17.6318 N   0  0  0  0  0  0  0  0  0  0  0  0
   26.9318  -21.8583  -15.5773 C   0  0  0  0  0  0  0  0  0  0  0  0
   26.2563  -22.9128  -15.4137 O   0  0  0  0  0  0  0  0  0  0  0  0
   26.9803  -20.9020  -14.5303 N   0  0  0  0  0  0  0  0  0  0  0  0
   26.2707  -21.0971  -13.2864 C   0  0  1  0  0  0  0  0  0  0  0  0
   27.1103  -20.4225  -12.2120 C   0  0  0  0  0  0  0  0  0  0  0  0
   26.4531  -20.4869  -10.8968 C   0  0  0  0  0  0  0  0  0  0  0  0
   25.9287  -19.3334  -10.3252 C   0  0  0  0  0  0  0  0  0  0  0  0
   25.3033  -19.3345   -9.0995 C   0  0  0  0  0  0  0  0  0  0  0  0
   25.1750  -20.5078   -8.3843 C   0  0  0  0  0  0  0  0  0  0  0  0
   25.6880  -21.6571   -8.9349 C   0  0  0  0  0  0  0  0  0  0  0  0
   26.3161  -21.6435  -10.1707 C   0  0  0  0  0  0  0  0  0  0  0  0
   24.9222  -20.5105  -13.4153 C   0  0  0  0  0  0  0  0  0  0  0  0
   24.8068  -19.2997  -13.7191 O   0  0  0  0  0  0  0  0  0  0  0  0
   23.7138  -21.2643  -13.2109 N   0  0  0  0  0  0  0  0  0  0  0  0
   22.4445  -20.5770  -13.1689 C   0  0  1  0  0  0  0  0  0  0  0  0
   21.5174  -21.0825  -14.2708 C   0  0  0  0  0  0  0  0  0  0  0  0
   21.8149  -20.3897  -15.5340 C   0  0  0  0  0  0  0  0  0  0  0  0
   22.8014  -20.6672  -16.4731 C   0  0  0  0  0  0  0  0  0  0  0  0
   22.6881  -19.7726  -17.4443 N   0  0  0  0  0  0  0  0  0  0  0  0
   21.6931  -18.9269  -17.2050 C   0  0  0  0  0  0  0  0  0  0  0  0
   21.1761  -17.8344  -17.8972 C   0  0  0  0  0  0  0  0  0  0  0  0
   20.1155  -17.1477  -17.3734 C   0  0  0  0  0  0  0  0  0  0  0  0
   19.5356  -17.4964  -16.1813 C   0  0  0  0  0  0  0  0  0  0  0  0
   20.0357  -18.5755  -15.4836 C   0  0  0  0  0  0  0  0  0  0  0  0
   21.1155  -19.2843  -16.0049 C   0  0  0  0  0  0  0  0  0  0  0  0
   21.7846  -20.8890  -11.8828 C   0  0  0  0  0  0  0  0  0  0  0  0
   22.2914  -21.8417  -11.0130 O   0  0  0  0  0  0  0  0  0  0  0  0
   20.7201  -20.2945  -11.5194 O   0  0  0  0  0  0  0  0  0  0  0  0
  2  1  1  6
  2  3  1  0
  4  2  1  0
  4  5  1  6
  6  4  1  0
  6  7  2  0
  8  6  1  0
  9  8  1  0
  9 10  1  1
 10 11  1  0
 11 12  2  0
 12 13  1  0
 14 13  2  0
 15 14  1  0
 16 11  1  0
 16 15  2  0
 17  9  1  0
 18 17  2  0
 19 17  1  0
 20 21  1  6
 20 19  1  0
 21 22  1  0
 22 30  1  0
 23 22  2  0
 23 24  1  0
 24 25  1  0
 25 26  1  0
 26 27  2  0
 28 27  1  0
 29 28  2  0
 30 25  2  0
 30 29  1  0
 31 32  1  0
 31 20  1  0
 33 31  2  0
M  END
$$$$
