IEY.pdb
     RDKit          3D

 30 30  0  0  1  0  0  0  0  0999 V2000
   24.8385  -10.8053  -23.2796 C   0  0  0  0  0  0  0  0  0  0  0  0
   23.3779  -10.6518  -23.0500 C   0  0  0  0  0  0  0  0  0  0  0  0
   22.9976  -10.6476  -21.5796 C   0  0  2  0  0  0  0  0  0  0  0  0
   23.4777  -11.9043  -20.9531 C   0  0  0  0  0  0  0  0  0  0  0  0
   21.4994  -10.4418  -21.5476 C   0  0  2  0  0  0  0  0  0  0  0  0
   21.2944   -9.1819  -22.2911 N   0  0  0  0  0  0  0  0  0  0  0  0
   20.9275  -10.3153  -20.2132 C   0  0  0  0  0  0  0  0  0  0  0  0
   21.0205  -11.2736  -19.4096 O   0  0  0  0  0  0  0  0  0  0  0  0
   20.2681   -9.1465  -19.7834 N   0  0  0  0  0  0  0  0  0  0  0  0
   19.7390   -9.0931  -18.4170 C   0  0  1  0  0  0  0  0  0  0  0  0
   19.5904   -7.6643  -18.0218 C   0  0  0  0  0  0  0  0  0  0  0  0
   18.9726   -7.4529  -16.6739 C   0  0  0  0  0  0  0  0  0  0  0  0
   18.8391   -5.9569  -16.5374 C   0  0  0  0  0  0  0  0  0  0  0  0
   19.6457   -5.2062  -17.1031 O   0  0  0  0  0  0  0  0  0  0  0  0
   18.4953   -9.8777  -18.3244 C   0  0  0  0  0  0  0  0  0  0  0  0
   17.6277   -9.7524  -19.2632 O   0  0  0  0  0  0  0  0  0  0  0  0
   17.8130   -5.4480  -15.7756 O   0  0  0  0  0  0  0  0  0  0  0  0
   19.7205  -16.9937  -16.3459 O   0  0  0  0  0  0  0  0  0  0  0  0
   19.0533  -15.8858  -16.8752 C   0  0  0  0  0  0  0  0  0  0  0  0
   19.5952  -15.0365  -17.7919 C   0  0  0  0  0  0  0  0  0  0  0  0
   18.8880  -13.9590  -18.2774 C   0  0  0  0  0  0  0  0  0  0  0  0
   17.6073  -13.7019  -17.8544 C   0  0  0  0  0  0  0  0  0  0  0  0
   16.8868  -12.5252  -18.3779 C   0  0  0  0  0  0  0  0  0  0  0  0
   16.8230  -11.4503  -17.3072 C   0  0  2  0  0  0  0  0  0  0  0  0
   18.1381  -10.7790  -17.3030 N   0  0  0  0  0  0  0  0  0  0  0  0
   16.6120  -12.0601  -15.9988 C   0  0  0  0  0  0  0  0  0  0  0  0
   15.4423  -12.7564  -15.7023 O   0  0  0  0  0  0  0  0  0  0  0  0
   17.0479  -14.5514  -16.9295 C   0  0  0  0  0  0  0  0  0  0  0  0
   17.7633  -15.6300  -16.4461 C   0  0  0  0  0  0  0  0  0  0  0  0
   17.4723  -11.9750  -15.1068 O   0  0  0  0  0  0  0  0  0  0  0  0
  2  1  1  0
  2  3  1  0
  3  5  1  0
  3  4  1  6
  5  6  1  6
  7  8  2  0
  7  5  1  0
  9  7  1  0
 10  9  1  0
 10 11  1  6
 12 13  1  0
 12 11  1  0
 13 14  2  0
 15 16  2  0
 15 10  1  0
 17 13  1  0
 18 19  1  0
 19 20  2  0
 20 21  1  0
 22 23  1  0
 22 21  2  0
 24 23  1  6
 24 25  1  0
 25 15  1  0
 26 24  1  0
 27 26  1  0
 28 22  1  0
 29 28  2  0
 29 19  1  0
 30 26  2  0
M  END
$$$$
