IEY.pdb
     RDKit          3D

 30 30  0  0  1  0  0  0  0  0999 V2000
   22.4138  -14.8722  -19.3207 C   0  0  0  0  0  0  0  0  0  0  0  0
   21.0772  -14.9957  -18.6820 C   0  0  0  0  0  0  0  0  0  0  0  0
   20.4451  -13.6560  -18.3467 C   0  0  2  0  0  0  0  0  0  0  0  0
   21.3920  -12.8693  -17.5180 C   0  0  0  0  0  0  0  0  0  0  0  0
   19.1255  -13.9836  -17.6837 C   0  0  2  0  0  0  0  0  0  0  0  0
   18.4574  -14.8878  -18.6418 N   0  0  0  0  0  0  0  0  0  0  0  0
   18.2687  -12.8335  -17.4248 C   0  0  0  0  0  0  0  0  0  0  0  0
   17.8298  -12.1627  -18.3892 O   0  0  0  0  0  0  0  0  0  0  0  0
   17.9078  -12.4407  -16.1206 N   0  0  0  0  0  0  0  0  0  0  0  0
   17.0492  -11.2649  -15.9466 C   0  0  1  0  0  0  0  0  0  0  0  0
   15.8570  -11.6628  -15.1467 C   0  0  0  0  0  0  0  0  0  0  0  0
   15.0270  -12.7458  -15.7644 C   0  0  0  0  0  0  0  0  0  0  0  0
   14.6812  -13.6696  -14.6234 C   0  0  0  0  0  0  0  0  0  0  0  0
   15.5583  -14.3750  -14.1064 O   0  0  0  0  0  0  0  0  0  0  0  0
   17.8232  -10.1543  -15.3651 C   0  0  0  0  0  0  0  0  0  0  0  0
   18.8317  -10.4408  -14.6231 O   0  0  0  0  0  0  0  0  0  0  0  0
   13.3816  -13.7139  -14.1747 O   0  0  0  0  0  0  0  0  0  0  0  0
   22.5720   -3.1236  -13.7607 O   0  0  0  0  0  0  0  0  0  0  0  0
   21.8463   -4.2035  -14.2705 C   0  0  0  0  0  0  0  0  0  0  0  0
   21.0468   -4.1326  -15.3710 C   0  0  0  0  0  0  0  0  0  0  0  0
   20.3542   -5.2325  -15.8264 C   0  0  0  0  0  0  0  0  0  0  0  0
   20.4458   -6.4437  -15.1863 C   0  0  0  0  0  0  0  0  0  0  0  0
   19.6717   -7.5959  -15.6878 C   0  0  0  0  0  0  0  0  0  0  0  0
   18.4182   -7.7702  -14.8487 C   0  0  2  0  0  0  0  0  0  0  0  0
   17.5854   -8.7769  -15.5367 N   0  0  0  0  0  0  0  0  0  0  0  0
   17.6750   -6.5159  -14.7941 C   0  0  0  0  0  0  0  0  0  0  0  0
   16.4628   -6.3605  -15.4631 O   0  0  0  0  0  0  0  0  0  0  0  0
   21.2494   -6.5296  -14.0742 C   0  0  0  0  0  0  0  0  0  0  0  0
   21.9407   -5.4221  -13.6223 C   0  0  0  0  0  0  0  0  0  0  0  0
   18.1036   -5.5456  -14.1478 O   0  0  0  0  0  0  0  0  0  0  0  0
  2  1  1  0
  2  3  1  0
  3  5  1  0
  3  4  1  1
  5  6  1  6
  7  8  2  0
  7  5  1  0
  9  7  1  0
 10  9  1  0
 10 11  1  1
 12 13  1  0
 12 11  1  0
 13 14  2  0
 15 16  2  0
 15 10  1  0
 17 13  1  0
 18 19  1  0
 19 20  2  0
 20 21  1  0
 22 23  1  0
 22 21  2  0
 24 23  1  6
 24 25  1  0
 25 15  1  0
 26 24  1  0
 27 26  1  0
 28 22  1  0
 29 28  2  0
 29 19  1  0
 30 26  2  0
M  END
$$$$
