IEY.pdb
     RDKit          3D

 30 30  0  0  1  0  0  0  0  0999 V2000
   24.5018  -13.4542  -15.7116 C   0  0  0  0  0  0  0  0  0  0  0  0
   24.9616  -14.5400  -16.6168 C   0  0  0  0  0  0  0  0  0  0  0  0
   24.9634  -15.9097  -15.9603 C   0  0  2  0  0  0  0  0  0  0  0  0
   25.8527  -15.8746  -14.7728 C   0  0  0  0  0  0  0  0  0  0  0  0
   25.3738  -16.8802  -17.0456 C   0  0  2  0  0  0  0  0  0  0  0  0
   24.3261  -16.7300  -18.0760 N   0  0  0  0  0  0  0  0  0  0  0  0
   25.4438  -18.2739  -16.6255 C   0  0  0  0  0  0  0  0  0  0  0  0
   24.3907  -18.8743  -16.3047 O   0  0  0  0  0  0  0  0  0  0  0  0
   26.6600  -18.9830  -16.5658 N   0  0  0  0  0  0  0  0  0  0  0  0
   26.6633  -20.3387  -16.0073 C   0  0  1  0  0  0  0  0  0  0  0  0
   27.8222  -21.0827  -16.5756 C   0  0  0  0  0  0  0  0  0  0  0  0
   27.9653  -22.4872  -16.0753 C   0  0  0  0  0  0  0  0  0  0  0  0
   29.1362  -23.0544  -16.8381 C   0  0  0  0  0  0  0  0  0  0  0  0
   29.0308  -23.2997  -18.0476 O   0  0  0  0  0  0  0  0  0  0  0  0
   26.6466  -20.2800  -14.5352 C   0  0  0  0  0  0  0  0  0  0  0  0
   27.4726  -19.4892  -13.9502 O   0  0  0  0  0  0  0  0  0  0  0  0
   30.3130  -23.2942  -16.1673 O   0  0  0  0  0  0  0  0  0  0  0  0
   19.8198  -21.0787  -13.6412 O   0  0  0  0  0  0  0  0  0  0  0  0
   21.1103  -20.8333  -13.1646 C   0  0  0  0  0  0  0  0  0  0  0  0
   22.0393  -21.8051  -12.9459 C   0  0  0  0  0  0  0  0  0  0  0  0
   23.2970  -21.5019  -12.4736 C   0  0  0  0  0  0  0  0  0  0  0  0
   23.6611  -20.2053  -12.2065 C   0  0  0  0  0  0  0  0  0  0  0  0
   25.0094  -19.9183  -11.6793 C   0  0  0  0  0  0  0  0  0  0  0  0
   25.9913  -20.9500  -12.2058 C   0  0  2  0  0  0  0  0  0  0  0  0
   25.8041  -21.0038  -13.6694 N   0  0  0  0  0  0  0  0  0  0  0  0
   25.6807  -22.2637  -11.6524 C   0  0  0  0  0  0  0  0  0  0  0  0
   25.7832  -22.5189  -10.2866 O   0  0  0  0  0  0  0  0  0  0  0  0
   22.7333  -19.2141  -12.4231 C   0  0  0  0  0  0  0  0  0  0  0  0
   21.4731  -19.5255  -12.8962 C   0  0  0  0  0  0  0  0  0  0  0  0
   25.3152  -23.1971  -12.3859 O   0  0  0  0  0  0  0  0  0  0  0  0
  2  1  1  0
  2  3  1  0
  3  5  1  0
  3  4  1  1
  5  6  1  6
  7  8  2  0
  7  5  1  0
  9  7  1  0
 10  9  1  0
 10 11  1  1
 12 13  1  0
 12 11  1  0
 13 14  2  0
 15 16  2  0
 15 10  1  0
 17 13  1  0
 18 19  1  0
 19 20  2  0
 20 21  1  0
 22 23  1  0
 22 21  2  0
 24 23  1  1
 24 25  1  0
 25 15  1  0
 26 24  1  0
 27 26  1  0
 28 22  1  0
 29 28  2  0
 29 19  1  0
 30 26  2  0
M  END
$$$$
