IEY.pdb
     RDKit          3D

 30 30  0  0  1  0  0  0  0  0999 V2000
   21.3567  -24.1089    2.8228 C   0  0  0  0  0  0  0  0  0  0  0  0
   20.0910  -24.1914    3.5979 C   0  0  0  0  0  0  0  0  0  0  0  0
   19.5888  -22.8396    4.0748 C   0  0  2  0  0  0  0  0  0  0  0  0
   20.5989  -22.2425    4.9834 C   0  0  0  0  0  0  0  0  0  0  0  0
   18.2365  -23.1052    4.6984 C   0  0  2  0  0  0  0  0  0  0  0  0
   17.5041  -23.8580    3.6597 N   0  0  0  0  0  0  0  0  0  0  0  0
   17.4814  -21.9104    5.0537 C   0  0  0  0  0  0  0  0  0  0  0  0
   16.8685  -21.2803    4.1594 O   0  0  0  0  0  0  0  0  0  0  0  0
   17.4098  -21.4296    6.3763 N   0  0  0  0  0  0  0  0  0  0  0  0
   16.6356  -20.2143    6.6476 C   0  0  1  0  0  0  0  0  0  0  0  0
   15.7741  -20.4570    7.8386 C   0  0  0  0  0  0  0  0  0  0  0  0
   14.9661  -19.2732    8.2733 C   0  0  0  0  0  0  0  0  0  0  0  0
   13.7182  -19.3224    7.4278 C   0  0  0  0  0  0  0  0  0  0  0  0
   13.0241  -20.3480    7.4023 O   0  0  0  0  0  0  0  0  0  0  0  0
   17.5388  -19.0579    6.7812 C   0  0  0  0  0  0  0  0  0  0  0  0
   18.7391  -19.2692    7.1865 O   0  0  0  0  0  0  0  0  0  0  0  0
   13.3715  -18.2146    6.6897 O   0  0  0  0  0  0  0  0  0  0  0  0
   21.6937  -11.3644    6.5155 O   0  0  0  0  0  0  0  0  0  0  0  0
   20.8973  -12.4790    6.2395 C   0  0  0  0  0  0  0  0  0  0  0  0
   19.7233  -12.4249    5.5510 C   0  0  0  0  0  0  0  0  0  0  0  0
   18.9801  -13.5592    5.3101 C   0  0  0  0  0  0  0  0  0  0  0  0
   19.3976  -14.7889    5.7557 C   0  0  0  0  0  0  0  0  0  0  0  0
   18.5651  -15.9804    5.5000 C   0  0  0  0  0  0  0  0  0  0  0  0
   18.1948  -16.6345    6.8194 C   0  0  2  0  0  0  0  0  0  0  0  0
   17.2351  -17.7111    6.5030 N   0  0  0  0  0  0  0  0  0  0  0  0
   17.5331  -15.6673    7.6884 C   0  0  0  0  0  0  0  0  0  0  0  0
   18.2405  -14.9580    8.6567 O   0  0  0  0  0  0  0  0  0  0  0  0
   20.5811  -14.8582    6.4519 C   0  0  0  0  0  0  0  0  0  0  0  0
   21.3212  -13.7162    6.6906 C   0  0  0  0  0  0  0  0  0  0  0  0
   16.3144  -15.4479    7.5907 O   0  0  0  0  0  0  0  0  0  0  0  0
  2  1  1  0
  2  3  1  0
  3  5  1  0
  3  4  1  1
  5  6  1  6
  7  8  2  0
  7  5  1  0
  9  7  1  0
 10  9  1  0
 10 11  1  1
 12 13  1  0
 12 11  1  0
 13 14  2  0
 15 16  2  0
 15 10  1  0
 17 13  1  0
 18 19  1  0
 19 20  2  0
 20 21  1  0
 22 23  1  0
 22 21  2  0
 24 23  1  6
 24 25  1  0
 25 15  1  0
 26 24  1  0
 27 26  1  0
 28 22  1  0
 29 28  2  0
 29 19  1  0
 30 26  2  0
M  END
$$$$
