IEY.pdb
     RDKit          3D

 30 30  0  0  1  0  0  0  0  0999 V2000
   31.3483  -24.2444  -20.1986 C   0  0  0  0  0  0  0  0  0  0  0  0
   30.4360  -24.3700  -19.0318 C   0  0  0  0  0  0  0  0  0  0  0  0
   29.6912  -23.0860  -18.7099 C   0  0  2  0  0  0  0  0  0  0  0  0
   30.6733  -21.9843  -18.5542 C   0  0  0  0  0  0  0  0  0  0  0  0
   28.8648  -23.3925  -17.4806 C   0  0  2  0  0  0  0  0  0  0  0  0
   28.1203  -24.6153  -17.8447 N   0  0  0  0  0  0  0  0  0  0  0  0
   27.9232  -22.3473  -17.1001 C   0  0  0  0  0  0  0  0  0  0  0  0
   28.2735  -21.4748  -16.2703 O   0  0  0  0  0  0  0  0  0  0  0  0
   26.6210  -22.2753  -17.6336 N   0  0  0  0  0  0  0  0  0  0  0  0
   25.7269  -21.2060  -17.1786 C   0  0  1  0  0  0  0  0  0  0  0  0
   24.6131  -21.0703  -18.1587 C   0  0  0  0  0  0  0  0  0  0  0  0
   23.5598  -20.0791  -17.7698 C   0  0  0  0  0  0  0  0  0  0  0  0
   22.5234  -20.1640  -18.8621 C   0  0  0  0  0  0  0  0  0  0  0  0
   22.0271  -19.1302  -19.3306 O   0  0  0  0  0  0  0  0  0  0  0  0
   25.2870  -21.4674  -15.7970 C   0  0  0  0  0  0  0  0  0  0  0  0
   24.9882  -22.6740  -15.4734 O   0  0  0  0  0  0  0  0  0  0  0  0
   22.1419  -21.4032  -19.3214 O   0  0  0  0  0  0  0  0  0  0  0  0
   23.3013  -21.2233   -7.2610 O   0  0  0  0  0  0  0  0  0  0  0  0
   23.7679  -20.9019   -8.5383 C   0  0  0  0  0  0  0  0  0  0  0  0
   23.0533  -20.1899   -9.4537 C   0  0  0  0  0  0  0  0  0  0  0  0
   23.5665  -19.9042  -10.6994 C   0  0  0  0  0  0  0  0  0  0  0  0
   24.8208  -20.3270  -11.0641 C   0  0  0  0  0  0  0  0  0  0  0  0
   25.3306  -20.0231  -12.4154 C   0  0  0  0  0  0  0  0  0  0  0  0
   24.6483  -20.9231  -13.4304 C   0  0  2  0  0  0  0  0  0  0  0  0
   25.1578  -20.5255  -14.7580 N   0  0  0  0  0  0  0  0  0  0  0  0
   23.2064  -20.7024  -13.4046 C   0  0  0  0  0  0  0  0  0  0  0  0
   22.3601  -21.5195  -12.6581 O   0  0  0  0  0  0  0  0  0  0  0  0
   25.5533  -21.0464  -10.1498 C   0  0  0  0  0  0  0  0  0  0  0  0
   25.0320  -21.3302   -8.9022 C   0  0  0  0  0  0  0  0  0  0  0  0
   22.6889  -19.7764  -14.0508 O   0  0  0  0  0  0  0  0  0  0  0  0
  2  1  1  0
  2  3  1  0
  3  5  1  0
  3  4  1  1
  5  6  1  6
  7  8  2  0
  7  5  1  0
  9  7  1  0
 10  9  1  0
 10 11  1  6
 12 13  1  0
 12 11  1  0
 13 14  2  0
 15 16  2  0
 15 10  1  0
 17 13  1  0
 18 19  1  0
 19 20  2  0
 20 21  1  0
 22 23  1  0
 22 21  2  0
 24 23  1  1
 24 25  1  0
 25 15  1  0
 26 24  1  0
 27 26  1  0
 28 22  1  0
 29 28  2  0
 29 19  1  0
 30 26  2  0
M  END
$$$$
