IEY.pdb
     RDKit          3D

 30 30  0  0  1  0  0  0  0  0999 V2000
   29.6247  -18.8897  -16.7605 C   0  0  0  0  0  0  0  0  0  0  0  0
   28.2337  -19.3669  -16.5433 C   0  0  0  0  0  0  0  0  0  0  0  0
   27.7170  -19.0952  -15.1411 C   0  0  2  0  0  0  0  0  0  0  0  0
   28.6286  -19.7325  -14.1587 C   0  0  0  0  0  0  0  0  0  0  0  0
   26.2933  -19.6061  -15.1264 C   0  0  2  0  0  0  0  0  0  0  0  0
   25.6340  -18.8626  -16.2193 N   0  0  0  0  0  0  0  0  0  0  0  0
   25.5733  -19.3754  -13.8804 C   0  0  0  0  0  0  0  0  0  0  0  0
   25.3537  -18.1994  -13.5045 O   0  0  0  0  0  0  0  0  0  0  0  0
   25.1074  -20.4316  -13.0725 N   0  0  0  0  0  0  0  0  0  0  0  0
   24.5115  -20.1178  -11.7700 C   0  0  1  0  0  0  0  0  0  0  0  0
   23.0561  -20.4314  -11.8267 C   0  0  0  0  0  0  0  0  0  0  0  0
   22.4942  -20.5273  -13.2117 C   0  0  0  0  0  0  0  0  0  0  0  0
   21.0409  -20.8812  -13.0182 C   0  0  0  0  0  0  0  0  0  0  0  0
   20.1652  -20.0181  -13.1674 O   0  0  0  0  0  0  0  0  0  0  0  0
   25.2391  -20.8194  -10.6980 C   0  0  0  0  0  0  0  0  0  0  0  0
   26.3751  -21.3478  -10.9810 O   0  0  0  0  0  0  0  0  0  0  0  0
   20.7115  -22.1713  -12.6727 O   0  0  0  0  0  0  0  0  0  0  0  0
   30.1680  -19.5069   -3.9019 O   0  0  0  0  0  0  0  0  0  0  0  0
   29.3202  -19.5982   -5.0088 C   0  0  0  0  0  0  0  0  0  0  0  0
   29.6495  -20.2281   -6.1708 C   0  0  0  0  0  0  0  0  0  0  0  0
   28.7708  -20.2849   -7.2298 C   0  0  0  0  0  0  0  0  0  0  0  0
   27.5273  -19.7080   -7.1518 C   0  0  0  0  0  0  0  0  0  0  0  0
   26.6195  -19.7677   -8.3139 C   0  0  0  0  0  0  0  0  0  0  0  0
   25.8156  -21.0550   -8.2656 C   0  0  2  0  0  0  0  0  0  0  0  0
   24.8279  -20.9781   -9.3605 N   0  0  0  0  0  0  0  0  0  0  0  0
   25.0954  -21.1472   -7.0002 C   0  0  0  0  0  0  0  0  0  0  0  0
   25.6343  -21.8195   -5.9054 O   0  0  0  0  0  0  0  0  0  0  0  0
   27.1816  -19.0692   -5.9846 C   0  0  0  0  0  0  0  0  0  0  0  0
   28.0683  -19.0152   -4.9265 C   0  0  0  0  0  0  0  0  0  0  0  0
   23.9756  -20.6278   -6.8617 O   0  0  0  0  0  0  0  0  0  0  0  0
  2  1  1  0
  2  3  1  0
  3  5  1  0
  3  4  1  1
  5  6  1  6
  7  8  2  0
  7  5  1  0
  9  7  1  0
 10  9  1  0
 10 11  1  6
 12 13  1  0
 12 11  1  0
 13 14  2  0
 15 16  2  0
 15 10  1  0
 17 13  1  0
 18 19  1  0
 19 20  2  0
 20 21  1  0
 22 23  1  0
 22 21  2  0
 24 23  1  1
 24 25  1  0
 25 15  1  0
 26 24  1  0
 27 26  1  0
 28 22  1  0
 29 28  2  0
 29 19  1  0
 30 26  2  0
M  END
$$$$
