IEY.pdb
     RDKit          3D

 30 30  0  0  1  0  0  0  0  0999 V2000
   29.0497  -11.4383  -16.2620 C   0  0  0  0  0  0  0  0  0  0  0  0
   27.6823  -11.9414  -15.9672 C   0  0  0  0  0  0  0  0  0  0  0  0
   26.5874  -10.9510  -16.3239 C   0  0  2  0  0  0  0  0  0  0  0  0
   26.7410   -9.7380  -15.4829 C   0  0  0  0  0  0  0  0  0  0  0  0
   25.2862  -11.7010  -16.1435 C   0  0  2  0  0  0  0  0  0  0  0  0
   25.4803  -12.9464  -16.9137 N   0  0  0  0  0  0  0  0  0  0  0  0
   24.1052  -11.0048  -16.6378 C   0  0  0  0  0  0  0  0  0  0  0  0
   23.9201  -10.9070  -17.8743 O   0  0  0  0  0  0  0  0  0  0  0  0
   23.1511  -10.4318  -15.7736 N   0  0  0  0  0  0  0  0  0  0  0  0
   22.0329   -9.6796  -16.3512 C   0  0  1  0  0  0  0  0  0  0  0  0
   20.7607  -10.3561  -15.9725 C   0  0  0  0  0  0  0  0  0  0  0  0
   19.5227   -9.6769  -16.4718 C   0  0  0  0  0  0  0  0  0  0  0  0
   18.3814  -10.4969  -15.9244 C   0  0  0  0  0  0  0  0  0  0  0  0
   18.6097  -11.4747  -15.1991 O   0  0  0  0  0  0  0  0  0  0  0  0
   22.1095   -8.2658  -15.9440 C   0  0  0  0  0  0  0  0  0  0  0  0
   22.5058   -7.9984  -14.7518 O   0  0  0  0  0  0  0  0  0  0  0  0
   17.0925  -10.1407  -16.2470 O   0  0  0  0  0  0  0  0  0  0  0  0
   22.3594    0.4975  -15.4917 O   0  0  0  0  0  0  0  0  0  0  0  0
   22.2754   -0.8131  -15.9691 C   0  0  0  0  0  0  0  0  0  0  0  0
   21.1630   -1.3425  -16.5501 C   0  0  0  0  0  0  0  0  0  0  0  0
   21.1396   -2.6435  -17.0015 C   0  0  0  0  0  0  0  0  0  0  0  0
   22.2402   -3.4557  -16.8827 C   0  0  0  0  0  0  0  0  0  0  0  0
   22.1729   -4.8519  -17.3560 C   0  0  0  0  0  0  0  0  0  0  0  0
   21.9022   -5.7747  -16.1809 C   0  0  2  0  0  0  0  0  0  0  0  0
   21.7970   -7.1407  -16.7314 N   0  0  0  0  0  0  0  0  0  0  0  0
   20.6293   -5.4293  -15.5572 C   0  0  0  0  0  0  0  0  0  0  0  0
   20.5720   -4.6242  -14.4216 O   0  0  0  0  0  0  0  0  0  0  0  0
   23.3701   -2.9341  -16.2984 C   0  0  0  0  0  0  0  0  0  0  0  0
   23.3864   -1.6285  -15.8471 C   0  0  0  0  0  0  0  0  0  0  0  0
   19.5552   -5.8457  -16.0217 O   0  0  0  0  0  0  0  0  0  0  0  0
  2  1  1  0
  2  3  1  0
  3  5  1  0
  3  4  1  1
  5  6  1  6
  7  8  2  0
  7  5  1  0
  9  7  1  0
 10  9  1  0
 10 11  1  1
 12 13  1  0
 12 11  1  0
 13 14  2  0
 15 16  2  0
 15 10  1  0
 17 13  1  0
 18 19  1  0
 19 20  2  0
 20 21  1  0
 22 23  1  0
 22 21  2  0
 24 23  1  6
 24 25  1  0
 25 15  1  0
 26 24  1  0
 27 26  1  0
 28 22  1  0
 29 28  2  0
 29 19  1  0
 30 26  2  0
M  END
$$$$
