IEY.pdb
     RDKit          3D

 30 30  0  0  1  0  0  0  0  0999 V2000
   28.1359  -27.4776  -16.3753 C   0  0  0  0  0  0  0  0  0  0  0  0
   28.4361  -26.2144  -17.0990 C   0  0  0  0  0  0  0  0  0  0  0  0
   27.5896  -25.0410  -16.6369 C   0  0  2  0  0  0  0  0  0  0  0  0
   26.1555  -25.3875  -16.7973 C   0  0  0  0  0  0  0  0  0  0  0  0
   28.0616  -23.8547  -17.4480 C   0  0  2  0  0  0  0  0  0  0  0  0
   29.4623  -23.6622  -17.0201 N   0  0  0  0  0  0  0  0  0  0  0  0
   27.3134  -22.6242  -17.2246 C   0  0  0  0  0  0  0  0  0  0  0  0
   27.5114  -21.9643  -16.1768 O   0  0  0  0  0  0  0  0  0  0  0  0
   26.3669  -22.1392  -18.1490 N   0  0  0  0  0  0  0  0  0  0  0  0
   25.6740  -20.8799  -17.8591 C   0  0  1  0  0  0  0  0  0  0  0  0
   25.3353  -20.2173  -19.1497 C   0  0  0  0  0  0  0  0  0  0  0  0
   24.5043  -18.9786  -19.0135 C   0  0  0  0  0  0  0  0  0  0  0  0
   25.4992  -17.8624  -18.8166 C   0  0  0  0  0  0  0  0  0  0  0  0
   26.4467  -17.7277  -19.6030 O   0  0  0  0  0  0  0  0  0  0  0  0
   24.5140  -21.1296  -16.9858 C   0  0  0  0  0  0  0  0  0  0  0  0
   23.8784  -22.2373  -17.1233 O   0  0  0  0  0  0  0  0  0  0  0  0
   25.3352  -17.0060  -17.7527 O   0  0  0  0  0  0  0  0  0  0  0  0
   17.9155  -20.5443  -11.1569 O   0  0  0  0  0  0  0  0  0  0  0  0
   19.0976  -20.3418  -11.8740 C   0  0  0  0  0  0  0  0  0  0  0  0
   20.2458  -21.0439  -11.6642 C   0  0  0  0  0  0  0  0  0  0  0  0
   21.3818  -20.7985  -12.4032 C   0  0  0  0  0  0  0  0  0  0  0  0
   21.3976  -19.8353  -13.3815 C   0  0  0  0  0  0  0  0  0  0  0  0
   22.6390  -19.5826  -14.1386 C   0  0  0  0  0  0  0  0  0  0  0  0
   22.7941  -20.6315  -15.2255 C   0  0  2  0  0  0  0  0  0  0  0  0
   24.0092  -20.2764  -15.9855 N   0  0  0  0  0  0  0  0  0  0  0  0
   21.6523  -20.5842  -16.1324 C   0  0  0  0  0  0  0  0  0  0  0  0
   21.5111  -19.5628  -17.0693 O   0  0  0  0  0  0  0  0  0  0  0  0
   20.2454  -19.1191  -13.6041 C   0  0  0  0  0  0  0  0  0  0  0  0
   19.1096  -19.3700  -12.8585 C   0  0  0  0  0  0  0  0  0  0  0  0
   20.7685  -21.4563  -16.0947 O   0  0  0  0  0  0  0  0  0  0  0  0
  2  1  1  0
  2  3  1  0
  3  5  1  0
  3  4  1  6
  5  6  1  1
  7  8  2  0
  7  5  1  0
  9  7  1  0
 10  9  1  0
 10 11  1  6
 12 13  1  0
 12 11  1  0
 13 14  2  0
 15 16  2  0
 15 10  1  0
 17 13  1  0
 18 19  1  0
 19 20  2  0
 20 21  1  0
 22 23  1  0
 22 21  2  0
 24 23  1  1
 24 25  1  0
 25 15  1  0
 26 24  1  0
 27 26  1  0
 28 22  1  0
 29 28  2  0
 29 19  1  0
 30 26  2  0
M  END
$$$$
