EHN.pdb
     RDKit          3D

 28 28  0  0  1  0  0  0  0  0999 V2000
   25.9575   -8.3353  -20.9809 N   0  0  0  0  0  0  0  0  0  0  0  0
   24.9431   -7.3775  -21.2898 C   0  0  1  0  0  0  0  0  0  0  0  0
   24.1451   -7.7065  -22.5134 C   0  0  0  0  0  0  0  0  0  0  0  0
   23.6792   -9.1016  -22.6234 C   0  0  0  0  0  0  0  0  0  0  0  0
   22.8832   -9.4272  -23.8062 C   0  0  0  0  0  0  0  0  0  0  0  0
   21.6564   -9.4824  -23.8462 O   0  0  0  0  0  0  0  0  0  0  0  0
   23.9743   -7.3041  -20.1439 C   0  0  0  0  0  0  0  0  0  0  0  0
   22.9996   -6.5350  -20.2340 O   0  0  0  0  0  0  0  0  0  0  0  0
   23.5567   -9.7028  -25.0051 O   0  0  0  0  0  0  0  0  0  0  0  0
   24.2186   -8.1207  -19.0070 N   0  0  0  0  0  0  0  0  0  0  0  0
   23.3200   -8.1387  -17.8959 C   0  0  1  0  0  0  0  0  0  0  0  0
   23.5291   -9.3258  -16.9734 C   0  0  0  0  0  0  0  0  0  0  0  0
   22.4232   -9.4485  -15.9906 C   0  0  0  0  0  0  0  0  0  0  0  0
   21.3483   -8.5997  -15.8509 C   0  0  0  0  0  0  0  0  0  0  0  0
   20.5662   -9.0614  -14.8370 N   0  0  0  0  0  0  0  0  0  0  0  0
   21.1166  -10.1697  -14.3393 C   0  0  0  0  0  0  0  0  0  0  0  0
   22.2562  -10.4090  -15.0457 N   0  0  0  0  0  0  0  0  0  0  0  0
   23.4096   -6.8736  -17.0808 C   0  0  0  0  0  0  0  0  0  0  0  0
   24.4815   -6.2271  -16.9726 O   0  0  0  0  0  0  0  0  0  0  0  0
   22.2368   -2.3401  -14.9409 N   0  0  0  0  0  0  0  0  0  0  0  0
   22.6054   -2.6774  -16.2792 C   0  0  0  0  0  0  0  0  0  0  0  0
   22.8759   -1.7298  -17.0578 O   0  0  0  0  0  0  0  0  0  0  0  0
   22.6712   -4.0614  -16.7430 C   0  0  0  0  0  0  0  0  0  0  0  0
   22.2873   -5.0942  -15.7014 C   0  0  2  0  0  0  0  0  0  0  0  0
   22.2727   -6.3658  -16.4016 N   0  0  0  0  0  0  0  0  0  0  0  0
   20.9851   -4.8065  -15.0594 C   0  0  0  0  0  0  0  0  0  0  0  0
   19.7837   -5.2317  -15.6029 O   0  0  0  0  0  0  0  0  0  0  0  0
   20.9321   -4.1534  -13.9793 O   0  0  0  0  0  0  0  0  0  0  0  0
  2  1  1  1
  2  3  1  0
  2  7  1  0
  3  4  1  0
  5  4  1  0
  5  6  2  0
  7 10  1  0
  8  7  2  0
  9  5  1  0
 10 11  1  0
 11 12  1  1
 12 13  1  0
 13 17  1  0
 14 13  2  0
 14 15  1  0
 15 16  1  0
 17 16  2  0
 18 19  2  0
 18 11  1  0
 20 21  1  0
 21 22  2  0
 23 21  1  0
 24 23  1  6
 24 25  1  0
 25 18  1  0
 26 24  1  0
 26 27  1  0
 28 26  2  0
M  END
$$$$
