EHN.pdb
     RDKit          3D

 28 28  0  0  1  0  0  0  0  0999 V2000
   42.0400   -3.0202   -7.1039 N   0  0  0  0  0  0  0  0  0  0  0  0
   42.3546   -4.1710   -7.8903 C   0  0  1  0  0  0  0  0  0  0  0  0
   43.8168   -4.4888   -7.9495 C   0  0  0  0  0  0  0  0  0  0  0  0
   44.4475   -4.3769   -9.2781 C   0  0  0  0  0  0  0  0  0  0  0  0
   44.7269   -5.6344   -9.9704 C   0  0  0  0  0  0  0  0  0  0  0  0
   45.3323   -6.5911   -9.4932 O   0  0  0  0  0  0  0  0  0  0  0  0
   41.6712   -5.3704   -7.2976 C   0  0  0  0  0  0  0  0  0  0  0  0
   41.5977   -5.4645   -6.0584 O   0  0  0  0  0  0  0  0  0  0  0  0
   44.2748   -5.7811  -11.2899 O   0  0  0  0  0  0  0  0  0  0  0  0
   41.1386   -6.3443   -8.1847 N   0  0  0  0  0  0  0  0  0  0  0  0
   40.5173   -7.5354   -7.6973 C   0  0  1  0  0  0  0  0  0  0  0  0
   39.3615   -8.0065   -8.5610 C   0  0  0  0  0  0  0  0  0  0  0  0
   38.6141   -9.1111   -7.9087 C   0  0  0  0  0  0  0  0  0  0  0  0
   38.8591   -9.6489   -6.6653 C   0  0  0  0  0  0  0  0  0  0  0  0
   37.9540  -10.6404   -6.4409 N   0  0  0  0  0  0  0  0  0  0  0  0
   37.1522  -10.7396   -7.5023 C   0  0  0  0  0  0  0  0  0  0  0  0
   37.5556   -9.8020   -8.4041 N   0  0  0  0  0  0  0  0  0  0  0  0
   41.5045   -8.6659   -7.5552 C   0  0  0  0  0  0  0  0  0  0  0  0
   42.3631   -8.9135   -8.4385 O   0  0  0  0  0  0  0  0  0  0  0  0
   44.2671  -12.7711   -6.3460 N   0  0  0  0  0  0  0  0  0  0  0  0
   43.5012  -12.4175   -7.4989 C   0  0  0  0  0  0  0  0  0  0  0  0
   43.7088  -13.0719   -8.5506 O   0  0  0  0  0  0  0  0  0  0  0  0
   42.5123  -11.3422   -7.4764 C   0  0  0  0  0  0  0  0  0  0  0  0
   42.4835  -10.5389   -6.1907 C   0  0  2  0  0  0  0  0  0  0  0  0
   41.4963   -9.4965   -6.4056 N   0  0  0  0  0  0  0  0  0  0  0  0
   43.8057   -9.9773   -5.8342 C   0  0  0  0  0  0  0  0  0  0  0  0
   44.5640   -9.2452   -6.7334 O   0  0  0  0  0  0  0  0  0  0  0  0
   44.2880  -10.1533   -4.6800 O   0  0  0  0  0  0  0  0  0  0  0  0
  2  1  1  1
  2  3  1  0
  2  7  1  0
  3  4  1  0
  5  4  1  0
  5  6  2  0
  7 10  1  0
  8  7  2  0
  9  5  1  0
 10 11  1  0
 11 12  1  6
 12 13  1  0
 13 17  1  0
 14 13  2  0
 14 15  1  0
 15 16  1  0
 17 16  2  0
 18 19  2  0
 18 11  1  0
 20 21  1  0
 21 22  2  0
 23 21  1  0
 24 23  1  6
 24 25  1  0
 25 18  1  0
 26 24  1  0
 26 27  1  0
 28 26  2  0
M  END
$$$$
