EHN.pdb
     RDKit          3D

 28 28  0  0  1  0  0  0  0  0999 V2000
   20.9896  -12.1253  -16.0256 N   0  0  0  0  0  0  0  0  0  0  0  0
   21.0659  -11.1182  -17.0363 C   0  0  1  0  0  0  0  0  0  0  0  0
   19.7525  -10.7996  -17.6812 C   0  0  0  0  0  0  0  0  0  0  0  0
   18.5845  -10.7635  -16.7812 C   0  0  0  0  0  0  0  0  0  0  0  0
   17.2825  -10.5671  -17.4177 C   0  0  0  0  0  0  0  0  0  0  0  0
   16.6631  -11.4188  -18.0505 O   0  0  0  0  0  0  0  0  0  0  0  0
   21.5698   -9.8440  -16.4202 C   0  0  0  0  0  0  0  0  0  0  0  0
   21.0676   -9.4594  -15.3479 O   0  0  0  0  0  0  0  0  0  0  0  0
   16.6727   -9.3089  -17.3085 O   0  0  0  0  0  0  0  0  0  0  0  0
   22.6008   -9.1359  -17.0946 N   0  0  0  0  0  0  0  0  0  0  0  0
   23.1317   -7.9164  -16.5719 C   0  0  1  0  0  0  0  0  0  0  0  0
   24.5907   -7.6954  -16.9274 C   0  0  0  0  0  0  0  0  0  0  0  0
   25.4475   -8.7866  -16.3991 C   0  0  0  0  0  0  0  0  0  0  0  0
   25.0354   -9.8711  -15.6579 C   0  0  0  0  0  0  0  0  0  0  0  0
   26.1257  -10.6335  -15.3706 N   0  0  0  0  0  0  0  0  0  0  0  0
   27.2044  -10.0616  -15.9075 C   0  0  0  0  0  0  0  0  0  0  0  0
   26.7905   -8.9281  -16.5391 N   0  0  0  0  0  0  0  0  0  0  0  0
   22.3382   -6.7180  -17.0268 C   0  0  0  0  0  0  0  0  0  0  0  0
   22.2303   -6.4143  -18.2412 O   0  0  0  0  0  0  0  0  0  0  0  0
   18.4912   -3.9321  -18.7696 N   0  0  0  0  0  0  0  0  0  0  0  0
   18.4945   -4.8175  -17.6485 C   0  0  0  0  0  0  0  0  0  0  0  0
   17.4417   -4.8872  -16.9672 O   0  0  0  0  0  0  0  0  0  0  0  0
   19.6639   -5.6176  -17.2922 C   0  0  0  0  0  0  0  0  0  0  0  0
   20.7114   -4.8778  -16.4833 C   0  0  2  0  0  0  0  0  0  0  0  0
   21.6794   -5.8845  -16.0872 N   0  0  0  0  0  0  0  0  0  0  0  0
   20.1419   -4.1737  -15.3126 C   0  0  0  0  0  0  0  0  0  0  0  0
   20.4725   -4.5169  -14.0116 O   0  0  0  0  0  0  0  0  0  0  0  0
   19.3240   -3.2239  -15.4698 O   0  0  0  0  0  0  0  0  0  0  0  0
  2  1  1  1
  2  3  1  0
  2  7  1  0
  3  4  1  0
  5  4  1  0
  5  6  2  0
  7 10  1  0
  8  7  2  0
  9  5  1  0
 10 11  1  0
 11 12  1  6
 12 13  1  0
 13 17  1  0
 14 13  2  0
 14 15  1  0
 15 16  1  0
 17 16  2  0
 18 19  2  0
 18 11  1  0
 20 21  1  0
 21 22  2  0
 23 21  1  0
 24 23  1  1
 24 25  1  0
 25 18  1  0
 26 24  1  0
 26 27  1  0
 28 26  2  0
M  END
$$$$
