EHN.pdb
     RDKit          3D

 28 28  0  0  1  0  0  0  0  0999 V2000
   28.8812  -26.7475  -17.2393 N   0  0  0  0  0  0  0  0  0  0  0  0
   27.4746  -26.5100  -17.3214 C   0  0  1  0  0  0  0  0  0  0  0  0
   26.6413  -27.5217  -16.5971 C   0  0  0  0  0  0  0  0  0  0  0  0
   26.0959  -28.6167  -17.4213 C   0  0  0  0  0  0  0  0  0  0  0  0
   26.6570  -29.9464  -17.1849 C   0  0  0  0  0  0  0  0  0  0  0  0
   26.3470  -30.9686  -17.7921 O   0  0  0  0  0  0  0  0  0  0  0  0
   27.1675  -25.1730  -16.7090 C   0  0  0  0  0  0  0  0  0  0  0  0
   27.7180  -24.8672  -15.6351 O   0  0  0  0  0  0  0  0  0  0  0  0
   27.6315  -30.0885  -16.1864 O   0  0  0  0  0  0  0  0  0  0  0  0
   26.2590  -24.3177  -17.3888 N   0  0  0  0  0  0  0  0  0  0  0  0
   25.9689  -23.0044  -16.9057 C   0  0  1  0  0  0  0  0  0  0  0  0
   26.2380  -21.9152  -17.9281 C   0  0  0  0  0  0  0  0  0  0  0  0
   27.6641  -21.5028  -17.9165 C   0  0  0  0  0  0  0  0  0  0  0  0
   28.6615  -22.0117  -17.1156 C   0  0  0  0  0  0  0  0  0  0  0  0
   29.8219  -21.3651  -17.4126 N   0  0  0  0  0  0  0  0  0  0  0  0
   29.5824  -20.4699  -18.3720 C   0  0  0  0  0  0  0  0  0  0  0  0
   28.2589  -20.5528  -18.6826 N   0  0  0  0  0  0  0  0  0  0  0  0
   24.5418  -22.8817  -16.4354 C   0  0  0  0  0  0  0  0  0  0  0  0
   23.6138  -23.5592  -16.9437 O   0  0  0  0  0  0  0  0  0  0  0  0
   20.4235  -21.2114  -13.5094 N   0  0  0  0  0  0  0  0  0  0  0  0
   21.6656  -20.7411  -12.9833 C   0  0  0  0  0  0  0  0  0  0  0  0
   21.6251  -20.0797  -11.9163 O   0  0  0  0  0  0  0  0  0  0  0  0
   22.9414  -21.0076  -13.6438 C   0  0  0  0  0  0  0  0  0  0  0  0
   22.8367  -21.8489  -14.9009 C   0  0  2  0  0  0  0  0  0  0  0  0
   24.1963  -21.9867  -15.3908 N   0  0  0  0  0  0  0  0  0  0  0  0
   21.9444  -21.2517  -15.9196 C   0  0  0  0  0  0  0  0  0  0  0  0
   20.6108  -21.6093  -16.0341 O   0  0  0  0  0  0  0  0  0  0  0  0
   22.3819  -20.3846  -16.7274 O   0  0  0  0  0  0  0  0  0  0  0  0
  2  1  1  1
  2  3  1  0
  2  7  1  0
  3  4  1  0
  5  4  1  0
  5  6  2  0
  7 10  1  0
  8  7  2  0
  9  5  1  0
 10 11  1  0
 11 12  1  6
 12 13  1  0
 13 17  1  0
 14 13  2  0
 14 15  1  0
 15 16  1  0
 17 16  2  0
 18 19  2  0
 18 11  1  0
 20 21  1  0
 21 22  2  0
 23 21  1  0
 24 23  1  1
 24 25  1  0
 25 18  1  0
 26 24  1  0
 26 27  1  0
 28 26  2  0
M  END
$$$$
