EHN.pdb
     RDKit          3D

 28 28  0  0  1  0  0  0  0  0999 V2000
   46.1519  -11.0006   -6.0546 N   0  0  0  0  0  0  0  0  0  0  0  0
   45.0024  -10.6188   -5.2966 C   0  0  1  0  0  0  0  0  0  0  0  0
   45.2197   -9.4270   -4.4165 C   0  0  0  0  0  0  0  0  0  0  0  0
   45.7477   -9.7089   -3.0683 C   0  0  0  0  0  0  0  0  0  0  0  0
   45.0157   -9.1167   -1.9493 C   0  0  0  0  0  0  0  0  0  0  0  0
   45.0220   -9.5336   -0.7935 O   0  0  0  0  0  0  0  0  0  0  0  0
   43.8884  -10.2664   -6.2410 C   0  0  0  0  0  0  0  0  0  0  0  0
   44.1780   -9.8672   -7.3840 O   0  0  0  0  0  0  0  0  0  0  0  0
   44.2352   -7.9775   -2.1943 O   0  0  0  0  0  0  0  0  0  0  0  0
   42.5512  -10.4067   -5.7814 N   0  0  0  0  0  0  0  0  0  0  0  0
   41.4404  -10.0151   -6.5909 C   0  0  1  0  0  0  0  0  0  0  0  0
   40.1232  -10.6152   -6.1341 C   0  0  0  0  0  0  0  0  0  0  0  0
   38.9989  -10.1717   -6.9963 C   0  0  0  0  0  0  0  0  0  0  0  0
   39.0843   -9.3715   -8.1133 C   0  0  0  0  0  0  0  0  0  0  0  0
   37.8305   -9.1991   -8.6143 N   0  0  0  0  0  0  0  0  0  0  0  0
   36.9654   -9.8647   -7.8477 C   0  0  0  0  0  0  0  0  0  0  0  0
   37.6803  -10.4623   -6.8543 N   0  0  0  0  0  0  0  0  0  0  0  0
   41.2913   -8.5161   -6.6522 C   0  0  0  0  0  0  0  0  0  0  0  0
   41.3523   -7.7994   -5.6221 O   0  0  0  0  0  0  0  0  0  0  0  0
   41.0616   -3.6622   -8.7485 N   0  0  0  0  0  0  0  0  0  0  0  0
   42.0611   -4.5533   -9.2464 C   0  0  0  0  0  0  0  0  0  0  0  0
   42.9420   -4.0675   -9.9984 O   0  0  0  0  0  0  0  0  0  0  0  0
   42.0758   -5.9742   -8.9067 C   0  0  0  0  0  0  0  0  0  0  0  0
   40.9485   -6.4159   -7.9939 C   0  0  2  0  0  0  0  0  0  0  0  0
   41.0749   -7.8583   -7.8900 N   0  0  0  0  0  0  0  0  0  0  0  0
   39.6140   -6.0167   -8.4940 C   0  0  0  0  0  0  0  0  0  0  0  0
   38.8344   -5.0724   -7.8457 O   0  0  0  0  0  0  0  0  0  0  0  0
   39.1401   -6.5352   -9.5439 O   0  0  0  0  0  0  0  0  0  0  0  0
  2  1  1  6
  2  3  1  0
  2  7  1  0
  3  4  1  0
  5  4  1  0
  5  6  2  0
  7 10  1  0
  8  7  2  0
  9  5  1  0
 10 11  1  0
 11 12  1  1
 12 13  1  0
 13 17  1  0
 14 13  2  0
 14 15  1  0
 15 16  1  0
 17 16  2  0
 18 19  2  0
 18 11  1  0
 20 21  1  0
 21 22  2  0
 23 21  1  0
 24 23  1  6
 24 25  1  0
 25 18  1  0
 26 24  1  0
 26 27  1  0
 28 26  2  0
M  END
$$$$
