EHN.pdb
     RDKit          3D

 28 28  0  0  1  0  0  0  0  0999 V2000
   19.3906  -22.0724  -13.3733 N   0  0  0  0  0  0  0  0  0  0  0  0
   19.7065  -22.5875  -14.6682 C   0  0  1  0  0  0  0  0  0  0  0  0
   18.5378  -22.6496  -15.6024 C   0  0  0  0  0  0  0  0  0  0  0  0
   17.2956  -22.0146  -15.1238 C   0  0  0  0  0  0  0  0  0  0  0  0
   16.9858  -20.6977  -15.6794 C   0  0  0  0  0  0  0  0  0  0  0  0
   16.9541  -20.4186  -16.8755 O   0  0  0  0  0  0  0  0  0  0  0  0
   20.7324  -21.6983  -15.3115 C   0  0  0  0  0  0  0  0  0  0  0  0
   21.1850  -22.0176  -16.4264 O   0  0  0  0  0  0  0  0  0  0  0  0
   16.6980  -19.6523  -14.7899 O   0  0  0  0  0  0  0  0  0  0  0  0
   21.1383  -20.5295  -14.6127 N   0  0  0  0  0  0  0  0  0  0  0  0
   22.1298  -19.6493  -15.1462 C   0  0  1  0  0  0  0  0  0  0  0  0
   21.6210  -18.2371  -15.3710 C   0  0  0  0  0  0  0  0  0  0  0  0
   20.8733  -18.1286  -16.6491 C   0  0  0  0  0  0  0  0  0  0  0  0
   20.6006  -19.1489  -17.5322 C   0  0  0  0  0  0  0  0  0  0  0  0
   19.8966  -18.6346  -18.5775 N   0  0  0  0  0  0  0  0  0  0  0  0
   19.7206  -17.3278  -18.3765 C   0  0  0  0  0  0  0  0  0  0  0  0
   20.3192  -17.0152  -17.1937 N   0  0  0  0  0  0  0  0  0  0  0  0
   23.3547  -19.5861  -14.2695 C   0  0  0  0  0  0  0  0  0  0  0  0
   23.3541  -18.9791  -13.1694 O   0  0  0  0  0  0  0  0  0  0  0  0
   27.6142  -20.7018  -11.6825 N   0  0  0  0  0  0  0  0  0  0  0  0
   26.2921  -21.2246  -11.5428 C   0  0  0  0  0  0  0  0  0  0  0  0
   26.0563  -21.9303  -10.5310 O   0  0  0  0  0  0  0  0  0  0  0  0
   25.2431  -20.9608  -12.5251 C   0  0  0  0  0  0  0  0  0  0  0  0
   25.7239  -20.2862  -13.7950 C   0  0  2  0  0  0  0  0  0  0  0  0
   24.5621  -20.2179  -14.6627 N   0  0  0  0  0  0  0  0  0  0  0  0
   26.8471  -21.0045  -14.4377 C   0  0  0  0  0  0  0  0  0  0  0  0
   28.1184  -20.4606  -14.5247 O   0  0  0  0  0  0  0  0  0  0  0  0
   26.6747  -22.1534  -14.9337 O   0  0  0  0  0  0  0  0  0  0  0  0
  2  1  1  1
  2  3  1  0
  2  7  1  0
  3  4  1  0
  5  4  1  0
  5  6  2  0
  7 10  1  0
  8  7  2  0
  9  5  1  0
 10 11  1  0
 11 12  1  1
 12 13  1  0
 13 17  1  0
 14 13  2  0
 14 15  1  0
 15 16  1  0
 17 16  2  0
 18 19  2  0
 18 11  1  0
 20 21  1  0
 21 22  2  0
 23 21  1  0
 24 23  1  1
 24 25  1  0
 25 18  1  0
 26 24  1  0
 26 27  1  0
 28 26  2  0
M  END
$$$$
