ALE.pdb
     RDKit          3D

 23 22  0  0  1  0  0  0  0  0999 V2000
    7.9506  -18.0580   21.9212 C   0  0  0  0  0  0  0  0  0  0  0  0
    7.2971  -16.7768   21.4387 C   0  0  2  0  0  0  0  0  0  0  0  0
    7.6525  -16.6161   20.0551 N   0  0  0  0  0  0  0  0  0  0  0  0
    7.8845  -15.6598   22.2627 C   0  0  0  0  0  0  0  0  0  0  0  0
    8.9089  -15.0514   21.8631 O   0  0  0  0  0  0  0  0  0  0  0  0
    7.2644  -11.2816   25.7185 C   0  0  0  0  0  0  0  0  0  0  0  0
    6.8875  -12.6475   26.1477 C   0  0  1  0  0  0  0  0  0  0  0  0
    5.6165  -12.5898   27.0124 C   0  0  0  0  0  0  0  0  0  0  0  0
    6.6985  -13.7031   25.1678 C   0  0  0  0  0  0  0  0  0  0  0  0
    7.8120  -14.1226   24.2895 C   0  0  2  0  0  0  0  0  0  0  0  0
    7.3083  -15.2810   23.4758 N   0  0  0  0  0  0  0  0  0  0  0  0
    9.0296  -14.5962   24.9320 C   0  0  0  0  0  0  0  0  0  0  0  0
    9.8439  -13.7881   25.5080 O   0  0  0  0  0  0  0  0  0  0  0  0
    9.3984  -15.9470   24.9860 N   0  0  0  0  0  0  0  0  0  0  0  0
   10.6963  -16.4105   25.5225 C   0  0  1  0  0  0  0  0  0  0  0  0
   10.3290  -17.0328   26.8396 C   0  0  0  0  0  0  0  0  0  0  0  0
   10.1557  -18.4915   26.8520 C   0  0  0  0  0  0  0  0  0  0  0  0
   10.1584  -19.1653   28.1485 C   0  0  0  0  0  0  0  0  0  0  0  0
   10.3901  -18.4828   29.1998 O   0  0  0  0  0  0  0  0  0  0  0  0
   11.4958  -17.2097   24.6531 C   0  0  0  0  0  0  0  0  0  0  0  0
   11.1091  -17.8332   23.6491 O   0  0  0  0  0  0  0  0  0  0  0  0
    9.9232  -20.5051   28.2985 O   0  0  0  0  0  0  0  0  0  0  0  0
   12.8874  -17.3305   24.9114 O   0  0  0  0  0  0  0  0  0  0  0  0
  2  1  1  1
  3  2  1  0
  4  5  2  0
  4  2  1  0
  7  6  1  6
  7  8  1  0
  7  9  1  0
 10  9  1  1
 10 11  1  0
 11  4  1  0
 12 13  2  0
 12 10  1  0
 14 12  1  0
 15 16  1  1
 15 14  1  0
 17 18  1  0
 17 16  1  0
 18 19  2  0
 20 15  1  0
 21 20  2  0
 22 18  1  0
 23 20  1  0
M  END
$$$$
