ALE.pdb
     RDKit          3D

 23 22  0  0  1  0  0  0  0  0999 V2000
    7.1071  -17.1793   20.8295 C   0  0  0  0  0  0  0  0  0  0  0  0
    7.2754  -15.6782   20.6891 C   0  0  2  0  0  0  0  0  0  0  0  0
    8.0968  -15.4514   19.5314 N   0  0  0  0  0  0  0  0  0  0  0  0
    7.9844  -15.2085   21.9334 C   0  0  0  0  0  0  0  0  0  0  0  0
    9.2392  -15.2397   21.9954 O   0  0  0  0  0  0  0  0  0  0  0  0
    8.2596  -11.9059   26.5270 C   0  0  0  0  0  0  0  0  0  0  0  0
    7.2292  -12.9566   26.3640 C   0  0  1  0  0  0  0  0  0  0  0  0
    5.9045  -12.4887   26.9906 C   0  0  0  0  0  0  0  0  0  0  0  0
    6.9224  -13.4916   25.0488 C   0  0  0  0  0  0  0  0  0  0  0  0
    7.9341  -14.2646   24.2962 C   0  0  2  0  0  0  0  0  0  0  0  0
    7.2689  -14.7333   23.0331 N   0  0  0  0  0  0  0  0  0  0  0  0
    8.4651  -15.4646   24.9268 C   0  0  0  0  0  0  0  0  0  0  0  0
    7.7399  -16.5091   25.1023 O   0  0  0  0  0  0  0  0  0  0  0  0
    9.7887  -15.5811   25.3721 N   0  0  0  0  0  0  0  0  0  0  0  0
   10.3464  -16.8305   25.9336 C   0  0  1  0  0  0  0  0  0  0  0  0
   11.6306  -17.0127   25.1756 C   0  0  0  0  0  0  0  0  0  0  0  0
   11.8804  -18.3479   24.6166 C   0  0  0  0  0  0  0  0  0  0  0  0
   13.1126  -18.5473   23.8571 C   0  0  0  0  0  0  0  0  0  0  0  0
   13.8201  -19.5825   24.0867 O   0  0  0  0  0  0  0  0  0  0  0  0
   10.4418  -16.9029   27.3546 C   0  0  0  0  0  0  0  0  0  0  0  0
   10.5042  -17.9351   28.0453 O   0  0  0  0  0  0  0  0  0  0  0  0
   13.5547  -17.6735   22.9011 O   0  0  0  0  0  0  0  0  0  0  0  0
   10.4836  -15.6980   28.1060 O   0  0  0  0  0  0  0  0  0  0  0  0
  2  1  1  1
  3  2  1  0
  4  5  2  0
  4  2  1  0
  7  6  1  6
  7  8  1  0
  7  9  1  0
 10  9  1  1
 10 11  1  0
 11  4  1  0
 12 13  2  0
 12 10  1  0
 14 12  1  0
 15 16  1  6
 15 14  1  0
 17 18  1  0
 17 16  1  0
 18 19  2  0
 20 15  1  0
 21 20  2  0
 22 18  1  0
 23 20  1  0
M  END
$$$$
