ALE.pdb
     RDKit          3D

 23 22  0  0  1  0  0  0  0  0999 V2000
    6.8774  -16.5900   20.9541 C   0  0  0  0  0  0  0  0  0  0  0  0
    7.1107  -15.1007   21.1244 C   0  0  2  0  0  0  0  0  0  0  0  0
    7.9090  -14.6677   20.0101 N   0  0  0  0  0  0  0  0  0  0  0  0
    7.8750  -14.9315   22.4124 C   0  0  0  0  0  0  0  0  0  0  0  0
    9.1307  -14.9794   22.4126 O   0  0  0  0  0  0  0  0  0  0  0  0
    5.7930  -11.7720   26.6276 C   0  0  0  0  0  0  0  0  0  0  0  0
    6.7689  -12.4467   25.7419 C   0  0  1  0  0  0  0  0  0  0  0  0
    8.1375  -11.7526   25.8501 C   0  0  0  0  0  0  0  0  0  0  0  0
    6.9977  -13.8771   25.8500 C   0  0  0  0  0  0  0  0  0  0  0  0
    7.9312  -14.5615   24.9295 C   0  0  2  0  0  0  0  0  0  0  0  0
    7.2102  -14.7198   23.6208 N   0  0  0  0  0  0  0  0  0  0  0  0
    8.3733  -15.8992   25.2967 C   0  0  0  0  0  0  0  0  0  0  0  0
    7.5454  -16.8737   25.4090 O   0  0  0  0  0  0  0  0  0  0  0  0
    9.7134  -16.2298   25.5386 N   0  0  0  0  0  0  0  0  0  0  0  0
   10.1477  -17.5703   25.9877 C   0  0  1  0  0  0  0  0  0  0  0  0
   11.1783  -17.9646   24.9683 C   0  0  0  0  0  0  0  0  0  0  0  0
   12.5842  -17.7600   25.3416 C   0  0  0  0  0  0  0  0  0  0  0  0
   13.6095  -18.2895   24.4453 C   0  0  0  0  0  0  0  0  0  0  0  0
   14.0463  -17.5526   23.5014 O   0  0  0  0  0  0  0  0  0  0  0  0
   10.5403  -17.6879   27.3536 C   0  0  0  0  0  0  0  0  0  0  0  0
   10.7673  -16.7569   28.1461 O   0  0  0  0  0  0  0  0  0  0  0  0
   14.1332  -19.5482   24.5645 O   0  0  0  0  0  0  0  0  0  0  0  0
   10.6921  -18.9821   27.9193 O   0  0  0  0  0  0  0  0  0  0  0  0
  2  1  1  6
  3  2  1  0
  4  5  2  0
  4  2  1  0
  7  6  1  1
  7  8  1  0
  7  9  1  0
 10  9  1  1
 10 11  1  0
 11  4  1  0
 12 13  2  0
 12 10  1  0
 14 12  1  0
 15 16  1  6
 15 14  1  0
 17 18  1  0
 17 16  1  0
 18 19  2  0
 20 15  1  0
 21 20  2  0
 22 18  1  0
 23 20  1  0
M  END
$$$$
