ALE.pdb
     RDKit          3D

 23 22  0  0  1  0  0  0  0  0999 V2000
    6.6990  -16.0918   20.9642 C   0  0  0  0  0  0  0  0  0  0  0  0
    6.8684  -14.6012   21.1901 C   0  0  2  0  0  0  0  0  0  0  0  0
    7.5779  -14.0794   20.0541 N   0  0  0  0  0  0  0  0  0  0  0  0
    7.6974  -14.4490   22.4396 C   0  0  0  0  0  0  0  0  0  0  0  0
    8.9521  -14.4456   22.3686 O   0  0  0  0  0  0  0  0  0  0  0  0
    5.6346  -11.7401   26.9212 C   0  0  0  0  0  0  0  0  0  0  0  0
    6.6078  -12.2915   25.9513 C   0  0  1  0  0  0  0  0  0  0  0  0
    7.9051  -11.4656   25.9882 C   0  0  0  0  0  0  0  0  0  0  0  0
    6.9842  -13.6937   25.9997 C   0  0  0  0  0  0  0  0  0  0  0  0
    7.8785  -14.2686   24.9716 C   0  0  2  0  0  0  0  0  0  0  0  0
    7.0947  -14.3097   23.6903 N   0  0  0  0  0  0  0  0  0  0  0  0
    8.3544  -15.6283   25.1826 C   0  0  0  0  0  0  0  0  0  0  0  0
    7.5495  -16.6281   25.1939 O   0  0  0  0  0  0  0  0  0  0  0  0
    9.7043  -15.9526   25.3725 N   0  0  0  0  0  0  0  0  0  0  0  0
   10.1781  -17.3316   25.6196 C   0  0  1  0  0  0  0  0  0  0  0  0
   11.3018  -17.4976   24.6363 C   0  0  0  0  0  0  0  0  0  0  0  0
   12.6022  -16.9343   25.0228 C   0  0  0  0  0  0  0  0  0  0  0  0
   13.6944  -17.0199   24.0560 C   0  0  0  0  0  0  0  0  0  0  0  0
   13.6651  -16.2746   23.0222 O   0  0  0  0  0  0  0  0  0  0  0  0
   10.4745  -17.6701   26.9728 C   0  0  0  0  0  0  0  0  0  0  0  0
   10.5393  -16.8896   27.9387 O   0  0  0  0  0  0  0  0  0  0  0  0
   14.7601  -17.8662   24.2004 O   0  0  0  0  0  0  0  0  0  0  0  0
   10.7191  -19.0290   27.3069 O   0  0  0  0  0  0  0  0  0  0  0  0
  2  1  1  6
  3  2  1  0
  4  5  2  0
  4  2  1  0
  7  6  1  1
  7  8  1  0
  7  9  1  0
 10  9  1  1
 10 11  1  0
 11  4  1  0
 12 13  2  0
 12 10  1  0
 14 12  1  0
 15 16  1  6
 15 14  1  0
 17 18  1  0
 17 16  1  0
 18 19  2  0
 20 15  1  0
 21 20  2  0
 22 18  1  0
 23 20  1  0
M  END
$$$$
