ALE.pdb
     RDKit          3D

 23 22  0  0  1  0  0  0  0  0999 V2000
    7.0091  -14.3959   19.7477 C   0  0  0  0  0  0  0  0  0  0  0  0
    7.6434  -15.4217   20.6680 C   0  0  2  0  0  0  0  0  0  0  0  0
    6.5922  -16.2922   21.1190 N   0  0  0  0  0  0  0  0  0  0  0  0
    8.2221  -14.6551   21.8295 C   0  0  0  0  0  0  0  0  0  0  0  0
    9.2731  -13.9823   21.6814 O   0  0  0  0  0  0  0  0  0  0  0  0
    7.7099  -11.6254   26.5280 C   0  0  0  0  0  0  0  0  0  0  0  0
    7.1201  -12.9788   26.4158 C   0  0  1  0  0  0  0  0  0  0  0  0
    5.7575  -13.0140   27.1290 C   0  0  0  0  0  0  0  0  0  0  0  0
    6.9459  -13.6024   25.1155 C   0  0  0  0  0  0  0  0  0  0  0  0
    8.1132  -13.8753   24.2494 C   0  0  2  0  0  0  0  0  0  0  0  0
    7.6085  -14.6760   23.0825 N   0  0  0  0  0  0  0  0  0  0  0  0
    9.2012  -14.6574   24.8190 C   0  0  0  0  0  0  0  0  0  0  0  0
    9.6701  -14.4060   25.9872 O   0  0  0  0  0  0  0  0  0  0  0  0
    9.8042  -15.7361   24.1584 N   0  0  0  0  0  0  0  0  0  0  0  0
   10.8769  -16.5566   24.7611 C   0  0  1  0  0  0  0  0  0  0  0  0
   10.2528  -17.0758   26.0251 C   0  0  0  0  0  0  0  0  0  0  0  0
   11.0679  -17.9935   26.8320 C   0  0  0  0  0  0  0  0  0  0  0  0
   10.4786  -18.5269   28.0581 C   0  0  0  0  0  0  0  0  0  0  0  0
    9.7604  -19.5780   27.9927 O   0  0  0  0  0  0  0  0  0  0  0  0
   11.4840  -17.5315   23.9156 C   0  0  0  0  0  0  0  0  0  0  0  0
   10.9864  -18.0512   22.9014 O   0  0  0  0  0  0  0  0  0  0  0  0
   10.6571  -17.9536   29.2878 O   0  0  0  0  0  0  0  0  0  0  0  0
   12.7978  -17.9820   24.2140 O   0  0  0  0  0  0  0  0  0  0  0  0
  2  1  1  6
  3  2  1  0
  4  5  2  0
  4  2  1  0
  7  6  1  6
  7  8  1  0
  7  9  1  0
 10  9  1  1
 10 11  1  0
 11  4  1  0
 12 13  2  0
 12 10  1  0
 14 12  1  0
 15 16  1  1
 15 14  1  0
 17 18  1  0
 17 16  1  0
 18 19  2  0
 20 15  1  0
 21 20  2  0
 22 18  1  0
 23 20  1  0
M  END
$$$$
