ALE.pdb
     RDKit          3D

 23 22  0  0  1  0  0  0  0  0999 V2000
    7.9960  -19.4062   18.1554 C   0  0  0  0  0  0  0  0  0  0  0  0
    8.3334  -18.0784   17.5037 C   0  0  2  0  0  0  0  0  0  0  0  0
    9.1706  -18.3643   16.3706 N   0  0  0  0  0  0  0  0  0  0  0  0
    9.0962  -17.2796   18.5292 C   0  0  0  0  0  0  0  0  0  0  0  0
   10.3459  -17.3845   18.6096 O   0  0  0  0  0  0  0  0  0  0  0  0
    6.7184  -12.5291   20.0506 C   0  0  0  0  0  0  0  0  0  0  0  0
    7.8466  -13.4482   19.7779 C   0  0  1  0  0  0  0  0  0  0  0  0
    9.1058  -12.6374   19.4263 C   0  0  0  0  0  0  0  0  0  0  0  0
    8.2345  -14.4507   20.7550 C   0  0  0  0  0  0  0  0  0  0  0  0
    9.1633  -15.5409   20.3863 C   0  0  2  0  0  0  0  0  0  0  0  0
    8.4367  -16.4144   19.4030 N   0  0  0  0  0  0  0  0  0  0  0  0
    9.6051  -16.4323   21.4492 C   0  0  0  0  0  0  0  0  0  0  0  0
    8.8403  -17.3505   21.9180 O   0  0  0  0  0  0  0  0  0  0  0  0
   10.8806  -16.3723   22.0264 N   0  0  0  0  0  0  0  0  0  0  0  0
   11.3300  -17.2925   23.0933 C   0  0  1  0  0  0  0  0  0  0  0  0
   12.7822  -17.5125   22.7777 C   0  0  0  0  0  0  0  0  0  0  0  0
   13.4993  -18.4783   23.6207 C   0  0  0  0  0  0  0  0  0  0  0  0
   14.9177  -18.6980   23.3470 C   0  0  0  0  0  0  0  0  0  0  0  0
   15.4014  -19.8686   23.4910 O   0  0  0  0  0  0  0  0  0  0  0  0
   11.0314  -16.9076   24.4336 C   0  0  0  0  0  0  0  0  0  0  0  0
   10.6863  -15.7789   24.8251 O   0  0  0  0  0  0  0  0  0  0  0  0
   15.7662  -17.7045   22.9396 O   0  0  0  0  0  0  0  0  0  0  0  0
   11.1119  -17.8806   25.4656 O   0  0  0  0  0  0  0  0  0  0  0  0
  2  1  1  1
  3  2  1  0
  4  5  2  0
  4  2  1  0
  7  6  1  1
  7  8  1  0
  7  9  1  0
 10  9  1  1
 10 11  1  0
 11  4  1  0
 12 13  2  0
 12 10  1  0
 14 12  1  0
 15 16  1  1
 15 14  1  0
 17 18  1  0
 17 16  1  0
 18 19  2  0
 20 15  1  0
 21 20  2  0
 22 18  1  0
 23 20  1  0
M  END
$$$$
