ALE.pdb
     RDKit          3D

 23 22  0  0  1  0  0  0  0  0999 V2000
    9.7875  -19.3332   18.4769 C   0  0  0  0  0  0  0  0  0  0  0  0
    9.6245  -17.9854   17.7997 C   0  0  2  0  0  0  0  0  0  0  0  0
   10.5424  -17.9542   16.6939 N   0  0  0  0  0  0  0  0  0  0  0  0
   10.0017  -16.9441   18.8221 C   0  0  0  0  0  0  0  0  0  0  0  0
   11.2085  -16.6432   19.0015 O   0  0  0  0  0  0  0  0  0  0  0  0
    6.3936  -12.9175   19.9692 C   0  0  0  0  0  0  0  0  0  0  0  0
    7.6633  -13.6628   19.8129 C   0  0  1  0  0  0  0  0  0  0  0  0
    8.7878  -12.6961   19.4033 C   0  0  0  0  0  0  0  0  0  0  0  0
    8.1727  -14.4879   20.8945 C   0  0  0  0  0  0  0  0  0  0  0  0
    9.3634  -15.3416   20.6930 C   0  0  2  0  0  0  0  0  0  0  0  0
    9.0275  -16.2980   19.5839 N   0  0  0  0  0  0  0  0  0  0  0  0
    9.7884  -16.1724   21.8105 C   0  0  0  0  0  0  0  0  0  0  0  0
    9.1007  -17.1860   22.1945 O   0  0  0  0  0  0  0  0  0  0  0  0
   10.9667  -15.9475   22.5350 N   0  0  0  0  0  0  0  0  0  0  0  0
   11.3420  -16.7301   23.7324 C   0  0  1  0  0  0  0  0  0  0  0  0
   12.8289  -16.8933   23.5925 C   0  0  0  0  0  0  0  0  0  0  0  0
   13.5724  -15.7340   23.0818 C   0  0  0  0  0  0  0  0  0  0  0  0
   15.0247  -15.8522   22.9727 C   0  0  0  0  0  0  0  0  0  0  0  0
   15.6438  -16.6287   23.7719 O   0  0  0  0  0  0  0  0  0  0  0  0
   10.8815  -16.2337   24.9875 C   0  0  0  0  0  0  0  0  0  0  0  0
   10.2408  -15.1862   25.1844 O   0  0  0  0  0  0  0  0  0  0  0  0
   15.7663  -15.1670   22.0489 O   0  0  0  0  0  0  0  0  0  0  0  0
   11.1477  -16.9816   26.1655 O   0  0  0  0  0  0  0  0  0  0  0  0
  2  1  1  1
  3  2  1  0
  4  5  2  0
  4  2  1  0
  7  6  1  1
  7  8  1  0
  7  9  1  0
 10  9  1  1
 10 11  1  0
 11  4  1  0
 12 13  2  0
 12 10  1  0
 14 12  1  0
 15 16  1  1
 15 14  1  0
 17 18  1  0
 17 16  1  0
 18 19  2  0
 20 15  1  0
 21 20  2  0
 22 18  1  0
 23 20  1  0
M  END
$$$$
