DVG.pdb
     RDKit          3D

 20 19  0  0  1  0  0  0  0  0999 V2000
   18.5301  -12.6391  -17.7407 N   0  0  0  0  0  0  0  0  0  0  0  0
   19.6064  -12.1430  -16.8602 C   0  0  1  0  0  0  0  0  0  0  0  0
   20.7613  -13.0860  -17.0668 C   0  0  0  0  0  0  0  0  0  0  0  0
   20.5955  -14.4170  -16.4727 C   0  0  0  0  0  0  0  0  0  0  0  0
   19.6112  -14.7727  -15.8067 O   0  0  0  0  0  0  0  0  0  0  0  0
   19.9523  -10.7346  -17.3295 C   0  0  0  0  0  0  0  0  0  0  0  0
   20.3168  -10.5466  -18.5049 O   0  0  0  0  0  0  0  0  0  0  0  0
   21.6005  -15.3696  -16.6536 O   0  0  0  0  0  0  0  0  0  0  0  0
   19.2657   -5.9669  -17.2254 C   0  0  0  0  0  0  0  0  0  0  0  0
   18.9216   -7.4586  -17.0752 C   0  0  2  0  0  0  0  0  0  0  0  0
   17.9051   -7.5172  -15.9670 C   0  0  0  0  0  0  0  0  0  0  0  0
   20.1396   -8.2729  -16.7096 C   0  0  2  0  0  0  0  0  0  0  0  0
   19.8625   -9.6579  -16.4503 N   0  0  0  0  0  0  0  0  0  0  0  0
   20.8353   -7.7333  -15.5729 C   0  0  0  0  0  0  0  0  0  0  0  0
   20.3905   -7.9660  -14.3960 O   0  0  0  0  0  0  0  0  0  0  0  0
   22.0025   -6.9524  -15.6469 N   0  0  0  0  0  0  0  0  0  0  0  0
   22.7843   -6.6154  -14.4546 C   0  0  0  0  0  0  0  0  0  0  0  0
   22.2185   -5.4194  -13.7911 C   0  0  0  0  0  0  0  0  0  0  0  0
   22.8520   -4.8549  -12.7052 O   0  0  0  0  0  0  0  0  0  0  0  0
   21.1573   -4.9052  -14.2076 O   0  0  0  0  0  0  0  0  0  0  0  0
  2  3  1  0
  2  1  1  6
  4  8  1  0
  4  3  1  0
  5  4  2  0
  6  2  1  0
  7  6  2  0
 10 11  1  1
 10 12  1  0
 10  9  1  0
 12 13  1  1
 13  6  1  0
 14 12  1  0
 14 15  2  0
 16 14  1  0
 17 16  1  0
 17 18  1  0
 18 19  1  0
 20 18  2  0
M  END
$$$$
