DVG.pdb
     RDKit          3D

 20 19  0  0  1  0  0  0  0  0999 V2000
   22.1603   -6.9505  -18.3872 N   0  0  0  0  0  0  0  0  0  0  0  0
   22.0930   -6.2830  -17.0719 C   0  0  1  0  0  0  0  0  0  0  0  0
   21.7580   -4.8456  -17.3674 C   0  0  0  0  0  0  0  0  0  0  0  0
   22.8651   -4.0419  -17.8972 C   0  0  0  0  0  0  0  0  0  0  0  0
   23.9936   -4.4851  -18.1597 O   0  0  0  0  0  0  0  0  0  0  0  0
   20.9765   -6.9601  -16.2854 C   0  0  0  0  0  0  0  0  0  0  0  0
   20.0197   -7.4777  -16.8908 O   0  0  0  0  0  0  0  0  0  0  0  0
   22.6621   -2.6804  -18.1317 O   0  0  0  0  0  0  0  0  0  0  0  0
   21.8781   -8.7665  -12.5787 C   0  0  0  0  0  0  0  0  0  0  0  0
   20.6257   -8.9689  -13.4485 C   0  0  2  0  0  0  0  0  0  0  0  0
   21.0702   -9.8628  -14.5747 C   0  0  0  0  0  0  0  0  0  0  0  0
   20.1137   -7.6573  -13.9944 C   0  0  2  0  0  0  0  0  0  0  0  0
   21.0216   -7.0024  -14.8939 N   0  0  0  0  0  0  0  0  0  0  0  0
   19.7675   -6.7303  -12.9513 C   0  0  0  0  0  0  0  0  0  0  0  0
   20.6949   -6.0808  -12.3553 O   0  0  0  0  0  0  0  0  0  0  0  0
   18.4552   -6.4644  -12.5214 N   0  0  0  0  0  0  0  0  0  0  0  0
   18.1755   -5.5502  -11.4112 C   0  0  0  0  0  0  0  0  0  0  0  0
   17.9830   -6.3108  -10.1562 C   0  0  0  0  0  0  0  0  0  0  0  0
   17.6878   -5.6576   -8.9792 O   0  0  0  0  0  0  0  0  0  0  0  0
   18.0860   -7.5572  -10.1475 O   0  0  0  0  0  0  0  0  0  0  0  0
  2  3  1  0
  2  1  1  6
  4  8  1  0
  4  3  1  0
  5  4  2  0
  6  2  1  0
  7  6  2  0
 10 11  1  6
 10 12  1  0
 10  9  1  0
 12 13  1  6
 13  6  1  0
 14 12  1  0
 14 15  2  0
 16 14  1  0
 17 16  1  0
 17 18  1  0
 18 19  1  0
 20 18  2  0
M  END
$$$$
