DVG.pdb
     RDKit          3D

 20 19  0  0  1  0  0  0  0  0999 V2000
   19.4470   -9.5770  -17.5304 N   0  0  0  0  0  0  0  0  0  0  0  0
   18.3902   -9.2031  -16.5695 C   0  0  1  0  0  0  0  0  0  0  0  0
   17.6350  -10.4744  -16.2881 C   0  0  0  0  0  0  0  0  0  0  0  0
   16.7937  -10.9584  -17.3882 C   0  0  0  0  0  0  0  0  0  0  0  0
   16.6482  -10.3737  -18.4725 O   0  0  0  0  0  0  0  0  0  0  0  0
   19.0891   -8.6868  -15.3171 C   0  0  0  0  0  0  0  0  0  0  0  0
   18.4218   -8.4306  -14.2978 O   0  0  0  0  0  0  0  0  0  0  0  0
   16.0968  -12.1583  -17.2308 O   0  0  0  0  0  0  0  0  0  0  0  0
   23.4437   -9.1201  -15.1396 C   0  0  0  0  0  0  0  0  0  0  0  0
   22.4488   -9.1304  -13.9666 C   0  0  2  0  0  0  0  0  0  0  0  0
   21.9256  -10.5403  -13.9080 C   0  0  0  0  0  0  0  0  0  0  0  0
   21.3133   -8.1617  -14.1962 C   0  0  2  0  0  0  0  0  0  0  0  0
   20.4694   -8.5006  -15.3077 N   0  0  0  0  0  0  0  0  0  0  0  0
   21.7756   -6.8125  -14.3778 C   0  0  0  0  0  0  0  0  0  0  0  0
   22.4425   -6.2462  -13.4442 O   0  0  0  0  0  0  0  0  0  0  0  0
   21.5553   -6.0407  -15.5326 N   0  0  0  0  0  0  0  0  0  0  0  0
   22.0736   -4.6764  -15.6614 C   0  0  0  0  0  0  0  0  0  0  0  0
   21.0148   -3.6929  -15.3414 C   0  0  0  0  0  0  0  0  0  0  0  0
   20.7240   -3.3774  -14.0318 O   0  0  0  0  0  0  0  0  0  0  0  0
   20.3698   -3.1349  -16.2562 O   0  0  0  0  0  0  0  0  0  0  0  0
  2  3  1  0
  2  1  1  6
  4  8  1  0
  4  3  1  0
  5  4  2  0
  6  2  1  0
  7  6  2  0
 10 11  1  6
 10 12  1  0
 10  9  1  0
 12 13  1  6
 13  6  1  0
 14 12  1  0
 14 15  2  0
 16 14  1  0
 17 16  1  0
 17 18  1  0
 18 19  1  0
 20 18  2  0
M  END
$$$$
