DVG.pdb
     RDKit          3D

 20 19  0  0  1  0  0  0  0  0999 V2000
   18.5661  -12.5800  -15.6438 N   0  0  0  0  0  0  0  0  0  0  0  0
   18.7859  -11.2152  -16.1623 C   0  0  1  0  0  0  0  0  0  0  0  0
   17.4362  -10.5496  -16.1264 C   0  0  0  0  0  0  0  0  0  0  0  0
   16.4336  -11.1203  -17.0326 C   0  0  0  0  0  0  0  0  0  0  0  0
   16.6908  -11.6392  -18.1296 O   0  0  0  0  0  0  0  0  0  0  0  0
   19.7647  -10.5309  -15.2151 C   0  0  0  0  0  0  0  0  0  0  0  0
   19.5787  -10.5897  -13.9855 O   0  0  0  0  0  0  0  0  0  0  0  0
   15.0882  -11.0907  -16.6594 O   0  0  0  0  0  0  0  0  0  0  0  0
   23.6574   -9.7252  -16.7207 C   0  0  0  0  0  0  0  0  0  0  0  0
   23.2871   -9.7564  -15.2280 C   0  0  2  0  0  0  0  0  0  0  0  0
   23.3168  -11.2120  -14.8467 C   0  0  0  0  0  0  0  0  0  0  0  0
   21.9113   -9.1821  -14.9876 C   0  0  2  0  0  0  0  0  0  0  0  0
   20.8651   -9.8410  -15.7181 N   0  0  0  0  0  0  0  0  0  0  0  0
   21.8482   -7.7761  -15.2817 C   0  0  0  0  0  0  0  0  0  0  0  0
   21.6463   -7.3951  -16.4864 O   0  0  0  0  0  0  0  0  0  0  0  0
   21.9878   -6.7528  -14.3273 N   0  0  0  0  0  0  0  0  0  0  0  0
   21.9275   -5.3366  -14.6976 C   0  0  0  0  0  0  0  0  0  0  0  0
   21.9730   -4.4871  -13.4864 C   0  0  0  0  0  0  0  0  0  0  0  0
   22.0171   -3.1140  -13.5947 O   0  0  0  0  0  0  0  0  0  0  0  0
   21.9720   -5.0049  -12.3479 O   0  0  0  0  0  0  0  0  0  0  0  0
  2  3  1  0
  2  1  1  1
  4  8  1  0
  4  3  1  0
  5  4  2  0
  6  2  1  0
  7  6  2  0
 10 11  1  6
 10 12  1  0
 10  9  1  0
 12 13  1  6
 13  6  1  0
 14 12  1  0
 14 15  2  0
 16 14  1  0
 17 16  1  0
 17 18  1  0
 18 19  1  0
 20 18  2  0
M  END
$$$$
