DVG.pdb
     RDKit          3D

 20 19  0  0  1  0  0  0  0  0999 V2000
   18.0129  -11.8713  -15.8055 N   0  0  0  0  0  0  0  0  0  0  0  0
   18.0971  -10.4227  -16.0782 C   0  0  1  0  0  0  0  0  0  0  0  0
   16.6851   -9.9115  -15.9743 C   0  0  0  0  0  0  0  0  0  0  0  0
   15.8101  -10.2590  -17.0993 C   0  0  0  0  0  0  0  0  0  0  0  0
   16.1415  -10.9820  -18.0514 O   0  0  0  0  0  0  0  0  0  0  0  0
   18.9850   -9.8167  -14.9975 C   0  0  0  0  0  0  0  0  0  0  0  0
   18.9364  -10.2619  -13.8359 O   0  0  0  0  0  0  0  0  0  0  0  0
   14.5082   -9.7546  -17.1260 O   0  0  0  0  0  0  0  0  0  0  0  0
   22.6789   -8.2440  -16.1248 C   0  0  0  0  0  0  0  0  0  0  0  0
   22.2336   -8.5505  -14.6847 C   0  0  2  0  0  0  0  0  0  0  0  0
   22.3618  -10.0434  -14.5436 C   0  0  0  0  0  0  0  0  0  0  0  0
   20.8047   -8.1247  -14.4453 C   0  0  2  0  0  0  0  0  0  0  0  0
   19.8497   -8.7683  -15.3032 N   0  0  0  0  0  0  0  0  0  0  0  0
   20.6317   -6.7026  -14.5673 C   0  0  0  0  0  0  0  0  0  0  0  0
   20.3214   -6.2030  -15.7037 O   0  0  0  0  0  0  0  0  0  0  0  0
   20.7732   -5.7865  -13.5098 N   0  0  0  0  0  0  0  0  0  0  0  0
   20.6792   -4.3399  -13.7220 C   0  0  0  0  0  0  0  0  0  0  0  0
   21.9650   -3.8112  -14.2296 C   0  0  0  0  0  0  0  0  0  0  0  0
   22.0793   -2.4911  -14.6086 O   0  0  0  0  0  0  0  0  0  0  0  0
   22.9654   -4.5561  -14.3214 O   0  0  0  0  0  0  0  0  0  0  0  0
  2  3  1  0
  2  1  1  1
  4  8  1  0
  4  3  1  0
  5  4  2  0
  6  2  1  0
  7  6  2  0
 10 11  1  6
 10 12  1  0
 10  9  1  0
 12 13  1  6
 13  6  1  0
 14 12  1  0
 14 15  2  0
 16 14  1  0
 17 16  1  0
 17 18  1  0
 18 19  1  0
 20 18  2  0
M  END
$$$$
