DVG.pdb
     RDKit          3D

 20 19  0  0  1  0  0  0  0  0999 V2000
   20.1266  -11.5189  -19.8386 N   0  0  0  0  0  0  0  0  0  0  0  0
   21.1152  -10.7794  -19.0288 C   0  0  1  0  0  0  0  0  0  0  0  0
   22.0811  -10.1848  -20.0185 C   0  0  0  0  0  0  0  0  0  0  0  0
   22.9696  -11.1466  -20.6799 C   0  0  0  0  0  0  0  0  0  0  0  0
   23.3871  -12.1923  -20.1593 O   0  0  0  0  0  0  0  0  0  0  0  0
   20.3534   -9.6927  -18.2789 C   0  0  0  0  0  0  0  0  0  0  0  0
   19.5476   -8.9677  -18.8913 O   0  0  0  0  0  0  0  0  0  0  0  0
   23.3905  -10.8921  -21.9869 O   0  0  0  0  0  0  0  0  0  0  0  0
   18.3821   -8.2044  -14.0572 C   0  0  0  0  0  0  0  0  0  0  0  0
   18.9380   -9.2264  -15.0635 C   0  0  2  0  0  0  0  0  0  0  0  0
   19.6573  -10.2498  -14.2267 C   0  0  0  0  0  0  0  0  0  0  0  0
   19.8962   -8.5804  -16.0355 C   0  0  2  0  0  0  0  0  0  0  0  0
   20.5544   -9.5071  -16.9132 N   0  0  0  0  0  0  0  0  0  0  0  0
   20.9031   -7.7986  -15.3706 C   0  0  0  0  0  0  0  0  0  0  0  0
   21.8959   -8.3897  -14.8210 O   0  0  0  0  0  0  0  0  0  0  0  0
   20.8920   -6.3956  -15.2752 N   0  0  0  0  0  0  0  0  0  0  0  0
   21.9688   -5.6571  -14.6105 C   0  0  0  0  0  0  0  0  0  0  0  0
   21.7008   -5.5556  -13.1584 C   0  0  0  0  0  0  0  0  0  0  0  0
   22.6199   -4.9690  -12.3155 O   0  0  0  0  0  0  0  0  0  0  0  0
   20.6360   -6.0012  -12.6770 O   0  0  0  0  0  0  0  0  0  0  0  0
  2  3  1  0
  2  1  1  6
  4  8  1  0
  4  3  1  0
  5  4  2  0
  6  2  1  0
  7  6  2  0
 10 11  1  1
 10 12  1  0
 10  9  1  0
 12 13  1  1
 13  6  1  0
 14 12  1  0
 14 15  2  0
 16 14  1  0
 17 16  1  0
 17 18  1  0
 18 19  1  0
 20 18  2  0
M  END
$$$$
