DVG.pdb
     RDKit          3D

 20 19  0  0  1  0  0  0  0  0999 V2000
   19.1928  -13.3599  -16.4607 N   0  0  0  0  0  0  0  0  0  0  0  0
   19.6254  -12.0599  -17.0109 C   0  0  1  0  0  0  0  0  0  0  0  0
   18.3633  -11.2596  -17.1906 C   0  0  0  0  0  0  0  0  0  0  0  0
   17.3747  -11.8476  -18.1012 C   0  0  0  0  0  0  0  0  0  0  0  0
   16.1673  -11.9707  -17.8446 O   0  0  0  0  0  0  0  0  0  0  0  0
   20.5423  -11.4204  -15.9746 C   0  0  0  0  0  0  0  0  0  0  0  0
   20.1904  -11.3759  -14.7812 O   0  0  0  0  0  0  0  0  0  0  0  0
   17.7946  -12.3090  -19.3506 O   0  0  0  0  0  0  0  0  0  0  0  0
   25.1745   -9.9578  -14.8928 C   0  0  0  0  0  0  0  0  0  0  0  0
   24.1625  -10.7412  -15.7461 C   0  0  2  0  0  0  0  0  0  0  0  0
   24.5864  -10.5073  -17.1711 C   0  0  0  0  0  0  0  0  0  0  0  0
   22.7539  -10.2406  -15.5320 C   0  0  2  0  0  0  0  0  0  0  0  0
   21.7708  -10.8862  -16.3560 N   0  0  0  0  0  0  0  0  0  0  0  0
   22.6438   -8.8208  -15.7296 C   0  0  0  0  0  0  0  0  0  0  0  0
   22.6932   -8.3463  -16.9168 O   0  0  0  0  0  0  0  0  0  0  0  0
   22.4751   -7.8808  -14.6972 N   0  0  0  0  0  0  0  0  0  0  0  0
   22.4512   -6.4397  -14.9599 C   0  0  0  0  0  0  0  0  0  0  0  0
   22.2357   -5.6921  -13.7009 C   0  0  0  0  0  0  0  0  0  0  0  0
   21.9112   -6.3566  -12.5380 O   0  0  0  0  0  0  0  0  0  0  0  0
   22.3454   -4.4465  -13.6759 O   0  0  0  0  0  0  0  0  0  0  0  0
  2  3  1  0
  2  1  1  1
  4  8  1  0
  4  3  1  0
  5  4  2  0
  6  2  1  0
  7  6  2  0
 10 11  1  6
 10 12  1  0
 10  9  1  0
 12 13  1  6
 13  6  1  0
 14 12  1  0
 14 15  2  0
 16 14  1  0
 17 16  1  0
 17 18  1  0
 18 19  1  0
 20 18  2  0
M  END
$$$$
