LKI.pdb
     RDKit          3D

 26 25  0  0  1  0  0  0  0  0999 V2000
   27.6540  -16.9209  -17.9676 C   0  0  0  0  0  0  0  0  0  0  0  0
   27.8421  -18.1482  -17.1308 C   0  0  1  0  0  0  0  0  0  0  0  0
   29.2730  -18.3411  -16.6941 C   0  0  0  0  0  0  0  0  0  0  0  0
   26.9519  -18.0428  -15.8846 C   0  0  0  0  0  0  0  0  0  0  0  0
   27.4039  -19.1604  -14.9643 C   0  0  2  0  0  0  0  0  0  0  0  0
   27.3689  -20.4414  -15.6185 N   0  0  0  0  0  0  0  0  0  0  0  0
   26.6451  -19.1689  -13.6916 C   0  0  0  0  0  0  0  0  0  0  0  0
   26.5325  -18.0867  -13.0642 O   0  0  0  0  0  0  0  0  0  0  0  0
   26.0656  -20.3672  -13.2021 N   0  0  0  0  0  0  0  0  0  0  0  0
   25.2307  -20.4053  -12.0200 C   0  0  1  0  0  0  0  0  0  0  0  0
   24.0933  -21.3951  -12.1797 C   0  0  0  0  0  0  0  0  0  0  0  0
   22.7542  -20.7494  -12.1172 C   0  0  0  0  0  0  0  0  0  0  0  0
   22.0094  -20.9954  -13.4020 C   0  0  0  0  0  0  0  0  0  0  0  0
   20.6365  -20.4147  -13.4311 C   0  0  0  0  0  0  0  0  0  0  0  0
   20.1018  -20.6321  -14.7851 N   0  0  0  0  0  0  0  0  0  0  0  0
   26.0230  -20.7323  -10.8033 C   0  0  0  0  0  0  0  0  0  0  0  0
   26.9333  -21.6025  -10.9300 O   0  0  0  0  0  0  0  0  0  0  0  0
   29.0500  -19.2267   -6.0005 C   0  0  0  0  0  0  0  0  0  0  0  0
   28.0479  -20.1571   -6.5423 C   0  0  0  0  0  0  0  0  0  0  0  0
   27.2603  -19.8021   -7.7307 C   0  0  2  0  0  0  0  0  0  0  0  0
   26.6442  -18.4062   -7.6292 C   0  0  0  0  0  0  0  0  0  0  0  0
   26.2773  -20.7709   -8.2912 C   0  0  2  0  0  0  0  0  0  0  0  0
   25.8025  -20.1263   -9.5546 N   0  0  0  0  0  0  0  0  0  0  0  0
   25.1136  -21.1280   -7.5104 C   0  0  0  0  0  0  0  0  0  0  0  0
   25.1376  -21.9288   -6.5588 O   0  0  0  0  0  0  0  0  0  0  0  0
   23.8621  -20.5703   -7.7981 O   0  0  0  0  0  0  0  0  0  0  0  0
  2  3  1  1
  2  1  1  0
  4  2  1  0
  5  6  1  6
  5  4  1  0
  7  9  1  0
  7  5  1  0
  8  7  2  0
 10  9  1  0
 10 11  1  6
 11 12  1  0
 12 13  1  0
 13 14  1  0
 15 14  1  0
 16 10  1  0
 17 16  2  0
 18 19  1  0
 20 19  1  0
 20 22  1  0
 20 21  1  1
 22 24  1  0
 22 23  1  6
 23 16  1  0
 24 26  1  0
 25 24  2  0
M  END
$$$$
