LKI.pdb
     RDKit          3D

 26 25  0  0  1  0  0  0  0  0999 V2000
   17.8052  -11.9155  -17.6889 C   0  0  0  0  0  0  0  0  0  0  0  0
   17.8438  -12.0426  -16.1975 C   0  0  1  0  0  0  0  0  0  0  0  0
   19.2431  -12.2271  -15.6652 C   0  0  0  0  0  0  0  0  0  0  0  0
   17.2375  -10.7776  -15.5738 C   0  0  0  0  0  0  0  0  0  0  0  0
   17.2380  -11.0201  -14.0767 C   0  0  2  0  0  0  0  0  0  0  0  0
   16.5894  -12.2577  -13.7334 N   0  0  0  0  0  0  0  0  0  0  0  0
   16.6693   -9.8728  -13.3312 C   0  0  0  0  0  0  0  0  0  0  0  0
   16.9991   -8.7147  -13.6884 O   0  0  0  0  0  0  0  0  0  0  0  0
   15.7793  -10.0832  -12.2471 N   0  0  0  0  0  0  0  0  0  0  0  0
   15.1576   -8.9940  -11.5239 C   0  0  1  0  0  0  0  0  0  0  0  0
   13.9513   -9.4708  -10.7388 C   0  0  0  0  0  0  0  0  0  0  0  0
   13.2939   -8.3781   -9.9720 C   0  0  0  0  0  0  0  0  0  0  0  0
   11.9911   -8.8693   -9.4001 C   0  0  0  0  0  0  0  0  0  0  0  0
   11.2683   -7.8592   -8.5754 C   0  0  0  0  0  0  0  0  0  0  0  0
    9.9920   -8.4667   -8.1649 N   0  0  0  0  0  0  0  0  0  0  0  0
   16.1244   -8.3222  -10.6135 C   0  0  0  0  0  0  0  0  0  0  0  0
   16.6856   -9.0459   -9.7398 O   0  0  0  0  0  0  0  0  0  0  0  0
   20.5837   -6.8237  -11.8111 C   0  0  0  0  0  0  0  0  0  0  0  0
   19.3108   -7.0914  -11.1244 C   0  0  0  0  0  0  0  0  0  0  0  0
   18.5753   -6.0074  -10.4591 C   0  0  2  0  0  0  0  0  0  0  0  0
   19.4937   -5.0798   -9.6625 C   0  0  0  0  0  0  0  0  0  0  0  0
   17.3368   -6.3093   -9.6885 C   0  0  2  0  0  0  0  0  0  0  0  0
   16.4275   -6.9519  -10.6873 N   0  0  0  0  0  0  0  0  0  0  0  0
   16.6129   -5.2255   -9.0619 C   0  0  0  0  0  0  0  0  0  0  0  0
   15.7913   -4.5061   -9.6576 O   0  0  0  0  0  0  0  0  0  0  0  0
   16.8090   -4.9241   -7.7088 O   0  0  0  0  0  0  0  0  0  0  0  0
  2  3  1  1
  2  1  1  0
  4  2  1  0
  5  6  1  6
  5  4  1  0
  7  9  1  0
  7  5  1  0
  8  7  2  0
 10  9  1  0
 10 11  1  1
 11 12  1  0
 12 13  1  0
 13 14  1  0
 15 14  1  0
 16 10  1  0
 17 16  2  0
 18 19  1  0
 20 19  1  0
 20 22  1  0
 20 21  1  1
 22 24  1  0
 22 23  1  6
 23 16  1  0
 24 26  1  0
 25 24  2  0
M  END
$$$$
