LKI.pdb
     RDKit          3D

 26 25  0  0  1  0  0  0  0  0999 V2000
   14.9254  -13.3625  -14.7709 C   0  0  0  0  0  0  0  0  0  0  0  0
   15.5298  -12.5739  -15.8910 C   0  0  1  0  0  0  0  0  0  0  0  0
   14.7291  -11.3424  -16.2341 C   0  0  0  0  0  0  0  0  0  0  0  0
   16.9496  -12.1483  -15.4912 C   0  0  0  0  0  0  0  0  0  0  0  0
   17.8495  -12.6206  -16.6170 C   0  0  2  0  0  0  0  0  0  0  0  0
   18.0076  -14.0507  -16.6135 N   0  0  0  0  0  0  0  0  0  0  0  0
   19.1553  -11.9202  -16.6111 C   0  0  0  0  0  0  0  0  0  0  0  0
   19.7572  -11.8026  -15.5151 O   0  0  0  0  0  0  0  0  0  0  0  0
   19.7035  -11.4004  -17.8114 N   0  0  0  0  0  0  0  0  0  0  0  0
   20.9206  -10.6170  -17.8394 C   0  0  1  0  0  0  0  0  0  0  0  0
   21.4682  -10.4989  -19.2483 C   0  0  0  0  0  0  0  0  0  0  0  0
   22.7526   -9.7500  -19.3067 C   0  0  0  0  0  0  0  0  0  0  0  0
   23.2840   -9.7587  -20.7150 C   0  0  0  0  0  0  0  0  0  0  0  0
   24.6084   -9.0918  -20.8707 C   0  0  0  0  0  0  0  0  0  0  0  0
   25.0583   -9.3366  -22.2506 N   0  0  0  0  0  0  0  0  0  0  0  0
   20.7106   -9.2625  -17.2597 C   0  0  0  0  0  0  0  0  0  0  0  0
   19.6063   -8.6973  -17.5111 O   0  0  0  0  0  0  0  0  0  0  0  0
   20.5590   -6.6831  -12.0971 C   0  0  0  0  0  0  0  0  0  0  0  0
   20.8476   -6.4246  -13.5160 C   0  0  0  0  0  0  0  0  0  0  0  0
   21.1666   -7.5300  -14.4298 C   0  0  2  0  0  0  0  0  0  0  0  0
   22.2572   -8.4491  -13.8783 C   0  0  0  0  0  0  0  0  0  0  0  0
   21.3890   -7.2606  -15.8778 C   0  0  2  0  0  0  0  0  0  0  0  0
   21.6674   -8.6075  -16.4657 N   0  0  0  0  0  0  0  0  0  0  0  0
   22.4592   -6.3729  -16.2750 C   0  0  0  0  0  0  0  0  0  0  0  0
   23.6296   -6.7447  -16.4730 O   0  0  0  0  0  0  0  0  0  0  0  0
   22.2207   -5.0060  -16.4622 O   0  0  0  0  0  0  0  0  0  0  0  0
  2  3  1  1
  2  1  1  0
  4  2  1  0
  5  6  1  1
  5  4  1  0
  7  9  1  0
  7  5  1  0
  8  7  2  0
 10  9  1  0
 10 11  1  6
 11 12  1  0
 12 13  1  0
 13 14  1  0
 15 14  1  0
 16 10  1  0
 17 16  2  0
 18 19  1  0
 20 19  1  0
 20 22  1  0
 20 21  1  1
 22 24  1  0
 22 23  1  6
 23 16  1  0
 24 26  1  0
 25 24  2  0
M  END
$$$$
