LKI.pdb
     RDKit          3D

 26 25  0  0  1  0  0  0  0  0999 V2000
   28.1037  -16.3851  -17.7387 C   0  0  0  0  0  0  0  0  0  0  0  0
   28.2559  -17.6409  -16.9378 C   0  0  1  0  0  0  0  0  0  0  0  0
   29.6993  -18.0031  -16.6918 C   0  0  0  0  0  0  0  0  0  0  0  0
   27.5518  -17.4580  -15.5859 C   0  0  0  0  0  0  0  0  0  0  0  0
   27.8746  -18.7052  -14.7856 C   0  0  2  0  0  0  0  0  0  0  0  0
   27.9433  -19.8754  -15.6199 N   0  0  0  0  0  0  0  0  0  0  0  0
   26.9405  -18.8900  -13.6503 C   0  0  0  0  0  0  0  0  0  0  0  0
   26.7157  -17.9048  -12.9044 O   0  0  0  0  0  0  0  0  0  0  0  0
   26.3219  -20.1450  -13.4184 N   0  0  0  0  0  0  0  0  0  0  0  0
   25.3500  -20.3546  -12.3661 C   0  0  1  0  0  0  0  0  0  0  0  0
   24.3477  -21.4267  -12.7465 C   0  0  0  0  0  0  0  0  0  0  0  0
   23.1376  -21.4178  -11.8808 C   0  0  0  0  0  0  0  0  0  0  0  0
   21.9470  -20.9495  -12.6738 C   0  0  0  0  0  0  0  0  0  0  0  0
   20.6776  -20.8969  -11.8936 C   0  0  0  0  0  0  0  0  0  0  0  0
   19.9901  -22.1825  -12.0959 N   0  0  0  0  0  0  0  0  0  0  0  0
   26.0081  -20.7068  -11.0786 C   0  0  0  0  0  0  0  0  0  0  0  0
   26.9066  -21.5972  -11.1199 O   0  0  0  0  0  0  0  0  0  0  0  0
   29.1466  -18.6828   -7.6976 C   0  0  0  0  0  0  0  0  0  0  0  0
   28.2525  -19.6595   -8.3380 C   0  0  0  0  0  0  0  0  0  0  0  0
   26.8837  -19.8599   -7.8434 C   0  0  2  0  0  0  0  0  0  0  0  0
   26.8363  -20.1039   -6.3345 C   0  0  0  0  0  0  0  0  0  0  0  0
   25.9615  -20.7884   -8.5550 C   0  0  2  0  0  0  0  0  0  0  0  0
   25.6766  -20.1030   -9.8536 N   0  0  0  0  0  0  0  0  0  0  0  0
   24.6952  -21.1306   -7.9463 C   0  0  0  0  0  0  0  0  0  0  0  0
   23.6286  -20.5378   -8.1874 O   0  0  0  0  0  0  0  0  0  0  0  0
   24.6065  -22.1813   -7.0252 O   0  0  0  0  0  0  0  0  0  0  0  0
  2  3  1  1
  2  1  1  0
  4  2  1  0
  5  6  1  6
  5  4  1  0
  7  9  1  0
  7  5  1  0
  8  7  2  0
 10  9  1  0
 10 11  1  6
 11 12  1  0
 12 13  1  0
 13 14  1  0
 15 14  1  0
 16 10  1  0
 17 16  2  0
 18 19  1  0
 20 19  1  0
 20 22  1  0
 20 21  1  1
 22 24  1  0
 22 23  1  6
 23 16  1  0
 24 26  1  0
 25 24  2  0
M  END
$$$$
