LKI.pdb
     RDKit          3D

 26 25  0  0  1  0  0  0  0  0999 V2000
   14.6198  -12.1123  -19.4355 C   0  0  0  0  0  0  0  0  0  0  0  0
   15.8325  -12.8445  -18.9507 C   0  0  1  0  0  0  0  0  0  0  0  0
   16.8638  -13.0432  -20.0333 C   0  0  0  0  0  0  0  0  0  0  0  0
   16.4666  -12.0508  -17.7997 C   0  0  0  0  0  0  0  0  0  0  0  0
   17.6898  -12.8442  -17.3821 C   0  0  2  0  0  0  0  0  0  0  0  0
   17.3339  -14.0570  -16.6947 N   0  0  0  0  0  0  0  0  0  0  0  0
   18.6396  -12.0219  -16.5964 C   0  0  0  0  0  0  0  0  0  0  0  0
   18.2183  -11.4730  -15.5483 O   0  0  0  0  0  0  0  0  0  0  0  0
   19.9836  -11.8637  -17.0210 N   0  0  0  0  0  0  0  0  0  0  0  0
   20.9537  -11.0923  -16.2729 C   0  0  1  0  0  0  0  0  0  0  0  0
   22.3712  -11.5036  -16.6197 C   0  0  0  0  0  0  0  0  0  0  0  0
   22.7585  -12.8057  -16.0128 C   0  0  0  0  0  0  0  0  0  0  0  0
   24.2264  -13.0547  -16.2343 C   0  0  0  0  0  0  0  0  0  0  0  0
   24.7092  -14.3624  -15.7053 C   0  0  0  0  0  0  0  0  0  0  0  0
   26.1408  -14.4611  -16.0325 N   0  0  0  0  0  0  0  0  0  0  0  0
   20.7782   -9.6315  -16.4967 C   0  0  0  0  0  0  0  0  0  0  0  0
   20.7374   -9.2376  -17.6988 O   0  0  0  0  0  0  0  0  0  0  0  0
   17.0128   -5.5667  -16.4000 C   0  0  0  0  0  0  0  0  0  0  0  0
   18.4559   -5.7422  -16.1765 C   0  0  0  0  0  0  0  0  0  0  0  0
   19.0184   -7.0751  -15.9202 C   0  0  2  0  0  0  0  0  0  0  0  0
   18.2471   -7.8387  -14.8430 C   0  0  0  0  0  0  0  0  0  0  0  0
   20.4867   -7.2421  -15.7332 C   0  0  2  0  0  0  0  0  0  0  0  0
   20.6597   -8.7006  -15.4505 N   0  0  0  0  0  0  0  0  0  0  0  0
   21.1536   -6.5042  -14.6835 C   0  0  0  0  0  0  0  0  0  0  0  0
   21.4885   -5.3102  -14.7819 O   0  0  0  0  0  0  0  0  0  0  0  0
   21.4646   -7.1194  -13.4649 O   0  0  0  0  0  0  0  0  0  0  0  0
  2  3  1  6
  2  1  1  0
  4  2  1  0
  5  6  1  1
  5  4  1  0
  7  9  1  0
  7  5  1  0
  8  7  2  0
 10  9  1  0
 10 11  1  6
 11 12  1  0
 12 13  1  0
 13 14  1  0
 15 14  1  0
 16 10  1  0
 17 16  2  0
 18 19  1  0
 20 19  1  0
 20 22  1  0
 20 21  1  1
 22 24  1  0
 22 23  1  1
 23 16  1  0
 24 26  1  0
 25 24  2  0
M  END
$$$$
