LKI.pdb
     RDKit          3D

 26 25  0  0  1  0  0  0  0  0999 V2000
   28.3431  -17.3956  -19.5469 C   0  0  0  0  0  0  0  0  0  0  0  0
   28.3565  -18.5565  -18.6015 C   0  0  1  0  0  0  0  0  0  0  0  0
   29.7350  -19.1398  -18.4154 C   0  0  0  0  0  0  0  0  0  0  0  0
   27.8239  -18.0946  -17.2378 C   0  0  0  0  0  0  0  0  0  0  0  0
   27.9391  -19.3002  -16.3249 C   0  0  2  0  0  0  0  0  0  0  0  0
   27.6902  -20.5310  -17.0274 N   0  0  0  0  0  0  0  0  0  0  0  0
   27.0825  -19.1669  -15.1232 C   0  0  0  0  0  0  0  0  0  0  0  0
   27.1583  -18.1035  -14.4591 O   0  0  0  0  0  0  0  0  0  0  0  0
   26.2050  -20.2131  -14.7397 N   0  0  0  0  0  0  0  0  0  0  0  0
   25.2598  -20.0806  -13.6512 C   0  0  1  0  0  0  0  0  0  0  0  0
   23.9017  -20.6388  -14.0290 C   0  0  0  0  0  0  0  0  0  0  0  0
   23.1092  -19.7046  -14.8737 C   0  0  0  0  0  0  0  0  0  0  0  0
   21.8095  -20.3529  -15.2689 C   0  0  0  0  0  0  0  0  0  0  0  0
   20.9380  -19.4983  -16.1251 C   0  0  0  0  0  0  0  0  0  0  0  0
   20.5404  -18.3352  -15.3156 N   0  0  0  0  0  0  0  0  0  0  0  0
   25.7563  -20.7430  -12.4144 C   0  0  0  0  0  0  0  0  0  0  0  0
   26.2151  -21.9161  -12.5383 O   0  0  0  0  0  0  0  0  0  0  0  0
   28.7782  -19.6786   -7.3425 C   0  0  0  0  0  0  0  0  0  0  0  0
   27.7869  -20.5199   -8.0301 C   0  0  0  0  0  0  0  0  0  0  0  0
   27.0665  -20.0188   -9.2084 C   0  0  2  0  0  0  0  0  0  0  0  0
   26.4754  -18.6263   -8.9847 C   0  0  0  0  0  0  0  0  0  0  0  0
   26.0923  -20.8956   -9.9162 C   0  0  2  0  0  0  0  0  0  0  0  0
   25.7344  -20.1297  -11.1502 N   0  0  0  0  0  0  0  0  0  0  0  0
   24.8627  -21.2663   -9.2514 C   0  0  0  0  0  0  0  0  0  0  0  0
   23.7606  -20.7419   -9.4916 O   0  0  0  0  0  0  0  0  0  0  0  0
   24.8540  -22.2672   -8.2725 O   0  0  0  0  0  0  0  0  0  0  0  0
  2  3  1  1
  2  1  1  0
  4  2  1  0
  5  6  1  6
  5  4  1  0
  7  9  1  0
  7  5  1  0
  8  7  2  0
 10  9  1  0
 10 11  1  6
 11 12  1  0
 12 13  1  0
 13 14  1  0
 15 14  1  0
 16 10  1  0
 17 16  2  0
 18 19  1  0
 20 19  1  0
 20 22  1  0
 20 21  1  1
 22 24  1  0
 22 23  1  6
 23 16  1  0
 24 26  1  0
 25 24  2  0
M  END
$$$$
