LKI.pdb
     RDKit          3D

 26 25  0  0  1  0  0  0  0  0999 V2000
   28.4597  -16.4282  -17.4390 C   0  0  0  0  0  0  0  0  0  0  0  0
   28.0944  -17.7358  -16.8078 C   0  0  1  0  0  0  0  0  0  0  0  0
   29.1459  -18.7969  -17.0169 C   0  0  0  0  0  0  0  0  0  0  0  0
   27.8955  -17.5232  -15.3005 C   0  0  0  0  0  0  0  0  0  0  0  0
   27.7727  -18.9126  -14.7050 C   0  0  2  0  0  0  0  0  0  0  0  0
   27.4228  -19.8931  -15.6982 N   0  0  0  0  0  0  0  0  0  0  0  0
   26.8435  -18.9388  -13.5511 C   0  0  0  0  0  0  0  0  0  0  0  0
   26.9458  -18.0303  -12.6900 O   0  0  0  0  0  0  0  0  0  0  0  0
   25.8697  -19.9626  -13.4287 N   0  0  0  0  0  0  0  0  0  0  0  0
   24.9140  -20.0061  -12.3422 C   0  0  1  0  0  0  0  0  0  0  0  0
   23.6273  -20.6868  -12.7663 C   0  0  0  0  0  0  0  0  0  0  0  0
   22.5871  -20.6676  -11.7025 C   0  0  0  0  0  0  0  0  0  0  0  0
   21.3213  -21.2999  -12.2159 C   0  0  0  0  0  0  0  0  0  0  0  0
   20.1976  -21.2964  -11.2360 C   0  0  0  0  0  0  0  0  0  0  0  0
   19.0347  -21.8998  -11.9069 N   0  0  0  0  0  0  0  0  0  0  0  0
   25.4796  -20.6868  -11.1457 C   0  0  0  0  0  0  0  0  0  0  0  0
   26.0788  -21.7843  -11.3414 O   0  0  0  0  0  0  0  0  0  0  0  0
   28.4130  -19.5829   -6.0446 C   0  0  0  0  0  0  0  0  0  0  0  0
   27.5379  -20.5003   -6.7903 C   0  0  0  0  0  0  0  0  0  0  0  0
   26.7532  -20.0220   -7.9367 C   0  0  2  0  0  0  0  0  0  0  0  0
   26.0464  -18.6965   -7.6502 C   0  0  0  0  0  0  0  0  0  0  0  0
   25.8462  -20.9552   -8.6616 C   0  0  2  0  0  0  0  0  0  0  0  0
   25.3748  -20.1689   -9.8434 N   0  0  0  0  0  0  0  0  0  0  0  0
   24.6812  -21.4779   -7.9827 C   0  0  0  0  0  0  0  0  0  0  0  0
   23.5283  -21.0421   -8.1510 O   0  0  0  0  0  0  0  0  0  0  0  0
   24.7996  -22.5353   -7.0728 O   0  0  0  0  0  0  0  0  0  0  0  0
  2  3  1  1
  2  1  1  0
  4  2  1  0
  5  6  1  6
  5  4  1  0
  7  9  1  0
  7  5  1  0
  8  7  2  0
 10  9  1  0
 10 11  1  6
 11 12  1  0
 12 13  1  0
 13 14  1  0
 15 14  1  0
 16 10  1  0
 17 16  2  0
 18 19  1  0
 20 19  1  0
 20 22  1  0
 20 21  1  1
 22 24  1  0
 22 23  1  6
 23 16  1  0
 24 26  1  0
 25 24  2  0
M  END
$$$$
