LKI.pdb
     RDKit          3D

 26 25  0  0  1  0  0  0  0  0999 V2000
   19.8167  -27.9904   -9.9044 C   0  0  0  0  0  0  0  0  0  0  0  0
   20.5837  -29.0447  -10.6406 C   0  0  1  0  0  0  0  0  0  0  0  0
   21.6625  -28.4694  -11.5241 C   0  0  0  0  0  0  0  0  0  0  0  0
   21.2296  -29.9940   -9.6214 C   0  0  0  0  0  0  0  0  0  0  0  0
   21.9830  -31.0228  -10.4424 C   0  0  2  0  0  0  0  0  0  0  0  0
   21.1135  -31.7318  -11.3432 N   0  0  0  0  0  0  0  0  0  0  0  0
   22.7649  -31.9465   -9.5874 C   0  0  0  0  0  0  0  0  0  0  0  0
   22.1452  -32.8506   -8.9742 O   0  0  0  0  0  0  0  0  0  0  0  0
   24.1715  -31.8082   -9.4694 N   0  0  0  0  0  0  0  0  0  0  0  0
   24.9787  -32.6960   -8.6594 C   0  0  1  0  0  0  0  0  0  0  0  0
   26.4551  -32.5281   -8.9610 C   0  0  0  0  0  0  0  0  0  0  0  0
   27.3070  -33.5075   -8.2337 C   0  0  0  0  0  0  0  0  0  0  0  0
   27.3232  -34.8178   -8.9746 C   0  0  0  0  0  0  0  0  0  0  0  0
   28.1539  -35.8734   -8.3275 C   0  0  0  0  0  0  0  0  0  0  0  0
   28.0746  -37.0710   -9.1794 N   0  0  0  0  0  0  0  0  0  0  0  0
   24.7288  -32.4873   -7.2073 C   0  0  0  0  0  0  0  0  0  0  0  0
   24.8282  -31.3023   -6.7740 O   0  0  0  0  0  0  0  0  0  0  0  0
   20.4045  -34.1522   -4.6176 C   0  0  0  0  0  0  0  0  0  0  0  0
   21.6536  -33.4408   -4.9292 C   0  0  0  0  0  0  0  0  0  0  0  0
   22.9525  -33.9920   -4.5198 C   0  0  2  0  0  0  0  0  0  0  0  0
   22.9662  -34.4326   -3.0555 C   0  0  0  0  0  0  0  0  0  0  0  0
   24.2105  -33.2721   -4.8636 C   0  0  2  0  0  0  0  0  0  0  0  0
   24.3958  -33.5296   -6.3253 N   0  0  0  0  0  0  0  0  0  0  0  0
   25.4380  -33.6334   -4.1899 C   0  0  0  0  0  0  0  0  0  0  0  0
   25.8147  -33.1263   -3.1184 O   0  0  0  0  0  0  0  0  0  0  0  0
   26.2897  -34.6045   -4.7300 O   0  0  0  0  0  0  0  0  0  0  0  0
  2  3  1  1
  2  1  1  0
  4  2  1  0
  5  6  1  1
  5  4  1  0
  7  9  1  0
  7  5  1  0
  8  7  2  0
 10  9  1  0
 10 11  1  1
 11 12  1  0
 12 13  1  0
 13 14  1  0
 15 14  1  0
 16 10  1  0
 17 16  2  0
 18 19  1  0
 20 19  1  0
 20 22  1  0
 20 21  1  1
 22 24  1  0
 22 23  1  6
 23 16  1  0
 24 26  1  0
 25 24  2  0
M  END
$$$$
