LKI.pdb
     RDKit          3D

 26 25  0  0  1  0  0  0  0  0999 V2000
   19.0871  -28.5466  -19.3988 C   0  0  0  0  0  0  0  0  0  0  0  0
   20.4886  -28.7354  -18.9069 C   0  0  1  0  0  0  0  0  0  0  0  0
   21.5178  -28.1567  -19.8456 C   0  0  0  0  0  0  0  0  0  0  0  0
   20.6306  -28.0596  -17.5358 C   0  0  0  0  0  0  0  0  0  0  0  0
   22.0981  -28.1793  -17.1718 C   0  0  2  0  0  0  0  0  0  0  0  0
   22.3947  -29.4407  -16.5464 N   0  0  0  0  0  0  0  0  0  0  0  0
   22.5590  -27.0341  -16.3522 C   0  0  0  0  0  0  0  0  0  0  0  0
   22.1830  -26.9756  -15.1553 O   0  0  0  0  0  0  0  0  0  0  0  0
   23.3998  -26.0370  -16.9092 N   0  0  0  0  0  0  0  0  0  0  0  0
   23.8855  -24.9079  -16.1442 C   0  0  1  0  0  0  0  0  0  0  0  0
   25.2839  -24.5106  -16.5748 C   0  0  0  0  0  0  0  0  0  0  0  0
   26.3051  -25.5389  -16.2371 C   0  0  0  0  0  0  0  0  0  0  0  0
   27.6456  -25.1239  -16.7817 C   0  0  0  0  0  0  0  0  0  0  0  0
   28.7472  -26.0840  -16.4856 C   0  0  0  0  0  0  0  0  0  0  0  0
   29.9535  -25.5834  -17.1644 N   0  0  0  0  0  0  0  0  0  0  0  0
   22.9685  -23.7408  -16.2530 C   0  0  0  0  0  0  0  0  0  0  0  0
   22.7488  -23.2920  -17.4158 O   0  0  0  0  0  0  0  0  0  0  0  0
   17.6186  -21.9612  -14.7008 C   0  0  0  0  0  0  0  0  0  0  0  0
   18.9735  -21.4973  -15.0360 C   0  0  0  0  0  0  0  0  0  0  0  0
   20.1117  -22.4260  -15.0104 C   0  0  2  0  0  0  0  0  0  0  0  0
   20.1129  -23.3162  -13.7671 C   0  0  0  0  0  0  0  0  0  0  0  0
   21.4856  -21.9307  -15.3034 C   0  0  2  0  0  0  0  0  0  0  0  0
   22.3555  -23.1368  -15.1420 N   0  0  0  0  0  0  0  0  0  0  0  0
   22.0421  -20.8702  -14.4929 C   0  0  0  0  0  0  0  0  0  0  0  0
   21.6719  -19.6843  -14.5552 O   0  0  0  0  0  0  0  0  0  0  0  0
   23.0586  -21.1369  -13.5678 O   0  0  0  0  0  0  0  0  0  0  0  0
  2  3  1  6
  2  1  1  0
  4  2  1  0
  5  6  1  1
  5  4  1  0
  7  9  1  0
  7  5  1  0
  8  7  2  0
 10  9  1  0
 10 11  1  6
 11 12  1  0
 12 13  1  0
 13 14  1  0
 15 14  1  0
 16 10  1  0
 17 16  2  0
 18 19  1  0
 20 19  1  0
 20 22  1  0
 20 21  1  1
 22 24  1  0
 22 23  1  1
 23 16  1  0
 24 26  1  0
 25 24  2  0
M  END
$$$$
