GQI.pdb
     RDKit          3D

 22 21  0  0  1  0  0  0  0  0999 V2000
   24.1025  -25.7287  -14.8467 N   0  0  0  0  0  0  0  0  0  0  0  0
   23.6701  -24.3688  -14.6756 C   0  0  0  0  0  0  0  0  0  0  0  0
   24.7376  -23.5829  -13.9830 C   0  0  0  0  0  0  0  0  0  0  0  0
   25.6621  -24.1945  -13.3844 O   0  0  0  0  0  0  0  0  0  0  0  0
   28.5275  -20.4384  -14.2579 N   0  0  0  0  0  0  0  0  0  0  0  0
   27.7591  -20.3149  -15.4451 C   0  0  0  0  0  0  0  0  0  0  0  0
   28.3447  -20.4212  -16.5469 O   0  0  0  0  0  0  0  0  0  0  0  0
   26.2727  -20.0619  -15.4184 C   0  0  0  0  0  0  0  0  0  0  0  0
   25.8294  -20.0851  -14.0052 C   0  0  0  0  0  0  0  0  0  0  0  0
   25.8611  -21.4259  -13.3186 C   0  0  2  0  0  0  0  0  0  0  0  0
   24.7707  -22.1801  -13.9602 N   0  0  0  0  0  0  0  0  0  0  0  0
   25.5224  -21.3149  -11.8848 C   0  0  0  0  0  0  0  0  0  0  0  0
   24.3063  -21.4522  -11.5506 O   0  0  0  0  0  0  0  0  0  0  0  0
   27.4232  -19.5488   -6.2566 C   0  0  0  0  0  0  0  0  0  0  0  0
   26.5919  -20.4012   -7.1623 C   0  0  0  0  0  0  0  0  0  0  0  0
   27.1366  -20.4128   -8.5885 C   0  0  2  0  0  0  0  0  0  0  0  0
   27.4436  -18.9825   -8.9685 C   0  0  0  0  0  0  0  0  0  0  0  0
   26.0230  -20.9136   -9.5047 C   0  0  2  0  0  0  0  0  0  0  0  0
   26.4879  -21.0659  -10.8552 N   0  0  0  0  0  0  0  0  0  0  0  0
   24.8571  -19.9996   -9.4214 C   0  0  0  0  0  0  0  0  0  0  0  0
   23.7867  -20.2355   -8.5784 O   0  0  0  0  0  0  0  0  0  0  0  0
   24.7811  -18.9487  -10.1232 O   0  0  0  0  0  0  0  0  0  0  0  0
  2  3  1  0
  2  1  1  0
  3 11  1  0
  4  3  2  0
  6  8  1  0
  6  5  1  0
  7  6  2  0
  9  8  1  0
 10  9  1  6
 10 12  1  0
 11 10  1  0
 12 13  2  0
 12 19  1  0
 15 14  1  0
 15 16  1  0
 16 18  1  0
 16 17  1  6
 18 20  1  0
 18 19  1  6
 20 21  1  0
 22 20  2  0
M  END
$$$$
