GQI.pdb
     RDKit          3D

 22 21  0  0  1  0  0  0  0  0999 V2000
   28.7617  -20.7247  -16.8484 N   0  0  0  0  0  0  0  0  0  0  0  0
   27.4502  -21.1582  -17.2456 C   0  0  0  0  0  0  0  0  0  0  0  0
   26.4139  -20.3988  -16.4799 C   0  0  0  0  0  0  0  0  0  0  0  0
   26.7587  -19.7432  -15.4609 O   0  0  0  0  0  0  0  0  0  0  0  0
   20.4871  -18.2217  -17.4664 N   0  0  0  0  0  0  0  0  0  0  0  0
   21.6174  -17.4101  -17.7474 C   0  0  0  0  0  0  0  0  0  0  0  0
   21.4303  -16.2008  -18.0135 O   0  0  0  0  0  0  0  0  0  0  0  0
   23.0229  -17.9563  -17.7351 C   0  0  0  0  0  0  0  0  0  0  0  0
   22.9873  -19.2982  -17.1087 C   0  0  0  0  0  0  0  0  0  0  0  0
   24.0591  -19.5869  -16.0899 C   0  0  2  0  0  0  0  0  0  0  0  0
   25.0567  -20.3730  -16.8358 N   0  0  0  0  0  0  0  0  0  0  0  0
   23.5597  -20.4491  -14.9990 C   0  0  0  0  0  0  0  0  0  0  0  0
   23.5490  -21.7030  -15.1920 O   0  0  0  0  0  0  0  0  0  0  0  0
   24.2835  -21.5906   -9.2341 C   0  0  0  0  0  0  0  0  0  0  0  0
   23.4341  -21.7373  -10.4567 C   0  0  0  0  0  0  0  0  0  0  0  0
   23.6912  -20.6190  -11.4637 C   0  0  2  0  0  0  0  0  0  0  0  0
   23.2201  -19.3269  -10.8370 C   0  0  0  0  0  0  0  0  0  0  0  0
   22.8221  -20.8911  -12.6889 C   0  0  2  0  0  0  0  0  0  0  0  0
   23.0924  -19.9497  -13.7394 N   0  0  0  0  0  0  0  0  0  0  0  0
   21.3907  -20.8872  -12.2981 C   0  0  0  0  0  0  0  0  0  0  0  0
   20.7670  -21.9927  -11.7496 O   0  0  0  0  0  0  0  0  0  0  0  0
   20.6605  -19.8639  -12.4479 O   0  0  0  0  0  0  0  0  0  0  0  0
  2  3  1  0
  2  1  1  0
  3 11  1  0
  4  3  2  0
  6  8  1  0
  6  5  1  0
  7  6  2  0
  9  8  1  0
 10  9  1  6
 10 12  1  0
 11 10  1  0
 12 13  2  0
 12 19  1  0
 15 14  1  0
 15 16  1  0
 16 18  1  0
 16 17  1  1
 18 20  1  0
 18 19  1  6
 20 21  1  0
 22 20  2  0
M  END
$$$$
