GQI.pdb
     RDKit          3D

 22 21  0  0  1  0  0  0  0  0999 V2000
   19.9894  -21.4291  -13.7782 N   0  0  0  0  0  0  0  0  0  0  0  0
   20.2976  -20.6217  -14.9265 C   0  0  0  0  0  0  0  0  0  0  0  0
   21.7293  -20.1923  -14.8725 C   0  0  0  0  0  0  0  0  0  0  0  0
   22.2296  -19.8554  -13.7665 O   0  0  0  0  0  0  0  0  0  0  0  0
   27.5924  -20.3537  -14.7953 N   0  0  0  0  0  0  0  0  0  0  0  0
   26.7990  -21.1236  -15.6858 C   0  0  0  0  0  0  0  0  0  0  0  0
   26.6282  -22.3380  -15.4326 O   0  0  0  0  0  0  0  0  0  0  0  0
   26.1622  -20.5274  -16.9160 C   0  0  0  0  0  0  0  0  0  0  0  0
   24.6958  -20.7039  -16.8039 C   0  0  0  0  0  0  0  0  0  0  0  0
   23.9712  -19.7186  -15.9239 C   0  0  2  0  0  0  0  0  0  0  0  0
   22.5625  -20.1419  -16.0005 N   0  0  0  0  0  0  0  0  0  0  0  0
   24.0386  -18.3464  -16.4674 C   0  0  0  0  0  0  0  0  0  0  0  0
   23.1966  -18.0195  -17.3583 O   0  0  0  0  0  0  0  0  0  0  0  0
   24.1505  -12.5981  -15.2136 C   0  0  0  0  0  0  0  0  0  0  0  0
   24.4172  -13.6787  -16.2131 C   0  0  0  0  0  0  0  0  0  0  0  0
   24.8572  -14.9771  -15.5411 C   0  0  2  0  0  0  0  0  0  0  0  0
   26.2529  -14.7594  -15.0036 C   0  0  0  0  0  0  0  0  0  0  0  0
   24.9321  -16.0541  -16.6204 C   0  0  2  0  0  0  0  0  0  0  0  0
   24.9957  -17.3676  -16.0428 N   0  0  0  0  0  0  0  0  0  0  0  0
   26.0856  -15.7871  -17.5148 C   0  0  0  0  0  0  0  0  0  0  0  0
   27.2745  -16.4872  -17.4233 O   0  0  0  0  0  0  0  0  0  0  0  0
   26.0409  -14.8978  -18.4147 O   0  0  0  0  0  0  0  0  0  0  0  0
  2  3  1  0
  2  1  1  0
  3 11  1  0
  4  3  2  0
  6  8  1  0
  6  5  1  0
  7  6  2  0
  9  8  1  0
 10  9  1  6
 10 12  1  0
 11 10  1  0
 12 13  2  0
 12 19  1  0
 15 14  1  0
 15 16  1  0
 16 18  1  0
 16 17  1  6
 18 20  1  0
 18 19  1  1
 20 21  1  0
 22 20  2  0
M  END
$$$$
