GQI.pdb
     RDKit          3D

 22 21  0  0  1  0  0  0  0  0999 V2000
   28.2305  -19.8845  -15.6308 N   0  0  0  0  0  0  0  0  0  0  0  0
   28.3054  -18.7594  -14.7397 C   0  0  0  0  0  0  0  0  0  0  0  0
   27.3192  -18.9291  -13.6282 C   0  0  0  0  0  0  0  0  0  0  0  0
   26.9732  -17.9232  -12.9533 O   0  0  0  0  0  0  0  0  0  0  0  0
   22.4095  -20.3866  -11.8881 N   0  0  0  0  0  0  0  0  0  0  0  0
   22.5976  -20.2406  -13.2876 C   0  0  0  0  0  0  0  0  0  0  0  0
   21.7659  -19.5618  -13.9323 O   0  0  0  0  0  0  0  0  0  0  0  0
   23.7584  -20.8729  -14.0134 C   0  0  0  0  0  0  0  0  0  0  0  0
   24.7337  -21.3378  -13.0001 C   0  0  0  0  0  0  0  0  0  0  0  0
   25.5985  -20.2764  -12.3711 C   0  0  2  0  0  0  0  0  0  0  0  0
   26.7467  -20.1640  -13.2868 N   0  0  0  0  0  0  0  0  0  0  0  0
   26.1318  -20.7089  -11.0629 C   0  0  0  0  0  0  0  0  0  0  0  0
   26.9193  -21.7034  -11.0432 O   0  0  0  0  0  0  0  0  0  0  0  0
   28.5071  -19.5084   -5.7160 C   0  0  0  0  0  0  0  0  0  0  0  0
   27.6831  -20.4054   -6.5845 C   0  0  0  0  0  0  0  0  0  0  0  0
   27.1043  -19.6588   -7.7838 C   0  0  2  0  0  0  0  0  0  0  0  0
   26.1518  -18.6134   -7.2508 C   0  0  0  0  0  0  0  0  0  0  0  0
   26.2931  -20.6590   -8.6036 C   0  0  2  0  0  0  0  0  0  0  0  0
   25.8132  -20.0675   -9.8213 N   0  0  0  0  0  0  0  0  0  0  0  0
   25.1855  -21.2011   -7.7785 C   0  0  0  0  0  0  0  0  0  0  0  0
   23.8601  -20.8842   -8.0131 O   0  0  0  0  0  0  0  0  0  0  0  0
   25.3979  -21.9877   -6.8095 O   0  0  0  0  0  0  0  0  0  0  0  0
  2  3  1  0
  2  1  1  0
  3 11  1  0
  4  3  2  0
  6  8  1  0
  6  5  1  0
  7  6  2  0
  9  8  1  0
 10  9  1  6
 10 12  1  0
 11 10  1  0
 12 13  2  0
 12 19  1  0
 15 14  1  0
 15 16  1  0
 16 18  1  0
 16 17  1  1
 18 20  1  0
 18 19  1  6
 20 21  1  0
 22 20  2  0
M  END
$$$$
