GQI.pdb
     RDKit          3D

 22 21  0  0  1  0  0  0  0  0999 V2000
   28.3606  -20.8277  -17.1188 N   0  0  0  0  0  0  0  0  0  0  0  0
   27.7851  -19.7658  -16.3398 C   0  0  0  0  0  0  0  0  0  0  0  0
   26.7855  -20.3284  -15.3799 C   0  0  0  0  0  0  0  0  0  0  0  0
   26.3631  -21.5031  -15.5490 O   0  0  0  0  0  0  0  0  0  0  0  0
   25.4474  -21.9950  -10.9166 N   0  0  0  0  0  0  0  0  0  0  0  0
   26.6779  -21.3059  -10.7539 C   0  0  0  0  0  0  0  0  0  0  0  0
   27.5922  -21.8652  -10.1065 O   0  0  0  0  0  0  0  0  0  0  0  0
   26.9136  -19.9333  -11.3325 C   0  0  0  0  0  0  0  0  0  0  0  0
   25.6721  -19.5060  -12.0183 C   0  0  0  0  0  0  0  0  0  0  0  0
   25.3492  -20.2088  -13.3113 C   0  0  2  0  0  0  0  0  0  0  0  0
   26.2818  -19.6126  -14.2830 N   0  0  0  0  0  0  0  0  0  0  0  0
   23.9828  -19.8960  -13.7781 C   0  0  0  0  0  0  0  0  0  0  0  0
   23.7528  -18.7192  -14.1926 O   0  0  0  0  0  0  0  0  0  0  0  0
   20.0472  -20.6420  -17.8129 C   0  0  0  0  0  0  0  0  0  0  0  0
   20.1853  -20.4118  -16.3413 C   0  0  0  0  0  0  0  0  0  0  0  0
   21.5344  -20.8955  -15.8154 C   0  0  2  0  0  0  0  0  0  0  0  0
   21.5138  -22.4066  -15.8354 C   0  0  0  0  0  0  0  0  0  0  0  0
   21.6518  -20.4465  -14.3611 C   0  0  2  0  0  0  0  0  0  0  0  0
   22.9090  -20.8452  -13.7921 N   0  0  0  0  0  0  0  0  0  0  0  0
   20.5022  -20.9684  -13.5816 C   0  0  0  0  0  0  0  0  0  0  0  0
   20.6286  -22.0034  -12.6733 O   0  0  0  0  0  0  0  0  0  0  0  0
   19.3370  -20.4899  -13.7088 O   0  0  0  0  0  0  0  0  0  0  0  0
  2  3  1  0
  2  1  1  0
  3 11  1  0
  4  3  2  0
  6  8  1  0
  6  5  1  0
  7  6  2  0
  9  8  1  0
 10  9  1  1
 10 12  1  0
 11 10  1  0
 12 13  2  0
 12 19  1  0
 15 14  1  0
 15 16  1  0
 16 18  1  0
 16 17  1  1
 18 20  1  0
 18 19  1  1
 20 21  1  0
 22 20  2  0
M  END
$$$$
