GQI.pdb
     RDKit          3D

 22 21  0  0  1  0  0  0  0  0999 V2000
   13.1130  -13.5812  -12.3541 N   0  0  0  0  0  0  0  0  0  0  0  0
   12.8324  -12.2496  -12.8165 C   0  0  0  0  0  0  0  0  0  0  0  0
   13.9162  -11.3209  -12.3693 C   0  0  0  0  0  0  0  0  0  0  0  0
   14.3375  -11.3917  -11.1842 O   0  0  0  0  0  0  0  0  0  0  0  0
   18.6223  -10.2817  -13.5787 N   0  0  0  0  0  0  0  0  0  0  0  0
   18.6194   -8.8628  -13.6205 C   0  0  0  0  0  0  0  0  0  0  0  0
   19.6976   -8.2592  -13.4170 O   0  0  0  0  0  0  0  0  0  0  0  0
   17.3682   -8.0689  -13.9001 C   0  0  0  0  0  0  0  0  0  0  0  0
   16.2426   -9.0218  -14.0391 C   0  0  0  0  0  0  0  0  0  0  0  0
   15.5976   -9.4829  -12.7579 C   0  0  2  0  0  0  0  0  0  0  0  0
   14.5015  -10.3587  -13.2065 N   0  0  0  0  0  0  0  0  0  0  0  0
   14.9788   -8.3613  -12.0218 C   0  0  0  0  0  0  0  0  0  0  0  0
   13.9065   -7.8672  -12.4861 O   0  0  0  0  0  0  0  0  0  0  0  0
   12.9700   -6.2986   -6.8593 C   0  0  0  0  0  0  0  0  0  0  0  0
   13.5914   -5.9556   -8.1761 C   0  0  0  0  0  0  0  0  0  0  0  0
   14.3381   -7.1436   -8.7778 C   0  0  2  0  0  0  0  0  0  0  0  0
   15.5666   -7.3834   -7.9308 C   0  0  0  0  0  0  0  0  0  0  0  0
   14.8023   -6.7387  -10.1746 C   0  0  2  0  0  0  0  0  0  0  0  0
   15.5185   -7.8058  -10.8158 N   0  0  0  0  0  0  0  0  0  0  0  0
   15.6140   -5.4993  -10.0927 C   0  0  0  0  0  0  0  0  0  0  0  0
   15.0460   -4.2475   -9.9424 O   0  0  0  0  0  0  0  0  0  0  0  0
   16.8781   -5.5235  -10.1570 O   0  0  0  0  0  0  0  0  0  0  0  0
  2  3  1  0
  2  1  1  0
  3 11  1  0
  4  3  2  0
  6  8  1  0
  6  5  1  0
  7  6  2  0
  9  8  1  0
 10  9  1  6
 10 12  1  0
 11 10  1  0
 12 13  2  0
 12 19  1  0
 15 14  1  0
 15 16  1  0
 16 18  1  0
 16 17  1  1
 18 20  1  0
 18 19  1  1
 20 21  1  0
 22 20  2  0
M  END
$$$$
