GQI.pdb
     RDKit          3D

 22 21  0  0  1  0  0  0  0  0999 V2000
   27.8292  -18.5638  -15.6945 N   0  0  0  0  0  0  0  0  0  0  0  0
   28.1448  -19.4561  -14.6129 C   0  0  0  0  0  0  0  0  0  0  0  0
   27.1149  -19.3284  -13.5359 C   0  0  0  0  0  0  0  0  0  0  0  0
   26.6928  -18.1842  -13.2203 O   0  0  0  0  0  0  0  0  0  0  0  0
   24.3106  -21.0364  -15.0882 N   0  0  0  0  0  0  0  0  0  0  0  0
   23.4865  -20.2120  -14.2780 C   0  0  0  0  0  0  0  0  0  0  0  0
   22.9584  -19.2031  -14.7990 O   0  0  0  0  0  0  0  0  0  0  0  0
   23.2310  -20.5128  -12.8226 C   0  0  0  0  0  0  0  0  0  0  0  0
   24.4333  -21.1834  -12.2756 C   0  0  0  0  0  0  0  0  0  0  0  0
   25.5453  -20.2808  -11.8080 C   0  0  2  0  0  0  0  0  0  0  0  0
   26.5818  -20.4269  -12.8443 N   0  0  0  0  0  0  0  0  0  0  0  0
   26.1362  -20.7522  -10.5386 C   0  0  0  0  0  0  0  0  0  0  0  0
   26.7856  -21.8420  -10.5556 O   0  0  0  0  0  0  0  0  0  0  0  0
   29.1639  -19.3934   -5.5375 C   0  0  0  0  0  0  0  0  0  0  0  0
   28.2096  -20.2949   -6.2549 C   0  0  0  0  0  0  0  0  0  0  0  0
   27.5624  -19.6000   -7.4503 C   0  0  2  0  0  0  0  0  0  0  0  0
   26.7041  -18.4781   -6.9129 C   0  0  0  0  0  0  0  0  0  0  0  0
   26.6424  -20.6109   -8.1303 C   0  0  2  0  0  0  0  0  0  0  0  0
   26.0200  -20.0478   -9.2958 N   0  0  0  0  0  0  0  0  0  0  0  0
   25.6412  -21.1111   -7.1561 C   0  0  0  0  0  0  0  0  0  0  0  0
   24.2915  -20.8320   -7.2681 O   0  0  0  0  0  0  0  0  0  0  0  0
   25.9731  -21.8245   -6.1643 O   0  0  0  0  0  0  0  0  0  0  0  0
  2  3  1  0
  2  1  1  0
  3 11  1  0
  4  3  2  0
  6  8  1  0
  6  5  1  0
  7  6  2  0
  9  8  1  0
 10  9  1  6
 10 12  1  0
 11 10  1  0
 12 13  2  0
 12 19  1  0
 15 14  1  0
 15 16  1  0
 16 18  1  0
 16 17  1  1
 18 20  1  0
 18 19  1  6
 20 21  1  0
 22 20  2  0
M  END
$$$$
