GQI.pdb
     RDKit          3D

 22 21  0  0  1  0  0  0  0  0999 V2000
   17.0777  -10.8749  -17.9827 N   0  0  0  0  0  0  0  0  0  0  0  0
   17.8759   -9.7229  -18.3011 C   0  0  0  0  0  0  0  0  0  0  0  0
   18.2951   -9.0350  -17.0409 C   0  0  0  0  0  0  0  0  0  0  0  0
   17.4127   -8.5918  -16.2587 O   0  0  0  0  0  0  0  0  0  0  0  0
   19.2392   -8.5818  -12.6653 N   0  0  0  0  0  0  0  0  0  0  0  0
   20.6001   -8.2285  -12.4694 C   0  0  0  0  0  0  0  0  0  0  0  0
   20.9427   -7.7758  -11.3533 O   0  0  0  0  0  0  0  0  0  0  0  0
   21.6350   -8.3809  -13.5556 C   0  0  0  0  0  0  0  0  0  0  0  0
   20.9699   -8.9654  -14.7432 C   0  0  0  0  0  0  0  0  0  0  0  0
   20.0306   -8.0583  -15.4949 C   0  0  2  0  0  0  0  0  0  0  0  0
   19.6365   -8.8510  -16.6721 N   0  0  0  0  0  0  0  0  0  0  0  0
   20.7200   -6.8526  -15.9989 C   0  0  0  0  0  0  0  0  0  0  0  0
   21.5937   -7.0049  -16.9061 O   0  0  0  0  0  0  0  0  0  0  0  0
   20.1280   -1.0648  -17.6290 C   0  0  0  0  0  0  0  0  0  0  0  0
   20.9963   -2.1854  -17.1513 C   0  0  0  0  0  0  0  0  0  0  0  0
   20.1753   -3.3198  -16.5433 C   0  0  2  0  0  0  0  0  0  0  0  0
   19.5297   -2.7884  -15.2843 C   0  0  0  0  0  0  0  0  0  0  0  0
   21.1448   -4.4287  -16.1421 C   0  0  2  0  0  0  0  0  0  0  0  0
   20.4546   -5.5264  -15.5244 N   0  0  0  0  0  0  0  0  0  0  0  0
   22.2022   -3.8746  -15.2609 C   0  0  0  0  0  0  0  0  0  0  0  0
   23.4067   -3.4042  -15.7508 O   0  0  0  0  0  0  0  0  0  0  0  0
   22.0556   -3.8034  -14.0055 O   0  0  0  0  0  0  0  0  0  0  0  0
  2  3  1  0
  2  1  1  0
  3 11  1  0
  4  3  2  0
  6  8  1  0
  6  5  1  0
  7  6  2  0
  9  8  1  0
 10  9  1  1
 10 12  1  0
 11 10  1  0
 12 13  2  0
 12 19  1  0
 15 14  1  0
 15 16  1  0
 16 18  1  0
 16 17  1  1
 18 20  1  0
 18 19  1  1
 20 21  1  0
 22 20  2  0
M  END
$$$$
