GQI.pdb
     RDKit          3D

 22 21  0  0  1  0  0  0  0  0999 V2000
   21.4689  -21.9900  -12.7293 N   0  0  0  0  0  0  0  0  0  0  0  0
   22.2835  -20.8178  -12.5622 C   0  0  0  0  0  0  0  0  0  0  0  0
   23.6408  -21.2116  -12.0727 C   0  0  0  0  0  0  0  0  0  0  0  0
   23.8529  -22.4088  -11.7430 O   0  0  0  0  0  0  0  0  0  0  0  0
   27.6772  -21.6465  -14.0715 N   0  0  0  0  0  0  0  0  0  0  0  0
   28.6927  -21.1724  -13.2001 C   0  0  0  0  0  0  0  0  0  0  0  0
   29.8473  -21.6421  -13.3204 O   0  0  0  0  0  0  0  0  0  0  0  0
   28.4243  -20.1297  -12.1442 C   0  0  0  0  0  0  0  0  0  0  0  0
   26.9852  -19.7827  -12.1987 C   0  0  0  0  0  0  0  0  0  0  0  0
   26.0453  -20.7245  -11.4919 C   0  0  2  0  0  0  0  0  0  0  0  0
   24.7104  -20.3106  -11.9570 N   0  0  0  0  0  0  0  0  0  0  0  0
   26.0713  -20.5278  -10.0278 C   0  0  0  0  0  0  0  0  0  0  0  0
   25.3219  -19.6295   -9.5370 O   0  0  0  0  0  0  0  0  0  0  0  0
   29.4312  -21.1437   -4.8981 C   0  0  0  0  0  0  0  0  0  0  0  0
   28.1204  -20.9946   -5.6034 C   0  0  0  0  0  0  0  0  0  0  0  0
   28.2518  -21.2445   -7.1038 C   0  0  2  0  0  0  0  0  0  0  0  0
   29.2539  -20.2501   -7.6434 C   0  0  0  0  0  0  0  0  0  0  0  0
   26.8989  -20.9420   -7.7431 C   0  0  2  0  0  0  0  0  0  0  0  0
   26.8897  -21.2947   -9.1354 N   0  0  0  0  0  0  0  0  0  0  0  0
   26.5535  -19.5145   -7.5324 C   0  0  0  0  0  0  0  0  0  0  0  0
   26.9860  -18.5121   -8.3810 O   0  0  0  0  0  0  0  0  0  0  0  0
   25.8398  -19.1372   -6.5572 O   0  0  0  0  0  0  0  0  0  0  0  0
  2  3  1  0
  2  1  1  0
  3 11  1  0
  4  3  2  0
  6  8  1  0
  6  5  1  0
  7  6  2  0
  9  8  1  0
 10  9  1  6
 10 12  1  0
 11 10  1  0
 12 13  2  0
 12 19  1  0
 15 14  1  0
 15 16  1  0
 16 18  1  0
 16 17  1  6
 18 20  1  0
 18 19  1  6
 20 21  1  0
 22 20  2  0
M  END
$$$$
