GQI.pdb
     RDKit          3D

 22 21  0  0  1  0  0  0  0  0999 V2000
   13.3551  -12.8489  -11.4668 N   0  0  0  0  0  0  0  0  0  0  0  0
   12.9516  -11.4951  -11.7312 C   0  0  0  0  0  0  0  0  0  0  0  0
   14.0229  -10.5523  -11.2833 C   0  0  0  0  0  0  0  0  0  0  0  0
   14.4056  -10.5805  -10.0834 O   0  0  0  0  0  0  0  0  0  0  0  0
   18.9573   -7.9841  -12.0847 N   0  0  0  0  0  0  0  0  0  0  0  0
   18.6697   -9.0334  -12.9966 C   0  0  0  0  0  0  0  0  0  0  0  0
   19.6023   -9.7945  -13.3414 O   0  0  0  0  0  0  0  0  0  0  0  0
   17.2873   -9.2559  -13.5566 C   0  0  0  0  0  0  0  0  0  0  0  0
   16.3772   -8.2647  -12.9373 C   0  0  0  0  0  0  0  0  0  0  0  0
   15.6844   -8.6961  -11.6708 C   0  0  2  0  0  0  0  0  0  0  0  0
   14.6375   -9.6221  -12.1355 N   0  0  0  0  0  0  0  0  0  0  0  0
   14.9980   -7.5667  -11.0102 C   0  0  0  0  0  0  0  0  0  0  0  0
   13.8783   -7.1977  -11.4787 O   0  0  0  0  0  0  0  0  0  0  0  0
   12.3484   -5.3522   -6.4059 C   0  0  0  0  0  0  0  0  0  0  0  0
   13.3041   -4.9901   -7.4982 C   0  0  0  0  0  0  0  0  0  0  0  0
   14.0193   -6.2179   -8.0565 C   0  0  2  0  0  0  0  0  0  0  0  0
   15.0508   -6.6445   -7.0375 C   0  0  0  0  0  0  0  0  0  0  0  0
   14.7582   -5.7875   -9.3211 C   0  0  2  0  0  0  0  0  0  0  0  0
   15.5231   -6.8710   -9.8724 N   0  0  0  0  0  0  0  0  0  0  0  0
   15.6061   -4.6057   -9.0278 C   0  0  0  0  0  0  0  0  0  0  0  0
   16.9797   -4.6913   -8.8939 O   0  0  0  0  0  0  0  0  0  0  0  0
   15.1123   -3.4489   -8.8835 O   0  0  0  0  0  0  0  0  0  0  0  0
  2  3  1  0
  2  1  1  0
  3 11  1  0
  4  3  2  0
  6  8  1  0
  6  5  1  0
  7  6  2  0
  9  8  1  0
 10  9  1  6
 10 12  1  0
 11 10  1  0
 12 13  2  0
 12 19  1  0
 15 14  1  0
 15 16  1  0
 16 18  1  0
 16 17  1  1
 18 20  1  0
 18 19  1  1
 20 21  1  0
 22 20  2  0
M  END
$$$$
