MPT.pdb
     RDKit          3D

 23 23  0  0  1  0  0  0  0  0999 V2000
    7.1446  -11.7807   26.1902 C   0  0  0  0  0  0  0  0  0  0  0  0
    6.9386  -12.9566   27.5269 S   0  0  0  0  0  0  0  0  0  0  0  0
    7.0004  -14.6770   26.9170 C   0  0  0  0  0  0  0  0  0  0  0  0
    6.2176  -14.8000   25.6430 C   0  0  0  0  0  0  0  0  0  0  0  0
    6.2566  -16.2212   25.1360 C   0  0  2  0  0  0  0  0  0  0  0  0
    6.2661  -17.1479   26.2762 N   0  0  0  0  0  0  0  0  0  0  0  0
    7.3953  -16.4540   24.2399 C   0  0  0  0  0  0  0  0  0  0  0  0
    8.1715  -17.4121   24.4539 O   0  0  0  0  0  0  0  0  0  0  0  0
    7.6827  -15.6145   23.0872 N   0  0  0  0  0  0  0  0  0  0  0  0
    6.8773  -14.4852   22.7244 C   0  0  0  0  0  0  0  0  0  0  0  0
    7.3447  -14.1045   21.3383 C   0  0  0  0  0  0  0  0  0  0  0  0
    8.7557  -14.6228   21.2555 C   0  0  0  0  0  0  0  0  0  0  0  0
    8.7658  -15.7874   22.1944 C   0  0  1  0  0  0  0  0  0  0  0  0
   10.0903  -15.8521   22.8821 C   0  0  0  0  0  0  0  0  0  0  0  0
   10.2918  -15.0923   23.8550 O   0  0  0  0  0  0  0  0  0  0  0  0
   14.1400  -18.3144   24.0511 C   0  0  0  0  0  0  0  0  0  0  0  0
   12.7805  -18.2874   23.3936 C   0  0  1  0  0  0  0  0  0  0  0  0
   11.8848  -18.9223   24.2626 O   0  0  0  0  0  0  0  0  0  0  0  0
   12.4040  -16.8534   23.1515 C   0  0  2  0  0  0  0  0  0  0  0  0
   11.1214  -16.7280   22.4852 N   0  0  0  0  0  0  0  0  0  0  0  0
   13.4034  -16.2827   22.1996 C   0  0  0  0  0  0  0  0  0  0  0  0
   14.3759  -15.4487   22.7300 O   0  0  0  0  0  0  0  0  0  0  0  0
   13.4076  -16.5146   20.9693 O   0  0  0  0  0  0  0  0  0  0  0  0
  1  2  1  0
  3  2  1  0
  4  3  1  0
  5  7  1  0
  5  4  1  0
  5  6  1  1
  7  9  1  0
  8  7  2  0
  9 10  1  0
  9 13  1  0
 10 11  1  0
 11 12  1  0
 13 12  1  0
 13 14  1  1
 14 20  1  0
 15 14  2  0
 17 16  1  1
 18 17  1  0
 19 17  1  0
 19 20  1  6
 19 21  1  0
 21 22  1  0
 23 21  2  0
M  END
$$$$
