MPT.pdb
     RDKit          3D

 23 23  0  0  1  0  0  0  0  0999 V2000
    5.8857  -11.5112   26.5583 C   0  0  0  0  0  0  0  0  0  0  0  0
    6.8392  -12.9010   27.1675 S   0  0  0  0  0  0  0  0  0  0  0  0
    7.1430  -14.1296   25.8508 C   0  0  0  0  0  0  0  0  0  0  0  0
    6.4997  -15.4370   26.2083 C   0  0  0  0  0  0  0  0  0  0  0  0
    6.2656  -16.2653   24.9683 C   0  0  2  0  0  0  0  0  0  0  0  0
    5.6935  -17.5644   25.3479 N   0  0  0  0  0  0  0  0  0  0  0  0
    7.4896  -16.4243   24.1744 C   0  0  0  0  0  0  0  0  0  0  0  0
    8.3083  -17.3254   24.4643 O   0  0  0  0  0  0  0  0  0  0  0  0
    7.8161  -15.5737   23.0405 N   0  0  0  0  0  0  0  0  0  0  0  0
    7.0831  -14.3835   22.7215 C   0  0  0  0  0  0  0  0  0  0  0  0
    7.5551  -13.9959   21.3389 C   0  0  0  0  0  0  0  0  0  0  0  0
    8.9269  -14.6045   21.2193 C   0  0  0  0  0  0  0  0  0  0  0  0
    8.8723  -15.7932   22.1259 C   0  0  1  0  0  0  0  0  0  0  0  0
   10.1992  -15.9654   22.7901 C   0  0  0  0  0  0  0  0  0  0  0  0
   10.4565  -15.2636   23.7930 O   0  0  0  0  0  0  0  0  0  0  0  0
   14.0927  -18.8046   23.6919 C   0  0  0  0  0  0  0  0  0  0  0  0
   12.7083  -18.6262   23.1150 C   0  0  1  0  0  0  0  0  0  0  0  0
   11.8118  -19.2698   23.9768 O   0  0  0  0  0  0  0  0  0  0  0  0
   12.4276  -17.1539   23.0133 C   0  0  2  0  0  0  0  0  0  0  0  0
   11.1726  -16.8801   22.3389 N   0  0  0  0  0  0  0  0  0  0  0  0
   13.4843  -16.5557   22.1439 C   0  0  0  0  0  0  0  0  0  0  0  0
   13.3230  -16.6867   20.7729 O   0  0  0  0  0  0  0  0  0  0  0  0
   14.4905  -15.9531   22.5819 O   0  0  0  0  0  0  0  0  0  0  0  0
  1  2  1  0
  3  2  1  0
  4  3  1  0
  5  7  1  0
  5  4  1  0
  5  6  1  1
  7  9  1  0
  8  7  2  0
  9 10  1  0
  9 13  1  0
 10 11  1  0
 11 12  1  0
 13 12  1  0
 13 14  1  1
 14 20  1  0
 15 14  2  0
 17 16  1  1
 18 17  1  0
 19 17  1  0
 19 20  1  6
 19 21  1  0
 21 22  1  0
 23 21  2  0
M  END
$$$$
