MPT.pdb
     RDKit          3D

 23 23  0  0  1  0  0  0  0  0999 V2000
    6.5057  -11.8766   26.6271 C   0  0  0  0  0  0  0  0  0  0  0  0
    7.7465  -12.9703   27.3170 S   0  0  0  0  0  0  0  0  0  0  0  0
    7.4335  -14.7094   26.8552 C   0  0  0  0  0  0  0  0  0  0  0  0
    6.5631  -14.7692   25.6347 C   0  0  0  0  0  0  0  0  0  0  0  0
    6.4160  -16.1952   25.1621 C   0  0  2  0  0  0  0  0  0  0  0  0
    6.5855  -17.1085   26.3007 N   0  0  0  0  0  0  0  0  0  0  0  0
    7.3457  -16.5115   24.0716 C   0  0  0  0  0  0  0  0  0  0  0  0
    7.9806  -17.5898   24.0865 O   0  0  0  0  0  0  0  0  0  0  0  0
    7.5790  -15.6218   22.9446 N   0  0  0  0  0  0  0  0  0  0  0  0
    6.8138  -14.4304   22.7197 C   0  0  0  0  0  0  0  0  0  0  0  0
    7.1777  -13.9941   21.3190 C   0  0  0  0  0  0  0  0  0  0  0  0
    8.5420  -14.5834   21.0780 C   0  0  0  0  0  0  0  0  0  0  0  0
    8.5657  -15.8006   21.9473 C   0  0  1  0  0  0  0  0  0  0  0  0
    9.9401  -15.9788   22.5050 C   0  0  0  0  0  0  0  0  0  0  0  0
   10.3073  -15.2232   23.4316 O   0  0  0  0  0  0  0  0  0  0  0  0
   11.6121  -19.0551   24.0819 C   0  0  0  0  0  0  0  0  0  0  0  0
   12.3993  -18.6623   22.8543 C   0  0  1  0  0  0  0  0  0  0  0  0
   11.9526  -19.4657   21.7981 O   0  0  0  0  0  0  0  0  0  0  0  0
   12.1585  -17.2035   22.5884 C   0  0  2  0  0  0  0  0  0  0  0  0
   10.8402  -16.9571   22.0352 N   0  0  0  0  0  0  0  0  0  0  0  0
   13.1200  -16.7769   21.5283 C   0  0  0  0  0  0  0  0  0  0  0  0
   14.4046  -16.4500   21.9353 O   0  0  0  0  0  0  0  0  0  0  0  0
   12.8305  -16.7006   20.3126 O   0  0  0  0  0  0  0  0  0  0  0  0
  1  2  1  0
  3  2  1  0
  4  3  1  0
  5  7  1  0
  5  4  1  0
  5  6  1  1
  7  9  1  0
  8  7  2  0
  9 10  1  0
  9 13  1  0
 10 11  1  0
 11 12  1  0
 13 12  1  0
 13 14  1  1
 14 20  1  0
 15 14  2  0
 17 16  1  1
 18 17  1  0
 19 17  1  0
 19 20  1  6
 19 21  1  0
 21 22  1  0
 23 21  2  0
M  END
$$$$
