MPT.pdb
     RDKit          3D

 23 23  0  0  1  0  0  0  0  0999 V2000
    6.2702  -11.9916   26.4514 C   0  0  0  0  0  0  0  0  0  0  0  0
    7.3058  -13.0808   27.4277 S   0  0  0  0  0  0  0  0  0  0  0  0
    7.2994  -14.7813   26.7614 C   0  0  0  0  0  0  0  0  0  0  0  0
    6.2922  -14.8970   25.6554 C   0  0  0  0  0  0  0  0  0  0  0  0
    6.3310  -16.2793   25.0503 C   0  0  2  0  0  0  0  0  0  0  0  0
    6.3138  -17.2840   26.1223 N   0  0  0  0  0  0  0  0  0  0  0  0
    7.4841  -16.4574   24.1602 C   0  0  0  0  0  0  0  0  0  0  0  0
    8.2760  -17.4081   24.3481 O   0  0  0  0  0  0  0  0  0  0  0  0
    7.7685  -15.5705   23.0427 N   0  0  0  0  0  0  0  0  0  0  0  0
    6.9401  -14.4500   22.7056 C   0  0  0  0  0  0  0  0  0  0  0  0
    7.4203  -14.0087   21.3421 C   0  0  0  0  0  0  0  0  0  0  0  0
    8.8456  -14.4876   21.2659 C   0  0  0  0  0  0  0  0  0  0  0  0
    8.8705  -15.6841   22.1635 C   0  0  1  0  0  0  0  0  0  0  0  0
   10.1847  -15.7393   22.8716 C   0  0  0  0  0  0  0  0  0  0  0  0
   10.3690  -14.9714   23.8415 O   0  0  0  0  0  0  0  0  0  0  0  0
   11.9390  -18.3290   24.9139 C   0  0  0  0  0  0  0  0  0  0  0  0
   12.7732  -18.1062   23.6746 C   0  0  1  0  0  0  0  0  0  0  0  0
   12.4003  -19.0804   22.7406 O   0  0  0  0  0  0  0  0  0  0  0  0
   12.5049  -16.7165   23.1711 C   0  0  2  0  0  0  0  0  0  0  0  0
   11.2243  -16.6149   22.4971 N   0  0  0  0  0  0  0  0  0  0  0  0
   13.5285  -16.4133   22.1267 C   0  0  0  0  0  0  0  0  0  0  0  0
   13.1294  -16.5162   20.8028 O   0  0  0  0  0  0  0  0  0  0  0  0
   14.7074  -16.0773   22.3811 O   0  0  0  0  0  0  0  0  0  0  0  0
  1  2  1  0
  3  2  1  0
  4  3  1  0
  5  7  1  0
  5  4  1  0
  5  6  1  1
  7  9  1  0
  8  7  2  0
  9 10  1  0
  9 13  1  0
 10 11  1  0
 11 12  1  0
 13 12  1  0
 13 14  1  1
 14 20  1  0
 15 14  2  0
 17 16  1  1
 18 17  1  0
 19 17  1  0
 19 20  1  6
 19 21  1  0
 21 22  1  0
 23 21  2  0
M  END
$$$$
