MPT.pdb
     RDKit          3D

 23 23  0  0  1  0  0  0  0  0999 V2000
    7.0885  -11.2779   27.2889 C   0  0  0  0  0  0  0  0  0  0  0  0
    6.2672  -12.5631   26.3480 S   0  0  0  0  0  0  0  0  0  0  0  0
    6.7868  -14.2261   26.8959 C   0  0  0  0  0  0  0  0  0  0  0  0
    6.1052  -15.2767   26.0697 C   0  0  0  0  0  0  0  0  0  0  0  0
    7.0471  -15.8141   25.0197 C   0  0  2  0  0  0  0  0  0  0  0  0
    8.1131  -16.5896   25.6688 N   0  0  0  0  0  0  0  0  0  0  0  0
    7.5931  -14.7469   24.1731 C   0  0  0  0  0  0  0  0  0  0  0  0
    7.7741  -13.6040   24.6496 O   0  0  0  0  0  0  0  0  0  0  0  0
    7.9456  -14.9445   22.7757 N   0  0  0  0  0  0  0  0  0  0  0  0
    7.6620  -13.9781   21.7553 C   0  0  0  0  0  0  0  0  0  0  0  0
    7.9138  -14.7031   20.4533 C   0  0  0  0  0  0  0  0  0  0  0  0
    8.8888  -15.7945   20.8065 C   0  0  0  0  0  0  0  0  0  0  0  0
    8.6011  -16.0805   22.2464 C   0  0  1  0  0  0  0  0  0  0  0  0
    9.8800  -16.4018   22.9483 C   0  0  0  0  0  0  0  0  0  0  0  0
   10.4011  -15.5197   23.6659 O   0  0  0  0  0  0  0  0  0  0  0  0
   11.0010  -19.0639   25.4746 C   0  0  0  0  0  0  0  0  0  0  0  0
   11.7623  -19.2808   24.1882 C   0  0  1  0  0  0  0  0  0  0  0  0
   11.0880  -20.2742   23.4676 O   0  0  0  0  0  0  0  0  0  0  0  0
   11.8036  -17.9782   23.4412 C   0  0  2  0  0  0  0  0  0  0  0  0
   10.5253  -17.6505   22.8385 N   0  0  0  0  0  0  0  0  0  0  0  0
   12.7498  -18.1474   22.2981 C   0  0  0  0  0  0  0  0  0  0  0  0
   14.1049  -18.1128   22.5897 O   0  0  0  0  0  0  0  0  0  0  0  0
   12.3882  -18.3157   21.1114 O   0  0  0  0  0  0  0  0  0  0  0  0
  1  2  1  0
  3  2  1  0
  4  3  1  0
  5  7  1  0
  5  4  1  0
  5  6  1  1
  7  9  1  0
  8  7  2  0
  9 10  1  0
  9 13  1  0
 10 11  1  0
 11 12  1  0
 13 12  1  0
 13 14  1  1
 14 20  1  0
 15 14  2  0
 17 16  1  1
 18 17  1  0
 19 17  1  0
 19 20  1  6
 19 21  1  0
 21 22  1  0
 23 21  2  0
M  END
$$$$
