MPT.pdb
     RDKit          3D

 23 23  0  0  1  0  0  0  0  0999 V2000
    7.2471  -11.5952   26.9819 C   0  0  0  0  0  0  0  0  0  0  0  0
    7.7308  -13.3126   27.1497 S   0  0  0  0  0  0  0  0  0  0  0  0
    7.3074  -14.2737   25.6555 C   0  0  0  0  0  0  0  0  0  0  0  0
    6.6820  -15.5808   26.0442 C   0  0  0  0  0  0  0  0  0  0  0  0
    6.2301  -16.3342   24.8167 C   0  0  2  0  0  0  0  0  0  0  0  0
    5.6393  -17.6178   25.2196 N   0  0  0  0  0  0  0  0  0  0  0  0
    7.3213  -16.5195   23.8530 C   0  0  0  0  0  0  0  0  0  0  0  0
    8.1251  -17.4680   23.9958 O   0  0  0  0  0  0  0  0  0  0  0  0
    7.5292  -15.6424   22.7113 N   0  0  0  0  0  0  0  0  0  0  0  0
    6.7435  -14.4660   22.4779 C   0  0  0  0  0  0  0  0  0  0  0  0
    7.0861  -14.0440   21.0675 C   0  0  0  0  0  0  0  0  0  0  0  0
    8.4567  -14.6158   20.8203 C   0  0  0  0  0  0  0  0  0  0  0  0
    8.5082  -15.8201   21.7062 C   0  0  1  0  0  0  0  0  0  0  0  0
    9.8908  -15.9695   22.2518 C   0  0  0  0  0  0  0  0  0  0  0  0
   10.2685  -15.1722   23.1384 O   0  0  0  0  0  0  0  0  0  0  0  0
   11.6289  -18.9455   23.9736 C   0  0  0  0  0  0  0  0  0  0  0  0
   12.3625  -18.6254   22.6927 C   0  0  1  0  0  0  0  0  0  0  0  0
   11.8669  -19.4833   21.7033 O   0  0  0  0  0  0  0  0  0  0  0  0
   12.1149  -17.1822   22.3574 C   0  0  2  0  0  0  0  0  0  0  0  0
   10.7875  -16.9653   21.8135 N   0  0  0  0  0  0  0  0  0  0  0  0
   13.0587  -16.8088   21.2619 C   0  0  0  0  0  0  0  0  0  0  0  0
   14.3797  -16.5811   21.6167 O   0  0  0  0  0  0  0  0  0  0  0  0
   12.7240  -16.6928   20.0611 O   0  0  0  0  0  0  0  0  0  0  0  0
  1  2  1  0
  3  2  1  0
  4  3  1  0
  5  7  1  0
  5  4  1  0
  5  6  1  1
  7  9  1  0
  8  7  2  0
  9 10  1  0
  9 13  1  0
 10 11  1  0
 11 12  1  0
 13 12  1  0
 13 14  1  1
 14 20  1  0
 15 14  2  0
 17 16  1  1
 18 17  1  0
 19 17  1  0
 19 20  1  6
 19 21  1  0
 21 22  1  0
 23 21  2  0
M  END
$$$$
