AFH.pdb
     RDKit          3D

 27 28  0  0  1  0  0  0  0  0999 V2000
    8.3372  -18.8437   20.9292 C   0  0  0  0  0  0  0  0  0  0  0  0
    7.9222  -17.4678   20.4965 C   0  0  2  0  0  0  0  0  0  0  0  0
    8.4446  -17.2130   19.1909 N   0  0  0  0  0  0  0  0  0  0  0  0
    8.2676  -16.4258   21.4877 C   0  0  0  0  0  0  0  0  0  0  0  0
    9.1766  -15.6003   21.2139 O   0  0  0  0  0  0  0  0  0  0  0  0
    7.6374  -16.2845   22.7506 N   0  0  0  0  0  0  0  0  0  0  0  0
    7.8475  -15.1476   23.6217 C   0  0  1  0  0  0  0  0  0  0  0  0
    6.5959  -14.7713   24.3795 C   0  0  0  0  0  0  0  0  0  0  0  0
    6.8455  -13.6953   25.3647 C   0  0  0  0  0  0  0  0  0  0  0  0
    6.5548  -13.9343   26.6871 C   0  0  0  0  0  0  0  0  0  0  0  0
    6.7715  -12.9609   27.6376 C   0  0  0  0  0  0  0  0  0  0  0  0
    7.2802  -11.7431   27.2715 C   0  0  0  0  0  0  0  0  0  0  0  0
    7.5784  -11.4818   25.9547 C   0  0  0  0  0  0  0  0  0  0  0  0
    7.3599  -12.4557   25.0143 C   0  0  0  0  0  0  0  0  0  0  0  0
    8.8698  -15.5279   24.6188 C   0  0  0  0  0  0  0  0  0  0  0  0
    9.2158  -14.6811   25.4776 O   0  0  0  0  0  0  0  0  0  0  0  0
    9.4377  -16.8200   24.5952 N   0  0  0  0  0  0  0  0  0  0  0  0
   10.6457  -17.1270   25.3885 C   0  0  1  0  0  0  0  0  0  0  0  0
   11.6163  -16.0015   25.3420 C   0  0  0  0  0  0  0  0  0  0  0  0
   12.3031  -15.9502   24.0378 C   0  0  0  0  0  0  0  0  0  0  0  0
   11.8629  -15.9452   22.7462 C   0  0  0  0  0  0  0  0  0  0  0  0
   12.9081  -15.8087   21.8760 N   0  0  0  0  0  0  0  0  0  0  0  0
   13.9866  -15.7290   22.6449 C   0  0  0  0  0  0  0  0  0  0  0  0
   13.6588  -15.8098   23.9365 N   0  0  0  0  0  0  0  0  0  0  0  0
   10.1794  -17.2001   26.8344 C   0  0  0  0  0  0  0  0  0  0  0  0
   10.8894  -17.4008   27.8027 O   0  0  0  0  0  0  0  0  0  0  0  0
    8.8032  -17.0215   27.0937 O   0  0  0  0  0  0  0  0  0  0  0  0
  2  1  1  1
  2  3  1  0
  4  2  1  0
  5  4  2  0
  6  4  1  0
  7  6  1  0
  7  8  1  1
  9  8  1  0
 10  9  2  0
 11 10  1  0
 12 11  2  0
 12 13  1  0
 13 14  2  0
 14  9  1  0
 15 17  1  0
 15  7  1  0
 16 15  2  0
 18 25  1  0
 18 17  1  0
 18 19  1  1
 20 21  2  0
 20 19  1  0
 22 21  1  0
 23 24  2  0
 23 22  1  0
 24 20  1  0
 25 27  1  0
 26 25  2  0
M  END
$$$$
