AFH.pdb
     RDKit          3D

 27 28  0  0  1  0  0  0  0  0999 V2000
    8.1031  -19.5776   21.2529 C   0  0  0  0  0  0  0  0  0  0  0  0
    7.4158  -18.2762   20.9583 C   0  0  2  0  0  0  0  0  0  0  0  0
    7.6604  -17.9185   19.5964 N   0  0  0  0  0  0  0  0  0  0  0  0
    7.7651  -17.2113   21.9234 C   0  0  0  0  0  0  0  0  0  0  0  0
    8.8231  -16.5533   21.7501 O   0  0  0  0  0  0  0  0  0  0  0  0
    6.9796  -16.8691   23.0540 N   0  0  0  0  0  0  0  0  0  0  0  0
    7.4119  -15.9315   24.0685 C   0  0  1  0  0  0  0  0  0  0  0  0
    6.2502  -15.3523   24.8413 C   0  0  0  0  0  0  0  0  0  0  0  0
    6.6798  -14.2864   25.7741 C   0  0  0  0  0  0  0  0  0  0  0  0
    6.6461  -12.9816   25.3418 C   0  0  0  0  0  0  0  0  0  0  0  0
    7.0372  -11.9581   26.1770 C   0  0  0  0  0  0  0  0  0  0  0  0
    7.4641  -12.2331   27.4490 C   0  0  0  0  0  0  0  0  0  0  0  0
    7.5061  -13.5307   27.9027 C   0  0  0  0  0  0  0  0  0  0  0  0
    7.1152  -14.5441   27.0655 C   0  0  0  0  0  0  0  0  0  0  0  0
    8.2584  -16.6681   25.0302 C   0  0  0  0  0  0  0  0  0  0  0  0
    7.8175  -17.7329   25.5263 O   0  0  0  0  0  0  0  0  0  0  0  0
    9.5347  -16.1736   25.3755 N   0  0  0  0  0  0  0  0  0  0  0  0
   10.4614  -16.9841   26.1923 C   0  0  1  0  0  0  0  0  0  0  0  0
   11.8761  -16.6163   25.9195 C   0  0  0  0  0  0  0  0  0  0  0  0
   12.2739  -17.0218   24.5584 C   0  0  0  0  0  0  0  0  0  0  0  0
   11.7241  -17.8588   23.6314 C   0  0  0  0  0  0  0  0  0  0  0  0
   12.4455  -17.8410   22.4706 N   0  0  0  0  0  0  0  0  0  0  0  0
   13.4364  -16.9875   22.6954 C   0  0  0  0  0  0  0  0  0  0  0  0
   13.3610  -16.4832   23.9292 N   0  0  0  0  0  0  0  0  0  0  0  0
   10.2064  -16.5710   27.6338 C   0  0  0  0  0  0  0  0  0  0  0  0
   10.3288  -17.2853   28.6119 O   0  0  0  0  0  0  0  0  0  0  0  0
    9.7899  -15.2440   27.8760 O   0  0  0  0  0  0  0  0  0  0  0  0
  2  1  1  1
  2  3  1  0
  4  2  1  0
  5  4  2  0
  6  4  1  0
  7  6  1  0
  7  8  1  1
  9  8  1  0
 10  9  2  0
 11 10  1  0
 12 11  2  0
 12 13  1  0
 13 14  2  0
 14  9  1  0
 15 17  1  0
 15  7  1  0
 16 15  2  0
 18 25  1  0
 18 17  1  0
 18 19  1  6
 20 21  2  0
 20 19  1  0
 22 21  1  0
 23 24  2  0
 23 22  1  0
 24 20  1  0
 25 27  1  0
 26 25  2  0
M  END
$$$$
