AFH.pdb
     RDKit          3D

 27 28  0  0  1  0  0  0  0  0999 V2000
   10.2065  -16.3364   18.7942 C   0  0  0  0  0  0  0  0  0  0  0  0
    9.6916  -17.0359   20.0184 C   0  0  2  0  0  0  0  0  0  0  0  0
    8.4108  -17.5997   19.7283 N   0  0  0  0  0  0  0  0  0  0  0  0
    9.7018  -16.1730   21.2195 C   0  0  0  0  0  0  0  0  0  0  0  0
   10.8019  -15.7443   21.6537 O   0  0  0  0  0  0  0  0  0  0  0  0
    8.5395  -15.7843   21.9336 N   0  0  0  0  0  0  0  0  0  0  0  0
    8.5797  -15.0304   23.1687 C   0  0  1  0  0  0  0  0  0  0  0  0
    7.2950  -14.2754   23.4176 C   0  0  0  0  0  0  0  0  0  0  0  0
    7.3246  -13.5362   24.6995 C   0  0  0  0  0  0  0  0  0  0  0  0
    8.1654  -12.4544   24.8154 C   0  0  0  0  0  0  0  0  0  0  0  0
    8.2247  -11.7379   25.9905 C   0  0  0  0  0  0  0  0  0  0  0  0
    7.4440  -12.0985   27.0565 C   0  0  0  0  0  0  0  0  0  0  0  0
    6.5958  -13.1770   26.9632 C   0  0  0  0  0  0  0  0  0  0  0  0
    6.5422  -13.8853   25.7903 C   0  0  0  0  0  0  0  0  0  0  0  0
    8.7483  -15.9925   24.2776 C   0  0  0  0  0  0  0  0  0  0  0  0
    7.8700  -16.8720   24.4489 O   0  0  0  0  0  0  0  0  0  0  0  0
    9.8783  -15.9132   25.1199 N   0  0  0  0  0  0  0  0  0  0  0  0
   10.1198  -16.9388   26.1556 C   0  0  1  0  0  0  0  0  0  0  0  0
   11.5206  -17.4345   26.1009 C   0  0  0  0  0  0  0  0  0  0  0  0
   11.7324  -18.2889   24.9175 C   0  0  0  0  0  0  0  0  0  0  0  0
   10.9748  -19.2429   24.3026 C   0  0  0  0  0  0  0  0  0  0  0  0
   11.5928  -19.7024   23.1733 N   0  0  0  0  0  0  0  0  0  0  0  0
   12.7298  -19.0218   23.1033 C   0  0  0  0  0  0  0  0  0  0  0  0
   12.8413  -18.1724   24.1272 N   0  0  0  0  0  0  0  0  0  0  0  0
    9.9987  -16.2136   27.4872 C   0  0  0  0  0  0  0  0  0  0  0  0
    9.9617  -15.0066   27.6403 O   0  0  0  0  0  0  0  0  0  0  0  0
    9.9213  -16.9960   28.6598 O   0  0  0  0  0  0  0  0  0  0  0  0
  2  1  1  6
  2  3  1  0
  4  2  1  0
  5  4  2  0
  6  4  1  0
  7  6  1  0
  7  8  1  1
  9  8  1  0
 10  9  2  0
 11 10  1  0
 12 11  2  0
 12 13  1  0
 13 14  2  0
 14  9  1  0
 15 17  1  0
 15  7  1  0
 16 15  2  0
 18 25  1  0
 18 17  1  0
 18 19  1  6
 20 21  2  0
 20 19  1  0
 22 21  1  0
 23 24  2  0
 23 22  1  0
 24 20  1  0
 25 27  1  0
 26 25  2  0
M  END
$$$$
