AFH.pdb
     RDKit          3D

 27 28  0  0  1  0  0  0  0  0999 V2000
    9.7164  -18.7983   21.1312 C   0  0  0  0  0  0  0  0  0  0  0  0
    9.3568  -17.4285   20.6342 C   0  0  2  0  0  0  0  0  0  0  0  0
   10.1905  -17.1039   19.5197 N   0  0  0  0  0  0  0  0  0  0  0  0
    9.3723  -16.4073   21.7041 C   0  0  0  0  0  0  0  0  0  0  0  0
   10.4146  -15.7261   21.8827 O   0  0  0  0  0  0  0  0  0  0  0  0
    8.2765  -16.1329   22.5620 N   0  0  0  0  0  0  0  0  0  0  0  0
    8.2789  -15.0640   23.5382 C   0  0  1  0  0  0  0  0  0  0  0  0
    6.8810  -14.6205   23.9010 C   0  0  0  0  0  0  0  0  0  0  0  0
    6.8873  -13.5007   24.8688 C   0  0  0  0  0  0  0  0  0  0  0  0
    7.6899  -12.4142   24.6121 C   0  0  0  0  0  0  0  0  0  0  0  0
    7.7264  -11.3499   25.4860 C   0  0  0  0  0  0  0  0  0  0  0  0
    6.9609  -11.3656   26.6216 C   0  0  0  0  0  0  0  0  0  0  0  0
    6.1507  -12.4417   26.8988 C   0  0  0  0  0  0  0  0  0  0  0  0
    6.1197  -13.4974   26.0241 C   0  0  0  0  0  0  0  0  0  0  0  0
    8.9115  -15.5810   24.7696 C   0  0  0  0  0  0  0  0  0  0  0  0
    8.8970  -14.8640   25.7992 O   0  0  0  0  0  0  0  0  0  0  0  0
    9.5165  -16.8564   24.7747 N   0  0  0  0  0  0  0  0  0  0  0  0
   10.2038  -17.3598   25.9818 C   0  0  1  0  0  0  0  0  0  0  0  0
   10.1034  -18.8404   26.0759 C   0  0  0  0  0  0  0  0  0  0  0  0
    8.7261  -19.2565   26.4003 C   0  0  0  0  0  0  0  0  0  0  0  0
    7.7484  -18.7263   27.1908 C   0  0  0  0  0  0  0  0  0  0  0  0
    6.5979  -19.4588   27.0999 N   0  0  0  0  0  0  0  0  0  0  0  0
    6.8802  -20.4367   26.2485 C   0  0  0  0  0  0  0  0  0  0  0  0
    8.1392  -20.3430   25.8145 N   0  0  0  0  0  0  0  0  0  0  0  0
   11.6806  -17.0671   25.7652 C   0  0  0  0  0  0  0  0  0  0  0  0
   12.5790  -17.3192   26.5470 O   0  0  0  0  0  0  0  0  0  0  0  0
   12.0598  -16.4479   24.5545 O   0  0  0  0  0  0  0  0  0  0  0  0
  2  1  1  1
  2  3  1  0
  4  2  1  0
  5  4  2  0
  6  4  1  0
  7  6  1  0
  7  8  1  1
  9  8  1  0
 10  9  2  0
 11 10  1  0
 12 11  2  0
 12 13  1  0
 13 14  2  0
 14  9  1  0
 15 17  1  0
 15  7  1  0
 16 15  2  0
 18 25  1  0
 18 17  1  0
 18 19  1  6
 20 21  2  0
 20 19  1  0
 22 21  1  0
 23 24  2  0
 23 22  1  0
 24 20  1  0
 25 27  1  0
 26 25  2  0
M  END
$$$$
