AFH.pdb
     RDKit          3D

 27 28  0  0  1  0  0  0  0  0999 V2000
    9.8000  -15.7069   18.8020 C   0  0  0  0  0  0  0  0  0  0  0  0
    9.4264  -16.5984   19.9502 C   0  0  2  0  0  0  0  0  0  0  0  0
    8.1646  -17.2098   19.6735 N   0  0  0  0  0  0  0  0  0  0  0  0
    9.4762  -15.9045   21.2554 C   0  0  0  0  0  0  0  0  0  0  0  0
   10.5894  -15.5284   21.7047 O   0  0  0  0  0  0  0  0  0  0  0  0
    8.3386  -15.6256   22.0556 N   0  0  0  0  0  0  0  0  0  0  0  0
    8.4051  -14.9038   23.3085 C   0  0  1  0  0  0  0  0  0  0  0  0
    7.0961  -14.2306   23.6486 C   0  0  0  0  0  0  0  0  0  0  0  0
    7.1724  -13.4786   24.9211 C   0  0  0  0  0  0  0  0  0  0  0  0
    7.9867  -12.3725   24.9834 C   0  0  0  0  0  0  0  0  0  0  0  0
    8.0876  -11.6433   26.1479 C   0  0  0  0  0  0  0  0  0  0  0  0
    7.3752  -12.0157   27.2567 C   0  0  0  0  0  0  0  0  0  0  0  0
    6.5544  -13.1184   27.2174 C   0  0  0  0  0  0  0  0  0  0  0  0
    6.4592  -13.8392   26.0548 C   0  0  0  0  0  0  0  0  0  0  0  0
    8.6882  -15.8840   24.3777 C   0  0  0  0  0  0  0  0  0  0  0  0
    7.8611  -16.8050   24.5830 O   0  0  0  0  0  0  0  0  0  0  0  0
    9.8679  -15.7756   25.1452 N   0  0  0  0  0  0  0  0  0  0  0  0
   10.2074  -16.8000   26.1543 C   0  0  1  0  0  0  0  0  0  0  0  0
   11.6228  -17.2351   26.0193 C   0  0  0  0  0  0  0  0  0  0  0  0
   11.8039  -18.0790   24.8234 C   0  0  0  0  0  0  0  0  0  0  0  0
   10.9436  -18.5764   23.8882 C   0  0  0  0  0  0  0  0  0  0  0  0
   11.6218  -19.2544   22.9142 N   0  0  0  0  0  0  0  0  0  0  0  0
   12.8997  -19.1655   23.2606 C   0  0  0  0  0  0  0  0  0  0  0  0
   13.0401  -18.4715   24.3924 N   0  0  0  0  0  0  0  0  0  0  0  0
   10.1274  -16.0936   27.4991 C   0  0  0  0  0  0  0  0  0  0  0  0
    9.9213  -14.9059   27.6688 O   0  0  0  0  0  0  0  0  0  0  0  0
   10.3063  -16.8706   28.6641 O   0  0  0  0  0  0  0  0  0  0  0  0
  2  1  1  6
  2  3  1  0
  4  2  1  0
  5  4  2  0
  6  4  1  0
  7  6  1  0
  7  8  1  1
  9  8  1  0
 10  9  2  0
 11 10  1  0
 12 11  2  0
 12 13  1  0
 13 14  2  0
 14  9  1  0
 15 17  1  0
 15  7  1  0
 16 15  2  0
 18 25  1  0
 18 17  1  0
 18 19  1  6
 20 21  2  0
 20 19  1  0
 22 21  1  0
 23 24  2  0
 23 22  1  0
 24 20  1  0
 25 27  1  0
 26 25  2  0
M  END
$$$$
