AFH.pdb
     RDKit          3D

 27 28  0  0  1  0  0  0  0  0999 V2000
    8.3092  -18.1208   19.8155 C   0  0  0  0  0  0  0  0  0  0  0  0
    8.6333  -16.6561   19.7651 C   0  0  2  0  0  0  0  0  0  0  0  0
    9.7592  -16.4577   18.9076 N   0  0  0  0  0  0  0  0  0  0  0  0
    8.7972  -16.0580   21.1079 C   0  0  0  0  0  0  0  0  0  0  0  0
    9.9403  -16.0401   21.6327 O   0  0  0  0  0  0  0  0  0  0  0  0
    7.7395  -15.4911   21.8642 N   0  0  0  0  0  0  0  0  0  0  0  0
    7.9365  -14.8340   23.1388 C   0  0  1  0  0  0  0  0  0  0  0  0
    6.6970  -14.1046   23.6015 C   0  0  0  0  0  0  0  0  0  0  0  0
    6.9180  -13.3883   24.8778 C   0  0  0  0  0  0  0  0  0  0  0  0
    7.6924  -12.2522   24.8686 C   0  0  0  0  0  0  0  0  0  0  0  0
    7.9239  -11.5545   26.0337 C   0  0  0  0  0  0  0  0  0  0  0  0
    7.3827  -11.9885   27.2146 C   0  0  0  0  0  0  0  0  0  0  0  0
    6.6050  -13.1222   27.2476 C   0  0  0  0  0  0  0  0  0  0  0  0
    6.3790  -13.8114   26.0838 C   0  0  0  0  0  0  0  0  0  0  0  0
    8.2347  -15.8777   24.1416 C   0  0  0  0  0  0  0  0  0  0  0  0
    7.3807  -16.7734   24.3490 O   0  0  0  0  0  0  0  0  0  0  0  0
    9.4584  -15.8566   24.8451 N   0  0  0  0  0  0  0  0  0  0  0  0
    9.8129  -16.9498   25.7736 C   0  0  1  0  0  0  0  0  0  0  0  0
   11.1930  -17.4412   25.5188 C   0  0  0  0  0  0  0  0  0  0  0  0
   11.2347  -18.3000   24.3204 C   0  0  0  0  0  0  0  0  0  0  0  0
   10.2882  -19.0163   23.6472 C   0  0  0  0  0  0  0  0  0  0  0  0
   10.8206  -19.5987   22.5311 N   0  0  0  0  0  0  0  0  0  0  0  0
   12.0958  -19.2316   22.5276 C   0  0  0  0  0  0  0  0  0  0  0  0
   12.3725  -18.4579   23.5798 N   0  0  0  0  0  0  0  0  0  0  0  0
    9.8576  -16.3160   27.1556 C   0  0  0  0  0  0  0  0  0  0  0  0
    9.9999  -16.9111   28.2079 O   0  0  0  0  0  0  0  0  0  0  0  0
    9.7232  -14.9134   27.2428 O   0  0  0  0  0  0  0  0  0  0  0  0
  2  1  1  1
  2  3  1  0
  4  2  1  0
  5  4  2  0
  6  4  1  0
  7  6  1  0
  7  8  1  1
  9  8  1  0
 10  9  2  0
 11 10  1  0
 12 11  2  0
 12 13  1  0
 13 14  2  0
 14  9  1  0
 15 17  1  0
 15  7  1  0
 16 15  2  0
 18 25  1  0
 18 17  1  0
 18 19  1  6
 20 21  2  0
 20 19  1  0
 22 21  1  0
 23 24  2  0
 23 22  1  0
 24 20  1  0
 25 27  1  0
 26 25  2  0
M  END
$$$$
