AFH.pdb
     RDKit          3D

 27 28  0  0  1  0  0  0  0  0999 V2000
    8.6349  -18.2903   20.1962 C   0  0  0  0  0  0  0  0  0  0  0  0
    8.8618  -16.8247   19.9653 C   0  0  2  0  0  0  0  0  0  0  0  0
    9.9843  -16.6586   19.0965 N   0  0  0  0  0  0  0  0  0  0  0  0
    8.9663  -16.0548   21.2238 C   0  0  0  0  0  0  0  0  0  0  0  0
   10.0816  -15.9763   21.8005 O   0  0  0  0  0  0  0  0  0  0  0  0
    7.8802  -15.3841   21.8424 N   0  0  0  0  0  0  0  0  0  0  0  0
    7.9825  -14.7173   23.1231 C   0  0  1  0  0  0  0  0  0  0  0  0
    6.7868  -13.8381   23.4050 C   0  0  0  0  0  0  0  0  0  0  0  0
    6.8815  -13.1787   24.7267 C   0  0  0  0  0  0  0  0  0  0  0  0
    7.7572  -12.1293   24.8767 C   0  0  0  0  0  0  0  0  0  0  0  0
    7.8773  -11.4869   26.0895 C   0  0  0  0  0  0  0  0  0  0  0  0
    7.1228  -11.8898   27.1592 C   0  0  0  0  0  0  0  0  0  0  0  0
    6.2405  -12.9370   27.0322 C   0  0  0  0  0  0  0  0  0  0  0  0
    6.1265  -13.5716   25.8219 C   0  0  0  0  0  0  0  0  0  0  0  0
    8.0213  -15.7590   24.1707 C   0  0  0  0  0  0  0  0  0  0  0  0
    7.0190  -16.4989   24.3198 O   0  0  0  0  0  0  0  0  0  0  0  0
    9.1680  -15.9084   24.9803 N   0  0  0  0  0  0  0  0  0  0  0  0
    9.2131  -16.9361   26.0408 C   0  0  1  0  0  0  0  0  0  0  0  0
    9.2960  -18.3019   25.4588 C   0  0  0  0  0  0  0  0  0  0  0  0
   10.3975  -18.3935   24.4822 C   0  0  0  0  0  0  0  0  0  0  0  0
   11.3867  -17.5340   24.1017 C   0  0  0  0  0  0  0  0  0  0  0  0
   12.2231  -18.1243   23.1960 N   0  0  0  0  0  0  0  0  0  0  0  0
   11.7387  -19.3483   23.0286 C   0  0  0  0  0  0  0  0  0  0  0  0
   10.6525  -19.5386   23.7811 N   0  0  0  0  0  0  0  0  0  0  0  0
   10.5347  -16.7227   26.7630 C   0  0  0  0  0  0  0  0  0  0  0  0
   10.9610  -17.3970   27.6824 O   0  0  0  0  0  0  0  0  0  0  0  0
   11.3515  -15.6512   26.3413 O   0  0  0  0  0  0  0  0  0  0  0  0
  2  1  1  1
  2  3  1  0
  4  2  1  0
  5  4  2  0
  6  4  1  0
  7  6  1  0
  7  8  1  1
  9  8  1  0
 10  9  2  0
 11 10  1  0
 12 11  2  0
 12 13  1  0
 13 14  2  0
 14  9  1  0
 15 17  1  0
 15  7  1  0
 16 15  2  0
 18 25  1  0
 18 17  1  0
 18 19  1  6
 20 21  2  0
 20 19  1  0
 22 21  1  0
 23 24  2  0
 23 22  1  0
 24 20  1  0
 25 27  1  0
 26 25  2  0
M  END
$$$$
