AFH.pdb
     RDKit          3D

 27 28  0  0  1  0  0  0  0  0999 V2000
    9.4766  -19.1678   20.9515 C   0  0  0  0  0  0  0  0  0  0  0  0
    8.6380  -17.9390   20.7525 C   0  0  2  0  0  0  0  0  0  0  0  0
    8.8614  -17.4312   19.4355 N   0  0  0  0  0  0  0  0  0  0  0  0
    8.8336  -16.9319   21.8179 C   0  0  0  0  0  0  0  0  0  0  0  0
    9.9235  -16.3060   21.8736 O   0  0  0  0  0  0  0  0  0  0  0  0
    7.8638  -16.6120   22.8025 N   0  0  0  0  0  0  0  0  0  0  0  0
    8.0823  -15.6323   23.8454 C   0  0  1  0  0  0  0  0  0  0  0  0
    6.7852  -15.1078   24.4153 C   0  0  0  0  0  0  0  0  0  0  0  0
    7.0088  -14.0274   25.4020 C   0  0  0  0  0  0  0  0  0  0  0  0
    6.8357  -14.3097   26.7365 C   0  0  0  0  0  0  0  0  0  0  0  0
    7.0332  -13.3340   27.6888 C   0  0  0  0  0  0  0  0  0  0  0  0
    7.4048  -12.0706   27.3126 C   0  0  0  0  0  0  0  0  0  0  0  0
    7.5836  -11.7656   25.9836 C   0  0  0  0  0  0  0  0  0  0  0  0
    7.3852  -12.7420   25.0415 C   0  0  0  0  0  0  0  0  0  0  0  0
    8.8093  -16.3005   24.9450 C   0  0  0  0  0  0  0  0  0  0  0  0
    8.4078  -17.4231   25.3360 O   0  0  0  0  0  0  0  0  0  0  0  0
    9.9306  -15.6784   25.5350 N   0  0  0  0  0  0  0  0  0  0  0  0
   10.7809  -16.4115   26.4954 C   0  0  1  0  0  0  0  0  0  0  0  0
   12.2014  -15.9859   26.3853 C   0  0  0  0  0  0  0  0  0  0  0  0
   12.7749  -16.3910   25.0883 C   0  0  0  0  0  0  0  0  0  0  0  0
   12.6504  -17.5097   24.3169 C   0  0  0  0  0  0  0  0  0  0  0  0
   13.3370  -17.3708   23.1432 N   0  0  0  0  0  0  0  0  0  0  0  0
   13.8786  -16.1610   23.2036 C   0  0  0  0  0  0  0  0  0  0  0  0
   13.5618  -15.5530   24.3491 N   0  0  0  0  0  0  0  0  0  0  0  0
   10.3278  -15.9573   27.8745 C   0  0  0  0  0  0  0  0  0  0  0  0
    9.4816  -15.1129   28.1042 O   0  0  0  0  0  0  0  0  0  0  0  0
   10.9331  -16.5589   28.9992 O   0  0  0  0  0  0  0  0  0  0  0  0
  2  1  1  1
  2  3  1  0
  4  2  1  0
  5  4  2  0
  6  4  1  0
  7  6  1  0
  7  8  1  1
  9  8  1  0
 10  9  2  0
 11 10  1  0
 12 11  2  0
 12 13  1  0
 13 14  2  0
 14  9  1  0
 15 17  1  0
 15  7  1  0
 16 15  2  0
 18 25  1  0
 18 17  1  0
 18 19  1  6
 20 21  2  0
 20 19  1  0
 22 21  1  0
 23 24  2  0
 23 22  1  0
 24 20  1  0
 25 27  1  0
 26 25  2  0
M  END
$$$$
