AFH.pdb
     RDKit          3D

 27 28  0  0  1  0  0  0  0  0999 V2000
    8.7681  -18.3747   20.2195 C   0  0  0  0  0  0  0  0  0  0  0  0
    8.8464  -16.8844   20.0597 C   0  0  2  0  0  0  0  0  0  0  0  0
    9.8780  -16.5703   19.1218 N   0  0  0  0  0  0  0  0  0  0  0  0
    8.9819  -16.1751   21.3505 C   0  0  0  0  0  0  0  0  0  0  0  0
   10.1323  -15.9688   21.8158 O   0  0  0  0  0  0  0  0  0  0  0  0
    7.8887  -15.6998   22.1193 N   0  0  0  0  0  0  0  0  0  0  0  0
    8.0462  -14.9396   23.3410 C   0  0  1  0  0  0  0  0  0  0  0  0
    6.7605  -14.2691   23.7648 C   0  0  0  0  0  0  0  0  0  0  0  0
    6.9097  -13.5402   25.0443 C   0  0  0  0  0  0  0  0  0  0  0  0
    7.7507  -12.4532   25.0875 C   0  0  0  0  0  0  0  0  0  0  0  0
    7.9193  -11.7459   26.2576 C   0  0  0  0  0  0  0  0  0  0  0  0
    7.2483  -12.1210   27.3911 C   0  0  0  0  0  0  0  0  0  0  0  0
    6.4020  -13.2048   27.3712 C   0  0  0  0  0  0  0  0  0  0  0  0
    6.2393  -13.9040   26.2028 C   0  0  0  0  0  0  0  0  0  0  0  0
    8.4257  -15.8839   24.4125 C   0  0  0  0  0  0  0  0  0  0  0  0
    7.6851  -16.8728   24.6321 O   0  0  0  0  0  0  0  0  0  0  0  0
    9.5992  -15.6670   25.1665 N   0  0  0  0  0  0  0  0  0  0  0  0
   10.0571  -16.6672   26.1527 C   0  0  1  0  0  0  0  0  0  0  0  0
   11.4865  -17.0155   25.9367 C   0  0  0  0  0  0  0  0  0  0  0  0
   11.6289  -18.0218   24.8678 C   0  0  0  0  0  0  0  0  0  0  0  0
   10.7338  -18.6879   24.0823 C   0  0  0  0  0  0  0  0  0  0  0  0
   11.3782  -19.4771   23.1712 N   0  0  0  0  0  0  0  0  0  0  0  0
   12.6704  -19.2865   23.4052 C   0  0  0  0  0  0  0  0  0  0  0  0
   12.8515  -18.4252   24.4090 N   0  0  0  0  0  0  0  0  0  0  0  0
   10.0108  -15.9650   27.5011 C   0  0  0  0  0  0  0  0  0  0  0  0
   10.0822  -14.7632   27.6813 O   0  0  0  0  0  0  0  0  0  0  0  0
    9.8732  -16.7642   28.6567 O   0  0  0  0  0  0  0  0  0  0  0  0
  2  1  1  1
  2  3  1  0
  4  2  1  0
  5  4  2  0
  6  4  1  0
  7  6  1  0
  7  8  1  1
  9  8  1  0
 10  9  2  0
 11 10  1  0
 12 11  2  0
 12 13  1  0
 13 14  2  0
 14  9  1  0
 15 17  1  0
 15  7  1  0
 16 15  2  0
 18 25  1  0
 18 17  1  0
 18 19  1  6
 20 21  2  0
 20 19  1  0
 22 21  1  0
 23 24  2  0
 23 22  1  0
 24 20  1  0
 25 27  1  0
 26 25  2  0
M  END
$$$$
