AFH.pdb
     RDKit          3D

 27 28  0  0  1  0  0  0  0  0999 V2000
    8.9169  -20.0821   19.1150 C   0  0  0  0  0  0  0  0  0  0  0  0
    8.5719  -18.6391   18.8878 C   0  0  2  0  0  0  0  0  0  0  0  0
    8.8423  -18.3048   17.5249 N   0  0  0  0  0  0  0  0  0  0  0  0
    9.2207  -17.7337   19.8609 C   0  0  0  0  0  0  0  0  0  0  0  0
   10.3791  -17.3069   19.6192 O   0  0  0  0  0  0  0  0  0  0  0  0
    8.6218  -17.3015   21.0719 N   0  0  0  0  0  0  0  0  0  0  0  0
    9.2773  -16.4176   22.0123 C   0  0  1  0  0  0  0  0  0  0  0  0
    8.3088  -15.4573   22.6621 C   0  0  0  0  0  0  0  0  0  0  0  0
    7.8763  -14.3904   21.7319 C   0  0  0  0  0  0  0  0  0  0  0  0
    6.7134  -14.5699   21.0204 C   0  0  0  0  0  0  0  0  0  0  0  0
    6.2738  -13.6025   20.1437 C   0  0  0  0  0  0  0  0  0  0  0  0
    6.9940  -12.4501   19.9731 C   0  0  0  0  0  0  0  0  0  0  0  0
    8.1599  -12.2491   20.6740 C   0  0  0  0  0  0  0  0  0  0  0  0
    8.5912  -13.2166   21.5450 C   0  0  0  0  0  0  0  0  0  0  0  0
    9.8577  -17.2524   23.0848 C   0  0  0  0  0  0  0  0  0  0  0  0
    9.1539  -18.1628   23.5850 O   0  0  0  0  0  0  0  0  0  0  0  0
   11.1775  -17.0205   23.5285 N   0  0  0  0  0  0  0  0  0  0  0  0
   11.8121  -17.9235   24.5107 C   0  0  1  0  0  0  0  0  0  0  0  0
   13.2940  -17.8121   24.4600 C   0  0  0  0  0  0  0  0  0  0  0  0
   13.8157  -18.2931   23.1670 C   0  0  0  0  0  0  0  0  0  0  0  0
   13.7547  -19.4928   22.5196 C   0  0  0  0  0  0  0  0  0  0  0  0
   14.3409  -19.4116   21.2875 N   0  0  0  0  0  0  0  0  0  0  0  0
   14.7574  -18.1556   21.1877 C   0  0  0  0  0  0  0  0  0  0  0  0
   14.4590  -17.4650   22.2906 N   0  0  0  0  0  0  0  0  0  0  0  0
   11.4124  -17.3891   25.8776 C   0  0  0  0  0  0  0  0  0  0  0  0
   10.7443  -16.3931   26.0855 O   0  0  0  0  0  0  0  0  0  0  0  0
   11.8474  -18.1003   27.0169 O   0  0  0  0  0  0  0  0  0  0  0  0
  2  1  1  1
  2  3  1  0
  4  2  1  0
  5  4  2  0
  6  4  1  0
  7  6  1  0
  7  8  1  1
  9  8  1  0
 10  9  2  0
 11 10  1  0
 12 11  2  0
 12 13  1  0
 13 14  2  0
 14  9  1  0
 15 17  1  0
 15  7  1  0
 16 15  2  0
 18 25  1  0
 18 17  1  0
 18 19  1  1
 20 21  2  0
 20 19  1  0
 22 21  1  0
 23 24  2  0
 23 22  1  0
 24 20  1  0
 25 27  1  0
 26 25  2  0
M  END
$$$$
