AFH.pdb
     RDKit          3D

 27 28  0  0  1  0  0  0  0  0999 V2000
    8.1051  -18.0666   19.8683 C   0  0  0  0  0  0  0  0  0  0  0  0
    8.4780  -16.6179   19.7457 C   0  0  2  0  0  0  0  0  0  0  0  0
    9.5719  -16.4943   18.8344 N   0  0  0  0  0  0  0  0  0  0  0  0
    8.7210  -15.9750   21.0554 C   0  0  0  0  0  0  0  0  0  0  0  0
    9.8767  -16.0163   21.5505 O   0  0  0  0  0  0  0  0  0  0  0  0
    7.7275  -15.3010   21.8109 N   0  0  0  0  0  0  0  0  0  0  0  0
    7.9911  -14.6669   23.0851 C   0  0  1  0  0  0  0  0  0  0  0  0
    6.8120  -13.8589   23.5743 C   0  0  0  0  0  0  0  0  0  0  0  0
    7.0743  -13.2344   24.8904 C   0  0  0  0  0  0  0  0  0  0  0  0
    6.2320  -13.5277   25.9369 C   0  0  0  0  0  0  0  0  0  0  0  0
    6.4392  -12.9687   27.1788 C   0  0  0  0  0  0  0  0  0  0  0  0
    7.4894  -12.1133   27.3818 C   0  0  0  0  0  0  0  0  0  0  0  0
    8.3446  -11.8056   26.3496 C   0  0  0  0  0  0  0  0  0  0  0  0
    8.1319  -12.3660   25.1162 C   0  0  0  0  0  0  0  0  0  0  0  0
    8.2363  -15.7348   24.0768 C   0  0  0  0  0  0  0  0  0  0  0  0
    7.4269  -16.6914   24.1424 O   0  0  0  0  0  0  0  0  0  0  0  0
    9.3612  -15.6687   24.9270 N   0  0  0  0  0  0  0  0  0  0  0  0
    9.8304  -16.8681   25.6509 C   0  0  1  0  0  0  0  0  0  0  0  0
   11.2098  -17.2374   25.2362 C   0  0  0  0  0  0  0  0  0  0  0  0
   11.7002  -18.3958   26.0061 C   0  0  0  0  0  0  0  0  0  0  0  0
   11.1817  -19.1228   27.0380 C   0  0  0  0  0  0  0  0  0  0  0  0
   12.0036  -20.1665   27.3597 N   0  0  0  0  0  0  0  0  0  0  0  0
   13.0243  -20.0718   26.5170 C   0  0  0  0  0  0  0  0  0  0  0  0
   12.8722  -19.0281   25.6987 N   0  0  0  0  0  0  0  0  0  0  0  0
    9.9445  -16.4491   27.1087 C   0  0  0  0  0  0  0  0  0  0  0  0
    9.6182  -17.1202   28.0705 O   0  0  0  0  0  0  0  0  0  0  0  0
   10.4739  -15.1705   27.3882 O   0  0  0  0  0  0  0  0  0  0  0  0
  2  1  1  1
  2  3  1  0
  4  2  1  0
  5  4  2  0
  6  4  1  0
  7  6  1  0
  7  8  1  1
  9  8  1  0
 10  9  2  0
 11 10  1  0
 12 11  2  0
 12 13  1  0
 13 14  2  0
 14  9  1  0
 15 17  1  0
 15  7  1  0
 16 15  2  0
 18 25  1  0
 18 17  1  0
 18 19  1  6
 20 21  2  0
 20 19  1  0
 22 21  1  0
 23 24  2  0
 23 22  1  0
 24 20  1  0
 25 27  1  0
 26 25  2  0
M  END
$$$$
