WIL.pdb
     RDKit          3D

 31 32  0  0  1  0  0  0  0  0999 V2000
   26.9210  -22.4006  -12.6220 N   0  0  0  0  0  0  0  0  0  0  0  0
   26.3195  -21.1102  -12.3931 C   0  0  1  0  0  0  0  0  0  0  0  0
   27.3845  -20.1075  -12.0196 C   0  0  0  0  0  0  0  0  0  0  0  0
   28.1941  -20.5746  -10.8700 C   0  0  0  0  0  0  0  0  0  0  0  0
   29.3626  -21.2988  -10.9499 C   0  0  0  0  0  0  0  0  0  0  0  0
   29.7970  -21.5312   -9.6976 N   0  0  0  0  0  0  0  0  0  0  0  0
   28.9784  -20.9994   -8.7938 C   0  0  0  0  0  0  0  0  0  0  0  0
   28.9863  -20.9646   -7.4179 C   0  0  0  0  0  0  0  0  0  0  0  0
   27.9619  -20.3117   -6.7308 C   0  0  0  0  0  0  0  0  0  0  0  0
   26.9621  -19.7154   -7.4767 C   0  0  0  0  0  0  0  0  0  0  0  0
   26.9433  -19.7437   -8.8593 C   0  0  0  0  0  0  0  0  0  0  0  0
   27.9653  -20.3945   -9.5266 C   0  0  0  0  0  0  0  0  0  0  0  0
   25.5982  -20.6929  -13.6398 C   0  0  0  0  0  0  0  0  0  0  0  0
   26.3290  -20.4540  -14.6285 O   0  0  0  0  0  0  0  0  0  0  0  0
   25.0875  -21.8854  -17.8575 C   0  0  0  0  0  0  0  0  0  0  0  0
   24.7850  -20.9159  -16.7532 C   0  0  0  0  0  0  0  0  0  0  0  0
   23.6107  -21.3596  -15.9069 C   0  0  2  0  0  0  0  0  0  0  0  0
   22.4624  -21.6785  -16.8215 C   0  0  0  0  0  0  0  0  0  0  0  0
   23.3033  -20.4374  -14.7721 C   0  0  2  0  0  0  0  0  0  0  0  0
   24.2047  -20.5900  -13.6554 N   0  0  0  0  0  0  0  0  0  0  0  0
   21.9162  -20.3291  -14.3397 C   0  0  0  0  0  0  0  0  0  0  0  0
   20.9761  -20.1828  -15.2279 O   0  0  0  0  0  0  0  0  0  0  0  0
   21.0447  -21.3481   -8.8542 C   0  0  0  0  0  0  0  0  0  0  0  0
   20.7673  -20.5992  -10.2025 C   0  0  1  0  0  0  0  0  0  0  0  0
   21.9455  -19.6915  -10.3867 C   0  0  0  0  0  0  0  0  0  0  0  0
   20.5189  -21.6057  -11.2476 C   0  0  0  0  0  0  0  0  0  0  0  0
   20.2463  -21.2316  -12.6478 C   0  0  2  0  0  0  0  0  0  0  0  0
   21.4242  -20.3702  -13.0182 N   0  0  0  0  0  0  0  0  0  0  0  0
   19.0205  -20.4487  -12.8440 C   0  0  0  0  0  0  0  0  0  0  0  0
   17.7750  -20.9893  -12.5870 O   0  0  0  0  0  0  0  0  0  0  0  0
   19.0903  -19.2559  -13.2633 O   0  0  0  0  0  0  0  0  0  0  0  0
  2  1  1  6
  2  3  1  0
  3  4  1  0
  4 12  1  0
  4  5  2  0
  5  6  1  0
  7  6  1  0
  7  8  2  0
  9  8  1  0
 10  9  2  0
 11 10  1  0
 11 12  2  0
 12  7  1  0
 13  2  1  0
 13 20  1  0
 14 13  2  0
 15 16  1  0
 16 17  1  0
 17 18  1  6
 19 17  1  0
 19 20  1  1
 21 19  1  0
 22 21  2  0
 24 26  1  0
 24 23  1  1
 24 25  1  0
 27 26  1  1
 27 28  1  0
 28 21  1  0
 29 27  1  0
 29 30  1  0
 31 29  2  0
M  END
$$$$
