WIL.pdb
     RDKit          3D

 31 32  0  0  1  0  0  0  0  0999 V2000
   23.1653  -19.4786  -15.3255 N   0  0  0  0  0  0  0  0  0  0  0  0
   23.3211  -19.9803  -13.9826 C   0  0  1  0  0  0  0  0  0  0  0  0
   22.1921  -20.9277  -13.6554 C   0  0  0  0  0  0  0  0  0  0  0  0
   20.9389  -20.1982  -13.3512 C   0  0  0  0  0  0  0  0  0  0  0  0
   20.0426  -19.7164  -14.2789 C   0  0  0  0  0  0  0  0  0  0  0  0
   19.0368  -19.1162  -13.6163 N   0  0  0  0  0  0  0  0  0  0  0  0
   19.2199  -19.1754  -12.2999 C   0  0  0  0  0  0  0  0  0  0  0  0
   18.4918  -18.7203  -11.2243 C   0  0  0  0  0  0  0  0  0  0  0  0
   18.9538  -18.9402   -9.9259 C   0  0  0  0  0  0  0  0  0  0  0  0
   20.1479  -19.6200   -9.7720 C   0  0  0  0  0  0  0  0  0  0  0  0
   20.8884  -20.0820  -10.8449 C   0  0  0  0  0  0  0  0  0  0  0  0
   20.4179  -19.8566  -12.1259 C   0  0  0  0  0  0  0  0  0  0  0  0
   24.6497  -20.6684  -13.8824 C   0  0  0  0  0  0  0  0  0  0  0  0
   24.8210  -21.6233  -14.6744 O   0  0  0  0  0  0  0  0  0  0  0  0
   29.2076  -18.6733  -14.7449 C   0  0  0  0  0  0  0  0  0  0  0  0
   28.0346  -19.5483  -14.4145 C   0  0  0  0  0  0  0  0  0  0  0  0
   28.0442  -19.9977  -12.9687 C   0  0  2  0  0  0  0  0  0  0  0  0
   29.3929  -20.5856  -12.6652 C   0  0  0  0  0  0  0  0  0  0  0  0
   26.8673  -20.8372  -12.5909 C   0  0  2  0  0  0  0  0  0  0  0  0
   25.6040  -20.2419  -12.9548 N   0  0  0  0  0  0  0  0  0  0  0  0
   26.8357  -21.3996  -11.2472 C   0  0  0  0  0  0  0  0  0  0  0  0
   26.7686  -22.6902  -11.0925 O   0  0  0  0  0  0  0  0  0  0  0  0
   28.6042  -19.4252   -6.0381 C   0  0  0  0  0  0  0  0  0  0  0  0
   27.3139  -19.7348   -6.8718 C   0  0  1  0  0  0  0  0  0  0  0  0
   26.9130  -18.4170   -7.4621 C   0  0  0  0  0  0  0  0  0  0  0  0
   27.6196  -20.8300   -7.8069 C   0  0  0  0  0  0  0  0  0  0  0  0
   26.6030  -21.3923   -8.7151 C   0  0  2  0  0  0  0  0  0  0  0  0
   26.8771  -20.6993  -10.0233 N   0  0  0  0  0  0  0  0  0  0  0  0
   25.2152  -21.1151   -8.3264 C   0  0  0  0  0  0  0  0  0  0  0  0
   24.6609  -21.6796   -7.1934 O   0  0  0  0  0  0  0  0  0  0  0  0
   24.4980  -20.3514   -9.0376 O   0  0  0  0  0  0  0  0  0  0  0  0
  2  1  1  6
  2  3  1  0
  3  4  1  0
  4 12  1  0
  4  5  2  0
  5  6  1  0
  7  6  1  0
  7  8  2  0
  9  8  1  0
 10  9  2  0
 11 10  1  0
 11 12  2  0
 12  7  1  0
 13  2  1  0
 13 20  1  0
 14 13  2  0
 15 16  1  0
 16 17  1  0
 17 18  1  6
 19 17  1  0
 19 20  1  1
 21 19  1  0
 22 21  2  0
 24 26  1  0
 24 23  1  6
 24 25  1  0
 27 26  1  1
 27 28  1  0
 28 21  1  0
 29 27  1  0
 29 30  1  0
 31 29  2  0
M  END
$$$$
