WIL.pdb
     RDKit          3D

 31 32  0  0  1  0  0  0  0  0999 V2000
   23.8079  -22.0742  -13.2788 N   0  0  0  0  0  0  0  0  0  0  0  0
   24.0416  -20.9739  -12.3766 C   0  0  1  0  0  0  0  0  0  0  0  0
   22.7407  -20.5481  -11.7399 C   0  0  0  0  0  0  0  0  0  0  0  0
   21.7609  -20.0924  -12.7537 C   0  0  0  0  0  0  0  0  0  0  0  0
   20.4558  -20.5185  -12.8601 C   0  0  0  0  0  0  0  0  0  0  0  0
   19.8902  -19.8781  -13.8998 N   0  0  0  0  0  0  0  0  0  0  0  0
   20.7514  -19.0512  -14.4867 C   0  0  0  0  0  0  0  0  0  0  0  0
   20.6565  -18.1963  -15.5610 C   0  0  0  0  0  0  0  0  0  0  0  0
   21.7620  -17.4380  -15.9489 C   0  0  0  0  0  0  0  0  0  0  0  0
   22.9298  -17.5807  -15.2226 C   0  0  0  0  0  0  0  0  0  0  0  0
   23.0374  -18.4364  -14.1414 C   0  0  0  0  0  0  0  0  0  0  0  0
   21.9333  -19.1815  -13.7686 C   0  0  0  0  0  0  0  0  0  0  0  0
   25.0330  -21.4105  -11.3396 C   0  0  0  0  0  0  0  0  0  0  0  0
   24.8935  -22.5836  -10.9238 O   0  0  0  0  0  0  0  0  0  0  0  0
   29.7079  -21.4478  -12.9572 C   0  0  0  0  0  0  0  0  0  0  0  0
   28.4484  -21.5886  -12.1544 C   0  0  0  0  0  0  0  0  0  0  0  0
   28.4726  -20.7446  -10.8976 C   0  0  2  0  0  0  0  0  0  0  0  0
   29.7336  -21.0564  -10.1430 C   0  0  0  0  0  0  0  0  0  0  0  0
   27.2071  -20.8066  -10.1057 C   0  0  2  0  0  0  0  0  0  0  0  0
   26.0290  -20.5372  -10.8947 N   0  0  0  0  0  0  0  0  0  0  0  0
   27.1719  -20.1153   -8.8236 C   0  0  0  0  0  0  0  0  0  0  0  0
   26.6200  -18.9393   -8.7430 O   0  0  0  0  0  0  0  0  0  0  0  0
   28.4916  -22.3679   -3.7074 C   0  0  0  0  0  0  0  0  0  0  0  0
   27.5391  -21.5773   -4.6684 C   0  0  1  0  0  0  0  0  0  0  0  0
   26.4002  -21.1342   -3.8010 C   0  0  0  0  0  0  0  0  0  0  0  0
   28.3257  -20.5295   -5.3396 C   0  0  0  0  0  0  0  0  0  0  0  0
   27.7499  -19.6673   -6.3883 C   0  0  2  0  0  0  0  0  0  0  0  0
   27.6752  -20.5737   -7.5881 N   0  0  0  0  0  0  0  0  0  0  0  0
   28.5691  -18.5013   -6.7395 C   0  0  0  0  0  0  0  0  0  0  0  0
   28.3363  -17.2634   -6.1711 O   0  0  0  0  0  0  0  0  0  0  0  0
   29.5060  -18.6157   -7.5836 O   0  0  0  0  0  0  0  0  0  0  0  0
  2  1  1  6
  2  3  1  0
  3  4  1  0
  4 12  1  0
  4  5  2  0
  5  6  1  0
  7  6  1  0
  7  8  2  0
  9  8  1  0
 10  9  2  0
 11 10  1  0
 11 12  2  0
 12  7  1  0
 13  2  1  0
 13 20  1  0
 14 13  2  0
 15 16  1  0
 16 17  1  0
 17 18  1  1
 19 17  1  0
 19 20  1  6
 21 19  1  0
 22 21  2  0
 24 26  1  0
 24 23  1  1
 24 25  1  0
 27 26  1  1
 27 28  1  0
 28 21  1  0
 29 27  1  0
 29 30  1  0
 31 29  2  0
M  END
$$$$
