WIL.pdb
     RDKit          3D

 31 32  0  0  1  0  0  0  0  0999 V2000
   27.6300  -25.3148  -16.5386 N   0  0  0  0  0  0  0  0  0  0  0  0
   26.6341  -24.2766  -16.6368 C   0  0  1  0  0  0  0  0  0  0  0  0
   25.4000  -24.6757  -15.8644 C   0  0  0  0  0  0  0  0  0  0  0  0
   24.7287  -25.8464  -16.4761 C   0  0  0  0  0  0  0  0  0  0  0  0
   25.0211  -27.1671  -16.2188 C   0  0  0  0  0  0  0  0  0  0  0  0
   24.2001  -27.9301  -16.9637 N   0  0  0  0  0  0  0  0  0  0  0  0
   23.3804  -27.1846  -17.6999 C   0  0  0  0  0  0  0  0  0  0  0  0
   22.3842  -27.4853  -18.6006 C   0  0  0  0  0  0  0  0  0  0  0  0
   21.6802  -26.4582  -19.2308 C   0  0  0  0  0  0  0  0  0  0  0  0
   22.0204  -25.1553  -18.9171 C   0  0  0  0  0  0  0  0  0  0  0  0
   23.0194  -24.8406  -18.0139 C   0  0  0  0  0  0  0  0  0  0  0  0
   23.7085  -25.8692  -17.3971 C   0  0  0  0  0  0  0  0  0  0  0  0
   27.2186  -23.0038  -16.1008 C   0  0  0  0  0  0  0  0  0  0  0  0
   28.0424  -23.1423  -15.1678 O   0  0  0  0  0  0  0  0  0  0  0  0
   29.4247  -18.8654  -18.4731 C   0  0  0  0  0  0  0  0  0  0  0  0
   28.8966  -19.8331  -17.4555 C   0  0  0  0  0  0  0  0  0  0  0  0
   27.5301  -19.4339  -16.9403 C   0  0  2  0  0  0  0  0  0  0  0  0
   27.6224  -18.0409  -16.3852 C   0  0  0  0  0  0  0  0  0  0  0  0
   26.9028  -20.4521  -16.0445 C   0  0  2  0  0  0  0  0  0  0  0  0
   26.8427  -21.7680  -16.6341 N   0  0  0  0  0  0  0  0  0  0  0  0
   25.6560  -20.0975  -15.3792 C   0  0  0  0  0  0  0  0  0  0  0  0
   25.6278  -19.0803  -14.5678 O   0  0  0  0  0  0  0  0  0  0  0  0
   22.3802  -16.5226  -15.4868 C   0  0  0  0  0  0  0  0  0  0  0  0
   21.8611  -17.9766  -15.7556 C   0  0  1  0  0  0  0  0  0  0  0  0
   20.9952  -17.8561  -16.9728 C   0  0  0  0  0  0  0  0  0  0  0  0
   23.0246  -18.8746  -15.8393 C   0  0  0  0  0  0  0  0  0  0  0  0
   23.1405  -20.0874  -15.0084 C   0  0  2  0  0  0  0  0  0  0  0  0
   24.4046  -20.7362  -15.5060 N   0  0  0  0  0  0  0  0  0  0  0  0
   22.0376  -21.0431  -15.1639 C   0  0  0  0  0  0  0  0  0  0  0  0
   22.2390  -22.2842  -15.7372 O   0  0  0  0  0  0  0  0  0  0  0  0
   20.8721  -20.7349  -14.7764 O   0  0  0  0  0  0  0  0  0  0  0  0
  2  1  1  1
  2  3  1  0
  3  4  1  0
  4 12  1  0
  4  5  2  0
  5  6  1  0
  7  6  1  0
  7  8  2  0
  9  8  1  0
 10  9  2  0
 11 10  1  0
 11 12  2  0
 12  7  1  0
 13  2  1  0
 13 20  1  0
 14 13  2  0
 15 16  1  0
 16 17  1  0
 17 18  1  1
 19 17  1  0
 19 20  1  6
 21 19  1  0
 22 21  2  0
 24 26  1  0
 24 23  1  6
 24 25  1  0
 27 26  1  6
 27 28  1  0
 28 21  1  0
 29 27  1  0
 29 30  1  0
 31 29  2  0
M  END
$$$$
