WIL.pdb
     RDKit          3D

 31 32  0  0  1  0  0  0  0  0999 V2000
   23.4142  -21.0340  -15.0461 N   0  0  0  0  0  0  0  0  0  0  0  0
   23.5100  -20.5466  -13.6924 C   0  0  1  0  0  0  0  0  0  0  0  0
   22.2506  -20.8899  -12.9340 C   0  0  0  0  0  0  0  0  0  0  0  0
   21.0875  -20.1175  -13.4302 C   0  0  0  0  0  0  0  0  0  0  0  0
   20.3247  -19.2448  -12.6869 C   0  0  0  0  0  0  0  0  0  0  0  0
   19.3660  -18.7420  -13.4864 N   0  0  0  0  0  0  0  0  0  0  0  0
   19.4540  -19.2357  -14.7186 C   0  0  0  0  0  0  0  0  0  0  0  0
   18.7242  -19.0385  -15.8687 C   0  0  0  0  0  0  0  0  0  0  0  0
   19.0682  -19.7178  -17.0382 C   0  0  0  0  0  0  0  0  0  0  0  0
   20.1497  -20.5778  -16.9910 C   0  0  0  0  0  0  0  0  0  0  0  0
   20.8906  -20.7843  -15.8415 C   0  0  0  0  0  0  0  0  0  0  0  0
   20.5378  -20.1040  -14.6900 C   0  0  0  0  0  0  0  0  0  0  0  0
   24.7143  -21.1650  -13.0475 C   0  0  0  0  0  0  0  0  0  0  0  0
   24.7517  -22.4167  -13.0692 O   0  0  0  0  0  0  0  0  0  0  0  0
   29.5159  -19.8698  -14.4729 C   0  0  0  0  0  0  0  0  0  0  0  0
   28.2601  -20.4444  -13.8869 C   0  0  0  0  0  0  0  0  0  0  0  0
   28.1490  -20.1814  -12.4000 C   0  0  2  0  0  0  0  0  0  0  0  0
   29.4452  -20.5771  -11.7518 C   0  0  0  0  0  0  0  0  0  0  0  0
   26.9117  -20.7438  -11.7794 C   0  0  2  0  0  0  0  0  0  0  0  0
   25.7045  -20.3637  -12.4730 N   0  0  0  0  0  0  0  0  0  0  0  0
   26.7650  -20.6343  -10.3340 C   0  0  0  0  0  0  0  0  0  0  0  0
   26.2650  -19.5483   -9.8196 O   0  0  0  0  0  0  0  0  0  0  0  0
   28.1045  -20.3245   -5.1602 C   0  0  0  0  0  0  0  0  0  0  0  0
   27.3945  -19.4814   -6.2742 C   0  0  1  0  0  0  0  0  0  0  0  0
   27.9847  -18.1094   -6.1518 C   0  0  0  0  0  0  0  0  0  0  0  0
   27.5638  -20.1784   -7.5598 C   0  0  0  0  0  0  0  0  0  0  0  0
   26.7906  -21.3858   -7.9049 C   0  0  2  0  0  0  0  0  0  0  0  0
   27.1026  -21.5996   -9.3622 N   0  0  0  0  0  0  0  0  0  0  0  0
   25.3372  -21.2438   -7.7588 C   0  0  0  0  0  0  0  0  0  0  0  0
   24.6212  -22.0474   -6.8919 O   0  0  0  0  0  0  0  0  0  0  0  0
   24.7131  -20.3773   -8.4393 O   0  0  0  0  0  0  0  0  0  0  0  0
  2  1  1  6
  2  3  1  0
  3  4  1  0
  4 12  1  0
  4  5  2  0
  5  6  1  0
  7  6  1  0
  7  8  2  0
  9  8  1  0
 10  9  2  0
 11 10  1  0
 11 12  2  0
 12  7  1  0
 13  2  1  0
 13 20  1  0
 14 13  2  0
 15 16  1  0
 16 17  1  0
 17 18  1  1
 19 17  1  0
 19 20  1  6
 21 19  1  0
 22 21  2  0
 24 26  1  0
 24 23  1  1
 24 25  1  0
 27 26  1  6
 27 28  1  0
 28 21  1  0
 29 27  1  0
 29 30  1  0
 31 29  2  0
M  END
$$$$
