WIL.pdb
     RDKit          3D

 31 32  0  0  1  0  0  0  0  0999 V2000
   25.2226  -22.3954  -15.0613 N   0  0  0  0  0  0  0  0  0  0  0  0
   25.7470  -21.3776  -14.1847 C   0  0  1  0  0  0  0  0  0  0  0  0
   24.6344  -20.4563  -13.7460 C   0  0  0  0  0  0  0  0  0  0  0  0
   25.1429  -19.1028  -13.4222 C   0  0  0  0  0  0  0  0  0  0  0  0
   25.5664  -18.1625  -14.3347 C   0  0  0  0  0  0  0  0  0  0  0  0
   25.9528  -17.0661  -13.6568 N   0  0  0  0  0  0  0  0  0  0  0  0
   25.8076  -17.2310  -12.3447 C   0  0  0  0  0  0  0  0  0  0  0  0
   26.0561  -16.4230  -11.2587 C   0  0  0  0  0  0  0  0  0  0  0  0
   25.7949  -16.8879   -9.9690 C   0  0  0  0  0  0  0  0  0  0  0  0
   25.2871  -18.1668   -9.8342 C   0  0  0  0  0  0  0  0  0  0  0  0
   25.0333  -18.9880  -10.9177 C   0  0  0  0  0  0  0  0  0  0  0  0
   25.2971  -18.5136  -12.1900 C   0  0  0  0  0  0  0  0  0  0  0  0
   26.3890  -22.0479  -13.0069 C   0  0  0  0  0  0  0  0  0  0  0  0
   25.7152  -22.9597  -12.4748 O   0  0  0  0  0  0  0  0  0  0  0  0
   32.0776  -22.5325  -10.5465 C   0  0  0  0  0  0  0  0  0  0  0  0
   30.5919  -22.5619  -10.3401 C   0  0  0  0  0  0  0  0  0  0  0  0
   29.8411  -21.9212  -11.4881 C   0  0  2  0  0  0  0  0  0  0  0  0
   30.4137  -20.5521  -11.7220 C   0  0  0  0  0  0  0  0  0  0  0  0
   28.3550  -21.9911  -11.3499 C   0  0  2  0  0  0  0  0  0  0  0  0
   27.6544  -21.6521  -12.5652 N   0  0  0  0  0  0  0  0  0  0  0  0
   27.7500  -21.3654  -10.1815 C   0  0  0  0  0  0  0  0  0  0  0  0
   27.5441  -20.0802  -10.1755 O   0  0  0  0  0  0  0  0  0  0  0  0
   23.0094  -22.0741   -8.0617 C   0  0  0  0  0  0  0  0  0  0  0  0
   24.2841  -21.2620   -8.4756 C   0  0  1  0  0  0  0  0  0  0  0  0
   23.8868  -19.8242   -8.3314 C   0  0  0  0  0  0  0  0  0  0  0  0
   25.4174  -21.7353   -7.6639 C   0  0  0  0  0  0  0  0  0  0  0  0
   26.7818  -21.2027   -7.8359 C   0  0  2  0  0  0  0  0  0  0  0  0
   27.3269  -21.9967   -8.9931 N   0  0  0  0  0  0  0  0  0  0  0  0
   27.6658  -21.4009   -6.6813 C   0  0  0  0  0  0  0  0  0  0  0  0
   28.4968  -22.5016   -6.5944 O   0  0  0  0  0  0  0  0  0  0  0  0
   27.6722  -20.5588   -5.7357 O   0  0  0  0  0  0  0  0  0  0  0  0
  2  1  1  6
  2  3  1  0
  3  4  1  0
  4 12  1  0
  4  5  2  0
  5  6  1  0
  7  6  1  0
  7  8  2  0
  9  8  1  0
 10  9  2  0
 11 10  1  0
 11 12  2  0
 12  7  1  0
 13  2  1  0
 13 20  1  0
 14 13  2  0
 15 16  1  0
 16 17  1  0
 17 18  1  1
 19 17  1  0
 19 20  1  6
 21 19  1  0
 22 21  2  0
 24 26  1  0
 24 23  1  1
 24 25  1  0
 27 26  1  1
 27 28  1  0
 28 21  1  0
 29 27  1  0
 29 30  1  0
 31 29  2  0
M  END
$$$$
