REK.pdb
     RDKit          3D

 30 29  0  0  1  0  0  0  0  0999 V2000
    6.7044  -13.6630   19.8813 N   0  0  0  0  0  0  0  0  0  0  0  0
    7.8959  -13.1633   19.2913 C   0  0  0  0  0  0  0  0  0  0  0  0
    8.1601  -11.9062   19.3566 N   0  0  0  0  0  0  0  0  0  0  0  0
    8.7970  -14.0341   18.6299 N   0  0  0  0  0  0  0  0  0  0  0  0
    8.5559  -15.4535   18.5125 C   0  0  0  0  0  0  0  0  0  0  0  0
    8.2827  -16.0526   19.8649 C   0  0  0  0  0  0  0  0  0  0  0  0
    9.5188  -16.1546   20.6978 C   0  0  0  0  0  0  0  0  0  0  0  0
    9.3502  -17.2016   21.7537 C   0  0  2  0  0  0  0  0  0  0  0  0
    7.9729  -17.5306   21.9246 N   0  0  0  0  0  0  0  0  0  0  0  0
   10.0278  -16.8435   23.0266 C   0  0  0  0  0  0  0  0  0  0  0  0
   11.2407  -16.5331   22.9670 O   0  0  0  0  0  0  0  0  0  0  0  0
    8.9948  -11.5365   18.8822 N   0  0  0  0  0  0  0  0  0  0  0  0
    9.3806  -16.8345   24.2924 C   0  0  1  0  0  0  0  0  0  0  0  0
   10.0342  -16.4395   25.5207 C   0  0  0  0  0  0  0  0  0  0  0  0
    9.3171  -15.3713   26.2773 C   0  0  0  0  0  0  0  0  0  0  0  0
   10.0028  -14.9625   27.5424 C   0  0  0  0  0  0  0  0  0  0  0  0
    9.2170  -13.8844   28.2026 O   0  0  0  0  0  0  0  0  0  0  0  0
    8.1065  -13.5692   27.7003 C   0  0  0  0  0  0  0  0  0  0  0  0
   10.1134  -17.6482   26.3972 O   0  0  0  0  0  0  0  0  0  0  0  0
    9.0932  -18.3413   26.6577 O   0  0  0  0  0  0  0  0  0  0  0  0
    9.6355  -13.2179   29.3246 N   0  0  0  0  0  0  0  0  0  0  0  0
   11.3333  -18.0793   26.9805 C   0  0  2  0  0  0  0  0  0  0  0  0
   11.4353  -19.2002   27.8904 C   0  0  0  0  0  0  0  0  0  0  0  0
   12.8102  -19.8477   27.6736 C   0  0  0  0  0  0  0  0  0  0  0  0
   12.6610  -21.1661   26.9839 C   0  0  0  0  0  0  0  0  0  0  0  0
   13.9193  -21.8795   26.6761 C   0  0  0  0  0  0  0  0  0  0  0  0
   13.8061  -23.0989   25.8231 N   0  0  0  0  0  0  0  0  0  0  0  0
   15.0414  -23.6569   25.3916 C   0  0  0  0  0  0  0  0  0  0  0  0
   11.3469  -18.7485   29.3146 O   0  0  0  0  0  0  0  0  0  0  0  0
   11.3543  -17.5270   29.5381 O   0  0  0  0  0  0  0  0  0  0  0  0
  1  2  1  0
  2  3  2  0
  4  2  1  0
  4  5  1  0
  5  6  1  0
  7  6  1  0
  8  9  1  1
  8  7  1  0
 10  8  1  0
 11 10  2  0
 12 10  1  0
 13 18  1  0
 13 12  1  0
 13 14  1  1
 15 14  1  0
 16 15  1  0
 17 16  2  0
 18 19  2  0
 20 16  1  0
 21 22  1  0
 21 18  1  0
 22 23  1  6
 23 24  1  0
 24 25  1  0
 25 26  1  0
 26 27  1  0
 28 30  1  0
 28 22  1  0
 29 28  2  0
M  END
$$$$
