REK.pdb
     RDKit          3D

 30 29  0  0  1  0  0  0  0  0999 V2000
    8.3544  -15.8972   16.2713 N   0  0  0  0  0  0  0  0  0  0  0  0
    8.5397  -14.5612   15.8261 C   0  0  0  0  0  0  0  0  0  0  0  0
    8.3671  -14.2742   14.5843 N   0  0  0  0  0  0  0  0  0  0  0  0
    8.9141  -13.5404   16.7346 N   0  0  0  0  0  0  0  0  0  0  0  0
    9.0412  -13.7762   18.1541 C   0  0  0  0  0  0  0  0  0  0  0  0
    7.7061  -13.6301   18.8315 C   0  0  0  0  0  0  0  0  0  0  0  0
    7.2048  -14.9270   19.3780 C   0  0  0  0  0  0  0  0  0  0  0  0
    8.3398  -15.8820   19.5762 C   0  0  2  0  0  0  0  0  0  0  0  0
    8.2430  -16.9783   18.6690 N   0  0  0  0  0  0  0  0  0  0  0  0
    8.4884  -16.3066   20.9922 C   0  0  0  0  0  0  0  0  0  0  0  0
    7.4945  -16.1682   21.7433 O   0  0  0  0  0  0  0  0  0  0  0  0
    8.3897  -13.2911   14.2815 N   0  0  0  0  0  0  0  0  0  0  0  0
    9.6836  -16.8545   21.5330 C   0  0  2  0  0  0  0  0  0  0  0  0
    9.8020  -17.3233   22.8961 C   0  0  0  0  0  0  0  0  0  0  0  0
   11.0599  -18.0765   23.1753 C   0  0  0  0  0  0  0  0  0  0  0  0
   12.2722  -17.4916   22.5228 C   0  0  0  0  0  0  0  0  0  0  0  0
   13.4473  -18.3643   22.7938 O   0  0  0  0  0  0  0  0  0  0  0  0
   13.7892  -19.1888   21.9061 C   0  0  0  0  0  0  0  0  0  0  0  0
    9.7779  -16.1237   23.7883 O   0  0  0  0  0  0  0  0  0  0  0  0
   10.5308  -15.1340   23.5822 O   0  0  0  0  0  0  0  0  0  0  0  0
   14.1752  -18.3192   23.9541 N   0  0  0  0  0  0  0  0  0  0  0  0
    8.9117  -16.0335   24.9090 C   0  0  1  0  0  0  0  0  0  0  0  0
    8.8767  -14.8984   25.8063 C   0  0  0  0  0  0  0  0  0  0  0  0
    7.5293  -14.1911   25.6043 C   0  0  0  0  0  0  0  0  0  0  0  0
    7.4342  -12.9906   26.4907 C   0  0  0  0  0  0  0  0  0  0  0  0
    6.1963  -12.1914   26.3643 C   0  0  0  0  0  0  0  0  0  0  0  0
    6.1062  -10.9598   27.2025 N   0  0  0  0  0  0  0  0  0  0  0  0
    4.8615  -10.2736   27.1443 C   0  0  0  0  0  0  0  0  0  0  0  0
    8.9688  -15.3369   27.2344 O   0  0  0  0  0  0  0  0  0  0  0  0
    9.0509  -14.4580   28.1078 O   0  0  0  0  0  0  0  0  0  0  0  0
  1  2  1  0
  2  3  2  0
  4  2  1  0
  4  5  1  0
  5  6  1  0
  7  6  1  0
  8  9  1  6
  8  7  1  0
 10  8  1  0
 11 10  2  0
 12 10  1  0
 13 18  1  0
 13 12  1  0
 13 14  1  6
 15 14  1  0
 16 15  1  0
 17 16  2  0
 18 19  2  0
 20 16  1  0
 21 22  1  0
 21 18  1  0
 22 23  1  1
 23 24  1  0
 24 25  1  0
 25 26  1  0
 26 27  1  0
 28 30  1  0
 28 22  1  0
 29 28  2  0
M  END
$$$$
