REK.pdb
     RDKit          3D

 30 29  0  0  1  0  0  0  0  0999 V2000
    8.4470  -12.9602   20.2995 N   0  0  0  0  0  0  0  0  0  0  0  0
    8.9674  -12.5679   19.0374 C   0  0  0  0  0  0  0  0  0  0  0  0
    9.3565  -11.3552   18.8583 N   0  0  0  0  0  0  0  0  0  0  0  0
    9.0615  -13.4975   17.9722 N   0  0  0  0  0  0  0  0  0  0  0  0
    8.2983  -14.7237   17.9455 C   0  0  0  0  0  0  0  0  0  0  0  0
    8.3565  -15.4069   19.2843 C   0  0  0  0  0  0  0  0  0  0  0  0
    7.5255  -16.6478   19.3219 C   0  0  0  0  0  0  0  0  0  0  0  0
    8.3503  -17.8134   19.7700 C   0  0  2  0  0  0  0  0  0  0  0  0
    7.9263  -19.0118   19.1232 N   0  0  0  0  0  0  0  0  0  0  0  0
    8.4084  -17.9369   21.2495 C   0  0  0  0  0  0  0  0  0  0  0  0
    7.3354  -18.1780   21.8509 O   0  0  0  0  0  0  0  0  0  0  0  0
    9.6746  -11.0554   17.9269 N   0  0  0  0  0  0  0  0  0  0  0  0
    9.6020  -17.7977   22.0091 C   0  0  2  0  0  0  0  0  0  0  0  0
    9.6377  -17.8344   23.4545 C   0  0  0  0  0  0  0  0  0  0  0  0
   10.8271  -18.5384   24.0180 C   0  0  0  0  0  0  0  0  0  0  0  0
   11.0395  -19.9092   23.4581 C   0  0  0  0  0  0  0  0  0  0  0  0
   12.1377  -20.5817   24.2046 O   0  0  0  0  0  0  0  0  0  0  0  0
   12.7604  -19.9132   25.0707 C   0  0  0  0  0  0  0  0  0  0  0  0
    9.6689  -16.4206   23.9400 O   0  0  0  0  0  0  0  0  0  0  0  0
   10.5841  -15.6254   23.5949 O   0  0  0  0  0  0  0  0  0  0  0  0
   12.5070  -21.8857   24.0010 N   0  0  0  0  0  0  0  0  0  0  0  0
    8.6765  -15.8989   24.8102 C   0  0  2  0  0  0  0  0  0  0  0  0
    8.7247  -14.5672   25.3750 C   0  0  0  0  0  0  0  0  0  0  0  0
    7.2779  -14.1176   25.6223 C   0  0  0  0  0  0  0  0  0  0  0  0
    7.2565  -12.7991   26.3274 C   0  0  0  0  0  0  0  0  0  0  0  0
    5.9190  -12.2828   26.6902 C   0  0  0  0  0  0  0  0  0  0  0  0
    5.8747  -10.9472   27.3549 N   0  0  0  0  0  0  0  0  0  0  0  0
    4.5775  -10.4912   27.7191 C   0  0  0  0  0  0  0  0  0  0  0  0
    9.4495  -14.5628   26.6845 O   0  0  0  0  0  0  0  0  0  0  0  0
    9.7557  -13.4640   27.1753 O   0  0  0  0  0  0  0  0  0  0  0  0
  1  2  1  0
  2  3  2  0
  4  2  1  0
  4  5  1  0
  5  6  1  0
  7  6  1  0
  8  9  1  6
  8  7  1  0
 10  8  1  0
 11 10  2  0
 12 10  1  0
 13 18  1  0
 13 12  1  0
 13 14  1  6
 15 14  1  0
 16 15  1  0
 17 16  2  0
 18 19  2  0
 20 16  1  0
 21 22  1  0
 21 18  1  0
 22 23  1  6
 23 24  1  0
 24 25  1  0
 25 26  1  0
 26 27  1  0
 28 30  1  0
 28 22  1  0
 29 28  2  0
M  END
$$$$
