REK.pdb
     RDKit          3D

 30 29  0  0  1  0  0  0  0  0999 V2000
   15.0275  -18.0775   42.5354 N   0  0  0  0  0  0  0  0  0  0  0  0
   14.7877  -16.6826   42.4163 C   0  0  0  0  0  0  0  0  0  0  0  0
   14.8603  -16.1205   41.2617 N   0  0  0  0  0  0  0  0  0  0  0  0
   14.4706  -15.9023   43.5556 N   0  0  0  0  0  0  0  0  0  0  0  0
   14.1059  -16.4942   44.8219 C   0  0  0  0  0  0  0  0  0  0  0  0
   12.7647  -17.1672   44.7192 C   0  0  0  0  0  0  0  0  0  0  0  0
   12.2672  -17.6410   46.0458 C   0  0  0  0  0  0  0  0  0  0  0  0
   10.9514  -18.3368   45.8903 C   0  0  2  0  0  0  0  0  0  0  0  0
   11.0475  -19.3937   44.9374 N   0  0  0  0  0  0  0  0  0  0  0  0
    9.8371  -17.3952   45.6084 C   0  0  0  0  0  0  0  0  0  0  0  0
    9.5029  -17.2390   44.4105 O   0  0  0  0  0  0  0  0  0  0  0  0
   14.6455  -15.1186   41.1693 N   0  0  0  0  0  0  0  0  0  0  0  0
    9.1392  -16.6714   46.6134 C   0  0  1  0  0  0  0  0  0  0  0  0
    8.0287  -15.7874   46.3354 C   0  0  0  0  0  0  0  0  0  0  0  0
    6.8712  -15.9510   47.2633 C   0  0  0  0  0  0  0  0  0  0  0  0
    6.2020  -17.2853   47.1654 C   0  0  0  0  0  0  0  0  0  0  0  0
    5.0661  -17.3385   48.1260 O   0  0  0  0  0  0  0  0  0  0  0  0
    4.8888  -16.3522   48.8880 C   0  0  0  0  0  0  0  0  0  0  0  0
    8.5270  -14.3838   46.4666 O   0  0  0  0  0  0  0  0  0  0  0  0
    9.1551  -14.0005   47.4900 O   0  0  0  0  0  0  0  0  0  0  0  0
    4.2049  -18.3999   48.2257 N   0  0  0  0  0  0  0  0  0  0  0  0
    8.3221  -13.4119   45.4528 C   0  0  1  0  0  0  0  0  0  0  0  0
    8.6663  -12.0139   45.6005 C   0  0  0  0  0  0  0  0  0  0  0  0
    9.4951  -11.6100   44.3731 C   0  0  0  0  0  0  0  0  0  0  0  0
   10.9157  -12.0467   44.5383 C   0  0  0  0  0  0  0  0  0  0  0  0
   11.8163  -11.7571   43.4017 C   0  0  0  0  0  0  0  0  0  0  0  0
   13.2389  -12.1836   43.5493 N   0  0  0  0  0  0  0  0  0  0  0  0
   14.0683  -11.9385   42.4198 C   0  0  0  0  0  0  0  0  0  0  0  0
    7.4393  -11.1579   45.6426 O   0  0  0  0  0  0  0  0  0  0  0  0
    7.5874   -9.9391   45.8286 O   0  0  0  0  0  0  0  0  0  0  0  0
  1  2  1  0
  2  3  2  0
  4  2  1  0
  4  5  1  0
  5  6  1  0
  7  6  1  0
  8  9  1  6
  8  7  1  0
 10  8  1  0
 11 10  2  0
 12 10  1  0
 13 18  1  0
 13 12  1  0
 13 14  1  1
 15 14  1  0
 16 15  1  0
 17 16  2  0
 18 19  2  0
 20 16  1  0
 21 22  1  0
 21 18  1  0
 22 23  1  1
 23 24  1  0
 24 25  1  0
 25 26  1  0
 26 27  1  0
 28 30  1  0
 28 22  1  0
 29 28  2  0
M  END
$$$$
