REK.pdb
     RDKit          3D

 30 29  0  0  1  0  0  0  0  0999 V2000
    8.5272  -14.9894   16.3406 N   0  0  0  0  0  0  0  0  0  0  0  0
    8.2321  -13.6220   16.5864 C   0  0  0  0  0  0  0  0  0  0  0  0
    7.9495  -12.8446   15.6014 N   0  0  0  0  0  0  0  0  0  0  0  0
    8.2466  -13.1036   17.9050 N   0  0  0  0  0  0  0  0  0  0  0  0
    8.5966  -13.9114   19.0502 C   0  0  0  0  0  0  0  0  0  0  0  0
    7.3731  -14.5817   19.6127 C   0  0  0  0  0  0  0  0  0  0  0  0
    7.6987  -15.4804   20.7609 C   0  0  0  0  0  0  0  0  0  0  0  0
    8.9347  -16.2718   20.4685 C   0  0  2  0  0  0  0  0  0  0  0  0
    8.7174  -17.1649   19.3778 N   0  0  0  0  0  0  0  0  0  0  0  0
    9.4808  -16.9450   21.6752 C   0  0  0  0  0  0  0  0  0  0  0  0
    8.7876  -16.9096   22.7189 O   0  0  0  0  0  0  0  0  0  0  0  0
    7.6824  -11.8681   15.7845 N   0  0  0  0  0  0  0  0  0  0  0  0
   10.7324  -17.6185   21.7076 C   0  0  2  0  0  0  0  0  0  0  0  0
   11.2072  -18.3671   22.8504 C   0  0  0  0  0  0  0  0  0  0  0  0
   12.4528  -19.1482   22.5936 C   0  0  0  0  0  0  0  0  0  0  0  0
   12.9773  -19.8628   23.7985 C   0  0  0  0  0  0  0  0  0  0  0  0
   14.2071  -20.6155   23.4285 O   0  0  0  0  0  0  0  0  0  0  0  0
   14.4134  -20.8490   22.2088 C   0  0  0  0  0  0  0  0  0  0  0  0
   11.4970  -17.3869   23.9416 O   0  0  0  0  0  0  0  0  0  0  0  0
   12.4465  -16.5627   23.8519 O   0  0  0  0  0  0  0  0  0  0  0  0
   15.1246  -21.0669   24.3410 N   0  0  0  0  0  0  0  0  0  0  0  0
   10.7243  -17.3304   25.1308 C   0  0  2  0  0  0  0  0  0  0  0  0
   11.0464  -16.4803   26.2570 C   0  0  0  0  0  0  0  0  0  0  0  0
    9.7864  -15.6745   26.6028 C   0  0  0  0  0  0  0  0  0  0  0  0
   10.0430  -14.7877   27.7792 C   0  0  0  0  0  0  0  0  0  0  0  0
    8.8996  -13.9645   28.2285 C   0  0  0  0  0  0  0  0  0  0  0  0
    9.1474  -13.0447   29.3774 N   0  0  0  0  0  0  0  0  0  0  0  0
    8.0314  -12.2605   29.7811 C   0  0  0  0  0  0  0  0  0  0  0  0
   11.4289  -17.2931   27.4541 O   0  0  0  0  0  0  0  0  0  0  0  0
   12.0408  -16.7229   28.3720 O   0  0  0  0  0  0  0  0  0  0  0  0
  1  2  1  0
  2  3  2  0
  4  2  1  0
  4  5  1  0
  5  6  1  0
  7  6  1  0
  8  9  1  6
  8  7  1  0
 10  8  1  0
 11 10  2  0
 12 10  1  0
 13 18  1  0
 13 12  1  0
 13 14  1  6
 15 14  1  0
 16 15  1  0
 17 16  2  0
 18 19  2  0
 20 16  1  0
 21 22  1  0
 21 18  1  0
 22 23  1  1
 23 24  1  0
 24 25  1  0
 25 26  1  0
 26 27  1  0
 28 30  1  0
 28 22  1  0
 29 28  2  0
M  END
$$$$
