REK.pdb
     RDKit          3D

 30 29  0  0  1  0  0  0  0  0999 V2000
    8.5776  -14.4235   38.9097 N   0  0  0  0  0  0  0  0  0  0  0  0
    9.4459  -15.0138   37.9531 C   0  0  0  0  0  0  0  0  0  0  0  0
    8.9506  -15.6473   36.9492 N   0  0  0  0  0  0  0  0  0  0  0  0
   10.8523  -14.9139   38.0927 N   0  0  0  0  0  0  0  0  0  0  0  0
   11.4727  -14.1444   39.1461 C   0  0  0  0  0  0  0  0  0  0  0  0
   11.7399  -15.0147   40.3435 C   0  0  0  0  0  0  0  0  0  0  0  0
   12.2534  -14.2319   41.5077 C   0  0  0  0  0  0  0  0  0  0  0  0
   13.6520  -14.6486   41.8393 C   0  0  2  0  0  0  0  0  0  0  0  0
   13.6559  -15.8816   42.5563 N   0  0  0  0  0  0  0  0  0  0  0  0
   14.4221  -13.5750   42.5187 C   0  0  0  0  0  0  0  0  0  0  0  0
   14.3553  -13.5200   43.7692 O   0  0  0  0  0  0  0  0  0  0  0  0
    9.5799  -16.0603   36.2477 N   0  0  0  0  0  0  0  0  0  0  0  0
   15.2205  -12.6188   41.8335 C   0  0  2  0  0  0  0  0  0  0  0  0
   15.9885  -11.5925   42.5034 C   0  0  0  0  0  0  0  0  0  0  0  0
   17.3562  -11.3892   41.9415 C   0  0  0  0  0  0  0  0  0  0  0  0
   18.1786  -10.3944   42.6976 C   0  0  0  0  0  0  0  0  0  0  0  0
   19.5317  -10.3055   42.0839 O   0  0  0  0  0  0  0  0  0  0  0  0
   19.6066  -10.1264   40.8400 C   0  0  0  0  0  0  0  0  0  0  0  0
   15.2392  -10.3062   42.3635 O   0  0  0  0  0  0  0  0  0  0  0  0
   14.7309   -9.9558   41.2645 O   0  0  0  0  0  0  0  0  0  0  0  0
   20.6974  -10.4076   42.7972 N   0  0  0  0  0  0  0  0  0  0  0  0
   15.0597   -9.4146   43.4531 C   0  0  2  0  0  0  0  0  0  0  0  0
   14.3379   -8.1639   43.3555 C   0  0  0  0  0  0  0  0  0  0  0  0
   13.9569   -7.7379   44.7803 C   0  0  0  0  0  0  0  0  0  0  0  0
   12.5007   -7.9763   45.0223 C   0  0  0  0  0  0  0  0  0  0  0  0
   12.0081   -7.6417   46.3760 C   0  0  0  0  0  0  0  0  0  0  0  0
   10.5792   -7.9602   46.6662 N   0  0  0  0  0  0  0  0  0  0  0  0
   10.1957   -9.3092   46.4280 C   0  0  0  0  0  0  0  0  0  0  0  0
   15.1943   -7.0924   42.7567 O   0  0  0  0  0  0  0  0  0  0  0  0
   16.4268   -7.2233   42.8332 O   0  0  0  0  0  0  0  0  0  0  0  0
  1  2  1  0
  2  3  2  0
  4  2  1  0
  4  5  1  0
  5  6  1  0
  7  6  1  0
  8  9  1  1
  8  7  1  0
 10  8  1  0
 11 10  2  0
 12 10  1  0
 13 18  1  0
 13 12  1  0
 13 14  1  1
 15 14  1  0
 16 15  1  0
 17 16  2  0
 18 19  2  0
 20 16  1  0
 21 22  1  0
 21 18  1  0
 22 23  1  6
 23 24  1  0
 24 25  1  0
 25 26  1  0
 26 27  1  0
 28 30  1  0
 28 22  1  0
 29 28  2  0
M  END
$$$$
