REK.pdb
     RDKit          3D

 30 29  0  0  1  0  0  0  0  0999 V2000
    7.6942  -15.4528   15.5225 N   0  0  0  0  0  0  0  0  0  0  0  0
    7.5399  -14.1956   14.8799 C   0  0  0  0  0  0  0  0  0  0  0  0
    7.3910  -14.1470   13.6033 N   0  0  0  0  0  0  0  0  0  0  0  0
    7.5494  -12.9932   15.6294 N   0  0  0  0  0  0  0  0  0  0  0  0
    7.7361  -12.9755   17.0617 C   0  0  0  0  0  0  0  0  0  0  0  0
    8.9294  -13.8073   17.4452 C   0  0  0  0  0  0  0  0  0  0  0  0
    8.7047  -14.5675   18.7115 C   0  0  0  0  0  0  0  0  0  0  0  0
    9.9361  -14.5386   19.5616 C   0  0  2  0  0  0  0  0  0  0  0  0
   11.0901  -14.8704   18.7919 N   0  0  0  0  0  0  0  0  0  0  0  0
    9.7993  -15.3584   20.7931 C   0  0  0  0  0  0  0  0  0  0  0  0
    8.8118  -15.1310   21.5309 O   0  0  0  0  0  0  0  0  0  0  0  0
    7.2355  -13.2399   13.1435 N   0  0  0  0  0  0  0  0  0  0  0  0
   10.7181  -16.3744   21.1737 C   0  0  1  0  0  0  0  0  0  0  0  0
   10.5527  -17.2015   22.3485 C   0  0  0  0  0  0  0  0  0  0  0  0
   11.6564  -18.1828   22.5643 C   0  0  0  0  0  0  0  0  0  0  0  0
   11.4816  -19.0305   23.7844 C   0  0  0  0  0  0  0  0  0  0  0  0
   12.6390  -19.9579   23.9101 O   0  0  0  0  0  0  0  0  0  0  0  0
   13.4299  -20.0528   22.9352 C   0  0  0  0  0  0  0  0  0  0  0  0
   10.5075  -16.2935   23.5356 O   0  0  0  0  0  0  0  0  0  0  0  0
   11.4515  -15.4992   23.7939 O   0  0  0  0  0  0  0  0  0  0  0  0
   12.8901  -20.7123   25.0264 N   0  0  0  0  0  0  0  0  0  0  0  0
    9.4065  -16.2756   24.4311 C   0  0  2  0  0  0  0  0  0  0  0  0
    9.3401  -15.4297   25.6036 C   0  0  0  0  0  0  0  0  0  0  0  0
    8.0304  -14.6327   25.5246 C   0  0  0  0  0  0  0  0  0  0  0  0
    7.9760  -13.6125   26.6165 C   0  0  0  0  0  0  0  0  0  0  0  0
    6.7664  -12.7622   26.6457 C   0  0  0  0  0  0  0  0  0  0  0  0
    6.7309  -11.6838   27.6768 N   0  0  0  0  0  0  0  0  0  0  0  0
    5.5279  -10.9262   27.7242 C   0  0  0  0  0  0  0  0  0  0  0  0
    9.3192  -16.2467   26.8575 O   0  0  0  0  0  0  0  0  0  0  0  0
    8.9900  -17.4407   26.7674 O   0  0  0  0  0  0  0  0  0  0  0  0
  1  2  1  0
  2  3  2  0
  4  2  1  0
  4  5  1  0
  5  6  1  0
  7  6  1  0
  8  9  1  6
  8  7  1  0
 10  8  1  0
 11 10  2  0
 12 10  1  0
 13 18  1  0
 13 12  1  0
 13 14  1  1
 15 14  1  0
 16 15  1  0
 17 16  2  0
 18 19  2  0
 20 16  1  0
 21 22  1  0
 21 18  1  0
 22 23  1  1
 23 24  1  0
 24 25  1  0
 25 26  1  0
 26 27  1  0
 28 30  1  0
 28 22  1  0
 29 28  2  0
M  END
$$$$
