ENQ.pdb
     RDKit          3D

 27 26  0  0  1  0  0  0  0  0999 V2000
   18.0001  -13.5589  -17.5463 N   0  0  0  0  0  0  0  0  0  0  0  0
   17.0953  -12.6899  -16.8874 C   0  0  1  0  0  0  0  0  0  0  0  0
   17.0660  -12.7199  -15.4085 C   0  0  0  0  0  0  0  0  0  0  0  0
   16.6226  -13.9496  -14.7310 C   0  0  0  0  0  0  0  0  0  0  0  0
   15.2757  -14.4281  -14.9563 C   0  0  0  0  0  0  0  0  0  0  0  0
   14.8647  -15.0776  -15.9363 O   0  0  0  0  0  0  0  0  0  0  0  0
   17.4360  -11.2658  -17.2890 C   0  0  0  0  0  0  0  0  0  0  0  0
   18.6293  -11.0379  -17.5388 O   0  0  0  0  0  0  0  0  0  0  0  0
   14.3029  -14.1434  -13.9767 O   0  0  0  0  0  0  0  0  0  0  0  0
   17.2470   -6.3811  -18.7662 N   0  0  0  0  0  0  0  0  0  0  0  0
   15.9719   -6.9321  -19.0223 C   0  0  0  0  0  0  0  0  0  0  0  0
   15.1862   -6.2027  -19.7228 O   0  0  0  0  0  0  0  0  0  0  0  0
   15.5373   -8.2578  -18.5317 C   0  0  0  0  0  0  0  0  0  0  0  0
   16.6253   -8.9438  -17.7543 C   0  0  2  0  0  0  0  0  0  0  0  0
   16.4812  -10.2736  -17.3754 N   0  0  0  0  0  0  0  0  0  0  0  0
   17.2413   -8.1209  -16.7017 C   0  0  0  0  0  0  0  0  0  0  0  0
   17.1493   -8.5574  -15.5152 O   0  0  0  0  0  0  0  0  0  0  0  0
   21.5653   -9.0725  -14.1247 N   0  0  0  0  0  0  0  0  0  0  0  0
   21.5498   -7.7183  -13.7045 C   0  0  0  0  0  0  0  0  0  0  0  0
   22.3895   -7.3702  -12.8230 O   0  0  0  0  0  0  0  0  0  0  0  0
   20.5972   -6.7621  -14.2819 C   0  0  0  0  0  0  0  0  0  0  0  0
   19.6453   -7.2740  -15.2898 C   0  0  0  0  0  0  0  0  0  0  0  0
   18.6422   -6.2962  -15.7743 C   0  0  2  0  0  0  0  0  0  0  0  0
   17.9102   -6.9105  -16.9195 N   0  0  0  0  0  0  0  0  0  0  0  0
   19.1936   -5.0327  -16.2374 C   0  0  0  0  0  0  0  0  0  0  0  0
   19.5688   -4.0129  -15.3555 O   0  0  0  0  0  0  0  0  0  0  0  0
   19.3494   -4.7972  -17.4874 O   0  0  0  0  0  0  0  0  0  0  0  0
  2  7  1  0
  2  1  1  1
  3  2  1  0
  4  3  1  0
  5  6  2  0
  5  4  1  0
  7  8  2  0
  9  5  1  0
 11 10  1  0
 11 13  1  0
 12 11  2  0
 14 13  1  1
 15 14  1  0
 15  7  1  0
 16 17  2  0
 16 14  1  0
 18 19  1  0
 19 20  2  0
 19 21  1  0
 21 22  1  0
 23 22  1  6
 23 24  1  0
 24 16  1  0
 25 23  1  0
 25 26  1  0
 27 25  2  0
M  END
$$$$
