ENQ.pdb
     RDKit          3D

 27 26  0  0  1  0  0  0  0  0999 V2000
   13.3030   -8.6649   -8.3384 N   0  0  0  0  0  0  0  0  0  0  0  0
   14.4884   -8.7557   -9.1095 C   0  0  1  0  0  0  0  0  0  0  0  0
   14.4556   -9.5989  -10.3248 C   0  0  0  0  0  0  0  0  0  0  0  0
   14.3231  -11.0576  -10.1747 C   0  0  0  0  0  0  0  0  0  0  0  0
   14.3497  -11.8900  -11.3580 C   0  0  0  0  0  0  0  0  0  0  0  0
   13.5677  -12.8175  -11.6401 O   0  0  0  0  0  0  0  0  0  0  0  0
   14.8637   -7.3549   -9.5595 C   0  0  0  0  0  0  0  0  0  0  0  0
   13.9389   -6.6545   -9.9980 O   0  0  0  0  0  0  0  0  0  0  0  0
   15.3586  -11.6471  -12.3119 O   0  0  0  0  0  0  0  0  0  0  0  0
   15.7988   -3.0006   -9.5173 N   0  0  0  0  0  0  0  0  0  0  0  0
   16.9226   -3.4760   -8.8059 C   0  0  0  0  0  0  0  0  0  0  0  0
   17.4264   -2.6577   -7.9594 O   0  0  0  0  0  0  0  0  0  0  0  0
   17.5065   -4.8211   -8.9980 C   0  0  0  0  0  0  0  0  0  0  0  0
   16.6698   -5.6604   -9.9224 C   0  0  2  0  0  0  0  0  0  0  0  0
   16.1561   -6.8771   -9.4885 N   0  0  0  0  0  0  0  0  0  0  0  0
   17.1542   -5.7153  -11.3106 C   0  0  0  0  0  0  0  0  0  0  0  0
   18.1718   -6.4395  -11.5270 O   0  0  0  0  0  0  0  0  0  0  0  0
   13.7887   -5.2014  -16.4735 N   0  0  0  0  0  0  0  0  0  0  0  0
   14.0607   -6.3440  -15.6790 C   0  0  0  0  0  0  0  0  0  0  0  0
   13.2584   -7.3198  -15.7646 O   0  0  0  0  0  0  0  0  0  0  0  0
   15.2353   -6.3868  -14.7995 C   0  0  0  0  0  0  0  0  0  0  0  0
   16.0866   -5.1801  -14.7415 C   0  0  0  0  0  0  0  0  0  0  0  0
   17.1789   -5.2175  -13.7403 C   0  0  2  0  0  0  0  0  0  0  0  0
   16.5763   -5.0339  -12.3883 N   0  0  0  0  0  0  0  0  0  0  0  0
   18.1965   -4.1919  -13.9064 C   0  0  0  0  0  0  0  0  0  0  0  0
   19.1336   -4.2301  -14.9452 O   0  0  0  0  0  0  0  0  0  0  0  0
   18.2821   -3.2065  -13.0916 O   0  0  0  0  0  0  0  0  0  0  0  0
  2  7  1  0
  2  1  1  6
  3  2  1  0
  4  3  1  0
  5  6  2  0
  5  4  1  0
  7  8  2  0
  9  5  1  0
 11 10  1  0
 11 13  1  0
 12 11  2  0
 14 13  1  1
 15 14  1  0
 15  7  1  0
 16 17  2  0
 16 14  1  0
 18 19  1  0
 19 20  2  0
 19 21  1  0
 21 22  1  0
 23 22  1  6
 23 24  1  0
 24 16  1  0
 25 23  1  0
 25 26  1  0
 27 25  2  0
M  END
$$$$
