ENQ.pdb
     RDKit          3D

 27 26  0  0  1  0  0  0  0  0999 V2000
   11.3353   -8.6505   -8.3502 N   0  0  0  0  0  0  0  0  0  0  0  0
   12.1545   -9.4896   -9.1457 C   0  0  1  0  0  0  0  0  0  0  0  0
   11.5581  -10.0774  -10.3654 C   0  0  0  0  0  0  0  0  0  0  0  0
   10.5245  -11.1161  -10.2219 C   0  0  0  0  0  0  0  0  0  0  0  0
    9.8988  -11.6525  -11.4113 C   0  0  0  0  0  0  0  0  0  0  0  0
   10.2015  -11.4061  -12.5940 O   0  0  0  0  0  0  0  0  0  0  0  0
   13.3588   -8.6809   -9.5942 C   0  0  0  0  0  0  0  0  0  0  0  0
   13.2097   -7.4501   -9.6289 O   0  0  0  0  0  0  0  0  0  0  0  0
    8.8287  -12.5545  -11.2431 O   0  0  0  0  0  0  0  0  0  0  0  0
   18.0195   -7.2849  -11.2878 N   0  0  0  0  0  0  0  0  0  0  0  0
   18.1136   -8.6681  -11.0178 C   0  0  0  0  0  0  0  0  0  0  0  0
   19.2786   -9.1803  -11.1611 O   0  0  0  0  0  0  0  0  0  0  0  0
   16.9671   -9.5017  -10.5963 C   0  0  0  0  0  0  0  0  0  0  0  0
   15.7195   -8.6811  -10.4262 C   0  0  2  0  0  0  0  0  0  0  0  0
   14.5561   -9.2702   -9.9446 N   0  0  0  0  0  0  0  0  0  0  0  0
   15.4594   -7.7251  -11.5139 C   0  0  0  0  0  0  0  0  0  0  0  0
   14.8564   -8.1774  -12.5330 O   0  0  0  0  0  0  0  0  0  0  0  0
   12.1375   -2.8883  -11.6891 N   0  0  0  0  0  0  0  0  0  0  0  0
   12.8647   -2.6971  -12.8913 C   0  0  0  0  0  0  0  0  0  0  0  0
   12.4634   -1.7910  -13.6794 O   0  0  0  0  0  0  0  0  0  0  0  0
   14.0420   -3.5190  -13.1975 C   0  0  0  0  0  0  0  0  0  0  0  0
   14.4462   -4.5286  -12.1967 C   0  0  0  0  0  0  0  0  0  0  0  0
   15.4379   -5.5270  -12.6625 C   0  0  2  0  0  0  0  0  0  0  0  0
   15.8262   -6.3742  -11.4980 N   0  0  0  0  0  0  0  0  0  0  0  0
   16.6585   -4.9638  -13.2175 C   0  0  0  0  0  0  0  0  0  0  0  0
   16.7342   -4.4948  -14.5339 O   0  0  0  0  0  0  0  0  0  0  0  0
   17.7286   -4.8837  -12.5169 O   0  0  0  0  0  0  0  0  0  0  0  0
  2  7  1  0
  2  1  1  6
  3  2  1  0
  4  3  1  0
  5  6  2  0
  5  4  1  0
  7  8  2  0
  9  5  1  0
 11 10  1  0
 11 13  1  0
 12 11  2  0
 14 13  1  6
 15 14  1  0
 15  7  1  0
 16 17  2  0
 16 14  1  0
 18 19  1  0
 19 20  2  0
 19 21  1  0
 21 22  1  0
 23 22  1  1
 23 24  1  0
 24 16  1  0
 25 23  1  0
 25 26  1  0
 27 25  2  0
M  END
$$$$
