ENQ.pdb
     RDKit          3D

 27 26  0  0  1  0  0  0  0  0999 V2000
   22.6827  -19.1443  -17.1629 N   0  0  0  0  0  0  0  0  0  0  0  0
   23.7893  -19.6225  -16.4181 C   0  0  1  0  0  0  0  0  0  0  0  0
   24.9594  -18.7287  -16.2737 C   0  0  0  0  0  0  0  0  0  0  0  0
   25.2723  -17.7858  -17.3604 C   0  0  0  0  0  0  0  0  0  0  0  0
   26.5507  -17.8869  -18.0307 C   0  0  0  0  0  0  0  0  0  0  0  0
   27.4742  -18.6803  -17.7686 O   0  0  0  0  0  0  0  0  0  0  0  0
   23.3071  -19.9416  -15.0141 C   0  0  0  0  0  0  0  0  0  0  0  0
   24.1779  -20.2875  -14.2015 O   0  0  0  0  0  0  0  0  0  0  0  0
   26.8053  -17.0046  -19.1002 O   0  0  0  0  0  0  0  0  0  0  0  0
   20.7589  -20.9598  -10.8013 N   0  0  0  0  0  0  0  0  0  0  0  0
   21.0182  -19.5911  -11.0345 C   0  0  0  0  0  0  0  0  0  0  0  0
   20.9332  -18.8306  -10.0077 O   0  0  0  0  0  0  0  0  0  0  0  0
   21.3670  -19.0363  -12.3603 C   0  0  0  0  0  0  0  0  0  0  0  0
   21.3850  -20.1030  -13.4190 C   0  0  2  0  0  0  0  0  0  0  0  0
   21.9788  -19.8544  -14.6510 N   0  0  0  0  0  0  0  0  0  0  0  0
   20.1357  -20.8707  -13.5394 C   0  0  0  0  0  0  0  0  0  0  0  0
   19.3182  -20.4860  -14.4285 O   0  0  0  0  0  0  0  0  0  0  0  0
   18.6028  -26.8864  -12.0015 N   0  0  0  0  0  0  0  0  0  0  0  0
   17.9821  -26.4565  -13.2017 C   0  0  0  0  0  0  0  0  0  0  0  0
   17.4418  -27.3405  -13.9295 O   0  0  0  0  0  0  0  0  0  0  0  0
   17.9653  -25.0363  -13.5733 C   0  0  0  0  0  0  0  0  0  0  0  0
   18.6371  -24.0863  -12.6622 C   0  0  0  0  0  0  0  0  0  0  0  0
   18.4933  -22.6538  -13.0151 C   0  0  2  0  0  0  0  0  0  0  0  0
   19.7965  -21.9776  -12.7522 N   0  0  0  0  0  0  0  0  0  0  0  0
   17.4726  -21.9386  -12.2657 C   0  0  0  0  0  0  0  0  0  0  0  0
   16.1188  -21.9821  -12.6176 O   0  0  0  0  0  0  0  0  0  0  0  0
   17.7787  -21.2235  -11.2473 O   0  0  0  0  0  0  0  0  0  0  0  0
  2  7  1  0
  2  1  1  6
  3  2  1  0
  4  3  1  0
  5  6  2  0
  5  4  1  0
  7  8  2  0
  9  5  1  0
 11 10  1  0
 11 13  1  0
 12 11  2  0
 14 13  1  6
 15 14  1  0
 15  7  1  0
 16 17  2  0
 16 14  1  0
 18 19  1  0
 19 20  2  0
 19 21  1  0
 21 22  1  0
 23 22  1  1
 23 24  1  0
 24 16  1  0
 25 23  1  0
 25 26  1  0
 27 25  2  0
M  END
$$$$
