ENQ.pdb
     RDKit          3D

 27 26  0  0  1  0  0  0  0  0999 V2000
   25.1261  -33.5398   -5.9535 N   0  0  0  0  0  0  0  0  0  0  0  0
   26.0726  -34.1480   -5.0919 C   0  0  1  0  0  0  0  0  0  0  0  0
   27.4923  -34.1312   -5.5082 C   0  0  0  0  0  0  0  0  0  0  0  0
   27.8935  -34.9001   -6.6979 C   0  0  0  0  0  0  0  0  0  0  0  0
   27.8891  -36.3457   -6.6335 C   0  0  0  0  0  0  0  0  0  0  0  0
   27.5771  -37.0518   -5.6562 O   0  0  0  0  0  0  0  0  0  0  0  0
   26.0029  -33.4453   -3.7477 C   0  0  0  0  0  0  0  0  0  0  0  0
   27.0881  -33.2154   -3.1931 O   0  0  0  0  0  0  0  0  0  0  0  0
   28.2746  -37.0577   -7.7874 O   0  0  0  0  0  0  0  0  0  0  0  0
   24.5569  -30.7382    0.3116 N   0  0  0  0  0  0  0  0  0  0  0  0
   23.5395  -30.5843   -0.6559 C   0  0  0  0  0  0  0  0  0  0  0  0
   22.6571  -29.6945   -0.3919 O   0  0  0  0  0  0  0  0  0  0  0  0
   23.4646  -31.3782   -1.9013 C   0  0  0  0  0  0  0  0  0  0  0  0
   24.5788  -32.3834   -1.9843 C   0  0  2  0  0  0  0  0  0  0  0  0
   24.8065  -33.0778   -3.1669 N   0  0  0  0  0  0  0  0  0  0  0  0
   24.7302  -33.2333   -0.7929 C   0  0  0  0  0  0  0  0  0  0  0  0
   23.8311  -34.1062   -0.6022 O   0  0  0  0  0  0  0  0  0  0  0  0
   29.2480  -36.1574    2.6588 N   0  0  0  0  0  0  0  0  0  0  0  0
   28.9172  -36.2688    1.2845 C   0  0  0  0  0  0  0  0  0  0  0  0
   29.5230  -37.1505    0.6071 O   0  0  0  0  0  0  0  0  0  0  0  0
   27.9033  -35.3952    0.6814 C   0  0  0  0  0  0  0  0  0  0  0  0
   27.2408  -34.4115    1.5632 C   0  0  0  0  0  0  0  0  0  0  0  0
   25.8207  -34.1268    1.2477 C   0  0  2  0  0  0  0  0  0  0  0  0
   25.7820  -33.1438    0.1266 N   0  0  0  0  0  0  0  0  0  0  0  0
   25.0508  -33.5650    2.3462 C   0  0  0  0  0  0  0  0  0  0  0  0
   24.7600  -34.2941    3.5049 O   0  0  0  0  0  0  0  0  0  0  0  0
   24.5941  -32.3689    2.2905 O   0  0  0  0  0  0  0  0  0  0  0  0
  2  7  1  0
  2  1  1  6
  3  2  1  0
  4  3  1  0
  5  6  2  0
  5  4  1  0
  7  8  2  0
  9  5  1  0
 11 10  1  0
 11 13  1  0
 12 11  2  0
 14 13  1  6
 15 14  1  0
 15  7  1  0
 16 17  2  0
 16 14  1  0
 18 19  1  0
 19 20  2  0
 19 21  1  0
 21 22  1  0
 23 22  1  1
 23 24  1  0
 24 16  1  0
 25 23  1  0
 25 26  1  0
 27 25  2  0
M  END
$$$$
