ENQ.pdb
     RDKit          3D

 27 26  0  0  1  0  0  0  0  0999 V2000
   13.3385  -12.0033  -10.9059 N   0  0  0  0  0  0  0  0  0  0  0  0
   14.6803  -11.5477  -10.9140 C   0  0  1  0  0  0  0  0  0  0  0  0
   15.4992  -11.8408  -12.1109 C   0  0  0  0  0  0  0  0  0  0  0  0
   15.7335  -13.2453  -12.4854 C   0  0  0  0  0  0  0  0  0  0  0  0
   16.6004  -13.5373  -13.6067 C   0  0  0  0  0  0  0  0  0  0  0  0
   17.8216  -13.3075  -13.6901 O   0  0  0  0  0  0  0  0  0  0  0  0
   14.6639  -10.0377  -10.7548 C   0  0  0  0  0  0  0  0  0  0  0  0
   13.7434   -9.4366  -11.3288 O   0  0  0  0  0  0  0  0  0  0  0  0
   16.0277  -14.1482  -14.7406 O   0  0  0  0  0  0  0  0  0  0  0  0
   15.6981   -5.1854   -9.4804 N   0  0  0  0  0  0  0  0  0  0  0  0
   15.4128   -5.9894   -8.3547 C   0  0  0  0  0  0  0  0  0  0  0  0
   15.2430   -5.3572   -7.2540 O   0  0  0  0  0  0  0  0  0  0  0  0
   15.3095   -7.4638   -8.4043 C   0  0  0  0  0  0  0  0  0  0  0  0
   15.7155   -8.0019   -9.7476 C   0  0  2  0  0  0  0  0  0  0  0  0
   15.6129   -9.3621  -10.0154 N   0  0  0  0  0  0  0  0  0  0  0  0
   16.9424   -7.4086  -10.3023 C   0  0  0  0  0  0  0  0  0  0  0  0
   18.0357   -7.9618   -9.9775 O   0  0  0  0  0  0  0  0  0  0  0  0
   20.9728   -7.3050  -14.3212 N   0  0  0  0  0  0  0  0  0  0  0  0
   20.8353   -8.1140  -13.1648 C   0  0  0  0  0  0  0  0  0  0  0  0
   21.7918   -8.8928  -12.8792 O   0  0  0  0  0  0  0  0  0  0  0  0
   19.6284   -8.0380  -12.3324 C   0  0  0  0  0  0  0  0  0  0  0  0
   18.5534   -7.1251  -12.7739 C   0  0  0  0  0  0  0  0  0  0  0  0
   18.2591   -5.9965  -11.8591 C   0  0  2  0  0  0  0  0  0  0  0  0
   16.9816   -6.2948  -11.1494 N   0  0  0  0  0  0  0  0  0  0  0  0
   18.1042   -4.7054  -12.5104 C   0  0  0  0  0  0  0  0  0  0  0  0
   16.8657   -4.0611  -12.6076 O   0  0  0  0  0  0  0  0  0  0  0  0
   19.1068   -4.1051  -13.0363 O   0  0  0  0  0  0  0  0  0  0  0  0
  2  7  1  0
  2  1  1  6
  3  2  1  0
  4  3  1  0
  5  6  2  0
  5  4  1  0
  7  8  2  0
  9  5  1  0
 11 10  1  0
 11 13  1  0
 12 11  2  0
 14 13  1  1
 15 14  1  0
 15  7  1  0
 16 17  2  0
 16 14  1  0
 18 19  1  0
 19 20  2  0
 19 21  1  0
 21 22  1  0
 23 22  1  6
 23 24  1  0
 24 16  1  0
 25 23  1  0
 25 26  1  0
 27 25  2  0
M  END
$$$$
