ENQ.pdb
     RDKit          3D

 27 26  0  0  1  0  0  0  0  0999 V2000
   19.0433  -12.0088  -15.7062 N   0  0  0  0  0  0  0  0  0  0  0  0
   17.9610  -11.3963  -15.0268 C   0  0  1  0  0  0  0  0  0  0  0  0
   16.9999  -12.2778  -14.3281 C   0  0  0  0  0  0  0  0  0  0  0  0
   16.2723  -13.2942  -15.1060 C   0  0  0  0  0  0  0  0  0  0  0  0
   15.2582  -14.0889  -14.4473 C   0  0  0  0  0  0  0  0  0  0  0  0
   14.8114  -13.9295  -13.2957 O   0  0  0  0  0  0  0  0  0  0  0  0
   18.5351  -10.4586  -13.9795 C   0  0  0  0  0  0  0  0  0  0  0  0
   19.2799  -10.9742  -13.1323 O   0  0  0  0  0  0  0  0  0  0  0  0
   14.6974  -15.1661  -15.1629 O   0  0  0  0  0  0  0  0  0  0  0  0
   21.3519   -7.8290  -15.3084 N   0  0  0  0  0  0  0  0  0  0  0  0
   20.9533   -7.7699  -13.9547 C   0  0  0  0  0  0  0  0  0  0  0  0
   21.7500   -8.3255  -13.1201 O   0  0  0  0  0  0  0  0  0  0  0  0
   19.7075   -7.1197  -13.4937 C   0  0  0  0  0  0  0  0  0  0  0  0
   18.6797   -8.1311  -13.0701 C   0  0  2  0  0  0  0  0  0  0  0  0
   18.2523   -9.1083  -13.9617 N   0  0  0  0  0  0  0  0  0  0  0  0
   17.5792   -7.5867  -12.2594 C   0  0  0  0  0  0  0  0  0  0  0  0
   16.4048   -7.7830  -12.6944 O   0  0  0  0  0  0  0  0  0  0  0  0
   13.8580   -9.7990   -9.6627 N   0  0  0  0  0  0  0  0  0  0  0  0
   13.6736   -8.6053   -8.9199 C   0  0  0  0  0  0  0  0  0  0  0  0
   12.6287   -8.5138   -8.2107 O   0  0  0  0  0  0  0  0  0  0  0  0
   14.6668   -7.5256   -8.9719 C   0  0  0  0  0  0  0  0  0  0  0  0
   15.8475   -7.7279   -9.8374 C   0  0  0  0  0  0  0  0  0  0  0  0
   16.5145   -6.4899  -10.3062 C   0  0  2  0  0  0  0  0  0  0  0  0
   17.7399   -6.8801  -11.0617 N   0  0  0  0  0  0  0  0  0  0  0  0
   16.9259   -5.5791   -9.2497 C   0  0  0  0  0  0  0  0  0  0  0  0
   16.0160   -4.7567   -8.5756 O   0  0  0  0  0  0  0  0  0  0  0  0
   18.1546   -5.4855   -8.8979 O   0  0  0  0  0  0  0  0  0  0  0  0
  2  7  1  0
  2  1  1  1
  3  2  1  0
  4  3  1  0
  5  6  2  0
  5  4  1  0
  7  8  2  0
  9  5  1  0
 11 10  1  0
 11 13  1  0
 12 11  2  0
 14 13  1  6
 15 14  1  0
 15  7  1  0
 16 17  2  0
 16 14  1  0
 18 19  1  0
 19 20  2  0
 19 21  1  0
 21 22  1  0
 23 22  1  1
 23 24  1  0
 24 16  1  0
 25 23  1  0
 25 26  1  0
 27 25  2  0
M  END
$$$$
