ENQ.pdb
     RDKit          3D

 27 26  0  0  1  0  0  0  0  0999 V2000
   20.7909  -11.7744  -17.6462 N   0  0  0  0  0  0  0  0  0  0  0  0
   21.1544  -10.4078  -17.7368 C   0  0  1  0  0  0  0  0  0  0  0  0
   21.0349   -9.7502  -19.0568 C   0  0  0  0  0  0  0  0  0  0  0  0
   21.8616  -10.2398  -20.1724 C   0  0  0  0  0  0  0  0  0  0  0  0
   22.5751   -9.2825  -20.9899 C   0  0  0  0  0  0  0  0  0  0  0  0
   22.6407   -8.0507  -20.8175 O   0  0  0  0  0  0  0  0  0  0  0  0
   20.2765   -9.6243  -16.7771 C   0  0  0  0  0  0  0  0  0  0  0  0
   19.1329  -10.0680  -16.5946 O   0  0  0  0  0  0  0  0  0  0  0  0
   23.2816   -9.7685  -22.1086 O   0  0  0  0  0  0  0  0  0  0  0  0
   20.3212   -9.5072  -13.1903 N   0  0  0  0  0  0  0  0  0  0  0  0
   20.8131   -8.1949  -13.0148 C   0  0  0  0  0  0  0  0  0  0  0  0
   21.3984   -7.9698  -11.8982 O   0  0  0  0  0  0  0  0  0  0  0  0
   20.6803   -7.1264  -14.0285 C   0  0  0  0  0  0  0  0  0  0  0  0
   20.0245   -7.6322  -15.2827 C   0  0  2  0  0  0  0  0  0  0  0  0
   20.7154   -8.4829  -16.1379 N   0  0  0  0  0  0  0  0  0  0  0  0
   19.2271   -6.6299  -16.0067 C   0  0  0  0  0  0  0  0  0  0  0  0
   19.7552   -6.1279  -17.0440 O   0  0  0  0  0  0  0  0  0  0  0  0
   12.9558   -5.5804  -16.3285 N   0  0  0  0  0  0  0  0  0  0  0  0
   13.5470   -4.5219  -17.0640 C   0  0  0  0  0  0  0  0  0  0  0  0
   12.7697   -3.6996  -17.6321 O   0  0  0  0  0  0  0  0  0  0  0  0
   15.0064   -4.3891  -17.1505 C   0  0  0  0  0  0  0  0  0  0  0  0
   15.8245   -5.3709  -16.4083 C   0  0  0  0  0  0  0  0  0  0  0  0
   17.2893   -5.1497  -16.4602 C   0  0  2  0  0  0  0  0  0  0  0  0
   17.9475   -6.2021  -15.6332 N   0  0  0  0  0  0  0  0  0  0  0  0
   17.7314   -3.8595  -15.9554 C   0  0  0  0  0  0  0  0  0  0  0  0
   17.6767   -2.6952  -16.7300 O   0  0  0  0  0  0  0  0  0  0  0  0
   18.2039   -3.7392  -14.7703 O   0  0  0  0  0  0  0  0  0  0  0  0
  2  7  1  0
  2  1  1  6
  3  2  1  0
  4  3  1  0
  5  6  2  0
  5  4  1  0
  7  8  2  0
  9  5  1  0
 11 10  1  0
 11 13  1  0
 12 11  2  0
 14 13  1  1
 15 14  1  0
 15  7  1  0
 16 17  2  0
 16 14  1  0
 18 19  1  0
 19 20  2  0
 19 21  1  0
 21 22  1  0
 23 22  1  1
 23 24  1  0
 24 16  1  0
 25 23  1  0
 25 26  1  0
 27 25  2  0
M  END
$$$$
