WSC.pdb
     RDKit          3D

 27 28  0  0  1  0  0  0  0  0999 V2000
   24.0349  -21.0724  -13.7879 N   0  0  0  0  0  0  0  0  0  0  0  0
   22.6943  -20.9271  -13.2801 C   0  0  1  0  0  0  0  0  0  0  0  0
   21.7156  -21.4342  -14.2894 C   0  0  0  0  0  0  0  0  0  0  0  0
   21.7237  -20.6674  -15.5600 C   0  0  0  0  0  0  0  0  0  0  0  0
   22.3085  -21.0609  -16.7672 C   0  0  0  0  0  0  0  0  0  0  0  0
   22.1281  -20.0911  -17.6640 N   0  0  0  0  0  0  0  0  0  0  0  0
   21.4593  -19.0673  -17.1438 C   0  0  0  0  0  0  0  0  0  0  0  0
   21.0472  -17.8754  -17.6850 C   0  0  0  0  0  0  0  0  0  0  0  0
   20.3459  -16.9698  -16.9173 C   0  0  0  0  0  0  0  0  0  0  0  0
   20.0806  -17.3064  -15.6060 C   0  0  0  0  0  0  0  0  0  0  0  0
   20.5011  -18.5070  -15.0761 C   0  0  0  0  0  0  0  0  0  0  0  0
   21.2018  -19.4212  -15.8253 C   0  0  0  0  0  0  0  0  0  0  0  0
   22.6038  -21.6418  -11.9854 C   0  0  0  0  0  0  0  0  0  0  0  0
   23.1727  -22.7565  -11.8206 O   0  0  0  0  0  0  0  0  0  0  0  0
   21.2290  -19.7942   -8.6989 O   0  0  0  0  0  0  0  0  0  0  0  0
   22.1625  -20.7936   -8.5340 C   0  0  0  0  0  0  0  0  0  0  0  0
   21.8682  -21.8773   -9.5760 C   0  0  2  0  0  0  0  0  0  0  0  0
   21.8911  -21.1473  -10.8564 N   0  0  0  0  0  0  0  0  0  0  0  0
   20.5861  -22.5427   -9.3612 C   0  0  0  0  0  0  0  0  0  0  0  0
   19.5011  -22.1926   -9.8927 O   0  0  0  0  0  0  0  0  0  0  0  0
   20.5192  -23.6686   -8.4989 N   0  0  0  0  0  0  0  0  0  0  0  0
   19.2636  -24.3380   -8.2210 C   0  0  1  0  0  0  0  0  0  0  0  0
   19.4608  -25.5986   -7.4157 C   0  0  0  0  0  0  0  0  0  0  0  0
   17.9104  -26.5515   -7.5109 S   0  0  0  0  0  0  0  0  0  0  0  0
   18.4283  -23.3936   -7.4372 C   0  0  0  0  0  0  0  0  0  0  0  0
   18.9220  -22.5563   -6.6159 O   0  0  0  0  0  0  0  0  0  0  0  0
   17.0285  -23.3600   -7.5496 O   0  0  0  0  0  0  0  0  0  0  0  0
  2  1  1  6
  2 13  1  0
  3  2  1  0
  4  5  2  0
  4  3  1  0
  6  5  1  0
  7 12  2  0
  7  6  1  0
  8  7  1  0
  9 10  1  0
  9  8  2  0
 10 11  2  0
 11 12  1  0
 12  4  1  0
 13 14  2  0
 17 16  1  1
 16 15  1  0
 18 17  1  0
 18 13  1  0
 19 20  2  0
 19 17  1  0
 21 19  1  0
 22 25  1  0
 22 21  1  0
 22 23  1  1
 24 23  1  0
 25 27  1  0
 26 25  2  0
M  END
$$$$
