WSC.pdb
     RDKit          3D

 27 28  0  0  1  0  0  0  0  0999 V2000
   17.6836  -10.2462  -14.3873 N   0  0  0  0  0  0  0  0  0  0  0  0
   18.6394   -9.5164  -15.1812 C   0  0  1  0  0  0  0  0  0  0  0  0
   18.2264   -9.5432  -16.6173 C   0  0  0  0  0  0  0  0  0  0  0  0
   17.5822  -10.8165  -17.0250 C   0  0  0  0  0  0  0  0  0  0  0  0
   18.0158  -12.1079  -16.7111 C   0  0  0  0  0  0  0  0  0  0  0  0
   17.1904  -12.9850  -17.2825 N   0  0  0  0  0  0  0  0  0  0  0  0
   16.2263  -12.3729  -17.9621 C   0  0  0  0  0  0  0  0  0  0  0  0
   15.1702  -12.8607  -18.6900 C   0  0  0  0  0  0  0  0  0  0  0  0
   14.2900  -11.9940  -19.3028 C   0  0  0  0  0  0  0  0  0  0  0  0
   14.5117  -10.6402  -19.1556 C   0  0  0  0  0  0  0  0  0  0  0  0
   15.5769  -10.1651  -18.4217 C   0  0  0  0  0  0  0  0  0  0  0  0
   16.4647  -11.0133  -17.8050 C   0  0  0  0  0  0  0  0  0  0  0  0
   18.7437   -8.1406  -14.6410 C   0  0  0  0  0  0  0  0  0  0  0  0
   17.7641   -7.5985  -14.0581 O   0  0  0  0  0  0  0  0  0  0  0  0
   21.8650   -5.7418  -15.5465 O   0  0  0  0  0  0  0  0  0  0  0  0
   21.4573   -5.6155  -14.2368 C   0  0  0  0  0  0  0  0  0  0  0  0
   19.9697   -5.9761  -14.1791 C   0  0  2  0  0  0  0  0  0  0  0  0
   19.9187   -7.3418  -14.7315 N   0  0  0  0  0  0  0  0  0  0  0  0
   19.1295   -5.0574  -14.9426 C   0  0  0  0  0  0  0  0  0  0  0  0
   18.7275   -5.2643  -16.1164 O   0  0  0  0  0  0  0  0  0  0  0  0
   18.7156   -3.8345  -14.3520 N   0  0  0  0  0  0  0  0  0  0  0  0
   17.9742   -2.8413  -15.1041 C   0  0  1  0  0  0  0  0  0  0  0  0
   16.4930   -3.1286  -15.1135 C   0  0  0  0  0  0  0  0  0  0  0  0
   15.6686   -1.7031  -15.8939 S   0  0  0  0  0  0  0  0  0  0  0  0
   18.2046   -1.5312  -14.4449 C   0  0  0  0  0  0  0  0  0  0  0  0
   18.4243   -1.4178  -13.1967 O   0  0  0  0  0  0  0  0  0  0  0  0
   18.1957   -0.3212  -15.1584 O   0  0  0  0  0  0  0  0  0  0  0  0
  2  1  1  1
  2 13  1  0
  3  2  1  0
  4  5  2  0
  4  3  1  0
  6  5  1  0
  7 12  2  0
  7  6  1  0
  8  7  1  0
  9 10  1  0
  9  8  2  0
 10 11  2  0
 11 12  1  0
 12  4  1  0
 13 14  2  0
 17 16  1  6
 16 15  1  0
 18 17  1  0
 18 13  1  0
 19 20  2  0
 19 17  1  0
 21 19  1  0
 22 25  1  0
 22 21  1  0
 22 23  1  1
 24 23  1  0
 25 27  1  0
 26 25  2  0
M  END
$$$$
