WSC.pdb
     RDKit          3D

 27 28  0  0  1  0  0  0  0  0999 V2000
   27.5795  -19.4025   -9.9487 N   0  0  0  0  0  0  0  0  0  0  0  0
   26.6570  -20.4858   -9.7208 C   0  0  1  0  0  0  0  0  0  0  0  0
   26.0509  -20.3536   -8.3610 C   0  0  0  0  0  0  0  0  0  0  0  0
   26.9749  -19.7752   -7.3540 C   0  0  0  0  0  0  0  0  0  0  0  0
   27.2542  -18.4192   -7.1608 C   0  0  0  0  0  0  0  0  0  0  0  0
   28.1535  -18.3045   -6.1834 N   0  0  0  0  0  0  0  0  0  0  0  0
   28.5011  -19.4933   -5.7017 C   0  0  0  0  0  0  0  0  0  0  0  0
   29.3722  -19.8562   -4.7054 C   0  0  0  0  0  0  0  0  0  0  0  0
   29.5484  -21.1865   -4.3877 C   0  0  0  0  0  0  0  0  0  0  0  0
   28.8250  -22.1201   -5.1007 C   0  0  0  0  0  0  0  0  0  0  0  0
   27.9541  -21.7405   -6.0989 C   0  0  0  0  0  0  0  0  0  0  0  0
   27.7662  -20.4202   -6.4301 C   0  0  0  0  0  0  0  0  0  0  0  0
   25.6446  -20.4744  -10.8025 C   0  0  0  0  0  0  0  0  0  0  0  0
   24.7113  -19.6245  -10.8062 O   0  0  0  0  0  0  0  0  0  0  0  0
   25.1425  -23.6013  -13.3970 O   0  0  0  0  0  0  0  0  0  0  0  0
   25.0781  -22.3538  -13.9775 C   0  0  0  0  0  0  0  0  0  0  0  0
   24.5764  -21.3739  -12.9124 C   0  0  2  0  0  0  0  0  0  0  0  0
   25.6401  -21.3908  -11.8921 N   0  0  0  0  0  0  0  0  0  0  0  0
   23.2854  -21.7567  -12.3470 C   0  0  0  0  0  0  0  0  0  0  0  0
   23.0495  -21.8715  -11.1168 O   0  0  0  0  0  0  0  0  0  0  0  0
   22.1947  -22.0256  -13.2152 N   0  0  0  0  0  0  0  0  0  0  0  0
   20.8209  -21.8957  -12.7704 C   0  0  1  0  0  0  0  0  0  0  0  0
   20.5101  -20.4977  -12.2954 C   0  0  0  0  0  0  0  0  0  0  0  0
   18.7992  -20.5055  -11.6682 S   0  0  0  0  0  0  0  0  0  0  0  0
   19.9529  -22.2116  -13.9325 C   0  0  0  0  0  0  0  0  0  0  0  0
   18.9426  -22.9808  -13.8483 O   0  0  0  0  0  0  0  0  0  0  0  0
   20.1890  -21.6799  -15.2111 O   0  0  0  0  0  0  0  0  0  0  0  0
  2  1  1  6
  2 13  1  0
  3  2  1  0
  4  5  2  0
  4  3  1  0
  6  5  1  0
  7 12  2  0
  7  6  1  0
  8  7  1  0
  9 10  1  0
  9  8  2  0
 10 11  2  0
 11 12  1  0
 12  4  1  0
 13 14  2  0
 17 16  1  6
 16 15  1  0
 18 17  1  0
 18 13  1  0
 19 20  2  0
 19 17  1  0
 21 19  1  0
 22 25  1  0
 22 21  1  0
 22 23  1  6
 24 23  1  0
 25 27  1  0
 26 25  2  0
M  END
$$$$
