WSC.pdb
     RDKit          3D

 27 28  0  0  1  0  0  0  0  0999 V2000
   25.1982  -19.5956  -17.2568 N   0  0  0  0  0  0  0  0  0  0  0  0
   25.4307  -19.3665  -15.8532 C   0  0  1  0  0  0  0  0  0  0  0  0
   25.1966  -17.9257  -15.5325 C   0  0  0  0  0  0  0  0  0  0  0  0
   26.1406  -17.0058  -16.2145 C   0  0  0  0  0  0  0  0  0  0  0  0
   25.8253  -15.7849  -16.8178 C   0  0  0  0  0  0  0  0  0  0  0  0
   26.9366  -15.2708  -17.3452 N   0  0  0  0  0  0  0  0  0  0  0  0
   27.9835  -16.0628  -17.1383 C   0  0  0  0  0  0  0  0  0  0  0  0
   29.3048  -15.9407  -17.4881 C   0  0  0  0  0  0  0  0  0  0  0  0
   30.2094  -16.9204  -17.1370 C   0  0  0  0  0  0  0  0  0  0  0  0
   29.7386  -18.0087  -16.4317 C   0  0  0  0  0  0  0  0  0  0  0  0
   28.4087  -18.1176  -16.0877 C   0  0  0  0  0  0  0  0  0  0  0  0
   27.4927  -17.1522  -16.4297 C   0  0  0  0  0  0  0  0  0  0  0  0
   24.5535  -20.2754  -15.0787 C   0  0  0  0  0  0  0  0  0  0  0  0
   23.5990  -20.8844  -15.6367 O   0  0  0  0  0  0  0  0  0  0  0  0
   24.3623  -20.3347  -11.0101 O   0  0  0  0  0  0  0  0  0  0  0  0
   24.4850  -21.5822  -11.5809 C   0  0  0  0  0  0  0  0  0  0  0  0
   23.8674  -21.5125  -12.9810 C   0  0  2  0  0  0  0  0  0  0  0  0
   24.7090  -20.5292  -13.6864 N   0  0  0  0  0  0  0  0  0  0  0  0
   22.4650  -21.1054  -12.9667 C   0  0  0  0  0  0  0  0  0  0  0  0
   22.0645  -19.9270  -12.7847 O   0  0  0  0  0  0  0  0  0  0  0  0
   21.4526  -22.0799  -13.1699 N   0  0  0  0  0  0  0  0  0  0  0  0
   20.0457  -21.7451  -13.0675 C   0  0  1  0  0  0  0  0  0  0  0  0
   19.1600  -22.8786  -13.5229 C   0  0  0  0  0  0  0  0  0  0  0  0
   18.5725  -22.4686  -15.1985 S   0  0  0  0  0  0  0  0  0  0  0  0
   19.7660  -21.4627  -11.6372 C   0  0  0  0  0  0  0  0  0  0  0  0
   20.3280  -22.0965  -10.6876 O   0  0  0  0  0  0  0  0  0  0  0  0
   18.8572  -20.4709  -11.2327 O   0  0  0  0  0  0  0  0  0  0  0  0
  2  1  1  6
  2 13  1  0
  3  2  1  0
  4  5  2  0
  4  3  1  0
  6  5  1  0
  7 12  2  0
  7  6  1  0
  8  7  1  0
  9 10  1  0
  9  8  2  0
 10 11  2  0
 11 12  1  0
 12  4  1  0
 13 14  2  0
 17 16  1  1
 16 15  1  0
 18 17  1  0
 18 13  1  0
 19 20  2  0
 19 17  1  0
 21 19  1  0
 22 25  1  0
 22 21  1  0
 22 23  1  1
 24 23  1  0
 25 27  1  0
 26 25  2  0
M  END
$$$$
