WSC.pdb
     RDKit          3D

 27 28  0  0  1  0  0  0  0  0999 V2000
   24.2158  -19.0435  -12.0733 N   0  0  0  0  0  0  0  0  0  0  0  0
   25.4487  -19.7894  -12.0827 C   0  0  1  0  0  0  0  0  0  0  0  0
   25.2672  -21.0717  -11.3368 C   0  0  0  0  0  0  0  0  0  0  0  0
   25.2889  -20.9076   -9.8620 C   0  0  0  0  0  0  0  0  0  0  0  0
   24.1981  -21.0182   -8.9949 C   0  0  0  0  0  0  0  0  0  0  0  0
   24.6152  -20.7751   -7.7523 N   0  0  0  0  0  0  0  0  0  0  0  0
   25.9166  -20.5077   -7.7208 C   0  0  0  0  0  0  0  0  0  0  0  0
   26.7633  -20.2104   -6.6826 C   0  0  0  0  0  0  0  0  0  0  0  0
   28.1014  -19.9787   -6.9225 C   0  0  0  0  0  0  0  0  0  0  0  0
   28.5448  -20.0571   -8.2265 C   0  0  0  0  0  0  0  0  0  0  0  0
   27.6824  -20.3565   -9.2589 C   0  0  0  0  0  0  0  0  0  0  0  0
   26.3462  -20.5893   -9.0393 C   0  0  0  0  0  0  0  0  0  0  0  0
   25.8585  -19.9992  -13.4910 C   0  0  0  0  0  0  0  0  0  0  0  0
   25.0368  -19.8353  -14.4352 O   0  0  0  0  0  0  0  0  0  0  0  0
   29.3208  -21.7367  -14.4548 O   0  0  0  0  0  0  0  0  0  0  0  0
   29.0960  -20.6245  -15.2357 C   0  0  0  0  0  0  0  0  0  0  0  0
   27.5816  -20.4030  -15.2992 C   0  0  2  0  0  0  0  0  0  0  0  0
   27.1699  -20.3902  -13.8839 N   0  0  0  0  0  0  0  0  0  0  0  0
   26.8835  -21.4423  -16.0511 C   0  0  0  0  0  0  0  0  0  0  0  0
   26.8330  -22.6541  -15.7176 O   0  0  0  0  0  0  0  0  0  0  0  0
   26.2011  -21.0996  -17.2481 N   0  0  0  0  0  0  0  0  0  0  0  0
   25.5916  -22.1104  -18.0899 C   0  0  1  0  0  0  0  0  0  0  0  0
   24.0848  -22.0693  -18.0223 C   0  0  0  0  0  0  0  0  0  0  0  0
   23.6059  -20.3565  -17.6256 S   0  0  0  0  0  0  0  0  0  0  0  0
   26.0170  -21.8329  -19.4848 C   0  0  0  0  0  0  0  0  0  0  0  0
   26.6655  -20.7880  -19.8119 O   0  0  0  0  0  0  0  0  0  0  0  0
   25.7309  -22.7097  -20.5443 O   0  0  0  0  0  0  0  0  0  0  0  0
  2  1  1  6
  2 13  1  0
  3  2  1  0
  4  5  2  0
  4  3  1  0
  6  5  1  0
  7 12  2  0
  7  6  1  0
  8  7  1  0
  9 10  1  0
  9  8  2  0
 10 11  2  0
 11 12  1  0
 12  4  1  0
 13 14  2  0
 17 16  1  1
 16 15  1  0
 18 17  1  0
 18 13  1  0
 19 20  2  0
 19 17  1  0
 21 19  1  0
 22 25  1  0
 22 21  1  0
 22 23  1  6
 24 23  1  0
 25 27  1  0
 26 25  2  0
M  END
$$$$
