WSC.pdb
     RDKit          3D

 27 28  0  0  1  0  0  0  0  0999 V2000
   22.5974  -10.0283  -16.1025 N   0  0  0  0  0  0  0  0  0  0  0  0
   21.4022   -9.2271  -16.0247 C   0  0  1  0  0  0  0  0  0  0  0  0
   21.5191   -8.0572  -16.9475 C   0  0  0  0  0  0  0  0  0  0  0  0
   22.3198   -6.9396  -16.3888 C   0  0  0  0  0  0  0  0  0  0  0  0
   23.4701   -6.3767  -16.9493 C   0  0  0  0  0  0  0  0  0  0  0  0
   23.9142   -5.4174  -16.1371 N   0  0  0  0  0  0  0  0  0  0  0  0
   23.1402   -5.2931  -15.0640 C   0  0  0  0  0  0  0  0  0  0  0  0
   23.2048   -4.4495  -13.9836 C   0  0  0  0  0  0  0  0  0  0  0  0
   22.2520   -4.5203  -12.9894 C   0  0  0  0  0  0  0  0  0  0  0  0
   21.2490   -5.4581  -13.1243 C   0  0  0  0  0  0  0  0  0  0  0  0
   21.1974   -6.2988  -14.2149 C   0  0  0  0  0  0  0  0  0  0  0  0
   22.1383   -6.2436  -15.2147 C   0  0  0  0  0  0  0  0  0  0  0  0
   20.2390  -10.0897  -16.3383 C   0  0  0  0  0  0  0  0  0  0  0  0
   20.2956  -10.9385  -17.2708 O   0  0  0  0  0  0  0  0  0  0  0  0
   17.2931  -10.8378  -13.8386 O   0  0  0  0  0  0  0  0  0  0  0  0
   17.3991  -11.6356  -14.9564 C   0  0  0  0  0  0  0  0  0  0  0  0
   17.8018  -10.7363  -16.1293 C   0  0  2  0  0  0  0  0  0  0  0  0
   19.0011  -10.0348  -15.6370 N   0  0  0  0  0  0  0  0  0  0  0  0
   16.7522   -9.7970  -16.5153 C   0  0  0  0  0  0  0  0  0  0  0  0
   16.7709   -8.5636  -16.2693 O   0  0  0  0  0  0  0  0  0  0  0  0
   15.6147  -10.2716  -17.2201 N   0  0  0  0  0  0  0  0  0  0  0  0
   14.5071   -9.3963  -17.5503 C   0  0  1  0  0  0  0  0  0  0  0  0
   13.5692  -10.0242  -18.5517 C   0  0  0  0  0  0  0  0  0  0  0  0
   12.2864   -8.7901  -18.9417 S   0  0  0  0  0  0  0  0  0  0  0  0
   13.7629   -9.1383  -16.2921 C   0  0  0  0  0  0  0  0  0  0  0  0
   13.5556  -10.0393  -15.4177 O   0  0  0  0  0  0  0  0  0  0  0  0
   13.2341   -7.8751  -15.9795 O   0  0  0  0  0  0  0  0  0  0  0  0
  2  1  1  6
  2 13  1  0
  3  2  1  0
  4  5  2  0
  4  3  1  0
  6  5  1  0
  7 12  2  0
  7  6  1  0
  8  7  1  0
  9 10  1  0
  9  8  2  0
 10 11  2  0
 11 12  1  0
 12  4  1  0
 13 14  2  0
 17 16  1  1
 16 15  1  0
 18 17  1  0
 18 13  1  0
 19 20  2  0
 19 17  1  0
 21 19  1  0
 22 25  1  0
 22 21  1  0
 22 23  1  6
 24 23  1  0
 25 27  1  0
 26 25  2  0
M  END
$$$$
