WSC.pdb
     RDKit          3D

 27 28  0  0  1  0  0  0  0  0999 V2000
   16.3497  -14.6471    5.1306 N   0  0  0  0  0  0  0  0  0  0  0  0
   17.0600  -15.8516    5.4788 C   0  0  1  0  0  0  0  0  0  0  0  0
   17.9114  -16.2844    4.3292 C   0  0  0  0  0  0  0  0  0  0  0  0
   17.2780  -17.3248    3.4814 C   0  0  0  0  0  0  0  0  0  0  0  0
   16.2043  -17.1455    2.6045 C   0  0  0  0  0  0  0  0  0  0  0  0
   15.9074  -18.3203    2.0487 N   0  0  0  0  0  0  0  0  0  0  0  0
   16.7095  -19.2831    2.4910 C   0  0  0  0  0  0  0  0  0  0  0  0
   16.7777  -20.6220    2.1981 C   0  0  0  0  0  0  0  0  0  0  0  0
   17.7295  -21.4171    2.8009 C   0  0  0  0  0  0  0  0  0  0  0  0
   18.5948  -20.8205    3.6947 C   0  0  0  0  0  0  0  0  0  0  0  0
   18.5140  -19.4745    3.9791 C   0  0  0  0  0  0  0  0  0  0  0  0
   17.5718  -18.6669    3.3892 C   0  0  0  0  0  0  0  0  0  0  0  0
   17.8459  -15.5932    6.7079 C   0  0  0  0  0  0  0  0  0  0  0  0
   18.4451  -14.4946    6.8737 O   0  0  0  0  0  0  0  0  0  0  0  0
   17.4860  -17.8980    9.9643 O   0  0  0  0  0  0  0  0  0  0  0  0
   17.8891  -16.5916   10.1316 C   0  0  0  0  0  0  0  0  0  0  0  0
   18.8075  -16.2375    8.9578 C   0  0  2  0  0  0  0  0  0  0  0  0
   17.9863  -16.5314    7.7696 N   0  0  0  0  0  0  0  0  0  0  0  0
   20.0502  -17.0047    8.9535 C   0  0  0  0  0  0  0  0  0  0  0  0
   20.2125  -18.0992    8.3554 O   0  0  0  0  0  0  0  0  0  0  0  0
   21.1775  -16.5124    9.6625 N   0  0  0  0  0  0  0  0  0  0  0  0
   22.3996  -17.2843    9.7748 C   0  0  1  0  0  0  0  0  0  0  0  0
   23.5907  -16.4145   10.0930 C   0  0  0  0  0  0  0  0  0  0  0  0
   24.1778  -15.7024    8.5218 S   0  0  0  0  0  0  0  0  0  0  0  0
   22.2045  -18.2543   10.8815 C   0  0  0  0  0  0  0  0  0  0  0  0
   23.0767  -19.1264   11.1944 O   0  0  0  0  0  0  0  0  0  0  0  0
   21.0373  -18.2753   11.6629 O   0  0  0  0  0  0  0  0  0  0  0  0
  2  1  1  6
  2 13  1  0
  3  2  1  0
  4  5  2  0
  4  3  1  0
  6  5  1  0
  7 12  2  0
  7  6  1  0
  8  7  1  0
  9 10  1  0
  9  8  2  0
 10 11  2  0
 11 12  1  0
 12  4  1  0
 13 14  2  0
 17 16  1  1
 16 15  1  0
 18 17  1  0
 18 13  1  0
 19 20  2  0
 19 17  1  0
 21 19  1  0
 22 25  1  0
 22 21  1  0
 22 23  1  1
 24 23  1  0
 25 27  1  0
 26 25  2  0
M  END
$$$$
