WSC.pdb
     RDKit          3D

 27 28  0  0  1  0  0  0  0  0999 V2000
   22.7878  -19.1070  -17.9284 N   0  0  0  0  0  0  0  0  0  0  0  0
   23.9105  -19.1689  -17.0272 C   0  0  1  0  0  0  0  0  0  0  0  0
   23.4266  -19.1029  -15.6146 C   0  0  0  0  0  0  0  0  0  0  0  0
   22.9359  -17.7595  -15.2185 C   0  0  0  0  0  0  0  0  0  0  0  0
   21.6123  -17.4029  -14.9446 C   0  0  0  0  0  0  0  0  0  0  0  0
   21.5730  -16.1027  -14.6532 N   0  0  0  0  0  0  0  0  0  0  0  0
   22.7827  -15.5554  -14.7112 C   0  0  0  0  0  0  0  0  0  0  0  0
   23.2172  -14.2732  -14.4870 C   0  0  0  0  0  0  0  0  0  0  0  0
   24.5552  -13.9624  -14.6073 C   0  0  0  0  0  0  0  0  0  0  0  0
   25.4230  -14.9766  -14.9563 C   0  0  0  0  0  0  0  0  0  0  0  0
   24.9719  -16.2596  -15.1787 C   0  0  0  0  0  0  0  0  0  0  0  0
   23.6425  -16.5878  -15.0645 C   0  0  0  0  0  0  0  0  0  0  0  0
   24.6735  -20.4062  -17.3138 C   0  0  0  0  0  0  0  0  0  0  0  0
   24.0798  -21.4720  -17.6380 O   0  0  0  0  0  0  0  0  0  0  0  0
   28.6706  -20.7336  -16.5866 O   0  0  0  0  0  0  0  0  0  0  0  0
   28.2612  -21.2694  -17.7876 C   0  0  0  0  0  0  0  0  0  0  0  0
   26.8095  -21.7279  -17.6180 C   0  0  2  0  0  0  0  0  0  0  0  0
   26.0931  -20.4935  -17.2496 N   0  0  0  0  0  0  0  0  0  0  0  0
   26.6528  -22.7628  -16.5996 C   0  0  0  0  0  0  0  0  0  0  0  0
   26.8627  -22.5941  -15.3708 O   0  0  0  0  0  0  0  0  0  0  0  0
   26.2345  -24.0639  -16.9842 N   0  0  0  0  0  0  0  0  0  0  0  0
   26.0826  -25.1300  -16.0136 C   0  0  1  0  0  0  0  0  0  0  0  0
   24.6897  -25.1743  -15.4353 C   0  0  0  0  0  0  0  0  0  0  0  0
   24.5762  -23.8476  -14.1913 S   0  0  0  0  0  0  0  0  0  0  0  0
   26.3492  -26.4075  -16.7212 C   0  0  0  0  0  0  0  0  0  0  0  0
   26.2945  -26.5173  -17.9878 O   0  0  0  0  0  0  0  0  0  0  0  0
   26.6817  -27.5883  -16.0370 O   0  0  0  0  0  0  0  0  0  0  0  0
  2  1  1  6
  2 13  1  0
  3  2  1  0
  4  5  2  0
  4  3  1  0
  6  5  1  0
  7 12  2  0
  7  6  1  0
  8  7  1  0
  9 10  1  0
  9  8  2  0
 10 11  2  0
 11 12  1  0
 12  4  1  0
 13 14  2  0
 17 16  1  1
 16 15  1  0
 18 17  1  0
 18 13  1  0
 19 20  2  0
 19 17  1  0
 21 19  1  0
 22 25  1  0
 22 21  1  0
 22 23  1  6
 24 23  1  0
 25 27  1  0
 26 25  2  0
M  END
$$$$
