WSC.pdb
     RDKit          3D

 27 28  0  0  1  0  0  0  0  0999 V2000
   27.5026  -22.2198  -14.8499 N   0  0  0  0  0  0  0  0  0  0  0  0
   26.4307  -22.0264  -13.9065 C   0  0  1  0  0  0  0  0  0  0  0  0
   26.5175  -20.6546  -13.3196 C   0  0  0  0  0  0  0  0  0  0  0  0
   27.5158  -20.5394  -12.2275 C   0  0  0  0  0  0  0  0  0  0  0  0
   28.8888  -20.3212  -12.3730 C   0  0  0  0  0  0  0  0  0  0  0  0
   29.4486  -20.3080  -11.1632 N   0  0  0  0  0  0  0  0  0  0  0  0
   28.5451  -20.5022  -10.2081 C   0  0  0  0  0  0  0  0  0  0  0  0
   28.6579  -20.5597   -8.8417 C   0  0  0  0  0  0  0  0  0  0  0  0
   27.5405  -20.7678   -8.0609 C   0  0  0  0  0  0  0  0  0  0  0  0
   26.3264  -20.9130   -8.6999 C   0  0  0  0  0  0  0  0  0  0  0  0
   26.2287  -20.8532  -10.0732 C   0  0  0  0  0  0  0  0  0  0  0  0
   27.3309  -20.6476  -10.8674 C   0  0  0  0  0  0  0  0  0  0  0  0
   25.1452  -22.2716  -14.6014 C   0  0  0  0  0  0  0  0  0  0  0  0
   24.7013  -21.4490  -15.4497 O   0  0  0  0  0  0  0  0  0  0  0  0
   22.8768  -25.5482  -13.7718 O   0  0  0  0  0  0  0  0  0  0  0  0
   22.8333  -25.1092  -15.0767 C   0  0  0  0  0  0  0  0  0  0  0  0
   23.0357  -23.5909  -15.0604 C   0  0  2  0  0  0  0  0  0  0  0  0
   24.3305  -23.4175  -14.3777 N   0  0  0  0  0  0  0  0  0  0  0  0
   21.9649  -22.8796  -14.3674 C   0  0  0  0  0  0  0  0  0  0  0  0
   22.0043  -22.5289  -13.1601 O   0  0  0  0  0  0  0  0  0  0  0  0
   20.7801  -22.5414  -15.0730 N   0  0  0  0  0  0  0  0  0  0  0  0
   19.6569  -21.9082  -14.4102 C   0  0  1  0  0  0  0  0  0  0  0  0
   18.8800  -21.0136  -15.3442 C   0  0  0  0  0  0  0  0  0  0  0  0
   17.5074  -20.2915  -14.3877 S   0  0  0  0  0  0  0  0  0  0  0  0
   18.7635  -22.9926  -13.9308 C   0  0  0  0  0  0  0  0  0  0  0  0
   18.5203  -24.0374  -14.6154 O   0  0  0  0  0  0  0  0  0  0  0  0
   18.1226  -22.9388  -12.6820 O   0  0  0  0  0  0  0  0  0  0  0  0
  2  1  1  6
  2 13  1  0
  3  2  1  0
  4  5  2  0
  4  3  1  0
  6  5  1  0
  7 12  2  0
  7  6  1  0
  8  7  1  0
  9 10  1  0
  9  8  2  0
 10 11  2  0
 11 12  1  0
 12  4  1  0
 13 14  2  0
 17 16  1  1
 16 15  1  0
 18 17  1  0
 18 13  1  0
 19 20  2  0
 19 17  1  0
 21 19  1  0
 22 25  1  0
 22 21  1  0
 22 23  1  6
 24 23  1  0
 25 27  1  0
 26 25  2  0
M  END
$$$$
