WSC.pdb
     RDKit          3D

 27 28  0  0  1  0  0  0  0  0999 V2000
   24.3374  -19.4870  -15.8593 N   0  0  0  0  0  0  0  0  0  0  0  0
   22.9560  -19.1346  -15.6495 C   0  0  1  0  0  0  0  0  0  0  0  0
   22.2032  -19.2610  -16.9344 C   0  0  0  0  0  0  0  0  0  0  0  0
   22.5599  -18.2243  -17.9346 C   0  0  0  0  0  0  0  0  0  0  0  0
   23.3946  -18.3884  -19.0439 C   0  0  0  0  0  0  0  0  0  0  0  0
   23.4900  -17.2216  -19.6815 N   0  0  0  0  0  0  0  0  0  0  0  0
   22.7746  -16.2784  -19.0776 C   0  0  0  0  0  0  0  0  0  0  0  0
   22.5727  -14.9539  -19.3746 C   0  0  0  0  0  0  0  0  0  0  0  0
   21.7596  -14.1791  -18.5747 C   0  0  0  0  0  0  0  0  0  0  0  0
   21.1682  -14.7807  -17.4830 C   0  0  0  0  0  0  0  0  0  0  0  0
   21.3806  -16.1119  -17.1971 C   0  0  0  0  0  0  0  0  0  0  0  0
   22.1882  -16.8993  -17.9819 C   0  0  0  0  0  0  0  0  0  0  0  0
   22.4094  -19.9999  -14.5782 C   0  0  0  0  0  0  0  0  0  0  0  0
   22.8640  -21.1625  -14.3905 O   0  0  0  0  0  0  0  0  0  0  0  0
   19.6923  -18.7071  -11.6960 O   0  0  0  0  0  0  0  0  0  0  0  0
   20.6880  -19.6217  -11.4329 C   0  0  0  0  0  0  0  0  0  0  0  0
   20.8321  -20.5160  -12.6683 C   0  0  2  0  0  0  0  0  0  0  0  0
   21.3605  -19.6054  -13.7000 N   0  0  0  0  0  0  0  0  0  0  0  0
   19.5706  -21.1228  -13.0842 C   0  0  0  0  0  0  0  0  0  0  0  0
   18.7287  -20.5743  -13.8410 O   0  0  0  0  0  0  0  0  0  0  0  0
   19.2354  -22.4232  -12.6233 N   0  0  0  0  0  0  0  0  0  0  0  0
   18.0225  -23.0912  -13.0526 C   0  0  1  0  0  0  0  0  0  0  0  0
   18.0776  -24.5784  -12.8043 C   0  0  0  0  0  0  0  0  0  0  0  0
   19.6252  -25.1949  -13.5427 S   0  0  0  0  0  0  0  0  0  0  0  0
   16.9033  -22.5145  -12.2660 C   0  0  0  0  0  0  0  0  0  0  0  0
   17.0866  -21.8147  -11.2191 O   0  0  0  0  0  0  0  0  0  0  0  0
   15.5587  -22.7032  -12.6259 O   0  0  0  0  0  0  0  0  0  0  0  0
  2  1  1  6
  2 13  1  0
  3  2  1  0
  4  5  2  0
  4  3  1  0
  6  5  1  0
  7 12  2  0
  7  6  1  0
  8  7  1  0
  9 10  1  0
  9  8  2  0
 10 11  2  0
 11 12  1  0
 12  4  1  0
 13 14  2  0
 17 16  1  1
 16 15  1  0
 18 17  1  0
 18 13  1  0
 19 20  2  0
 19 17  1  0
 21 19  1  0
 22 25  1  0
 22 21  1  0
 22 23  1  1
 24 23  1  0
 25 27  1  0
 26 25  2  0
M  END
$$$$
