CRT.pdb
     RDKit          3D

 25 24  0  0  1  0  0  0  0  0999 V2000
   28.4947  -21.8829  -18.6319 N   0  0  0  0  0  0  0  0  0  0  0  0
   27.5739  -20.7240  -18.5947 C   0  0  1  0  0  0  0  0  0  0  0  0
   27.0945  -20.4913  -19.9826 C   0  0  0  0  0  0  0  0  0  0  0  0
   28.1474  -19.4304  -20.9900 S   0  0  0  0  0  0  0  0  0  0  0  0
   26.5690  -20.9085  -17.5520 C   0  0  0  0  0  0  0  0  0  0  0  0
   25.9322  -22.0049  -17.5058 O   0  0  0  0  0  0  0  0  0  0  0  0
   26.3247  -21.7175   -9.6559 N   0  0  0  0  0  0  0  0  0  0  0  0
   25.0971  -20.9602   -9.6734 C   0  0  0  0  0  0  0  0  0  0  0  0
   24.4344  -20.7690   -8.5913 N   0  0  0  0  0  0  0  0  0  0  0  0
   24.5893  -20.4131  -10.8771 N   0  0  0  0  0  0  0  0  0  0  0  0
   25.4293  -20.2564  -12.0258 C   0  0  0  0  0  0  0  0  0  0  0  0
   24.7218  -19.5144  -13.1592 C   0  0  0  0  0  0  0  0  0  0  0  0
   25.6715  -19.5303  -14.3243 C   0  0  0  0  0  0  0  0  0  0  0  0
   25.2040  -20.1931  -15.5619 C   0  0  2  0  0  0  0  0  0  0  0  0
   26.2494  -19.9602  -16.5768 N   0  0  0  0  0  0  0  0  0  0  0  0
   23.9092  -19.6814  -16.0025 C   0  0  0  0  0  0  0  0  0  0  0  0
   23.8257  -18.5045  -16.4463 O   0  0  0  0  0  0  0  0  0  0  0  0
   23.5688  -20.2076   -8.5806 C   0  0  0  0  0  0  0  0  0  0  0  0
   21.5471  -19.8032  -18.8658 C   0  0  2  0  0  0  0  0  0  0  0  0
   20.8159  -20.3046  -17.6192 O   0  0  0  0  0  0  0  0  0  0  0  0
   20.7672  -21.7065  -17.6332 C   0  0  2  0  0  0  0  0  0  0  0  0
   21.4254  -19.7797  -16.3647 N   0  0  0  0  0  0  0  0  0  0  0  0
   22.6712  -20.3967  -15.9832 C   0  0  0  0  0  0  0  0  0  0  0  0
   20.3873  -19.9819  -15.2889 O   0  0  0  0  0  0  0  0  0  0  0  0
   19.1589  -19.4005  -15.3048 O   0  0  0  0  0  0  0  0  0  0  0  0
  2  1  1  6
  2  3  1  0
  2  5  1  0
  4  3  1  0
  5  6  2  0
  7  8  1  0
  8 10  1  0
  8  9  2  0
 10 11  1  0
 11 12  1  0
 12 13  1  0
 14 13  1  1
 15 14  1  0
 15  5  1  0
 16 14  1  0
 16 17  2  0
 19 18  1  6
 19 21  1  0
 20 19  1  0
 21 22  1  1
 21 23  1  0
 22 16  1  0
 23 24  1  0
 25 23  2  0
M  END
$$$$
