CRT.pdb
     RDKit          3D

 25 24  0  0  1  0  0  0  0  0999 V2000
   25.8255  -12.4866  -17.9117 N   0  0  0  0  0  0  0  0  0  0  0  0
   25.7966  -11.5607  -16.7566 C   0  0  1  0  0  0  0  0  0  0  0  0
   27.1672  -11.0081  -16.5945 C   0  0  0  0  0  0  0  0  0  0  0  0
   28.3777  -12.1501  -15.9021 S   0  0  0  0  0  0  0  0  0  0  0  0
   24.6950  -10.6127  -16.8945 C   0  0  0  0  0  0  0  0  0  0  0  0
   24.4237  -10.1564  -18.0469 O   0  0  0  0  0  0  0  0  0  0  0  0
   17.2494  -12.4421  -14.7753 N   0  0  0  0  0  0  0  0  0  0  0  0
   17.4569  -11.1739  -15.4306 C   0  0  0  0  0  0  0  0  0  0  0  0
   16.4822  -10.3539  -15.5858 N   0  0  0  0  0  0  0  0  0  0  0  0
   18.7320  -10.8015  -15.9220 N   0  0  0  0  0  0  0  0  0  0  0  0
   19.8532  -11.6836  -15.8009 C   0  0  0  0  0  0  0  0  0  0  0  0
   21.1053  -11.1181  -16.4706 C   0  0  0  0  0  0  0  0  0  0  0  0
   21.5489   -9.9631  -15.6169 C   0  0  0  0  0  0  0  0  0  0  0  0
   22.7640   -9.2376  -16.0486 C   0  0  2  0  0  0  0  0  0  0  0  0
   23.8946  -10.1629  -15.8413 N   0  0  0  0  0  0  0  0  0  0  0  0
   22.9511   -7.9924  -15.3088 C   0  0  0  0  0  0  0  0  0  0  0  0
   23.6099   -8.0023  -14.2342 O   0  0  0  0  0  0  0  0  0  0  0  0
   16.6026   -9.4615  -16.0895 C   0  0  0  0  0  0  0  0  0  0  0  0
   24.8387   -4.7928  -16.1203 C   0  0  2  0  0  0  0  0  0  0  0  0
   23.4100   -4.4282  -15.7134 O   0  0  0  0  0  0  0  0  0  0  0  0
   22.6692   -4.0812  -16.8530 C   0  0  2  0  0  0  0  0  0  0  0  0
   22.7563   -5.5165  -14.9327 N   0  0  0  0  0  0  0  0  0  0  0  0
   22.4460   -6.7080  -15.6825 C   0  0  0  0  0  0  0  0  0  0  0  0
   21.4977   -4.9119  -14.3615 O   0  0  0  0  0  0  0  0  0  0  0  0
   21.4877   -3.8647  -13.4951 O   0  0  0  0  0  0  0  0  0  0  0  0
  2  1  1  6
  2  3  1  0
  2  5  1  0
  4  3  1  0
  5  6  2  0
  7  8  1  0
  8 10  1  0
  8  9  2  0
 10 11  1  0
 11 12  1  0
 12 13  1  0
 14 13  1  1
 15 14  1  0
 15  5  1  0
 16 14  1  0
 16 17  2  0
 19 18  1  1
 19 21  1  0
 20 19  1  0
 21 22  1  1
 21 23  1  0
 22 16  1  0
 23 24  1  0
 25 23  2  0
M  END
$$$$
