CRT.pdb
     RDKit          3D

 25 24  0  0  1  0  0  0  0  0999 V2000
   27.2279  -21.2916  -15.0860 N   0  0  0  0  0  0  0  0  0  0  0  0
   26.3759  -20.4412  -14.2239 C   0  0  1  0  0  0  0  0  0  0  0  0
   26.9280  -19.0618  -14.2740 C   0  0  0  0  0  0  0  0  0  0  0  0
   28.5663  -18.8646  -13.5488 S   0  0  0  0  0  0  0  0  0  0  0  0
   24.9683  -20.6213  -14.5670 C   0  0  0  0  0  0  0  0  0  0  0  0
   24.6606  -20.8596  -15.7746 O   0  0  0  0  0  0  0  0  0  0  0  0
   19.4761  -23.6834   -9.2651 N   0  0  0  0  0  0  0  0  0  0  0  0
   20.2287  -22.4598   -9.3962 C   0  0  0  0  0  0  0  0  0  0  0  0
   20.6760  -21.8557   -8.3563 N   0  0  0  0  0  0  0  0  0  0  0  0
   20.4902  -21.8916  -10.6670 N   0  0  0  0  0  0  0  0  0  0  0  0
   19.9313  -22.4604  -11.8561 C   0  0  0  0  0  0  0  0  0  0  0  0
   20.3584  -21.7019  -13.1125 C   0  0  0  0  0  0  0  0  0  0  0  0
   21.8193  -21.3946  -12.9372 C   0  0  0  0  0  0  0  0  0  0  0  0
   22.5040  -20.7249  -14.0651 C   0  0  2  0  0  0  0  0  0  0  0  0
   23.9116  -20.5582  -13.6550 N   0  0  0  0  0  0  0  0  0  0  0  0
   21.8893  -19.4423  -14.3961 C   0  0  0  0  0  0  0  0  0  0  0  0
   21.8550  -18.5285  -13.5285 O   0  0  0  0  0  0  0  0  0  0  0  0
   21.2045  -20.9727   -8.4306 C   0  0  0  0  0  0  0  0  0  0  0  0
   22.6255  -16.4468  -16.7332 C   0  0  2  0  0  0  0  0  0  0  0  0
   21.2519  -17.0462  -17.0395 O   0  0  0  0  0  0  0  0  0  0  0  0
   21.3309  -17.8412  -18.1926 C   0  0  2  0  0  0  0  0  0  0  0  0
   20.6996  -17.8001  -15.8785 N   0  0  0  0  0  0  0  0  0  0  0  0
   21.2936  -19.0933  -15.6482 C   0  0  0  0  0  0  0  0  0  0  0  0
   19.2217  -17.9404  -16.1467 O   0  0  0  0  0  0  0  0  0  0  0  0
   18.3779  -16.8863  -16.3015 O   0  0  0  0  0  0  0  0  0  0  0  0
  2  1  1  6
  2  3  1  0
  2  5  1  0
  4  3  1  0
  5  6  2  0
  7  8  1  0
  8 10  1  0
  8  9  2  0
 10 11  1  0
 11 12  1  0
 12 13  1  0
 14 13  1  1
 15 14  1  0
 15  5  1  0
 16 14  1  0
 16 17  2  0
 19 18  1  6
 19 21  1  0
 20 19  1  0
 21 22  1  1
 21 23  1  0
 22 16  1  0
 23 24  1  0
 25 23  2  0
M  END
$$$$
