CRT.pdb
     RDKit          3D

 25 24  0  0  1  0  0  0  0  0999 V2000
   16.8310  -11.1860  -16.8365 N   0  0  0  0  0  0  0  0  0  0  0  0
   17.0716  -10.5994  -15.4985 C   0  0  1  0  0  0  0  0  0  0  0  0
   18.0427  -11.4782  -14.7950 C   0  0  0  0  0  0  0  0  0  0  0  0
   17.3699  -13.0394  -14.1959 S   0  0  0  0  0  0  0  0  0  0  0  0
   17.4024   -9.1825  -15.6184 C   0  0  0  0  0  0  0  0  0  0  0  0
   18.1270   -8.8054  -16.5892 O   0  0  0  0  0  0  0  0  0  0  0  0
   11.4883   -3.8170  -14.1703 N   0  0  0  0  0  0  0  0  0  0  0  0
   11.8615   -5.1584  -13.7932 C   0  0  0  0  0  0  0  0  0  0  0  0
   11.1046   -5.8533  -13.0246 N   0  0  0  0  0  0  0  0  0  0  0  0
   13.0674   -5.7415  -14.2534 N   0  0  0  0  0  0  0  0  0  0  0  0
   13.9474   -5.0216  -15.1235 C   0  0  0  0  0  0  0  0  0  0  0  0
   15.0588   -5.9100  -15.6816 C   0  0  0  0  0  0  0  0  0  0  0  0
   16.1075   -5.9894  -14.6075 C   0  0  0  0  0  0  0  0  0  0  0  0
   17.3281   -6.7661  -14.9179 C   0  0  2  0  0  0  0  0  0  0  0  0
   16.9721   -8.1867  -14.7378 N   0  0  0  0  0  0  0  0  0  0  0  0
   18.4515   -6.3856  -14.0661 C   0  0  0  0  0  0  0  0  0  0  0  0
   18.4065   -6.6354  -12.8314 O   0  0  0  0  0  0  0  0  0  0  0  0
   11.3369   -6.8271  -12.7751 C   0  0  0  0  0  0  0  0  0  0  0  0
   22.3708   -6.6525  -15.0420 C   0  0  2  0  0  0  0  0  0  0  0  0
   21.8600   -6.4149  -13.6198 O   0  0  0  0  0  0  0  0  0  0  0  0
   22.9233   -6.0125  -12.7981 C   0  0  1  0  0  0  0  0  0  0  0  0
   20.7303   -5.4435  -13.5867 N   0  0  0  0  0  0  0  0  0  0  0  0
   19.6479   -5.7302  -14.4947 C   0  0  0  0  0  0  0  0  0  0  0  0
   21.3372   -4.0984  -13.8999 O   0  0  0  0  0  0  0  0  0  0  0  0
   22.3145   -3.5178  -13.1547 O   0  0  0  0  0  0  0  0  0  0  0  0
  2  1  1  6
  2  3  1  0
  2  5  1  0
  4  3  1  0
  5  6  2  0
  7  8  1  0
  8 10  1  0
  8  9  2  0
 10 11  1  0
 11 12  1  0
 12 13  1  0
 14 13  1  1
 15 14  1  0
 15  5  1  0
 16 14  1  0
 16 17  2  0
 19 18  1  1
 19 21  1  0
 20 19  1  0
 21 22  1  1
 21 23  1  0
 22 16  1  0
 23 24  1  0
 25 23  2  0
M  END
$$$$
