CRT.pdb
     RDKit          3D

 25 24  0  0  1  0  0  0  0  0999 V2000
   28.8284  -23.0768  -17.3606 N   0  0  0  0  0  0  0  0  0  0  0  0
   28.3063  -21.7724  -16.8936 C   0  0  1  0  0  0  0  0  0  0  0  0
   28.1001  -20.9196  -18.0939 C   0  0  0  0  0  0  0  0  0  0  0  0
   27.7761  -19.1798  -17.7521 S   0  0  0  0  0  0  0  0  0  0  0  0
   27.1691  -21.9722  -16.0002 C   0  0  0  0  0  0  0  0  0  0  0  0
   26.3464  -22.9028  -16.2589 O   0  0  0  0  0  0  0  0  0  0  0  0
   22.8922  -20.3848   -9.0406 N   0  0  0  0  0  0  0  0  0  0  0  0
   24.1455  -20.9730   -8.6352 C   0  0  0  0  0  0  0  0  0  0  0  0
   24.2211  -21.6667   -7.5583 N   0  0  0  0  0  0  0  0  0  0  0  0
   25.3210  -20.7997   -9.4060 N   0  0  0  0  0  0  0  0  0  0  0  0
   25.3320  -19.9335  -10.5459 C   0  0  0  0  0  0  0  0  0  0  0  0
   24.7889  -20.6225  -11.7974 C   0  0  0  0  0  0  0  0  0  0  0  0
   25.9379  -20.6971  -12.7638 C   0  0  0  0  0  0  0  0  0  0  0  0
   25.6926  -21.3955  -14.0450 C   0  0  2  0  0  0  0  0  0  0  0  0
   26.9110  -21.2117  -14.8568 N   0  0  0  0  0  0  0  0  0  0  0  0
   24.5110  -20.8816  -14.7322 C   0  0  0  0  0  0  0  0  0  0  0  0
   24.5510  -19.7403  -15.2658 O   0  0  0  0  0  0  0  0  0  0  0  0
   25.0925  -22.1476   -7.2861 C   0  0  0  0  0  0  0  0  0  0  0  0
   20.2215  -21.1614  -17.1477 C   0  0  2  0  0  0  0  0  0  0  0  0
   21.4843  -21.8107  -16.5786 O   0  0  0  0  0  0  0  0  0  0  0  0
   22.3617  -22.1321  -17.6249 C   0  0  1  0  0  0  0  0  0  0  0  0
   22.1359  -20.9555  -15.5466 N   0  0  0  0  0  0  0  0  0  0  0  0
   23.2584  -21.5570  -14.8711 C   0  0  0  0  0  0  0  0  0  0  0  0
   21.0510  -20.6087  -14.5573 O   0  0  0  0  0  0  0  0  0  0  0  0
   20.0191  -19.7675  -14.8308 O   0  0  0  0  0  0  0  0  0  0  0  0
  2  1  1  6
  2  3  1  0
  2  5  1  0
  4  3  1  0
  5  6  2  0
  7  8  1  0
  8 10  1  0
  8  9  2  0
 10 11  1  0
 11 12  1  0
 12 13  1  0
 14 13  1  1
 15 14  1  0
 15  5  1  0
 16 14  1  0
 16 17  2  0
 19 18  1  6
 19 21  1  0
 20 19  1  0
 21 22  1  1
 21 23  1  0
 22 16  1  0
 23 24  1  0
 25 23  2  0
M  END
$$$$
