CRT.pdb
     RDKit          3D

 25 24  0  0  1  0  0  0  0  0999 V2000
   30.4763  -25.1861  -16.8010 N   0  0  0  0  0  0  0  0  0  0  0  0
   29.2074  -25.8885  -16.5030 C   0  0  1  0  0  0  0  0  0  0  0  0
   28.1092  -25.1122  -17.1366 C   0  0  0  0  0  0  0  0  0  0  0  0
   26.4434  -25.6606  -16.7207 S   0  0  0  0  0  0  0  0  0  0  0  0
   29.3202  -27.3041  -16.8414 C   0  0  0  0  0  0  0  0  0  0  0  0
   30.2094  -27.6636  -17.6720 O   0  0  0  0  0  0  0  0  0  0  0  0
   25.5784  -33.9663  -12.6081 N   0  0  0  0  0  0  0  0  0  0  0  0
   26.4459  -34.6682  -13.5222 C   0  0  0  0  0  0  0  0  0  0  0  0
   26.5781  -35.9423  -13.4460 N   0  0  0  0  0  0  0  0  0  0  0  0
   27.1747  -33.9762  -14.5201 N   0  0  0  0  0  0  0  0  0  0  0  0
   27.2440  -32.5462  -14.5217 C   0  0  0  0  0  0  0  0  0  0  0  0
   28.0120  -32.0086  -15.7289 C   0  0  0  0  0  0  0  0  0  0  0  0
   28.0135  -30.5120  -15.5890 C   0  0  0  0  0  0  0  0  0  0  0  0
   28.7289  -29.7416  -16.6302 C   0  0  2  0  0  0  0  0  0  0  0  0
   28.5176  -28.3168  -16.3098 N   0  0  0  0  0  0  0  0  0  0  0  0
   28.2539  -30.0625  -17.9733 C   0  0  0  0  0  0  0  0  0  0  0  0
   27.1661  -29.5725  -18.3802 O   0  0  0  0  0  0  0  0  0  0  0  0
   27.1437  -36.4681  -14.1303 C   0  0  0  0  0  0  0  0  0  0  0  0
   28.6126  -31.3870  -22.6948 C   0  0  2  0  0  0  0  0  0  0  0  0
   29.2741  -31.0225  -21.3646 O   0  0  0  0  0  0  0  0  0  0  0  0
   29.7848  -29.7178  -21.4340 C   0  0  1  0  0  0  0  0  0  0  0  0
   28.3456  -31.1979  -20.2121 N   0  0  0  0  0  0  0  0  0  0  0  0
   28.9125  -30.9097  -18.9184 C   0  0  0  0  0  0  0  0  0  0  0  0
   27.8808  -32.6317  -20.2750 O   0  0  0  0  0  0  0  0  0  0  0  0
   27.0553  -33.1173  -21.2394 O   0  0  0  0  0  0  0  0  0  0  0  0
  2  1  1  6
  2  3  1  0
  2  5  1  0
  4  3  1  0
  5  6  2  0
  7  8  1  0
  8 10  1  0
  8  9  2  0
 10 11  1  0
 11 12  1  0
 12 13  1  0
 14 13  1  1
 15 14  1  0
 15  5  1  0
 16 14  1  0
 16 17  2  0
 19 18  1  6
 19 21  1  0
 20 19  1  0
 21 22  1  1
 21 23  1  0
 22 16  1  0
 23 24  1  0
 25 23  2  0
M  END
$$$$
