CRT.pdb
     RDKit          3D

 25 24  0  0  1  0  0  0  0  0999 V2000
   16.4123  -13.4854  -15.4288 N   0  0  0  0  0  0  0  0  0  0  0  0
   16.7038  -12.3319  -16.3101 C   0  0  1  0  0  0  0  0  0  0  0  0
   15.4129  -11.6518  -16.5951 C   0  0  0  0  0  0  0  0  0  0  0  0
   14.2973  -12.5511  -17.6886 S   0  0  0  0  0  0  0  0  0  0  0  0
   17.7853  -11.5270  -15.7502 C   0  0  0  0  0  0  0  0  0  0  0  0
   17.8008  -11.3114  -14.5000 O   0  0  0  0  0  0  0  0  0  0  0  0
   27.3435  -11.0757  -15.7054 N   0  0  0  0  0  0  0  0  0  0  0  0
   26.0427  -11.4908  -16.1707 C   0  0  0  0  0  0  0  0  0  0  0  0
   25.9183  -12.5266  -16.9178 N   0  0  0  0  0  0  0  0  0  0  0  0
   24.8742  -10.7702  -15.8223 N   0  0  0  0  0  0  0  0  0  0  0  0
   23.5843  -11.1988  -16.2721 C   0  0  0  0  0  0  0  0  0  0  0  0
   22.4686  -10.2752  -15.7842 C   0  0  0  0  0  0  0  0  0  0  0  0
   21.1813  -10.8916  -16.2558 C   0  0  0  0  0  0  0  0  0  0  0  0
   19.9278  -10.2107  -15.8628 C   0  0  2  0  0  0  0  0  0  0  0  0
   18.8296  -10.9689  -16.4922 N   0  0  0  0  0  0  0  0  0  0  0  0
   19.9128   -8.8095  -16.2739 C   0  0  0  0  0  0  0  0  0  0  0  0
   19.9378   -8.5228  -17.5011 O   0  0  0  0  0  0  0  0  0  0  0  0
   25.0010  -12.8155  -17.2916 C   0  0  0  0  0  0  0  0  0  0  0  0
   17.4730   -6.2193  -16.7445 C   0  0  2  0  0  0  0  0  0  0  0  0
   18.5092   -5.6463  -15.7761 O   0  0  0  0  0  0  0  0  0  0  0  0
   18.0123   -5.7042  -14.4655 C   0  0  2  0  0  0  0  0  0  0  0  0
   19.8292   -6.3265  -15.9031 N   0  0  0  0  0  0  0  0  0  0  0  0
   19.8740   -7.6773  -15.4015 C   0  0  0  0  0  0  0  0  0  0  0  0
   20.8118   -5.4564  -15.1592 O   0  0  0  0  0  0  0  0  0  0  0  0
   21.5006   -5.8629  -14.0603 O   0  0  0  0  0  0  0  0  0  0  0  0
  2  1  1  1
  2  3  1  0
  2  5  1  0
  4  3  1  0
  5  6  2  0
  7  8  1  0
  8 10  1  0
  8  9  2  0
 10 11  1  0
 11 12  1  0
 12 13  1  0
 14 13  1  6
 15 14  1  0
 15  5  1  0
 16 14  1  0
 16 17  2  0
 19 18  1  6
 19 21  1  0
 20 19  1  0
 21 22  1  6
 21 23  1  0
 22 16  1  0
 23 24  1  0
 25 23  2  0
M  END
$$$$
