CRT.pdb
     RDKit          3D

 25 24  0  0  1  0  0  0  0  0999 V2000
   27.2020  -21.3709  -14.6026 N   0  0  0  0  0  0  0  0  0  0  0  0
   26.3923  -20.1762  -14.2720 C   0  0  1  0  0  0  0  0  0  0  0  0
   26.9903  -19.0201  -14.9903 C   0  0  0  0  0  0  0  0  0  0  0  0
   27.2897  -17.5595  -13.9774 S   0  0  0  0  0  0  0  0  0  0  0  0
   24.9745  -20.4493  -14.4881 C   0  0  0  0  0  0  0  0  0  0  0  0
   24.6246  -21.0556  -15.5462 O   0  0  0  0  0  0  0  0  0  0  0  0
   22.6688  -21.9562   -7.7035 N   0  0  0  0  0  0  0  0  0  0  0  0
   21.4774  -21.8813   -8.5134 C   0  0  0  0  0  0  0  0  0  0  0  0
   20.3616  -22.3383   -8.0742 N   0  0  0  0  0  0  0  0  0  0  0  0
   21.5051  -21.3092   -9.8087 N   0  0  0  0  0  0  0  0  0  0  0  0
   21.0366  -22.0413  -10.9463 C   0  0  0  0  0  0  0  0  0  0  0  0
   21.9944  -21.9361  -12.1328 C   0  0  0  0  0  0  0  0  0  0  0  0
   21.8190  -20.5503  -12.6881 C   0  0  0  0  0  0  0  0  0  0  0  0
   22.5244  -20.2395  -13.9512 C   0  0  2  0  0  0  0  0  0  0  0  0
   23.9515  -20.0965  -13.6043 N   0  0  0  0  0  0  0  0  0  0  0  0
   22.0059  -19.0308  -14.5858 C   0  0  0  0  0  0  0  0  0  0  0  0
   21.6858  -18.0432  -13.8708 O   0  0  0  0  0  0  0  0  0  0  0  0
   19.5425  -22.4476   -8.6920 C   0  0  0  0  0  0  0  0  0  0  0  0
   22.0863  -17.9960  -18.8559 C   0  0  2  0  0  0  0  0  0  0  0  0
   22.0171  -17.0312  -17.6709 O   0  0  0  0  0  0  0  0  0  0  0  0
   21.4736  -15.8078  -18.0901 C   0  0  1  0  0  0  0  0  0  0  0  0
   21.2663  -17.6109  -16.5214 N   0  0  0  0  0  0  0  0  0  0  0  0
   21.8097  -18.8352  -15.9885 C   0  0  0  0  0  0  0  0  0  0  0  0
   19.8601  -17.8330  -17.0206 O   0  0  0  0  0  0  0  0  0  0  0  0
   19.2575  -19.0504  -17.0662 O   0  0  0  0  0  0  0  0  0  0  0  0
  2  1  1  6
  2  3  1  0
  2  5  1  0
  4  3  1  0
  5  6  2  0
  7  8  1  0
  8 10  1  0
  8  9  2  0
 10 11  1  0
 11 12  1  0
 12 13  1  0
 14 13  1  1
 15 14  1  0
 15  5  1  0
 16 14  1  0
 16 17  2  0
 19 18  1  6
 19 21  1  0
 20 19  1  0
 21 22  1  1
 21 23  1  0
 22 16  1  0
 23 24  1  0
 25 23  2  0
M  END
$$$$
