VIK.pdb
     RDKit          3D

 25 24  0  0  1  0  0  0  0  0999 V2000
   22.3869   -9.7316  -21.5600 C   0  0  0  0  0  0  0  0  0  0  0  0
   23.8220  -10.1786  -21.3484 C   0  0  2  0  0  0  0  0  0  0  0  0
   24.4305  -10.2484  -22.7322 C   0  0  0  0  0  0  0  0  0  0  0  0
   23.8834  -11.5541  -20.7313 C   0  0  2  0  0  0  0  0  0  0  0  0
   23.1916  -12.5269  -21.5621 N   0  0  0  0  0  0  0  0  0  0  0  0
   23.3167  -11.5940  -19.3881 C   0  0  0  0  0  0  0  0  0  0  0  0
   22.0791  -11.9408  -19.2912 O   0  0  0  0  0  0  0  0  0  0  0  0
   25.2095  -14.2572  -15.2812 C   0  0  0  0  0  0  0  0  0  0  0  0
   24.2423  -13.6070  -16.2791 C   0  0  0  0  0  0  0  0  0  0  0  0
   24.0591  -12.1668  -15.9146 C   0  0  2  0  0  0  0  0  0  0  0  0
   23.4986  -12.1576  -14.4867 C   0  0  0  0  0  0  0  0  0  0  0  0
   23.2571  -11.3512  -16.8652 C   0  0  2  0  0  0  0  0  0  0  0  0
   23.9440  -11.3047  -18.1713 N   0  0  0  0  0  0  0  0  0  0  0  0
   23.0352   -9.9904  -16.3642 C   0  0  0  0  0  0  0  0  0  0  0  0
   23.9870   -9.1462  -16.2649 O   0  0  0  0  0  0  0  0  0  0  0  0
   21.7424   -9.5562  -15.9772 N   0  0  0  0  0  0  0  0  0  0  0  0
   21.5522   -8.1598  -15.5584 C   0  0  1  0  0  0  0  0  0  0  0  0
   20.4209   -7.6215  -16.4173 C   0  0  0  0  0  0  0  0  0  0  0  0
   19.9338   -6.2723  -16.0095 C   0  0  0  0  0  0  0  0  0  0  0  0
   18.7775   -5.9191  -16.9493 C   0  0  0  0  0  0  0  0  0  0  0  0
   18.2862   -4.5045  -16.6572 C   0  0  0  0  0  0  0  0  0  0  0  0
   17.4222   -4.1007  -17.7402 N   0  0  0  0  0  0  0  0  0  0  0  0
   21.2411   -8.1293  -14.1348 C   0  0  0  0  0  0  0  0  0  0  0  0
   21.5333   -7.1412  -13.4314 O   0  0  0  0  0  0  0  0  0  0  0  0
   20.6042   -9.1820  -13.4603 O   0  0  0  0  0  0  0  0  0  0  0  0
  2  1  1  6
  2  4  1  0
  2  3  1  0
  4  6  1  0
  4  5  1  6
  6  7  2  0
  6 13  1  0
  9  8  1  0
 10  9  1  0
 10 11  1  1
 12 14  1  0
 12 10  1  0
 12 13  1  6
 14 15  2  0
 16 17  1  0
 16 14  1  0
 17 18  1  6
 19 18  1  0
 20 21  1  0
 20 19  1  0
 22 21  1  0
 23 25  1  0
 23 17  1  0
 24 23  2  0
M  END
$$$$
