VIK.pdb
     RDKit          3D

 25 24  0  0  1  0  0  0  0  0999 V2000
   19.8428  -19.4525  -17.7839 C   0  0  0  0  0  0  0  0  0  0  0  0
   20.4855  -18.2112  -17.1921 C   0  0  2  0  0  0  0  0  0  0  0  0
   20.4634  -17.1795  -18.2988 C   0  0  0  0  0  0  0  0  0  0  0  0
   21.9221  -18.4667  -16.8079 C   0  0  2  0  0  0  0  0  0  0  0  0
   22.0264  -19.6186  -15.9262 N   0  0  0  0  0  0  0  0  0  0  0  0
   22.5436  -17.3184  -16.1582 C   0  0  0  0  0  0  0  0  0  0  0  0
   22.3037  -17.1636  -14.9013 O   0  0  0  0  0  0  0  0  0  0  0  0
   27.6362  -16.2404  -16.3249 C   0  0  0  0  0  0  0  0  0  0  0  0
   26.1901  -16.3934  -15.8356 C   0  0  0  0  0  0  0  0  0  0  0  0
   25.4197  -15.1613  -16.1949 C   0  0  2  0  0  0  0  0  0  0  0  0
   26.1041  -14.0023  -15.4590 C   0  0  0  0  0  0  0  0  0  0  0  0
   23.9520  -15.2196  -15.9616 C   0  0  2  0  0  0  0  0  0  0  0  0
   23.3795  -16.3483  -16.7219 N   0  0  0  0  0  0  0  0  0  0  0  0
   23.2888  -13.9679  -16.3426 C   0  0  0  0  0  0  0  0  0  0  0  0
   23.4923  -12.8785  -15.7099 O   0  0  0  0  0  0  0  0  0  0  0  0
   22.3964  -13.9196  -17.4431 N   0  0  0  0  0  0  0  0  0  0  0  0
   21.7887  -12.6338  -17.8156 C   0  0  1  0  0  0  0  0  0  0  0  0
   20.8708  -12.9349  -18.9877 C   0  0  0  0  0  0  0  0  0  0  0  0
   20.1445  -11.7443  -19.5159 C   0  0  0  0  0  0  0  0  0  0  0  0
   19.2652  -12.2401  -20.6674 C   0  0  0  0  0  0  0  0  0  0  0  0
   18.5646  -11.0579  -21.3302 C   0  0  0  0  0  0  0  0  0  0  0  0
   17.7958  -11.5624  -22.4423 N   0  0  0  0  0  0  0  0  0  0  0  0
   21.0737  -12.0956  -16.6651 C   0  0  0  0  0  0  0  0  0  0  0  0
   21.1430  -10.8852  -16.3705 O   0  0  0  0  0  0  0  0  0  0  0  0
   20.2707  -12.8765  -15.8199 O   0  0  0  0  0  0  0  0  0  0  0  0
  2  1  1  6
  2  4  1  0
  2  3  1  0
  4  6  1  0
  4  5  1  1
  6  7  2  0
  6 13  1  0
  9  8  1  0
 10  9  1  0
 10 11  1  1
 12 14  1  0
 12 10  1  0
 12 13  1  6
 14 15  2  0
 16 17  1  0
 16 14  1  0
 17 18  1  6
 19 18  1  0
 20 21  1  0
 20 19  1  0
 22 21  1  0
 23 25  1  0
 23 17  1  0
 24 23  2  0
M  END
$$$$
