VIK.pdb
     RDKit          3D

 25 24  0  0  1  0  0  0  0  0999 V2000
   19.4373  -10.7989  -20.4363 C   0  0  0  0  0  0  0  0  0  0  0  0
   20.7920  -11.4566  -20.2459 C   0  0  2  0  0  0  0  0  0  0  0  0
   20.8914  -12.4983  -21.3390 C   0  0  0  0  0  0  0  0  0  0  0  0
   20.8801  -12.1563  -18.9120 C   0  0  2  0  0  0  0  0  0  0  0  0
   19.8382  -13.1629  -18.7842 N   0  0  0  0  0  0  0  0  0  0  0  0
   20.7851  -11.2346  -17.7857 C   0  0  0  0  0  0  0  0  0  0  0  0
   19.6063  -11.0182  -17.3116 O   0  0  0  0  0  0  0  0  0  0  0  0
   21.3968   -9.8281  -12.7027 C   0  0  0  0  0  0  0  0  0  0  0  0
   22.4700   -9.2433  -13.6302 C   0  0  0  0  0  0  0  0  0  0  0  0
   22.5358  -10.0641  -14.8802 C   0  0  2  0  0  0  0  0  0  0  0  0
   24.0079  -10.0647  -15.3114 C   0  0  0  0  0  0  0  0  0  0  0  0
   21.6051   -9.6667  -15.9701 C   0  0  2  0  0  0  0  0  0  0  0  0
   21.8158  -10.5443  -17.1385 N   0  0  0  0  0  0  0  0  0  0  0  0
   21.7846   -8.2628  -16.3559 C   0  0  0  0  0  0  0  0  0  0  0  0
   22.7757   -7.8804  -17.0629 O   0  0  0  0  0  0  0  0  0  0  0  0
   20.8504   -7.2719  -15.9620 N   0  0  0  0  0  0  0  0  0  0  0  0
   21.0832   -5.8737  -16.3524 C   0  0  1  0  0  0  0  0  0  0  0  0
   19.8897   -5.4789  -17.2051 C   0  0  0  0  0  0  0  0  0  0  0  0
   19.9448   -4.0812  -17.7223 C   0  0  0  0  0  0  0  0  0  0  0  0
   18.7327   -3.9038  -18.6411 C   0  0  0  0  0  0  0  0  0  0  0  0
   18.8301   -2.5698  -19.3752 C   0  0  0  0  0  0  0  0  0  0  0  0
   17.7609   -2.5149  -20.3428 N   0  0  0  0  0  0  0  0  0  0  0  0
   21.2091   -5.0597  -15.1499 C   0  0  0  0  0  0  0  0  0  0  0  0
   21.7970   -3.9596  -15.1740 O   0  0  0  0  0  0  0  0  0  0  0  0
   20.6918   -5.4394  -13.9021 O   0  0  0  0  0  0  0  0  0  0  0  0
  2  1  1  1
  2  4  1  0
  2  3  1  0
  4  6  1  0
  4  5  1  1
  6  7  2  0
  6 13  1  0
  9  8  1  0
 10  9  1  0
 10 11  1  6
 12 14  1  0
 12 10  1  0
 12 13  1  6
 14 15  2  0
 16 17  1  0
 16 14  1  0
 17 18  1  6
 19 18  1  0
 20 21  1  0
 20 19  1  0
 22 21  1  0
 23 25  1  0
 23 17  1  0
 24 23  2  0
M  END
$$$$
