VIK.pdb
     RDKit          3D

 25 24  0  0  1  0  0  0  0  0999 V2000
   21.2132  -15.6767  -19.0129 C   0  0  0  0  0  0  0  0  0  0  0  0
   20.5233  -14.3332  -18.8609 C   0  0  2  0  0  0  0  0  0  0  0  0
   21.6344  -13.3346  -18.6198 C   0  0  0  0  0  0  0  0  0  0  0  0
   19.6038  -14.3204  -17.6647 C   0  0  2  0  0  0  0  0  0  0  0  0
   18.5259  -15.2830  -17.8284 N   0  0  0  0  0  0  0  0  0  0  0  0
   19.0263  -13.0050  -17.4129 C   0  0  0  0  0  0  0  0  0  0  0  0
   18.2802  -12.5122  -18.3412 O   0  0  0  0  0  0  0  0  0  0  0  0
   15.7842  -12.6117  -14.7659 C   0  0  0  0  0  0  0  0  0  0  0  0
   16.1766  -11.4087  -15.6336 C   0  0  0  0  0  0  0  0  0  0  0  0
   17.4897  -10.8702  -15.1574 C   0  0  2  0  0  0  0  0  0  0  0  0
   17.1900   -9.4927  -14.5526 C   0  0  0  0  0  0  0  0  0  0  0  0
   18.5859  -10.8442  -16.1622 C   0  0  2  0  0  0  0  0  0  0  0  0
   19.1725  -12.1938  -16.2823 N   0  0  0  0  0  0  0  0  0  0  0  0
   19.6266   -9.8725  -15.8092 C   0  0  0  0  0  0  0  0  0  0  0  0
   20.4576  -10.0891  -14.8652 O   0  0  0  0  0  0  0  0  0  0  0  0
   19.7547   -8.6502  -16.5158 N   0  0  0  0  0  0  0  0  0  0  0  0
   20.8717   -7.7506  -16.1926 C   0  0  1  0  0  0  0  0  0  0  0  0
   21.1127   -6.9251  -17.4447 C   0  0  0  0  0  0  0  0  0  0  0  0
   22.1966   -5.9101  -17.3075 C   0  0  0  0  0  0  0  0  0  0  0  0
   22.3837   -5.2762  -18.6888 C   0  0  0  0  0  0  0  0  0  0  0  0
   23.4742   -4.2110  -18.6265 C   0  0  0  0  0  0  0  0  0  0  0  0
   23.7922   -3.8197  -19.9786 N   0  0  0  0  0  0  0  0  0  0  0  0
   20.5059   -6.9337  -15.0422 C   0  0  0  0  0  0  0  0  0  0  0  0
   19.3319   -6.5476  -14.8720 O   0  0  0  0  0  0  0  0  0  0  0  0
   21.4222   -6.5279  -14.0600 O   0  0  0  0  0  0  0  0  0  0  0  0
  2  1  1  1
  2  4  1  0
  2  3  1  0
  4  6  1  0
  4  5  1  6
  6  7  2  0
  6 13  1  0
  9  8  1  0
 10  9  1  0
 10 11  1  6
 12 14  1  0
 12 10  1  0
 12 13  1  1
 14 15  2  0
 16 17  1  0
 16 14  1  0
 17 18  1  6
 19 18  1  0
 20 21  1  0
 20 19  1  0
 22 21  1  0
 23 25  1  0
 23 17  1  0
 24 23  2  0
M  END
$$$$
