VIK.pdb
     RDKit          3D

 25 24  0  0  1  0  0  0  0  0999 V2000
   20.4522  -16.5165  -16.5062 C   0  0  0  0  0  0  0  0  0  0  0  0
   19.2311  -15.7489  -16.9791 C   0  0  2  0  0  0  0  0  0  0  0  0
   18.6304  -16.5890  -18.0850 C   0  0  0  0  0  0  0  0  0  0  0  0
   19.6144  -14.4078  -17.5546 C   0  0  2  0  0  0  0  0  0  0  0  0
   20.4445  -14.5691  -18.7379 N   0  0  0  0  0  0  0  0  0  0  0  0
   20.3197  -13.5648  -16.5959 C   0  0  0  0  0  0  0  0  0  0  0  0
   19.6792  -13.2450  -15.5241 O   0  0  0  0  0  0  0  0  0  0  0  0
   24.5685  -14.7043  -16.0270 C   0  0  0  0  0  0  0  0  0  0  0  0
   23.9742  -13.8090  -14.9318 C   0  0  0  0  0  0  0  0  0  0  0  0
   23.6555  -12.4682  -15.5161 C   0  0  2  0  0  0  0  0  0  0  0  0
   24.4118  -11.4420  -14.6630 C   0  0  0  0  0  0  0  0  0  0  0  0
   22.2105  -12.1519  -15.6708 C   0  0  2  0  0  0  0  0  0  0  0  0
   21.6179  -13.0499  -16.6818 N   0  0  0  0  0  0  0  0  0  0  0  0
   21.9963  -10.7520  -16.0534 C   0  0  0  0  0  0  0  0  0  0  0  0
   22.3963  -10.2918  -17.1744 O   0  0  0  0  0  0  0  0  0  0  0  0
   21.3230   -9.8531  -15.1884 N   0  0  0  0  0  0  0  0  0  0  0  0
   21.1167   -8.4632  -15.6207 C   0  0  1  0  0  0  0  0  0  0  0  0
   19.6482   -8.3608  -15.9954 C   0  0  0  0  0  0  0  0  0  0  0  0
   19.2080   -6.9859  -16.3691 C   0  0  0  0  0  0  0  0  0  0  0  0
   17.6981   -7.0582  -16.6136 C   0  0  0  0  0  0  0  0  0  0  0  0
   17.1825   -5.6987  -17.0759 C   0  0  0  0  0  0  0  0  0  0  0  0
   15.7768   -5.8332  -17.3731 N   0  0  0  0  0  0  0  0  0  0  0  0
   21.4827   -7.5676  -14.5306 C   0  0  0  0  0  0  0  0  0  0  0  0
   21.4708   -7.9556  -13.3449 O   0  0  0  0  0  0  0  0  0  0  0  0
   21.8680   -6.2322  -14.7238 O   0  0  0  0  0  0  0  0  0  0  0  0
  2  1  1  6
  2  4  1  0
  2  3  1  0
  4  6  1  0
  4  5  1  6
  6  7  2  0
  6 13  1  0
  9  8  1  0
 10  9  1  0
 10 11  1  1
 12 14  1  0
 12 10  1  0
 12 13  1  6
 14 15  2  0
 16 17  1  0
 16 14  1  0
 17 18  1  1
 19 18  1  0
 20 21  1  0
 20 19  1  0
 22 21  1  0
 23 25  1  0
 23 17  1  0
 24 23  2  0
M  END
$$$$
