FPI.pdb
     RDKit          3D

 27 28  0  0  1  0  0  0  0  0999 V2000
    5.6410  -18.1809   24.4646 N   0  0  0  0  0  0  0  0  0  0  0  0
    6.1521  -16.8797   24.6206 C   0  0  1  0  0  0  0  0  0  0  0  0
    5.8581  -16.4086   26.0385 C   0  0  0  0  0  0  0  0  0  0  0  0
    5.9189  -14.9517   26.1977 C   0  0  0  0  0  0  0  0  0  0  0  0
    4.9342  -14.1107   25.7118 C   0  0  0  0  0  0  0  0  0  0  0  0
    4.9708  -12.7420   25.8518 C   0  0  0  0  0  0  0  0  0  0  0  0
    6.0319  -12.1498   26.5060 C   0  0  0  0  0  0  0  0  0  0  0  0
    7.0269  -12.9579   27.0005 C   0  0  0  0  0  0  0  0  0  0  0  0
    6.9814  -14.3223   26.8558 C   0  0  0  0  0  0  0  0  0  0  0  0
    7.5497  -16.6124   24.2963 C   0  0  0  0  0  0  0  0  0  0  0  0
    8.3936  -17.0767   25.1678 O   0  0  0  0  0  0  0  0  0  0  0  0
    8.1226  -15.9485   23.2166 N   0  0  0  0  0  0  0  0  0  0  0  0
    7.3889  -15.6622   21.9563 C   0  0  0  0  0  0  0  0  0  0  0  0
    7.7069  -14.1739   21.8016 C   0  0  0  0  0  0  0  0  0  0  0  0
    8.9615  -13.9226   22.6456 C   0  0  0  0  0  0  0  0  0  0  0  0
    9.3947  -15.3846   22.9018 C   0  0  1  0  0  0  0  0  0  0  0  0
   10.5089  -15.4966   23.8008 C   0  0  0  0  0  0  0  0  0  0  0  0
   11.7035  -15.1614   23.6674 O   0  0  0  0  0  0  0  0  0  0  0  0
   10.8914  -12.7077   27.7242 C   0  0  0  0  0  0  0  0  0  0  0  0
   11.2664  -13.7552   26.7094 C   0  0  0  0  0  0  0  0  0  0  0  0
   10.9170  -15.1465   27.1912 C   0  0  2  0  0  0  0  0  0  0  0  0
   11.6250  -15.3792   28.4821 C   0  0  0  0  0  0  0  0  0  0  0  0
   11.2279  -16.1841   26.1342 C   0  0  2  0  0  0  0  0  0  0  0  0
   10.2300  -16.0966   25.0887 N   0  0  0  0  0  0  0  0  0  0  0  0
   11.2779  -17.5247   26.7452 C   0  0  0  0  0  0  0  0  0  0  0  0
   10.3017  -18.4470   26.4466 O   0  0  0  0  0  0  0  0  0  0  0  0
   12.1974  -17.8254   27.5287 O   0  0  0  0  0  0  0  0  0  0  0  0
  2  3  1  0
  2  1  1  1
  4  3  1  0
  5  4  2  0
  6  5  1  0
  7  8  1  0
  7  6  2  0
  8  9  2  0
  9  4  1  0
 10 12  1  0
 10  2  1  0
 11 10  2  0
 12 13  1  0
 14 13  1  0
 15 16  1  0
 15 14  1  0
 16 12  1  0
 17 24  1  0
 16 17  1  1
 18 17  2  0
 20 19  1  0
 21 23  1  0
 21 20  1  0
 21 22  1  1
 23 24  1  6
 25 26  1  0
 25 23  1  0
 27 25  2  0
M  END
$$$$
