FPI.pdb
     RDKit          3D

 27 28  0  0  1  0  0  0  0  0999 V2000
    5.2915  -17.9934   23.6937 N   0  0  0  0  0  0  0  0  0  0  0  0
    5.9954  -16.8397   24.0836 C   0  0  1  0  0  0  0  0  0  0  0  0
    5.7354  -16.5882   25.5628 C   0  0  0  0  0  0  0  0  0  0  0  0
    6.2744  -15.3122   26.0452 C   0  0  0  0  0  0  0  0  0  0  0  0
    7.3644  -15.2407   26.8935 C   0  0  0  0  0  0  0  0  0  0  0  0
    7.8870  -14.0545   27.3563 C   0  0  0  0  0  0  0  0  0  0  0  0
    7.3151  -12.8590   26.9711 C   0  0  0  0  0  0  0  0  0  0  0  0
    6.2305  -12.8959   26.1287 C   0  0  0  0  0  0  0  0  0  0  0  0
    5.7164  -14.0842   25.6724 C   0  0  0  0  0  0  0  0  0  0  0  0
    7.4269  -16.7459   23.8159 C   0  0  0  0  0  0  0  0  0  0  0  0
    8.1569  -17.5199   24.5610 O   0  0  0  0  0  0  0  0  0  0  0  0
    8.1330  -15.9712   22.9014 N   0  0  0  0  0  0  0  0  0  0  0  0
    7.5719  -15.5452   21.5929 C   0  0  0  0  0  0  0  0  0  0  0  0
    7.8939  -14.0506   21.6451 C   0  0  0  0  0  0  0  0  0  0  0  0
    9.0218  -13.8996   22.6719 C   0  0  0  0  0  0  0  0  0  0  0  0
    9.4305  -15.3832   22.8233 C   0  0  1  0  0  0  0  0  0  0  0  0
   10.4153  -15.5986   23.8459 C   0  0  0  0  0  0  0  0  0  0  0  0
   11.6604  -15.6523   23.7829 O   0  0  0  0  0  0  0  0  0  0  0  0
    8.5598  -13.0683   28.0966 C   0  0  0  0  0  0  0  0  0  0  0  0
    9.5493  -13.6291   27.1098 C   0  0  0  0  0  0  0  0  0  0  0  0
    9.9610  -15.0388   27.4751 C   0  0  2  0  0  0  0  0  0  0  0  0
   10.6933  -14.9841   28.7723 C   0  0  0  0  0  0  0  0  0  0  0  0
   10.7543  -15.6823   26.3583 C   0  0  2  0  0  0  0  0  0  0  0  0
    9.9078  -15.7894   25.1884 N   0  0  0  0  0  0  0  0  0  0  0  0
   11.2666  -16.9932   26.7965 C   0  0  0  0  0  0  0  0  0  0  0  0
   10.7584  -18.1445   26.2405 O   0  0  0  0  0  0  0  0  0  0  0  0
   12.1551  -17.0632   27.6656 O   0  0  0  0  0  0  0  0  0  0  0  0
  2  3  1  0
  2  1  1  1
  4  3  1  0
  5  4  2  0
  6  5  1  0
  7  8  1  0
  7  6  2  0
  8  9  2  0
  9  4  1  0
 10 12  1  0
 10  2  1  0
 11 10  2  0
 12 13  1  0
 14 13  1  0
 15 16  1  0
 15 14  1  0
 16 12  1  0
 17 24  1  0
 16 17  1  1
 18 17  2  0
 20 19  1  0
 21 23  1  0
 21 20  1  0
 21 22  1  1
 23 24  1  6
 25 26  1  0
 25 23  1  0
 27 25  2  0
M  END
$$$$
