FPI.pdb
     RDKit          3D

 27 28  0  0  1  0  0  0  0  0999 V2000
    6.0624  -16.3295   20.5688 N   0  0  0  0  0  0  0  0  0  0  0  0
    7.0683  -16.7282   21.4675 C   0  0  1  0  0  0  0  0  0  0  0  0
    8.3284  -15.9249   21.1746 C   0  0  0  0  0  0  0  0  0  0  0  0
    8.0870  -14.7313   20.3570 C   0  0  0  0  0  0  0  0  0  0  0  0
    9.1163  -13.9801   19.8192 C   0  0  0  0  0  0  0  0  0  0  0  0
    8.9120  -12.8583   19.0482 C   0  0  0  0  0  0  0  0  0  0  0  0
    7.6251  -12.4374   18.7811 C   0  0  0  0  0  0  0  0  0  0  0  0
    6.5802  -13.1622   19.3010 C   0  0  0  0  0  0  0  0  0  0  0  0
    6.7941  -14.2798   20.0690 C   0  0  0  0  0  0  0  0  0  0  0  0
    6.7994  -16.7105   22.9018 C   0  0  0  0  0  0  0  0  0  0  0  0
    6.3813  -15.5645   23.3481 O   0  0  0  0  0  0  0  0  0  0  0  0
    6.9153  -17.7102   23.8620 N   0  0  0  0  0  0  0  0  0  0  0  0
    6.0530  -18.9204   23.8835 C   0  0  0  0  0  0  0  0  0  0  0  0
    7.1256  -20.0026   24.0200 C   0  0  0  0  0  0  0  0  0  0  0  0
    8.3659  -19.2964   24.5789 C   0  0  0  0  0  0  0  0  0  0  0  0
    7.7253  -17.9569   25.0103 C   0  0  1  0  0  0  0  0  0  0  0  0
    8.6836  -16.9933   25.4743 C   0  0  0  0  0  0  0  0  0  0  0  0
    9.7772  -16.6321   24.9940 O   0  0  0  0  0  0  0  0  0  0  0  0
    7.3305  -12.2470   26.8371 C   0  0  0  0  0  0  0  0  0  0  0  0
    8.0613  -13.5214   26.5062 C   0  0  0  0  0  0  0  0  0  0  0  0
    8.6581  -14.1574   27.7428 C   0  0  2  0  0  0  0  0  0  0  0  0
    9.5894  -13.1733   28.3642 C   0  0  0  0  0  0  0  0  0  0  0  0
    9.3091  -15.4837   27.4143 C   0  0  2  0  0  0  0  0  0  0  0  0
    8.3526  -16.3086   26.7063 N   0  0  0  0  0  0  0  0  0  0  0  0
    9.7916  -16.1264   28.6500 C   0  0  0  0  0  0  0  0  0  0  0  0
   11.0900  -15.9282   29.0594 O   0  0  0  0  0  0  0  0  0  0  0  0
    9.0313  -16.8464   29.3233 O   0  0  0  0  0  0  0  0  0  0  0  0
  2  3  1  0
  2  1  1  6
  4  3  1  0
  5  4  2  0
  6  5  1  0
  7  8  1  0
  7  6  2  0
  8  9  2  0
  9  4  1  0
 10 12  1  0
 10  2  1  0
 11 10  2  0
 12 13  1  0
 14 13  1  0
 15 16  1  0
 15 14  1  0
 16 12  1  0
 17 24  1  0
 16 17  1  6
 18 17  2  0
 20 19  1  0
 21 23  1  0
 21 20  1  0
 21 22  1  6
 23 24  1  1
 25 26  1  0
 25 23  1  0
 27 25  2  0
M  END
$$$$
