FPI.pdb
     RDKit          3D

 27 28  0  0  1  0  0  0  0  0999 V2000
    5.5720  -18.1616   23.8965 N   0  0  0  0  0  0  0  0  0  0  0  0
    6.1879  -16.9192   24.1325 C   0  0  1  0  0  0  0  0  0  0  0  0
    5.8731  -16.4833   25.5571 C   0  0  0  0  0  0  0  0  0  0  0  0
    6.2467  -15.0938   25.8422 C   0  0  0  0  0  0  0  0  0  0  0  0
    6.8093  -14.7090   27.0457 C   0  0  0  0  0  0  0  0  0  0  0  0
    7.1687  -13.4118   27.3329 C   0  0  0  0  0  0  0  0  0  0  0  0
    6.9695  -12.4227   26.3912 C   0  0  0  0  0  0  0  0  0  0  0  0
    6.4122  -12.7725   25.1851 C   0  0  0  0  0  0  0  0  0  0  0  0
    6.0570  -14.0693   24.9080 C   0  0  0  0  0  0  0  0  0  0  0  0
    7.6167  -16.7651   23.8783 C   0  0  0  0  0  0  0  0  0  0  0  0
    8.3767  -17.3210   24.7730 O   0  0  0  0  0  0  0  0  0  0  0  0
    8.2935  -16.1269   22.8441 N   0  0  0  0  0  0  0  0  0  0  0  0
    7.7092  -15.9259   21.4926 C   0  0  0  0  0  0  0  0  0  0  0  0
    7.9923  -14.4343   21.3052 C   0  0  0  0  0  0  0  0  0  0  0  0
    9.1255  -14.0961   22.2803 C   0  0  0  0  0  0  0  0  0  0  0  0
    9.5743  -15.5269   22.6572 C   0  0  1  0  0  0  0  0  0  0  0  0
   10.5741  -15.5546   23.6877 C   0  0  0  0  0  0  0  0  0  0  0  0
   11.6924  -15.0054   23.7562 O   0  0  0  0  0  0  0  0  0  0  0  0
   10.0393  -13.5340   28.8592 C   0  0  0  0  0  0  0  0  0  0  0  0
   10.8137  -14.6082   28.1424 C   0  0  0  0  0  0  0  0  0  0  0  0
   10.2492  -14.8750   26.7639 C   0  0  2  0  0  0  0  0  0  0  0  0
    8.7656  -14.9589   26.8812 C   0  0  0  0  0  0  0  0  0  0  0  0
   10.8784  -16.1046   26.1452 C   0  0  2  0  0  0  0  0  0  0  0  0
   10.2597  -16.3463   24.8586 N   0  0  0  0  0  0  0  0  0  0  0  0
   10.7360  -17.2546   27.0562 C   0  0  0  0  0  0  0  0  0  0  0  0
    9.8294  -18.2475   26.7643 O   0  0  0  0  0  0  0  0  0  0  0  0
   11.4306  -17.3314   28.0864 O   0  0  0  0  0  0  0  0  0  0  0  0
  2  3  1  0
  2  1  1  1
  4  3  1  0
  5  4  2  0
  6  5  1  0
  7  8  1  0
  7  6  2  0
  8  9  2  0
  9  4  1  0
 10 12  1  0
 10  2  1  0
 11 10  2  0
 12 13  1  0
 14 13  1  0
 15 16  1  0
 15 14  1  0
 16 12  1  0
 17 24  1  0
 16 17  1  1
 18 17  2  0
 20 19  1  0
 21 23  1  0
 21 20  1  0
 21 22  1  1
 23 24  1  6
 25 26  1  0
 25 23  1  0
 27 25  2  0
M  END
$$$$
