FPI.pdb
     RDKit          3D

 27 28  0  0  1  0  0  0  0  0999 V2000
    5.4210  -18.0175   24.1243 N   0  0  0  0  0  0  0  0  0  0  0  0
    6.0165  -16.7538   24.2887 C   0  0  1  0  0  0  0  0  0  0  0  0
    5.8074  -16.3014   25.7277 C   0  0  0  0  0  0  0  0  0  0  0  0
    6.0145  -14.8630   25.9270 C   0  0  0  0  0  0  0  0  0  0  0  0
    5.1299  -13.9131   25.4493 C   0  0  0  0  0  0  0  0  0  0  0  0
    5.3042  -12.5594   25.6267 C   0  0  0  0  0  0  0  0  0  0  0  0
    6.4088  -12.0963   26.3124 C   0  0  0  0  0  0  0  0  0  0  0  0
    7.3068  -13.0148   26.7997 C   0  0  0  0  0  0  0  0  0  0  0  0
    7.1242  -14.3632   26.6176 C   0  0  0  0  0  0  0  0  0  0  0  0
    7.4140  -16.5631   23.9143 C   0  0  0  0  0  0  0  0  0  0  0  0
    8.2528  -17.2467   24.6328 O   0  0  0  0  0  0  0  0  0  0  0  0
    7.9915  -15.7771   22.9225 N   0  0  0  0  0  0  0  0  0  0  0  0
    7.2169  -15.1850   21.8008 C   0  0  0  0  0  0  0  0  0  0  0  0
    7.7036  -13.7371   21.8833 C   0  0  0  0  0  0  0  0  0  0  0  0
    9.0324  -13.7835   22.6460 C   0  0  0  0  0  0  0  0  0  0  0  0
    9.2995  -15.3059   22.6024 C   0  0  1  0  0  0  0  0  0  0  0  0
   10.4484  -15.7022   23.3674 C   0  0  0  0  0  0  0  0  0  0  0  0
   11.6341  -15.8863   23.0251 O   0  0  0  0  0  0  0  0  0  0  0  0
   11.0268  -13.6305   29.0315 C   0  0  0  0  0  0  0  0  0  0  0  0
   11.6421  -14.4375   27.9190 C   0  0  0  0  0  0  0  0  0  0  0  0
   10.6272  -14.7721   26.8475 C   0  0  2  0  0  0  0  0  0  0  0  0
    9.4350  -15.3709   27.5122 C   0  0  0  0  0  0  0  0  0  0  0  0
   11.2331  -15.6564   25.7791 C   0  0  2  0  0  0  0  0  0  0  0  0
   10.2241  -15.9351   24.7787 N   0  0  0  0  0  0  0  0  0  0  0  0
   11.7674  -16.8874   26.3890 C   0  0  0  0  0  0  0  0  0  0  0  0
   13.0299  -16.8850   26.9357 O   0  0  0  0  0  0  0  0  0  0  0  0
   11.0830  -17.9270   26.4116 O   0  0  0  0  0  0  0  0  0  0  0  0
  2  3  1  0
  2  1  1  1
  4  3  1  0
  5  4  2  0
  6  5  1  0
  7  8  1  0
  7  6  2  0
  8  9  2  0
  9  4  1  0
 10 12  1  0
 10  2  1  0
 11 10  2  0
 12 13  1  0
 14 13  1  0
 15 16  1  0
 15 14  1  0
 16 12  1  0
 17 24  1  0
 16 17  1  1
 18 17  2  0
 20 19  1  0
 21 23  1  0
 21 20  1  0
 21 22  1  1
 23 24  1  6
 25 26  1  0
 25 23  1  0
 27 25  2  0
M  END
$$$$
