FPI.pdb
     RDKit          3D

 27 28  0  0  1  0  0  0  0  0999 V2000
   11.2689  -16.3198   19.2198 N   0  0  0  0  0  0  0  0  0  0  0  0
   10.8334  -17.1582   20.2618 C   0  0  1  0  0  0  0  0  0  0  0  0
   11.7774  -18.3496   20.3540 C   0  0  0  0  0  0  0  0  0  0  0  0
   11.3606  -19.3542   21.3381 C   0  0  0  0  0  0  0  0  0  0  0  0
   10.1540  -20.0242   21.2486 C   0  0  0  0  0  0  0  0  0  0  0  0
    9.7445  -20.9713   22.1596 C   0  0  0  0  0  0  0  0  0  0  0  0
   10.5586  -21.2895   23.2276 C   0  0  0  0  0  0  0  0  0  0  0  0
   11.7643  -20.6414   23.3451 C   0  0  0  0  0  0  0  0  0  0  0  0
   12.1639  -19.6981   22.4311 C   0  0  0  0  0  0  0  0  0  0  0  0
   10.6198  -16.5993   21.5929 C   0  0  0  0  0  0  0  0  0  0  0  0
   11.6980  -16.5192   22.3129 O   0  0  0  0  0  0  0  0  0  0  0  0
    9.4618  -16.1414   22.2127 N   0  0  0  0  0  0  0  0  0  0  0  0
    8.3666  -15.4526   21.4815 C   0  0  0  0  0  0  0  0  0  0  0  0
    7.1677  -16.2543   21.9916 C   0  0  0  0  0  0  0  0  0  0  0  0
    7.6279  -16.9131   23.2969 C   0  0  0  0  0  0  0  0  0  0  0  0
    8.9332  -16.1200   23.5376 C   0  0  1  0  0  0  0  0  0  0  0  0
    9.6922  -16.6034   24.6568 C   0  0  0  0  0  0  0  0  0  0  0  0
   10.2734  -17.6922   24.8408 O   0  0  0  0  0  0  0  0  0  0  0  0
    9.4069  -13.2632   29.3708 C   0  0  0  0  0  0  0  0  0  0  0  0
    9.2809  -14.3739   28.3617 C   0  0  0  0  0  0  0  0  0  0  0  0
   10.6360  -14.8394   27.8749 C   0  0  2  0  0  0  0  0  0  0  0  0
   11.3039  -13.6900   27.2006 C   0  0  0  0  0  0  0  0  0  0  0  0
   10.5088  -16.0659   26.9973 C   0  0  2  0  0  0  0  0  0  0  0  0
    9.8225  -15.6957   25.7773 N   0  0  0  0  0  0  0  0  0  0  0  0
    9.8066  -17.1362   27.7283 C   0  0  0  0  0  0  0  0  0  0  0  0
   10.4377  -17.7790   28.7682 O   0  0  0  0  0  0  0  0  0  0  0  0
    8.6478  -17.4605   27.4096 O   0  0  0  0  0  0  0  0  0  0  0  0
  2  3  1  0
  2  1  1  6
  4  3  1  0
  5  4  2  0
  6  5  1  0
  7  8  1  0
  7  6  2  0
  8  9  2  0
  9  4  1  0
 10 12  1  0
 10  2  1  0
 11 10  2  0
 12 13  1  0
 14 13  1  0
 15 16  1  0
 15 14  1  0
 16 12  1  0
 17 24  1  0
 16 17  1  1
 18 17  2  0
 20 19  1  0
 21 23  1  0
 21 20  1  0
 21 22  1  6
 23 24  1  6
 25 26  1  0
 25 23  1  0
 27 25  2  0
M  END
$$$$
