CGQ.pdb
     RDKit          3D

 20 19  0  0  1  0  0  0  0  0999 V2000
   16.9650  -13.8193  -14.7523 N   0  0  0  0  0  0  0  0  0  0  0  0
   16.0904  -13.3508  -15.7958 C   0  0  1  0  0  0  0  0  0  0  0  0
   14.6613  -13.8038  -15.4772 C   0  0  0  0  0  0  0  0  0  0  0  0
   14.5340  -15.5911  -15.4300 S   0  0  0  0  0  0  0  0  0  0  0  0
   16.1755  -11.8702  -15.8882 C   0  0  0  0  0  0  0  0  0  0  0  0
   15.6301  -11.2601  -16.8586 O   0  0  0  0  0  0  0  0  0  0  0  0
   16.8752  -11.1221  -14.8801 N   0  0  0  0  0  0  0  0  0  0  0  0
   16.9843   -9.7051  -15.0761 C   0  0  0  0  0  0  0  0  0  0  0  0
   18.3481   -9.2168  -15.2954 C   0  0  0  0  0  0  0  0  0  0  0  0
   19.3497  -10.0144  -15.1966 O   0  0  0  0  0  0  0  0  0  0  0  0
   18.5649   -3.9615  -17.5006 N   0  0  0  0  0  0  0  0  0  0  0  0
   18.6255   -5.0501  -18.4306 C   0  0  0  0  0  0  0  0  0  0  0  0
   18.0120   -4.9988  -19.5196 O   0  0  0  0  0  0  0  0  0  0  0  0
   19.4367   -6.2349  -18.0584 C   0  0  0  0  0  0  0  0  0  0  0  0
   19.9930   -6.1937  -16.6832 C   0  0  0  0  0  0  0  0  0  0  0  0
   20.0945   -7.5139  -15.9777 C   0  0  2  0  0  0  0  0  0  0  0  0
   18.7190   -7.8861  -15.6242 N   0  0  0  0  0  0  0  0  0  0  0  0
   20.9113   -7.4595  -14.7547 C   0  0  0  0  0  0  0  0  0  0  0  0
   20.3656   -7.5158  -13.6386 O   0  0  0  0  0  0  0  0  0  0  0  0
   22.2773   -7.3466  -14.8355 O   0  0  0  0  0  0  0  0  0  0  0  0
  2  3  1  0
  2  1  1  1
  4  3  1  0
  5  6  2  0
  5  2  1  0
  7  5  1  0
  8  9  1  0
  8  7  1  0
  9 10  2  0
 11 12  1  0
 12 14  1  0
 12 13  2  0
 14 15  1  0
 16 15  1  1
 17 16  1  0
 17  9  1  0
 18 20  1  0
 18 16  1  0
 19 18  2  0
M  END
$$$$
