CGQ.pdb
     RDKit          3D

 20 19  0  0  1  0  0  0  0  0999 V2000
   18.5213  -12.7817  -15.5569 N   0  0  0  0  0  0  0  0  0  0  0  0
   17.4286  -12.8089  -16.4943 C   0  0  1  0  0  0  0  0  0  0  0  0
   16.3232  -13.7094  -15.9318 C   0  0  0  0  0  0  0  0  0  0  0  0
   16.8946  -15.3948  -15.7174 S   0  0  0  0  0  0  0  0  0  0  0  0
   16.9317  -11.4266  -16.7188 C   0  0  0  0  0  0  0  0  0  0  0  0
   16.0448  -11.2037  -17.5992 O   0  0  0  0  0  0  0  0  0  0  0  0
   17.4524  -10.3361  -15.9409 N   0  0  0  0  0  0  0  0  0  0  0  0
   17.0654   -9.0113  -16.3324 C   0  0  0  0  0  0  0  0  0  0  0  0
   17.4968   -7.9488  -15.4206 C   0  0  0  0  0  0  0  0  0  0  0  0
   17.2406   -8.0242  -14.1644 O   0  0  0  0  0  0  0  0  0  0  0  0
   22.8082   -5.9190  -14.3169 N   0  0  0  0  0  0  0  0  0  0  0  0
   22.0868   -7.1265  -14.0429 C   0  0  0  0  0  0  0  0  0  0  0  0
   22.6864   -8.1669  -13.6922 O   0  0  0  0  0  0  0  0  0  0  0  0
   20.6110   -7.1003  -14.1898 C   0  0  0  0  0  0  0  0  0  0  0  0
   20.0619   -5.8071  -14.6677 C   0  0  0  0  0  0  0  0  0  0  0  0
   18.5692   -5.7389  -14.8029 C   0  0  2  0  0  0  0  0  0  0  0  0
   18.2078   -6.7733  -15.7800 N   0  0  0  0  0  0  0  0  0  0  0  0
   18.0866   -4.4328  -15.2791 C   0  0  0  0  0  0  0  0  0  0  0  0
   17.6614   -4.3122  -16.4415 O   0  0  0  0  0  0  0  0  0  0  0  0
   18.1017   -3.3406  -14.4470 O   0  0  0  0  0  0  0  0  0  0  0  0
  2  3  1  0
  2  1  1  1
  4  3  1  0
  5  6  2  0
  5  2  1  0
  7  5  1  0
  8  9  1  0
  8  7  1  0
  9 10  2  0
 11 12  1  0
 12 14  1  0
 12 13  2  0
 14 15  1  0
 16 15  1  6
 17 16  1  0
 17  9  1  0
 18 20  1  0
 18 16  1  0
 19 18  2  0
M  END
$$$$
