CGQ.pdb
     RDKit          3D

 20 19  0  0  1  0  0  0  0  0999 V2000
   17.3161  -14.8641  -16.9629 N   0  0  0  0  0  0  0  0  0  0  0  0
   18.6363  -14.8246  -17.5363 C   0  0  1  0  0  0  0  0  0  0  0  0
   18.7027  -15.8394  -18.6830 C   0  0  0  0  0  0  0  0  0  0  0  0
   18.8632  -17.5155  -18.0683 S   0  0  0  0  0  0  0  0  0  0  0  0
   18.9276  -13.4499  -18.0193 C   0  0  0  0  0  0  0  0  0  0  0  0
   20.0866  -13.1570  -18.4464 O   0  0  0  0  0  0  0  0  0  0  0  0
   17.8994  -12.4459  -18.0054 N   0  0  0  0  0  0  0  0  0  0  0  0
   18.2773  -11.1185  -18.3971 C   0  0  0  0  0  0  0  0  0  0  0  0
   18.3981  -10.1617  -17.2943 C   0  0  0  0  0  0  0  0  0  0  0  0
   17.4864  -10.0878  -16.3928 O   0  0  0  0  0  0  0  0  0  0  0  0
   23.0131   -9.7900  -13.7668 N   0  0  0  0  0  0  0  0  0  0  0  0
   22.2588   -8.7424  -13.1447 C   0  0  0  0  0  0  0  0  0  0  0  0
   22.5760   -8.3064  -12.0159 O   0  0  0  0  0  0  0  0  0  0  0  0
   21.0935   -8.1959  -13.8820 C   0  0  0  0  0  0  0  0  0  0  0  0
   20.7407   -8.9404  -15.1164 C   0  0  0  0  0  0  0  0  0  0  0  0
   19.5695   -8.4097  -15.8895 C   0  0  2  0  0  0  0  0  0  0  0  0
   19.4673   -9.2500  -17.0890 N   0  0  0  0  0  0  0  0  0  0  0  0
   19.7279   -7.0039  -16.2948 C   0  0  0  0  0  0  0  0  0  0  0  0
   20.1171   -6.7271  -17.4431 O   0  0  0  0  0  0  0  0  0  0  0  0
   19.4485   -5.9901  -15.4119 O   0  0  0  0  0  0  0  0  0  0  0  0
  2  3  1  0
  2  1  1  6
  4  3  1  0
  5  6  2  0
  5  2  1  0
  7  5  1  0
  8  9  1  0
  8  7  1  0
  9 10  2  0
 11 12  1  0
 12 14  1  0
 12 13  2  0
 14 15  1  0
 16 15  1  6
 17 16  1  0
 17  9  1  0
 18 20  1  0
 18 16  1  0
 19 18  2  0
M  END
$$$$
