CGQ.pdb
     RDKit          3D

 20 19  0  0  1  0  0  0  0  0999 V2000
   29.3241  -22.7671  -16.9208 N   0  0  0  0  0  0  0  0  0  0  0  0
   29.2178  -21.3325  -16.8578 C   0  0  1  0  0  0  0  0  0  0  0  0
   29.0859  -20.7881  -18.2845 C   0  0  0  0  0  0  0  0  0  0  0  0
   30.4741  -21.2801  -19.3062 S   0  0  0  0  0  0  0  0  0  0  0  0
   28.0424  -20.9570  -16.0299 C   0  0  0  0  0  0  0  0  0  0  0  0
   27.3882  -21.8510  -15.4101 O   0  0  0  0  0  0  0  0  0  0  0  0
   27.6409  -19.5810  -15.9268 N   0  0  0  0  0  0  0  0  0  0  0  0
   26.6161  -19.2693  -14.9724 C   0  0  0  0  0  0  0  0  0  0  0  0
   25.2691  -19.7034  -15.3509 C   0  0  0  0  0  0  0  0  0  0  0  0
   25.0430  -20.1802  -16.5218 O   0  0  0  0  0  0  0  0  0  0  0  0
   20.7119  -21.2115  -11.3850 N   0  0  0  0  0  0  0  0  0  0  0  0
   19.9893  -21.3685  -12.6126 C   0  0  0  0  0  0  0  0  0  0  0  0
   18.8014  -21.7608  -12.6124 O   0  0  0  0  0  0  0  0  0  0  0  0
   20.6959  -21.0519  -13.8778 C   0  0  0  0  0  0  0  0  0  0  0  0
   22.0864  -20.5642  -13.7018 C   0  0  0  0  0  0  0  0  0  0  0  0
   22.8153  -20.1948  -14.9602 C   0  0  2  0  0  0  0  0  0  0  0  0
   24.1120  -19.6579  -14.5291 N   0  0  0  0  0  0  0  0  0  0  0  0
   22.1138  -19.1807  -15.7633 C   0  0  0  0  0  0  0  0  0  0  0  0
   22.2741  -17.9721  -15.5180 O   0  0  0  0  0  0  0  0  0  0  0  0
   21.2797  -19.5591  -16.7863 O   0  0  0  0  0  0  0  0  0  0  0  0
  2  3  1  0
  2  1  1  6
  4  3  1  0
  5  6  2  0
  5  2  1  0
  7  5  1  0
  8  9  1  0
  8  7  1  0
  9 10  2  0
 11 12  1  0
 12 14  1  0
 12 13  2  0
 14 15  1  0
 16 15  1  1
 17 16  1  0
 17  9  1  0
 18 20  1  0
 18 16  1  0
 19 18  2  0
M  END
$$$$
