CGQ.pdb
     RDKit          3D

 20 19  0  0  1  0  0  0  0  0999 V2000
   20.4493  -11.1099  -17.5673 N   0  0  0  0  0  0  0  0  0  0  0  0
   21.8519  -10.9672  -17.2745 C   0  0  1  0  0  0  0  0  0  0  0  0
   22.4721  -10.0136  -18.3018 C   0  0  0  0  0  0  0  0  0  0  0  0
   21.4928   -9.9362  -19.8010 S   0  0  0  0  0  0  0  0  0  0  0  0
   22.0209  -10.4495  -15.8919 C   0  0  0  0  0  0  0  0  0  0  0  0
   23.1836  -10.2356  -15.4296 O   0  0  0  0  0  0  0  0  0  0  0  0
   20.8698  -10.1886  -15.0720 N   0  0  0  0  0  0  0  0  0  0  0  0
   21.1110   -9.7923  -13.7145 C   0  0  0  0  0  0  0  0  0  0  0  0
   21.0329   -8.3498  -13.4709 C   0  0  0  0  0  0  0  0  0  0  0  0
   20.7271   -7.9010  -12.3070 O   0  0  0  0  0  0  0  0  0  0  0  0
   24.5985   -3.8650  -15.4661 N   0  0  0  0  0  0  0  0  0  0  0  0
   23.8203   -4.5251  -16.4722 C   0  0  0  0  0  0  0  0  0  0  0  0
   24.1519   -4.4724  -17.6773 O   0  0  0  0  0  0  0  0  0  0  0  0
   22.6131   -5.2691  -16.0371 C   0  0  0  0  0  0  0  0  0  0  0  0
   22.3554   -5.2258  -14.5763 C   0  0  0  0  0  0  0  0  0  0  0  0
   21.0981   -5.9004  -14.1124 C   0  0  2  0  0  0  0  0  0  0  0  0
   21.2690   -7.3247  -14.4248 N   0  0  0  0  0  0  0  0  0  0  0  0
   19.8872   -5.3994  -14.7819 C   0  0  0  0  0  0  0  0  0  0  0  0
   19.5081   -4.2306  -14.5900 O   0  0  0  0  0  0  0  0  0  0  0  0
   19.1686   -6.2150  -15.6207 O   0  0  0  0  0  0  0  0  0  0  0  0
  2  3  1  0
  2  1  1  6
  4  3  1  0
  5  6  2  0
  5  2  1  0
  7  5  1  0
  8  9  1  0
  8  7  1  0
  9 10  2  0
 11 12  1  0
 12 14  1  0
 12 13  2  0
 14 15  1  0
 16 15  1  6
 17 16  1  0
 17  9  1  0
 18 20  1  0
 18 16  1  0
 19 18  2  0
M  END
$$$$
