CGQ.pdb
     RDKit          3D

 20 19  0  0  1  0  0  0  0  0999 V2000
   26.9845  -24.7987  -17.7596 N   0  0  0  0  0  0  0  0  0  0  0  0
   27.8350  -23.7193  -18.1894 C   0  0  1  0  0  0  0  0  0  0  0  0
   27.4678  -23.3506  -19.6310 C   0  0  0  0  0  0  0  0  0  0  0  0
   28.2179  -24.4753  -20.8080 S   0  0  0  0  0  0  0  0  0  0  0  0
   27.6629  -22.5580  -17.2785 C   0  0  0  0  0  0  0  0  0  0  0  0
   28.2826  -21.4734  -17.5050 O   0  0  0  0  0  0  0  0  0  0  0  0
   26.7948  -22.6568  -16.1374 N   0  0  0  0  0  0  0  0  0  0  0  0
   26.4598  -21.4352  -15.4638 C   0  0  0  0  0  0  0  0  0  0  0  0
   25.5790  -21.5930  -14.3039 C   0  0  0  0  0  0  0  0  0  0  0  0
   24.4348  -22.1632  -14.4272 O   0  0  0  0  0  0  0  0  0  0  0  0
   26.5946  -19.4053   -8.4652 N   0  0  0  0  0  0  0  0  0  0  0  0
   25.4593  -20.2455   -8.2227 C   0  0  0  0  0  0  0  0  0  0  0  0
   25.0390  -20.4365   -7.0600 O   0  0  0  0  0  0  0  0  0  0  0  0
   24.8034  -20.8787   -9.3927 C   0  0  0  0  0  0  0  0  0  0  0  0
   25.5662  -20.7694  -10.6610 C   0  0  0  0  0  0  0  0  0  0  0  0
   24.8902  -21.3205  -11.8818 C   0  0  2  0  0  0  0  0  0  0  0  0
   25.8543  -21.1653  -12.9781 N   0  0  0  0  0  0  0  0  0  0  0  0
   23.6459  -20.6147  -12.2272 C   0  0  0  0  0  0  0  0  0  0  0  0
   23.6913  -19.5516  -12.8710 O   0  0  0  0  0  0  0  0  0  0  0  0
   22.4292  -21.1220  -11.8430 O   0  0  0  0  0  0  0  0  0  0  0  0
  2  3  1  0
  2  1  1  1
  4  3  1  0
  5  6  2  0
  5  2  1  0
  7  5  1  0
  8  9  1  0
  8  7  1  0
  9 10  2  0
 11 12  1  0
 12 14  1  0
 12 13  2  0
 14 15  1  0
 16 15  1  1
 17 16  1  0
 17  9  1  0
 18 20  1  0
 18 16  1  0
 19 18  2  0
M  END
$$$$
