CGQ.pdb
     RDKit          3D

 20 19  0  0  1  0  0  0  0  0999 V2000
   21.6265  -14.1992  -15.8632 N   0  0  0  0  0  0  0  0  0  0  0  0
   22.9123  -13.6139  -16.1414 C   0  0  1  0  0  0  0  0  0  0  0  0
   22.8363  -12.8809  -17.4854 C   0  0  0  0  0  0  0  0  0  0  0  0
   21.4478  -13.4496  -18.4660 S   0  0  0  0  0  0  0  0  0  0  0  0
   23.2831  -12.6836  -15.0436 C   0  0  0  0  0  0  0  0  0  0  0  0
   24.4199  -12.1187  -15.0440 O   0  0  0  0  0  0  0  0  0  0  0  0
   22.3573  -12.4192  -13.9766 N   0  0  0  0  0  0  0  0  0  0  0  0
   22.7279  -11.4118  -13.0248 C   0  0  0  0  0  0  0  0  0  0  0  0
   22.4186  -10.0383  -13.4297 C   0  0  0  0  0  0  0  0  0  0  0  0
   22.4618   -9.0813  -12.5742 O   0  0  0  0  0  0  0  0  0  0  0  0
   23.4493   -7.5400  -18.9353 N   0  0  0  0  0  0  0  0  0  0  0  0
   22.7835   -6.4247  -18.3300 C   0  0  0  0  0  0  0  0  0  0  0  0
   22.7404   -5.3142  -18.9043 O   0  0  0  0  0  0  0  0  0  0  0  0
   22.1507   -6.6316  -17.0046 C   0  0  0  0  0  0  0  0  0  0  0  0
   22.3655   -7.9798  -16.4227 C   0  0  0  0  0  0  0  0  0  0  0  0
   21.7845   -8.2045  -15.0577 C   0  0  2  0  0  0  0  0  0  0  0  0
   22.0544   -9.6108  -14.7339 N   0  0  0  0  0  0  0  0  0  0  0  0
   20.3343   -7.9625  -14.9948 C   0  0  0  0  0  0  0  0  0  0  0  0
   19.9031   -6.8137  -14.7925 O   0  0  0  0  0  0  0  0  0  0  0  0
   19.4488   -8.9990  -15.1584 O   0  0  0  0  0  0  0  0  0  0  0  0
  2  3  1  0
  2  1  1  1
  4  3  1  0
  5  6  2  0
  5  2  1  0
  7  5  1  0
  8  9  1  0
  8  7  1  0
  9 10  2  0
 11 12  1  0
 12 14  1  0
 12 13  2  0
 14 15  1  0
 16 15  1  6
 17 16  1  0
 17  9  1  0
 18 20  1  0
 18 16  1  0
 19 18  2  0
M  END
$$$$
