CGQ.pdb
     RDKit          3D

 20 19  0  0  1  0  0  0  0  0999 V2000
   22.8858  -12.1842  -17.2257 N   0  0  0  0  0  0  0  0  0  0  0  0
   22.1138  -11.7006  -18.3408 C   0  0  1  0  0  0  0  0  0  0  0  0
   20.6253  -11.8361  -18.0015 C   0  0  0  0  0  0  0  0  0  0  0  0
   20.2586  -13.4365  -17.2825 S   0  0  0  0  0  0  0  0  0  0  0  0
   22.4739  -10.2858  -18.6182 C   0  0  0  0  0  0  0  0  0  0  0  0
   21.9341   -9.6696  -19.5880 O   0  0  0  0  0  0  0  0  0  0  0  0
   23.4342   -9.6088  -17.7907 N   0  0  0  0  0  0  0  0  0  0  0  0
   23.6109   -8.2024  -18.0121 C   0  0  0  0  0  0  0  0  0  0  0  0
   22.6400   -7.3444  -17.3285 C   0  0  0  0  0  0  0  0  0  0  0  0
   21.7032   -6.7653  -17.9892 O   0  0  0  0  0  0  0  0  0  0  0  0
   19.2017   -9.1573  -13.1241 N   0  0  0  0  0  0  0  0  0  0  0  0
   18.8834   -7.7775  -12.9044 C   0  0  0  0  0  0  0  0  0  0  0  0
   18.0035   -7.4453  -12.0795 O   0  0  0  0  0  0  0  0  0  0  0  0
   19.6296   -6.7614  -13.6859 C   0  0  0  0  0  0  0  0  0  0  0  0
   20.7239   -7.3103  -14.5247 C   0  0  0  0  0  0  0  0  0  0  0  0
   21.5131   -6.3059  -15.3118 C   0  0  2  0  0  0  0  0  0  0  0  0
   22.6074   -7.0580  -15.9380 N   0  0  0  0  0  0  0  0  0  0  0  0
   22.0775   -5.2293  -14.4824 C   0  0  0  0  0  0  0  0  0  0  0  0
   23.2858   -5.2383  -14.1885 O   0  0  0  0  0  0  0  0  0  0  0  0
   21.2777   -4.2099  -14.0280 O   0  0  0  0  0  0  0  0  0  0  0  0
  2  3  1  0
  2  1  1  1
  4  3  1  0
  5  6  2  0
  5  2  1  0
  7  5  1  0
  8  9  1  0
  8  7  1  0
  9 10  2  0
 11 12  1  0
 12 14  1  0
 12 13  2  0
 14 15  1  0
 16 15  1  1
 17 16  1  0
 17  9  1  0
 18 20  1  0
 18 16  1  0
 19 18  2  0
M  END
$$$$
