LVK.pdb
     RDKit          3D

 25 24  0  0  1  0  0  0  0  0999 V2000
    5.9170  -19.1805   21.1369 C   0  0  0  0  0  0  0  0  0  0  0  0
    6.0161  -17.6731   20.9691 C   0  0  1  0  0  0  0  0  0  0  0  0
    4.6662  -17.0288   20.8495 C   0  0  0  0  0  0  0  0  0  0  0  0
    6.8798  -17.0466   22.0189 C   0  0  0  0  0  0  0  0  0  0  0  0
    6.9243  -15.5377   21.9073 C   0  0  2  0  0  0  0  0  0  0  0  0
    7.4300  -15.1086   20.6227 N   0  0  0  0  0  0  0  0  0  0  0  0
    7.7677  -14.9387   22.9663 C   0  0  0  0  0  0  0  0  0  0  0  0
    9.0432  -15.0115   22.9271 O   0  0  0  0  0  0  0  0  0  0  0  0
    8.0271  -12.1119   27.0453 C   0  0  0  0  0  0  0  0  0  0  0  0
    7.2909  -12.6810   25.8789 C   0  0  2  0  0  0  0  0  0  0  0  0
    5.9747  -13.3259   26.3222 C   0  0  0  0  0  0  0  0  0  0  0  0
    8.0699  -13.7768   25.1648 C   0  0  2  0  0  0  0  0  0  0  0  0
    7.2225  -14.2492   24.0867 N   0  0  0  0  0  0  0  0  0  0  0  0
    8.4393  -14.8704   26.0900 C   0  0  0  0  0  0  0  0  0  0  0  0
    7.5571  -15.7036   26.4141 O   0  0  0  0  0  0  0  0  0  0  0  0
    9.7615  -14.9596   26.5881 N   0  0  0  0  0  0  0  0  0  0  0  0
   10.2631  -16.1898   27.2241 C   0  0  1  0  0  0  0  0  0  0  0  0
   11.3932  -16.7727   26.4778 C   0  0  0  0  0  0  0  0  0  0  0  0
   12.0763  -17.9602   27.0200 C   0  0  0  0  0  0  0  0  0  0  0  0
   13.2415  -18.4842   26.2262 C   0  0  0  0  0  0  0  0  0  0  0  0
   13.8454  -19.7212   26.8601 C   0  0  0  0  0  0  0  0  0  0  0  0
   14.9965  -20.1240   26.0861 N   0  0  0  0  0  0  0  0  0  0  0  0
   10.3824  -15.9514   28.6468 C   0  0  0  0  0  0  0  0  0  0  0  0
   10.3816  -14.6493   29.1225 O   0  0  0  0  0  0  0  0  0  0  0  0
   10.4938  -16.8422   29.5340 O   0  0  0  0  0  0  0  0  0  0  0  0
  2  1  1  1
  2  3  1  0
  4  2  1  0
  5  6  1  6
  5  4  1  0
  7  5  1  0
  8  7  2  0
 10  9  1  1
 10 11  1  0
 12 13  1  6
 12 10  1  0
 13  7  1  0
 14 12  1  0
 15 14  2  0
 16 14  1  0
 17 18  1  6
 17 16  1  0
 19 18  1  0
 20 21  1  0
 20 19  1  0
 22 21  1  0
 23 24  1  0
 23 17  1  0
 25 23  2  0
M  END
$$$$
