LVK.pdb
     RDKit          3D

 25 24  0  0  1  0  0  0  0  0999 V2000
    7.5574  -12.6374   27.9482 C   0  0  0  0  0  0  0  0  0  0  0  0
    6.6090  -13.3102   26.9692 C   0  0  1  0  0  0  0  0  0  0  0  0
    6.3235  -12.4462   25.7761 C   0  0  0  0  0  0  0  0  0  0  0  0
    7.0624  -14.6897   26.6059 C   0  0  0  0  0  0  0  0  0  0  0  0
    6.2828  -15.2682   25.4445 C   0  0  2  0  0  0  0  0  0  0  0  0
    5.4933  -16.4117   25.8438 N   0  0  0  0  0  0  0  0  0  0  0  0
    7.1782  -15.6802   24.3399 C   0  0  0  0  0  0  0  0  0  0  0  0
    7.9497  -16.6937   24.4464 O   0  0  0  0  0  0  0  0  0  0  0  0
    8.2514  -13.0313   21.2091 C   0  0  0  0  0  0  0  0  0  0  0  0
    7.9239  -14.4495   20.8804 C   0  0  2  0  0  0  0  0  0  0  0  0
    6.4466  -14.5990   20.5061 C   0  0  0  0  0  0  0  0  0  0  0  0
    8.1534  -15.3963   22.0501 C   0  0  2  0  0  0  0  0  0  0  0  0
    7.2403  -14.9843   23.0990 N   0  0  0  0  0  0  0  0  0  0  0  0
    9.5605  -15.3645   22.5056 C   0  0  0  0  0  0  0  0  0  0  0  0
    9.9173  -14.4440   23.2822 O   0  0  0  0  0  0  0  0  0  0  0  0
   10.4692  -16.3569   22.0658 N   0  0  0  0  0  0  0  0  0  0  0  0
   11.7122  -16.6431   22.8024 C   0  0  1  0  0  0  0  0  0  0  0  0
   11.5449  -17.7604   23.7496 C   0  0  0  0  0  0  0  0  0  0  0  0
   12.7054  -18.2178   24.5337 C   0  0  0  0  0  0  0  0  0  0  0  0
   12.4509  -19.3158   25.5297 C   0  0  0  0  0  0  0  0  0  0  0  0
   13.7261  -19.7609   26.2169 C   0  0  0  0  0  0  0  0  0  0  0  0
   13.3988  -20.7794   27.1874 N   0  0  0  0  0  0  0  0  0  0  0  0
   12.8093  -16.6539   21.8581 C   0  0  0  0  0  0  0  0  0  0  0  0
   12.5870  -17.0849   20.5594 O   0  0  0  0  0  0  0  0  0  0  0  0
   13.9951  -16.2996   22.1058 O   0  0  0  0  0  0  0  0  0  0  0  0
  2  1  1  6
  2  3  1  0
  4  2  1  0
  5  6  1  1
  5  4  1  0
  7  5  1  0
  8  7  2  0
 10  9  1  1
 10 11  1  0
 12 13  1  1
 12 10  1  0
 13  7  1  0
 14 12  1  0
 15 14  2  0
 16 14  1  0
 17 18  1  6
 17 16  1  0
 19 18  1  0
 20 21  1  0
 20 19  1  0
 22 21  1  0
 23 24  1  0
 23 17  1  0
 25 23  2  0
M  END
$$$$
