LVK.pdb
     RDKit          3D

 25 24  0  0  1  0  0  0  0  0999 V2000
    7.6786  -12.7817   28.1956 C   0  0  0  0  0  0  0  0  0  0  0  0
    6.7001  -13.4415   27.2377 C   0  0  1  0  0  0  0  0  0  0  0  0
    5.8185  -12.4390   26.5526 C   0  0  0  0  0  0  0  0  0  0  0  0
    7.3857  -14.3732   26.2878 C   0  0  0  0  0  0  0  0  0  0  0  0
    6.4503  -14.9075   25.2244 C   0  0  2  0  0  0  0  0  0  0  0  0
    5.5733  -15.9319   25.7457 N   0  0  0  0  0  0  0  0  0  0  0  0
    7.1966  -15.4700   24.0763 C   0  0  0  0  0  0  0  0  0  0  0  0
    7.5792  -16.6894   24.0595 O   0  0  0  0  0  0  0  0  0  0  0  0
    8.8842  -13.0073   21.0175 C   0  0  0  0  0  0  0  0  0  0  0  0
    8.1706  -14.2712   20.6712 C   0  0  2  0  0  0  0  0  0  0  0  0
    6.6866  -14.0072   20.4009 C   0  0  0  0  0  0  0  0  0  0  0  0
    8.2114  -15.3001   21.7924 C   0  0  2  0  0  0  0  0  0  0  0  0
    7.5349  -14.7006   22.9266 N   0  0  0  0  0  0  0  0  0  0  0  0
    9.6005  -15.6854   22.1246 C   0  0  0  0  0  0  0  0  0  0  0  0
   10.2981  -14.8869   22.7980 O   0  0  0  0  0  0  0  0  0  0  0  0
   10.1142  -16.9292   21.6850 N   0  0  0  0  0  0  0  0  0  0  0  0
   11.5131  -17.3161   21.9357 C   0  0  1  0  0  0  0  0  0  0  0  0
   11.6168  -18.6851   22.4730 C   0  0  0  0  0  0  0  0  0  0  0  0
   11.0210  -18.9888   23.7859 C   0  0  0  0  0  0  0  0  0  0  0  0
   10.9200  -20.4432   24.1560 C   0  0  0  0  0  0  0  0  0  0  0  0
   10.3516  -20.6330   25.5480 C   0  0  0  0  0  0  0  0  0  0  0  0
   10.1775  -22.0464   25.7891 N   0  0  0  0  0  0  0  0  0  0  0  0
   12.3058  -16.9278   20.7885 C   0  0  0  0  0  0  0  0  0  0  0  0
   13.6783  -16.7874   20.9238 O   0  0  0  0  0  0  0  0  0  0  0  0
   11.8581  -16.6922   19.6321 O   0  0  0  0  0  0  0  0  0  0  0  0
  2  1  1  6
  2  3  1  0
  4  2  1  0
  5  6  1  1
  5  4  1  0
  7  5  1  0
  8  7  2  0
 10  9  1  1
 10 11  1  0
 12 13  1  1
 12 10  1  0
 13  7  1  0
 14 12  1  0
 15 14  2  0
 16 14  1  0
 17 18  1  6
 17 16  1  0
 19 18  1  0
 20 21  1  0
 20 19  1  0
 22 21  1  0
 23 24  1  0
 23 17  1  0
 25 23  2  0
M  END
$$$$
