LVK.pdb
     RDKit          3D

 25 24  0  0  1  0  0  0  0  0999 V2000
    7.2546  -12.1093   27.9136 C   0  0  0  0  0  0  0  0  0  0  0  0
    6.3948  -13.1023   27.1487 C   0  0  1  0  0  0  0  0  0  0  0  0
    5.6208  -12.4448   26.0441 C   0  0  0  0  0  0  0  0  0  0  0  0
    7.1807  -14.2921   26.6935 C   0  0  0  0  0  0  0  0  0  0  0  0
    6.4428  -15.1111   25.6563 C   0  0  2  0  0  0  0  0  0  0  0  0
    5.7196  -16.2107   26.2549 N   0  0  0  0  0  0  0  0  0  0  0  0
    7.3668  -15.6581   24.6371 C   0  0  0  0  0  0  0  0  0  0  0  0
    7.9608  -16.7774   24.8043 O   0  0  0  0  0  0  0  0  0  0  0  0
    7.1325  -14.3659   20.7580 C   0  0  0  0  0  0  0  0  0  0  0  0
    8.5240  -14.6313   21.2269 C   0  0  2  0  0  0  0  0  0  0  0  0
    9.3427  -15.3385   20.1432 C   0  0  0  0  0  0  0  0  0  0  0  0
    8.5743  -15.5423   22.4455 C   0  0  2  0  0  0  0  0  0  0  0  0
    7.6532  -14.9831   23.4163 N   0  0  0  0  0  0  0  0  0  0  0  0
    9.9463  -15.6457   22.9890 C   0  0  0  0  0  0  0  0  0  0  0  0
   10.5006  -14.6029   23.4166 O   0  0  0  0  0  0  0  0  0  0  0  0
   10.6031  -16.8995   23.0182 N   0  0  0  0  0  0  0  0  0  0  0  0
   11.9722  -17.0390   23.5433 C   0  0  1  0  0  0  0  0  0  0  0  0
   12.1809  -18.3460   24.1929 C   0  0  0  0  0  0  0  0  0  0  0  0
   11.4786  -18.6421   25.4538 C   0  0  0  0  0  0  0  0  0  0  0  0
   11.6770  -20.0198   26.0241 C   0  0  0  0  0  0  0  0  0  0  0  0
   10.9441  -20.1971   27.3387 C   0  0  0  0  0  0  0  0  0  0  0  0
   11.2539  -21.5042   27.8697 N   0  0  0  0  0  0  0  0  0  0  0  0
   12.8980  -16.5792   22.5301 C   0  0  0  0  0  0  0  0  0  0  0  0
   12.6510  -16.8712   21.1976 O   0  0  0  0  0  0  0  0  0  0  0  0
   13.9501  -15.9154   22.7434 O   0  0  0  0  0  0  0  0  0  0  0  0
  2  1  1  6
  2  3  1  0
  4  2  1  0
  5  6  1  1
  5  4  1  0
  7  5  1  0
  8  7  2  0
 10  9  1  6
 10 11  1  0
 12 13  1  1
 12 10  1  0
 13  7  1  0
 14 12  1  0
 15 14  2  0
 16 14  1  0
 17 18  1  6
 17 16  1  0
 19 18  1  0
 20 21  1  0
 20 19  1  0
 22 21  1  0
 23 24  1  0
 23 17  1  0
 25 23  2  0
M  END
$$$$
