CFN.pdb
     RDKit          3D

 26 26  0  0  1  0  0  0  0  0999 V2000
    8.3266  -14.6819   19.7248 N   0  0  0  0  0  0  0  0  0  0  0  0
    7.6896  -15.3846   20.7998 C   0  0  1  0  0  0  0  0  0  0  0  0
    7.5414  -16.8420   20.4924 C   0  0  0  0  0  0  0  0  0  0  0  0
    9.2198  -17.5789   20.5757 S   0  0  0  0  0  0  0  0  0  0  0  0
    8.3238  -15.1085   22.1053 C   0  0  0  0  0  0  0  0  0  0  0  0
    9.4198  -14.4871   22.0976 O   0  0  0  0  0  0  0  0  0  0  0  0
    7.7925  -15.4885   23.3486 N   0  0  0  0  0  0  0  0  0  0  0  0
    8.4610  -15.2286   24.5973 C   0  0  1  0  0  0  0  0  0  0  0  0
    7.4743  -15.0292   25.7325 C   0  0  0  0  0  0  0  0  0  0  0  0
    7.1276  -13.6190   25.9444 C   0  0  0  0  0  0  0  0  0  0  0  0
    8.0542  -12.6327   25.6028 C   0  0  0  0  0  0  0  0  0  0  0  0
    7.7686  -11.2955   25.7848 C   0  0  0  0  0  0  0  0  0  0  0  0
    6.5633  -10.8777   26.3086 C   0  0  0  0  0  0  0  0  0  0  0  0
    5.6407  -11.8352   26.6499 C   0  0  0  0  0  0  0  0  0  0  0  0
    5.9326  -13.1865   26.4647 C   0  0  0  0  0  0  0  0  0  0  0  0
    9.5114  -16.2201   24.9151 C   0  0  0  0  0  0  0  0  0  0  0  0
   10.0638  -16.1887   26.0657 O   0  0  0  0  0  0  0  0  0  0  0  0
    8.7633  -20.3901   22.6248 N   0  0  0  0  0  0  0  0  0  0  0  0
    9.7547  -20.1565   23.6253 C   0  0  0  0  0  0  0  0  0  0  0  0
    9.5741  -20.6974   24.7310 O   0  0  0  0  0  0  0  0  0  0  0  0
   10.9080  -19.3167   23.3211 C   0  0  0  0  0  0  0  0  0  0  0  0
   11.0073  -18.1820   24.3501 C   0  0  2  0  0  0  0  0  0  0  0  0
    9.9336  -17.2042   24.0069 N   0  0  0  0  0  0  0  0  0  0  0  0
   12.2692  -17.4746   24.0885 C   0  0  0  0  0  0  0  0  0  0  0  0
   12.3139  -16.4193   23.4346 O   0  0  0  0  0  0  0  0  0  0  0  0
   13.4599  -17.9774   24.5753 O   0  0  0  0  0  0  0  0  0  0  0  0
  2  5  1  0
  2  1  1  6
  3  2  1  0
  4  3  1  0
  5  6  2  0
  7  8  1  0
  7  5  1  0
  8  9  1  1
  9 10  1  0
 10 15  2  0
 11 12  2  0
 11 10  1  0
 12 13  1  0
 13 14  2  0
 15 14  1  0
 16  8  1  0
 17 16  2  0
 18 19  1  0
 19 20  2  0
 21 19  1  0
 22 21  1  6
 22 23  1  0
 23 16  1  0
 24 26  1  0
 24 22  1  0
 25 24  2  0
M  END
$$$$
