CFN.pdb
     RDKit          3D

 26 26  0  0  1  0  0  0  0  0999 V2000
    8.9859  -16.2644   19.3149 N   0  0  0  0  0  0  0  0  0  0  0  0
    8.1896  -16.5402   20.4748 C   0  0  1  0  0  0  0  0  0  0  0  0
    7.7911  -17.9815   20.5380 C   0  0  0  0  0  0  0  0  0  0  0  0
    6.4404  -18.1086   21.7735 S   0  0  0  0  0  0  0  0  0  0  0  0
    8.8112  -16.0348   21.7160 C   0  0  0  0  0  0  0  0  0  0  0  0
   10.0632  -16.1327   21.8192 O   0  0  0  0  0  0  0  0  0  0  0  0
    8.1073  -15.4553   22.7842 N   0  0  0  0  0  0  0  0  0  0  0  0
    8.6680  -15.3080   24.1024 C   0  0  1  0  0  0  0  0  0  0  0  0
    7.7716  -14.4820   25.0058 C   0  0  0  0  0  0  0  0  0  0  0  0
    8.3881  -14.1876   26.3046 C   0  0  0  0  0  0  0  0  0  0  0  0
    7.9791  -14.9060   27.4293 C   0  0  0  0  0  0  0  0  0  0  0  0
    8.5330  -14.6618   28.6688 C   0  0  0  0  0  0  0  0  0  0  0  0
    9.5082  -13.7038   28.8496 C   0  0  0  0  0  0  0  0  0  0  0  0
    9.9219  -12.9882   27.7535 C   0  0  0  0  0  0  0  0  0  0  0  0
    9.3598  -13.2375   26.5016 C   0  0  0  0  0  0  0  0  0  0  0  0
    9.0723  -16.5934   24.7121 C   0  0  0  0  0  0  0  0  0  0  0  0
    8.5406  -17.6737   24.2876 O   0  0  0  0  0  0  0  0  0  0  0  0
   12.8615  -20.0902   24.1627 N   0  0  0  0  0  0  0  0  0  0  0  0
   12.8872  -18.9439   25.0134 C   0  0  0  0  0  0  0  0  0  0  0  0
   13.7544  -18.9264   25.9053 O   0  0  0  0  0  0  0  0  0  0  0  0
   11.9231  -17.8682   24.8098 C   0  0  0  0  0  0  0  0  0  0  0  0
   10.8685  -17.9009   25.9247 C   0  0  2  0  0  0  0  0  0  0  0  0
   10.0220  -16.6856   25.7423 N   0  0  0  0  0  0  0  0  0  0  0  0
   11.5790  -17.6874   27.1939 C   0  0  0  0  0  0  0  0  0  0  0  0
   12.3455  -18.5382   27.6753 O   0  0  0  0  0  0  0  0  0  0  0  0
   11.4076  -16.5099   27.8950 O   0  0  0  0  0  0  0  0  0  0  0  0
  2  5  1  0
  2  1  1  6
  3  2  1  0
  4  3  1  0
  5  6  2  0
  7  8  1  0
  7  5  1  0
  8  9  1  1
  9 10  1  0
 10 15  2  0
 11 12  2  0
 11 10  1  0
 12 13  1  0
 13 14  2  0
 15 14  1  0
 16  8  1  0
 17 16  2  0
 18 19  1  0
 19 20  2  0
 21 19  1  0
 22 21  1  6
 22 23  1  0
 23 16  1  0
 24 26  1  0
 24 22  1  0
 25 24  2  0
M  END
$$$$
