CFN.pdb
     RDKit          3D

 26 26  0  0  1  0  0  0  0  0999 V2000
   10.8312  -17.2992   20.3102 N   0  0  0  0  0  0  0  0  0  0  0  0
    9.4959  -17.1927   20.8211 C   0  0  1  0  0  0  0  0  0  0  0  0
    8.8612  -18.5383   20.9853 C   0  0  0  0  0  0  0  0  0  0  0  0
    9.2548  -19.1110   22.6835 S   0  0  0  0  0  0  0  0  0  0  0  0
    9.4221  -16.3436   22.0278 C   0  0  0  0  0  0  0  0  0  0  0  0
   10.4928  -16.1405   22.6603 O   0  0  0  0  0  0  0  0  0  0  0  0
    8.2473  -15.7495   22.5168 N   0  0  0  0  0  0  0  0  0  0  0  0
    8.2344  -14.8539   23.6444 C   0  0  1  0  0  0  0  0  0  0  0  0
    6.9850  -13.9933   23.6648 C   0  0  0  0  0  0  0  0  0  0  0  0
    6.9686  -13.0396   24.7801 C   0  0  0  0  0  0  0  0  0  0  0  0
    6.0295  -13.2025   25.7996 C   0  0  0  0  0  0  0  0  0  0  0  0
    5.9799  -12.3295   26.8665 C   0  0  0  0  0  0  0  0  0  0  0  0
    6.8502  -11.2650   26.9715 C   0  0  0  0  0  0  0  0  0  0  0  0
    7.7803  -11.0905   25.9770 C   0  0  0  0  0  0  0  0  0  0  0  0
    7.8277  -11.9750   24.8996 C   0  0  0  0  0  0  0  0  0  0  0  0
    8.4862  -15.5339   24.9334 C   0  0  0  0  0  0  0  0  0  0  0  0
    8.8220  -14.8336   25.9468 O   0  0  0  0  0  0  0  0  0  0  0  0
    6.8680  -19.8916   28.3608 N   0  0  0  0  0  0  0  0  0  0  0  0
    8.0036  -19.7326   27.5101 C   0  0  0  0  0  0  0  0  0  0  0  0
    9.0694  -20.2458   27.8955 O   0  0  0  0  0  0  0  0  0  0  0  0
    7.8740  -18.9956   26.2579 C   0  0  0  0  0  0  0  0  0  0  0  0
    8.3686  -17.5555   26.4518 C   0  0  2  0  0  0  0  0  0  0  0  0
    8.3711  -16.9233   25.1000 N   0  0  0  0  0  0  0  0  0  0  0  0
    9.7841  -17.6365   26.8407 C   0  0  0  0  0  0  0  0  0  0  0  0
   10.1410  -17.7229   28.0275 O   0  0  0  0  0  0  0  0  0  0  0  0
   10.7708  -17.6190   25.8746 O   0  0  0  0  0  0  0  0  0  0  0  0
  2  5  1  0
  2  1  1  1
  3  2  1  0
  4  3  1  0
  5  6  2  0
  7  8  1  0
  7  5  1  0
  8  9  1  1
  9 10  1  0
 10 15  2  0
 11 12  2  0
 11 10  1  0
 12 13  1  0
 13 14  2  0
 15 14  1  0
 16  8  1  0
 17 16  2  0
 18 19  1  0
 19 20  2  0
 21 19  1  0
 22 21  1  6
 22 23  1  0
 23 16  1  0
 24 26  1  0
 24 22  1  0
 25 24  2  0
M  END
$$$$
