CFN.pdb
     RDKit          3D

 26 26  0  0  1  0  0  0  0  0999 V2000
    4.6111  -21.4232   22.9684 N   0  0  0  0  0  0  0  0  0  0  0  0
    5.1921  -20.4113   23.8014 C   0  0  1  0  0  0  0  0  0  0  0  0
    6.0201  -21.0087   24.8958 C   0  0  0  0  0  0  0  0  0  0  0  0
    7.3253  -22.0152   24.0894 S   0  0  0  0  0  0  0  0  0  0  0  0
    5.8925  -19.3728   23.0181 C   0  0  0  0  0  0  0  0  0  0  0  0
    6.2831  -19.6838   21.8613 O   0  0  0  0  0  0  0  0  0  0  0  0
    6.1519  -18.0689   23.4708 N   0  0  0  0  0  0  0  0  0  0  0  0
    6.9324  -17.1206   22.7190 C   0  0  1  0  0  0  0  0  0  0  0  0
    6.7779  -15.7112   23.2592 C   0  0  0  0  0  0  0  0  0  0  0  0
    7.1987  -14.6842   22.2991 C   0  0  0  0  0  0  0  0  0  0  0  0
    8.0683  -13.6766   22.7195 C   0  0  0  0  0  0  0  0  0  0  0  0
    8.4893  -12.6923   21.8496 C   0  0  0  0  0  0  0  0  0  0  0  0
    8.0723  -12.6611   20.5356 C   0  0  0  0  0  0  0  0  0  0  0  0
    7.2168  -13.6451   20.1058 C   0  0  0  0  0  0  0  0  0  0  0  0
    6.7929  -14.6388   20.9880 C   0  0  0  0  0  0  0  0  0  0  0  0
    8.3463  -17.5240   22.5589 C   0  0  0  0  0  0  0  0  0  0  0  0
    8.6230  -18.5293   21.8221 O   0  0  0  0  0  0  0  0  0  0  0  0
   13.3989  -17.6156   22.1970 N   0  0  0  0  0  0  0  0  0  0  0  0
   12.7382  -16.5299   21.5465 C   0  0  0  0  0  0  0  0  0  0  0  0
   13.3828  -15.9242   20.6716 O   0  0  0  0  0  0  0  0  0  0  0  0
   11.3720  -16.1828   21.9220 C   0  0  0  0  0  0  0  0  0  0  0  0
   10.8321  -17.2152   22.9214 C   0  0  2  0  0  0  0  0  0  0  0  0
    9.4089  -16.8490   23.1808 N   0  0  0  0  0  0  0  0  0  0  0  0
   11.5271  -16.9831   24.1959 C   0  0  0  0  0  0  0  0  0  0  0  0
   12.6665  -17.4250   24.4192 O   0  0  0  0  0  0  0  0  0  0  0  0
   10.9164  -16.2516   25.1956 O   0  0  0  0  0  0  0  0  0  0  0  0
  2  5  1  0
  2  1  1  6
  3  2  1  0
  4  3  1  0
  5  6  2  0
  7  8  1  0
  7  5  1  0
  8  9  1  1
  9 10  1  0
 10 15  2  0
 11 12  2  0
 11 10  1  0
 12 13  1  0
 13 14  2  0
 15 14  1  0
 16  8  1  0
 17 16  2  0
 18 19  1  0
 19 20  2  0
 21 19  1  0
 22 21  1  6
 22 23  1  0
 23 16  1  0
 24 26  1  0
 24 22  1  0
 25 24  2  0
M  END
$$$$
