CFN.pdb
     RDKit          3D

 26 26  0  0  1  0  0  0  0  0999 V2000
   10.7259  -16.8272   19.3844 N   0  0  0  0  0  0  0  0  0  0  0  0
    9.5371  -16.9461   20.1768 C   0  0  1  0  0  0  0  0  0  0  0  0
    9.2583  -18.3713   20.5393 C   0  0  0  0  0  0  0  0  0  0  0  0
   10.6130  -19.3797   19.8218 S   0  0  0  0  0  0  0  0  0  0  0  0
    9.5359  -16.0227   21.3300 C   0  0  0  0  0  0  0  0  0  0  0  0
   10.6539  -15.6785   21.7984 O   0  0  0  0  0  0  0  0  0  0  0  0
    8.3810  -15.5038   21.9377 N   0  0  0  0  0  0  0  0  0  0  0  0
    8.4032  -14.8226   23.2062 C   0  0  1  0  0  0  0  0  0  0  0  0
    7.0997  -14.0949   23.4767 C   0  0  0  0  0  0  0  0  0  0  0  0
    7.0968  -13.3916   24.7647 C   0  0  0  0  0  0  0  0  0  0  0  0
    7.8855  -12.2503   24.9174 C   0  0  0  0  0  0  0  0  0  0  0  0
    7.9117  -11.5587   26.1106 C   0  0  0  0  0  0  0  0  0  0  0  0
    7.1647  -11.9621   27.1973 C   0  0  0  0  0  0  0  0  0  0  0  0
    6.3833  -13.0829   27.0639 C   0  0  0  0  0  0  0  0  0  0  0  0
    6.3592  -13.7800   25.8560 C   0  0  0  0  0  0  0  0  0  0  0  0
    8.8215  -15.6906   24.3282 C   0  0  0  0  0  0  0  0  0  0  0  0
    8.3415  -16.8709   24.4093 O   0  0  0  0  0  0  0  0  0  0  0  0
   10.2061  -17.6806   28.8689 N   0  0  0  0  0  0  0  0  0  0  0  0
    9.4475  -18.0963   27.7330 C   0  0  0  0  0  0  0  0  0  0  0  0
    9.1779  -19.3081   27.6515 O   0  0  0  0  0  0  0  0  0  0  0  0
    9.0299  -17.1123   26.7404 C   0  0  0  0  0  0  0  0  0  0  0  0
   10.2170  -16.2105   26.3748 C   0  0  2  0  0  0  0  0  0  0  0  0
    9.7300  -15.2782   25.3162 N   0  0  0  0  0  0  0  0  0  0  0  0
   11.2134  -17.0617   25.7085 C   0  0  0  0  0  0  0  0  0  0  0  0
   11.3660  -17.0622   24.4757 O   0  0  0  0  0  0  0  0  0  0  0  0
   12.0211  -17.8978   26.4543 O   0  0  0  0  0  0  0  0  0  0  0  0
  2  5  1  0
  2  1  1  1
  3  2  1  0
  4  3  1  0
  5  6  2  0
  7  8  1  0
  7  5  1  0
  8  9  1  1
  9 10  1  0
 10 15  2  0
 11 12  2  0
 11 10  1  0
 12 13  1  0
 13 14  2  0
 15 14  1  0
 16  8  1  0
 17 16  2  0
 18 19  1  0
 19 20  2  0
 21 19  1  0
 22 21  1  6
 22 23  1  0
 23 16  1  0
 24 26  1  0
 24 22  1  0
 25 24  2  0
M  END
$$$$
