CFN.pdb
     RDKit          3D

 26 26  0  0  1  0  0  0  0  0999 V2000
    8.3934  -12.9762   18.2568 N   0  0  0  0  0  0  0  0  0  0  0  0
    7.5191  -13.7426   19.0956 C   0  0  1  0  0  0  0  0  0  0  0  0
    7.3801  -15.1497   18.6047 C   0  0  0  0  0  0  0  0  0  0  0  0
    8.9748  -15.9928   18.9412 S   0  0  0  0  0  0  0  0  0  0  0  0
    7.8782  -13.6388   20.5249 C   0  0  0  0  0  0  0  0  0  0  0  0
    9.0722  -13.3475   20.8032 O   0  0  0  0  0  0  0  0  0  0  0  0
    6.9858  -13.8410   21.5903 N   0  0  0  0  0  0  0  0  0  0  0  0
    7.3952  -13.8089   22.9706 C   0  0  1  0  0  0  0  0  0  0  0  0
    6.3151  -13.2287   23.8642 C   0  0  0  0  0  0  0  0  0  0  0  0
    6.7420  -13.0983   25.2622 C   0  0  0  0  0  0  0  0  0  0  0  0
    6.3260  -14.0530   26.1915 C   0  0  0  0  0  0  0  0  0  0  0  0
    6.7049  -13.9687   27.5152 C   0  0  0  0  0  0  0  0  0  0  0  0
    7.5056  -12.9445   27.9750 C   0  0  0  0  0  0  0  0  0  0  0  0
    7.9236  -11.9970   27.0737 C   0  0  0  0  0  0  0  0  0  0  0  0
    7.5387  -12.0851   25.7360 C   0  0  0  0  0  0  0  0  0  0  0  0
    7.9094  -15.1072   23.4577 C   0  0  0  0  0  0  0  0  0  0  0  0
    7.3124  -16.1799   23.1068 O   0  0  0  0  0  0  0  0  0  0  0  0
   11.5884  -18.5175   24.5336 N   0  0  0  0  0  0  0  0  0  0  0  0
   12.1277  -17.2788   24.0717 C   0  0  0  0  0  0  0  0  0  0  0  0
   13.3259  -17.2787   23.7370 O   0  0  0  0  0  0  0  0  0  0  0  0
   11.2773  -16.0951   24.0117 C   0  0  0  0  0  0  0  0  0  0  0  0
    9.8337  -16.4769   24.3674 C   0  0  2  0  0  0  0  0  0  0  0  0
    9.0328  -15.2199   24.2924 N   0  0  0  0  0  0  0  0  0  0  0  0
    9.8268  -16.8527   25.7886 C   0  0  0  0  0  0  0  0  0  0  0  0
   10.4258  -17.8556   26.2115 O   0  0  0  0  0  0  0  0  0  0  0  0
    9.1403  -16.0822   26.7064 O   0  0  0  0  0  0  0  0  0  0  0  0
  2  5  1  0
  2  1  1  6
  3  2  1  0
  4  3  1  0
  5  6  2  0
  7  8  1  0
  7  5  1  0
  8  9  1  1
  9 10  1  0
 10 15  2  0
 11 12  2  0
 11 10  1  0
 12 13  1  0
 13 14  2  0
 15 14  1  0
 16  8  1  0
 17 16  2  0
 18 19  1  0
 19 20  2  0
 21 19  1  0
 22 21  1  1
 22 23  1  0
 23 16  1  0
 24 26  1  0
 24 22  1  0
 25 24  2  0
M  END
$$$$
