RGC.pdb
     RDKit          3D

 22 21  0  0  1  0  0  0  0  0999 V2000
   20.3885  -23.8263   -7.5193 N   0  0  0  0  0  0  0  0  0  0  0  0
   19.7880  -22.9918   -8.5033 C   0  0  0  0  0  0  0  0  0  0  0  0
   18.9223  -23.4370   -9.3256 N   0  0  0  0  0  0  0  0  0  0  0  0
   20.1989  -21.6267   -8.5262 N   0  0  0  0  0  0  0  0  0  0  0  0
   21.3255  -21.1907   -9.2856 C   0  0  0  0  0  0  0  0  0  0  0  0
   22.4735  -20.9048   -8.2982 C   0  0  0  0  0  0  0  0  0  0  0  0
   23.5582  -20.2274   -9.0851 C   0  0  0  0  0  0  0  0  0  0  0  0
   24.2940  -21.1878   -9.9588 C   0  0  2  0  0  0  0  0  0  0  0  0
   25.4240  -21.7078   -9.1820 N   0  0  0  0  0  0  0  0  0  0  0  0
   24.7606  -20.6329  -11.2440 C   0  0  0  0  0  0  0  0  0  0  0  0
   25.9825  -20.4354  -11.4188 O   0  0  0  0  0  0  0  0  0  0  0  0
   18.4591  -22.9343  -10.0874 N   0  0  0  0  0  0  0  0  0  0  0  0
   23.8345  -20.3183  -12.2946 C   0  0  0  0  0  0  0  0  0  0  0  0
   24.2873  -19.8308  -13.5805 C   0  0  0  0  0  0  0  0  0  0  0  0
   23.1131  -19.6528  -14.4730 O   0  0  0  0  0  0  0  0  0  0  0  0
   21.9608  -20.0799  -14.1144 N   0  0  0  0  0  0  0  0  0  0  0  0
   23.1903  -19.0229  -15.7328 C   0  0  1  0  0  0  0  0  0  0  0  0
   22.0569  -18.8427  -16.5908 C   0  0  0  0  0  0  0  0  0  0  0  0
   22.3389  -17.8985  -17.7399 S   0  0  0  0  0  0  0  0  0  0  0  0
   23.2836  -16.5092  -17.0585 C   0  0  0  0  0  0  0  0  0  0  0  0
   21.5476  -20.0921  -17.1619 O   0  0  0  0  0  0  0  0  0  0  0  0
   22.3140  -21.0760  -17.3074 O   0  0  0  0  0  0  0  0  0  0  0  0
  1  2  1  0
  2  3  2  0
  4  5  1  0
  4  2  1  0
  6  7  1  0
  6  5  1  0
  7  8  1  0
  8 10  1  0
  8  9  1  1
 10 12  1  0
 11 10  2  0
 12 13  1  0
 13 14  1  0
 14 15  2  0
 14 16  1  0
 16 17  1  0
 17 20  1  0
 17 18  1  6
 18 19  1  0
 20 21  2  0
 20 22  1  0
M  END
$$$$
