RGC.pdb
     RDKit          3D

 22 21  0  0  1  0  0  0  0  0999 V2000
   23.0299  -20.7522   -8.1841 N   0  0  0  0  0  0  0  0  0  0  0  0
   22.7391  -21.3742   -9.4306 C   0  0  0  0  0  0  0  0  0  0  0  0
   21.7177  -21.0521  -10.1212 N   0  0  0  0  0  0  0  0  0  0  0  0
   23.6485  -22.3778   -9.8760 N   0  0  0  0  0  0  0  0  0  0  0  0
   24.9645  -22.0575  -10.3253 C   0  0  0  0  0  0  0  0  0  0  0  0
   24.9890  -20.5556  -10.6695 C   0  0  0  0  0  0  0  0  0  0  0  0
   26.3666  -20.2560  -11.1864 C   0  0  0  0  0  0  0  0  0  0  0  0
   26.5330  -20.6838  -12.6064 C   0  0  2  0  0  0  0  0  0  0  0  0
   27.2912  -21.9391  -12.5987 N   0  0  0  0  0  0  0  0  0  0  0  0
   27.1814  -19.6924  -13.4863 C   0  0  0  0  0  0  0  0  0  0  0  0
   28.4279  -19.6777  -13.5789 O   0  0  0  0  0  0  0  0  0  0  0  0
   21.4026  -21.4560  -11.0073 N   0  0  0  0  0  0  0  0  0  0  0  0
   26.4038  -18.7477  -14.2367 C   0  0  0  0  0  0  0  0  0  0  0  0
   27.0310  -17.7642  -15.0943 C   0  0  0  0  0  0  0  0  0  0  0  0
   25.9795  -16.9073  -15.7002 O   0  0  0  0  0  0  0  0  0  0  0  0
   24.7971  -17.3655  -15.8757 N   0  0  0  0  0  0  0  0  0  0  0  0
   26.2094  -15.5768  -16.1088 C   0  0  1  0  0  0  0  0  0  0  0  0
   25.2217  -14.7778  -16.7714 C   0  0  0  0  0  0  0  0  0  0  0  0
   25.5767  -13.3062  -16.7881 S   0  0  0  0  0  0  0  0  0  0  0  0
   25.9048  -12.8256  -15.0710 C   0  0  0  0  0  0  0  0  0  0  0  0
   24.9679  -15.1854  -18.1556 O   0  0  0  0  0  0  0  0  0  0  0  0
   23.9951  -14.7023  -18.7856 O   0  0  0  0  0  0  0  0  0  0  0  0
  1  2  1  0
  2  3  2  0
  4  5  1  0
  4  2  1  0
  6  7  1  0
  6  5  1  0
  7  8  1  0
  8 10  1  0
  8  9  1  1
 10 12  1  0
 11 10  2  0
 12 13  1  0
 13 14  1  0
 14 15  2  0
 14 16  1  0
 16 17  1  0
 17 20  1  0
 17 18  1  6
 18 19  1  0
 20 21  2  0
 20 22  1  0
M  END
$$$$
