RGC.pdb
     RDKit          3D

 22 21  0  0  1  0  0  0  0  0999 V2000
   27.1596  -21.4845  -12.5338 N   0  0  0  0  0  0  0  0  0  0  0  0
   26.1362  -20.9380  -11.7097 C   0  0  0  0  0  0  0  0  0  0  0  0
   26.0260  -21.2484  -10.4787 N   0  0  0  0  0  0  0  0  0  0  0  0
   25.2362  -20.0199  -12.3260 N   0  0  0  0  0  0  0  0  0  0  0  0
   25.2011  -19.8323  -13.7401 C   0  0  0  0  0  0  0  0  0  0  0  0
   26.1490  -18.6662  -14.0814 C   0  0  0  0  0  0  0  0  0  0  0  0
   26.0185  -18.4247  -15.5577 C   0  0  0  0  0  0  0  0  0  0  0  0
   26.6036  -19.5403  -16.3577 C   0  0  2  0  0  0  0  0  0  0  0  0
   28.0050  -19.1993  -16.6236 N   0  0  0  0  0  0  0  0  0  0  0  0
   25.8967  -19.8448  -17.6167 C   0  0  0  0  0  0  0  0  0  0  0  0
   26.0517  -19.0936  -18.6036 O   0  0  0  0  0  0  0  0  0  0  0  0
   25.3123  -20.9417   -9.8123 N   0  0  0  0  0  0  0  0  0  0  0  0
   25.0367  -20.9890  -17.7250 C   0  0  0  0  0  0  0  0  0  0  0  0
   24.1321  -21.3585  -16.6566 C   0  0  0  0  0  0  0  0  0  0  0  0
   22.7730  -20.8489  -16.9734 O   0  0  0  0  0  0  0  0  0  0  0  0
   21.8836  -21.6381  -17.4478 N   0  0  0  0  0  0  0  0  0  0  0  0
   22.3881  -19.5059  -16.7788 C   0  0  1  0  0  0  0  0  0  0  0  0
   21.0324  -19.0547  -16.8868 C   0  0  0  0  0  0  0  0  0  0  0  0
   20.5623  -18.3178  -15.6509 S   0  0  0  0  0  0  0  0  0  0  0  0
   21.0690  -19.3119  -14.2220 C   0  0  0  0  0  0  0  0  0  0  0  0
   20.7937  -18.1809  -18.0383 O   0  0  0  0  0  0  0  0  0  0  0  0
   21.7527  -17.8213  -18.7649 O   0  0  0  0  0  0  0  0  0  0  0  0
  1  2  1  0
  2  3  2  0
  4  5  1  0
  4  2  1  0
  6  7  1  0
  6  5  1  0
  7  8  1  0
  8 10  1  0
  8  9  1  6
 10 12  1  0
 11 10  2  0
 12 13  1  0
 13 14  1  0
 14 15  2  0
 14 16  1  0
 16 17  1  0
 17 20  1  0
 17 18  1  6
 18 19  1  0
 20 21  2  0
 20 22  1  0
M  END
$$$$
