RGC.pdb
     RDKit          3D

 22 21  0  0  1  0  0  0  0  0999 V2000
   29.0193  -24.4655  -16.8727 N   0  0  0  0  0  0  0  0  0  0  0  0
   28.5814  -25.7847  -16.5676 C   0  0  0  0  0  0  0  0  0  0  0  0
   29.3205  -26.8027  -16.7702 N   0  0  0  0  0  0  0  0  0  0  0  0
   27.2720  -25.9167  -16.0192 N   0  0  0  0  0  0  0  0  0  0  0  0
   26.4540  -24.7818  -15.7380 C   0  0  0  0  0  0  0  0  0  0  0  0
   25.9612  -24.2149  -17.0835 C   0  0  0  0  0  0  0  0  0  0  0  0
   24.9792  -23.1268  -16.7573 C   0  0  0  0  0  0  0  0  0  0  0  0
   25.6570  -21.9039  -16.2358 C   0  0  2  0  0  0  0  0  0  0  0  0
   26.0993  -22.1985  -14.8690 N   0  0  0  0  0  0  0  0  0  0  0  0
   24.8389  -20.6761  -16.2621 C   0  0  0  0  0  0  0  0  0  0  0  0
   24.2943  -20.3254  -17.3312 O   0  0  0  0  0  0  0  0  0  0  0  0
   29.1024  -27.7864  -16.5899 N   0  0  0  0  0  0  0  0  0  0  0  0
   24.6586  -19.8809  -15.0807 C   0  0  0  0  0  0  0  0  0  0  0  0
   23.8861  -18.6566  -15.1043 C   0  0  0  0  0  0  0  0  0  0  0  0
   22.4542  -18.9817  -14.8785 O   0  0  0  0  0  0  0  0  0  0  0  0
   22.0898  -20.1957  -14.6990 N   0  0  0  0  0  0  0  0  0  0  0  0
   21.4368  -18.0051  -14.8493 C   0  0  1  0  0  0  0  0  0  0  0  0
   20.0756  -18.2998  -14.5128 C   0  0  0  0  0  0  0  0  0  0  0  0
   19.4215  -17.1973  -13.7075 S   0  0  0  0  0  0  0  0  0  0  0  0
   19.8248  -15.6342  -14.5326 C   0  0  0  0  0  0  0  0  0  0  0  0
   19.2251  -18.5588  -15.6773 O   0  0  0  0  0  0  0  0  0  0  0  0
   18.0765  -19.0421  -15.5228 O   0  0  0  0  0  0  0  0  0  0  0  0
  1  2  1  0
  2  3  2  0
  4  5  1  0
  4  2  1  0
  6  7  1  0
  6  5  1  0
  7  8  1  0
  8 10  1  0
  8  9  1  1
 10 12  1  0
 11 10  2  0
 12 13  1  0
 13 14  1  0
 14 15  2  0
 14 16  1  0
 16 17  1  0
 17 20  1  0
 17 18  1  6
 18 19  1  0
 20 21  2  0
 20 22  1  0
M  END
$$$$
