RGC.pdb
     RDKit          3D

 22 21  0  0  1  0  0  0  0  0999 V2000
   18.5599  -13.1094  -16.1604 N   0  0  0  0  0  0  0  0  0  0  0  0
   19.6327  -13.0383  -17.0927 C   0  0  0  0  0  0  0  0  0  0  0  0
   19.9915  -14.0470  -17.7837 N   0  0  0  0  0  0  0  0  0  0  0  0
   20.2901  -11.7797  -17.2216 N   0  0  0  0  0  0  0  0  0  0  0  0
   20.8339  -11.0938  -16.0947 C   0  0  0  0  0  0  0  0  0  0  0  0
   19.6629  -10.4441  -15.3322 C   0  0  0  0  0  0  0  0  0  0  0  0
   20.2640   -9.7023  -14.1732 C   0  0  0  0  0  0  0  0  0  0  0  0
   19.7847   -8.2906  -14.1076 C   0  0  2  0  0  0  0  0  0  0  0  0
   20.6622   -7.4907  -14.9684 N   0  0  0  0  0  0  0  0  0  0  0  0
   19.7236   -7.7133  -12.7510 C   0  0  0  0  0  0  0  0  0  0  0  0
   20.7824   -7.3674  -12.1839 O   0  0  0  0  0  0  0  0  0  0  0  0
   20.7517  -14.1055  -18.4666 N   0  0  0  0  0  0  0  0  0  0  0  0
   18.4689   -7.5424  -12.0748 C   0  0  0  0  0  0  0  0  0  0  0  0
   18.4034   -7.0381  -10.7192 C   0  0  0  0  0  0  0  0  0  0  0  0
   16.9790   -6.9112  -10.3169 O   0  0  0  0  0  0  0  0  0  0  0  0
   16.0527   -6.9721  -11.1984 N   0  0  0  0  0  0  0  0  0  0  0  0
   16.5690   -6.7207   -8.9807 C   0  0  1  0  0  0  0  0  0  0  0  0
   15.1994   -6.5462   -8.5975 C   0  0  0  0  0  0  0  0  0  0  0  0
   14.9180   -7.0415   -7.1949 S   0  0  0  0  0  0  0  0  0  0  0  0
   13.1155   -7.1020   -7.0108 C   0  0  0  0  0  0  0  0  0  0  0  0
   14.7399   -5.1572   -8.6746 O   0  0  0  0  0  0  0  0  0  0  0  0
   15.4237   -4.2385   -8.1597 O   0  0  0  0  0  0  0  0  0  0  0  0
  1  2  1  0
  2  3  2  0
  4  5  1  0
  4  2  1  0
  6  7  1  0
  6  5  1  0
  7  8  1  0
  8 10  1  0
  8  9  1  6
 10 12  1  0
 11 10  2  0
 12 13  1  0
 13 14  1  0
 14 15  2  0
 14 16  1  0
 16 17  1  0
 17 20  1  0
 17 18  1  6
 18 19  1  0
 20 21  2  0
 20 22  1  0
M  END
$$$$
