RGC.pdb
     RDKit          3D

 22 21  0  0  1  0  0  0  0  0999 V2000
   24.6986  -23.5622  -14.1794 N   0  0  0  0  0  0  0  0  0  0  0  0
   24.6452  -24.4435  -15.2954 C   0  0  0  0  0  0  0  0  0  0  0  0
   25.2940  -25.5401  -15.3184 N   0  0  0  0  0  0  0  0  0  0  0  0
   23.8262  -24.0437  -16.3918 N   0  0  0  0  0  0  0  0  0  0  0  0
   22.8878  -22.9743  -16.2817 C   0  0  0  0  0  0  0  0  0  0  0  0
   23.2598  -21.9145  -17.3367 C   0  0  0  0  0  0  0  0  0  0  0  0
   23.3862  -20.6082  -16.6071 C   0  0  0  0  0  0  0  0  0  0  0  0
   22.1375  -20.2612  -15.8672 C   0  0  2  0  0  0  0  0  0  0  0  0
   21.4449  -19.2251  -16.6403 N   0  0  0  0  0  0  0  0  0  0  0  0
   22.3385  -19.8202  -14.4735 C   0  0  0  0  0  0  0  0  0  0  0  0
   22.3139  -18.5990  -14.2076 O   0  0  0  0  0  0  0  0  0  0  0  0
   25.3288  -26.2366  -16.0676 N   0  0  0  0  0  0  0  0  0  0  0  0
   22.5600  -20.7704  -13.4207 C   0  0  0  0  0  0  0  0  0  0  0  0
   22.7127  -20.3508  -12.0435 C   0  0  0  0  0  0  0  0  0  0  0  0
   21.4635  -20.6591  -11.3008 O   0  0  0  0  0  0  0  0  0  0  0  0
   21.3870  -20.4262  -10.0443 N   0  0  0  0  0  0  0  0  0  0  0  0
   20.3188  -21.2115  -11.9126 C   0  0  1  0  0  0  0  0  0  0  0  0
   19.1358  -21.5675  -11.1868 C   0  0  0  0  0  0  0  0  0  0  0  0
   18.2464  -20.3765  -10.9000 S   0  0  0  0  0  0  0  0  0  0  0  0
   18.2831  -19.3259  -12.3771 C   0  0  0  0  0  0  0  0  0  0  0  0
   18.3155  -22.5782  -11.8592 O   0  0  0  0  0  0  0  0  0  0  0  0
   18.5289  -22.8623  -13.0635 O   0  0  0  0  0  0  0  0  0  0  0  0
  1  2  1  0
  2  3  2  0
  4  5  1  0
  4  2  1  0
  6  7  1  0
  6  5  1  0
  7  8  1  0
  8 10  1  0
  8  9  1  6
 10 12  1  0
 11 10  2  0
 12 13  1  0
 13 14  1  0
 14 15  2  0
 14 16  1  0
 16 17  1  0
 17 20  1  0
 17 18  1  1
 18 19  1  0
 20 21  2  0
 20 22  1  0
M  END
$$$$
