RGC.pdb
     RDKit          3D

 22 21  0  0  1  0  0  0  0  0999 V2000
   22.3343  -20.9140  -10.6957 N   0  0  0  0  0  0  0  0  0  0  0  0
   22.6316  -21.0897   -9.3152 C   0  0  0  0  0  0  0  0  0  0  0  0
   21.8048  -21.6342   -8.5129 N   0  0  0  0  0  0  0  0  0  0  0  0
   23.9046  -20.6291   -8.8680 N   0  0  0  0  0  0  0  0  0  0  0  0
   24.9373  -20.2614   -9.7815 C   0  0  0  0  0  0  0  0  0  0  0  0
   25.7082  -21.5419  -10.1568 C   0  0  0  0  0  0  0  0  0  0  0  0
   26.8153  -21.1216  -11.0801 C   0  0  0  0  0  0  0  0  0  0  0  0
   26.2898  -20.5282  -12.3446 C   0  0  2  0  0  0  0  0  0  0  0  0
   26.0247  -21.6350  -13.2696 N   0  0  0  0  0  0  0  0  0  0  0  0
   27.1675  -19.5242  -12.9762 C   0  0  0  0  0  0  0  0  0  0  0  0
   28.2377  -19.2057  -12.4144 O   0  0  0  0  0  0  0  0  0  0  0  0
   21.9321  -21.8374   -7.5178 N   0  0  0  0  0  0  0  0  0  0  0  0
   26.8120  -18.9101  -14.2240 C   0  0  0  0  0  0  0  0  0  0  0  0
   27.7287  -18.0351  -14.9241 C   0  0  0  0  0  0  0  0  0  0  0  0
   27.1355  -17.6574  -16.2327 O   0  0  0  0  0  0  0  0  0  0  0  0
   27.7752  -16.8892  -17.0323 N   0  0  0  0  0  0  0  0  0  0  0  0
   25.8694  -18.1058  -16.6638 C   0  0  1  0  0  0  0  0  0  0  0  0
   25.2475  -17.6554  -17.8736 C   0  0  0  0  0  0  0  0  0  0  0  0
   24.6812  -18.7924  -18.6971 S   0  0  0  0  0  0  0  0  0  0  0  0
   25.7038  -20.2496  -18.3539 C   0  0  0  0  0  0  0  0  0  0  0  0
   24.1680  -16.6894  -17.6550 O   0  0  0  0  0  0  0  0  0  0  0  0
   23.7624  -16.4515  -16.4907 O   0  0  0  0  0  0  0  0  0  0  0  0
  1  2  1  0
  2  3  2  0
  4  5  1  0
  4  2  1  0
  6  7  1  0
  6  5  1  0
  7  8  1  0
  8 10  1  0
  8  9  1  6
 10 12  1  0
 11 10  2  0
 12 13  1  0
 13 14  1  0
 14 15  2  0
 14 16  1  0
 16 17  1  0
 17 20  1  0
 17 18  1  6
 18 19  1  0
 20 21  2  0
 20 22  1  0
M  END
$$$$
