QYC.pdb
     RDKit          3D

 28 28  0  0  1  0  0  0  0  0999 V2000
   24.4223  -20.6135  -21.7012 N   0  0  0  0  0  0  0  0  0  0  0  0
   23.5381  -19.5415  -21.9105 C   0  0  0  0  0  0  0  0  0  0  0  0
   23.5631  -18.9297  -22.9932 O   0  0  0  0  0  0  0  0  0  0  0  0
   22.5972  -19.1622  -20.8503 C   0  0  0  0  0  0  0  0  0  0  0  0
   22.6828  -19.9044  -19.5754 C   0  0  0  0  0  0  0  0  0  0  0  0
   23.1221  -19.1301  -18.3640 C   0  0  2  0  0  0  0  0  0  0  0  0
   24.3244  -18.4118  -18.4571 N   0  0  0  0  0  0  0  0  0  0  0  0
   22.9068  -19.9517  -17.1576 C   0  0  0  0  0  0  0  0  0  0  0  0
   22.5303  -21.1392  -17.3344 O   0  0  0  0  0  0  0  0  0  0  0  0
   28.8241  -21.9410  -16.8398 O   0  0  0  0  0  0  0  0  0  0  0  0
   27.7043  -21.5640  -16.1059 C   0  0  0  0  0  0  0  0  0  0  0  0
   27.5418  -20.2359  -15.7763 C   0  0  0  0  0  0  0  0  0  0  0  0
   26.4511  -19.8085  -15.0509 C   0  0  0  0  0  0  0  0  0  0  0  0
   25.4936  -20.7384  -14.6427 C   0  0  0  0  0  0  0  0  0  0  0  0
   24.2993  -20.3235  -13.8652 C   0  0  0  0  0  0  0  0  0  0  0  0
   23.0416  -20.3053  -14.6709 C   0  0  2  0  0  0  0  0  0  0  0  0
   23.1052  -19.4539  -15.8461 N   0  0  0  0  0  0  0  0  0  0  0  0
   21.8596  -19.9644  -13.8320 C   0  0  0  0  0  0  0  0  0  0  0  0
   21.7418  -18.7475  -13.4658 O   0  0  0  0  0  0  0  0  0  0  0  0
   25.6774  -22.0660  -14.9848 C   0  0  0  0  0  0  0  0  0  0  0  0
   26.7620  -22.5076  -15.7091 C   0  0  0  0  0  0  0  0  0  0  0  0
   20.9030  -20.9452  -13.4534 N   0  0  0  0  0  0  0  0  0  0  0  0
   19.5874  -20.5441  -13.0589 C   0  0  1  0  0  0  0  0  0  0  0  0
   18.8850  -19.7227  -14.1199 C   0  0  0  0  0  0  0  0  0  0  0  0
   17.9206  -18.4012  -13.3373 S   0  0  0  0  0  0  0  0  0  0  0  0
   18.7654  -21.7283  -12.6883 C   0  0  0  0  0  0  0  0  0  0  0  0
   17.8192  -21.5902  -11.6748 O   0  0  0  0  0  0  0  0  0  0  0  0
   18.9134  -22.8450  -13.2751 O   0  0  0  0  0  0  0  0  0  0  0  0
  1  2  1  0
  2  4  1  0
  2  3  2  0
  4  5  1  0
  5  6  1  0
  6  7  1  6
  6  8  1  0
  8  9  2  0
 10 11  1  0
 11 21  2  0
 11 12  1  0
 12 13  2  0
 13 14  1  0
 14 15  1  0
 16 15  1  1
 17  8  1  0
 17 16  1  0
 18 22  1  0
 18 16  1  0
 19 18  2  0
 20 14  2  0
 21 20  1  0
 23 24  1  6
 23 26  1  0
 23 22  1  0
 24 25  1  0
 26 27  1  0
 28 26  2  0
M  END
$$$$
