QYC.pdb
     RDKit          3D

 28 28  0  0  1  0  0  0  0  0999 V2000
   27.6547  -26.5503  -18.5018 N   0  0  0  0  0  0  0  0  0  0  0  0
   26.8456  -25.6281  -17.8165 C   0  0  0  0  0  0  0  0  0  0  0  0
   25.8237  -25.1820  -18.3677 O   0  0  0  0  0  0  0  0  0  0  0  0
   27.2168  -25.2079  -16.4604 C   0  0  0  0  0  0  0  0  0  0  0  0
   28.0007  -23.9621  -16.3313 C   0  0  0  0  0  0  0  0  0  0  0  0
   27.4141  -22.7209  -16.9439 C   0  0  2  0  0  0  0  0  0  0  0  0
   27.9234  -22.3105  -18.1859 N   0  0  0  0  0  0  0  0  0  0  0  0
   27.2496  -21.6935  -15.8979 C   0  0  0  0  0  0  0  0  0  0  0  0
   28.2990  -21.1787  -15.4322 O   0  0  0  0  0  0  0  0  0  0  0  0
   28.1732  -15.5145  -17.9427 O   0  0  0  0  0  0  0  0  0  0  0  0
   27.4157  -16.3774  -17.1577 C   0  0  0  0  0  0  0  0  0  0  0  0
   26.6538  -17.3439  -17.7775 C   0  0  0  0  0  0  0  0  0  0  0  0
   25.8851  -18.2241  -17.0475 C   0  0  0  0  0  0  0  0  0  0  0  0
   25.8784  -18.1345  -15.6546 C   0  0  0  0  0  0  0  0  0  0  0  0
   25.0710  -19.0650  -14.8268 C   0  0  0  0  0  0  0  0  0  0  0  0
   25.8257  -20.2759  -14.3847 C   0  0  2  0  0  0  0  0  0  0  0  0
   25.9807  -21.2851  -15.4179 N   0  0  0  0  0  0  0  0  0  0  0  0
   25.2383  -20.8660  -13.1504 C   0  0  0  0  0  0  0  0  0  0  0  0
   24.2395  -21.6461  -13.3009 O   0  0  0  0  0  0  0  0  0  0  0  0
   26.6507  -17.1566  -15.0541 C   0  0  0  0  0  0  0  0  0  0  0  0
   27.4237  -16.2704  -15.7705 C   0  0  0  0  0  0  0  0  0  0  0  0
   25.7618  -20.5774  -11.8608 N   0  0  0  0  0  0  0  0  0  0  0  0
   25.0891  -21.0588  -10.6932 C   0  0  1  0  0  0  0  0  0  0  0  0
   25.8558  -20.7733   -9.4186 C   0  0  0  0  0  0  0  0  0  0  0  0
   24.9327  -21.4034   -7.9905 S   0  0  0  0  0  0  0  0  0  0  0  0
   23.7131  -20.4977  -10.6099 C   0  0  0  0  0  0  0  0  0  0  0  0
   22.6873  -21.3182  -10.1453 O   0  0  0  0  0  0  0  0  0  0  0  0
   23.4665  -19.2995  -10.9515 O   0  0  0  0  0  0  0  0  0  0  0  0
  1  2  1  0
  2  4  1  0
  2  3  2  0
  4  5  1  0
  5  6  1  0
  6  7  1  6
  6  8  1  0
  8  9  2  0
 10 11  1  0
 11 21  2  0
 11 12  1  0
 12 13  2  0
 13 14  1  0
 14 15  1  0
 16 15  1  6
 17  8  1  0
 17 16  1  0
 18 22  1  0
 18 16  1  0
 19 18  2  0
 20 14  2  0
 21 20  1  0
 23 24  1  1
 23 26  1  0
 23 22  1  0
 24 25  1  0
 26 27  1  0
 28 26  2  0
M  END
$$$$
