QYC.pdb
     RDKit          3D

 28 28  0  0  1  0  0  0  0  0999 V2000
   22.9862  -20.9473  -15.1390 N   0  0  0  0  0  0  0  0  0  0  0  0
   23.8663  -20.0119  -15.7092 C   0  0  0  0  0  0  0  0  0  0  0  0
   23.6810  -19.6306  -16.8786 O   0  0  0  0  0  0  0  0  0  0  0  0
   24.9883  -19.4971  -14.9159 C   0  0  0  0  0  0  0  0  0  0  0  0
   25.1206  -19.9965  -13.5316 C   0  0  0  0  0  0  0  0  0  0  0  0
   26.2581  -20.9390  -13.2527 C   0  0  2  0  0  0  0  0  0  0  0  0
   26.4067  -22.0431  -14.1066 N   0  0  0  0  0  0  0  0  0  0  0  0
   26.3442  -21.1805  -11.7997 C   0  0  0  0  0  0  0  0  0  0  0  0
   25.6316  -22.1053  -11.3307 O   0  0  0  0  0  0  0  0  0  0  0  0
   27.9343  -19.9286   -3.1807 O   0  0  0  0  0  0  0  0  0  0  0  0
   28.0487  -19.9543   -4.5667 C   0  0  0  0  0  0  0  0  0  0  0  0
   27.3534  -19.0241   -5.3084 C   0  0  0  0  0  0  0  0  0  0  0  0
   27.4312  -19.0049   -6.6839 C   0  0  0  0  0  0  0  0  0  0  0  0
   28.2291  -19.9454   -7.3375 C   0  0  0  0  0  0  0  0  0  0  0  0
   28.3486  -19.9592   -8.8168 C   0  0  0  0  0  0  0  0  0  0  0  0
   27.1808  -20.5898   -9.5023 C   0  0  2  0  0  0  0  0  0  0  0  0
   27.1811  -20.4211  -10.9451 N   0  0  0  0  0  0  0  0  0  0  0  0
   25.8906  -20.1344   -8.9150 C   0  0  0  0  0  0  0  0  0  0  0  0
   25.4369  -19.0111   -9.3164 O   0  0  0  0  0  0  0  0  0  0  0  0
   28.9180  -20.8695   -6.5727 C   0  0  0  0  0  0  0  0  0  0  0  0
   28.8500  -20.9006   -5.1978 C   0  0  0  0  0  0  0  0  0  0  0  0
   25.1918  -20.9111   -7.9513 N   0  0  0  0  0  0  0  0  0  0  0  0
   23.7914  -20.7016   -7.7452 C   0  0  1  0  0  0  0  0  0  0  0  0
   22.9792  -20.9030   -9.0077 C   0  0  0  0  0  0  0  0  0  0  0  0
   21.2162  -20.6766   -8.6483 S   0  0  0  0  0  0  0  0  0  0  0  0
   23.2835  -21.5773   -6.6542 C   0  0  0  0  0  0  0  0  0  0  0  0
   21.9689  -21.4091   -6.2239 O   0  0  0  0  0  0  0  0  0  0  0  0
   24.0216  -22.4618   -6.1192 O   0  0  0  0  0  0  0  0  0  0  0  0
  1  2  1  0
  2  4  1  0
  2  3  2  0
  4  5  1  0
  5  6  1  0
  6  7  1  6
  6  8  1  0
  8  9  2  0
 10 11  1  0
 11 21  2  0
 11 12  1  0
 12 13  2  0
 13 14  1  0
 14 15  1  0
 16 15  1  1
 17  8  1  0
 17 16  1  0
 18 22  1  0
 18 16  1  0
 19 18  2  0
 20 14  2  0
 21 20  1  0
 23 24  1  6
 23 26  1  0
 23 22  1  0
 24 25  1  0
 26 27  1  0
 28 26  2  0
M  END
$$$$
