QYC.pdb
     RDKit          3D

 28 28  0  0  1  0  0  0  0  0999 V2000
   13.5050  -13.8476  -16.5576 N   0  0  0  0  0  0  0  0  0  0  0  0
   14.8056  -14.1614  -16.9875 C   0  0  0  0  0  0  0  0  0  0  0  0
   15.2537  -15.3061  -16.7975 O   0  0  0  0  0  0  0  0  0  0  0  0
   15.6136  -13.1354  -17.6565 C   0  0  0  0  0  0  0  0  0  0  0  0
   16.1880  -12.0704  -16.8085 C   0  0  0  0  0  0  0  0  0  0  0  0
   17.3965  -12.4286  -15.9893 C   0  0  2  0  0  0  0  0  0  0  0  0
   17.3240  -13.5899  -15.2042 N   0  0  0  0  0  0  0  0  0  0  0  0
   17.9356  -11.2084  -15.3589 C   0  0  0  0  0  0  0  0  0  0  0  0
   17.5862  -10.9755  -14.1729 O   0  0  0  0  0  0  0  0  0  0  0  0
   22.5264   -3.7382  -14.1012 O   0  0  0  0  0  0  0  0  0  0  0  0
   22.0992   -5.0087  -14.4724 C   0  0  0  0  0  0  0  0  0  0  0  0
   21.8457   -5.9389  -13.4878 C   0  0  0  0  0  0  0  0  0  0  0  0
   21.4206   -7.2117  -13.8003 C   0  0  0  0  0  0  0  0  0  0  0  0
   21.2437   -7.5648  -15.1391 C   0  0  0  0  0  0  0  0  0  0  0  0
   20.7814   -8.9219  -15.5231 C   0  0  0  0  0  0  0  0  0  0  0  0
   19.3013   -9.0971  -15.4222 C   0  0  2  0  0  0  0  0  0  0  0  0
   18.8081  -10.3189  -16.0335 N   0  0  0  0  0  0  0  0  0  0  0  0
   18.5730   -7.9094  -15.9474 C   0  0  0  0  0  0  0  0  0  0  0  0
   18.4878   -7.7975  -17.2159 O   0  0  0  0  0  0  0  0  0  0  0  0
   21.5042   -6.6151  -16.1105 C   0  0  0  0  0  0  0  0  0  0  0  0
   21.9293   -5.3396  -15.8132 C   0  0  0  0  0  0  0  0  0  0  0  0
   17.9968   -6.9414  -15.0806 N   0  0  0  0  0  0  0  0  0  0  0  0
   17.2626   -5.8414  -15.6267 C   0  0  1  0  0  0  0  0  0  0  0  0
   15.8320   -5.7916  -15.1321 C   0  0  0  0  0  0  0  0  0  0  0  0
   14.9493   -7.2890  -15.6491 S   0  0  0  0  0  0  0  0  0  0  0  0
   17.9559   -4.5547  -15.3452 C   0  0  0  0  0  0  0  0  0  0  0  0
   17.3360   -3.3674  -15.7293 O   0  0  0  0  0  0  0  0  0  0  0  0
   19.0871   -4.5262  -14.7686 O   0  0  0  0  0  0  0  0  0  0  0  0
  1  2  1  0
  2  4  1  0
  2  3  2  0
  4  5  1  0
  5  6  1  0
  6  7  1  1
  6  8  1  0
  8  9  2  0
 10 11  1  0
 11 21  2  0
 11 12  1  0
 12 13  2  0
 13 14  1  0
 14 15  1  0
 16 15  1  6
 17  8  1  0
 17 16  1  0
 18 22  1  0
 18 16  1  0
 19 18  2  0
 20 14  2  0
 21 20  1  0
 23 24  1  1
 23 26  1  0
 23 22  1  0
 24 25  1  0
 26 27  1  0
 28 26  2  0
M  END
$$$$
