QYC.pdb
     RDKit          3D

 28 28  0  0  1  0  0  0  0  0999 V2000
   28.6147  -18.0973  -18.8854 N   0  0  0  0  0  0  0  0  0  0  0  0
   27.5413  -17.7863  -19.7372 C   0  0  0  0  0  0  0  0  0  0  0  0
   27.2489  -16.5951  -19.9439 O   0  0  0  0  0  0  0  0  0  0  0  0
   26.7838  -18.8709  -20.3721 C   0  0  0  0  0  0  0  0  0  0  0  0
   26.4868  -20.0594  -19.5459 C   0  0  0  0  0  0  0  0  0  0  0  0
   25.0765  -20.2076  -19.0468 C   0  0  2  0  0  0  0  0  0  0  0  0
   24.1704  -19.1812  -19.3558 N   0  0  0  0  0  0  0  0  0  0  0  0
   25.1022  -20.7031  -17.6573 C   0  0  0  0  0  0  0  0  0  0  0  0
   25.7554  -21.7558  -17.4378 O   0  0  0  0  0  0  0  0  0  0  0  0
   24.9404  -21.4156   -8.9136 O   0  0  0  0  0  0  0  0  0  0  0  0
   24.8485  -20.9415  -10.2180 C   0  0  0  0  0  0  0  0  0  0  0  0
   23.6510  -20.4148  -10.6510 C   0  0  0  0  0  0  0  0  0  0  0  0
   23.5055  -19.9314  -11.9330 C   0  0  0  0  0  0  0  0  0  0  0  0
   24.5915  -19.9763  -12.8088 C   0  0  0  0  0  0  0  0  0  0  0  0
   24.4835  -19.4615  -14.1967 C   0  0  0  0  0  0  0  0  0  0  0  0
   24.4599  -20.5391  -15.2309 C   0  0  2  0  0  0  0  0  0  0  0  0
   24.4303  -20.0462  -16.5970 N   0  0  0  0  0  0  0  0  0  0  0  0
   23.3512  -21.5035  -14.9907 C   0  0  0  0  0  0  0  0  0  0  0  0
   22.1787  -21.1341  -15.3338 O   0  0  0  0  0  0  0  0  0  0  0  0
   25.7836  -20.5093  -12.3525 C   0  0  0  0  0  0  0  0  0  0  0  0
   25.9437  -20.9959  -11.0744 C   0  0  0  0  0  0  0  0  0  0  0  0
   23.5820  -22.7784  -14.4063 N   0  0  0  0  0  0  0  0  0  0  0  0
   22.4818  -23.6577  -14.1539 C   0  0  1  0  0  0  0  0  0  0  0  0
   22.9174  -24.9836  -13.5655 C   0  0  0  0  0  0  0  0  0  0  0  0
   21.4804  -26.0723  -13.3698 S   0  0  0  0  0  0  0  0  0  0  0  0
   21.4762  -23.0027  -13.2735 C   0  0  0  0  0  0  0  0  0  0  0  0
   21.9294  -22.1919  -12.2348 O   0  0  0  0  0  0  0  0  0  0  0  0
   20.2304  -23.1711  -13.4543 O   0  0  0  0  0  0  0  0  0  0  0  0
  1  2  1  0
  2  4  1  0
  2  3  2  0
  4  5  1  0
  5  6  1  0
  6  7  1  1
  6  8  1  0
  8  9  2  0
 10 11  1  0
 11 21  2  0
 11 12  1  0
 12 13  2  0
 13 14  1  0
 14 15  1  0
 16 15  1  1
 17  8  1  0
 17 16  1  0
 18 22  1  0
 18 16  1  0
 19 18  2  0
 20 14  2  0
 21 20  1  0
 23 24  1  1
 23 26  1  0
 23 22  1  0
 24 25  1  0
 26 27  1  0
 28 26  2  0
M  END
$$$$
