QYC.pdb
     RDKit          3D

 28 28  0  0  1  0  0  0  0  0999 V2000
   21.7486  -15.5087  -17.5318 N   0  0  0  0  0  0  0  0  0  0  0  0
   21.0023  -16.5814  -18.0483 C   0  0  0  0  0  0  0  0  0  0  0  0
   20.0265  -16.3502  -18.7842 O   0  0  0  0  0  0  0  0  0  0  0  0
   21.3869  -17.9575  -17.7143 C   0  0  0  0  0  0  0  0  0  0  0  0
   22.5500  -18.1345  -16.8203 C   0  0  0  0  0  0  0  0  0  0  0  0
   23.8954  -18.2853  -17.4737 C   0  0  2  0  0  0  0  0  0  0  0  0
   23.9194  -18.5145  -18.8583 N   0  0  0  0  0  0  0  0  0  0  0  0
   24.7563  -19.1306  -16.6245 C   0  0  0  0  0  0  0  0  0  0  0  0
   24.5279  -20.3679  -16.6316 O   0  0  0  0  0  0  0  0  0  0  0  0
   30.9221  -22.1436  -11.0957 O   0  0  0  0  0  0  0  0  0  0  0  0
   30.1790  -21.3253  -11.9399 C   0  0  0  0  0  0  0  0  0  0  0  0
   30.2048  -21.5706  -13.2956 C   0  0  0  0  0  0  0  0  0  0  0  0
   29.4874  -20.7907  -14.1762 C   0  0  0  0  0  0  0  0  0  0  0  0
   28.7204  -19.7329  -13.6853 C   0  0  0  0  0  0  0  0  0  0  0  0
   27.9263  -18.8700  -14.5952 C   0  0  0  0  0  0  0  0  0  0  0  0
   26.5760  -19.4242  -14.9130 C   0  0  2  0  0  0  0  0  0  0  0  0
   25.7998  -18.6022  -15.8250 N   0  0  0  0  0  0  0  0  0  0  0  0
   25.8017  -19.7207  -13.6763 C   0  0  0  0  0  0  0  0  0  0  0  0
   25.3562  -18.7215  -13.0192 O   0  0  0  0  0  0  0  0  0  0  0  0
   28.7094  -19.5052  -12.3209 C   0  0  0  0  0  0  0  0  0  0  0  0
   29.4211  -20.2761  -11.4292 C   0  0  0  0  0  0  0  0  0  0  0  0
   25.5662  -21.0537  -13.2426 N   0  0  0  0  0  0  0  0  0  0  0  0
   24.8432  -21.2930  -12.0312 C   0  0  1  0  0  0  0  0  0  0  0  0
   24.9100  -20.1237  -11.0710 C   0  0  0  0  0  0  0  0  0  0  0  0
   23.9457  -20.4948   -9.5807 S   0  0  0  0  0  0  0  0  0  0  0  0
   23.4272  -21.6455  -12.3247 C   0  0  0  0  0  0  0  0  0  0  0  0
   22.6638  -22.2277  -11.3149 O   0  0  0  0  0  0  0  0  0  0  0  0
   22.9146  -21.4257  -13.4657 O   0  0  0  0  0  0  0  0  0  0  0  0
  1  2  1  0
  2  4  1  0
  2  3  2  0
  4  5  1  0
  5  6  1  0
  6  7  1  6
  6  8  1  0
  8  9  2  0
 10 11  1  0
 11 21  2  0
 11 12  1  0
 12 13  2  0
 13 14  1  0
 14 15  1  0
 16 15  1  1
 17  8  1  0
 17 16  1  0
 18 22  1  0
 18 16  1  0
 19 18  2  0
 20 14  2  0
 21 20  1  0
 23 24  1  1
 23 26  1  0
 23 22  1  0
 24 25  1  0
 26 27  1  0
 28 26  2  0
M  END
$$$$
