QYC.pdb
     RDKit          3D

 28 28  0  0  1  0  0  0  0  0999 V2000
   14.9655   -7.3002  -16.2106 N   0  0  0  0  0  0  0  0  0  0  0  0
   14.2847   -8.4937  -16.5049 C   0  0  0  0  0  0  0  0  0  0  0  0
   13.6707   -8.5988  -17.5816 O   0  0  0  0  0  0  0  0  0  0  0  0
   14.3110   -9.5985  -15.5395 C   0  0  0  0  0  0  0  0  0  0  0  0
   15.0349   -9.3694  -14.2720 C   0  0  0  0  0  0  0  0  0  0  0  0
   16.5281   -9.5410  -14.2990 C   0  0  2  0  0  0  0  0  0  0  0  0
   17.0271  -10.8061  -14.6464 N   0  0  0  0  0  0  0  0  0  0  0  0
   17.1156   -8.8727  -13.1221 C   0  0  0  0  0  0  0  0  0  0  0  0
   17.3748   -9.5947  -12.1249 O   0  0  0  0  0  0  0  0  0  0  0  0
   23.1825   -9.7270  -14.1381 O   0  0  0  0  0  0  0  0  0  0  0  0
   22.2124   -8.8491  -13.6664 C   0  0  0  0  0  0  0  0  0  0  0  0
   21.9639   -8.7983  -12.3119 C   0  0  0  0  0  0  0  0  0  0  0  0
   21.0138   -7.9468  -11.7916 C   0  0  0  0  0  0  0  0  0  0  0  0
   20.2900   -7.1207  -12.6530 C   0  0  0  0  0  0  0  0  0  0  0  0
   19.2614   -6.1830  -12.1375 C   0  0  0  0  0  0  0  0  0  0  0  0
   17.9313   -6.8243  -11.9115 C   0  0  2  0  0  0  0  0  0  0  0  0
   17.3856   -7.4823  -13.0859 N   0  0  0  0  0  0  0  0  0  0  0  0
   16.9504   -5.8617  -11.3387 C   0  0  0  0  0  0  0  0  0  0  0  0
   16.3071   -5.1313  -12.1642 O   0  0  0  0  0  0  0  0  0  0  0  0
   20.5562   -7.1886  -14.0087 C   0  0  0  0  0  0  0  0  0  0  0  0
   21.5025   -8.0343  -14.5428 C   0  0  0  0  0  0  0  0  0  0  0  0
   16.7360   -5.7568   -9.9375 N   0  0  0  0  0  0  0  0  0  0  0  0
   15.7176   -4.8866   -9.4344 C   0  0  1  0  0  0  0  0  0  0  0  0
   14.3344   -5.2637   -9.9225 C   0  0  0  0  0  0  0  0  0  0  0  0
   13.9157   -6.9347   -9.3560 S   0  0  0  0  0  0  0  0  0  0  0  0
   15.7508   -4.8426   -7.9470 C   0  0  0  0  0  0  0  0  0  0  0  0
   14.9173   -3.9401   -7.2896 O   0  0  0  0  0  0  0  0  0  0  0  0
   16.5172   -5.6052   -7.2805 O   0  0  0  0  0  0  0  0  0  0  0  0
  1  2  1  0
  2  4  1  0
  2  3  2  0
  4  5  1  0
  5  6  1  0
  6  7  1  1
  6  8  1  0
  8  9  2  0
 10 11  1  0
 11 21  2  0
 11 12  1  0
 12 13  2  0
 13 14  1  0
 14 15  1  0
 16 15  1  6
 17  8  1  0
 17 16  1  0
 18 22  1  0
 18 16  1  0
 19 18  2  0
 20 14  2  0
 21 20  1  0
 23 24  1  1
 23 26  1  0
 23 22  1  0
 24 25  1  0
 26 27  1  0
 28 26  2  0
M  END
$$$$
