CDV.pdb
     RDKit          3D

 22 21  0  0  1  0  0  0  0  0999 V2000
    7.9789  -15.2487   19.3113 N   0  0  0  0  0  0  0  0  0  0  0  0
    8.6870  -14.6418   20.4132 C   0  0  1  0  0  0  0  0  0  0  0  0
    7.9424  -13.4758   20.9986 C   0  0  0  0  0  0  0  0  0  0  0  0
    7.8768  -12.1683   19.7391 S   0  0  0  0  0  0  0  0  0  0  0  0
    8.8362  -15.6692   21.4824 C   0  0  0  0  0  0  0  0  0  0  0  0
    8.3681  -16.8225   21.2186 O   0  0  0  0  0  0  0  0  0  0  0  0
    9.4531  -15.4079   22.7187 N   0  0  0  0  0  0  0  0  0  0  0  0
    9.8404  -16.5412   23.5656 C   0  0  1  0  0  0  0  0  0  0  0  0
   10.7303  -17.4788   22.8144 C   0  0  0  0  0  0  0  0  0  0  0  0
   11.2309  -18.6358   23.5519 C   0  0  0  0  0  0  0  0  0  0  0  0
   10.5834  -19.2279   24.4297 O   0  0  0  0  0  0  0  0  0  0  0  0
   10.5137  -16.0138   24.7872 C   0  0  0  0  0  0  0  0  0  0  0  0
   11.6157  -15.4747   24.7889 O   0  0  0  0  0  0  0  0  0  0  0  0
   12.5059  -19.1155   23.2667 O   0  0  0  0  0  0  0  0  0  0  0  0
   10.2449  -13.7038   28.9944 C   0  0  0  0  0  0  0  0  0  0  0  0
    9.5098  -14.4341   27.8696 C   0  0  1  0  0  0  0  0  0  0  0  0
    8.8457  -13.4893   26.9244 C   0  0  0  0  0  0  0  0  0  0  0  0
   10.3735  -15.4584   27.2117 C   0  0  2  0  0  0  0  0  0  0  0  0
    9.8886  -16.1103   26.0778 N   0  0  0  0  0  0  0  0  0  0  0  0
   10.7280  -16.4632   28.2502 C   0  0  0  0  0  0  0  0  0  0  0  0
   10.2726  -17.6335   28.2432 O   0  0  0  0  0  0  0  0  0  0  0  0
   11.5920  -16.1134   29.2719 O   0  0  0  0  0  0  0  0  0  0  0  0
  2  1  1  6
  2  3  1  0
  3  4  1  0
  5  2  1  0
  5  7  1  0
  6  5  2  0
  8  7  1  0
  8 12  1  0
  8  9  1  6
 10  9  1  0
 11 10  2  0
 12 19  1  0
 13 12  2  0
 14 10  1  0
 16 15  1  1
 16 17  1  0
 18 20  1  0
 18 16  1  0
 18 19  1  6
 20 22  1  0
 21 20  2  0
M  END
$$$$
