CDV.pdb
     RDKit          3D

 22 21  0  0  1  0  0  0  0  0999 V2000
    8.3495  -15.4678   17.7656 N   0  0  0  0  0  0  0  0  0  0  0  0
    8.6012  -14.5640   18.8627 C   0  0  1  0  0  0  0  0  0  0  0  0
    7.9543  -13.2236   18.6593 C   0  0  0  0  0  0  0  0  0  0  0  0
    8.2785  -12.2190   20.1379 S   0  0  0  0  0  0  0  0  0  0  0  0
    8.0194  -15.1675   20.0950 C   0  0  0  0  0  0  0  0  0  0  0  0
    7.0370  -15.9570   19.9206 O   0  0  0  0  0  0  0  0  0  0  0  0
    8.5066  -14.8984   21.3863 N   0  0  0  0  0  0  0  0  0  0  0  0
    8.0471  -15.7346   22.5004 C   0  0  1  0  0  0  0  0  0  0  0  0
    8.4797  -17.1526   22.3067 C   0  0  0  0  0  0  0  0  0  0  0  0
    8.2386  -18.0668   23.4198 C   0  0  0  0  0  0  0  0  0  0  0  0
    7.1181  -18.2770   23.9102 O   0  0  0  0  0  0  0  0  0  0  0  0
    8.5854  -15.1708   23.7718 C   0  0  0  0  0  0  0  0  0  0  0  0
    9.7770  -14.9777   23.9906 O   0  0  0  0  0  0  0  0  0  0  0  0
    9.3164  -18.7501   23.9751 O   0  0  0  0  0  0  0  0  0  0  0  0
    7.5730  -11.9883   27.3934 C   0  0  0  0  0  0  0  0  0  0  0  0
    7.0021  -13.0016   26.4002 C   0  0  1  0  0  0  0  0  0  0  0  0
    6.1423  -12.3542   25.3666 C   0  0  0  0  0  0  0  0  0  0  0  0
    8.0600  -13.8983   25.8480 C   0  0  2  0  0  0  0  0  0  0  0  0
    7.7085  -14.8089   24.8515 N   0  0  0  0  0  0  0  0  0  0  0  0
    8.6600  -14.6264   26.9986 C   0  0  0  0  0  0  0  0  0  0  0  0
    8.2128  -15.7245   27.4123 O   0  0  0  0  0  0  0  0  0  0  0  0
    9.7541  -14.0885   27.6515 O   0  0  0  0  0  0  0  0  0  0  0  0
  2  1  1  6
  2  3  1  0
  3  4  1  0
  5  2  1  0
  5  7  1  0
  6  5  2  0
  8  7  1  0
  8 12  1  0
  8  9  1  6
 10  9  1  0
 11 10  2  0
 12 19  1  0
 13 12  2  0
 14 10  1  0
 16 15  1  6
 16 17  1  0
 18 20  1  0
 18 16  1  0
 18 19  1  6
 20 22  1  0
 21 20  2  0
M  END
$$$$
