CDV.pdb
     RDKit          3D

 22 21  0  0  1  0  0  0  0  0999 V2000
    7.8190  -15.2970   18.2463 N   0  0  0  0  0  0  0  0  0  0  0  0
    8.3390  -14.4703   19.3094 C   0  0  1  0  0  0  0  0  0  0  0  0
    7.6767  -13.1231   19.3622 C   0  0  0  0  0  0  0  0  0  0  0  0
    8.3003  -12.1411   17.9668 S   0  0  0  0  0  0  0  0  0  0  0  0
    8.0670  -15.1618   20.6012 C   0  0  0  0  0  0  0  0  0  0  0  0
    7.3242  -16.1929   20.5377 O   0  0  0  0  0  0  0  0  0  0  0  0
    8.5867  -14.7233   21.8320 N   0  0  0  0  0  0  0  0  0  0  0  0
    8.7512  -15.6994   22.9145 C   0  0  1  0  0  0  0  0  0  0  0  0
    9.7349  -16.7558   22.5248 C   0  0  0  0  0  0  0  0  0  0  0  0
   10.0940  -17.7260   23.5557 C   0  0  0  0  0  0  0  0  0  0  0  0
    9.2648  -18.3278   24.2561 O   0  0  0  0  0  0  0  0  0  0  0  0
    9.1876  -14.9772   24.1440 C   0  0  0  0  0  0  0  0  0  0  0  0
   10.2812  -14.4368   24.2750 O   0  0  0  0  0  0  0  0  0  0  0  0
   11.4393  -18.0039   23.7791 O   0  0  0  0  0  0  0  0  0  0  0  0
    7.5020  -11.8805   25.6022 C   0  0  0  0  0  0  0  0  0  0  0  0
    7.5696  -12.9597   26.6837 C   0  0  1  0  0  0  0  0  0  0  0  0
    6.2193  -13.4863   27.0392 C   0  0  0  0  0  0  0  0  0  0  0  0
    8.5757  -14.0133   26.3583 C   0  0  2  0  0  0  0  0  0  0  0  0
    8.3219  -14.8689   25.2862 N   0  0  0  0  0  0  0  0  0  0  0  0
    8.7861  -14.8134   27.5949 C   0  0  0  0  0  0  0  0  0  0  0  0
    8.5079  -16.0360   27.6656 O   0  0  0  0  0  0  0  0  0  0  0  0
    9.3078  -14.2045   28.7217 O   0  0  0  0  0  0  0  0  0  0  0  0
  2  1  1  6
  2  3  1  0
  3  4  1  0
  5  2  1  0
  5  7  1  0
  6  5  2  0
  8  7  1  0
  8 12  1  0
  8  9  1  6
 10  9  1  0
 11 10  2  0
 12 19  1  0
 13 12  2  0
 14 10  1  0
 16 15  1  6
 16 17  1  0
 18 20  1  0
 18 16  1  0
 18 19  1  6
 20 22  1  0
 21 20  2  0
M  END
$$$$
