CDV.pdb
     RDKit          3D

 22 21  0  0  1  0  0  0  0  0999 V2000
    7.0766  -15.3808   19.6274 N   0  0  0  0  0  0  0  0  0  0  0  0
    8.1450  -14.7436   20.3597 C   0  0  1  0  0  0  0  0  0  0  0  0
    7.8163  -13.3262   20.7333 C   0  0  0  0  0  0  0  0  0  0  0  0
    7.9941  -12.3024   19.2431 S   0  0  0  0  0  0  0  0  0  0  0  0
    8.3550  -15.5093   21.6210 C   0  0  0  0  0  0  0  0  0  0  0  0
    7.3223  -16.0620   22.1179 O   0  0  0  0  0  0  0  0  0  0  0  0
    9.6083  -15.6305   22.2470 N   0  0  0  0  0  0  0  0  0  0  0  0
    9.7297  -16.5094   23.4150 C   0  0  1  0  0  0  0  0  0  0  0  0
   10.7222  -17.5966   23.1539 C   0  0  0  0  0  0  0  0  0  0  0  0
   11.0455  -18.4697   24.2792 C   0  0  0  0  0  0  0  0  0  0  0  0
   10.2062  -18.8866   25.0929 O   0  0  0  0  0  0  0  0  0  0  0  0
   10.1247  -15.6838   24.5924 C   0  0  0  0  0  0  0  0  0  0  0  0
   11.1572  -15.0245   24.6572 O   0  0  0  0  0  0  0  0  0  0  0  0
   12.3664  -18.8669   24.4651 O   0  0  0  0  0  0  0  0  0  0  0  0
    9.1017  -13.0883   28.5969 C   0  0  0  0  0  0  0  0  0  0  0  0
    8.6023  -13.8474   27.3667 C   0  0  1  0  0  0  0  0  0  0  0  0
    8.0786  -12.9299   26.3128 C   0  0  0  0  0  0  0  0  0  0  0  0
    9.6055  -14.8387   26.8777 C   0  0  2  0  0  0  0  0  0  0  0  0
    9.2894  -15.6108   25.7598 N   0  0  0  0  0  0  0  0  0  0  0  0
    9.9324  -15.7308   28.0227 C   0  0  0  0  0  0  0  0  0  0  0  0
    9.6402  -16.9520   28.0342 O   0  0  0  0  0  0  0  0  0  0  0  0
   10.5838  -15.2131   29.1274 O   0  0  0  0  0  0  0  0  0  0  0  0
  2  1  1  1
  2  3  1  0
  3  4  1  0
  5  2  1  0
  5  7  1  0
  6  5  2  0
  8  7  1  0
  8 12  1  0
  8  9  1  6
 10  9  1  0
 11 10  2  0
 12 19  1  0
 13 12  2  0
 14 10  1  0
 16 15  1  1
 16 17  1  0
 18 20  1  0
 18 16  1  0
 18 19  1  6
 20 22  1  0
 21 20  2  0
M  END
$$$$
