CDV.pdb
     RDKit          3D

 22 21  0  0  1  0  0  0  0  0999 V2000
    8.4187  -14.9078   17.6661 N   0  0  0  0  0  0  0  0  0  0  0  0
    9.1363  -14.4383   18.8274 C   0  0  1  0  0  0  0  0  0  0  0  0
    8.9044  -12.9778   19.0910 C   0  0  0  0  0  0  0  0  0  0  0  0
    7.1865  -12.7785   19.6473 S   0  0  0  0  0  0  0  0  0  0  0  0
    8.6404  -15.1983   20.0096 C   0  0  0  0  0  0  0  0  0  0  0  0
    7.8665  -16.1770   19.7604 O   0  0  0  0  0  0  0  0  0  0  0  0
    8.9901  -14.8754   21.3327 N   0  0  0  0  0  0  0  0  0  0  0  0
    8.5688  -15.7753   22.4117 C   0  0  1  0  0  0  0  0  0  0  0  0
    9.1370  -17.1432   22.2074 C   0  0  0  0  0  0  0  0  0  0  0  0
   10.5926  -17.2425   22.1415 C   0  0  0  0  0  0  0  0  0  0  0  0
   11.3261  -16.3468   21.6944 O   0  0  0  0  0  0  0  0  0  0  0  0
    9.0056  -15.1940   23.7137 C   0  0  0  0  0  0  0  0  0  0  0  0
   10.1095  -14.6965   23.9111 O   0  0  0  0  0  0  0  0  0  0  0  0
   11.2097  -18.4017   22.6024 O   0  0  0  0  0  0  0  0  0  0  0  0
    7.3405  -12.4024   27.3207 C   0  0  0  0  0  0  0  0  0  0  0  0
    7.0749  -13.3438   26.1450 C   0  0  1  0  0  0  0  0  0  0  0  0
    6.5826  -12.6146   24.9396 C   0  0  0  0  0  0  0  0  0  0  0  0
    8.2304  -14.2526   25.8860 C   0  0  2  0  0  0  0  0  0  0  0  0
    8.1280  -15.1830   24.8518 N   0  0  0  0  0  0  0  0  0  0  0  0
    8.5265  -14.9575   27.1624 C   0  0  0  0  0  0  0  0  0  0  0  0
    8.3619  -16.1941   27.3067 O   0  0  0  0  0  0  0  0  0  0  0  0
    9.0029  -14.2397   28.2443 O   0  0  0  0  0  0  0  0  0  0  0  0
  2  1  1  6
  2  3  1  0
  3  4  1  0
  5  2  1  0
  5  7  1  0
  6  5  2  0
  8  7  1  0
  8 12  1  0
  8  9  1  6
 10  9  1  0
 11 10  2  0
 12 19  1  0
 13 12  2  0
 14 10  1  0
 16 15  1  1
 16 17  1  0
 18 20  1  0
 18 16  1  0
 18 19  1  6
 20 22  1  0
 21 20  2  0
M  END
$$$$
