CDV.pdb
     RDKit          3D

 22 21  0  0  1  0  0  0  0  0999 V2000
    7.1111  -16.1806   19.0847 N   0  0  0  0  0  0  0  0  0  0  0  0
    8.2815  -15.5810   19.6800 C   0  0  1  0  0  0  0  0  0  0  0  0
    8.3209  -14.0916   19.4891 C   0  0  0  0  0  0  0  0  0  0  0  0
    6.8400  -13.3905   20.2736 S   0  0  0  0  0  0  0  0  0  0  0  0
    8.2386  -15.8508   21.1451 C   0  0  0  0  0  0  0  0  0  0  0  0
    7.0925  -16.1118   21.6320 O   0  0  0  0  0  0  0  0  0  0  0  0
    9.3806  -15.8251   21.9651 N   0  0  0  0  0  0  0  0  0  0  0  0
    9.2594  -16.2775   23.3551 C   0  0  1  0  0  0  0  0  0  0  0  0
   10.3075  -17.2962   23.6697 C   0  0  0  0  0  0  0  0  0  0  0  0
   10.2424  -18.5514   22.9257 C   0  0  0  0  0  0  0  0  0  0  0  0
    9.3885  -19.4293   23.1265 O   0  0  0  0  0  0  0  0  0  0  0  0
    9.3673  -15.0914   24.2525 C   0  0  0  0  0  0  0  0  0  0  0  0
   10.2334  -14.2282   24.1534 O   0  0  0  0  0  0  0  0  0  0  0  0
   11.1847  -18.7936   21.9306 O   0  0  0  0  0  0  0  0  0  0  0  0
    7.1539  -12.0753   25.0337 C   0  0  0  0  0  0  0  0  0  0  0  0
    7.3558  -12.8799   26.3185 C   0  0  1  0  0  0  0  0  0  0  0  0
    6.0907  -13.5163   26.7893 C   0  0  0  0  0  0  0  0  0  0  0  0
    8.5144  -13.8153   26.2147 C   0  0  2  0  0  0  0  0  0  0  0  0
    8.4303  -14.8842   25.3225 N   0  0  0  0  0  0  0  0  0  0  0  0
    8.7845  -14.3301   27.5843 C   0  0  0  0  0  0  0  0  0  0  0  0
    8.6366  -15.5378   27.8949 O   0  0  0  0  0  0  0  0  0  0  0  0
    9.2163  -13.4593   28.5683 O   0  0  0  0  0  0  0  0  0  0  0  0
  2  1  1  6
  2  3  1  0
  3  4  1  0
  5  2  1  0
  5  7  1  0
  6  5  2  0
  8  7  1  0
  8 12  1  0
  8  9  1  1
 10  9  1  0
 11 10  2  0
 12 19  1  0
 13 12  2  0
 14 10  1  0
 16 15  1  6
 16 17  1  0
 18 20  1  0
 18 16  1  0
 18 19  1  6
 20 22  1  0
 21 20  2  0
M  END
$$$$
