WNH.pdb
     RDKit          3D

 33 35  0  0  1  0  0  0  0  0999 V2000
   28.5774  -22.1729  -14.8634 N   0  0  0  0  0  0  0  0  0  0  0  0
   27.2696  -21.8469  -14.3735 C   0  0  1  0  0  0  0  0  0  0  0  0
   27.1850  -20.5798  -13.6032 C   0  0  0  0  0  0  0  0  0  0  0  0
   27.9779  -20.5532  -12.3598 C   0  0  0  0  0  0  0  0  0  0  0  0
   29.3734  -20.4615  -12.2782 C   0  0  0  0  0  0  0  0  0  0  0  0
   29.7318  -20.4821  -10.9902 N   0  0  0  0  0  0  0  0  0  0  0  0
   28.6305  -20.5842  -10.1901 C   0  0  0  0  0  0  0  0  0  0  0  0
   28.4847  -20.6364   -8.8147 C   0  0  0  0  0  0  0  0  0  0  0  0
   27.2347  -20.7340   -8.2532 C   0  0  0  0  0  0  0  0  0  0  0  0
   26.1476  -20.7772   -9.0973 C   0  0  0  0  0  0  0  0  0  0  0  0
   26.2957  -20.7252  -10.4675 C   0  0  0  0  0  0  0  0  0  0  0  0
   27.5587  -20.6266  -11.0521 C   0  0  0  0  0  0  0  0  0  0  0  0
   26.2238  -21.9596  -15.4209 C   0  0  0  0  0  0  0  0  0  0  0  0
   26.5992  -21.9488  -16.6195 O   0  0  0  0  0  0  0  0  0  0  0  0
   22.7508  -26.3593  -15.4593 N   0  0  0  0  0  0  0  0  0  0  0  0
   23.4181  -25.3349  -16.2484 C   0  0  0  0  0  0  0  0  0  0  0  0
   23.2995  -25.4133  -17.4865 O   0  0  0  0  0  0  0  0  0  0  0  0
   24.1546  -24.3252  -15.5157 C   0  0  0  0  0  0  0  0  0  0  0  0
   23.9209  -22.9105  -15.9321 C   0  0  2  0  0  0  0  0  0  0  0  0
   24.8795  -22.0730  -15.1177 N   0  0  0  0  0  0  0  0  0  0  0  0
   22.5816  -22.4016  -15.5569 C   0  0  0  0  0  0  0  0  0  0  0  0
   21.5429  -22.9435  -16.0891 O   0  0  0  0  0  0  0  0  0  0  0  0
   22.3003  -21.3643  -14.6518 N   0  0  0  0  0  0  0  0  0  0  0  0
   20.9061  -20.9087  -14.4415 C   0  0  1  0  0  0  0  0  0  0  0  0
   21.0196  -19.7240  -13.5109 C   0  0  0  0  0  0  0  0  0  0  0  0
   21.5689  -20.1704  -12.2145 C   0  0  0  0  0  0  0  0  0  0  0  0
   21.8606  -21.4592  -11.8120 C   0  0  0  0  0  0  0  0  0  0  0  0
   22.3196  -21.3784  -10.5458 N   0  0  0  0  0  0  0  0  0  0  0  0
   22.3247  -20.1026  -10.1478 C   0  0  0  0  0  0  0  0  0  0  0  0
   21.8676  -19.3597  -11.1612 N   0  0  0  0  0  0  0  0  0  0  0  0
   20.3470  -20.4833  -15.7422 C   0  0  0  0  0  0  0  0  0  0  0  0
   21.1053  -19.9272  -16.7446 O   0  0  0  0  0  0  0  0  0  0  0  0
   19.0925  -20.6339  -15.9563 O   0  0  0  0  0  0  0  0  0  0  0  0
  2  1  1  6
  3  2  1  0
  4  3  1  0
  4  5  2  0
  6  5  1  0
  7  6  1  0
  8  7  2  0
  9  8  1  0
 10  9  2  0
 10 11  1  0
 11 12  2  0
 12  7  1  0
 12  4  1  0
 13 14  2  0
 13  2  1  0
 16 18  1  0
 16 15  1  0
 17 16  2  0
 19 18  1  1
 19 20  1  0
 20 13  1  0
 21 19  1  0
 22 21  2  0
 23 21  1  0
 24 23  1  0
 25 26  1  0
 24 25  1  1
 26 27  2  0
 28 27  1  0
 29 28  1  0
 30 29  2  0
 30 26  1  0
 31 24  1  0
 31 32  1  0
 33 31  2  0
M  END
$$$$
