WNH.pdb
     RDKit          3D

 33 35  0  0  1  0  0  0  0  0999 V2000
   26.4352  -11.2958  -19.8260 N   0  0  0  0  0  0  0  0  0  0  0  0
   25.6742  -10.6296  -18.8092 C   0  0  1  0  0  0  0  0  0  0  0  0
   26.4798  -10.0077  -17.7275 C   0  0  0  0  0  0  0  0  0  0  0  0
   27.3789  -10.9317  -17.0112 C   0  0  0  0  0  0  0  0  0  0  0  0
   28.7733  -10.8229  -16.9311 C   0  0  0  0  0  0  0  0  0  0  0  0
   29.2449  -11.8485  -16.2145 N   0  0  0  0  0  0  0  0  0  0  0  0
   28.2220  -12.6531  -15.8025 C   0  0  0  0  0  0  0  0  0  0  0  0
   28.2002  -13.8119  -15.0461 C   0  0  0  0  0  0  0  0  0  0  0  0
   27.0079  -14.4332  -14.7638 C   0  0  0  0  0  0  0  0  0  0  0  0
   25.8517  -13.8685  -15.2542 C   0  0  0  0  0  0  0  0  0  0  0  0
   25.8762  -12.7137  -16.0078 C   0  0  0  0  0  0  0  0  0  0  0  0
   27.0794  -12.0719  -16.3030 C   0  0  0  0  0  0  0  0  0  0  0  0
   24.6516   -9.7121  -19.3714 C   0  0  0  0  0  0  0  0  0  0  0  0
   24.8184   -9.3089  -20.5492 O   0  0  0  0  0  0  0  0  0  0  0  0
   19.8937   -8.8445  -21.6356 N   0  0  0  0  0  0  0  0  0  0  0  0
   20.2175   -8.6261  -20.2340 C   0  0  0  0  0  0  0  0  0  0  0  0
   19.4459   -7.8918  -19.5869 O   0  0  0  0  0  0  0  0  0  0  0  0
   21.4056   -9.2840  -19.7298 C   0  0  0  0  0  0  0  0  0  0  0  0
   22.4853   -8.3884  -19.2183 C   0  0  2  0  0  0  0  0  0  0  0  0
   23.5473   -9.2999  -18.6486 N   0  0  0  0  0  0  0  0  0  0  0  0
   22.0624   -7.5565  -18.0682 C   0  0  0  0  0  0  0  0  0  0  0  0
   21.3714   -8.1034  -17.1306 O   0  0  0  0  0  0  0  0  0  0  0  0
   22.3414   -6.1938  -17.8695 N   0  0  0  0  0  0  0  0  0  0  0  0
   21.7457   -5.4645  -16.7255 C   0  0  1  0  0  0  0  0  0  0  0  0
   20.2547   -5.6577  -16.8742 C   0  0  0  0  0  0  0  0  0  0  0  0
   19.6771   -4.4916  -17.5729 C   0  0  0  0  0  0  0  0  0  0  0  0
   20.3347   -3.3766  -18.0551 C   0  0  0  0  0  0  0  0  0  0  0  0
   19.3955   -2.5726  -18.5956 N   0  0  0  0  0  0  0  0  0  0  0  0
   18.1908   -3.1375  -18.4698 C   0  0  0  0  0  0  0  0  0  0  0  0
   18.3551   -4.3089  -17.8464 N   0  0  0  0  0  0  0  0  0  0  0  0
   22.2176   -6.0878  -15.4707 C   0  0  0  0  0  0  0  0  0  0  0  0
   21.7485   -5.7332  -14.2284 O   0  0  0  0  0  0  0  0  0  0  0  0
   23.1108   -7.0047  -15.5321 O   0  0  0  0  0  0  0  0  0  0  0  0
  2  1  1  6
  3  2  1  0
  4  3  1  0
  4  5  2  0
  6  5  1  0
  7  6  1  0
  8  7  2  0
  9  8  1  0
 10  9  2  0
 10 11  1  0
 11 12  2  0
 12  7  1  0
 12  4  1  0
 13 14  2  0
 13  2  1  0
 16 18  1  0
 16 15  1  0
 17 16  2  0
 19 18  1  1
 19 20  1  0
 20 13  1  0
 21 19  1  0
 22 21  2  0
 23 21  1  0
 24 23  1  0
 25 26  1  0
 24 25  1  6
 26 27  2  0
 28 27  1  0
 29 28  1  0
 30 29  2  0
 30 26  1  0
 31 24  1  0
 31 32  1  0
 33 31  2  0
M  END
$$$$
