WNH.pdb
     RDKit          3D

 33 35  0  0  1  0  0  0  0  0999 V2000
   26.8660  -19.7292  -12.2936 N   0  0  0  0  0  0  0  0  0  0  0  0
   26.2852  -21.0289  -12.1197 C   0  0  1  0  0  0  0  0  0  0  0  0
   25.6759  -21.2717  -10.7871 C   0  0  0  0  0  0  0  0  0  0  0  0
   26.4860  -20.8191   -9.6407 C   0  0  0  0  0  0  0  0  0  0  0  0
   26.1005  -19.8667   -8.6884 C   0  0  0  0  0  0  0  0  0  0  0  0
   27.0983  -19.7044   -7.8132 N   0  0  0  0  0  0  0  0  0  0  0  0
   28.1508  -20.5124   -8.1343 C   0  0  0  0  0  0  0  0  0  0  0  0
   29.3865  -20.7055   -7.5417 C   0  0  0  0  0  0  0  0  0  0  0  0
   30.2782  -21.6042   -8.0749 C   0  0  0  0  0  0  0  0  0  0  0  0
   29.9025  -22.2962   -9.2046 C   0  0  0  0  0  0  0  0  0  0  0  0
   28.6704  -22.1018   -9.7932 C   0  0  0  0  0  0  0  0  0  0  0  0
   27.7548  -21.1921   -9.2634 C   0  0  0  0  0  0  0  0  0  0  0  0
   25.3929  -21.4097  -13.2433 C   0  0  0  0  0  0  0  0  0  0  0  0
   24.7444  -20.4928  -13.8059 O   0  0  0  0  0  0  0  0  0  0  0  0
   26.6796  -23.0736  -16.4293 N   0  0  0  0  0  0  0  0  0  0  0  0
   26.1569  -24.3898  -16.0952 C   0  0  0  0  0  0  0  0  0  0  0  0
   26.8080  -25.3723  -16.5000 O   0  0  0  0  0  0  0  0  0  0  0  0
   24.9306  -24.4271  -15.3248 C   0  0  0  0  0  0  0  0  0  0  0  0
   24.4072  -23.1085  -14.8592 C   0  0  2  0  0  0  0  0  0  0  0  0
   25.2606  -22.7165  -13.6753 N   0  0  0  0  0  0  0  0  0  0  0  0
   23.0334  -23.1826  -14.3108 C   0  0  0  0  0  0  0  0  0  0  0  0
   22.8150  -23.9347  -13.2898 O   0  0  0  0  0  0  0  0  0  0  0  0
   21.9011  -22.4999  -14.7863 N   0  0  0  0  0  0  0  0  0  0  0  0
   20.5827  -22.6889  -14.1369 C   0  0  1  0  0  0  0  0  0  0  0  0
   19.9529  -21.3156  -14.1271 C   0  0  0  0  0  0  0  0  0  0  0  0
   18.5771  -21.4115  -13.5984 C   0  0  0  0  0  0  0  0  0  0  0  0
   18.1482  -22.0537  -12.4530 C   0  0  0  0  0  0  0  0  0  0  0  0
   16.8102  -21.8899  -12.3914 N   0  0  0  0  0  0  0  0  0  0  0  0
   16.3934  -21.1785  -13.4431 C   0  0  0  0  0  0  0  0  0  0  0  0
   17.4665  -20.8832  -14.1842 N   0  0  0  0  0  0  0  0  0  0  0  0
   19.7773  -23.6130  -14.9633 C   0  0  0  0  0  0  0  0  0  0  0  0
   18.8097  -24.4406  -14.4456 O   0  0  0  0  0  0  0  0  0  0  0  0
   19.9844  -23.6545  -16.2272 O   0  0  0  0  0  0  0  0  0  0  0  0
  2  1  1  6
  3  2  1  0
  4  3  1  0
  4  5  2  0
  6  5  1  0
  7  6  1  0
  8  7  2  0
  9  8  1  0
 10  9  2  0
 10 11  1  0
 11 12  2  0
 12  7  1  0
 12  4  1  0
 13 14  2  0
 13  2  1  0
 16 18  1  0
 16 15  1  0
 17 16  2  0
 19 18  1  1
 19 20  1  0
 20 13  1  0
 21 19  1  0
 22 21  2  0
 23 21  1  0
 24 23  1  0
 25 26  1  0
 24 25  1  6
 26 27  2  0
 28 27  1  0
 29 28  1  0
 30 29  2  0
 30 26  1  0
 31 24  1  0
 31 32  1  0
 33 31  2  0
M  END
$$$$
