WNH.pdb
     RDKit          3D

 33 35  0  0  1  0  0  0  0  0999 V2000
   25.0839  -21.9816  -13.4301 N   0  0  0  0  0  0  0  0  0  0  0  0
   24.7791  -21.3276  -12.1907 C   0  0  1  0  0  0  0  0  0  0  0  0
   25.6733  -20.1942  -11.8418 C   0  0  0  0  0  0  0  0  0  0  0  0
   26.9765  -20.5826  -11.2706 C   0  0  0  0  0  0  0  0  0  0  0  0
   28.0812  -21.0533  -11.9919 C   0  0  0  0  0  0  0  0  0  0  0  0
   29.0737  -21.3180  -11.1358 N   0  0  0  0  0  0  0  0  0  0  0  0
   28.6854  -21.0443   -9.8560 C   0  0  0  0  0  0  0  0  0  0  0  0
   29.3461  -21.1470   -8.6442 C   0  0  0  0  0  0  0  0  0  0  0  0
   28.7139  -20.7913   -7.4775 C   0  0  0  0  0  0  0  0  0  0  0  0
   27.4170  -20.3351   -7.5572 C   0  0  0  0  0  0  0  0  0  0  0  0
   26.7610  -20.2338   -8.7661 C   0  0  0  0  0  0  0  0  0  0  0  0
   27.3899  -20.5919   -9.9590 C   0  0  0  0  0  0  0  0  0  0  0  0
   23.3391  -20.9907  -12.0627 C   0  0  0  0  0  0  0  0  0  0  0  0
   22.9717  -20.4010  -11.0163 O   0  0  0  0  0  0  0  0  0  0  0  0
   19.9413  -19.8718  -10.6029 N   0  0  0  0  0  0  0  0  0  0  0  0
   20.3768  -18.9057  -11.5999 C   0  0  0  0  0  0  0  0  0  0  0  0
   20.2496  -17.7008  -11.3080 O   0  0  0  0  0  0  0  0  0  0  0  0
   20.9152  -19.4409  -12.8338 C   0  0  0  0  0  0  0  0  0  0  0  0
   20.9534  -20.9296  -12.9423 C   0  0  2  0  0  0  0  0  0  0  0  0
   22.4145  -21.3024  -13.0423 N   0  0  0  0  0  0  0  0  0  0  0  0
   20.3588  -21.4423  -14.1982 C   0  0  0  0  0  0  0  0  0  0  0  0
   19.0811  -21.3930  -14.3423 O   0  0  0  0  0  0  0  0  0  0  0  0
   21.0494  -21.9901  -15.2923 N   0  0  0  0  0  0  0  0  0  0  0  0
   20.3113  -22.4514  -16.4914 C   0  0  1  0  0  0  0  0  0  0  0  0
   21.2096  -23.4863  -17.1276 C   0  0  0  0  0  0  0  0  0  0  0  0
   22.4697  -22.8449  -17.5547 C   0  0  0  0  0  0  0  0  0  0  0  0
   22.6825  -22.0337  -18.6524 C   0  0  0  0  0  0  0  0  0  0  0  0
   23.9907  -21.7030  -18.6457 N   0  0  0  0  0  0  0  0  0  0  0  0
   24.5947  -22.2711  -17.5977 C   0  0  0  0  0  0  0  0  0  0  0  0
   23.6725  -22.9698  -16.9274 N   0  0  0  0  0  0  0  0  0  0  0  0
   19.0442  -23.0755  -16.0550 C   0  0  0  0  0  0  0  0  0  0  0  0
   17.8262  -22.7889  -16.6236 O   0  0  0  0  0  0  0  0  0  0  0  0
   19.0705  -23.9268  -15.0975 O   0  0  0  0  0  0  0  0  0  0  0  0
  2  1  1  6
  3  2  1  0
  4  3  1  0
  4  5  2  0
  6  5  1  0
  7  6  1  0
  8  7  2  0
  9  8  1  0
 10  9  2  0
 10 11  1  0
 11 12  2  0
 12  7  1  0
 12  4  1  0
 13 14  2  0
 13  2  1  0
 16 18  1  0
 16 15  1  0
 17 16  2  0
 19 18  1  6
 19 20  1  0
 20 13  1  0
 21 19  1  0
 22 21  2  0
 23 21  1  0
 24 23  1  0
 25 26  1  0
 24 25  1  1
 26 27  2  0
 28 27  1  0
 29 28  1  0
 30 29  2  0
 30 26  1  0
 31 24  1  0
 31 32  1  0
 33 31  2  0
M  END
$$$$
