KMA.pdb
     RDKit          3D

 23 22  0  0  1  0  0  0  0  0999 V2000
   19.0996  -11.7669  -18.4282 N   0  0  0  0  0  0  0  0  0  0  0  0
   18.5127  -11.2433  -17.2089 C   0  0  1  0  0  0  0  0  0  0  0  0
   17.8639  -12.3690  -16.4760 C   0  0  0  0  0  0  0  0  0  0  0  0
   17.0961  -13.1915  -17.5146 C   0  0  0  0  0  0  0  0  0  0  0  0
   15.9514  -13.9349  -16.8705 C   0  0  0  0  0  0  0  0  0  0  0  0
   16.5078  -15.2511  -16.3637 C   0  0  0  0  0  0  0  0  0  0  0  0
   16.6748  -15.1884  -14.9357 N   0  0  0  0  0  0  0  0  0  0  0  0
   19.5797  -10.5763  -16.4163 C   0  0  0  0  0  0  0  0  0  0  0  0
   19.3357  -10.0837  -15.2848 O   0  0  0  0  0  0  0  0  0  0  0  0
   27.0866  -10.0228  -14.4033 C   0  0  0  0  0  0  0  0  0  0  0  0
   25.8212  -10.7880  -15.4275 S   0  0  0  0  0  0  0  0  0  0  0  0
   24.4347   -9.6927  -15.7217 C   0  0  0  0  0  0  0  0  0  0  0  0
   23.3350  -10.3483  -16.5239 C   0  0  0  0  0  0  0  0  0  0  0  0
   21.9729   -9.8017  -16.1416 C   0  0  2  0  0  0  0  0  0  0  0  0
   20.9157  -10.4608  -16.8884 N   0  0  0  0  0  0  0  0  0  0  0  0
   21.8793   -8.3447  -16.4158 C   0  0  0  0  0  0  0  0  0  0  0  0
   22.0578   -7.8555  -17.5715 O   0  0  0  0  0  0  0  0  0  0  0  0
   20.0550   -5.5157  -15.4022 C   0  0  0  0  0  0  0  0  0  0  0  0
   21.4691   -5.9707  -15.6893 C   0  0  2  0  0  0  0  0  0  0  0  0
   21.5799   -7.4025  -15.3816 N   0  0  0  0  0  0  0  0  0  0  0  0
   22.3821   -5.2435  -14.7833 C   0  0  0  0  0  0  0  0  0  0  0  0
   22.6420   -3.9072  -15.0419 O   0  0  0  0  0  0  0  0  0  0  0  0
   22.9206   -5.7949  -13.8007 O   0  0  0  0  0  0  0  0  0  0  0  0
  2  1  1  6
  3  2  1  0
  4  3  1  0
  5  4  1  0
  6  5  1  0
  7  6  1  0
  8  9  2  0
  8  2  1  0
 10 11  1  0
 11 12  1  0
 14 13  1  6
 13 12  1  0
 14 15  1  0
 15  8  1  0
 16 14  1  0
 17 16  2  0
 19 18  1  1
 19 20  1  0
 20 16  1  0
 21 19  1  0
 22 21  1  0
 23 21  2  0
M  END
$$$$
