KMA.pdb
     RDKit          3D

 23 22  0  0  1  0  0  0  0  0999 V2000
   21.8910  -22.5505  -13.2533 N   0  0  0  0  0  0  0  0  0  0  0  0
   21.7646  -21.1320  -12.9758 C   0  0  1  0  0  0  0  0  0  0  0  0
   20.8791  -20.9605  -11.7877 C   0  0  0  0  0  0  0  0  0  0  0  0
   19.6314  -21.8127  -12.0366 C   0  0  0  0  0  0  0  0  0  0  0  0
   19.2779  -22.6173  -10.8096 C   0  0  0  0  0  0  0  0  0  0  0  0
   17.9495  -23.2921  -11.0904 C   0  0  0  0  0  0  0  0  0  0  0  0
   17.6022  -24.1536   -9.9911 N   0  0  0  0  0  0  0  0  0  0  0  0
   23.1238  -20.5649  -12.7703 C   0  0  0  0  0  0  0  0  0  0  0  0
   23.2947  -19.3281  -12.6164 O   0  0  0  0  0  0  0  0  0  0  0  0
   26.4955  -19.8822   -7.2452 C   0  0  0  0  0  0  0  0  0  0  0  0
   26.8207  -20.9895   -8.6251 S   0  0  0  0  0  0  0  0  0  0  0  0
   26.1014  -20.3952  -10.1541 C   0  0  0  0  0  0  0  0  0  0  0  0
   26.2677  -21.3726  -11.2941 C   0  0  0  0  0  0  0  0  0  0  0  0
   25.6300  -20.8488  -12.5667 C   0  0  2  0  0  0  0  0  0  0  0  0
   24.2886  -21.3793  -12.7371 N   0  0  0  0  0  0  0  0  0  0  0  0
   26.4223  -21.2299  -13.7642 C   0  0  0  0  0  0  0  0  0  0  0  0
   26.7881  -22.4226  -13.9885 O   0  0  0  0  0  0  0  0  0  0  0  0
   26.3598  -20.9447  -17.0232 C   0  0  0  0  0  0  0  0  0  0  0  0
   27.4449  -20.6919  -15.9995 C   0  0  2  0  0  0  0  0  0  0  0  0
   26.8210  -20.2634  -14.7408 N   0  0  0  0  0  0  0  0  0  0  0  0
   28.2889  -19.5805  -16.4849 C   0  0  0  0  0  0  0  0  0  0  0  0
   29.4177  -19.8854  -17.2284 O   0  0  0  0  0  0  0  0  0  0  0  0
   28.0155  -18.3856  -16.2455 O   0  0  0  0  0  0  0  0  0  0  0  0
  2  1  1  1
  3  2  1  0
  4  3  1  0
  5  4  1  0
  6  5  1  0
  7  6  1  0
  8  9  2  0
  8  2  1  0
 10 11  1  0
 11 12  1  0
 14 13  1  1
 13 12  1  0
 14 15  1  0
 15  8  1  0
 16 14  1  0
 17 16  2  0
 19 18  1  6
 19 20  1  0
 20 16  1  0
 21 19  1  0
 22 21  1  0
 23 21  2  0
M  END
$$$$
