KMA.pdb
     RDKit          3D

 23 22  0  0  1  0  0  0  0  0999 V2000
   15.7909  -12.5632  -10.3991 N   0  0  0  0  0  0  0  0  0  0  0  0
   15.2598  -11.3229  -10.9328 C   0  0  1  0  0  0  0  0  0  0  0  0
   13.8638  -11.1543  -10.4348 C   0  0  0  0  0  0  0  0  0  0  0  0
   13.0257  -12.2629  -11.0777 C   0  0  0  0  0  0  0  0  0  0  0  0
   11.5675  -12.1090  -10.7198 C   0  0  0  0  0  0  0  0  0  0  0  0
   10.8251  -13.2499  -11.3876 C   0  0  0  0  0  0  0  0  0  0  0  0
    9.4396  -13.2188  -10.9993 N   0  0  0  0  0  0  0  0  0  0  0  0
   16.1568  -10.2084  -10.5271 C   0  0  0  0  0  0  0  0  0  0  0  0
   16.7230  -10.2069   -9.4037 O   0  0  0  0  0  0  0  0  0  0  0  0
   21.6879   -5.0688  -12.4345 C   0  0  0  0  0  0  0  0  0  0  0  0
   20.4821   -6.2882  -12.9777 S   0  0  0  0  0  0  0  0  0  0  0  0
   19.1849   -6.5426  -11.7690 C   0  0  0  0  0  0  0  0  0  0  0  0
   18.2424   -7.6592  -12.1530 C   0  0  0  0  0  0  0  0  0  0  0  0
   17.3053   -8.0064  -11.0121 C   0  0  2  0  0  0  0  0  0  0  0  0
   16.4195   -9.0985  -11.3758 N   0  0  0  0  0  0  0  0  0  0  0  0
   16.4595   -6.8447  -10.6354 C   0  0  0  0  0  0  0  0  0  0  0  0
   15.6112   -6.3338  -11.4267 O   0  0  0  0  0  0  0  0  0  0  0  0
   15.6296   -4.9448   -7.5097 C   0  0  0  0  0  0  0  0  0  0  0  0
   15.7276   -5.0643   -9.0148 C   0  0  2  0  0  0  0  0  0  0  0  0
   16.5555   -6.2311   -9.3465 N   0  0  0  0  0  0  0  0  0  0  0  0
   16.4156   -3.8627   -9.5305 C   0  0  0  0  0  0  0  0  0  0  0  0
   17.6638   -4.0159  -10.1123 O   0  0  0  0  0  0  0  0  0  0  0  0
   15.9078   -2.7241   -9.4570 O   0  0  0  0  0  0  0  0  0  0  0  0
  2  1  1  1
  3  2  1  0
  4  3  1  0
  5  4  1  0
  6  5  1  0
  7  6  1  0
  8  9  2  0
  8  2  1  0
 10 11  1  0
 11 12  1  0
 14 13  1  6
 13 12  1  0
 14 15  1  0
 15  8  1  0
 16 14  1  0
 17 16  2  0
 19 18  1  1
 19 20  1  0
 20 16  1  0
 21 19  1  0
 22 21  1  0
 23 21  2  0
M  END
$$$$
