KMA.pdb
     RDKit          3D

 23 22  0  0  1  0  0  0  0  0999 V2000
   27.7901  -22.0850  -17.1057 N   0  0  0  0  0  0  0  0  0  0  0  0
   27.5185  -20.9531  -16.2397 C   0  0  1  0  0  0  0  0  0  0  0  0
   27.1291  -19.7909  -17.0899 C   0  0  0  0  0  0  0  0  0  0  0  0
   28.4233  -19.2055  -17.6620 C   0  0  0  0  0  0  0  0  0  0  0  0
   28.9490  -20.0637  -18.7868 C   0  0  0  0  0  0  0  0  0  0  0  0
   30.1054  -19.3105  -19.4148 C   0  0  0  0  0  0  0  0  0  0  0  0
   30.7077  -20.1180  -20.4426 N   0  0  0  0  0  0  0  0  0  0  0  0
   26.4597  -21.3401  -15.2698 C   0  0  0  0  0  0  0  0  0  0  0  0
   25.5962  -22.2067  -15.5632 O   0  0  0  0  0  0  0  0  0  0  0  0
   24.1003  -21.4842   -7.6900 C   0  0  0  0  0  0  0  0  0  0  0  0
   25.1931  -20.7421   -8.9111 S   0  0  0  0  0  0  0  0  0  0  0  0
   24.7459  -21.1969  -10.5849 C   0  0  0  0  0  0  0  0  0  0  0  0
   25.7430  -20.7049  -11.6078 C   0  0  0  0  0  0  0  0  0  0  0  0
   25.3407  -21.1150  -13.0115 C   0  0  2  0  0  0  0  0  0  0  0  0
   26.3671  -20.7592  -13.9756 N   0  0  0  0  0  0  0  0  0  0  0  0
   24.0794  -20.4498  -13.4278 C   0  0  0  0  0  0  0  0  0  0  0  0
   24.0497  -19.2652  -13.8780 O   0  0  0  0  0  0  0  0  0  0  0  0
   21.6199  -20.4470  -15.3463 C   0  0  0  0  0  0  0  0  0  0  0  0
   21.5960  -20.4585  -13.8336 C   0  0  2  0  0  0  0  0  0  0  0  0
   22.8152  -21.1144  -13.3434 N   0  0  0  0  0  0  0  0  0  0  0  0
   20.4412  -21.2693  -13.3953 C   0  0  0  0  0  0  0  0  0  0  0  0
   19.1658  -20.8119  -13.6855 O   0  0  0  0  0  0  0  0  0  0  0  0
   20.5819  -22.3450  -12.7765 O   0  0  0  0  0  0  0  0  0  0  0  0
  2  1  1  6
  3  2  1  0
  4  3  1  0
  5  4  1  0
  6  5  1  0
  7  6  1  0
  8  9  2  0
  8  2  1  0
 10 11  1  0
 11 12  1  0
 14 13  1  1
 13 12  1  0
 14 15  1  0
 15  8  1  0
 16 14  1  0
 17 16  2  0
 19 18  1  6
 19 20  1  0
 20 16  1  0
 21 19  1  0
 22 21  1  0
 23 21  2  0
M  END
$$$$
