KMA.pdb
     RDKit          3D

 23 22  0  0  1  0  0  0  0  0999 V2000
   22.4737  -16.2842  -19.2077 N   0  0  0  0  0  0  0  0  0  0  0  0
   22.7158  -14.9839  -19.8042 C   0  0  1  0  0  0  0  0  0  0  0  0
   21.6985  -14.7574  -20.8714 C   0  0  0  0  0  0  0  0  0  0  0  0
   22.4058  -14.9724  -22.2124 C   0  0  0  0  0  0  0  0  0  0  0  0
   22.8812  -16.3986  -22.3456 C   0  0  0  0  0  0  0  0  0  0  0  0
   23.5112  -16.5288  -23.7185 C   0  0  0  0  0  0  0  0  0  0  0  0
   23.8908  -17.8977  -23.9490 N   0  0  0  0  0  0  0  0  0  0  0  0
   22.6688  -13.9535  -18.7329 C   0  0  0  0  0  0  0  0  0  0  0  0
   21.7028  -13.8965  -17.9291 O   0  0  0  0  0  0  0  0  0  0  0  0
   27.3743  -12.7145  -14.5569 C   0  0  0  0  0  0  0  0  0  0  0  0
   26.7977  -11.0390  -14.8674 S   0  0  0  0  0  0  0  0  0  0  0  0
   25.2190  -11.0123  -15.7134 C   0  0  0  0  0  0  0  0  0  0  0  0
   25.1399  -12.0267  -16.8302 C   0  0  0  0  0  0  0  0  0  0  0  0
   23.7524  -12.0665  -17.4414 C   0  0  2  0  0  0  0  0  0  0  0  0
   23.6998  -12.9898  -18.5615 N   0  0  0  0  0  0  0  0  0  0  0  0
   23.3430  -10.7281  -17.9393 C   0  0  0  0  0  0  0  0  0  0  0  0
   23.8970  -10.1721  -18.9346 O   0  0  0  0  0  0  0  0  0  0  0  0
   20.4587   -8.3970  -17.4207 C   0  0  0  0  0  0  0  0  0  0  0  0
   21.8770   -8.6843  -17.8623 C   0  0  2  0  0  0  0  0  0  0  0  0
   22.2908   -9.9841  -17.3178 N   0  0  0  0  0  0  0  0  0  0  0  0
   22.7603   -7.6514  -17.2826 C   0  0  0  0  0  0  0  0  0  0  0  0
   23.6809   -8.0350  -16.3206 O   0  0  0  0  0  0  0  0  0  0  0  0
   22.7003   -6.4540  -17.6324 O   0  0  0  0  0  0  0  0  0  0  0  0
  2  1  1  1
  3  2  1  0
  4  3  1  0
  5  4  1  0
  6  5  1  0
  7  6  1  0
  8  9  2  0
  8  2  1  0
 10 11  1  0
 11 12  1  0
 14 13  1  6
 13 12  1  0
 14 15  1  0
 15  8  1  0
 16 14  1  0
 17 16  2  0
 19 18  1  1
 19 20  1  0
 20 16  1  0
 21 19  1  0
 22 21  1  0
 23 21  2  0
M  END
$$$$
