KMA.pdb
     RDKit          3D

 23 22  0  0  1  0  0  0  0  0999 V2000
   23.3655  -14.7056  -20.5637 N   0  0  0  0  0  0  0  0  0  0  0  0
   24.0136  -13.4387  -20.8467 C   0  0  1  0  0  0  0  0  0  0  0  0
   23.5049  -12.9297  -22.1533 C   0  0  0  0  0  0  0  0  0  0  0  0
   23.9996  -13.8988  -23.2308 C   0  0  0  0  0  0  0  0  0  0  0  0
   23.6044  -13.4190  -24.6061 C   0  0  0  0  0  0  0  0  0  0  0  0
   24.1152  -14.4466  -25.5970 C   0  0  0  0  0  0  0  0  0  0  0  0
   23.6503  -14.1175  -26.9187 N   0  0  0  0  0  0  0  0  0  0  0  0
   23.7466  -12.5061  -19.7196 C   0  0  0  0  0  0  0  0  0  0  0  0
   22.6641  -12.5537  -19.0803 O   0  0  0  0  0  0  0  0  0  0  0  0
   27.8487  -11.7126  -15.0056 C   0  0  0  0  0  0  0  0  0  0  0  0
   26.3520  -10.9043  -14.4203 S   0  0  0  0  0  0  0  0  0  0  0  0
   25.3168  -10.3384  -15.7682 C   0  0  0  0  0  0  0  0  0  0  0  0
   25.4596  -11.1892  -17.0085 C   0  0  0  0  0  0  0  0  0  0  0  0
   24.5305  -10.7174  -18.1105 C   0  0  2  0  0  0  0  0  0  0  0  0
   24.6878  -11.5231  -19.3088 N   0  0  0  0  0  0  0  0  0  0  0  0
   24.8020   -9.3037  -18.4775 C   0  0  0  0  0  0  0  0  0  0  0  0
   25.8199   -8.9569  -19.1486 O   0  0  0  0  0  0  0  0  0  0  0  0
   22.8823   -6.0964  -18.5289 C   0  0  0  0  0  0  0  0  0  0  0  0
   24.1859   -6.8644  -18.5194 C   0  0  2  0  0  0  0  0  0  0  0  0
   23.9221   -8.2441  -18.0905 N   0  0  0  0  0  0  0  0  0  0  0  0
   25.0804   -6.2452  -17.5196 C   0  0  0  0  0  0  0  0  0  0  0  0
   25.2897   -6.9086  -16.3212 O   0  0  0  0  0  0  0  0  0  0  0  0
   25.6473   -5.1512  -17.7231 O   0  0  0  0  0  0  0  0  0  0  0  0
  2  1  1  1
  3  2  1  0
  4  3  1  0
  5  4  1  0
  6  5  1  0
  7  6  1  0
  8  9  2  0
  8  2  1  0
 10 11  1  0
 11 12  1  0
 14 13  1  1
 13 12  1  0
 14 15  1  0
 15  8  1  0
 16 14  1  0
 17 16  2  0
 19 18  1  1
 19 20  1  0
 20 16  1  0
 21 19  1  0
 22 21  1  0
 23 21  2  0
M  END
$$$$
