KMA.pdb
     RDKit          3D

 23 22  0  0  1  0  0  0  0  0999 V2000
   18.9785  -23.9548   -9.9051 N   0  0  0  0  0  0  0  0  0  0  0  0
   18.2708  -25.0791   -9.3217 C   0  0  1  0  0  0  0  0  0  0  0  0
   19.0583  -26.3190   -9.5818 C   0  0  0  0  0  0  0  0  0  0  0  0
   18.9484  -26.6089  -11.0814 C   0  0  0  0  0  0  0  0  0  0  0  0
   17.7090  -27.4160  -11.3822 C   0  0  0  0  0  0  0  0  0  0  0  0
   17.7101  -27.6893  -12.8736 C   0  0  0  0  0  0  0  0  0  0  0  0
   16.4814  -28.3388  -13.2475 N   0  0  0  0  0  0  0  0  0  0  0  0
   18.0713  -24.8146   -7.8720 C   0  0  0  0  0  0  0  0  0  0  0  0
   18.9099  -24.1478   -7.2126 O   0  0  0  0  0  0  0  0  0  0  0  0
   12.6522  -23.0942   -4.0134 C   0  0  0  0  0  0  0  0  0  0  0  0
   13.1332  -22.9284   -5.7389 S   0  0  0  0  0  0  0  0  0  0  0  0
   14.8615  -23.3195   -6.0005 C   0  0  0  0  0  0  0  0  0  0  0  0
   15.2254  -24.7026   -5.5133 C   0  0  0  0  0  0  0  0  0  0  0  0
   16.6908  -25.0061   -5.7601 C   0  0  2  0  0  0  0  0  0  0  0  0
   16.9370  -25.2946   -7.1622 N   0  0  0  0  0  0  0  0  0  0  0  0
   17.1390  -26.1823   -4.9711 C   0  0  0  0  0  0  0  0  0  0  0  0
   17.0129  -27.3722   -5.3896 O   0  0  0  0  0  0  0  0  0  0  0  0
   18.9480  -26.7812   -1.7122 C   0  0  0  0  0  0  0  0  0  0  0  0
   18.1238  -27.2220   -2.9020 C   0  0  2  0  0  0  0  0  0  0  0  0
   17.7436  -26.0374   -3.6826 N   0  0  0  0  0  0  0  0  0  0  0  0
   16.8831  -27.8473   -2.3994 C   0  0  0  0  0  0  0  0  0  0  0  0
   16.9095  -29.1927   -2.0687 O   0  0  0  0  0  0  0  0  0  0  0  0
   15.8218  -27.2027   -2.2658 O   0  0  0  0  0  0  0  0  0  0  0  0
  2  1  1  1
  3  2  1  0
  4  3  1  0
  5  4  1  0
  6  5  1  0
  7  6  1  0
  8  9  2  0
  8  2  1  0
 10 11  1  0
 11 12  1  0
 14 13  1  6
 13 12  1  0
 14 15  1  0
 15  8  1  0
 16 14  1  0
 17 16  2  0
 19 18  1  1
 19 20  1  0
 20 16  1  0
 21 19  1  0
 22 21  1  0
 23 21  2  0
M  END
$$$$
