APY.pdb
     RDKit          3D

 25 26  0  0  1  0  0  0  0  0999 V2000
   16.1549   -7.0208  -20.2694 C   0  0  0  0  0  0  0  0  0  0  0  0
   17.3636   -7.8996  -20.5226 C   0  0  2  0  0  0  0  0  0  0  0  0
   16.9339   -9.2587  -20.4739 N   0  0  0  0  0  0  0  0  0  0  0  0
   18.5114   -7.5462  -19.6915 C   0  0  0  0  0  0  0  0  0  0  0  0
   18.6253   -8.0303  -18.5180 O   0  0  0  0  0  0  0  0  0  0  0  0
   19.5778   -6.6575  -20.0963 N   0  0  0  0  0  0  0  0  0  0  0  0
   19.7385   -6.2735  -21.4591 C   0  0  0  0  0  0  0  0  0  0  0  0
   20.8165   -5.2334  -21.4657 C   0  0  0  0  0  0  0  0  0  0  0  0
   21.1752   -4.9547  -20.0495 C   0  0  0  0  0  0  0  0  0  0  0  0
   20.5774   -6.0829  -19.2796 C   0  0  1  0  0  0  0  0  0  0  0  0
   20.0994   -5.5619  -17.9589 C   0  0  0  0  0  0  0  0  0  0  0  0
   18.9370   -5.1361  -17.8090 O   0  0  0  0  0  0  0  0  0  0  0  0
   23.1036  -10.6381  -13.6751 O   0  0  0  0  0  0  0  0  0  0  0  0
   22.3065   -9.5452  -13.9642 C   0  0  0  0  0  0  0  0  0  0  0  0
   22.0743   -8.6096  -12.9992 C   0  0  0  0  0  0  0  0  0  0  0  0
   21.2757   -7.4992  -13.2623 C   0  0  0  0  0  0  0  0  0  0  0  0
   20.7049   -7.3208  -14.4976 C   0  0  0  0  0  0  0  0  0  0  0  0
   19.8404   -6.1795  -14.7926 C   0  0  0  0  0  0  0  0  0  0  0  0
   20.5987   -5.1047  -15.5080 C   0  0  2  0  0  0  0  0  0  0  0  0
   20.9842   -5.5512  -16.8485 N   0  0  0  0  0  0  0  0  0  0  0  0
   21.7613   -4.6854  -14.7264 C   0  0  0  0  0  0  0  0  0  0  0  0
   21.6754   -4.0005  -13.5453 O   0  0  0  0  0  0  0  0  0  0  0  0
   20.9503   -8.2729  -15.4535 C   0  0  0  0  0  0  0  0  0  0  0  0
   21.7432   -9.3872  -15.2126 C   0  0  0  0  0  0  0  0  0  0  0  0
   22.9426   -4.9526  -15.1392 O   0  0  0  0  0  0  0  0  0  0  0  0
  2  1  1  1
  3  2  1  0
  4  6  1  0
  4  2  1  0
  5  4  2  0
  6 10  1  0
  7  6  1  0
  7  8  1  0
  8  9  1  0
  9 10  1  0
 10 11  1  1
 11 12  2  0
 13 14  1  0
 14 15  2  0
 15 16  1  0
 17 18  1  0
 17 16  2  0
 19 18  1  1
 19 21  1  0
 20 19  1  0
 20 11  1  0
 21 22  1  0
 23 17  1  0
 24 23  2  0
 24 14  1  0
 25 21  2  0
M  END
$$$$
