APY.pdb
     RDKit          3D

 25 26  0  0  1  0  0  0  0  0999 V2000
   22.3830  -10.2855  -21.3709 C   0  0  0  0  0  0  0  0  0  0  0  0
   23.6957  -10.4388  -20.6290 C   0  0  2  0  0  0  0  0  0  0  0  0
   24.1179  -11.7945  -20.7628 N   0  0  0  0  0  0  0  0  0  0  0  0
   23.6524   -9.8980  -19.2729 C   0  0  0  0  0  0  0  0  0  0  0  0
   23.0620  -10.5424  -18.3453 O   0  0  0  0  0  0  0  0  0  0  0  0
   24.2444   -8.6422  -18.8688 N   0  0  0  0  0  0  0  0  0  0  0  0
   25.0472   -7.8833  -19.7689 C   0  0  0  0  0  0  0  0  0  0  0  0
   25.3346   -6.5906  -19.0688 C   0  0  0  0  0  0  0  0  0  0  0  0
   24.5681   -6.5941  -17.7943 C   0  0  0  0  0  0  0  0  0  0  0  0
   24.1554   -8.0144  -17.6060 C   0  0  1  0  0  0  0  0  0  0  0  0
   22.7962   -8.0394  -16.9766 C   0  0  0  0  0  0  0  0  0  0  0  0
   21.7588   -7.9594  -17.6638 O   0  0  0  0  0  0  0  0  0  0  0  0
   16.2836  -10.2972  -11.7778 O   0  0  0  0  0  0  0  0  0  0  0  0
   17.5475  -10.0874  -12.2991 C   0  0  0  0  0  0  0  0  0  0  0  0
   18.4380   -9.3166  -11.6109 C   0  0  0  0  0  0  0  0  0  0  0  0
   19.7175   -9.0883  -12.1120 C   0  0  0  0  0  0  0  0  0  0  0  0
   20.1114   -9.6336  -13.3083 C   0  0  0  0  0  0  0  0  0  0  0  0
   21.4381   -9.3879  -13.8708 C   0  0  0  0  0  0  0  0  0  0  0  0
   21.3989   -8.2686  -14.8646 C   0  0  2  0  0  0  0  0  0  0  0  0
   22.6795   -8.1579  -15.5665 N   0  0  0  0  0  0  0  0  0  0  0  0
   21.0331   -7.0118  -14.2128 C   0  0  0  0  0  0  0  0  0  0  0  0
   19.7500   -6.5447  -14.1298 O   0  0  0  0  0  0  0  0  0  0  0  0
   19.2012  -10.4048  -13.9845 C   0  0  0  0  0  0  0  0  0  0  0  0
   17.9210  -10.6452  -13.5033 C   0  0  0  0  0  0  0  0  0  0  0  0
   21.9364   -6.2778  -13.6811 O   0  0  0  0  0  0  0  0  0  0  0  0
  2  1  1  1
  3  2  1  0
  4  6  1  0
  4  2  1  0
  5  4  2  0
  6 10  1  0
  7  6  1  0
  7  8  1  0
  8  9  1  0
  9 10  1  0
 10 11  1  6
 11 12  2  0
 13 14  1  0
 14 15  2  0
 15 16  1  0
 17 18  1  0
 17 16  2  0
 19 18  1  1
 19 21  1  0
 20 19  1  0
 20 11  1  0
 21 22  1  0
 23 17  1  0
 24 23  2  0
 24 14  1  0
 25 21  2  0
M  END
$$$$
