APY.pdb
     RDKit          3D

 25 26  0  0  1  0  0  0  0  0999 V2000
   26.2017  -14.2774  -15.3401 C   0  0  0  0  0  0  0  0  0  0  0  0
   25.9523  -14.9218  -16.6891 C   0  0  2  0  0  0  0  0  0  0  0  0
   24.7054  -14.4357  -17.1821 N   0  0  0  0  0  0  0  0  0  0  0  0
   26.1284  -16.3715  -16.6714 C   0  0  0  0  0  0  0  0  0  0  0  0
   25.2386  -17.1180  -16.1466 O   0  0  0  0  0  0  0  0  0  0  0  0
   27.2709  -17.0683  -17.2191 N   0  0  0  0  0  0  0  0  0  0  0  0
   28.1789  -16.4138  -18.1009 C   0  0  0  0  0  0  0  0  0  0  0  0
   29.3044  -17.3783  -18.3174 C   0  0  0  0  0  0  0  0  0  0  0  0
   29.0627  -18.5504  -17.4344 C   0  0  0  0  0  0  0  0  0  0  0  0
   27.6398  -18.4161  -17.0099 C   0  0  1  0  0  0  0  0  0  0  0  0
   27.5131  -18.8994  -15.5976 C   0  0  0  0  0  0  0  0  0  0  0  0
   28.2074  -18.4186  -14.6801 O   0  0  0  0  0  0  0  0  0  0  0  0
   24.5647  -21.5602   -7.9964 O   0  0  0  0  0  0  0  0  0  0  0  0
   24.8897  -21.0193   -9.2273 C   0  0  0  0  0  0  0  0  0  0  0  0
   23.8971  -20.7337  -10.1182 C   0  0  0  0  0  0  0  0  0  0  0  0
   24.1951  -20.1887  -11.3650 C   0  0  0  0  0  0  0  0  0  0  0  0
   25.4932  -19.9264  -11.7251 C   0  0  0  0  0  0  0  0  0  0  0  0
   25.8366  -19.3806  -13.0370 C   0  0  0  0  0  0  0  0  0  0  0  0
   26.3697  -20.4505  -13.9387 C   0  0  2  0  0  0  0  0  0  0  0  0
   26.5827  -19.9267  -15.2897 N   0  0  0  0  0  0  0  0  0  0  0  0
   25.4792  -21.6104  -13.9464 C   0  0  0  0  0  0  0  0  0  0  0  0
   24.4034  -21.7364  -14.7818 O   0  0  0  0  0  0  0  0  0  0  0  0
   26.4761  -20.2211  -10.8154 C   0  0  0  0  0  0  0  0  0  0  0  0
   26.2012  -20.7645   -9.5674 C   0  0  0  0  0  0  0  0  0  0  0  0
   25.6829  -22.5814  -13.1383 O   0  0  0  0  0  0  0  0  0  0  0  0
  2  1  1  1
  3  2  1  0
  4  6  1  0
  4  2  1  0
  5  4  2  0
  6 10  1  0
  7  6  1  0
  7  8  1  0
  8  9  1  0
  9 10  1  0
 10 11  1  1
 11 12  2  0
 13 14  1  0
 14 15  2  0
 15 16  1  0
 17 18  1  0
 17 16  2  0
 19 18  1  1
 19 21  1  0
 20 19  1  0
 20 11  1  0
 21 22  1  0
 23 17  1  0
 24 23  2  0
 24 14  1  0
 25 21  2  0
M  END
$$$$
