APY.pdb
     RDKit          3D

 25 26  0  0  1  0  0  0  0  0999 V2000
   28.3547  -23.1134  -18.5794 C   0  0  0  0  0  0  0  0  0  0  0  0
   29.0644  -22.6442  -17.3250 C   0  0  2  0  0  0  0  0  0  0  0  0
   29.7935  -23.7497  -16.7956 N   0  0  0  0  0  0  0  0  0  0  0  0
   28.1822  -21.9387  -16.3992 C   0  0  0  0  0  0  0  0  0  0  0  0
   27.5059  -22.5901  -15.5374 O   0  0  0  0  0  0  0  0  0  0  0  0
   27.9976  -20.5049  -16.3698 N   0  0  0  0  0  0  0  0  0  0  0  0
   28.8414  -19.6384  -17.1233 C   0  0  0  0  0  0  0  0  0  0  0  0
   28.2505  -18.2691  -16.9824 C   0  0  0  0  0  0  0  0  0  0  0  0
   26.9781  -18.4088  -16.2252 C   0  0  0  0  0  0  0  0  0  0  0  0
   27.0412  -19.7742  -15.6295 C   0  0  1  0  0  0  0  0  0  0  0  0
   25.6614  -20.3576  -15.6203 C   0  0  0  0  0  0  0  0  0  0  0  0
   25.1835  -20.9152  -16.6281 O   0  0  0  0  0  0  0  0  0  0  0  0
   17.7146  -22.5848  -12.4677 O   0  0  0  0  0  0  0  0  0  0  0  0
   19.0144  -22.1266  -12.5860 C   0  0  0  0  0  0  0  0  0  0  0  0
   20.0297  -23.0227  -12.7501 C   0  0  0  0  0  0  0  0  0  0  0  0
   21.3480  -22.5898  -12.8718 C   0  0  0  0  0  0  0  0  0  0  0  0
   21.6553  -21.2529  -12.8301 C   0  0  0  0  0  0  0  0  0  0  0  0
   23.0325  -20.7725  -12.9276 C   0  0  0  0  0  0  0  0  0  0  0  0
   23.4943  -20.7572  -14.3519 C   0  0  2  0  0  0  0  0  0  0  0  0
   24.8754  -20.2784  -14.4405 N   0  0  0  0  0  0  0  0  0  0  0  0
   22.5933  -19.9549  -15.1782 C   0  0  0  0  0  0  0  0  0  0  0  0
   22.6914  -18.5969  -15.3106 O   0  0  0  0  0  0  0  0  0  0  0  0
   20.6204  -20.3686  -12.6641 C   0  0  0  0  0  0  0  0  0  0  0  0
   19.2994  -20.7785  -12.5408 C   0  0  0  0  0  0  0  0  0  0  0  0
   21.6449  -20.5181  -15.8269 O   0  0  0  0  0  0  0  0  0  0  0  0
  2  1  1  6
  3  2  1  0
  4  6  1  0
  4  2  1  0
  5  4  2  0
  6 10  1  0
  7  6  1  0
  7  8  1  0
  8  9  1  0
  9 10  1  0
 10 11  1  6
 11 12  2  0
 13 14  1  0
 14 15  2  0
 15 16  1  0
 17 18  1  0
 17 16  2  0
 19 18  1  1
 19 21  1  0
 20 19  1  0
 20 11  1  0
 21 22  1  0
 23 17  1  0
 24 23  2  0
 24 14  1  0
 25 21  2  0
M  END
$$$$
