APY.pdb
     RDKit          3D

 25 26  0  0  1  0  0  0  0  0999 V2000
   26.9286  -24.7755  -18.9340 C   0  0  0  0  0  0  0  0  0  0  0  0
   28.3496  -24.4387  -18.5285 C   0  0  2  0  0  0  0  0  0  0  0  0
   29.0285  -25.6630  -18.2561 N   0  0  0  0  0  0  0  0  0  0  0  0
   28.4203  -23.4078  -17.4962 C   0  0  0  0  0  0  0  0  0  0  0  0
   28.3357  -23.7275  -16.2654 O   0  0  0  0  0  0  0  0  0  0  0  0
   28.5847  -21.9947  -17.7547 N   0  0  0  0  0  0  0  0  0  0  0  0
   28.8041  -21.5086  -19.0761 C   0  0  0  0  0  0  0  0  0  0  0  0
   28.7539  -20.0149  -18.9753 C   0  0  0  0  0  0  0  0  0  0  0  0
   28.3788  -19.6752  -17.5768 C   0  0  0  0  0  0  0  0  0  0  0  0
   28.5803  -20.9404  -16.8139 C   0  0  1  0  0  0  0  0  0  0  0  0
   27.5246  -21.0355  -15.7554 C   0  0  0  0  0  0  0  0  0  0  0  0
   26.3284  -21.2363  -16.0450 O   0  0  0  0  0  0  0  0  0  0  0  0
   23.9951  -20.7147   -7.6580 O   0  0  0  0  0  0  0  0  0  0  0  0
   24.8821  -20.7023   -8.7194 C   0  0  0  0  0  0  0  0  0  0  0  0
   25.0862  -21.8442   -9.4370 C   0  0  0  0  0  0  0  0  0  0  0  0
   25.9735  -21.8607  -10.5106 C   0  0  0  0  0  0  0  0  0  0  0  0
   26.6617  -20.7293  -10.8711 C   0  0  0  0  0  0  0  0  0  0  0  0
   27.6192  -20.7255  -11.9756 C   0  0  0  0  0  0  0  0  0  0  0  0
   26.9203  -20.8849  -13.2902 C   0  0  2  0  0  0  0  0  0  0  0  0
   27.8875  -20.8960  -14.3898 N   0  0  0  0  0  0  0  0  0  0  0  0
   25.9140  -19.8393  -13.4701 C   0  0  0  0  0  0  0  0  0  0  0  0
   24.5836  -20.0115  -13.2025 O   0  0  0  0  0  0  0  0  0  0  0  0
   26.4425  -19.5922  -10.1366 C   0  0  0  0  0  0  0  0  0  0  0  0
   25.5627  -19.5536   -9.0630 C   0  0  0  0  0  0  0  0  0  0  0  0
   26.2577  -18.6855  -13.9038 O   0  0  0  0  0  0  0  0  0  0  0  0
  2  1  1  1
  3  2  1  0
  4  6  1  0
  4  2  1  0
  5  4  2  0
  6 10  1  0
  7  6  1  0
  7  8  1  0
  8  9  1  0
  9 10  1  0
 10 11  1  1
 11 12  2  0
 13 14  1  0
 14 15  2  0
 15 16  1  0
 17 18  1  0
 17 16  2  0
 19 18  1  1
 19 21  1  0
 20 19  1  0
 20 11  1  0
 21 22  1  0
 23 17  1  0
 24 23  2  0
 24 14  1  0
 25 21  2  0
M  END
$$$$
