APY.pdb
     RDKit          3D

 25 26  0  0  1  0  0  0  0  0999 V2000
   19.8468   -9.7952  -19.8523 C   0  0  0  0  0  0  0  0  0  0  0  0
   20.6979  -10.6684  -18.9520 C   0  0  2  0  0  0  0  0  0  0  0  0
   19.9064  -11.7846  -18.5501 N   0  0  0  0  0  0  0  0  0  0  0  0
   21.3592   -9.9183  -17.8875 C   0  0  0  0  0  0  0  0  0  0  0  0
   20.7414   -9.6691  -16.8010 O   0  0  0  0  0  0  0  0  0  0  0  0
   22.7110   -9.4097  -17.9569 N   0  0  0  0  0  0  0  0  0  0  0  0
   23.6205   -9.8699  -18.9527 C   0  0  0  0  0  0  0  0  0  0  0  0
   24.8398   -9.0098  -18.8208 C   0  0  0  0  0  0  0  0  0  0  0  0
   24.5432   -7.9702  -17.7995 C   0  0  0  0  0  0  0  0  0  0  0  0
   23.3205   -8.4632  -17.1029 C   0  0  1  0  0  0  0  0  0  0  0  0
   22.4661   -7.2864  -16.7434 C   0  0  0  0  0  0  0  0  0  0  0  0
   21.6028   -6.8448  -17.5273 O   0  0  0  0  0  0  0  0  0  0  0  0
   17.2022   -9.7893  -14.1481 O   0  0  0  0  0  0  0  0  0  0  0  0
   18.1784   -8.8142  -14.0491 C   0  0  0  0  0  0  0  0  0  0  0  0
   19.3392   -9.0911  -13.3886 C   0  0  0  0  0  0  0  0  0  0  0  0
   20.3393   -8.1284  -13.2734 C   0  0  0  0  0  0  0  0  0  0  0  0
   20.1799   -6.8804  -13.8218 C   0  0  0  0  0  0  0  0  0  0  0  0
   21.2012   -5.8425  -13.6923 C   0  0  0  0  0  0  0  0  0  0  0  0
   21.8200   -5.5321  -15.0199 C   0  0  2  0  0  0  0  0  0  0  0  0
   22.6371   -6.6560  -15.4827 N   0  0  0  0  0  0  0  0  0  0  0  0
   22.5971   -4.2954  -14.9509 C   0  0  0  0  0  0  0  0  0  0  0  0
   22.0386   -3.0541  -14.8143 O   0  0  0  0  0  0  0  0  0  0  0  0
   19.0056   -6.6222  -14.4812 C   0  0  0  0  0  0  0  0  0  0  0  0
   17.9959   -7.5671  -14.6079 C   0  0  0  0  0  0  0  0  0  0  0  0
   23.8741   -4.3348  -15.0222 O   0  0  0  0  0  0  0  0  0  0  0  0
  2  1  1  1
  3  2  1  0
  4  6  1  0
  4  2  1  0
  5  4  2  0
  6 10  1  0
  7  6  1  0
  7  8  1  0
  8  9  1  0
  9 10  1  0
 10 11  1  6
 11 12  2  0
 13 14  1  0
 14 15  2  0
 15 16  1  0
 17 18  1  0
 17 16  2  0
 19 18  1  1
 19 21  1  0
 20 19  1  0
 20 11  1  0
 21 22  1  0
 23 17  1  0
 24 23  2  0
 24 14  1  0
 25 21  2  0
M  END
$$$$
