IED.pdb
     RDKit          3D

 26 25  0  0  1  0  0  0  0  0999 V2000
    8.1580  -12.7825   22.7961 C   0  0  0  0  0  0  0  0  0  0  0  0
    7.9019  -14.0394   21.9981 C   0  0  0  0  0  0  0  0  0  0  0  0
    8.3934  -13.9614   20.5794 C   0  0  2  0  0  0  0  0  0  0  0  0
    7.5918  -12.8682   19.8829 C   0  0  0  0  0  0  0  0  0  0  0  0
    8.2859  -15.2586   19.8311 C   0  0  2  0  0  0  0  0  0  0  0  0
    6.8334  -15.5598   19.7640 N   0  0  0  0  0  0  0  0  0  0  0  0
    8.9183  -16.4175   20.5175 C   0  0  0  0  0  0  0  0  0  0  0  0
    8.1553  -17.1800   21.2054 O   0  0  0  0  0  0  0  0  0  0  0  0
   10.2747  -16.7538   20.4772 N   0  0  0  0  0  0  0  0  0  0  0  0
   10.9302  -17.8980   21.0039 C   0  0  1  0  0  0  0  0  0  0  0  0
   12.0762  -18.4769   20.2182 C   0  0  0  0  0  0  0  0  0  0  0  0
   11.7786  -18.9016   18.8310 C   0  0  0  0  0  0  0  0  0  0  0  0
   13.0654  -19.4461   18.2602 C   0  0  0  0  0  0  0  0  0  0  0  0
   14.0813  -18.7271   18.0917 O   0  0  0  0  0  0  0  0  0  0  0  0
   11.2980  -17.7304   22.4012 C   0  0  0  0  0  0  0  0  0  0  0  0
   11.5157  -16.5438   22.8158 O   0  0  0  0  0  0  0  0  0  0  0  0
   13.1734  -20.7873   17.8938 O   0  0  0  0  0  0  0  0  0  0  0  0
   11.4395  -18.7566   23.3534 N   0  0  0  0  0  0  0  0  0  0  0  0
   11.7423  -18.5361   24.7544 C   0  0  1  0  0  0  0  0  0  0  0  0
   10.6103  -19.0936   25.6262 C   0  0  0  0  0  0  0  0  0  0  0  0
   10.9177  -18.9691   27.0682 C   0  0  0  0  0  0  0  0  0  0  0  0
   11.9524  -18.3765   27.4953 O   0  0  0  0  0  0  0  0  0  0  0  0
   13.0393  -19.1865   25.0476 C   0  0  0  0  0  0  0  0  0  0  0  0
   13.2837  -20.5231   24.6870 O   0  0  0  0  0  0  0  0  0  0  0  0
   10.0872  -19.4969   28.0571 O   0  0  0  0  0  0  0  0  0  0  0  0
   13.9974  -18.6102   25.6264 O   0  0  0  0  0  0  0  0  0  0  0  0
  2  1  1  0
  2  3  1  0
  3  4  1  6
  5  3  1  0
  5  6  1  1
  7  5  1  0
  8  7  2  0
  9  7  1  0
 10  9  1  0
 11 12  1  0
 10 11  1  6
 12 13  1  0
 13 17  1  0
 14 13  2  0
 15 10  1  0
 15 18  1  0
 16 15  2  0
 19 23  1  0
 19 18  1  0
 20 21  1  0
 19 20  1  1
 21 22  2  0
 23 24  1  0
 25 21  1  0
 26 23  2  0
M  END
$$$$
