IED.pdb
     RDKit          3D

 26 25  0  0  1  0  0  0  0  0999 V2000
    7.1156  -11.6216   19.3994 C   0  0  0  0  0  0  0  0  0  0  0  0
    7.7671  -12.6267   18.4788 C   0  0  0  0  0  0  0  0  0  0  0  0
    8.6719  -13.5946   19.1893 C   0  0  2  0  0  0  0  0  0  0  0  0
    9.7334  -12.7738   19.9121 C   0  0  0  0  0  0  0  0  0  0  0  0
    9.3089  -14.6048   18.2794 C   0  0  2  0  0  0  0  0  0  0  0  0
    8.1872  -15.2359   17.5387 N   0  0  0  0  0  0  0  0  0  0  0  0
   10.0129  -15.7093   18.9855 C   0  0  0  0  0  0  0  0  0  0  0  0
   10.0075  -15.6858   20.2646 O   0  0  0  0  0  0  0  0  0  0  0  0
   10.6800  -16.7771   18.3777 N   0  0  0  0  0  0  0  0  0  0  0  0
   11.6601  -17.6481   18.9226 C   0  0  1  0  0  0  0  0  0  0  0  0
   12.1612  -18.7734   18.0576 C   0  0  0  0  0  0  0  0  0  0  0  0
   11.1334  -19.5715   17.3505 C   0  0  0  0  0  0  0  0  0  0  0  0
   11.7528  -20.0176   16.0483 C   0  0  0  0  0  0  0  0  0  0  0  0
   12.9206  -20.4750   15.9834 O   0  0  0  0  0  0  0  0  0  0  0  0
   12.7720  -16.9249   19.5198 C   0  0  0  0  0  0  0  0  0  0  0  0
   12.7891  -15.6561   19.3886 O   0  0  0  0  0  0  0  0  0  0  0  0
   11.0394  -19.9360   14.8528 O   0  0  0  0  0  0  0  0  0  0  0  0
   13.8431  -17.4896   20.2365 N   0  0  0  0  0  0  0  0  0  0  0  0
   14.3140  -17.0052   21.5198 C   0  0  1  0  0  0  0  0  0  0  0  0
   13.1390  -16.8989   22.4996 C   0  0  0  0  0  0  0  0  0  0  0  0
   13.5768  -16.4208   23.8297 C   0  0  0  0  0  0  0  0  0  0  0  0
   14.7777  -16.1042   24.0783 O   0  0  0  0  0  0  0  0  0  0  0  0
   15.3566  -17.9379   22.0037 C   0  0  0  0  0  0  0  0  0  0  0  0
   16.7106  -17.7540   21.6737 O   0  0  0  0  0  0  0  0  0  0  0  0
   12.6949  -16.2860   24.9023 O   0  0  0  0  0  0  0  0  0  0  0  0
   15.1191  -18.9402   22.7277 O   0  0  0  0  0  0  0  0  0  0  0  0
  2  1  1  0
  2  3  1  0
  3  4  1  6
  5  3  1  0
  5  6  1  1
  7  5  1  0
  8  7  2  0
  9  7  1  0
 10  9  1  0
 11 12  1  0
 10 11  1  6
 12 13  1  0
 13 17  1  0
 14 13  2  0
 15 10  1  0
 15 18  1  0
 16 15  2  0
 19 23  1  0
 19 18  1  0
 20 21  1  0
 19 20  1  1
 21 22  2  0
 23 24  1  0
 25 21  1  0
 26 23  2  0
M  END
$$$$
