IED.pdb
     RDKit          3D

 26 25  0  0  1  0  0  0  0  0999 V2000
    7.3399  -11.6923   20.4007 C   0  0  0  0  0  0  0  0  0  0  0  0
    7.5767  -12.7994   19.4005 C   0  0  0  0  0  0  0  0  0  0  0  0
    8.4564  -13.9018   19.9211 C   0  0  2  0  0  0  0  0  0  0  0  0
    9.7939  -13.2742   20.2955 C   0  0  0  0  0  0  0  0  0  0  0  0
    8.6514  -15.0288   18.9484 C   0  0  2  0  0  0  0  0  0  0  0  0
    7.3046  -15.6228   18.7527 N   0  0  0  0  0  0  0  0  0  0  0  0
    9.5206  -16.1281   19.4486 C   0  0  0  0  0  0  0  0  0  0  0  0
    9.0473  -16.8767   20.3718 O   0  0  0  0  0  0  0  0  0  0  0  0
   10.8113  -16.4219   18.9988 N   0  0  0  0  0  0  0  0  0  0  0  0
   11.7438  -17.3653   19.5056 C   0  0  1  0  0  0  0  0  0  0  0  0
   12.9588  -17.6722   18.6719 C   0  0  0  0  0  0  0  0  0  0  0  0
   13.9026  -18.6721   19.2222 C   0  0  0  0  0  0  0  0  0  0  0  0
   14.9841  -18.8615   18.1866 C   0  0  0  0  0  0  0  0  0  0  0  0
   14.8510  -19.6445   17.2136 O   0  0  0  0  0  0  0  0  0  0  0  0
   12.1225  -17.0841   20.8816 C   0  0  0  0  0  0  0  0  0  0  0  0
   12.5546  -15.9135   21.1472 O   0  0  0  0  0  0  0  0  0  0  0  0
   16.1881  -18.1633   18.2749 O   0  0  0  0  0  0  0  0  0  0  0  0
   12.0597  -17.9829   21.9624 N   0  0  0  0  0  0  0  0  0  0  0  0
   12.4039  -17.6431   23.3296 C   0  0  1  0  0  0  0  0  0  0  0  0
   11.4186  -18.3113   24.2964 C   0  0  0  0  0  0  0  0  0  0  0  0
   11.7434  -18.0057   25.7072 C   0  0  0  0  0  0  0  0  0  0  0  0
   12.6797  -17.2183   26.0354 O   0  0  0  0  0  0  0  0  0  0  0  0
   13.7979  -18.0790   23.5698 C   0  0  0  0  0  0  0  0  0  0  0  0
   14.6150  -17.4266   24.5095 O   0  0  0  0  0  0  0  0  0  0  0  0
   11.0391  -18.5650   26.7738 O   0  0  0  0  0  0  0  0  0  0  0  0
   14.3453  -19.0403   22.9686 O   0  0  0  0  0  0  0  0  0  0  0  0
  2  1  1  0
  2  3  1  0
  3  4  1  6
  5  3  1  0
  5  6  1  1
  7  5  1  0
  8  7  2  0
  9  7  1  0
 10  9  1  0
 11 12  1  0
 10 11  1  6
 12 13  1  0
 13 17  1  0
 14 13  2  0
 15 10  1  0
 15 18  1  0
 16 15  2  0
 19 23  1  0
 19 18  1  0
 20 21  1  0
 19 20  1  1
 21 22  2  0
 23 24  1  0
 25 21  1  0
 26 23  2  0
M  END
$$$$
