IED.pdb
     RDKit          3D

 26 25  0  0  1  0  0  0  0  0999 V2000
    6.1330  -11.2109   26.7782 C   0  0  0  0  0  0  0  0  0  0  0  0
    5.7478  -12.4130   25.9482 C   0  0  0  0  0  0  0  0  0  0  0  0
    6.8515  -13.4240   25.8061 C   0  0  2  0  0  0  0  0  0  0  0  0
    8.0632  -12.6937   25.2391 C   0  0  0  0  0  0  0  0  0  0  0  0
    6.4871  -14.5984   24.9446 C   0  0  2  0  0  0  0  0  0  0  0  0
    5.3851  -15.2899   25.6604 N   0  0  0  0  0  0  0  0  0  0  0  0
    7.5729  -15.6034   24.7854 C   0  0  0  0  0  0  0  0  0  0  0  0
    7.7373  -16.4451   25.7346 O   0  0  0  0  0  0  0  0  0  0  0  0
    8.4317  -15.7154   23.6879 N   0  0  0  0  0  0  0  0  0  0  0  0
    9.4437  -16.6794   23.4368 C   0  0  1  0  0  0  0  0  0  0  0  0
   10.2846  -16.5116   22.1997 C   0  0  0  0  0  0  0  0  0  0  0  0
   11.3176  -17.5449   21.9577 C   0  0  0  0  0  0  0  0  0  0  0  0
   11.9292  -17.2379   20.6124 C   0  0  0  0  0  0  0  0  0  0  0  0
   12.7630  -16.3128   20.4504 O   0  0  0  0  0  0  0  0  0  0  0  0
   10.2834  -16.9157   24.6008 C   0  0  0  0  0  0  0  0  0  0  0  0
   10.8089  -15.8995   25.1653 O   0  0  0  0  0  0  0  0  0  0  0  0
   11.5844  -17.9818   19.4843 O   0  0  0  0  0  0  0  0  0  0  0  0
   10.5782  -18.1663   25.1742 N   0  0  0  0  0  0  0  0  0  0  0  0
   11.4131  -18.3525   26.3453 C   0  0  1  0  0  0  0  0  0  0  0  0
   10.6092  -19.0430   27.4539 C   0  0  0  0  0  0  0  0  0  0  0  0
   11.4522  -19.3529   28.6298 C   0  0  0  0  0  0  0  0  0  0  0  0
   12.6868  -19.0738   28.6752 O   0  0  0  0  0  0  0  0  0  0  0  0
   12.5946  -19.1470   25.9405 C   0  0  0  0  0  0  0  0  0  0  0  0
   13.7412  -19.2149   26.7510 O   0  0  0  0  0  0  0  0  0  0  0  0
   10.9434  -19.9746   29.7704 O   0  0  0  0  0  0  0  0  0  0  0  0
   12.6632  -19.8052   24.8694 O   0  0  0  0  0  0  0  0  0  0  0  0
  2  1  1  0
  2  3  1  0
  3  4  1  6
  5  3  1  0
  5  6  1  1
  7  5  1  0
  8  7  2  0
  9  7  1  0
 10  9  1  0
 11 12  1  0
 10 11  1  6
 12 13  1  0
 13 17  1  0
 14 13  2  0
 15 10  1  0
 15 18  1  0
 16 15  2  0
 19 23  1  0
 19 18  1  0
 20 21  1  0
 19 20  1  1
 21 22  2  0
 23 24  1  0
 25 21  1  0
 26 23  2  0
M  END
$$$$
