IED.pdb
     RDKit          3D

 26 25  0  0  1  0  0  0  0  0999 V2000
    6.8224  -12.3978   18.6328 C   0  0  0  0  0  0  0  0  0  0  0  0
    8.1317  -12.2748   19.3762 C   0  0  0  0  0  0  0  0  0  0  0  0
    8.7227  -13.5982   19.7758 C   0  0  2  0  0  0  0  0  0  0  0  0
    7.7143  -14.2865   20.6881 C   0  0  0  0  0  0  0  0  0  0  0  0
   10.0590  -13.4834   20.4508 C   0  0  2  0  0  0  0  0  0  0  0  0
   10.9334  -12.7730   19.4835 N   0  0  0  0  0  0  0  0  0  0  0  0
   10.7207  -14.7870   20.7281 C   0  0  0  0  0  0  0  0  0  0  0  0
   10.0652  -15.6433   21.4164 O   0  0  0  0  0  0  0  0  0  0  0  0
   11.9970  -15.1657   20.3011 N   0  0  0  0  0  0  0  0  0  0  0  0
   12.6387  -16.4281   20.4051 C   0  0  1  0  0  0  0  0  0  0  0  0
   13.7620  -16.7279   19.4490 C   0  0  0  0  0  0  0  0  0  0  0  0
   13.5163  -16.4161   18.0222 C   0  0  0  0  0  0  0  0  0  0  0  0
   14.8332  -16.5973   17.3072 C   0  0  0  0  0  0  0  0  0  0  0  0
   15.1442  -17.6724   16.7372 O   0  0  0  0  0  0  0  0  0  0  0  0
   13.0300  -16.7387   21.7711 C   0  0  0  0  0  0  0  0  0  0  0  0
   13.6139  -15.8230   22.4404 O   0  0  0  0  0  0  0  0  0  0  0  0
   15.7656  -15.5617   17.2537 O   0  0  0  0  0  0  0  0  0  0  0  0
   12.8272  -17.9613   22.4374 N   0  0  0  0  0  0  0  0  0  0  0  0
   13.1335  -18.1910   23.8362 C   0  0  1  0  0  0  0  0  0  0  0  0
   12.1866  -19.2524   24.4095 C   0  0  0  0  0  0  0  0  0  0  0  0
   10.9406  -18.6496   24.9323 C   0  0  0  0  0  0  0  0  0  0  0  0
   10.7562  -17.3973   24.9765 O   0  0  0  0  0  0  0  0  0  0  0  0
   14.5516  -18.6049   23.9296 C   0  0  0  0  0  0  0  0  0  0  0  0
   15.2600  -18.5152   25.1406 O   0  0  0  0  0  0  0  0  0  0  0  0
    9.8822  -19.4210   25.4129 O   0  0  0  0  0  0  0  0  0  0  0  0
   15.2155  -19.0564   22.9598 O   0  0  0  0  0  0  0  0  0  0  0  0
  2  1  1  0
  2  3  1  0
  3  4  1  1
  5  3  1  0
  5  6  1  6
  7  5  1  0
  8  7  2  0
  9  7  1  0
 10  9  1  0
 11 12  1  0
 10 11  1  6
 12 13  1  0
 13 17  1  0
 14 13  2  0
 15 10  1  0
 15 18  1  0
 16 15  2  0
 19 23  1  0
 19 18  1  0
 20 21  1  0
 19 20  1  6
 21 22  2  0
 23 24  1  0
 25 21  1  0
 26 23  2  0
M  END
$$$$
