IED.pdb
     RDKit          3D

 26 25  0  0  1  0  0  0  0  0999 V2000
    6.4752  -10.9748   27.1789 C   0  0  0  0  0  0  0  0  0  0  0  0
    5.9210  -12.1002   26.3371 C   0  0  0  0  0  0  0  0  0  0  0  0
    6.9344  -13.1614   26.0098 C   0  0  2  0  0  0  0  0  0  0  0  0
    8.0892  -12.4765   25.2884 C   0  0  0  0  0  0  0  0  0  0  0  0
    6.3839  -14.2875   25.1833 C   0  0  2  0  0  0  0  0  0  0  0  0
    5.3436  -14.9284   26.0271 N   0  0  0  0  0  0  0  0  0  0  0  0
    7.3715  -15.3530   24.8619 C   0  0  0  0  0  0  0  0  0  0  0  0
    7.5436  -16.2754   25.7315 O   0  0  0  0  0  0  0  0  0  0  0  0
    8.1299  -15.4417   23.6907 N   0  0  0  0  0  0  0  0  0  0  0  0
    9.0190  -16.4676   23.2745 C   0  0  1  0  0  0  0  0  0  0  0  0
    9.6468  -16.3453   21.9119 C   0  0  0  0  0  0  0  0  0  0  0  0
   10.5965  -17.4134   21.5236 C   0  0  0  0  0  0  0  0  0  0  0  0
   11.0763  -17.0801   20.1319 C   0  0  0  0  0  0  0  0  0  0  0  0
   10.3626  -17.2636   19.1148 O   0  0  0  0  0  0  0  0  0  0  0  0
   10.0269  -16.7673   24.2795 C   0  0  0  0  0  0  0  0  0  0  0  0
   10.6716  -15.7865   24.7794 O   0  0  0  0  0  0  0  0  0  0  0  0
   12.3486  -16.5487   19.9229 O   0  0  0  0  0  0  0  0  0  0  0  0
   10.3668  -18.0445   24.7623 N   0  0  0  0  0  0  0  0  0  0  0  0
   11.3442  -18.2911   25.8049 C   0  0  1  0  0  0  0  0  0  0  0  0
   10.8944  -19.4737   26.6716 C   0  0  0  0  0  0  0  0  0  0  0  0
   11.9281  -19.8523   27.6604 C   0  0  0  0  0  0  0  0  0  0  0  0
   12.6915  -20.8501   27.4995 O   0  0  0  0  0  0  0  0  0  0  0  0
   12.6493  -18.5455   25.1544 C   0  0  0  0  0  0  0  0  0  0  0  0
   13.8592  -18.2326   25.7983 O   0  0  0  0  0  0  0  0  0  0  0  0
   12.1324  -19.1345   28.8391 O   0  0  0  0  0  0  0  0  0  0  0  0
   12.7744  -19.0475   24.0065 O   0  0  0  0  0  0  0  0  0  0  0  0
  2  1  1  0
  2  3  1  0
  3  4  1  6
  5  3  1  0
  5  6  1  1
  7  5  1  0
  8  7  2  0
  9  7  1  0
 10  9  1  0
 11 12  1  0
 10 11  1  6
 12 13  1  0
 13 17  1  0
 14 13  2  0
 15 10  1  0
 15 18  1  0
 16 15  2  0
 19 23  1  0
 19 18  1  0
 20 21  1  0
 19 20  1  6
 21 22  2  0
 23 24  1  0
 25 21  1  0
 26 23  2  0
M  END
$$$$
