IED.pdb
     RDKit          3D

 26 25  0  0  1  0  0  0  0  0999 V2000
    6.3407  -12.5358   20.3532 C   0  0  0  0  0  0  0  0  0  0  0  0
    7.0391  -13.2501   19.2200 C   0  0  0  0  0  0  0  0  0  0  0  0
    8.3909  -13.7921   19.5933 C   0  0  2  0  0  0  0  0  0  0  0  0
    9.2243  -12.6200   20.0976 C   0  0  0  0  0  0  0  0  0  0  0  0
    9.0907  -14.4969   18.4673 C   0  0  2  0  0  0  0  0  0  0  0  0
    8.1838  -15.6018   18.0650 N   0  0  0  0  0  0  0  0  0  0  0  0
   10.3789  -15.1361   18.8494 C   0  0  0  0  0  0  0  0  0  0  0  0
   10.3229  -16.3018   19.3736 O   0  0  0  0  0  0  0  0  0  0  0  0
   11.6508  -14.5796   18.6848 N   0  0  0  0  0  0  0  0  0  0  0  0
   12.9195  -15.1364   18.9958 C   0  0  1  0  0  0  0  0  0  0  0  0
   14.1266  -14.5731   18.2949 C   0  0  0  0  0  0  0  0  0  0  0  0
   15.4456  -15.0751   18.7439 C   0  0  0  0  0  0  0  0  0  0  0  0
   16.4857  -14.3496   17.9253 C   0  0  0  0  0  0  0  0  0  0  0  0
   17.3998  -13.6693   18.4535 O   0  0  0  0  0  0  0  0  0  0  0  0
   13.1504  -15.2201   20.4295 C   0  0  0  0  0  0  0  0  0  0  0  0
   13.1103  -14.1342   21.0979 O   0  0  0  0  0  0  0  0  0  0  0  0
   16.4680  -14.4095   16.5322 O   0  0  0  0  0  0  0  0  0  0  0  0
   13.4162  -16.3912   21.1627 N   0  0  0  0  0  0  0  0  0  0  0  0
   13.6334  -16.4269   22.5961 C   0  0  1  0  0  0  0  0  0  0  0  0
   13.1895  -17.7836   23.1567 C   0  0  0  0  0  0  0  0  0  0  0  0
   13.3498  -17.8477   24.6263 C   0  0  0  0  0  0  0  0  0  0  0  0
   13.7886  -16.8738   25.3067 O   0  0  0  0  0  0  0  0  0  0  0  0
   15.0692  -16.1671   22.8456 C   0  0  0  0  0  0  0  0  0  0  0  0
   15.4882  -15.3344   23.8979 O   0  0  0  0  0  0  0  0  0  0  0  0
   13.0277  -18.9875   25.3636 O   0  0  0  0  0  0  0  0  0  0  0  0
   16.0006  -16.6572   22.1548 O   0  0  0  0  0  0  0  0  0  0  0  0
  2  1  1  0
  2  3  1  0
  3  4  1  6
  5  3  1  0
  5  6  1  1
  7  5  1  0
  8  7  2  0
  9  7  1  0
 10  9  1  0
 11 12  1  0
 10 11  1  6
 12 13  1  0
 13 17  1  0
 14 13  2  0
 15 10  1  0
 15 18  1  0
 16 15  2  0
 19 23  1  0
 19 18  1  0
 20 21  1  0
 19 20  1  6
 21 22  2  0
 23 24  1  0
 25 21  1  0
 26 23  2  0
M  END
$$$$
