VGV.pdb
     RDKit          3D

 19 18  0  0  1  0  0  0  0  0999 V2000
   22.8991  -22.7214  -15.6203 C   0  0  0  0  0  0  0  0  0  0  0  0
   22.3509  -21.3666  -15.2968 C   0  0  2  0  0  0  0  0  0  0  0  0
   21.6939  -20.8020  -16.5430 C   0  0  0  0  0  0  0  0  0  0  0  0
   23.4134  -20.3881  -14.8771 C   0  0  2  0  0  0  0  0  0  0  0  0
   24.2459  -20.1082  -16.0038 N   0  0  0  0  0  0  0  0  0  0  0  0
   24.1657  -20.8262  -13.6823 C   0  0  0  0  0  0  0  0  0  0  0  0
   23.5403  -20.9677  -12.6001 O   0  0  0  0  0  0  0  0  0  0  0  0
   25.5580  -21.1003  -13.6734 N   0  0  0  0  0  0  0  0  0  0  0  0
   26.2818  -21.5517  -12.5272 C   0  0  0  0  0  0  0  0  0  0  0  0
   26.2510  -20.5629  -11.4085 C   0  0  0  0  0  0  0  0  0  0  0  0
   26.2221  -19.3175  -11.6211 O   0  0  0  0  0  0  0  0  0  0  0  0
   23.7282  -20.5531   -8.9636 C   0  0  0  0  0  0  0  0  0  0  0  0
   24.9544  -20.4277   -8.1191 C   0  0  1  0  0  0  0  0  0  0  0  0
   25.1933  -21.6982   -7.3428 C   0  0  0  0  0  0  0  0  0  0  0  0
   26.1875  -20.0475   -8.9329 C   0  0  2  0  0  0  0  0  0  0  0  0
   26.2526  -20.9734  -10.0475 N   0  0  0  0  0  0  0  0  0  0  0  0
   27.4112  -20.0951   -8.1256 C   0  0  0  0  0  0  0  0  0  0  0  0
   27.6286  -19.1316   -7.1641 O   0  0  0  0  0  0  0  0  0  0  0  0
   28.3106  -20.9832   -8.2503 O   0  0  0  0  0  0  0  0  0  0  0  0
  2  3  1  6
  2  4  1  0
  2  1  1  0
  4  5  1  6
  6  4  1  0
  6  7  2  0
  8  6  1  0
  9  8  1  0
  9 10  1  0
 10 16  1  0
 11 10  2  0
 13 12  1  6
 13 15  1  0
 13 14  1  0
 15 17  1  0
 15 16  1  6
 17 19  2  0
 17 18  1  0
M  END
$$$$
