VGV.pdb
     RDKit          3D

 19 18  0  0  1  0  0  0  0  0999 V2000
   23.1448  -21.6160  -11.7227 C   0  0  0  0  0  0  0  0  0  0  0  0
   24.0312  -21.0311  -12.7777 C   0  0  2  0  0  0  0  0  0  0  0  0
   23.9633  -21.9154  -14.0093 C   0  0  0  0  0  0  0  0  0  0  0  0
   25.4751  -20.9658  -12.3613 C   0  0  2  0  0  0  0  0  0  0  0  0
   25.9341  -22.2927  -12.0982 N   0  0  0  0  0  0  0  0  0  0  0  0
   25.7147  -20.0267  -11.2449 C   0  0  0  0  0  0  0  0  0  0  0  0
   25.3728  -18.8249  -11.3902 O   0  0  0  0  0  0  0  0  0  0  0  0
   26.3096  -20.3924  -10.0096 N   0  0  0  0  0  0  0  0  0  0  0  0
   26.4468  -19.5136   -8.8914 C   0  0  0  0  0  0  0  0  0  0  0  0
   27.0718  -20.1850   -7.7129 C   0  0  0  0  0  0  0  0  0  0  0  0
   26.7480  -21.3556   -7.3642 O   0  0  0  0  0  0  0  0  0  0  0  0
   29.4132  -17.9263   -4.8570 C   0  0  0  0  0  0  0  0  0  0  0  0
   29.8565  -19.2566   -5.3731 C   0  0  1  0  0  0  0  0  0  0  0  0
   30.7453  -19.9439   -4.3674 C   0  0  0  0  0  0  0  0  0  0  0  0
   28.6843  -20.1512   -5.7643 C   0  0  2  0  0  0  0  0  0  0  0  0
   28.0630  -19.5402   -6.9239 N   0  0  0  0  0  0  0  0  0  0  0  0
   27.7263  -20.3088   -4.6648 C   0  0  0  0  0  0  0  0  0  0  0  0
   28.0305  -21.1473   -3.6138 O   0  0  0  0  0  0  0  0  0  0  0  0
   26.6059  -19.7135   -4.6078 O   0  0  0  0  0  0  0  0  0  0  0  0
  2  3  1  6
  2  4  1  0
  2  1  1  0
  4  5  1  1
  6  4  1  0
  6  7  2  0
  8  6  1  0
  9  8  1  0
  9 10  1  0
 10 16  1  0
 11 10  2  0
 13 12  1  1
 13 15  1  0
 13 14  1  0
 15 17  1  0
 15 16  1  6
 17 19  2  0
 17 18  1  0
M  END
$$$$
