VGV.pdb
     RDKit          3D

 19 18  0  0  1  0  0  0  0  0999 V2000
   19.8526   -9.1285  -18.9568 C   0  0  0  0  0  0  0  0  0  0  0  0
   20.3092  -10.5442  -19.1241 C   0  0  2  0  0  0  0  0  0  0  0  0
   19.2223  -11.3194  -19.8460 C   0  0  0  0  0  0  0  0  0  0  0  0
   20.5515  -11.2417  -17.8137 C   0  0  2  0  0  0  0  0  0  0  0  0
   19.3021  -11.3862  -17.1363 N   0  0  0  0  0  0  0  0  0  0  0  0
   21.5948  -10.5897  -16.9939 C   0  0  0  0  0  0  0  0  0  0  0  0
   22.7669  -10.5385  -17.4475 O   0  0  0  0  0  0  0  0  0  0  0  0
   21.3614  -10.0126  -15.7187 N   0  0  0  0  0  0  0  0  0  0  0  0
   22.3674   -9.3792  -14.9260 C   0  0  0  0  0  0  0  0  0  0  0  0
   22.4920   -7.9209  -15.2231 C   0  0  0  0  0  0  0  0  0  0  0  0
   23.1033   -7.4995  -16.2456 O   0  0  0  0  0  0  0  0  0  0  0  0
   20.2619   -5.7257  -16.4690 C   0  0  0  0  0  0  0  0  0  0  0  0
   20.5932   -5.1130  -15.1472 C   0  0  1  0  0  0  0  0  0  0  0  0
   19.5372   -5.4554  -14.1267 C   0  0  0  0  0  0  0  0  0  0  0  0
   21.9795   -5.5111  -14.6501 C   0  0  2  0  0  0  0  0  0  0  0  0
   21.9287   -6.9333  -14.3697 N   0  0  0  0  0  0  0  0  0  0  0  0
   22.3752   -4.7456  -13.4631 C   0  0  0  0  0  0  0  0  0  0  0  0
   22.3688   -5.3567  -12.2275 O   0  0  0  0  0  0  0  0  0  0  0  0
   22.7334   -3.5274  -13.4900 O   0  0  0  0  0  0  0  0  0  0  0  0
  2  3  1  1
  2  4  1  0
  2  1  1  0
  4  5  1  1
  6  4  1  0
  6  7  2  0
  8  6  1  0
  9  8  1  0
  9 10  1  0
 10 16  1  0
 11 10  2  0
 13 12  1  6
 13 15  1  0
 13 14  1  0
 15 17  1  0
 15 16  1  1
 17 19  2  0
 17 18  1  0
M  END
$$$$
