VGV.pdb
     RDKit          3D

 19 18  0  0  1  0  0  0  0  0999 V2000
   16.9945  -14.5559  -19.2713 C   0  0  0  0  0  0  0  0  0  0  0  0
   17.9196  -13.6421  -18.5297 C   0  0  2  0  0  0  0  0  0  0  0  0
   17.2993  -12.2575  -18.4886 C   0  0  0  0  0  0  0  0  0  0  0  0
   19.2632  -13.5034  -19.1915 C   0  0  2  0  0  0  0  0  0  0  0  0
   19.8497  -14.8007  -19.3088 N   0  0  0  0  0  0  0  0  0  0  0  0
   20.1397  -12.5181  -18.5234 C   0  0  0  0  0  0  0  0  0  0  0  0
   21.0769  -12.9443  -17.8007 O   0  0  0  0  0  0  0  0  0  0  0  0
   19.9942  -11.1116  -18.6433 N   0  0  0  0  0  0  0  0  0  0  0  0
   20.9182  -10.1592  -18.1135 C   0  0  0  0  0  0  0  0  0  0  0  0
   20.2614   -9.1741  -17.2033 C   0  0  0  0  0  0  0  0  0  0  0  0
   19.0174   -8.9561  -17.2443 O   0  0  0  0  0  0  0  0  0  0  0  0
   19.4409   -9.6760  -14.1612 C   0  0  0  0  0  0  0  0  0  0  0  0
   20.2950   -8.4659  -13.9646 C   0  0  1  0  0  0  0  0  0  0  0  0
   21.6670   -8.8609  -13.4795 C   0  0  0  0  0  0  0  0  0  0  0  0
   20.3889   -7.6070  -15.2218 C   0  0  2  0  0  0  0  0  0  0  0  0
   21.0035   -8.4317  -16.2447 N   0  0  0  0  0  0  0  0  0  0  0  0
   21.1590   -6.3803  -14.9896 C   0  0  0  0  0  0  0  0  0  0  0  0
   20.5605   -5.3124  -14.3560 O   0  0  0  0  0  0  0  0  0  0  0  0
   22.3702   -6.2248  -15.3387 O   0  0  0  0  0  0  0  0  0  0  0  0
  2  3  1  6
  2  4  1  0
  2  1  1  0
  4  5  1  1
  6  4  1  0
  6  7  2  0
  8  6  1  0
  9  8  1  0
  9 10  1  0
 10 16  1  0
 11 10  2  0
 13 12  1  6
 13 15  1  0
 13 14  1  0
 15 17  1  0
 15 16  1  6
 17 19  2  0
 17 18  1  0
M  END
$$$$
