VGV.pdb
     RDKit          3D

 19 18  0  0  1  0  0  0  0  0999 V2000
   20.6132  -12.9315  -20.7280 C   0  0  0  0  0  0  0  0  0  0  0  0
   21.4232  -11.8831  -20.0313 C   0  0  2  0  0  0  0  0  0  0  0  0
   22.6843  -12.5299  -19.4882 C   0  0  0  0  0  0  0  0  0  0  0  0
   20.7053  -11.2673  -18.8618 C   0  0  2  0  0  0  0  0  0  0  0  0
   19.4903  -10.6801  -19.3306 N   0  0  0  0  0  0  0  0  0  0  0  0
   21.5513  -10.3339  -18.0882 C   0  0  0  0  0  0  0  0  0  0  0  0
   22.3712  -10.8132  -17.2633 O   0  0  0  0  0  0  0  0  0  0  0  0
   21.5006   -8.9213  -18.2141 N   0  0  0  0  0  0  0  0  0  0  0  0
   22.2636   -8.0146  -17.4159 C   0  0  0  0  0  0  0  0  0  0  0  0
   21.4110   -7.2272  -16.4761 C   0  0  0  0  0  0  0  0  0  0  0  0
   20.2752   -6.7893  -16.8153 O   0  0  0  0  0  0  0  0  0  0  0  0
   20.4880   -7.3484  -11.8281 C   0  0  0  0  0  0  0  0  0  0  0  0
   20.5130   -7.6385  -13.2936 C   0  0  1  0  0  0  0  0  0  0  0  0
   19.1720   -8.1527  -13.7532 C   0  0  0  0  0  0  0  0  0  0  0  0
   20.9454   -6.4317  -14.1205 C   0  0  2  0  0  0  0  0  0  0  0  0
   21.8348   -6.9307  -15.1520 N   0  0  0  0  0  0  0  0  0  0  0  0
   21.6014   -5.4109  -13.2963 C   0  0  0  0  0  0  0  0  0  0  0  0
   20.8372   -4.4509  -12.6682 O   0  0  0  0  0  0  0  0  0  0  0  0
   22.8564   -5.3442  -13.1133 O   0  0  0  0  0  0  0  0  0  0  0  0
  2  3  1  1
  2  4  1  0
  2  1  1  0
  4  5  1  6
  6  4  1  0
  6  7  2  0
  8  6  1  0
  9  8  1  0
  9 10  1  0
 10 16  1  0
 11 10  2  0
 13 12  1  1
 13 15  1  0
 13 14  1  0
 15 17  1  0
 15 16  1  6
 17 19  2  0
 17 18  1  0
M  END
$$$$
