VGV.pdb
     RDKit          3D

 19 18  0  0  1  0  0  0  0  0999 V2000
   17.2855  -15.5911  -16.1125 C   0  0  0  0  0  0  0  0  0  0  0  0
   17.3781  -14.1855  -16.6187 C   0  0  2  0  0  0  0  0  0  0  0  0
   18.7205  -14.0071  -17.3040 C   0  0  0  0  0  0  0  0  0  0  0  0
   17.3042  -13.1600  -15.5209 C   0  0  2  0  0  0  0  0  0  0  0  0
   16.0662  -13.3234  -14.8271 N   0  0  0  0  0  0  0  0  0  0  0  0
   17.5341  -11.7803  -15.9997 C   0  0  0  0  0  0  0  0  0  0  0  0
   16.7136  -11.2852  -16.8146 O   0  0  0  0  0  0  0  0  0  0  0  0
   18.6276  -10.9695  -15.5988 N   0  0  0  0  0  0  0  0  0  0  0  0
   18.8864   -9.6594  -16.1069 C   0  0  0  0  0  0  0  0  0  0  0  0
   19.9502   -8.9495  -15.3359 C   0  0  0  0  0  0  0  0  0  0  0  0
   20.5108   -9.4772  -14.3338 O   0  0  0  0  0  0  0  0  0  0  0  0
   23.0495   -5.0515  -15.2763 C   0  0  0  0  0  0  0  0  0  0  0  0
   22.0305   -5.9290  -15.9276 C   0  0  1  0  0  0  0  0  0  0  0  0
   22.6357   -6.6624  -17.0980 C   0  0  0  0  0  0  0  0  0  0  0  0
   21.3883   -6.9052  -14.9470 C   0  0  2  0  0  0  0  0  0  0  0  0
   20.3858   -7.6438  -15.6910 N   0  0  0  0  0  0  0  0  0  0  0  0
   20.7987   -6.2145  -13.7951 C   0  0  0  0  0  0  0  0  0  0  0  0
   21.4444   -6.2511  -12.5777 O   0  0  0  0  0  0  0  0  0  0  0  0
   19.7068   -5.5671  -13.8373 O   0  0  0  0  0  0  0  0  0  0  0  0
  2  3  1  1
  2  4  1  0
  2  1  1  0
  4  5  1  6
  6  4  1  0
  6  7  2  0
  8  6  1  0
  9  8  1  0
  9 10  1  0
 10 16  1  0
 11 10  2  0
 13 12  1  1
 13 15  1  0
 13 14  1  0
 15 17  1  0
 15 16  1  6
 17 19  2  0
 17 18  1  0
M  END
$$$$
