VGV.pdb
     RDKit          3D

 19 18  0  0  1  0  0  0  0  0999 V2000
   21.6396  -19.5290  -15.1992 C   0  0  0  0  0  0  0  0  0  0  0  0
   22.7990  -20.4715  -15.1081 C   0  0  2  0  0  0  0  0  0  0  0  0
   23.1259  -20.9701  -16.5039 C   0  0  0  0  0  0  0  0  0  0  0  0
   22.5066  -21.6823  -14.2650 C   0  0  2  0  0  0  0  0  0  0  0  0
   22.8357  -21.3827  -12.9075 N   0  0  0  0  0  0  0  0  0  0  0  0
   23.1536  -22.9114  -14.7712 C   0  0  0  0  0  0  0  0  0  0  0  0
   22.7201  -23.4203  -15.8368 O   0  0  0  0  0  0  0  0  0  0  0  0
   24.2402  -23.5617  -14.1308 N   0  0  0  0  0  0  0  0  0  0  0  0
   24.9029  -24.7177  -14.6466 C   0  0  0  0  0  0  0  0  0  0  0  0
   25.7278  -24.4103  -15.8530 C   0  0  0  0  0  0  0  0  0  0  0  0
   25.7234  -23.2658  -16.3887 O   0  0  0  0  0  0  0  0  0  0  0  0
   29.1472  -24.2078  -15.8931 C   0  0  0  0  0  0  0  0  0  0  0  0
   28.8862  -25.2132  -16.9671 C   0  0  1  0  0  0  0  0  0  0  0  0
   29.1486  -26.6086  -16.4594 C   0  0  0  0  0  0  0  0  0  0  0  0
   27.4784  -25.0998  -17.5436 C   0  0  2  0  0  0  0  0  0  0  0  0
   26.5598  -25.3905  -16.4593 N   0  0  0  0  0  0  0  0  0  0  0  0
   27.2759  -26.0110  -18.6752 C   0  0  0  0  0  0  0  0  0  0  0  0
   26.4666  -27.1161  -18.5209 O   0  0  0  0  0  0  0  0  0  0  0  0
   27.8059  -25.8528  -19.8184 O   0  0  0  0  0  0  0  0  0  0  0  0
  2  3  1  6
  2  4  1  0
  2  1  1  0
  4  5  1  1
  6  4  1  0
  6  7  2  0
  8  6  1  0
  9  8  1  0
  9 10  1  0
 10 16  1  0
 11 10  2  0
 13 12  1  1
 13 15  1  0
 13 14  1  0
 15 17  1  0
 15 16  1  1
 17 19  2  0
 17 18  1  0
M  END
$$$$
