PQD.pdb
     RDKit          3D

 25 25  0  0  1  0  0  0  0  0999 V2000
   23.8561  -13.0467  -15.3047 N   0  0  0  0  0  0  0  0  0  0  0  0
   24.4156  -14.3503  -15.6164 C   0  0  0  0  0  0  0  0  0  0  0  0
   24.7594  -14.3403  -17.0858 C   0  0  0  0  0  0  0  0  0  0  0  0
   24.0520  -13.1124  -17.6146 C   0  0  0  0  0  0  0  0  0  0  0  0
   24.1242  -12.1865  -16.4193 C   0  0  1  0  0  0  0  0  0  0  0  0
   23.0123  -11.1780  -16.5513 C   0  0  0  0  0  0  0  0  0  0  0  0
   23.0458  -10.2846  -17.4335 O   0  0  0  0  0  0  0  0  0  0  0  0
   17.0748  -12.1541  -16.0097 N   0  0  0  0  0  0  0  0  0  0  0  0
   17.0246  -10.7568  -16.1031 C   0  0  0  0  0  0  0  0  0  0  0  0
   15.9658  -10.1168  -16.1774 O   0  0  0  0  0  0  0  0  0  0  0  0
   18.3479  -10.0089  -16.1123 C   0  0  0  0  0  0  0  0  0  0  0  0
   19.4777  -10.9866  -15.9347 C   0  0  0  0  0  0  0  0  0  0  0  0
   20.7827  -10.2807  -15.8953 C   0  0  2  0  0  0  0  0  0  0  0  0
   21.8933  -11.2030  -15.6865 N   0  0  0  0  0  0  0  0  0  0  0  0
   20.8717   -9.1631  -14.9129 C   0  0  0  0  0  0  0  0  0  0  0  0
   21.2835   -9.2577  -13.7492 O   0  0  0  0  0  0  0  0  0  0  0  0
   20.4574   -7.8562  -15.3045 N   0  0  0  0  0  0  0  0  0  0  0  0
   20.6650   -6.6651  -14.5731 C   0  0  1  0  0  0  0  0  0  0  0  0
   22.0633   -6.2673  -14.2914 C   0  0  0  0  0  0  0  0  0  0  0  0
   22.1588   -5.0118  -13.4875 C   0  0  0  0  0  0  0  0  0  0  0  0
   22.2791   -3.8726  -14.0089 O   0  0  0  0  0  0  0  0  0  0  0  0
   20.0188   -5.5288  -15.3167 C   0  0  0  0  0  0  0  0  0  0  0  0
   20.0404   -5.4906  -16.5908 O   0  0  0  0  0  0  0  0  0  0  0  0
   22.1198   -5.0293  -12.0995 O   0  0  0  0  0  0  0  0  0  0  0  0
   19.3807   -4.4876  -14.6729 O   0  0  0  0  0  0  0  0  0  0  0  0
  1  5  1  0
  2  1  1  0
  3  4  1  0
  3  2  1  0
  4  5  1  0
  5  6  1  6
  6 14  1  0
  6  7  2  0
  9 10  2  0
  9  8  1  0
 11  9  1  0
 12 11  1  0
 13 12  1  1
 14 13  1  0
 15 13  1  0
 15 17  1  0
 16 15  2  0
 18 19  1  6
 18 17  1  0
 18 22  1  0
 19 20  1  0
 20 21  2  0
 20 24  1  0
 22 25  1  0
 23 22  2  0
M  END
$$$$
