PQD.pdb
     RDKit          3D

 25 25  0  0  1  0  0  0  0  0999 V2000
   26.8547  -20.9819  -15.6635 N   0  0  0  0  0  0  0  0  0  0  0  0
   28.1098  -20.7813  -16.3665 C   0  0  0  0  0  0  0  0  0  0  0  0
   28.6596  -19.4515  -15.9119 C   0  0  0  0  0  0  0  0  0  0  0  0
   27.4921  -18.7998  -15.2048 C   0  0  0  0  0  0  0  0  0  0  0  0
   26.7867  -20.0038  -14.6182 C   0  0  1  0  0  0  0  0  0  0  0  0
   25.3478  -19.6235  -14.3821 C   0  0  0  0  0  0  0  0  0  0  0  0
   25.0383  -18.7306  -13.5547 O   0  0  0  0  0  0  0  0  0  0  0  0
   21.4629  -17.6025  -18.0617 N   0  0  0  0  0  0  0  0  0  0  0  0
   22.5103  -16.9975  -17.3543 C   0  0  0  0  0  0  0  0  0  0  0  0
   22.9980  -15.9011  -17.6649 O   0  0  0  0  0  0  0  0  0  0  0  0
   23.0607  -17.7415  -16.1484 C   0  0  0  0  0  0  0  0  0  0  0  0
   22.3858  -19.0815  -16.0350 C   0  0  0  0  0  0  0  0  0  0  0  0
   22.9154  -19.8405  -14.8747 C   0  0  2  0  0  0  0  0  0  0  0  0
   24.2969  -20.2589  -15.0839 N   0  0  0  0  0  0  0  0  0  0  0  0
   22.0973  -21.0141  -14.4557 C   0  0  0  0  0  0  0  0  0  0  0  0
   22.0601  -22.1092  -15.0319 O   0  0  0  0  0  0  0  0  0  0  0  0
   21.2719  -20.9106  -13.2977 N   0  0  0  0  0  0  0  0  0  0  0  0
   20.3806  -21.8986  -12.8221 C   0  0  1  0  0  0  0  0  0  0  0  0
   19.9286  -21.7957  -11.4157 C   0  0  0  0  0  0  0  0  0  0  0  0
   19.0077  -22.9032  -11.0195 C   0  0  0  0  0  0  0  0  0  0  0  0
   18.6922  -23.8421  -11.7960 O   0  0  0  0  0  0  0  0  0  0  0  0
   19.1510  -21.8897  -13.6879 C   0  0  0  0  0  0  0  0  0  0  0  0
   18.6064  -20.7894  -14.0315 O   0  0  0  0  0  0  0  0  0  0  0  0
   18.4387  -22.9617   -9.7540 O   0  0  0  0  0  0  0  0  0  0  0  0
   18.5581  -23.0486  -14.1477 O   0  0  0  0  0  0  0  0  0  0  0  0
  1  5  1  0
  2  1  1  0
  3  4  1  0
  3  2  1  0
  4  5  1  0
  5  6  1  6
  6 14  1  0
  6  7  2  0
  9 10  2  0
  9  8  1  0
 11  9  1  0
 12 11  1  0
 13 12  1  6
 14 13  1  0
 15 13  1  0
 15 17  1  0
 16 15  2  0
 18 19  1  1
 18 17  1  0
 18 22  1  0
 19 20  1  0
 20 21  2  0
 20 24  1  0
 22 25  1  0
 23 22  2  0
M  END
$$$$
