PQD.pdb
     RDKit          3D

 25 25  0  0  1  0  0  0  0  0999 V2000
   15.4002  -24.2455    0.3960 N   0  0  0  0  0  0  0  0  0  0  0  0
   14.8063  -24.8008   -0.8076 C   0  0  0  0  0  0  0  0  0  0  0  0
   14.6060  -23.6537   -1.7675 C   0  0  0  0  0  0  0  0  0  0  0  0
   14.7977  -22.4244   -0.9074 C   0  0  0  0  0  0  0  0  0  0  0  0
   15.8279  -22.9126    0.0884 C   0  0  1  0  0  0  0  0  0  0  0  0
   15.7171  -22.0547    1.3223 C   0  0  0  0  0  0  0  0  0  0  0  0
   16.0253  -20.8373    1.2980 O   0  0  0  0  0  0  0  0  0  0  0  0
   11.1509  -21.7059    5.1041 N   0  0  0  0  0  0  0  0  0  0  0  0
   12.0324  -20.8951    5.8318 C   0  0  0  0  0  0  0  0  0  0  0  0
   11.6894  -20.2344    6.8228 O   0  0  0  0  0  0  0  0  0  0  0  0
   13.4775  -20.8382    5.3639 C   0  0  0  0  0  0  0  0  0  0  0  0
   13.6643  -21.7710    4.1982 C   0  0  0  0  0  0  0  0  0  0  0  0
   15.0624  -21.7200    3.7026 C   0  0  2  0  0  0  0  0  0  0  0  0
   15.2623  -22.5908    2.5496 N   0  0  0  0  0  0  0  0  0  0  0  0
   16.1101  -21.9993    4.7256 C   0  0  0  0  0  0  0  0  0  0  0  0
   16.5222  -21.1962    5.5728 O   0  0  0  0  0  0  0  0  0  0  0  0
   16.7166  -23.2890    4.7680 N   0  0  0  0  0  0  0  0  0  0  0  0
   17.5696  -23.7726    5.7854 C   0  0  1  0  0  0  0  0  0  0  0  0
   17.0453  -23.7900    7.1702 C   0  0  0  0  0  0  0  0  0  0  0  0
   18.1113  -23.5872    8.1970 C   0  0  0  0  0  0  0  0  0  0  0  0
   19.3259  -23.4385    7.9027 O   0  0  0  0  0  0  0  0  0  0  0  0
   17.9720  -25.1806    5.4428 C   0  0  0  0  0  0  0  0  0  0  0  0
   18.8350  -25.7994    6.1482 O   0  0  0  0  0  0  0  0  0  0  0  0
   17.8196  -23.5504    9.5542 O   0  0  0  0  0  0  0  0  0  0  0  0
   17.4396  -25.8644    4.3682 O   0  0  0  0  0  0  0  0  0  0  0  0
  1  5  1  0
  2  1  1  0
  3  4  1  0
  3  2  1  0
  4  5  1  0
  5  6  1  1
  6 14  1  0
  6  7  2  0
  9 10  2  0
  9  8  1  0
 11  9  1  0
 12 11  1  0
 13 12  1  1
 14 13  1  0
 15 13  1  0
 15 17  1  0
 16 15  2  0
 18 19  1  1
 18 17  1  0
 18 22  1  0
 19 20  1  0
 20 21  2  0
 20 24  1  0
 22 25  1  0
 23 22  2  0
M  END
$$$$
