PQD.pdb
     RDKit          3D

 25 25  0  0  1  0  0  0  0  0999 V2000
   22.3301  -11.1596  -17.8069 N   0  0  0  0  0  0  0  0  0  0  0  0
   23.0555  -12.2999  -18.3391 C   0  0  0  0  0  0  0  0  0  0  0  0
   22.6926  -12.4077  -19.7999 C   0  0  0  0  0  0  0  0  0  0  0  0
   21.4929  -11.4978  -19.9429 C   0  0  0  0  0  0  0  0  0  0  0  0
   21.8057  -10.4260  -18.9209 C   0  0  1  0  0  0  0  0  0  0  0  0
   20.5054   -9.7760  -18.5240 C   0  0  0  0  0  0  0  0  0  0  0  0
   19.8579   -9.0681  -19.3346 O   0  0  0  0  0  0  0  0  0  0  0  0
   16.2082  -11.5235  -14.4695 N   0  0  0  0  0  0  0  0  0  0  0  0
   15.7248  -10.2458  -14.7820 C   0  0  0  0  0  0  0  0  0  0  0  0
   14.6094   -9.8349  -14.4307 O   0  0  0  0  0  0  0  0  0  0  0  0
   16.6312   -9.3348  -15.5937 C   0  0  0  0  0  0  0  0  0  0  0  0
   17.8543  -10.0983  -16.0240 C   0  0  0  0  0  0  0  0  0  0  0  0
   18.7499   -9.2405  -16.8394 C   0  0  2  0  0  0  0  0  0  0  0  0
   19.9698   -9.9408  -17.2252 N   0  0  0  0  0  0  0  0  0  0  0  0
   19.1014   -7.9269  -16.2286 C   0  0  0  0  0  0  0  0  0  0  0  0
   18.3446   -6.9520  -16.1310 O   0  0  0  0  0  0  0  0  0  0  0  0
   20.4109   -7.7327  -15.6988 N   0  0  0  0  0  0  0  0  0  0  0  0
   20.8830   -6.5649  -15.0584 C   0  0  1  0  0  0  0  0  0  0  0  0
   21.8684   -6.7318  -13.9657 C   0  0  0  0  0  0  0  0  0  0  0  0
   22.4063   -5.4309  -13.4657 C   0  0  0  0  0  0  0  0  0  0  0  0
   22.5925   -4.4348  -14.2121 O   0  0  0  0  0  0  0  0  0  0  0  0
   21.5109   -5.6727  -16.0934 C   0  0  0  0  0  0  0  0  0  0  0  0
   21.3570   -4.4082  -16.0407 O   0  0  0  0  0  0  0  0  0  0  0  0
   22.7366   -5.2430  -12.1299 O   0  0  0  0  0  0  0  0  0  0  0  0
   22.2721   -6.1647  -17.1347 O   0  0  0  0  0  0  0  0  0  0  0  0
  1  5  1  0
  2  1  1  0
  3  4  1  0
  3  2  1  0
  4  5  1  0
  5  6  1  1
  6 14  1  0
  6  7  2  0
  9 10  2  0
  9  8  1  0
 11  9  1  0
 12 11  1  0
 13 12  1  1
 14 13  1  0
 15 13  1  0
 15 17  1  0
 16 15  2  0
 18 19  1  1
 18 17  1  0
 18 22  1  0
 19 20  1  0
 20 21  2  0
 20 24  1  0
 22 25  1  0
 23 22  2  0
M  END
$$$$
