PQD.pdb
     RDKit          3D

 25 25  0  0  1  0  0  0  0  0999 V2000
   17.5946  -27.4095   -1.9758 N   0  0  0  0  0  0  0  0  0  0  0  0
   18.0554  -28.6032   -2.6631 C   0  0  0  0  0  0  0  0  0  0  0  0
   18.2770  -29.6590   -1.6080 C   0  0  0  0  0  0  0  0  0  0  0  0
   18.2451  -28.8848   -0.3090 C   0  0  0  0  0  0  0  0  0  0  0  0
   17.2531  -27.7896   -0.6368 C   0  0  1  0  0  0  0  0  0  0  0  0
   17.5192  -26.6348    0.2940 C   0  0  0  0  0  0  0  0  0  0  0  0
   18.3891  -25.7696    0.0251 O   0  0  0  0  0  0  0  0  0  0  0  0
   15.8222  -20.9882    1.5111 N   0  0  0  0  0  0  0  0  0  0  0  0
   15.3932  -21.8901    2.4942 C   0  0  0  0  0  0  0  0  0  0  0  0
   14.2897  -21.8139    3.0534 O   0  0  0  0  0  0  0  0  0  0  0  0
   16.3459  -23.0105    2.8784 C   0  0  0  0  0  0  0  0  0  0  0  0
   16.0813  -24.2126    2.0131 C   0  0  0  0  0  0  0  0  0  0  0  0
   17.0151  -25.3168    2.3471 C   0  0  2  0  0  0  0  0  0  0  0  0
   16.7986  -26.4858    1.5021 N   0  0  0  0  0  0  0  0  0  0  0  0
   17.0230  -25.7316    3.7789 C   0  0  0  0  0  0  0  0  0  0  0  0
   16.2611  -26.5609    4.2932 O   0  0  0  0  0  0  0  0  0  0  0  0
   17.9729  -25.1485    4.6682 N   0  0  0  0  0  0  0  0  0  0  0  0
   18.1434  -25.4757    6.0323 C   0  0  1  0  0  0  0  0  0  0  0  0
   19.4791  -25.2502    6.6305 C   0  0  0  0  0  0  0  0  0  0  0  0
   19.8988  -26.3537    7.5459 C   0  0  0  0  0  0  0  0  0  0  0  0
   19.2962  -26.6202    8.6182 O   0  0  0  0  0  0  0  0  0  0  0  0
   17.1526  -24.6845    6.8411 C   0  0  0  0  0  0  0  0  0  0  0  0
   16.6055  -23.6398    6.3567 O   0  0  0  0  0  0  0  0  0  0  0  0
   20.9932  -27.1603    7.2626 O   0  0  0  0  0  0  0  0  0  0  0  0
   16.7898  -25.0396    8.1248 O   0  0  0  0  0  0  0  0  0  0  0  0
  1  5  1  0
  2  1  1  0
  3  4  1  0
  3  2  1  0
  4  5  1  0
  5  6  1  1
  6 14  1  0
  6  7  2  0
  9 10  2  0
  9  8  1  0
 11  9  1  0
 12 11  1  0
 13 12  1  1
 14 13  1  0
 15 13  1  0
 15 17  1  0
 16 15  2  0
 18 19  1  1
 18 17  1  0
 18 22  1  0
 19 20  1  0
 20 21  2  0
 20 24  1  0
 22 25  1  0
 23 22  2  0
M  END
$$$$
