PQD.pdb
     RDKit          3D

 25 25  0  0  1  0  0  0  0  0999 V2000
   13.8395   -9.3782  -10.7095 N   0  0  0  0  0  0  0  0  0  0  0  0
   13.0923  -10.5658  -10.3340 C   0  0  0  0  0  0  0  0  0  0  0  0
   12.9500  -10.5380   -8.8320 C   0  0  0  0  0  0  0  0  0  0  0  0
   13.9362   -9.4778   -8.3945 C   0  0  0  0  0  0  0  0  0  0  0  0
   13.8831   -8.5181   -9.5638 C   0  0  1  0  0  0  0  0  0  0  0  0
   15.1709   -7.7356   -9.5748 C   0  0  0  0  0  0  0  0  0  0  0  0
   15.4819   -6.9813   -8.6199 O   0  0  0  0  0  0  0  0  0  0  0  0
   20.8633   -8.5183  -12.3530 N   0  0  0  0  0  0  0  0  0  0  0  0
   20.5708   -7.1562  -12.5037 C   0  0  0  0  0  0  0  0  0  0  0  0
   21.1430   -6.4233  -13.3234 O   0  0  0  0  0  0  0  0  0  0  0  0
   19.4939   -6.5690  -11.6058 C   0  0  0  0  0  0  0  0  0  0  0  0
   18.2863   -7.4664  -11.6185 C   0  0  0  0  0  0  0  0  0  0  0  0
   17.2213   -6.9274  -10.7363 C   0  0  2  0  0  0  0  0  0  0  0  0
   16.0731   -7.8238  -10.6606 N   0  0  0  0  0  0  0  0  0  0  0  0
   16.7573   -5.5502  -11.0683 C   0  0  0  0  0  0  0  0  0  0  0  0
   16.2225   -5.2065  -12.1305 O   0  0  0  0  0  0  0  0  0  0  0  0
   16.9241   -4.5085  -10.1091 N   0  0  0  0  0  0  0  0  0  0  0  0
   16.5148   -3.1647  -10.2628 C   0  0  1  0  0  0  0  0  0  0  0  0
   16.0948   -2.4317   -9.0466 C   0  0  0  0  0  0  0  0  0  0  0  0
   14.7208   -2.8016   -8.5916 C   0  0  0  0  0  0  0  0  0  0  0  0
   13.9082   -3.4361   -9.3134 O   0  0  0  0  0  0  0  0  0  0  0  0
   17.6437   -2.3892  -10.8839 C   0  0  0  0  0  0  0  0  0  0  0  0
   17.5044   -1.1541  -11.1678 O   0  0  0  0  0  0  0  0  0  0  0  0
   14.2544   -2.4620   -7.3283 O   0  0  0  0  0  0  0  0  0  0  0  0
   18.8662   -2.9610  -11.1740 O   0  0  0  0  0  0  0  0  0  0  0  0
  1  5  1  0
  2  1  1  0
  3  4  1  0
  3  2  1  0
  4  5  1  0
  5  6  1  6
  6 14  1  0
  6  7  2  0
  9 10  2  0
  9  8  1  0
 11  9  1  0
 12 11  1  0
 13 12  1  6
 14 13  1  0
 15 13  1  0
 15 17  1  0
 16 15  2  0
 18 19  1  1
 18 17  1  0
 18 22  1  0
 19 20  1  0
 20 21  2  0
 20 24  1  0
 22 25  1  0
 23 22  2  0
M  END
$$$$
