PQD.pdb
     RDKit          3D

 25 25  0  0  1  0  0  0  0  0999 V2000
   24.4588  -11.7854  -16.3401 N   0  0  0  0  0  0  0  0  0  0  0  0
   25.3356  -12.9023  -16.0344 C   0  0  0  0  0  0  0  0  0  0  0  0
   24.7080  -14.1322  -16.6432 C   0  0  0  0  0  0  0  0  0  0  0  0
   23.3034  -13.6891  -16.9876 C   0  0  0  0  0  0  0  0  0  0  0  0
   23.5244  -12.2316  -17.3310 C   0  0  1  0  0  0  0  0  0  0  0  0
   22.2142  -11.5114  -17.1429 C   0  0  0  0  0  0  0  0  0  0  0  0
   21.2037  -11.8099  -17.8266 O   0  0  0  0  0  0  0  0  0  0  0  0
   17.5792  -12.3579  -15.5450 N   0  0  0  0  0  0  0  0  0  0  0  0
   17.2375  -10.9995  -15.5866 C   0  0  0  0  0  0  0  0  0  0  0  0
   16.0706  -10.5882  -15.5138 O   0  0  0  0  0  0  0  0  0  0  0  0
   18.3717   -9.9975  -15.7287 C   0  0  0  0  0  0  0  0  0  0  0  0
   19.6811  -10.7325  -15.8250 C   0  0  0  0  0  0  0  0  0  0  0  0
   20.8027   -9.7834  -16.0347 C   0  0  2  0  0  0  0  0  0  0  0  0
   22.0776  -10.4747  -16.1903 N   0  0  0  0  0  0  0  0  0  0  0  0
   20.9364   -8.7184  -15.0001 C   0  0  0  0  0  0  0  0  0  0  0  0
   21.6704   -8.7691  -14.0046 O   0  0  0  0  0  0  0  0  0  0  0  0
   20.1715   -7.5220  -15.1287 N   0  0  0  0  0  0  0  0  0  0  0  0
   20.4786   -6.2731  -14.5433 C   0  0  1  0  0  0  0  0  0  0  0  0
   21.8120   -5.6930  -14.8231 C   0  0  0  0  0  0  0  0  0  0  0  0
   22.0443   -4.4012  -14.1095 C   0  0  0  0  0  0  0  0  0  0  0  0
   21.1806   -3.8634  -13.3686 O   0  0  0  0  0  0  0  0  0  0  0  0
   19.4521   -5.2696  -14.9918 C   0  0  0  0  0  0  0  0  0  0  0  0
   19.0590   -5.2402  -16.2042 O   0  0  0  0  0  0  0  0  0  0  0  0
   23.2432   -3.7098  -14.2238 O   0  0  0  0  0  0  0  0  0  0  0  0
   18.8920   -4.3456  -14.1327 O   0  0  0  0  0  0  0  0  0  0  0  0
  1  5  1  0
  2  1  1  0
  3  4  1  0
  3  2  1  0
  4  5  1  0
  5  6  1  1
  6 14  1  0
  6  7  2  0
  9 10  2  0
  9  8  1  0
 11  9  1  0
 12 11  1  0
 13 12  1  1
 14 13  1  0
 15 13  1  0
 15 17  1  0
 16 15  2  0
 18 19  1  6
 18 17  1  0
 18 22  1  0
 19 20  1  0
 20 21  2  0
 20 24  1  0
 22 25  1  0
 23 22  2  0
M  END
$$$$
