PQD.pdb
     RDKit          3D

 25 25  0  0  1  0  0  0  0  0999 V2000
   18.2759  -11.1380  -16.4888 N   0  0  0  0  0  0  0  0  0  0  0  0
   17.8308  -12.4921  -16.7680 C   0  0  0  0  0  0  0  0  0  0  0  0
   18.8586  -13.4232  -16.1732 C   0  0  0  0  0  0  0  0  0  0  0  0
   20.0323  -12.5192  -15.8680 C   0  0  0  0  0  0  0  0  0  0  0  0
   19.3308  -11.2232  -15.5224 C   0  0  1  0  0  0  0  0  0  0  0  0
   20.3073  -10.0979  -15.7476 C   0  0  0  0  0  0  0  0  0  0  0  0
   21.3099   -9.9483  -15.0059 O   0  0  0  0  0  0  0  0  0  0  0  0
   22.5294  -10.5540  -19.5977 N   0  0  0  0  0  0  0  0  0  0  0  0
   23.5646   -9.9761  -18.8505 C   0  0  0  0  0  0  0  0  0  0  0  0
   24.6989  -10.4682  -18.7640 O   0  0  0  0  0  0  0  0  0  0  0  0
   23.2581   -8.6803  -18.1174 C   0  0  0  0  0  0  0  0  0  0  0  0
   21.8162   -8.3098  -18.3351 C   0  0  0  0  0  0  0  0  0  0  0  0
   21.1185   -8.1272  -17.0378 C   0  0  2  0  0  0  0  0  0  0  0  0
   20.1283   -9.1717  -16.8016 N   0  0  0  0  0  0  0  0  0  0  0  0
   20.4904   -6.7903  -16.8365 C   0  0  0  0  0  0  0  0  0  0  0  0
   19.5404   -6.3352  -17.4868 O   0  0  0  0  0  0  0  0  0  0  0  0
   20.9954   -5.9292  -15.8184 N   0  0  0  0  0  0  0  0  0  0  0  0
   20.4411   -4.6890  -15.4292 C   0  0  1  0  0  0  0  0  0  0  0  0
   19.0386   -4.6828  -14.9543 C   0  0  0  0  0  0  0  0  0  0  0  0
   18.5755   -3.3272  -14.5301 C   0  0  0  0  0  0  0  0  0  0  0  0
   19.0112   -2.2635  -15.0427 O   0  0  0  0  0  0  0  0  0  0  0  0
   21.2877   -4.1114  -14.3286 C   0  0  0  0  0  0  0  0  0  0  0  0
   22.2466   -4.7842  -13.8254 O   0  0  0  0  0  0  0  0  0  0  0  0
   17.6245   -3.1602  -13.5320 O   0  0  0  0  0  0  0  0  0  0  0  0
   21.0765   -2.8477  -13.8147 O   0  0  0  0  0  0  0  0  0  0  0  0
  1  5  1  0
  2  1  1  0
  3  4  1  0
  3  2  1  0
  4  5  1  0
  5  6  1  6
  6 14  1  0
  6  7  2  0
  9 10  2  0
  9  8  1  0
 11  9  1  0
 12 11  1  0
 13 12  1  6
 14 13  1  0
 15 13  1  0
 15 17  1  0
 16 15  2  0
 18 19  1  1
 18 17  1  0
 18 22  1  0
 19 20  1  0
 20 21  2  0
 20 24  1  0
 22 25  1  0
 23 22  2  0
M  END
$$$$
