PQD.pdb
     RDKit          3D

 25 25  0  0  1  0  0  0  0  0999 V2000
   27.7724  -19.7317  -17.3272 N   0  0  0  0  0  0  0  0  0  0  0  0
   28.2072  -18.6604  -18.2064 C   0  0  0  0  0  0  0  0  0  0  0  0
   28.1097  -17.3781  -17.4169 C   0  0  0  0  0  0  0  0  0  0  0  0
   27.2887  -17.7605  -16.2055 C   0  0  0  0  0  0  0  0  0  0  0  0
   27.7120  -19.1989  -15.9981 C   0  0  1  0  0  0  0  0  0  0  0  0
   26.6175  -19.8938  -15.2301 C   0  0  0  0  0  0  0  0  0  0  0  0
   25.7853  -20.6346  -15.8100 O   0  0  0  0  0  0  0  0  0  0  0  0
   25.7002  -20.3079   -9.0028 N   0  0  0  0  0  0  0  0  0  0  0  0
   24.5705  -20.9798   -9.4885 C   0  0  0  0  0  0  0  0  0  0  0  0
   23.7493  -21.5494   -8.7554 O   0  0  0  0  0  0  0  0  0  0  0  0
   24.3616  -20.9981  -10.9941 C   0  0  0  0  0  0  0  0  0  0  0  0
   25.5438  -20.3603  -11.6721 C   0  0  0  0  0  0  0  0  0  0  0  0
   25.3188  -20.2586  -13.1356 C   0  0  2  0  0  0  0  0  0  0  0  0
   26.4898  -19.7355  -13.8303 N   0  0  0  0  0  0  0  0  0  0  0  0
   24.1116  -19.4836  -13.5409 C   0  0  0  0  0  0  0  0  0  0  0  0
   24.1142  -18.3353  -14.0036 O   0  0  0  0  0  0  0  0  0  0  0  0
   22.8228  -20.0772  -13.4006 N   0  0  0  0  0  0  0  0  0  0  0  0
   21.6653  -19.7324  -14.1342 C   0  0  1  0  0  0  0  0  0  0  0  0
   21.7401  -19.8099  -15.6111 C   0  0  0  0  0  0  0  0  0  0  0  0
   20.4941  -19.3304  -16.2813 C   0  0  0  0  0  0  0  0  0  0  0  0
   19.8786  -18.2934  -15.9209 O   0  0  0  0  0  0  0  0  0  0  0  0
   20.5381  -20.6268  -13.6968 C   0  0  0  0  0  0  0  0  0  0  0  0
   20.7163  -21.8831  -13.5730 O   0  0  0  0  0  0  0  0  0  0  0  0
   19.9352  -20.0105  -17.3554 O   0  0  0  0  0  0  0  0  0  0  0  0
   19.2761  -20.1455  -13.4116 O   0  0  0  0  0  0  0  0  0  0  0  0
  1  5  1  0
  2  1  1  0
  3  4  1  0
  3  2  1  0
  4  5  1  0
  5  6  1  1
  6 14  1  0
  6  7  2  0
  9 10  2  0
  9  8  1  0
 11  9  1  0
 12 11  1  0
 13 12  1  1
 14 13  1  0
 15 13  1  0
 15 17  1  0
 16 15  2  0
 18 19  1  6
 18 17  1  0
 18 22  1  0
 19 20  1  0
 20 21  2  0
 20 24  1  0
 22 25  1  0
 23 22  2  0
M  END
$$$$
