PQD.pdb
     RDKit          3D

 25 25  0  0  1  0  0  0  0  0999 V2000
   17.0649  -12.3161  -14.7991 N   0  0  0  0  0  0  0  0  0  0  0  0
   15.9339  -12.8148  -15.5619 C   0  0  0  0  0  0  0  0  0  0  0  0
   16.4516  -13.1667  -16.9350 C   0  0  0  0  0  0  0  0  0  0  0  0
   17.8188  -12.5214  -16.9826 C   0  0  0  0  0  0  0  0  0  0  0  0
   18.2528  -12.6309  -15.5367 C   0  0  1  0  0  0  0  0  0  0  0  0
   19.2923  -11.5690  -15.2872 C   0  0  0  0  0  0  0  0  0  0  0  0
   20.4268  -11.8626  -14.8351 O   0  0  0  0  0  0  0  0  0  0  0  0
   21.3371   -9.0426  -19.2012 N   0  0  0  0  0  0  0  0  0  0  0  0
   22.2692   -9.6048  -18.3187 C   0  0  0  0  0  0  0  0  0  0  0  0
   23.2792  -10.2174  -18.6943 O   0  0  0  0  0  0  0  0  0  0  0  0
   22.0082   -9.4430  -16.8300 C   0  0  0  0  0  0  0  0  0  0  0  0
   20.6790   -8.7686  -16.6244 C   0  0  0  0  0  0  0  0  0  0  0  0
   20.0625   -9.2004  -15.3452 C   0  0  2  0  0  0  0  0  0  0  0  0
   19.0262  -10.2055  -15.5536 N   0  0  0  0  0  0  0  0  0  0  0  0
   19.5256   -8.1001  -14.4948 C   0  0  0  0  0  0  0  0  0  0  0  0
   18.3378   -7.7589  -14.4230 O   0  0  0  0  0  0  0  0  0  0  0  0
   20.4218   -7.3500  -13.6779 N   0  0  0  0  0  0  0  0  0  0  0  0
   20.0593   -6.3435  -12.7547 C   0  0  1  0  0  0  0  0  0  0  0  0
   19.3637   -6.7653  -11.5173 C   0  0  0  0  0  0  0  0  0  0  0  0
   19.0009   -5.6157  -10.6349 C   0  0  0  0  0  0  0  0  0  0  0  0
   18.9416   -4.4281  -11.0474 O   0  0  0  0  0  0  0  0  0  0  0  0
   21.3023   -5.6062  -12.3388 C   0  0  0  0  0  0  0  0  0  0  0  0
   22.4563   -6.0573  -12.6390 O   0  0  0  0  0  0  0  0  0  0  0  0
   18.7041   -5.7935   -9.2900 O   0  0  0  0  0  0  0  0  0  0  0  0
   21.2614   -4.4256  -11.6244 O   0  0  0  0  0  0  0  0  0  0  0  0
  1  5  1  0
  2  1  1  0
  3  4  1  0
  3  2  1  0
  4  5  1  0
  5  6  1  6
  6 14  1  0
  6  7  2  0
  9 10  2  0
  9  8  1  0
 11  9  1  0
 12 11  1  0
 13 12  1  6
 14 13  1  0
 15 13  1  0
 15 17  1  0
 16 15  2  0
 18 19  1  1
 18 17  1  0
 18 22  1  0
 19 20  1  0
 20 21  2  0
 20 24  1  0
 22 25  1  0
 23 22  2  0
M  END
$$$$
