TIP.pdb
     RDKit          3D

 23 23  0  0  1  0  0  0  0  0999 V2000
   22.2712  -22.2899  -15.2734 C   0  0  0  0  0  0  0  0  0  0  0  0
   21.1791  -21.2905  -14.8948 C   0  0  1  0  0  0  0  0  0  0  0  0
   19.9174  -21.8128  -15.0737 O   0  0  0  0  0  0  0  0  0  0  0  0
   21.4494  -20.8862  -13.4611 C   0  0  2  0  0  0  0  0  0  0  0  0
   20.4066  -20.0052  -12.9724 N   0  0  0  0  0  0  0  0  0  0  0  0
   22.7932  -20.2725  -13.3032 C   0  0  0  0  0  0  0  0  0  0  0  0
   22.9578  -19.0880  -13.6888 O   0  0  0  0  0  0  0  0  0  0  0  0
   25.4723  -20.8545   -8.9701 C   0  0  0  0  0  0  0  0  0  0  0  0
   25.0190  -20.3865  -10.3353 C   0  0  0  0  0  0  0  0  0  0  0  0
   25.8135  -20.9953  -11.4450 C   0  0  2  0  0  0  0  0  0  0  0  0
   27.2798  -20.9757  -11.2957 C   0  0  0  0  0  0  0  0  0  0  0  0
   25.2677  -20.4548  -12.7640 C   0  0  2  0  0  0  0  0  0  0  0  0
   23.8706  -20.9678  -12.7433 N   0  0  0  0  0  0  0  0  0  0  0  0
   25.9732  -20.9617  -13.9399 C   0  0  0  0  0  0  0  0  0  0  0  0
   25.7241  -22.1764  -14.2594 O   0  0  0  0  0  0  0  0  0  0  0  0
   26.8849  -20.2352  -14.7383 N   0  0  0  0  0  0  0  0  0  0  0  0
   27.7360  -19.1429  -14.2170 C   0  0  0  0  0  0  0  0  0  0  0  0
   27.8168  -18.1519  -15.3613 C   0  0  0  0  0  0  0  0  0  0  0  0
   27.1717  -18.8426  -16.5561 C   0  0  0  0  0  0  0  0  0  0  0  0
   27.2425  -20.2899  -16.1284 C   0  0  1  0  0  0  0  0  0  0  0  0
   28.6250  -20.8246  -16.3240 C   0  0  0  0  0  0  0  0  0  0  0  0
   29.3535  -21.0976  -15.3687 O   0  0  0  0  0  0  0  0  0  0  0  0
   29.0762  -21.0095  -17.6161 O   0  0  0  0  0  0  0  0  0  0  0  0
  2  1  1  1
  2  3  1  0
  4  5  1  6
  4  6  1  0
  4  2  1  0
  6  7  2  0
  9 10  1  0
  9  8  1  0
 10 12  1  0
 10 11  1  1
 12 14  1  0
 12 13  1  6
 13  6  1  0
 14 15  2  0
 14 16  1  0
 16 20  1  0
 16 17  1  0
 17 18  1  0
 19 18  1  0
 20 19  1  0
 21 23  1  0
 20 21  1  1
 22 21  2  0
M  END
$$$$
