TIP.pdb
     RDKit          3D

 23 23  0  0  1  0  0  0  0  0999 V2000
   45.5860  -11.6988  -10.2237 C   0  0  0  0  0  0  0  0  0  0  0  0
   45.1174  -11.0307   -8.9319 C   0  0  1  0  0  0  0  0  0  0  0  0
   44.6066   -9.7719   -9.1580 O   0  0  0  0  0  0  0  0  0  0  0  0
   44.1080  -11.9706   -8.3075 C   0  0  2  0  0  0  0  0  0  0  0  0
   43.4304  -11.3298   -7.1972 N   0  0  0  0  0  0  0  0  0  0  0  0
   44.7301  -13.2544   -7.8926 C   0  0  0  0  0  0  0  0  0  0  0  0
   45.3050  -13.3063   -6.7765 O   0  0  0  0  0  0  0  0  0  0  0  0
   42.4209  -17.5171   -9.7038 C   0  0  0  0  0  0  0  0  0  0  0  0
   43.2720  -16.5554   -8.9043 C   0  0  0  0  0  0  0  0  0  0  0  0
   44.7272  -16.6740   -9.2229 C   0  0  2  0  0  0  0  0  0  0  0  0
   45.2973  -18.0333   -9.2126 C   0  0  0  0  0  0  0  0  0  0  0  0
   45.4744  -15.6285   -8.3992 C   0  0  2  0  0  0  0  0  0  0  0  0
   44.6952  -14.3965   -8.7001 N   0  0  0  0  0  0  0  0  0  0  0  0
   46.8688  -15.4539   -8.8028 C   0  0  0  0  0  0  0  0  0  0  0  0
   47.0632  -14.7223   -9.8356 O   0  0  0  0  0  0  0  0  0  0  0  0
   47.9957  -16.0112   -8.1580 N   0  0  0  0  0  0  0  0  0  0  0  0
   47.9086  -16.8515   -6.9434 C   0  0  0  0  0  0  0  0  0  0  0  0
   49.1469  -16.4897   -6.1473 C   0  0  0  0  0  0  0  0  0  0  0  0
   49.9861  -15.6068   -7.0623 C   0  0  0  0  0  0  0  0  0  0  0  0
   49.4081  -15.9561   -8.4137 C   0  0  1  0  0  0  0  0  0  0  0  0
   49.9378  -17.2731   -8.8831 C   0  0  0  0  0  0  0  0  0  0  0  0
   49.2778  -18.3085   -8.7812 O   0  0  0  0  0  0  0  0  0  0  0  0
   51.2003  -17.3069   -9.4416 O   0  0  0  0  0  0  0  0  0  0  0  0
  2  1  1  6
  2  3  1  0
  4  5  1  1
  4  6  1  0
  4  2  1  0
  6  7  2  0
  9 10  1  0
  9  8  1  0
 10 12  1  0
 10 11  1  1
 12 14  1  0
 12 13  1  6
 13  6  1  0
 14 15  2  0
 14 16  1  0
 16 20  1  0
 16 17  1  0
 17 18  1  0
 19 18  1  0
 20 19  1  0
 21 23  1  0
 20 21  1  1
 22 21  2  0
M  END
$$$$
