TIP.pdb
     RDKit          3D

 23 23  0  0  1  0  0  0  0  0999 V2000
   22.4512  -22.5244  -15.0029 C   0  0  0  0  0  0  0  0  0  0  0  0
   21.4343  -21.3849  -15.0501 C   0  0  1  0  0  0  0  0  0  0  0  0
   20.1545  -21.8443  -15.2687 O   0  0  0  0  0  0  0  0  0  0  0  0
   21.5735  -20.6346  -13.7425 C   0  0  2  0  0  0  0  0  0  0  0  0
   20.5478  -19.6164  -13.6249 N   0  0  0  0  0  0  0  0  0  0  0  0
   22.9316  -20.0549  -13.5791 C   0  0  0  0  0  0  0  0  0  0  0  0
   23.1982  -18.9810  -14.1744 O   0  0  0  0  0  0  0  0  0  0  0  0
   25.3980  -20.7539   -9.0467 C   0  0  0  0  0  0  0  0  0  0  0  0
   25.0145  -20.2417  -10.4174 C   0  0  0  0  0  0  0  0  0  0  0  0
   25.8592  -20.8217  -11.5052 C   0  0  2  0  0  0  0  0  0  0  0  0
   27.3188  -20.7757  -11.3040 C   0  0  0  0  0  0  0  0  0  0  0  0
   25.3496  -20.2760  -12.8364 C   0  0  2  0  0  0  0  0  0  0  0  0
   23.9133  -20.6636  -12.7895 N   0  0  0  0  0  0  0  0  0  0  0  0
   25.9962  -20.8785  -14.0010 C   0  0  0  0  0  0  0  0  0  0  0  0
   25.6296  -22.0714  -14.2879 O   0  0  0  0  0  0  0  0  0  0  0  0
   26.9691  -20.2640  -14.8210 N   0  0  0  0  0  0  0  0  0  0  0  0
   27.8520  -19.1699  -14.3601 C   0  0  0  0  0  0  0  0  0  0  0  0
   28.0202  -18.2848  -15.5793 C   0  0  0  0  0  0  0  0  0  0  0  0
   27.3856  -19.0460  -16.7364 C   0  0  0  0  0  0  0  0  0  0  0  0
   27.3726  -20.4531  -16.1866 C   0  0  1  0  0  0  0  0  0  0  0  0
   28.7343  -21.0632  -16.2823 C   0  0  0  0  0  0  0  0  0  0  0  0
   29.4152  -21.2847  -15.2797 O   0  0  0  0  0  0  0  0  0  0  0  0
   29.2212  -21.3786  -17.5356 O   0  0  0  0  0  0  0  0  0  0  0  0
  2  1  1  1
  2  3  1  0
  4  5  1  6
  4  6  1  0
  4  2  1  0
  6  7  2  0
  9 10  1  0
  9  8  1  0
 10 12  1  0
 10 11  1  1
 12 14  1  0
 12 13  1  6
 13  6  1  0
 14 15  2  0
 14 16  1  0
 16 20  1  0
 16 17  1  0
 17 18  1  0
 19 18  1  0
 20 19  1  0
 21 23  1  0
 20 21  1  1
 22 21  2  0
M  END
$$$$
