TIP.pdb
     RDKit          3D

 23 23  0  0  1  0  0  0  0  0999 V2000
   21.9127  -20.7812  -15.8324 C   0  0  0  0  0  0  0  0  0  0  0  0
   22.4012  -21.6015  -17.0253 C   0  0  1  0  0  0  0  0  0  0  0  0
   21.4052  -21.8040  -17.9547 O   0  0  0  0  0  0  0  0  0  0  0  0
   23.5926  -20.8599  -17.5936 C   0  0  2  0  0  0  0  0  0  0  0  0
   24.0970  -21.5312  -18.7757 N   0  0  0  0  0  0  0  0  0  0  0  0
   24.6628  -20.6730  -16.5802 C   0  0  0  0  0  0  0  0  0  0  0  0
   25.4342  -21.6358  -16.3418 O   0  0  0  0  0  0  0  0  0  0  0  0
   26.8926  -16.0722  -16.4104 C   0  0  0  0  0  0  0  0  0  0  0  0
   26.7038  -17.5505  -16.1509 C   0  0  0  0  0  0  0  0  0  0  0  0
   26.1019  -17.8269  -14.8114 C   0  0  2  0  0  0  0  0  0  0  0  0
   26.8043  -17.2664  -13.6429 C   0  0  0  0  0  0  0  0  0  0  0  0
   25.7723  -19.3157  -14.7434 C   0  0  2  0  0  0  0  0  0  0  0  0
   24.8355  -19.4683  -15.8900 N   0  0  0  0  0  0  0  0  0  0  0  0
   25.1148  -19.7126  -13.4993 C   0  0  0  0  0  0  0  0  0  0  0  0
   23.8554  -19.4893  -13.4380 O   0  0  0  0  0  0  0  0  0  0  0  0
   25.7411  -20.3132  -12.3843 N   0  0  0  0  0  0  0  0  0  0  0  0
   27.2078  -20.4528  -12.2490 C   0  0  0  0  0  0  0  0  0  0  0  0
   27.3943  -21.7777  -11.5364 C   0  0  0  0  0  0  0  0  0  0  0  0
   25.9996  -22.2233  -11.1151 C   0  0  0  0  0  0  0  0  0  0  0  0
   25.2452  -20.9158  -11.1783 C   0  0  1  0  0  0  0  0  0  0  0  0
   25.5484  -20.0800   -9.9763 C   0  0  0  0  0  0  0  0  0  0  0  0
   25.0296  -20.3088   -8.8825 O   0  0  0  0  0  0  0  0  0  0  0  0
   26.4347  -19.0304  -10.1181 O   0  0  0  0  0  0  0  0  0  0  0  0
  2  1  1  1
  2  3  1  0
  4  5  1  6
  4  6  1  0
  4  2  1  0
  6  7  2  0
  9 10  1  0
  9  8  1  0
 10 12  1  0
 10 11  1  1
 12 14  1  0
 12 13  1  6
 13  6  1  0
 14 15  2  0
 14 16  1  0
 16 20  1  0
 16 17  1  0
 17 18  1  0
 19 18  1  0
 20 19  1  0
 21 23  1  0
 20 21  1  1
 22 21  2  0
M  END
$$$$
