TIP.pdb
     RDKit          3D

 23 23  0  0  1  0  0  0  0  0999 V2000
   18.3780   -9.5648  -19.9129 C   0  0  0  0  0  0  0  0  0  0  0  0
   17.8130  -10.9673  -19.6923 C   0  0  1  0  0  0  0  0  0  0  0  0
   17.3978  -11.5474  -20.8703 O   0  0  0  0  0  0  0  0  0  0  0  0
   18.8999  -11.7605  -18.9982 C   0  0  2  0  0  0  0  0  0  0  0  0
   18.5144  -13.1523  -18.8686 N   0  0  0  0  0  0  0  0  0  0  0  0
   19.2576  -11.1740  -17.6809 C   0  0  0  0  0  0  0  0  0  0  0  0
   18.4265  -11.2616  -16.7426 O   0  0  0  0  0  0  0  0  0  0  0  0
   23.8665  -10.9443  -14.0244 C   0  0  0  0  0  0  0  0  0  0  0  0
   22.5866  -10.2633  -14.4560 C   0  0  0  0  0  0  0  0  0  0  0  0
   22.1346  -10.6957  -15.8132 C   0  0  2  0  0  0  0  0  0  0  0  0
   23.1604  -10.7311  -16.8712 C   0  0  0  0  0  0  0  0  0  0  0  0
   20.8553   -9.9328  -16.1467 C   0  0  2  0  0  0  0  0  0  0  0  0
   20.4808  -10.5329  -17.4563 N   0  0  0  0  0  0  0  0  0  0  0  0
   21.0551   -8.4917  -16.2915 C   0  0  0  0  0  0  0  0  0  0  0  0
   21.8159   -8.1280  -17.2551 O   0  0  0  0  0  0  0  0  0  0  0  0
   20.4863   -7.4885  -15.4752 N   0  0  0  0  0  0  0  0  0  0  0  0
   19.6378   -7.7777  -14.2981 C   0  0  0  0  0  0  0  0  0  0  0  0
   18.6110   -6.6625  -14.2928 C   0  0  0  0  0  0  0  0  0  0  0  0
   19.0660   -5.6733  -15.3583 C   0  0  0  0  0  0  0  0  0  0  0  0
   20.5209   -6.0528  -15.5052 C   0  0  1  0  0  0  0  0  0  0  0  0
   21.3226   -5.4944  -14.3734 C   0  0  0  0  0  0  0  0  0  0  0  0
   21.5777   -4.2917  -14.2937 O   0  0  0  0  0  0  0  0  0  0  0  0
   21.7785   -6.3663  -13.4043 O   0  0  0  0  0  0  0  0  0  0  0  0
  2  1  1  6
  2  3  1  0
  4  5  1  1
  4  6  1  0
  4  2  1  0
  6  7  2  0
  9 10  1  0
  9  8  1  0
 10 12  1  0
 10 11  1  6
 12 14  1  0
 12 13  1  6
 13  6  1  0
 14 15  2  0
 14 16  1  0
 16 20  1  0
 16 17  1  0
 17 18  1  0
 19 18  1  0
 20 19  1  0
 21 23  1  0
 20 21  1  1
 22 21  2  0
M  END
$$$$
