TIP.pdb
     RDKit          3D

 23 23  0  0  1  0  0  0  0  0999 V2000
   21.5640  -12.9723  -20.6876 C   0  0  0  0  0  0  0  0  0  0  0  0
   21.7299  -12.0142  -19.5090 C   0  0  1  0  0  0  0  0  0  0  0  0
   20.5608  -11.3468  -19.2182 O   0  0  0  0  0  0  0  0  0  0  0  0
   22.2344  -12.8472  -18.3498 C   0  0  2  0  0  0  0  0  0  0  0  0
   21.2638  -13.8618  -17.9878 N   0  0  0  0  0  0  0  0  0  0  0  0
   22.5980  -12.0057  -17.1806 C   0  0  0  0  0  0  0  0  0  0  0  0
   21.8272  -11.9967  -16.1884 O   0  0  0  0  0  0  0  0  0  0  0  0
   27.4616  -12.1027  -15.7634 C   0  0  0  0  0  0  0  0  0  0  0  0
   25.9688  -11.8578  -15.7565 C   0  0  0  0  0  0  0  0  0  0  0  0
   25.6205  -10.4230  -15.9871 C   0  0  2  0  0  0  0  0  0  0  0  0
   26.3180   -9.4307  -15.1494 C   0  0  0  0  0  0  0  0  0  0  0  0
   24.0989  -10.3109  -16.0308 C   0  0  2  0  0  0  0  0  0  0  0  0
   23.7623  -11.2302  -17.1519 N   0  0  0  0  0  0  0  0  0  0  0  0
   23.6205   -8.9610  -16.3252 C   0  0  0  0  0  0  0  0  0  0  0  0
   23.9401   -8.4940  -17.4738 O   0  0  0  0  0  0  0  0  0  0  0  0
   22.8475   -8.1484  -15.4659 N   0  0  0  0  0  0  0  0  0  0  0  0
   22.4874   -8.5334  -14.0834 C   0  0  0  0  0  0  0  0  0  0  0  0
   21.0961   -7.9649  -13.8861 C   0  0  0  0  0  0  0  0  0  0  0  0
   20.8235   -7.0985  -15.1092 C   0  0  0  0  0  0  0  0  0  0  0  0
   22.2267   -6.8617  -15.6164 C   0  0  1  0  0  0  0  0  0  0  0  0
   22.9099   -5.8175  -14.7928 C   0  0  0  0  0  0  0  0  0  0  0  0
   22.5741   -4.6331  -14.8427 O   0  0  0  0  0  0  0  0  0  0  0  0
   23.9404   -6.2124  -13.9625 O   0  0  0  0  0  0  0  0  0  0  0  0
  2  1  1  6
  2  3  1  0
  4  5  1  1
  4  6  1  0
  4  2  1  0
  6  7  2  0
  9 10  1  0
  9  8  1  0
 10 12  1  0
 10 11  1  1
 12 14  1  0
 12 13  1  6
 13  6  1  0
 14 15  2  0
 14 16  1  0
 16 20  1  0
 16 17  1  0
 17 18  1  0
 19 18  1  0
 20 19  1  0
 21 23  1  0
 20 21  1  1
 22 21  2  0
M  END
$$$$
