NDK.pdb
     RDKit          3D

 26 25  0  0  1  0  0  0  0  0999 V2000
   11.1902  -12.5864  -10.0563 N   0  0  0  0  0  0  0  0  0  0  0  0
   12.4580  -12.1690  -10.5165 C   0  0  0  0  0  0  0  0  0  0  0  0
   13.2418  -12.9572  -11.0907 O   0  0  0  0  0  0  0  0  0  0  0  0
   12.8846  -10.7698  -10.3231 C   0  0  0  0  0  0  0  0  0  0  0  0
   14.2827  -10.5650  -10.8958 C   0  0  2  0  0  0  0  0  0  0  0  0
   15.2020  -11.3895  -10.1422 N   0  0  0  0  0  0  0  0  0  0  0  0
   14.6133   -9.1371  -10.8320 C   0  0  0  0  0  0  0  0  0  0  0  0
   13.9246   -8.3193  -11.4938 O   0  0  0  0  0  0  0  0  0  0  0  0
   15.7009   -8.6988  -10.0288 N   0  0  0  0  0  0  0  0  0  0  0  0
   16.1824   -7.3311  -10.0427 C   0  0  1  0  0  0  0  0  0  0  0  0
   15.9763   -6.7503   -8.6669 C   0  0  0  0  0  0  0  0  0  0  0  0
   16.4213   -5.3374   -8.6475 C   0  0  0  0  0  0  0  0  0  0  0  0
   17.6240   -4.9705   -8.6699 O   0  0  0  0  0  0  0  0  0  0  0  0
   17.6246   -7.2862  -10.4320 C   0  0  0  0  0  0  0  0  0  0  0  0
   18.4918   -8.0556   -9.9784 O   0  0  0  0  0  0  0  0  0  0  0  0
   15.4954   -4.2816   -8.6010 O   0  0  0  0  0  0  0  0  0  0  0  0
   18.0329   -6.3118  -11.3729 N   0  0  0  0  0  0  0  0  0  0  0  0
   19.3411   -6.4316  -12.0660 C   0  0  1  0  0  0  0  0  0  0  0  0
   19.4360   -7.7578  -12.7379 C   0  0  0  0  0  0  0  0  0  0  0  0
   20.6947   -7.8630  -13.5432 C   0  0  0  0  0  0  0  0  0  0  0  0
   20.8013   -9.2124  -14.2477 C   0  0  0  0  0  0  0  0  0  0  0  0
   22.0700   -9.3405  -15.0340 C   0  0  0  0  0  0  0  0  0  0  0  0
   22.0624  -10.6225  -15.7538 N   0  0  0  0  0  0  0  0  0  0  0  0
   19.5426   -5.2907  -12.9568 C   0  0  0  0  0  0  0  0  0  0  0  0
   20.6382   -4.8802  -13.3884 O   0  0  0  0  0  0  0  0  0  0  0  0
   18.3998   -4.5747  -13.3782 O   0  0  0  0  0  0  0  0  0  0  0  0
  2  3  2  0
  2  1  1  0
  4  5  1  0
  4  2  1  0
  5  7  1  0
  5  6  1  1
  7  8  2  0
  9 10  1  0
  9  7  1  0
 10 14  1  0
 11 12  1  0
 10 11  1  1
 12 16  1  0
 13 12  2  0
 14 17  1  0
 14 15  2  0
 17 18  1  0
 18 24  1  0
 18 19  1  6
 20 21  1  0
 20 19  1  0
 22 21  1  0
 23 22  1  0
 24 26  1  0
 25 24  2  0
M  END
$$$$
