NDK.pdb
     RDKit          3D

 26 25  0  0  1  0  0  0  0  0999 V2000
   27.9316  -22.9002  -17.9582 N   0  0  0  0  0  0  0  0  0  0  0  0
   26.6964  -22.3349  -18.3431 C   0  0  0  0  0  0  0  0  0  0  0  0
   26.5295  -21.8264  -19.4740 O   0  0  0  0  0  0  0  0  0  0  0  0
   25.5628  -22.3363  -17.3987 C   0  0  0  0  0  0  0  0  0  0  0  0
   26.0002  -22.9132  -16.0568 C   0  0  2  0  0  0  0  0  0  0  0  0
   26.5963  -24.2090  -16.2978 N   0  0  0  0  0  0  0  0  0  0  0  0
   24.8338  -22.9779  -15.1693 C   0  0  0  0  0  0  0  0  0  0  0  0
   24.6913  -23.9758  -14.4177 O   0  0  0  0  0  0  0  0  0  0  0  0
   23.8855  -21.9192  -15.1704 N   0  0  0  0  0  0  0  0  0  0  0  0
   22.7359  -21.8977  -14.2868 C   0  0  1  0  0  0  0  0  0  0  0  0
   22.4529  -20.4618  -13.9248 C   0  0  0  0  0  0  0  0  0  0  0  0
   21.3080  -20.3977  -12.9869 C   0  0  0  0  0  0  0  0  0  0  0  0
   20.7111  -21.4032  -12.5239 O   0  0  0  0  0  0  0  0  0  0  0  0
   21.5526  -22.5256  -14.9493 C   0  0  0  0  0  0  0  0  0  0  0  0
   21.1603  -22.2340  -16.0943 O   0  0  0  0  0  0  0  0  0  0  0  0
   20.7991  -19.1665  -12.5403 O   0  0  0  0  0  0  0  0  0  0  0  0
   20.8322  -23.5119  -14.2355 N   0  0  0  0  0  0  0  0  0  0  0  0
   19.5996  -24.1109  -14.8085 C   0  0  1  0  0  0  0  0  0  0  0  0
   19.3183  -25.4153  -14.1463 C   0  0  0  0  0  0  0  0  0  0  0  0
   18.0699  -26.0369  -14.6930 C   0  0  0  0  0  0  0  0  0  0  0  0
   17.7161  -27.3279  -13.9604 C   0  0  0  0  0  0  0  0  0  0  0  0
   16.5988  -28.0689  -14.6289 C   0  0  0  0  0  0  0  0  0  0  0  0
   16.3483  -29.3211  -13.9001 N   0  0  0  0  0  0  0  0  0  0  0  0
   18.4983  -23.1525  -14.7406 C   0  0  0  0  0  0  0  0  0  0  0  0
   17.7150  -22.8667  -15.6679 O   0  0  0  0  0  0  0  0  0  0  0  0
   18.2873  -22.4780  -13.5172 O   0  0  0  0  0  0  0  0  0  0  0  0
  2  3  2  0
  2  1  1  0
  4  5  1  0
  4  2  1  0
  5  7  1  0
  5  6  1  6
  7  8  2  0
  9 10  1  0
  9  7  1  0
 10 14  1  0
 11 12  1  0
 10 11  1  6
 12 16  1  0
 13 12  2  0
 14 17  1  0
 14 15  2  0
 17 18  1  0
 18 24  1  0
 18 19  1  1
 20 21  1  0
 20 19  1  0
 22 21  1  0
 23 22  1  0
 24 26  1  0
 25 24  2  0
M  END
$$$$
