NDK.pdb
     RDKit          3D

 26 25  0  0  1  0  0  0  0  0999 V2000
   17.1383  -12.5026  -16.8616 N   0  0  0  0  0  0  0  0  0  0  0  0
   17.8873  -11.3135  -16.9965 C   0  0  0  0  0  0  0  0  0  0  0  0
   18.6676  -11.1329  -17.9578 O   0  0  0  0  0  0  0  0  0  0  0  0
   17.7578  -10.2461  -15.9862 C   0  0  0  0  0  0  0  0  0  0  0  0
   19.1087   -9.5784  -15.7539 C   0  0  2  0  0  0  0  0  0  0  0  0
   19.9753  -10.5339  -15.0990 N   0  0  0  0  0  0  0  0  0  0  0  0
   18.9022   -8.3600  -14.9634 C   0  0  0  0  0  0  0  0  0  0  0  0
   18.1371   -8.3996  -13.9664 O   0  0  0  0  0  0  0  0  0  0  0  0
   19.5647   -7.1578  -15.3321 N   0  0  0  0  0  0  0  0  0  0  0  0
   19.3787   -5.9107  -14.6159 C   0  0  1  0  0  0  0  0  0  0  0  0
   20.6791   -5.1493  -14.6601 C   0  0  0  0  0  0  0  0  0  0  0  0
   21.5626   -5.6021  -13.5606 C   0  0  0  0  0  0  0  0  0  0  0  0
   21.2398   -6.4551  -12.6946 O   0  0  0  0  0  0  0  0  0  0  0  0
   18.2714   -5.1144  -15.2270 C   0  0  0  0  0  0  0  0  0  0  0  0
   18.1821   -4.8668  -16.4438 O   0  0  0  0  0  0  0  0  0  0  0  0
   22.8621   -5.0892  -13.4108 O   0  0  0  0  0  0  0  0  0  0  0  0
   17.2615   -4.6101  -14.3743 N   0  0  0  0  0  0  0  0  0  0  0  0
   16.1653   -3.7672  -14.9168 C   0  0  1  0  0  0  0  0  0  0  0  0
   14.8990   -4.0564  -14.1873 C   0  0  0  0  0  0  0  0  0  0  0  0
   13.7593   -3.2688  -14.7568 C   0  0  0  0  0  0  0  0  0  0  0  0
   12.4636   -3.5183  -13.9903 C   0  0  0  0  0  0  0  0  0  0  0  0
   11.2882   -2.8494  -14.6345 C   0  0  0  0  0  0  0  0  0  0  0  0
   10.0911   -3.0853  -13.8139 N   0  0  0  0  0  0  0  0  0  0  0  0
   16.5602   -2.3602  -14.9012 C   0  0  0  0  0  0  0  0  0  0  0  0
   16.0579   -1.4486  -15.5880 O   0  0  0  0  0  0  0  0  0  0  0  0
   17.6074   -1.9802  -14.0321 O   0  0  0  0  0  0  0  0  0  0  0  0
  2  3  2  0
  2  1  1  0
  4  5  1  0
  4  2  1  0
  5  7  1  0
  5  6  1  1
  7  8  2  0
  9 10  1  0
  9  7  1  0
 10 14  1  0
 11 12  1  0
 10 11  1  6
 12 16  1  0
 13 12  2  0
 14 17  1  0
 14 15  2  0
 17 18  1  0
 18 24  1  0
 18 19  1  1
 20 21  1  0
 20 19  1  0
 22 21  1  0
 23 22  1  0
 24 26  1  0
 25 24  2  0
M  END
$$$$
