NDK.pdb
     RDKit          3D

 26 25  0  0  1  0  0  0  0  0999 V2000
   16.1835  -13.4112  -14.1886 N   0  0  0  0  0  0  0  0  0  0  0  0
   17.3097  -13.3319  -15.0363 C   0  0  0  0  0  0  0  0  0  0  0  0
   17.8689  -14.3572  -15.4852 O   0  0  0  0  0  0  0  0  0  0  0  0
   17.8536  -12.0129  -15.4124 C   0  0  0  0  0  0  0  0  0  0  0  0
   16.7161  -11.0245  -15.6446 C   0  0  2  0  0  0  0  0  0  0  0  0
   15.9333  -11.4960  -16.7661 N   0  0  0  0  0  0  0  0  0  0  0  0
   17.2881   -9.6922  -15.8680 C   0  0  0  0  0  0  0  0  0  0  0  0
   17.8065   -9.4278  -16.9826 O   0  0  0  0  0  0  0  0  0  0  0  0
   17.2498   -8.7235  -14.8286 N   0  0  0  0  0  0  0  0  0  0  0  0
   17.7795   -7.3831  -14.9886 C   0  0  1  0  0  0  0  0  0  0  0  0
   16.9637   -6.4535  -14.1265 C   0  0  0  0  0  0  0  0  0  0  0  0
   15.6583   -6.1859  -14.7738 C   0  0  0  0  0  0  0  0  0  0  0  0
   15.5070   -5.9573  -16.0012 O   0  0  0  0  0  0  0  0  0  0  0  0
   19.2232   -7.3398  -14.6048 C   0  0  0  0  0  0  0  0  0  0  0  0
   19.6960   -7.9188  -13.6092 O   0  0  0  0  0  0  0  0  0  0  0  0
   14.4656   -6.1699  -14.0312 O   0  0  0  0  0  0  0  0  0  0  0  0
   20.1094   -6.5971  -15.4199 N   0  0  0  0  0  0  0  0  0  0  0  0
   21.5620   -6.5531  -15.1126 C   0  0  1  0  0  0  0  0  0  0  0  0
   22.3426   -6.9906  -16.3036 C   0  0  0  0  0  0  0  0  0  0  0  0
   23.8146   -6.9305  -16.0327 C   0  0  0  0  0  0  0  0  0  0  0  0
   24.6280   -7.4070  -17.2326 C   0  0  0  0  0  0  0  0  0  0  0  0
   26.0901   -7.5051  -16.9210 C   0  0  0  0  0  0  0  0  0  0  0  0
   26.8169   -7.8892  -18.1401 N   0  0  0  0  0  0  0  0  0  0  0  0
   21.9274   -5.2315  -14.6068 C   0  0  0  0  0  0  0  0  0  0  0  0
   21.5125   -4.1384  -15.0406 O   0  0  0  0  0  0  0  0  0  0  0  0
   22.8344   -5.1683  -13.5253 O   0  0  0  0  0  0  0  0  0  0  0  0
  2  3  2  0
  2  1  1  0
  4  5  1  0
  4  2  1  0
  5  7  1  0
  5  6  1  6
  7  8  2  0
  9 10  1  0
  9  7  1  0
 10 14  1  0
 11 12  1  0
 10 11  1  1
 12 16  1  0
 13 12  2  0
 14 17  1  0
 14 15  2  0
 17 18  1  0
 18 24  1  0
 18 19  1  6
 20 21  1  0
 20 19  1  0
 22 21  1  0
 23 22  1  0
 24 26  1  0
 25 24  2  0
M  END
$$$$
