NDK.pdb
     RDKit          3D

 26 25  0  0  1  0  0  0  0  0999 V2000
   16.7647  -17.7904  -16.2316 N   0  0  0  0  0  0  0  0  0  0  0  0
   17.8511  -17.0035  -16.6719 C   0  0  0  0  0  0  0  0  0  0  0  0
   18.9961  -17.4860  -16.8187 O   0  0  0  0  0  0  0  0  0  0  0  0
   17.6473  -15.5732  -16.9712 C   0  0  0  0  0  0  0  0  0  0  0  0
   18.7880  -14.7482  -16.3857 C   0  0  2  0  0  0  0  0  0  0  0  0
   18.8915  -15.0611  -14.9770 N   0  0  0  0  0  0  0  0  0  0  0  0
   18.5190  -13.3280  -16.6364 C   0  0  0  0  0  0  0  0  0  0  0  0
   18.6094  -12.8858  -17.8100 O   0  0  0  0  0  0  0  0  0  0  0  0
   18.1625  -12.4751  -15.5568 N   0  0  0  0  0  0  0  0  0  0  0  0
   17.9014  -11.0594  -15.7315 C   0  0  1  0  0  0  0  0  0  0  0  0
   16.8305  -10.6582  -14.7491 C   0  0  0  0  0  0  0  0  0  0  0  0
   15.5266  -11.2202  -15.1718 C   0  0  0  0  0  0  0  0  0  0  0  0
   15.1993  -11.4359  -16.3668 O   0  0  0  0  0  0  0  0  0  0  0  0
   19.1489  -10.2650  -15.5170 C   0  0  0  0  0  0  0  0  0  0  0  0
   20.0487  -10.5850  -14.7183 O   0  0  0  0  0  0  0  0  0  0  0  0
   14.5391  -11.5591  -14.2315 O   0  0  0  0  0  0  0  0  0  0  0  0
   19.3216   -9.0769  -16.2653 N   0  0  0  0  0  0  0  0  0  0  0  0
   20.5767   -8.2900  -16.1556 C   0  0  1  0  0  0  0  0  0  0  0  0
   21.0429   -7.8930  -17.5137 C   0  0  0  0  0  0  0  0  0  0  0  0
   22.2911   -7.0688  -17.4333 C   0  0  0  0  0  0  0  0  0  0  0  0
   22.7363   -6.5851  -18.8104 C   0  0  0  0  0  0  0  0  0  0  0  0
   23.9841   -5.7589  -18.7429 C   0  0  0  0  0  0  0  0  0  0  0  0
   24.4208   -5.4348  -20.1089 N   0  0  0  0  0  0  0  0  0  0  0  0
   20.3879   -7.1715  -15.2341 C   0  0  0  0  0  0  0  0  0  0  0  0
   19.3903   -6.4253  -15.1792 O   0  0  0  0  0  0  0  0  0  0  0  0
   21.4228   -6.8962  -14.3124 O   0  0  0  0  0  0  0  0  0  0  0  0
  2  3  2  0
  2  1  1  0
  4  5  1  0
  4  2  1  0
  5  7  1  0
  5  6  1  1
  7  8  2  0
  9 10  1  0
  9  7  1  0
 10 14  1  0
 11 12  1  0
 10 11  1  1
 12 16  1  0
 13 12  2  0
 14 17  1  0
 14 15  2  0
 17 18  1  0
 18 24  1  0
 18 19  1  6
 20 21  1  0
 20 19  1  0
 22 21  1  0
 23 22  1  0
 24 26  1  0
 25 24  2  0
M  END
$$$$
