NDK.pdb
     RDKit          3D

 26 25  0  0  1  0  0  0  0  0999 V2000
   27.0238  -26.1734  -17.8482 N   0  0  0  0  0  0  0  0  0  0  0  0
   26.4543  -26.8751  -16.7635 C   0  0  0  0  0  0  0  0  0  0  0  0
   26.6805  -28.0911  -16.5750 O   0  0  0  0  0  0  0  0  0  0  0  0
   25.5672  -26.1704  -15.8183 C   0  0  0  0  0  0  0  0  0  0  0  0
   25.3682  -24.7262  -16.2648 C   0  0  2  0  0  0  0  0  0  0  0  0
   26.6687  -24.0978  -16.3457 N   0  0  0  0  0  0  0  0  0  0  0  0
   24.4703  -24.0592  -15.3155 C   0  0  0  0  0  0  0  0  0  0  0  0
   24.9475  -23.2252  -14.5044 O   0  0  0  0  0  0  0  0  0  0  0  0
   23.0817  -24.3622  -15.3240 N   0  0  0  0  0  0  0  0  0  0  0  0
   22.1256  -23.6740  -14.4785 C   0  0  1  0  0  0  0  0  0  0  0  0
   22.1126  -22.2201  -14.8770 C   0  0  0  0  0  0  0  0  0  0  0  0
   21.1253  -21.4836  -14.0540 C   0  0  0  0  0  0  0  0  0  0  0  0
   21.2963  -21.1728  -12.8474 O   0  0  0  0  0  0  0  0  0  0  0  0
   20.7669  -24.2800  -14.6211 C   0  0  0  0  0  0  0  0  0  0  0  0
   20.3751  -24.8769  -15.6409 O   0  0  0  0  0  0  0  0  0  0  0  0
   19.8927  -21.0718  -14.5882 O   0  0  0  0  0  0  0  0  0  0  0  0
   19.8690  -24.1711  -13.5334 N   0  0  0  0  0  0  0  0  0  0  0  0
   19.2110  -25.3788  -12.9724 C   0  0  1  0  0  0  0  0  0  0  0  0
   20.2187  -26.2212  -12.2694 C   0  0  0  0  0  0  0  0  0  0  0  0
   19.5986  -27.4846  -11.7564 C   0  0  0  0  0  0  0  0  0  0  0  0
   20.6319  -28.3895  -11.0916 C   0  0  0  0  0  0  0  0  0  0  0  0
   20.0437  -29.6988  -10.6627 C   0  0  0  0  0  0  0  0  0  0  0  0
   21.1054  -30.5377  -10.0875 N   0  0  0  0  0  0  0  0  0  0  0  0
   18.0707  -24.9896  -12.1452 C   0  0  0  0  0  0  0  0  0  0  0  0
   17.0335  -25.6576  -11.9630 O   0  0  0  0  0  0  0  0  0  0  0  0
   18.1329  -23.7432  -11.4828 O   0  0  0  0  0  0  0  0  0  0  0  0
  2  3  2  0
  2  1  1  0
  4  5  1  0
  4  2  1  0
  5  7  1  0
  5  6  1  1
  7  8  2  0
  9 10  1  0
  9  7  1  0
 10 14  1  0
 11 12  1  0
 10 11  1  6
 12 16  1  0
 13 12  2  0
 14 17  1  0
 14 15  2  0
 17 18  1  0
 18 24  1  0
 18 19  1  1
 20 21  1  0
 20 19  1  0
 22 21  1  0
 23 22  1  0
 24 26  1  0
 25 24  2  0
M  END
$$$$
