NDK.pdb
     RDKit          3D

 26 25  0  0  1  0  0  0  0  0999 V2000
   12.9114  -13.2061  -10.6318 N   0  0  0  0  0  0  0  0  0  0  0  0
   14.0602  -12.8142  -11.3528 C   0  0  0  0  0  0  0  0  0  0  0  0
   14.6739  -13.6113  -12.0967 O   0  0  0  0  0  0  0  0  0  0  0  0
   14.5631  -11.4319  -11.2369 C   0  0  0  0  0  0  0  0  0  0  0  0
   13.7291  -10.6547  -10.2244 C   0  0  2  0  0  0  0  0  0  0  0  0
   12.3364  -10.7888  -10.5922 N   0  0  0  0  0  0  0  0  0  0  0  0
   14.1839   -9.2600  -10.2112 C   0  0  0  0  0  0  0  0  0  0  0  0
   13.3326   -8.3395  -10.1157 O   0  0  0  0  0  0  0  0  0  0  0  0
   15.5717   -8.9684  -10.3063 N   0  0  0  0  0  0  0  0  0  0  0  0
   16.1009   -7.6262  -10.1606 C   0  0  1  0  0  0  0  0  0  0  0  0
   15.7231   -7.1223   -8.7909 C   0  0  0  0  0  0  0  0  0  0  0  0
   16.2160   -5.7367   -8.6130 C   0  0  0  0  0  0  0  0  0  0  0  0
   16.8002   -5.0700   -9.5051 O   0  0  0  0  0  0  0  0  0  0  0  0
   17.5845   -7.6243  -10.3410 C   0  0  0  0  0  0  0  0  0  0  0  0
   18.3778   -8.2152   -9.5852 O   0  0  0  0  0  0  0  0  0  0  0  0
   16.0564   -5.0565   -7.3940 O   0  0  0  0  0  0  0  0  0  0  0  0
   18.1237   -6.9091  -11.4359 N   0  0  0  0  0  0  0  0  0  0  0  0
   19.5056   -7.1793  -11.9088 C   0  0  1  0  0  0  0  0  0  0  0  0
   19.4664   -8.0942  -13.0838 C   0  0  0  0  0  0  0  0  0  0  0  0
   20.8436   -8.3396  -13.6195 C   0  0  0  0  0  0  0  0  0  0  0  0
   20.8191   -9.2628  -14.8343 C   0  0  0  0  0  0  0  0  0  0  0  0
   22.1876   -9.4876  -15.4007 C   0  0  0  0  0  0  0  0  0  0  0  0
   22.0808  -10.3441  -16.5911 N   0  0  0  0  0  0  0  0  0  0  0  0
   20.2078   -5.9206  -12.1502 C   0  0  0  0  0  0  0  0  0  0  0  0
   19.6775   -4.8192  -12.3970 O   0  0  0  0  0  0  0  0  0  0  0  0
   21.6199   -5.9350  -12.1031 O   0  0  0  0  0  0  0  0  0  0  0  0
  2  3  2  0
  2  1  1  0
  4  5  1  0
  4  2  1  0
  5  7  1  0
  5  6  1  6
  7  8  2  0
  9 10  1  0
  9  7  1  0
 10 14  1  0
 11 12  1  0
 10 11  1  1
 12 16  1  0
 13 12  2  0
 14 17  1  0
 14 15  2  0
 17 18  1  0
 18 24  1  0
 18 19  1  6
 20 21  1  0
 20 19  1  0
 22 21  1  0
 23 22  1  0
 24 26  1  0
 25 24  2  0
M  END
$$$$
