NDK.pdb
     RDKit          3D

 26 25  0  0  1  0  0  0  0  0999 V2000
   11.7866  -10.7612  -10.6453 N   0  0  0  0  0  0  0  0  0  0  0  0
   12.9293  -11.5598  -10.8680 C   0  0  0  0  0  0  0  0  0  0  0  0
   12.8375  -12.7733  -11.1586 O   0  0  0  0  0  0  0  0  0  0  0  0
   14.2742  -10.9628  -10.7593 C   0  0  0  0  0  0  0  0  0  0  0  0
   14.7998  -10.6008  -12.1440 C   0  0  2  0  0  0  0  0  0  0  0  0
   15.3114  -11.8060  -12.7594 N   0  0  0  0  0  0  0  0  0  0  0  0
   15.8193   -9.5555  -12.0025 C   0  0  0  0  0  0  0  0  0  0  0  0
   17.0344   -9.8775  -12.0330 O   0  0  0  0  0  0  0  0  0  0  0  0
   15.4236   -8.2009  -11.8333 N   0  0  0  0  0  0  0  0  0  0  0  0
   16.3543   -7.0944  -11.9434 C   0  0  1  0  0  0  0  0  0  0  0  0
   17.1378   -7.2695  -13.2194 C   0  0  0  0  0  0  0  0  0  0  0  0
   18.5296   -7.6658  -12.9025 C   0  0  0  0  0  0  0  0  0  0  0  0
   19.1819   -7.2421  -11.9143 O   0  0  0  0  0  0  0  0  0  0  0  0
   15.6232   -5.7909  -11.9390 C   0  0  0  0  0  0  0  0  0  0  0  0
   14.7051   -5.5056  -12.7300 O   0  0  0  0  0  0  0  0  0  0  0  0
   19.2331   -8.5712  -13.7147 O   0  0  0  0  0  0  0  0  0  0  0  0
   15.9938   -4.8200  -10.9792 N   0  0  0  0  0  0  0  0  0  0  0  0
   15.3644   -3.4745  -10.9829 C   0  0  1  0  0  0  0  0  0  0  0  0
   15.2600   -2.9632   -9.5876 C   0  0  0  0  0  0  0  0  0  0  0  0
   14.1500   -3.6445   -8.8477 C   0  0  0  0  0  0  0  0  0  0  0  0
   13.9764   -3.0743   -7.4430 C   0  0  0  0  0  0  0  0  0  0  0  0
   12.8244   -3.6997   -6.7176 C   0  0  0  0  0  0  0  0  0  0  0  0
   12.7602   -3.1526   -5.3544 N   0  0  0  0  0  0  0  0  0  0  0  0
   16.0828   -2.5877  -11.8958 C   0  0  0  0  0  0  0  0  0  0  0  0
   17.1942   -2.8120  -12.4151 O   0  0  0  0  0  0  0  0  0  0  0  0
   15.4753   -1.3572  -12.2322 O   0  0  0  0  0  0  0  0  0  0  0  0
  2  3  2  0
  2  1  1  0
  4  5  1  0
  4  2  1  0
  5  7  1  0
  5  6  1  1
  7  8  2  0
  9 10  1  0
  9  7  1  0
 10 14  1  0
 11 12  1  0
 10 11  1  6
 12 16  1  0
 13 12  2  0
 14 17  1  0
 14 15  2  0
 17 18  1  0
 18 24  1  0
 18 19  1  1
 20 21  1  0
 20 19  1  0
 22 21  1  0
 23 22  1  0
 24 26  1  0
 25 24  2  0
M  END
$$$$
