RYV.pdb
     RDKit          3D

 31 31  0  0  1  0  0  0  0  0999 V2000
   24.6044  -25.6518  -16.3023 N   0  0  0  0  0  0  0  0  0  0  0  0
   25.9379  -25.7251  -16.7499 C   0  0  0  0  0  0  0  0  0  0  0  0
   26.4208  -26.8564  -17.2022 N   0  0  0  0  0  0  0  0  0  0  0  0
   26.7915  -24.5871  -16.7252 N   0  0  0  0  0  0  0  0  0  0  0  0
   26.3204  -23.3328  -16.2359 C   0  0  0  0  0  0  0  0  0  0  0  0
   25.9205  -22.4364  -17.4007 C   0  0  0  0  0  0  0  0  0  0  0  0
   25.3956  -21.1352  -16.8670 C   0  0  0  0  0  0  0  0  0  0  0  0
   23.9721  -21.2498  -16.3714 C   0  0  2  0  0  0  0  0  0  0  0  0
   23.0614  -20.6644  -17.3741 N   0  0  0  0  0  0  0  0  0  0  0  0
   23.7242  -20.5717  -15.0833 C   0  0  0  0  0  0  0  0  0  0  0  0
   23.6883  -19.3022  -14.9468 O   0  0  0  0  0  0  0  0  0  0  0  0
   27.4135  -26.9272  -17.5031 O   0  0  0  0  0  0  0  0  0  0  0  0
   17.6290  -18.5650  -14.3775 C   0  0  0  0  0  0  0  0  0  0  0  0
   18.7292  -19.2300  -13.8063 C   0  0  0  0  0  0  0  0  0  0  0  0
   19.1147  -20.4518  -14.2612 C   0  0  0  0  0  0  0  0  0  0  0  0
   20.1916  -21.1036  -13.7026 C   0  0  0  0  0  0  0  0  0  0  0  0
   20.9159  -20.5503  -12.6698 C   0  0  0  0  0  0  0  0  0  0  0  0
   22.0711  -21.2040  -12.0376 C   0  0  2  0  0  0  0  0  0  0  0  0
   23.3991  -20.7742  -12.5830 N   0  0  0  0  0  0  0  0  0  0  0  0
   23.5113  -21.3516  -13.9187 C   0  0  0  0  0  0  0  0  0  0  0  0
   24.5519  -21.2943  -11.8042 O   0  0  0  0  0  0  0  0  0  0  0  0
   24.6239  -22.5096  -11.4876 C   0  0  0  0  0  0  0  0  0  0  0  0
   20.5196  -19.3120  -12.2139 C   0  0  0  0  0  0  0  0  0  0  0  0
   19.4349  -18.6490  -12.7723 C   0  0  0  0  0  0  0  0  0  0  0  0
   28.9655  -20.9267   -9.7401 C   0  0  2  0  0  0  0  0  0  0  0  0
   27.9975  -20.2829  -10.7171 C   0  0  0  0  0  0  0  0  0  0  0  0
   28.4476  -20.7157  -12.1021 C   0  0  1  0  0  0  0  0  0  0  0  0
   26.6490  -20.8803  -10.4524 N   0  0  0  0  0  0  0  0  0  0  0  0
   25.6281  -20.4816  -11.3710 C   0  0  0  0  0  0  0  0  0  0  0  0
   26.2527  -20.5963   -9.0641 O   0  0  0  0  0  0  0  0  0  0  0  0
   25.6398  -19.5285   -8.8171 O   0  0  0  0  0  0  0  0  0  0  0  0
  2  1  1  0
  2  3  2  0
  4  5  1  0
  4  2  1  0
  6  5  1  0
  7  6  1  0
  8  9  1  6
  8  7  1  0
 10  8  1  0
 10 11  2  0
 12 13  1  0
 13 23  2  0
 14 15  2  0
 14 13  1  0
 15 16  1  0
 16 17  1  0
 16 22  2  0
 18 17  1  6
 18 19  1  0
 19 10  1  0
 20 18  1  0
 21 20  2  0
 23 22  1  0
 25 24  1  6
 25 27  1  0
 26 25  1  0
 27 29  1  0
 27 28  1  1
 28 20  1  0
 29 31  1  0
 30 29  2  0
M  END
$$$$
