RYV.pdb
     RDKit          3D

 31 31  0  0  1  0  0  0  0  0999 V2000
   31.1129  -23.1571  -19.6118 N   0  0  0  0  0  0  0  0  0  0  0  0
   30.9955  -21.7587  -19.7334 C   0  0  0  0  0  0  0  0  0  0  0  0
   31.5689  -21.1329  -20.7320 N   0  0  0  0  0  0  0  0  0  0  0  0
   30.2595  -20.9917  -18.7877 N   0  0  0  0  0  0  0  0  0  0  0  0
   29.2855  -21.6091  -17.9482 C   0  0  0  0  0  0  0  0  0  0  0  0
   28.0297  -21.9230  -18.7512 C   0  0  0  0  0  0  0  0  0  0  0  0
   26.8782  -22.1272  -17.8101 C   0  0  0  0  0  0  0  0  0  0  0  0
   27.3304  -22.5572  -16.4333 C   0  0  2  0  0  0  0  0  0  0  0  0
   27.9091  -23.9122  -16.5145 N   0  0  0  0  0  0  0  0  0  0  0  0
   26.2527  -22.5844  -15.4243 C   0  0  0  0  0  0  0  0  0  0  0  0
   25.3159  -23.4527  -15.4120 O   0  0  0  0  0  0  0  0  0  0  0  0
   31.4982  -20.0994  -20.8215 O   0  0  0  0  0  0  0  0  0  0  0  0
   22.3892  -20.3468   -7.7166 C   0  0  0  0  0  0  0  0  0  0  0  0
   23.2491  -20.4621   -8.8239 C   0  0  0  0  0  0  0  0  0  0  0  0
   24.4614  -21.0655   -8.7017 C   0  0  0  0  0  0  0  0  0  0  0  0
   25.3039  -21.1789   -9.7852 C   0  0  0  0  0  0  0  0  0  0  0  0
   24.9569  -20.6905  -11.0256 C   0  0  0  0  0  0  0  0  0  0  0  0
   25.8190  -20.7839  -12.2129 C   0  0  2  0  0  0  0  0  0  0  0  0
   25.2311  -21.5734  -13.3428 N   0  0  0  0  0  0  0  0  0  0  0  0
   26.2350  -21.6024  -14.4018 C   0  0  0  0  0  0  0  0  0  0  0  0
   24.0200  -20.9466  -13.9316 O   0  0  0  0  0  0  0  0  0  0  0  0
   24.0742  -19.8090  -14.4655 C   0  0  0  0  0  0  0  0  0  0  0  0
   23.7271  -20.0804  -11.1421 C   0  0  0  0  0  0  0  0  0  0  0  0
   22.8725  -19.9625  -10.0540 C   0  0  0  0  0  0  0  0  0  0  0  0
   22.1871  -21.5763  -16.7110 C   0  0  2  0  0  0  0  0  0  0  0  0
   21.0408  -21.6099  -15.7155 C   0  0  0  0  0  0  0  0  0  0  0  0
   20.7601  -23.0786  -15.4465 C   0  0  2  0  0  0  0  0  0  0  0  0
   21.5447  -20.9874  -14.4490 N   0  0  0  0  0  0  0  0  0  0  0  0
   22.7468  -21.5673  -13.9354 C   0  0  0  0  0  0  0  0  0  0  0  0
   20.4755  -21.0020  -13.4383 O   0  0  0  0  0  0  0  0  0  0  0  0
   19.4444  -20.3140  -13.6395 O   0  0  0  0  0  0  0  0  0  0  0  0
  2  1  1  0
  2  3  2  0
  4  5  1  0
  4  2  1  0
  6  5  1  0
  7  6  1  0
  8  9  1  6
  8  7  1  0
 10  8  1  0
 10 11  2  0
 12 13  1  0
 13 23  2  0
 14 15  2  0
 14 13  1  0
 15 16  1  0
 16 17  1  0
 16 22  2  0
 18 17  1  1
 18 19  1  0
 19 10  1  0
 20 18  1  0
 21 20  2  0
 23 22  1  0
 25 24  1  6
 25 27  1  0
 26 25  1  0
 27 29  1  0
 27 28  1  1
 28 20  1  0
 29 31  1  0
 30 29  2  0
M  END
$$$$
