RYV.pdb
     RDKit          3D

 31 31  0  0  1  0  0  0  0  0999 V2000
   31.0706  -21.8543  -19.1199 N   0  0  0  0  0  0  0  0  0  0  0  0
   30.6162  -23.1872  -19.1518 C   0  0  0  0  0  0  0  0  0  0  0  0
   31.3228  -24.1107  -19.7564 N   0  0  0  0  0  0  0  0  0  0  0  0
   29.3913  -23.5676  -18.5361 N   0  0  0  0  0  0  0  0  0  0  0  0
   28.5345  -22.5886  -17.9512 C   0  0  0  0  0  0  0  0  0  0  0  0
   29.0960  -22.1410  -16.6079 C   0  0  0  0  0  0  0  0  0  0  0  0
   28.0700  -22.3783  -15.5381 C   0  0  0  0  0  0  0  0  0  0  0  0
   26.6997  -21.8784  -15.9351 C   0  0  2  0  0  0  0  0  0  0  0  0
   26.8014  -20.4674  -16.3545 N   0  0  0  0  0  0  0  0  0  0  0  0
   25.6916  -21.9600  -14.8592 C   0  0  0  0  0  0  0  0  0  0  0  0
   25.3911  -23.0424  -14.2509 O   0  0  0  0  0  0  0  0  0  0  0  0
   31.0365  -25.1094  -19.7158 O   0  0  0  0  0  0  0  0  0  0  0  0
   27.0201  -21.4340   -7.6617 C   0  0  0  0  0  0  0  0  0  0  0  0
   26.4129  -20.9933   -8.8516 C   0  0  0  0  0  0  0  0  0  0  0  0
   27.1424  -20.8426   -9.9890 C   0  0  0  0  0  0  0  0  0  0  0  0
   26.5488  -20.4111  -11.1544 C   0  0  0  0  0  0  0  0  0  0  0  0
   25.2044  -20.1170  -11.2156 C   0  0  0  0  0  0  0  0  0  0  0  0
   24.5226  -19.6518  -12.4322 C   0  0  2  0  0  0  0  0  0  0  0  0
   24.0672  -20.7505  -13.3438 N   0  0  0  0  0  0  0  0  0  0  0  0
   25.0053  -20.7850  -14.4613 C   0  0  0  0  0  0  0  0  0  0  0  0
   22.7247  -20.5094  -13.9320 O   0  0  0  0  0  0  0  0  0  0  0  0
   22.4901  -19.4745  -14.6074 C   0  0  0  0  0  0  0  0  0  0  0  0
   24.4714  -20.2719  -10.0593 C   0  0  0  0  0  0  0  0  0  0  0  0
   25.0632  -20.7066   -8.8808 C   0  0  0  0  0  0  0  0  0  0  0  0
   20.9610  -22.5763  -16.2186 C   0  0  2  0  0  0  0  0  0  0  0  0
   19.8508  -22.3131  -15.2164 C   0  0  0  0  0  0  0  0  0  0  0  0
   19.7215  -23.5810  -14.3894 C   0  0  2  0  0  0  0  0  0  0  0  0
   20.3260  -21.2118  -14.3183 N   0  0  0  0  0  0  0  0  0  0  0  0
   21.6368  -21.4037  -13.7798 C   0  0  0  0  0  0  0  0  0  0  0  0
   19.3402  -20.9944  -13.2479 O   0  0  0  0  0  0  0  0  0  0  0  0
   19.6643  -21.2618  -12.0645 O   0  0  0  0  0  0  0  0  0  0  0  0
  2  1  1  0
  2  3  2  0
  4  5  1  0
  4  2  1  0
  6  5  1  0
  7  6  1  0
  8  9  1  1
  8  7  1  0
 10  8  1  0
 10 11  2  0
 12 13  1  0
 13 23  2  0
 14 15  2  0
 14 13  1  0
 15 16  1  0
 16 17  1  0
 16 22  2  0
 18 17  1  1
 18 19  1  0
 19 10  1  0
 20 18  1  0
 21 20  2  0
 23 22  1  0
 25 24  1  6
 25 27  1  0
 26 25  1  0
 27 29  1  0
 27 28  1  6
 28 20  1  0
 29 31  1  0
 30 29  2  0
M  END
$$$$
