RYV.pdb
     RDKit          3D

 31 31  0  0  1  0  0  0  0  0999 V2000
   24.9515  -18.6630  -21.2501 N   0  0  0  0  0  0  0  0  0  0  0  0
   26.3529  -18.5207  -21.2476 C   0  0  0  0  0  0  0  0  0  0  0  0
   26.9379  -17.7370  -22.1202 N   0  0  0  0  0  0  0  0  0  0  0  0
   27.1667  -19.2146  -20.3093 N   0  0  0  0  0  0  0  0  0  0  0  0
   26.5782  -20.0060  -19.2787 C   0  0  0  0  0  0  0  0  0  0  0  0
   26.2562  -21.3968  -19.8100 C   0  0  0  0  0  0  0  0  0  0  0  0
   25.5987  -22.2010  -18.7263 C   0  0  0  0  0  0  0  0  0  0  0  0
   26.4736  -22.3381  -17.5011 C   0  0  2  0  0  0  0  0  0  0  0  0
   27.3887  -23.4811  -17.6847 N   0  0  0  0  0  0  0  0  0  0  0  0
   25.7263  -22.5528  -16.2458 C   0  0  0  0  0  0  0  0  0  0  0  0
   25.6217  -23.6878  -15.6692 O   0  0  0  0  0  0  0  0  0  0  0  0
   27.9748  -17.6921  -22.1818 O   0  0  0  0  0  0  0  0  0  0  0  0
   22.7648  -20.6377   -8.1926 C   0  0  0  0  0  0  0  0  0  0  0  0
   23.2967  -20.6157   -9.4947 C   0  0  0  0  0  0  0  0  0  0  0  0
   22.5939  -20.0698  -10.5227 C   0  0  0  0  0  0  0  0  0  0  0  0
   23.1138  -20.0478  -11.7978 C   0  0  0  0  0  0  0  0  0  0  0  0
   24.3552  -20.5729  -12.0820 C   0  0  0  0  0  0  0  0  0  0  0  0
   24.9549  -20.5765  -13.4244 C   0  0  2  0  0  0  0  0  0  0  0  0
   24.3451  -21.5655  -14.3708 N   0  0  0  0  0  0  0  0  0  0  0  0
   25.0802  -21.4532  -15.6267 C   0  0  0  0  0  0  0  0  0  0  0  0
   22.9239  -21.2754  -14.6906 O   0  0  0  0  0  0  0  0  0  0  0  0
   22.5999  -20.2291  -15.3091 C   0  0  0  0  0  0  0  0  0  0  0  0
   25.0617  -21.1243  -11.0356 C   0  0  0  0  0  0  0  0  0  0  0  0
   24.5438  -21.1499   -9.7475 C   0  0  0  0  0  0  0  0  0  0  0  0
   20.7517  -23.7686  -15.9906 C   0  0  2  0  0  0  0  0  0  0  0  0
   19.7171  -22.9121  -15.2820 C   0  0  0  0  0  0  0  0  0  0  0  0
   19.0375  -23.8221  -14.2729 C   0  0  2  0  0  0  0  0  0  0  0  0
   20.4670  -21.8540  -14.5314 N   0  0  0  0  0  0  0  0  0  0  0  0
   21.8553  -22.1333  -14.3321 C   0  0  0  0  0  0  0  0  0  0  0  0
   19.7906  -21.5904  -13.2517 O   0  0  0  0  0  0  0  0  0  0  0  0
   20.2926  -22.0509  -12.1967 O   0  0  0  0  0  0  0  0  0  0  0  0
  2  1  1  0
  2  3  2  0
  4  5  1  0
  4  2  1  0
  6  5  1  0
  7  6  1  0
  8  9  1  6
  8  7  1  0
 10  8  1  0
 10 11  2  0
 12 13  1  0
 13 23  2  0
 14 15  2  0
 14 13  1  0
 15 16  1  0
 16 17  1  0
 16 22  2  0
 18 17  1  1
 18 19  1  0
 19 10  1  0
 20 18  1  0
 21 20  2  0
 23 22  1  0
 25 24  1  6
 25 27  1  0
 26 25  1  0
 27 29  1  0
 27 28  1  6
 28 20  1  0
 29 31  1  0
 30 29  2  0
M  END
$$$$
