RYV.pdb
     RDKit          3D

 31 31  0  0  1  0  0  0  0  0999 V2000
   30.7844  -24.9308  -16.5151 N   0  0  0  0  0  0  0  0  0  0  0  0
   29.4159  -24.9272  -16.8485 C   0  0  0  0  0  0  0  0  0  0  0  0
   28.5935  -25.7672  -16.2690 N   0  0  0  0  0  0  0  0  0  0  0  0
   28.8904  -24.0225  -17.8127 N   0  0  0  0  0  0  0  0  0  0  0  0
   29.0056  -22.6127  -17.6286 C   0  0  0  0  0  0  0  0  0  0  0  0
   29.2798  -22.2996  -16.1634 C   0  0  0  0  0  0  0  0  0  0  0  0
   28.6285  -20.9953  -15.8053 C   0  0  0  0  0  0  0  0  0  0  0  0
   27.1725  -20.9500  -16.2091 C   0  0  2  0  0  0  0  0  0  0  0  0
   27.0322  -20.1250  -17.4244 N   0  0  0  0  0  0  0  0  0  0  0  0
   26.2761  -20.3925  -15.1767 C   0  0  0  0  0  0  0  0  0  0  0  0
   26.0886  -19.1410  -15.0026 O   0  0  0  0  0  0  0  0  0  0  0  0
   27.5885  -25.7946  -16.5346 O   0  0  0  0  0  0  0  0  0  0  0  0
   20.7179  -18.5885  -17.8961 C   0  0  0  0  0  0  0  0  0  0  0  0
   21.3511  -19.2668  -16.8389 C   0  0  0  0  0  0  0  0  0  0  0  0
   21.2712  -18.7967  -15.5656 C   0  0  0  0  0  0  0  0  0  0  0  0
   21.8907  -19.4600  -14.5299 C   0  0  0  0  0  0  0  0  0  0  0  0
   22.6102  -20.6160  -14.7387 C   0  0  0  0  0  0  0  0  0  0  0  0
   23.2914  -21.3610  -13.6697 C   0  0  2  0  0  0  0  0  0  0  0  0
   24.6367  -20.8159  -13.2975 N   0  0  0  0  0  0  0  0  0  0  0  0
   25.5731  -21.2752  -14.3185 C   0  0  0  0  0  0  0  0  0  0  0  0
   25.1440  -21.3342  -12.0012 O   0  0  0  0  0  0  0  0  0  0  0  0
   25.2493  -22.5705  -11.7948 C   0  0  0  0  0  0  0  0  0  0  0  0
   22.6869  -21.0866  -16.0313 C   0  0  0  0  0  0  0  0  0  0  0  0
   22.0648  -20.4230  -17.0805 C   0  0  0  0  0  0  0  0  0  0  0  0
   27.7820  -19.8942   -9.4114 C   0  0  2  0  0  0  0  0  0  0  0  0
   26.4534  -20.0273   -8.6880 C   0  0  0  0  0  0  0  0  0  0  0  0
   25.8629  -18.6286   -8.6322 C   0  0  2  0  0  0  0  0  0  0  0  0
   25.5705  -20.8769   -9.5506 N   0  0  0  0  0  0  0  0  0  0  0  0
   25.5366  -20.4964  -10.9287 C   0  0  0  0  0  0  0  0  0  0  0  0
   24.2158  -20.9127   -8.9774 O   0  0  0  0  0  0  0  0  0  0  0  0
   24.0381  -21.5027   -7.8832 O   0  0  0  0  0  0  0  0  0  0  0  0
  2  1  1  0
  2  3  2  0
  4  5  1  0
  4  2  1  0
  6  5  1  0
  7  6  1  0
  8  9  1  6
  8  7  1  0
 10  8  1  0
 10 11  2  0
 12 13  1  0
 13 23  2  0
 14 15  2  0
 14 13  1  0
 15 16  1  0
 16 17  1  0
 16 22  2  0
 18 17  1  6
 18 19  1  0
 19 10  1  0
 20 18  1  0
 21 20  2  0
 23 22  1  0
 25 24  1  1
 25 27  1  0
 26 25  1  0
 27 29  1  0
 27 28  1  1
 28 20  1  0
 29 31  1  0
 30 29  2  0
M  END
$$$$
