RYV.pdb
     RDKit          3D

 31 31  0  0  1  0  0  0  0  0999 V2000
   19.1907  -18.8336  -13.3211 N   0  0  0  0  0  0  0  0  0  0  0  0
   19.2899  -19.4932  -14.5618 C   0  0  0  0  0  0  0  0  0  0  0  0
   18.7969  -20.6985  -14.7094 N   0  0  0  0  0  0  0  0  0  0  0  0
   19.9204  -18.8787  -15.6794 N   0  0  0  0  0  0  0  0  0  0  0  0
   20.0531  -17.4604  -15.7529 C   0  0  0  0  0  0  0  0  0  0  0  0
   20.7548  -17.0694  -17.0472 C   0  0  0  0  0  0  0  0  0  0  0  0
   20.7733  -15.5733  -17.1682 C   0  0  0  0  0  0  0  0  0  0  0  0
   19.4977  -15.0296  -17.7703 C   0  0  2  0  0  0  0  0  0  0  0  0
   19.3386  -15.5672  -19.1352 N   0  0  0  0  0  0  0  0  0  0  0  0
   19.4496  -13.5562  -17.8550 C   0  0  0  0  0  0  0  0  0  0  0  0
   20.0674  -12.8774  -18.7433 O   0  0  0  0  0  0  0  0  0  0  0  0
   18.9365  -21.2242  -15.5956 O   0  0  0  0  0  0  0  0  0  0  0  0
   15.9940   -5.5413  -15.9742 C   0  0  0  0  0  0  0  0  0  0  0  0
   16.2762   -6.9092  -16.1417 C   0  0  0  0  0  0  0  0  0  0  0  0
   16.4303   -7.4393  -17.3842 C   0  0  0  0  0  0  0  0  0  0  0  0
   16.7065   -8.7784  -17.5493 C   0  0  0  0  0  0  0  0  0  0  0  0
   16.8369   -9.6281  -16.4730 C   0  0  0  0  0  0  0  0  0  0  0  0
   17.1291  -11.0640  -16.5940 C   0  0  1  0  0  0  0  0  0  0  0  0
   18.5550  -11.3780  -16.9310 N   0  0  0  0  0  0  0  0  0  0  0  0
   18.6814  -12.8319  -16.9088 C   0  0  0  0  0  0  0  0  0  0  0  0
   19.5244  -10.8585  -15.9326 O   0  0  0  0  0  0  0  0  0  0  0  0
   19.5530  -11.3138  -14.7604 C   0  0  0  0  0  0  0  0  0  0  0  0
   16.6795   -9.0842  -15.2169 C   0  0  0  0  0  0  0  0  0  0  0  0
   16.4009   -7.7350  -15.0430 C   0  0  0  0  0  0  0  0  0  0  0  0
   22.8057   -9.5618  -17.2849 C   0  0  2  0  0  0  0  0  0  0  0  0
   22.8520   -9.4118  -15.7744 C   0  0  0  0  0  0  0  0  0  0  0  0
   23.5284   -8.0784  -15.5047 C   0  0  2  0  0  0  0  0  0  0  0  0
   21.4328   -9.3239  -15.3012 N   0  0  0  0  0  0  0  0  0  0  0  0
   20.4641   -9.8381  -16.2189 C   0  0  0  0  0  0  0  0  0  0  0  0
   21.1263   -7.9331  -14.9315 O   0  0  0  0  0  0  0  0  0  0  0  0
   20.4400   -7.2358  -15.7187 O   0  0  0  0  0  0  0  0  0  0  0  0
  2  1  1  0
  2  3  2  0
  4  5  1  0
  4  2  1  0
  6  5  1  0
  7  6  1  0
  8  9  1  6
  8  7  1  0
 10  8  1  0
 10 11  2  0
 12 13  1  0
 13 23  2  0
 14 15  2  0
 14 13  1  0
 15 16  1  0
 16 17  1  0
 16 22  2  0
 18 17  1  6
 18 19  1  0
 19 10  1  0
 20 18  1  0
 21 20  2  0
 23 22  1  0
 25 24  1  1
 25 27  1  0
 26 25  1  0
 27 29  1  0
 27 28  1  1
 28 20  1  0
 29 31  1  0
 30 29  2  0
M  END
$$$$
