RYV.pdb
     RDKit          3D

 31 31  0  0  1  0  0  0  0  0999 V2000
   29.3800  -16.6358  -19.9639 N   0  0  0  0  0  0  0  0  0  0  0  0
   28.0971  -16.1244  -19.6874 C   0  0  0  0  0  0  0  0  0  0  0  0
   27.3903  -15.5658  -20.6393 N   0  0  0  0  0  0  0  0  0  0  0  0
   27.5355  -16.1976  -18.3822 N   0  0  0  0  0  0  0  0  0  0  0  0
   27.6795  -17.3761  -17.5916 C   0  0  0  0  0  0  0  0  0  0  0  0
   26.9947  -18.5507  -18.2782 C   0  0  0  0  0  0  0  0  0  0  0  0
   26.2265  -19.3410  -17.2589 C   0  0  0  0  0  0  0  0  0  0  0  0
   27.0800  -20.3890  -16.5818 C   0  0  2  0  0  0  0  0  0  0  0  0
   27.3938  -21.4577  -17.5496 N   0  0  0  0  0  0  0  0  0  0  0  0
   26.4466  -21.0155  -15.4042 C   0  0  0  0  0  0  0  0  0  0  0  0
   25.6010  -21.9700  -15.4789 O   0  0  0  0  0  0  0  0  0  0  0  0
   26.4667  -15.1356  -20.4318 O   0  0  0  0  0  0  0  0  0  0  0  0
   24.2115  -21.0347   -6.7523 C   0  0  0  0  0  0  0  0  0  0  0  0
   24.8696  -20.8872   -7.9868 C   0  0  0  0  0  0  0  0  0  0  0  0
   25.1346  -19.6519   -8.4891 C   0  0  0  0  0  0  0  0  0  0  0  0
   25.7788  -19.5065   -9.6977 C   0  0  0  0  0  0  0  0  0  0  0  0
   26.1774  -20.5958  -10.4406 C   0  0  0  0  0  0  0  0  0  0  0  0
   26.8659  -20.4960  -11.7359 C   0  0  1  0  0  0  0  0  0  0  0  0
   26.0433  -20.9368  -12.9084 N   0  0  0  0  0  0  0  0  0  0  0  0
   26.7795  -20.5492  -14.1074 C   0  0  0  0  0  0  0  0  0  0  0  0
   24.7240  -20.2592  -12.9903 O   0  0  0  0  0  0  0  0  0  0  0  0
   24.6444  -19.0141  -13.1501 C   0  0  0  0  0  0  0  0  0  0  0  0
   25.9056  -21.8445   -9.9255 C   0  0  0  0  0  0  0  0  0  0  0  0
   25.2565  -21.9986   -8.7077 C   0  0  0  0  0  0  0  0  0  0  0  0
   22.2119  -20.4328  -15.3552 C   0  0  2  0  0  0  0  0  0  0  0  0
   21.3645  -20.7026  -14.1242 C   0  0  0  0  0  0  0  0  0  0  0  0
   21.1273  -22.2030  -14.0974 C   0  0  2  0  0  0  0  0  0  0  0  0
   22.1967  -20.3363  -12.9331 N   0  0  0  0  0  0  0  0  0  0  0  0
   23.4893  -20.9471  -12.8967 C   0  0  0  0  0  0  0  0  0  0  0  0
   21.4414  -20.6212  -11.7030 O   0  0  0  0  0  0  0  0  0  0  0  0
   21.8336  -21.5502  -10.9546 O   0  0  0  0  0  0  0  0  0  0  0  0
  2  1  1  0
  2  3  2  0
  4  5  1  0
  4  2  1  0
  6  5  1  0
  7  6  1  0
  8  9  1  6
  8  7  1  0
 10  8  1  0
 10 11  2  0
 12 13  1  0
 13 23  2  0
 14 15  2  0
 14 13  1  0
 15 16  1  0
 16 17  1  0
 16 22  2  0
 18 17  1  1
 18 19  1  0
 19 10  1  0
 20 18  1  0
 21 20  2  0
 23 22  1  0
 25 24  1  6
 25 27  1  0
 26 25  1  0
 27 29  1  0
 27 28  1  1
 28 20  1  0
 29 31  1  0
 30 29  2  0
M  END
$$$$
