RYV.pdb
     RDKit          3D

 31 31  0  0  1  0  0  0  0  0999 V2000
   23.6816  -19.9700  -18.7164 N   0  0  0  0  0  0  0  0  0  0  0  0
   24.6956  -19.7393  -19.6665 C   0  0  0  0  0  0  0  0  0  0  0  0
   24.5426  -20.1397  -20.9050 N   0  0  0  0  0  0  0  0  0  0  0  0
   25.9024  -19.0725  -19.3154 N   0  0  0  0  0  0  0  0  0  0  0  0
   26.5676  -19.3667  -18.0883 C   0  0  0  0  0  0  0  0  0  0  0  0
   27.7961  -20.2269  -18.3552 C   0  0  0  0  0  0  0  0  0  0  0  0
   27.4719  -21.6610  -18.0526 C   0  0  0  0  0  0  0  0  0  0  0  0
   28.0297  -22.1076  -16.7205 C   0  0  2  0  0  0  0  0  0  0  0  0
   28.7351  -23.3917  -16.8965 N   0  0  0  0  0  0  0  0  0  0  0  0
   27.0095  -22.2913  -15.6690 C   0  0  0  0  0  0  0  0  0  0  0  0
   26.2792  -23.3342  -15.5653 O   0  0  0  0  0  0  0  0  0  0  0  0
   25.2813  -19.9629  -21.6150 O   0  0  0  0  0  0  0  0  0  0  0  0
   23.3200  -20.5414   -7.7602 C   0  0  0  0  0  0  0  0  0  0  0  0
   24.1294  -20.5813   -8.9101 C   0  0  0  0  0  0  0  0  0  0  0  0
   25.3874  -21.0943   -8.8562 C   0  0  0  0  0  0  0  0  0  0  0  0
   26.1806  -21.1337   -9.9813 C   0  0  0  0  0  0  0  0  0  0  0  0
   25.7369  -20.6597  -11.1962 C   0  0  0  0  0  0  0  0  0  0  0  0
   26.5429  -20.6766  -12.4257 C   0  0  1  0  0  0  0  0  0  0  0  0
   25.9087  -21.4071  -13.5702 N   0  0  0  0  0  0  0  0  0  0  0  0
   26.8106  -21.2670  -14.7092 C   0  0  0  0  0  0  0  0  0  0  0  0
   24.6087  -20.8256  -13.9921 O   0  0  0  0  0  0  0  0  0  0  0  0
   24.5427  -19.6614  -14.4636 C   0  0  0  0  0  0  0  0  0  0  0  0
   24.4612  -20.1413  -11.2434 C   0  0  0  0  0  0  0  0  0  0  0  0
   23.6559  -20.0984  -10.1130 C   0  0  0  0  0  0  0  0  0  0  0  0
   22.4310  -21.5890  -16.5591 C   0  0  2  0  0  0  0  0  0  0  0  0
   21.4364  -21.6365  -15.4126 C   0  0  0  0  0  0  0  0  0  0  0  0
   21.2338  -23.1077  -15.0922 C   0  0  2  0  0  0  0  0  0  0  0  0
   22.0964  -20.9850  -14.2355 N   0  0  0  0  0  0  0  0  0  0  0  0
   23.3783  -21.5209  -13.8970 C   0  0  0  0  0  0  0  0  0  0  0  0
   21.1847  -21.0231  -13.0813 O   0  0  0  0  0  0  0  0  0  0  0  0
   21.4982  -21.7224  -12.0864 O   0  0  0  0  0  0  0  0  0  0  0  0
  2  1  1  0
  2  3  2  0
  4  5  1  0
  4  2  1  0
  6  5  1  0
  7  6  1  0
  8  9  1  6
  8  7  1  0
 10  8  1  0
 10 11  2  0
 12 13  1  0
 13 23  2  0
 14 15  2  0
 14 13  1  0
 15 16  1  0
 16 17  1  0
 16 22  2  0
 18 17  1  1
 18 19  1  0
 19 10  1  0
 20 18  1  0
 21 20  2  0
 23 22  1  0
 25 24  1  6
 25 27  1  0
 26 25  1  0
 27 29  1  0
 27 28  1  1
 28 20  1  0
 29 31  1  0
 30 29  2  0
M  END
$$$$
