RYV.pdb
     RDKit          3D

 31 31  0  0  1  0  0  0  0  0999 V2000
   23.9500  -21.7679  -18.7852 N   0  0  0  0  0  0  0  0  0  0  0  0
   23.6384  -20.6276  -18.0194 C   0  0  0  0  0  0  0  0  0  0  0  0
   22.4446  -20.4903  -17.4961 N   0  0  0  0  0  0  0  0  0  0  0  0
   24.5982  -19.6020  -17.7930 N   0  0  0  0  0  0  0  0  0  0  0  0
   25.9069  -19.6916  -18.3532 C   0  0  0  0  0  0  0  0  0  0  0  0
   26.7233  -20.7372  -17.6047 C   0  0  0  0  0  0  0  0  0  0  0  0
   27.6653  -20.0477  -16.6610 C   0  0  0  0  0  0  0  0  0  0  0  0
   28.5174  -21.0248  -15.8834 C   0  0  2  0  0  0  0  0  0  0  0  0
   28.6234  -22.2859  -16.6423 N   0  0  0  0  0  0  0  0  0  0  0  0
   27.9950  -21.3466  -14.5403 C   0  0  0  0  0  0  0  0  0  0  0  0
   27.1907  -22.3108  -14.3056 O   0  0  0  0  0  0  0  0  0  0  0  0
   22.2161  -19.6664  -16.9044 O   0  0  0  0  0  0  0  0  0  0  0  0
   27.1895  -19.9353   -5.7377 C   0  0  0  0  0  0  0  0  0  0  0  0
   27.5949  -19.9517   -7.0846 C   0  0  0  0  0  0  0  0  0  0  0  0
   27.2014  -18.9710   -7.9402 C   0  0  0  0  0  0  0  0  0  0  0  0
   27.5978  -18.9862   -9.2590 C   0  0  0  0  0  0  0  0  0  0  0  0
   28.4015  -19.9858   -9.7614 C   0  0  0  0  0  0  0  0  0  0  0  0
   28.8511  -20.0501  -11.1597 C   0  0  1  0  0  0  0  0  0  0  0  0
   27.9274  -20.7987  -12.0719 N   0  0  0  0  0  0  0  0  0  0  0  0
   28.3937  -20.5556  -13.4333 C   0  0  0  0  0  0  0  0  0  0  0  0
   26.5246  -20.3133  -12.0172 O   0  0  0  0  0  0  0  0  0  0  0  0
   26.2308  -19.1416  -12.3678 C   0  0  0  0  0  0  0  0  0  0  0  0
   28.7964  -20.9763   -8.8888 C   0  0  0  0  0  0  0  0  0  0  0  0
   28.4006  -20.9674   -7.5578 C   0  0  0  0  0  0  0  0  0  0  0  0
   23.8235  -21.0534  -13.8699 C   0  0  2  0  0  0  0  0  0  0  0  0
   23.1682  -21.2786  -12.5187 C   0  0  0  0  0  0  0  0  0  0  0  0
   23.1318  -22.7836  -12.3145 C   0  0  2  0  0  0  0  0  0  0  0  0
   24.0798  -20.6857  -11.4877 N   0  0  0  0  0  0  0  0  0  0  0  0
   25.4415  -21.1132  -11.5775 C   0  0  0  0  0  0  0  0  0  0  0  0
   23.5318  -20.9408  -10.1462 O   0  0  0  0  0  0  0  0  0  0  0  0
   24.1885  -21.6578   -9.3515 O   0  0  0  0  0  0  0  0  0  0  0  0
  2  1  1  0
  2  3  2  0
  4  5  1  0
  4  2  1  0
  6  5  1  0
  7  6  1  0
  8  9  1  6
  8  7  1  0
 10  8  1  0
 10 11  2  0
 12 13  1  0
 13 23  2  0
 14 15  2  0
 14 13  1  0
 15 16  1  0
 16 17  1  0
 16 22  2  0
 18 17  1  1
 18 19  1  0
 19 10  1  0
 20 18  1  0
 21 20  2  0
 23 22  1  0
 25 24  1  6
 25 27  1  0
 26 25  1  0
 27 29  1  0
 27 28  1  1
 28 20  1  0
 29 31  1  0
 30 29  2  0
M  END
$$$$
