YTR.pdb
     RDKit          3D

 31 31  0  0  1  0  0  0  0  0999 V2000
    8.2317  -11.1430   18.9368 O   0  0  0  0  0  0  0  0  0  0  0  0
    8.4310  -12.2230   19.8111 C   0  0  0  0  0  0  0  0  0  0  0  0
    7.3474  -12.8707   20.3225 C   0  0  0  0  0  0  0  0  0  0  0  0
    7.4926  -13.9404   21.1880 C   0  0  0  0  0  0  0  0  0  0  0  0
    8.7455  -14.3723   21.5503 C   0  0  0  0  0  0  0  0  0  0  0  0
    8.8945  -15.5024   22.4632 C   0  0  0  0  0  0  0  0  0  0  0  0
    9.8138  -16.5966   21.9585 C   0  0  2  0  0  0  0  0  0  0  0  0
    9.2781  -17.1127   20.6823 N   0  0  0  0  0  0  0  0  0  0  0  0
    9.9640  -17.7322   22.8613 C   0  0  0  0  0  0  0  0  0  0  0  0
    8.9977  -18.5455   23.0444 O   0  0  0  0  0  0  0  0  0  0  0  0
    9.8356  -13.7110   21.0279 C   0  0  0  0  0  0  0  0  0  0  0  0
    9.6910  -12.6413   20.1624 C   0  0  0  0  0  0  0  0  0  0  0  0
   11.5437  -20.6659   22.4038 C   0  0  0  0  0  0  0  0  0  0  0  0
   12.1678  -20.1699   23.6782 C   0  0  1  0  0  0  0  0  0  0  0  0
   13.2340  -19.3294   23.2782 O   0  0  0  0  0  0  0  0  0  0  0  0
   11.2317  -19.2333   24.4611 C   0  0  2  0  0  0  0  0  0  0  0  0
   11.1367  -18.0544   23.6015 N   0  0  0  0  0  0  0  0  0  0  0  0
   11.8063  -18.8313   25.7454 C   0  0  0  0  0  0  0  0  0  0  0  0
   12.4761  -17.7391   25.7814 O   0  0  0  0  0  0  0  0  0  0  0  0
    9.6024  -24.1288   30.3254 N   0  0  0  0  0  0  0  0  0  0  0  0
   10.0674  -23.1432   31.2351 C   0  0  0  0  0  0  0  0  0  0  0  0
   10.0096  -23.3678   32.4879 N   0  0  0  0  0  0  0  0  0  0  0  0
   10.5955  -21.9075   30.7267 N   0  0  0  0  0  0  0  0  0  0  0  0
    9.7417  -21.0180   29.9739 C   0  0  0  0  0  0  0  0  0  0  0  0
   10.4608  -19.7340   29.6124 C   0  0  0  0  0  0  0  0  0  0  0  0
   11.8915  -19.9968   29.2892 C   0  0  0  0  0  0  0  0  0  0  0  0
   12.4176  -19.1912   28.1340 C   0  0  2  0  0  0  0  0  0  0  0  0
   11.6602  -19.5828   26.9453 N   0  0  0  0  0  0  0  0  0  0  0  0
   13.8269  -19.5860   27.8524 C   0  0  0  0  0  0  0  0  0  0  0  0
   14.7240  -19.2101   28.6431 O   0  0  0  0  0  0  0  0  0  0  0  0
   14.2224  -20.3397   26.7792 O   0  0  0  0  0  0  0  0  0  0  0  0
  2  1  1  0
  3  2  2  0
  4  3  1  0
  5  4  2  0
  5 11  1  0
  6  5  1  0
  7  9  1  0
  7  6  1  0
  7  8  1  6
  9 10  2  0
 11 12  2  0
 12  2  1  0
 14 13  1  6
 15 14  1  0
 16 14  1  0
 16 17  1  6
 17  9  1  0
 18 16  1  0
 19 18  2  0
 20 21  1  0
 21 22  2  0
 23 24  1  0
 23 21  1  0
 24 25  1  0
 27 26  1  1
 26 25  1  0
 27 28  1  0
 28 18  1  0
 29 31  1  0
 29 27  1  0
 30 29  2  0
M  END
$$$$
