YTR.pdb
     RDKit          3D

 31 31  0  0  1  0  0  0  0  0999 V2000
    5.8469  -10.9193   21.1148 O   0  0  0  0  0  0  0  0  0  0  0  0
    6.7594  -11.8875   20.6670 C   0  0  0  0  0  0  0  0  0  0  0  0
    6.4161  -12.6876   19.6195 C   0  0  0  0  0  0  0  0  0  0  0  0
    7.2812  -13.6562   19.1422 C   0  0  0  0  0  0  0  0  0  0  0  0
    8.5144  -13.8294   19.7226 C   0  0  0  0  0  0  0  0  0  0  0  0
    9.4251  -14.8520   19.2152 C   0  0  0  0  0  0  0  0  0  0  0  0
   10.4467  -14.3407   18.2193 C   0  0  2  0  0  0  0  0  0  0  0  0
    9.8329  -14.3297   16.8758 N   0  0  0  0  0  0  0  0  0  0  0  0
   11.6679  -15.1339   18.1361 C   0  0  0  0  0  0  0  0  0  0  0  0
   11.9257  -15.8170   17.0893 O   0  0  0  0  0  0  0  0  0  0  0  0
    8.8528  -13.0153   20.7815 C   0  0  0  0  0  0  0  0  0  0  0  0
    7.9880  -12.0466   21.2593 C   0  0  0  0  0  0  0  0  0  0  0  0
   13.8028  -15.3136   16.5342 C   0  0  0  0  0  0  0  0  0  0  0  0
   14.5980  -15.2476   17.8082 C   0  0  1  0  0  0  0  0  0  0  0  0
   14.5721  -13.8887   18.2032 O   0  0  0  0  0  0  0  0  0  0  0  0
   13.9052  -15.9835   18.9680 C   0  0  2  0  0  0  0  0  0  0  0  0
   12.6628  -15.2345   19.1495 N   0  0  0  0  0  0  0  0  0  0  0  0
   14.6816  -15.9099   20.2061 C   0  0  0  0  0  0  0  0  0  0  0  0
   14.7278  -14.7819   20.8129 O   0  0  0  0  0  0  0  0  0  0  0  0
   13.5719  -20.1858   25.8404 N   0  0  0  0  0  0  0  0  0  0  0  0
   13.0638  -21.0778   24.8599 C   0  0  0  0  0  0  0  0  0  0  0  0
   11.9684  -21.6914   25.0766 N   0  0  0  0  0  0  0  0  0  0  0  0
   13.7948  -21.2740   23.6387 N   0  0  0  0  0  0  0  0  0  0  0  0
   15.0148  -20.5362   23.4062 C   0  0  0  0  0  0  0  0  0  0  0  0
   14.7276  -19.1068   22.9926 C   0  0  0  0  0  0  0  0  0  0  0  0
   15.9841  -18.3955   22.6243 C   0  0  0  0  0  0  0  0  0  0  0  0
   15.7762  -16.9762   22.1742 C   0  0  2  0  0  0  0  0  0  0  0  0
   15.3804  -17.0161   20.7665 N   0  0  0  0  0  0  0  0  0  0  0  0
   17.0778  -16.2504   22.1982 C   0  0  0  0  0  0  0  0  0  0  0  0
   17.7680  -16.2229   21.1522 O   0  0  0  0  0  0  0  0  0  0  0  0
   17.5848  -15.6015   23.2928 O   0  0  0  0  0  0  0  0  0  0  0  0
  2  1  1  0
  3  2  2  0
  4  3  1  0
  5  4  2  0
  5 11  1  0
  6  5  1  0
  7  9  1  0
  7  6  1  0
  7  8  1  6
  9 10  2  0
 11 12  2  0
 12  2  1  0
 14 13  1  6
 15 14  1  0
 16 14  1  0
 16 17  1  1
 17  9  1  0
 18 16  1  0
 19 18  2  0
 20 21  1  0
 21 22  2  0
 23 24  1  0
 23 21  1  0
 24 25  1  0
 27 26  1  6
 26 25  1  0
 27 28  1  0
 28 18  1  0
 29 31  1  0
 29 27  1  0
 30 29  2  0
M  END
$$$$
