YTR.pdb
     RDKit          3D

 31 31  0  0  1  0  0  0  0  0999 V2000
   11.5306  -15.0197   30.8917 O   0  0  0  0  0  0  0  0  0  0  0  0
   10.6117  -14.9312   29.8342 C   0  0  0  0  0  0  0  0  0  0  0  0
    9.7240  -15.9460   29.6407 C   0  0  0  0  0  0  0  0  0  0  0  0
    8.7992  -15.9048   28.6124 C   0  0  0  0  0  0  0  0  0  0  0  0
    8.7600  -14.8283   27.7597 C   0  0  0  0  0  0  0  0  0  0  0  0
    7.7817  -14.7881   26.6762 C   0  0  0  0  0  0  0  0  0  0  0  0
    7.6141  -16.1002   25.9363 C   0  0  2  0  0  0  0  0  0  0  0  0
    8.8506  -16.8929   26.0938 N   0  0  0  0  0  0  0  0  0  0  0  0
    7.3590  -15.9664   24.5065 C   0  0  0  0  0  0  0  0  0  0  0  0
    6.4053  -15.2302   24.0856 O   0  0  0  0  0  0  0  0  0  0  0  0
    9.6618  -13.8066   27.9632 C   0  0  0  0  0  0  0  0  0  0  0  0
   10.5868  -13.8473   28.9914 C   0  0  0  0  0  0  0  0  0  0  0  0
    7.1448  -14.1379   22.9416 C   0  0  0  0  0  0  0  0  0  0  0  0
    7.8865  -14.8853   21.8688 C   0  0  1  0  0  0  0  0  0  0  0  0
    9.2559  -14.5967   22.0809 O   0  0  0  0  0  0  0  0  0  0  0  0
    7.7971  -16.4102   22.0508 C   0  0  2  0  0  0  0  0  0  0  0  0
    8.0996  -16.5997   23.4686 N   0  0  0  0  0  0  0  0  0  0  0  0
    8.8038  -17.1173   21.2586 C   0  0  0  0  0  0  0  0  0  0  0  0
   10.0368  -16.8728   21.5087 O   0  0  0  0  0  0  0  0  0  0  0  0
    7.6142  -14.4918   18.7945 N   0  0  0  0  0  0  0  0  0  0  0  0
    8.2503  -13.4155   18.1222 C   0  0  0  0  0  0  0  0  0  0  0  0
    7.9937  -12.2174   18.4714 N   0  0  0  0  0  0  0  0  0  0  0  0
    9.1733  -13.6962   17.0574 N   0  0  0  0  0  0  0  0  0  0  0  0
    9.9925  -14.8848   17.1126 C   0  0  0  0  0  0  0  0  0  0  0  0
    9.1476  -16.1422   17.0720 C   0  0  0  0  0  0  0  0  0  0  0  0
    8.6476  -16.4927   18.4313 C   0  0  0  0  0  0  0  0  0  0  0  0
    9.0420  -17.8676   18.8944 C   0  0  2  0  0  0  0  0  0  0  0  0
    8.4873  -18.0545   20.2351 N   0  0  0  0  0  0  0  0  0  0  0  0
   10.5211  -17.9299   19.0665 C   0  0  0  0  0  0  0  0  0  0  0  0
   10.9968  -17.7928   20.2181 O   0  0  0  0  0  0  0  0  0  0  0  0
   11.4137  -18.1288   18.0467 O   0  0  0  0  0  0  0  0  0  0  0  0
  2  1  1  0
  3  2  2  0
  4  3  1  0
  5  4  2  0
  5 11  1  0
  6  5  1  0
  7  9  1  0
  7  6  1  0
  7  8  1  6
  9 10  2  0
 11 12  2  0
 12  2  1  0
 14 13  1  1
 15 14  1  0
 16 14  1  0
 16 17  1  1
 17  9  1  0
 18 16  1  0
 19 18  2  0
 20 21  1  0
 21 22  2  0
 23 24  1  0
 23 21  1  0
 24 25  1  0
 27 26  1  1
 26 25  1  0
 27 28  1  0
 28 18  1  0
 29 31  1  0
 29 27  1  0
 30 29  2  0
M  END
$$$$
