YTR.pdb
     RDKit          3D

 31 31  0  0  1  0  0  0  0  0999 V2000
    7.5195  -11.1927   18.4019 O   0  0  0  0  0  0  0  0  0  0  0  0
    7.8853  -12.3382   19.1261 C   0  0  0  0  0  0  0  0  0  0  0  0
    9.2067  -12.6114   19.3116 C   0  0  0  0  0  0  0  0  0  0  0  0
    9.6169  -13.7281   20.0180 C   0  0  0  0  0  0  0  0  0  0  0  0
    8.6886  -14.5898   20.5504 C   0  0  0  0  0  0  0  0  0  0  0  0
    9.1256  -15.7667   21.2963 C   0  0  0  0  0  0  0  0  0  0  0  0
    9.8341  -16.8111   20.4570 C   0  0  2  0  0  0  0  0  0  0  0  0
    8.8886  -17.3256   19.4454 N   0  0  0  0  0  0  0  0  0  0  0  0
   10.3393  -17.9560   21.2062 C   0  0  0  0  0  0  0  0  0  0  0  0
    9.5508  -18.8926   21.5663 O   0  0  0  0  0  0  0  0  0  0  0  0
    7.3543  -14.3052   20.3576 C   0  0  0  0  0  0  0  0  0  0  0  0
    6.9435  -13.1886   19.6513 C   0  0  0  0  0  0  0  0  0  0  0  0
   12.7637  -20.4090   20.0883 C   0  0  0  0  0  0  0  0  0  0  0  0
   13.2735  -19.8916   21.4045 C   0  0  1  0  0  0  0  0  0  0  0  0
   14.0313  -18.7377   21.0923 O   0  0  0  0  0  0  0  0  0  0  0  0
   12.1420  -19.3600   22.3009 C   0  0  2  0  0  0  0  0  0  0  0  0
   11.6923  -18.1580   21.6006 N   0  0  0  0  0  0  0  0  0  0  0  0
   12.6272  -18.9756   23.6268 C   0  0  0  0  0  0  0  0  0  0  0  0
   12.8400  -17.7306   23.8444 O   0  0  0  0  0  0  0  0  0  0  0  0
   11.5728  -22.2493   31.7292 N   0  0  0  0  0  0  0  0  0  0  0  0
   12.8369  -21.6107   31.8265 C   0  0  0  0  0  0  0  0  0  0  0  0
   13.5207  -21.7310   32.8947 N   0  0  0  0  0  0  0  0  0  0  0  0
   13.3237  -20.8379   30.7173 N   0  0  0  0  0  0  0  0  0  0  0  0
   12.7927  -21.0689   29.3938 C   0  0  0  0  0  0  0  0  0  0  0  0
   13.4056  -20.1253   28.3786 C   0  0  0  0  0  0  0  0  0  0  0  0
   12.8069  -20.3314   27.0297 C   0  0  0  0  0  0  0  0  0  0  0  0
   13.3524  -19.4152   25.9698 C   0  0  2  0  0  0  0  0  0  0  0  0
   12.8715  -19.9041   24.6777 N   0  0  0  0  0  0  0  0  0  0  0  0
   14.8361  -19.5456   25.9143 C   0  0  0  0  0  0  0  0  0  0  0  0
   15.3346  -20.3932   25.1369 O   0  0  0  0  0  0  0  0  0  0  0  0
   15.7095  -18.7984   26.6594 O   0  0  0  0  0  0  0  0  0  0  0  0
  2  1  1  0
  3  2  2  0
  4  3  1  0
  5  4  2  0
  5 11  1  0
  6  5  1  0
  7  9  1  0
  7  6  1  0
  7  8  1  6
  9 10  2  0
 11 12  2  0
 12  2  1  0
 14 13  1  6
 15 14  1  0
 16 14  1  0
 16 17  1  6
 17  9  1  0
 18 16  1  0
 19 18  2  0
 20 21  1  0
 21 22  2  0
 23 24  1  0
 23 21  1  0
 24 25  1  0
 27 26  1  1
 26 25  1  0
 27 28  1  0
 28 18  1  0
 29 31  1  0
 29 27  1  0
 30 29  2  0
M  END
$$$$
