YTR.pdb
     RDKit          3D

 31 31  0  0  1  0  0  0  0  0999 V2000
   -0.1177  -20.4856   21.3906 O   0  0  0  0  0  0  0  0  0  0  0  0
    1.0916  -19.7736   21.4268 C   0  0  0  0  0  0  0  0  0  0  0  0
    1.3805  -18.9061   20.4173 C   0  0  0  0  0  0  0  0  0  0  0  0
    2.5594  -18.1818   20.4083 C   0  0  0  0  0  0  0  0  0  0  0  0
    3.4684  -18.3267   21.4283 C   0  0  0  0  0  0  0  0  0  0  0  0
    4.7110  -17.5596   21.4156 C   0  0  0  0  0  0  0  0  0  0  0  0
    5.4114  -17.5262   20.0719 C   0  0  2  0  0  0  0  0  0  0  0  0
    5.4182  -18.8917   19.5084 N   0  0  0  0  0  0  0  0  0  0  0  0
    6.7940  -17.0638   20.1156 C   0  0  0  0  0  0  0  0  0  0  0  0
    7.7568  -17.9016   20.1135 O   0  0  0  0  0  0  0  0  0  0  0  0
    3.1674  -19.2065   22.4450 C   0  0  0  0  0  0  0  0  0  0  0  0
    1.9887  -19.9310   22.4545 C   0  0  0  0  0  0  0  0  0  0  0  0
    7.7102  -13.6909   18.4068 C   0  0  0  0  0  0  0  0  0  0  0  0
    8.5653  -13.8499   19.6329 C   0  0  1  0  0  0  0  0  0  0  0  0
    7.8790  -13.1690   20.6667 O   0  0  0  0  0  0  0  0  0  0  0  0
    8.6199  -15.3073   20.1222 C   0  0  2  0  0  0  0  0  0  0  0  0
    7.2132  -15.7040   20.1602 N   0  0  0  0  0  0  0  0  0  0  0  0
    9.1727  -15.4123   21.4729 C   0  0  0  0  0  0  0  0  0  0  0  0
    8.3586  -15.3143   22.4580 O   0  0  0  0  0  0  0  0  0  0  0  0
    8.3143  -20.0676   21.2473 N   0  0  0  0  0  0  0  0  0  0  0  0
    8.4025  -20.5677   22.5729 C   0  0  0  0  0  0  0  0  0  0  0  0
    8.0864  -21.7791   22.8095 N   0  0  0  0  0  0  0  0  0  0  0  0
    8.8468  -19.6978   23.6266 N   0  0  0  0  0  0  0  0  0  0  0  0
   10.2443  -19.3450   23.7246 C   0  0  0  0  0  0  0  0  0  0  0  0
   10.5582  -18.0973   22.9238 C   0  0  0  0  0  0  0  0  0  0  0  0
   10.4622  -16.8786   23.7758 C   0  0  0  0  0  0  0  0  0  0  0  0
   11.0159  -15.6366   23.1346 C   0  0  2  0  0  0  0  0  0  0  0  0
   10.5545  -15.6168   21.7466 N   0  0  0  0  0  0  0  0  0  0  0  0
   12.5009  -15.7363   23.0560 C   0  0  0  0  0  0  0  0  0  0  0  0
   13.0326  -15.8884   21.9311 O   0  0  0  0  0  0  0  0  0  0  0  0
   13.3415  -15.6733   24.1357 O   0  0  0  0  0  0  0  0  0  0  0  0
  2  1  1  0
  3  2  2  0
  4  3  1  0
  5  4  2  0
  5 11  1  0
  6  5  1  0
  7  9  1  0
  7  6  1  0
  7  8  1  1
  9 10  2  0
 11 12  2  0
 12  2  1  0
 14 13  1  6
 15 14  1  0
 16 14  1  0
 16 17  1  1
 17  9  1  0
 18 16  1  0
 19 18  2  0
 20 21  1  0
 21 22  2  0
 23 24  1  0
 23 21  1  0
 24 25  1  0
 27 26  1  1
 26 25  1  0
 27 28  1  0
 28 18  1  0
 29 31  1  0
 29 27  1  0
 30 29  2  0
M  END
$$$$
