YTR.pdb
     RDKit          3D

 31 31  0  0  1  0  0  0  0  0999 V2000
    7.0389  -11.2057   19.0697 O   0  0  0  0  0  0  0  0  0  0  0  0
    7.5447  -12.3515   19.7035 C   0  0  0  0  0  0  0  0  0  0  0  0
    6.8116  -13.4993   19.6815 C   0  0  0  0  0  0  0  0  0  0  0  0
    7.2674  -14.6543   20.2918 C   0  0  0  0  0  0  0  0  0  0  0  0
    8.4803  -14.6636   20.9373 C   0  0  0  0  0  0  0  0  0  0  0  0
    8.9584  -15.8849   21.5793 C   0  0  0  0  0  0  0  0  0  0  0  0
   10.1404  -16.5335   20.8870 C   0  0  2  0  0  0  0  0  0  0  0  0
    9.7502  -16.8720   19.5031 N   0  0  0  0  0  0  0  0  0  0  0  0
   10.6211  -17.7575   21.5180 C   0  0  0  0  0  0  0  0  0  0  0  0
   10.0696  -18.8788   21.2586 O   0  0  0  0  0  0  0  0  0  0  0  0
    9.2147  -13.4979   20.9542 C   0  0  0  0  0  0  0  0  0  0  0  0
    8.7593  -12.3426   20.3440 C   0  0  0  0  0  0  0  0  0  0  0  0
   13.8307  -19.2929   21.1222 C   0  0  0  0  0  0  0  0  0  0  0  0
   13.6425  -19.1671   22.6083 C   0  0  1  0  0  0  0  0  0  0  0  0
   14.1314  -17.8827   22.9468 O   0  0  0  0  0  0  0  0  0  0  0  0
   12.1576  -19.1148   23.0067 C   0  0  2  0  0  0  0  0  0  0  0  0
   11.7006  -17.8460   22.4420 N   0  0  0  0  0  0  0  0  0  0  0  0
   11.9802  -19.0722   24.4586 C   0  0  0  0  0  0  0  0  0  0  0  0
   12.0055  -17.9239   25.0273 O   0  0  0  0  0  0  0  0  0  0  0  0
   11.0129  -25.4055   30.6080 N   0  0  0  0  0  0  0  0  0  0  0  0
   10.8814  -24.2124   31.3658 C   0  0  0  0  0  0  0  0  0  0  0  0
   10.6946  -24.2849   32.6240 N   0  0  0  0  0  0  0  0  0  0  0  0
   10.9606  -22.9417   30.6998 N   0  0  0  0  0  0  0  0  0  0  0  0
   11.0059  -22.8894   29.2568 C   0  0  0  0  0  0  0  0  0  0  0  0
   11.2363  -21.4761   28.7607 C   0  0  0  0  0  0  0  0  0  0  0  0
   11.3194  -21.4401   27.2733 C   0  0  0  0  0  0  0  0  0  0  0  0
   11.6018  -20.0762   26.7075 C   0  0  2  0  0  0  0  0  0  0  0  0
   11.7817  -20.2290   25.2638 N   0  0  0  0  0  0  0  0  0  0  0  0
   12.9130  -19.5863   27.2194 C   0  0  0  0  0  0  0  0  0  0  0  0
   13.9623  -19.9983   26.6710 O   0  0  0  0  0  0  0  0  0  0  0  0
   13.0611  -18.7069   28.2591 O   0  0  0  0  0  0  0  0  0  0  0  0
  2  1  1  0
  3  2  2  0
  4  3  1  0
  5  4  2  0
  5 11  1  0
  6  5  1  0
  7  9  1  0
  7  6  1  0
  7  8  1  6
  9 10  2  0
 11 12  2  0
 12  2  1  0
 14 13  1  6
 15 14  1  0
 16 14  1  0
 16 17  1  6
 17  9  1  0
 18 16  1  0
 19 18  2  0
 20 21  1  0
 21 22  2  0
 23 24  1  0
 23 21  1  0
 24 25  1  0
 27 26  1  1
 26 25  1  0
 27 28  1  0
 28 18  1  0
 29 31  1  0
 29 27  1  0
 30 29  2  0
M  END
$$$$
