YTR.pdb
     RDKit          3D

 31 31  0  0  1  0  0  0  0  0999 V2000
    8.5119  -14.5391   11.9944 O   0  0  0  0  0  0  0  0  0  0  0  0
    8.5899  -14.3181   13.3785 C   0  0  0  0  0  0  0  0  0  0  0  0
    7.6192  -13.5822   13.9879 C   0  0  0  0  0  0  0  0  0  0  0  0
    7.6521  -13.3370   15.3492 C   0  0  0  0  0  0  0  0  0  0  0  0
    8.6754  -13.8368   16.1179 C   0  0  0  0  0  0  0  0  0  0  0  0
    8.7060  -13.5767   17.5545 C   0  0  0  0  0  0  0  0  0  0  0  0
    8.6266  -14.8206   18.4168 C   0  0  2  0  0  0  0  0  0  0  0  0
    7.3129  -15.4612   18.2026 N   0  0  0  0  0  0  0  0  0  0  0  0
    8.7684  -14.5808   19.8485 C   0  0  0  0  0  0  0  0  0  0  0  0
    8.3528  -13.4909   20.3663 O   0  0  0  0  0  0  0  0  0  0  0  0
    9.6527  -14.5801   15.4926 C   0  0  0  0  0  0  0  0  0  0  0  0
    9.6202  -14.8256   14.1313 C   0  0  0  0  0  0  0  0  0  0  0  0
    7.0059  -14.3830   21.8817 C   0  0  0  0  0  0  0  0  0  0  0  0
    7.8834  -15.3514   22.6247 C   0  0  1  0  0  0  0  0  0  0  0  0
    7.5150  -16.6354   22.1569 O   0  0  0  0  0  0  0  0  0  0  0  0
    9.3636  -15.2228   22.2261 C   0  0  2  0  0  0  0  0  0  0  0  0
    9.3497  -15.4799   20.7869 N   0  0  0  0  0  0  0  0  0  0  0  0
   10.1966  -16.2360   22.8748 C   0  0  0  0  0  0  0  0  0  0  0  0
   10.0121  -17.4598   22.5416 O   0  0  0  0  0  0  0  0  0  0  0  0
   17.1922  -13.9872   21.2250 N   0  0  0  0  0  0  0  0  0  0  0  0
   16.1829  -14.3605   20.2992 C   0  0  0  0  0  0  0  0  0  0  0  0
   16.2774  -13.9900   19.0839 N   0  0  0  0  0  0  0  0  0  0  0  0
   15.0703  -15.1503   20.7495 N   0  0  0  0  0  0  0  0  0  0  0  0
   14.9126  -15.4307   22.1578 C   0  0  0  0  0  0  0  0  0  0  0  0
   13.6835  -16.2778   22.4198 C   0  0  0  0  0  0  0  0  0  0  0  0
   13.5089  -16.5272   23.8785 C   0  0  0  0  0  0  0  0  0  0  0  0
   12.1278  -16.9801   24.2624 C   0  0  2  0  0  0  0  0  0  0  0  0
   11.1922  -15.9353   23.8465 N   0  0  0  0  0  0  0  0  0  0  0  0
   12.0182  -17.0402   25.7476 C   0  0  0  0  0  0  0  0  0  0  0  0
   12.7393  -17.8557   26.3692 O   0  0  0  0  0  0  0  0  0  0  0  0
   11.1770  -16.2604   26.4963 O   0  0  0  0  0  0  0  0  0  0  0  0
  2  1  1  0
  3  2  2  0
  4  3  1  0
  5  4  2  0
  5 11  1  0
  6  5  1  0
  7  9  1  0
  7  6  1  0
  7  8  1  1
  9 10  2  0
 11 12  2  0
 12  2  1  0
 14 13  1  6
 15 14  1  0
 16 14  1  0
 16 17  1  6
 17  9  1  0
 18 16  1  0
 19 18  2  0
 20 21  1  0
 21 22  2  0
 23 24  1  0
 23 21  1  0
 24 25  1  0
 27 26  1  1
 26 25  1  0
 27 28  1  0
 28 18  1  0
 29 31  1  0
 29 27  1  0
 30 29  2  0
M  END
$$$$
