YTR.pdb
     RDKit          3D

 31 31  0  0  1  0  0  0  0  0999 V2000
    5.1359   -9.9516   27.4123 O   0  0  0  0  0  0  0  0  0  0  0  0
    5.8135  -11.0802   26.9251 C   0  0  0  0  0  0  0  0  0  0  0  0
    5.3740  -12.3205   27.2770 C   0  0  0  0  0  0  0  0  0  0  0  0
    6.0085  -13.4629   26.8224 C   0  0  0  0  0  0  0  0  0  0  0  0
    7.1043  -13.3651   25.9995 C   0  0  0  0  0  0  0  0  0  0  0  0
    7.7705  -14.5732   25.5209 C   0  0  0  0  0  0  0  0  0  0  0  0
    6.9214  -15.4356   24.6086 C   0  0  2  0  0  0  0  0  0  0  0  0
    6.1929  -16.4213   25.4331 N   0  0  0  0  0  0  0  0  0  0  0  0
    7.6692  -16.1766   23.5991 C   0  0  0  0  0  0  0  0  0  0  0  0
    8.0426  -17.3766   23.8217 O   0  0  0  0  0  0  0  0  0  0  0  0
    7.5415  -12.1063   25.6489 C   0  0  0  0  0  0  0  0  0  0  0  0
    6.9074  -10.9635   26.1032 C   0  0  0  0  0  0  0  0  0  0  0  0
    9.2845  -16.4043   18.8760 C   0  0  0  0  0  0  0  0  0  0  0  0
    8.5506  -15.7615   20.0196 C   0  0  1  0  0  0  0  0  0  0  0  0
    7.1768  -15.9908   19.7675 O   0  0  0  0  0  0  0  0  0  0  0  0
    8.8066  -16.4799   21.3556 C   0  0  2  0  0  0  0  0  0  0  0  0
    8.0484  -15.6830   22.3187 N   0  0  0  0  0  0  0  0  0  0  0  0
   10.2202  -16.4497   21.7326 C   0  0  0  0  0  0  0  0  0  0  0  0
   10.7957  -15.3061   21.7917 O   0  0  0  0  0  0  0  0  0  0  0  0
   12.6373  -20.6815   28.3684 N   0  0  0  0  0  0  0  0  0  0  0  0
   11.4917  -19.8656   28.1759 C   0  0  0  0  0  0  0  0  0  0  0  0
   10.4922  -19.9923   28.9558 N   0  0  0  0  0  0  0  0  0  0  0  0
   11.4788  -18.9101   27.1029 N   0  0  0  0  0  0  0  0  0  0  0  0
   12.1591  -19.2121   25.8648 C   0  0  0  0  0  0  0  0  0  0  0  0
   11.9120  -18.1412   24.8214 C   0  0  0  0  0  0  0  0  0  0  0  0
   12.6257  -18.4585   23.5524 C   0  0  0  0  0  0  0  0  0  0  0  0
   12.3781  -17.4712   22.4460 C   0  0  2  0  0  0  0  0  0  0  0  0
   10.9814  -17.6138   22.0353 N   0  0  0  0  0  0  0  0  0  0  0  0
   13.1823  -17.8513   21.2501 C   0  0  0  0  0  0  0  0  0  0  0  0
   13.3296  -17.0082   20.3342 O   0  0  0  0  0  0  0  0  0  0  0  0
   13.7818  -19.0702   21.0730 O   0  0  0  0  0  0  0  0  0  0  0  0
  2  1  1  0
  3  2  2  0
  4  3  1  0
  5  4  2  0
  5 11  1  0
  6  5  1  0
  7  9  1  0
  7  6  1  0
  7  8  1  1
  9 10  2  0
 11 12  2  0
 12  2  1  0
 14 13  1  6
 15 14  1  0
 16 14  1  0
 16 17  1  1
 17  9  1  0
 18 16  1  0
 19 18  2  0
 20 21  1  0
 21 22  2  0
 23 24  1  0
 23 21  1  0
 24 25  1  0
 27 26  1  1
 26 25  1  0
 27 28  1  0
 28 18  1  0
 29 31  1  0
 29 27  1  0
 30 29  2  0
M  END
$$$$
