YTR.pdb
     RDKit          3D

 31 31  0  0  1  0  0  0  0  0999 V2000
    8.1554  -10.8804   18.5298 O   0  0  0  0  0  0  0  0  0  0  0  0
    8.2102  -12.0700   19.2729 C   0  0  0  0  0  0  0  0  0  0  0  0
    9.4249  -12.6012   19.5853 C   0  0  0  0  0  0  0  0  0  0  0  0
    9.5305  -13.7717   20.3154 C   0  0  0  0  0  0  0  0  0  0  0  0
    8.3999  -14.4253   20.7425 C   0  0  0  0  0  0  0  0  0  0  0  0
    8.5156  -15.6599   21.5139 C   0  0  0  0  0  0  0  0  0  0  0  0
    8.6171  -16.9159   20.6717 C   0  0  2  0  0  0  0  0  0  0  0  0
    7.3265  -17.1310   19.9861 N   0  0  0  0  0  0  0  0  0  0  0  0
    8.9226  -18.1297   21.4205 C   0  0  0  0  0  0  0  0  0  0  0  0
    8.1531  -19.1454   21.3483 O   0  0  0  0  0  0  0  0  0  0  0  0
    7.1757  -13.8804   20.4217 C   0  0  0  0  0  0  0  0  0  0  0  0
    7.0696  -12.7100   19.6916 C   0  0  0  0  0  0  0  0  0  0  0  0
   11.7419  -21.5564   21.5725 C   0  0  0  0  0  0  0  0  0  0  0  0
   10.9699  -20.2848   21.3557 C   0  0  1  0  0  0  0  0  0  0  0  0
    9.7586  -20.6756   20.7365 O   0  0  0  0  0  0  0  0  0  0  0  0
   10.5189  -19.6424   22.6787 C   0  0  2  0  0  0  0  0  0  0  0  0
   10.0496  -18.3196   22.2694 N   0  0  0  0  0  0  0  0  0  0  0  0
   11.6311  -19.4758   23.6149 C   0  0  0  0  0  0  0  0  0  0  0  0
   12.5428  -18.6280   23.3104 O   0  0  0  0  0  0  0  0  0  0  0  0
   12.2739  -22.5229   31.9035 N   0  0  0  0  0  0  0  0  0  0  0  0
   12.9818  -21.2946   31.9776 C   0  0  0  0  0  0  0  0  0  0  0  0
   13.5592  -20.9672   33.0652 N   0  0  0  0  0  0  0  0  0  0  0  0
   13.0343  -20.4403   30.8236 N   0  0  0  0  0  0  0  0  0  0  0  0
   12.3198  -20.8102   29.6238 C   0  0  0  0  0  0  0  0  0  0  0  0
   12.7282  -19.9467   28.4473 C   0  0  0  0  0  0  0  0  0  0  0  0
   12.0245  -20.3714   27.2044 C   0  0  0  0  0  0  0  0  0  0  0  0
   12.3779  -19.5577   25.9907 C   0  0  2  0  0  0  0  0  0  0  0  0
   11.7508  -20.1990   24.8350 N   0  0  0  0  0  0  0  0  0  0  0  0
   13.8450  -19.6444   25.7429 C   0  0  0  0  0  0  0  0  0  0  0  0
   14.2741  -20.5569   24.9981 O   0  0  0  0  0  0  0  0  0  0  0  0
   14.7742  -18.7901   26.2750 O   0  0  0  0  0  0  0  0  0  0  0  0
  2  1  1  0
  3  2  2  0
  4  3  1  0
  5  4  2  0
  5 11  1  0
  6  5  1  0
  7  9  1  0
  7  6  1  0
  7  8  1  1
  9 10  2  0
 11 12  2  0
 12  2  1  0
 14 13  1  1
 15 14  1  0
 16 14  1  0
 16 17  1  6
 17  9  1  0
 18 16  1  0
 19 18  2  0
 20 21  1  0
 21 22  2  0
 23 24  1  0
 23 21  1  0
 24 25  1  0
 27 26  1  1
 26 25  1  0
 27 28  1  0
 28 18  1  0
 29 31  1  0
 29 27  1  0
 30 29  2  0
M  END
$$$$
