YTR.pdb
     RDKit          3D

 31 31  0  0  1  0  0  0  0  0999 V2000
    7.3559  -11.9510   16.8754 O   0  0  0  0  0  0  0  0  0  0  0  0
    7.5888  -12.8304   17.9444 C   0  0  0  0  0  0  0  0  0  0  0  0
    8.8679  -13.1986   18.2334 C   0  0  0  0  0  0  0  0  0  0  0  0
    9.1481  -14.0628   19.2769 C   0  0  0  0  0  0  0  0  0  0  0  0
    8.1301  -14.5698   20.0479 C   0  0  0  0  0  0  0  0  0  0  0  0
    8.4300  -15.4808   21.1492 C   0  0  0  0  0  0  0  0  0  0  0  0
    8.9993  -16.8174   20.7173 C   0  0  2  0  0  0  0  0  0  0  0  0
    8.0005  -17.5066   19.8749 N   0  0  0  0  0  0  0  0  0  0  0  0
    9.3434  -17.7168   21.8127 C   0  0  0  0  0  0  0  0  0  0  0  0
    8.4588  -18.4812   22.3245 O   0  0  0  0  0  0  0  0  0  0  0  0
    6.8395  -14.1916   19.7481 C   0  0  0  0  0  0  0  0  0  0  0  0
    6.5588  -13.3274   18.7047 C   0  0  0  0  0  0  0  0  0  0  0  0
   12.1625  -20.2139   22.0038 C   0  0  0  0  0  0  0  0  0  0  0  0
   12.2338  -19.3577   23.2374 C   0  0  1  0  0  0  0  0  0  0  0  0
   13.0721  -18.2691   22.8975 O   0  0  0  0  0  0  0  0  0  0  0  0
   10.8848  -18.6968   23.5686 C   0  0  2  0  0  0  0  0  0  0  0  0
   10.6307  -17.8464   22.4067 N   0  0  0  0  0  0  0  0  0  0  0  0
   10.9661  -17.8505   24.7595 C   0  0  0  0  0  0  0  0  0  0  0  0
   11.5515  -16.7162   24.6442 O   0  0  0  0  0  0  0  0  0  0  0  0
    5.7471  -12.8792   27.0418 N   0  0  0  0  0  0  0  0  0  0  0  0
    6.7966  -12.5255   26.1538 C   0  0  0  0  0  0  0  0  0  0  0  0
    6.7359  -11.4237   25.5169 N   0  0  0  0  0  0  0  0  0  0  0  0
    7.9105  -13.4178   25.9877 N   0  0  0  0  0  0  0  0  0  0  0  0
    8.0187  -14.5932   26.8204 C   0  0  0  0  0  0  0  0  0  0  0  0
    9.2379  -15.4177   26.4593 C   0  0  0  0  0  0  0  0  0  0  0  0
    9.4142  -16.5529   27.4083 C   0  0  0  0  0  0  0  0  0  0  0  0
   10.6672  -17.3524   27.1826 C   0  0  2  0  0  0  0  0  0  0  0  0
   10.4328  -18.2181   26.0270 N   0  0  0  0  0  0  0  0  0  0  0  0
   10.8819  -18.2768   28.3318 C   0  0  0  0  0  0  0  0  0  0  0  0
   10.6473  -19.4976   28.1709 O   0  0  0  0  0  0  0  0  0  0  0  0
   11.3228  -17.8881   29.5691 O   0  0  0  0  0  0  0  0  0  0  0  0
  2  1  1  0
  3  2  2  0
  4  3  1  0
  5  4  2  0
  5 11  1  0
  6  5  1  0
  7  9  1  0
  7  6  1  0
  7  8  1  6
  9 10  2  0
 11 12  2  0
 12  2  1  0
 14 13  1  6
 15 14  1  0
 16 14  1  0
 16 17  1  6
 17  9  1  0
 18 16  1  0
 19 18  2  0
 20 21  1  0
 21 22  2  0
 23 24  1  0
 23 21  1  0
 24 25  1  0
 27 26  1  1
 26 25  1  0
 27 28  1  0
 28 18  1  0
 29 31  1  0
 29 27  1  0
 30 29  2  0
M  END
$$$$
