YTR.pdb
     RDKit          3D

 31 31  0  0  1  0  0  0  0  0999 V2000
    5.8782  -13.3140   20.2454 O   0  0  0  0  0  0  0  0  0  0  0  0
    7.2725  -13.3501   20.0864 C   0  0  0  0  0  0  0  0  0  0  0  0
    7.8068  -13.0908   18.8607 C   0  0  0  0  0  0  0  0  0  0  0  0
    9.1747  -13.1144   18.6540 C   0  0  0  0  0  0  0  0  0  0  0  0
   10.0266  -13.4028   19.6926 C   0  0  0  0  0  0  0  0  0  0  0  0
   11.4698  -13.4257   19.4707 C   0  0  0  0  0  0  0  0  0  0  0  0
   12.0205  -14.7822   19.0785 C   0  0  2  0  0  0  0  0  0  0  0  0
   11.5084  -15.1305   17.7375 N   0  0  0  0  0  0  0  0  0  0  0  0
   11.6614  -15.8707   19.9805 C   0  0  0  0  0  0  0  0  0  0  0  0
   11.1179  -16.9331   19.5283 O   0  0  0  0  0  0  0  0  0  0  0  0
    9.4769  -13.6638   20.9288 C   0  0  0  0  0  0  0  0  0  0  0  0
    8.1091  -13.6403   21.1360 C   0  0  0  0  0  0  0  0  0  0  0  0
   11.9929  -18.4130   20.2641 C   0  0  0  0  0  0  0  0  0  0  0  0
   12.1811  -18.1885   21.7386 C   0  0  1  0  0  0  0  0  0  0  0  0
   13.5362  -17.8115   21.8965 O   0  0  0  0  0  0  0  0  0  0  0  0
   11.3956  -16.9682   22.2486 C   0  0  2  0  0  0  0  0  0  0  0  0
   11.8638  -15.8816   21.3897 N   0  0  0  0  0  0  0  0  0  0  0  0
   11.7263  -16.6437   23.6366 C   0  0  0  0  0  0  0  0  0  0  0  0
   12.3295  -15.5353   23.8607 O   0  0  0  0  0  0  0  0  0  0  0  0
    6.8687  -13.3679   24.2511 N   0  0  0  0  0  0  0  0  0  0  0  0
    6.5598  -13.2805   25.6339 C   0  0  0  0  0  0  0  0  0  0  0  0
    6.0126  -12.2239   26.0895 N   0  0  0  0  0  0  0  0  0  0  0  0
    6.8708  -14.3862   26.4971 N   0  0  0  0  0  0  0  0  0  0  0  0
    8.1560  -15.0377   26.3941 C   0  0  0  0  0  0  0  0  0  0  0  0
    8.0111  -16.4843   25.9662 C   0  0  0  0  0  0  0  0  0  0  0  0
    9.1222  -16.8855   25.0580 C   0  0  0  0  0  0  0  0  0  0  0  0
   10.4526  -17.0304   25.7430 C   0  0  2  0  0  0  0  0  0  0  0  0
   11.4147  -17.4870   24.7401 N   0  0  0  0  0  0  0  0  0  0  0  0
   10.3783  -18.1284   26.7480 C   0  0  0  0  0  0  0  0  0  0  0  0
   10.2539  -19.3071   26.3399 O   0  0  0  0  0  0  0  0  0  0  0  0
   10.4366  -17.9448   28.1042 O   0  0  0  0  0  0  0  0  0  0  0  0
  2  1  1  0
  3  2  2  0
  4  3  1  0
  5  4  2  0
  5 11  1  0
  6  5  1  0
  7  9  1  0
  7  6  1  0
  7  8  1  6
  9 10  2  0
 11 12  2  0
 12  2  1  0
 14 13  1  6
 15 14  1  0
 16 14  1  0
 16 17  1  6
 17  9  1  0
 18 16  1  0
 19 18  2  0
 20 21  1  0
 21 22  2  0
 23 24  1  0
 23 21  1  0
 24 25  1  0
 27 26  1  6
 26 25  1  0
 27 28  1  0
 28 18  1  0
 29 31  1  0
 29 27  1  0
 30 29  2  0
M  END
$$$$
