PCP.pdb
     RDKit          3D

 21 22  0  0  1  0  0  0  0  0999 V2000
    7.6179  -15.2144   21.0542 N   0  0  0  0  0  0  0  0  0  0  0  0
    6.7097  -14.7494   20.0336 C   0  0  0  0  0  0  0  0  0  0  0  0
    7.5880  -13.8567   19.1497 C   0  0  0  0  0  0  0  0  0  0  0  0
    8.3893  -13.1235   20.2341 C   0  0  0  0  0  0  0  0  0  0  0  0
    8.6598  -14.2429   21.1978 C   0  0  1  0  0  0  0  0  0  0  0  0
    8.7287  -13.7863   22.6099 C   0  0  0  0  0  0  0  0  0  0  0  0
    9.5799  -12.9219   22.9759 O   0  0  0  0  0  0  0  0  0  0  0  0
    7.8605  -14.2864   23.6009 N   0  0  0  0  0  0  0  0  0  0  0  0
    7.8526  -13.8098   24.9904 C   0  0  1  0  0  0  0  0  0  0  0  0
    6.3716  -13.7888   25.4296 C   0  0  0  0  0  0  0  0  0  0  0  0
    6.0966  -13.0853   27.0431 S   0  0  0  0  0  0  0  0  0  0  0  0
    8.4796  -14.9193   25.8013 C   0  0  0  0  0  0  0  0  0  0  0  0
    7.9998  -16.0528   25.5399 O   0  0  0  0  0  0  0  0  0  0  0  0
    9.4870  -14.6945   26.7361 N   0  0  0  0  0  0  0  0  0  0  0  0
   10.1187  -13.3815   27.0027 C   0  0  0  0  0  0  0  0  0  0  0  0
   10.1731  -13.3578   28.4993 C   0  0  0  0  0  0  0  0  0  0  0  0
    9.8585  -14.7650   28.9623 C   0  0  0  0  0  0  0  0  0  0  0  0
   10.1549  -15.5480   27.6378 C   0  0  1  0  0  0  0  0  0  0  0  0
    9.7945  -16.9279   27.7969 C   0  0  0  0  0  0  0  0  0  0  0  0
   10.7741  -17.8253   28.2833 O   0  0  0  0  0  0  0  0  0  0  0  0
    8.7033  -17.4213   27.5503 O   0  0  0  0  0  0  0  0  0  0  0  0
  2  1  1  0
  3  2  1  0
  4  3  1  0
  4  5  1  0
  5  1  1  0
  6  8  1  0
  5  6  1  1
  7  6  2  0
  9  8  1  0
  9 12  1  0
  9 10  1  1
 11 10  1  0
 12 13  2  0
 14 12  1  0
 14 15  1  0
 16 15  1  0
 17 16  1  0
 18 19  1  1
 18 17  1  0
 18 14  1  0
 19 20  1  0
 21 19  2  0
M  END
$$$$
