PCP.pdb
     RDKit          3D

 21 22  0  0  1  0  0  0  0  0999 V2000
    7.8973  -15.4265   21.0213 N   0  0  0  0  0  0  0  0  0  0  0  0
    6.8851  -15.2556   20.0070 C   0  0  0  0  0  0  0  0  0  0  0  0
    7.4788  -14.1868   19.0825 C   0  0  0  0  0  0  0  0  0  0  0  0
    8.0648  -13.2314   20.1310 C   0  0  0  0  0  0  0  0  0  0  0  0
    8.6393  -14.2059   21.1185 C   0  0  1  0  0  0  0  0  0  0  0  0
    8.5991  -13.7042   22.5164 C   0  0  0  0  0  0  0  0  0  0  0  0
    9.1053  -12.5838   22.8229 O   0  0  0  0  0  0  0  0  0  0  0  0
    8.0026  -14.4416   23.5587 N   0  0  0  0  0  0  0  0  0  0  0  0
    7.8785  -13.9471   24.9364 C   0  0  1  0  0  0  0  0  0  0  0  0
    6.3852  -14.0814   25.3088 C   0  0  0  0  0  0  0  0  0  0  0  0
    5.9342  -13.2697   26.8292 S   0  0  0  0  0  0  0  0  0  0  0  0
    8.5839  -14.9686   25.7970 C   0  0  0  0  0  0  0  0  0  0  0  0
    8.1938  -16.1459   25.5848 O   0  0  0  0  0  0  0  0  0  0  0  0
    9.5657  -14.6264   26.7233 N   0  0  0  0  0  0  0  0  0  0  0  0
   10.2250  -13.3028   26.8103 C   0  0  0  0  0  0  0  0  0  0  0  0
   10.2305  -13.0515   28.2868 C   0  0  0  0  0  0  0  0  0  0  0  0
    9.8611  -14.3637   28.9466 C   0  0  0  0  0  0  0  0  0  0  0  0
   10.1790  -15.3467   27.7685 C   0  0  1  0  0  0  0  0  0  0  0  0
    9.7748  -16.6775   28.1224 C   0  0  0  0  0  0  0  0  0  0  0  0
   10.5617  -17.3915   29.0563 O   0  0  0  0  0  0  0  0  0  0  0  0
    8.7981  -17.2732   27.6909 O   0  0  0  0  0  0  0  0  0  0  0  0
  2  1  1  0
  3  2  1  0
  4  3  1  0
  4  5  1  0
  5  1  1  0
  6  8  1  0
  5  6  1  1
  7  6  2  0
  9  8  1  0
  9 12  1  0
  9 10  1  1
 11 10  1  0
 12 13  2  0
 14 12  1  0
 14 15  1  0
 16 15  1  0
 17 16  1  0
 18 19  1  1
 18 17  1  0
 18 14  1  0
 19 20  1  0
 21 19  2  0
M  END
$$$$
