PCP.pdb
     RDKit          3D

 21 22  0  0  1  0  0  0  0  0999 V2000
    8.5516  -15.2205   19.7618 N   0  0  0  0  0  0  0  0  0  0  0  0
    7.9531  -14.9189   18.4837 C   0  0  0  0  0  0  0  0  0  0  0  0
    8.0862  -13.3957   18.3745 C   0  0  0  0  0  0  0  0  0  0  0  0
    7.7164  -12.9980   19.8099 C   0  0  0  0  0  0  0  0  0  0  0  0
    8.4264  -14.0630   20.5951 C   0  0  1  0  0  0  0  0  0  0  0  0
    7.7198  -14.4234   21.8514 C   0  0  0  0  0  0  0  0  0  0  0  0
    6.4541  -14.4527   21.9033 O   0  0  0  0  0  0  0  0  0  0  0  0
    8.4146  -14.7467   23.0340 N   0  0  0  0  0  0  0  0  0  0  0  0
    7.7509  -15.1062   24.2942 C   0  0  1  0  0  0  0  0  0  0  0  0
    7.0950  -16.4848   24.0570 C   0  0  0  0  0  0  0  0  0  0  0  0
    6.5871  -17.3197   25.5466 S   0  0  0  0  0  0  0  0  0  0  0  0
    8.8670  -15.3741   25.2762 C   0  0  0  0  0  0  0  0  0  0  0  0
    9.4475  -16.4722   25.0753 O   0  0  0  0  0  0  0  0  0  0  0  0
    9.2082  -14.4848   26.2921 N   0  0  0  0  0  0  0  0  0  0  0  0
    8.9373  -13.0287   26.2708 C   0  0  0  0  0  0  0  0  0  0  0  0
    8.4355  -12.7827   27.6603 C   0  0  0  0  0  0  0  0  0  0  0  0
    8.7431  -14.0344   28.4554 C   0  0  0  0  0  0  0  0  0  0  0  0
    9.8461  -14.6626   27.5366 C   0  0  1  0  0  0  0  0  0  0  0  0
   10.2121  -15.9588   28.0321 C   0  0  0  0  0  0  0  0  0  0  0  0
   11.3316  -16.0569   28.8913 O   0  0  0  0  0  0  0  0  0  0  0  0
    9.6442  -17.0126   27.7833 O   0  0  0  0  0  0  0  0  0  0  0  0
  2  1  1  0
  3  2  1  0
  4  3  1  0
  4  5  1  0
  5  1  1  0
  6  8  1  0
  5  6  1  1
  7  6  2  0
  9  8  1  0
  9 12  1  0
  9 10  1  6
 11 10  1  0
 12 13  2  0
 14 12  1  0
 14 15  1  0
 16 15  1  0
 17 16  1  0
 18 19  1  1
 18 17  1  0
 18 14  1  0
 19 20  1  0
 21 19  2  0
M  END
$$$$
