PCP.pdb
     RDKit          3D

 21 22  0  0  1  0  0  0  0  0999 V2000
    7.8807  -15.1789   19.4610 N   0  0  0  0  0  0  0  0  0  0  0  0
    7.3602  -14.4097   18.3564 C   0  0  0  0  0  0  0  0  0  0  0  0
    8.0482  -13.0486   18.5098 C   0  0  0  0  0  0  0  0  0  0  0  0
    7.9458  -12.8745   20.0312 C   0  0  0  0  0  0  0  0  0  0  0  0
    8.2520  -14.2676   20.5010 C   0  0  1  0  0  0  0  0  0  0  0  0
    7.5423  -14.6234   21.7568 C   0  0  0  0  0  0  0  0  0  0  0  0
    6.2766  -14.6599   21.8037 O   0  0  0  0  0  0  0  0  0  0  0  0
    8.2342  -14.9346   22.9444 N   0  0  0  0  0  0  0  0  0  0  0  0
    7.5673  -15.2528   24.2140 C   0  0  1  0  0  0  0  0  0  0  0  0
    7.0856  -16.7156   24.0921 C   0  0  0  0  0  0  0  0  0  0  0  0
    6.6364  -17.4698   25.6423 S   0  0  0  0  0  0  0  0  0  0  0  0
    8.6671  -15.2940   25.2485 C   0  0  0  0  0  0  0  0  0  0  0  0
    9.3845  -16.3243   25.1648 O   0  0  0  0  0  0  0  0  0  0  0  0
    8.8565  -14.2851   26.1896 N   0  0  0  0  0  0  0  0  0  0  0  0
    8.3427  -12.9014   26.0644 C   0  0  0  0  0  0  0  0  0  0  0  0
    7.8115  -12.6384   27.4398 C   0  0  0  0  0  0  0  0  0  0  0  0
    8.3297  -13.7561   28.3207 C   0  0  0  0  0  0  0  0  0  0  0  0
    9.5198  -14.2574   27.4333 C   0  0  1  0  0  0  0  0  0  0  0  0
   10.1020  -15.4316   28.0178 C   0  0  0  0  0  0  0  0  0  0  0  0
    9.3811  -16.6465   27.9422 O   0  0  0  0  0  0  0  0  0  0  0  0
   11.1818  -15.4936   28.5880 O   0  0  0  0  0  0  0  0  0  0  0  0
  2  1  1  0
  3  2  1  0
  4  3  1  0
  4  5  1  0
  5  1  1  0
  6  8  1  0
  5  6  1  1
  7  6  2  0
  9  8  1  0
  9 12  1  0
  9 10  1  6
 11 10  1  0
 12 13  2  0
 14 12  1  0
 14 15  1  0
 16 15  1  0
 17 16  1  0
 18 19  1  1
 18 17  1  0
 18 14  1  0
 19 20  1  0
 21 19  2  0
M  END
$$$$
