PCP.pdb
     RDKit          3D

 21 22  0  0  1  0  0  0  0  0999 V2000
    7.9004  -15.3534   21.1923 N   0  0  0  0  0  0  0  0  0  0  0  0
    6.8770  -15.1413   20.1972 C   0  0  0  0  0  0  0  0  0  0  0  0
    7.4473  -14.0141   19.3289 C   0  0  0  0  0  0  0  0  0  0  0  0
    8.0288  -13.1099   20.4243 C   0  0  0  0  0  0  0  0  0  0  0  0
    8.6258  -14.1292   21.3514 C   0  0  1  0  0  0  0  0  0  0  0  0
    8.5906  -13.7067   22.7753 C   0  0  0  0  0  0  0  0  0  0  0  0
    9.0129  -12.5654   23.1284 O   0  0  0  0  0  0  0  0  0  0  0  0
    8.0914  -14.5450   23.7921 N   0  0  0  0  0  0  0  0  0  0  0  0
    7.9629  -14.1320   25.1960 C   0  0  1  0  0  0  0  0  0  0  0  0
    6.4884  -14.3810   25.5845 C   0  0  0  0  0  0  0  0  0  0  0  0
    5.6819  -12.9796   26.3321 S   0  0  0  0  0  0  0  0  0  0  0  0
    8.7478  -15.1497   25.9896 C   0  0  0  0  0  0  0  0  0  0  0  0
    8.4633  -16.3374   25.6867 O   0  0  0  0  0  0  0  0  0  0  0  0
    9.6890  -14.7935   26.9522 N   0  0  0  0  0  0  0  0  0  0  0  0
   10.2006  -13.4207   27.1707 C   0  0  0  0  0  0  0  0  0  0  0  0
   10.1826  -13.3133   28.6645 C   0  0  0  0  0  0  0  0  0  0  0  0
    9.9599  -14.7151   29.1926 C   0  0  0  0  0  0  0  0  0  0  0  0
   10.3798  -15.5401   27.9284 C   0  0  1  0  0  0  0  0  0  0  0  0
   10.1238  -16.9346   28.1500 C   0  0  0  0  0  0  0  0  0  0  0  0
    8.8048  -17.4120   27.9662 O   0  0  0  0  0  0  0  0  0  0  0  0
   10.9459  -17.7737   28.4893 O   0  0  0  0  0  0  0  0  0  0  0  0
  2  1  1  0
  3  2  1  0
  4  3  1  0
  4  5  1  0
  5  1  1  0
  6  8  1  0
  5  6  1  1
  7  6  2  0
  9  8  1  0
  9 12  1  0
  9 10  1  1
 11 10  1  0
 12 13  2  0
 14 12  1  0
 14 15  1  0
 16 15  1  0
 17 16  1  0
 18 19  1  1
 18 17  1  0
 18 14  1  0
 19 20  1  0
 21 19  2  0
M  END
$$$$
