PCP.pdb
     RDKit          3D

 21 22  0  0  1  0  0  0  0  0999 V2000
    7.5185  -15.9275   21.3173 N   0  0  0  0  0  0  0  0  0  0  0  0
    6.6217  -15.5589   20.2484 C   0  0  0  0  0  0  0  0  0  0  0  0
    7.5327  -14.8422   19.2454 C   0  0  0  0  0  0  0  0  0  0  0  0
    8.3846  -14.0111   20.2144 C   0  0  0  0  0  0  0  0  0  0  0  0
    8.6103  -15.0014   21.3204 C   0  0  1  0  0  0  0  0  0  0  0  0
    8.7211  -14.3609   22.6564 C   0  0  0  0  0  0  0  0  0  0  0  0
    9.6246  -13.5059   22.8977 O   0  0  0  0  0  0  0  0  0  0  0  0
    7.8368  -14.6693   23.7094 N   0  0  0  0  0  0  0  0  0  0  0  0
    7.8969  -14.0357   25.0333 C   0  0  1  0  0  0  0  0  0  0  0  0
    6.4368  -13.9326   25.5276 C   0  0  0  0  0  0  0  0  0  0  0  0
    6.2531  -13.1217   27.1032 S   0  0  0  0  0  0  0  0  0  0  0  0
    8.5400  -15.0574   25.9410 C   0  0  0  0  0  0  0  0  0  0  0  0
    8.0797  -16.2176   25.7818 O   0  0  0  0  0  0  0  0  0  0  0  0
    9.5412  -14.7330   26.8530 N   0  0  0  0  0  0  0  0  0  0  0  0
   10.0536  -13.3651   27.0986 C   0  0  0  0  0  0  0  0  0  0  0  0
   10.1362  -13.3248   28.5936 C   0  0  0  0  0  0  0  0  0  0  0  0
    9.9631  -14.7515   29.0713 C   0  0  0  0  0  0  0  0  0  0  0  0
   10.3037  -15.5138   27.7454 C   0  0  1  0  0  0  0  0  0  0  0  0
   10.0763  -16.9200   27.9202 C   0  0  0  0  0  0  0  0  0  0  0  0
    8.7404  -17.3830   27.9656 O   0  0  0  0  0  0  0  0  0  0  0  0
   10.9370  -17.7806   28.0368 O   0  0  0  0  0  0  0  0  0  0  0  0
  2  1  1  0
  3  2  1  0
  4  3  1  0
  4  5  1  0
  5  1  1  0
  6  8  1  0
  5  6  1  1
  7  6  2  0
  9  8  1  0
  9 12  1  0
  9 10  1  1
 11 10  1  0
 12 13  2  0
 14 12  1  0
 14 15  1  0
 16 15  1  0
 17 16  1  0
 18 19  1  1
 18 17  1  0
 18 14  1  0
 19 20  1  0
 21 19  2  0
M  END
$$$$
