PCP.pdb
     RDKit          3D

 21 22  0  0  1  0  0  0  0  0999 V2000
    8.1033  -15.1390   18.9857 N   0  0  0  0  0  0  0  0  0  0  0  0
    7.7459  -14.2866   17.8774 C   0  0  0  0  0  0  0  0  0  0  0  0
    8.4961  -12.9823   18.1700 C   0  0  0  0  0  0  0  0  0  0  0  0
    8.2498  -12.8731   19.6809 C   0  0  0  0  0  0  0  0  0  0  0  0
    8.4211  -14.3036   20.1041 C   0  0  1  0  0  0  0  0  0  0  0  0
    7.5666  -14.6702   21.2629 C   0  0  0  0  0  0  0  0  0  0  0  0
    6.3950  -15.1220   21.0933 O   0  0  0  0  0  0  0  0  0  0  0  0
    8.0121  -14.5350   22.5931 N   0  0  0  0  0  0  0  0  0  0  0  0
    7.2111  -14.9227   23.7618 C   0  0  1  0  0  0  0  0  0  0  0  0
    7.1246  -16.4649   23.7317 C   0  0  0  0  0  0  0  0  0  0  0  0
    6.6536  -17.2020   25.2836 S   0  0  0  0  0  0  0  0  0  0  0  0
    8.0713  -14.6083   24.9630 C   0  0  0  0  0  0  0  0  0  0  0  0
    8.9969  -15.4423   25.1387 O   0  0  0  0  0  0  0  0  0  0  0  0
    7.8513  -13.5024   25.7804 N   0  0  0  0  0  0  0  0  0  0  0  0
    7.0707  -12.3042   25.3939 C   0  0  0  0  0  0  0  0  0  0  0  0
    6.2496  -12.0555   26.6216 C   0  0  0  0  0  0  0  0  0  0  0  0
    6.8350  -12.9271   27.7130 C   0  0  0  0  0  0  0  0  0  0  0  0
    8.2502  -13.1999   27.0983 C   0  0  1  0  0  0  0  0  0  0  0  0
    8.9642  -14.1374   27.9172 C   0  0  0  0  0  0  0  0  0  0  0  0
    8.5671  -15.4948   27.8852 O   0  0  0  0  0  0  0  0  0  0  0  0
    9.9025  -13.8798   28.6577 O   0  0  0  0  0  0  0  0  0  0  0  0
  2  1  1  0
  3  2  1  0
  4  3  1  0
  4  5  1  0
  5  1  1  0
  6  8  1  0
  5  6  1  1
  7  6  2  0
  9  8  1  0
  9 12  1  0
  9 10  1  6
 11 10  1  0
 12 13  2  0
 14 12  1  0
 14 15  1  0
 16 15  1  0
 17 16  1  0
 18 19  1  1
 18 17  1  0
 18 14  1  0
 19 20  1  0
 21 19  2  0
M  END
$$$$
