PCP.pdb
     RDKit          3D

 21 22  0  0  1  0  0  0  0  0999 V2000
    7.6536  -15.8710   21.3358 N   0  0  0  0  0  0  0  0  0  0  0  0
    6.7450  -15.5235   20.2698 C   0  0  0  0  0  0  0  0  0  0  0  0
    7.6258  -14.7461   19.2852 C   0  0  0  0  0  0  0  0  0  0  0  0
    8.4345  -13.8955   20.2741 C   0  0  0  0  0  0  0  0  0  0  0  0
    8.7014  -14.8956   21.3620 C   0  0  1  0  0  0  0  0  0  0  0  0
    8.7772  -14.2768   22.7106 C   0  0  0  0  0  0  0  0  0  0  0  0
    9.6353  -13.3815   22.9709 O   0  0  0  0  0  0  0  0  0  0  0  0
    7.9083  -14.6510   23.7550 N   0  0  0  0  0  0  0  0  0  0  0  0
    7.9246  -14.0318   25.0870 C   0  0  1  0  0  0  0  0  0  0  0  0
    6.4516  -13.9646   25.5483 C   0  0  0  0  0  0  0  0  0  0  0  0
    6.1944  -13.0284   27.0419 S   0  0  0  0  0  0  0  0  0  0  0  0
    8.5678  -15.0506   25.9980 C   0  0  0  0  0  0  0  0  0  0  0  0
    8.1562  -16.2223   25.7958 O   0  0  0  0  0  0  0  0  0  0  0  0
    9.5199  -14.7118   26.9562 N   0  0  0  0  0  0  0  0  0  0  0  0
   10.0312  -13.3426   27.1965 C   0  0  0  0  0  0  0  0  0  0  0  0
   10.0311  -13.2657   28.6923 C   0  0  0  0  0  0  0  0  0  0  0  0
    9.8178  -14.6785   29.1943 C   0  0  0  0  0  0  0  0  0  0  0  0
   10.2240  -15.4766   27.9085 C   0  0  1  0  0  0  0  0  0  0  0  0
    9.9736  -16.8759   28.1047 C   0  0  0  0  0  0  0  0  0  0  0  0
    8.6443  -17.3435   27.9799 O   0  0  0  0  0  0  0  0  0  0  0  0
   10.8089  -17.7270   28.3749 O   0  0  0  0  0  0  0  0  0  0  0  0
  2  1  1  0
  3  2  1  0
  4  3  1  0
  4  5  1  0
  5  1  1  0
  6  8  1  0
  5  6  1  1
  7  6  2  0
  9  8  1  0
  9 12  1  0
  9 10  1  1
 11 10  1  0
 12 13  2  0
 14 12  1  0
 14 15  1  0
 16 15  1  0
 17 16  1  0
 18 19  1  1
 18 17  1  0
 18 14  1  0
 19 20  1  0
 21 19  2  0
M  END
$$$$
