HIM.pdb
     RDKit          3D

 27 27  0  0  1  0  0  0  0  0999 V2000
    9.2634  -15.4253   20.5855 N   0  0  0  0  0  0  0  0  0  0  0  0
    8.5671  -15.9484   21.7304 C   0  0  1  0  0  0  0  0  0  0  0  0
    8.7459  -17.4534   21.7059 C   0  0  0  0  0  0  0  0  0  0  0  0
    7.9468  -17.9539   20.5582 C   0  0  0  0  0  0  0  0  0  0  0  0
    7.2929  -17.2424   19.5750 C   0  0  0  0  0  0  0  0  0  0  0  0
    6.6804  -18.0801   18.7173 N   0  0  0  0  0  0  0  0  0  0  0  0
    6.9454  -19.3310   19.1562 C   0  0  0  0  0  0  0  0  0  0  0  0
    7.7114  -19.2605   20.2700 N   0  0  0  0  0  0  0  0  0  0  0  0
    9.1212  -15.3726   23.0242 C   0  0  0  0  0  0  0  0  0  0  0  0
   10.3720  -15.3456   23.1828 O   0  0  0  0  0  0  0  0  0  0  0  0
    5.8344  -11.7087   25.7908 C   0  0  0  0  0  0  0  0  0  0  0  0
    7.0081  -12.4029   25.1006 C   0  0  0  0  0  0  0  0  0  0  0  0
    7.5418  -13.5240   25.9606 C   0  0  2  0  0  0  0  0  0  0  0  0
    7.9984  -12.9188   27.2671 C   0  0  0  0  0  0  0  0  0  0  0  0
    8.5150  -14.4294   25.3253 C   0  0  2  0  0  0  0  0  0  0  0  0
    8.2340  -14.8909   24.0002 N   0  0  0  0  0  0  0  0  0  0  0  0
    8.9656  -15.4849   26.2322 C   0  0  0  0  0  0  0  0  0  0  0  0
    8.1058  -16.3511   26.6130 O   0  0  0  0  0  0  0  0  0  0  0  0
   15.0920  -17.2388   25.8296 C   0  0  0  0  0  0  0  0  0  0  0  0
   13.6744  -18.0822   25.2031 S   0  0  0  0  0  0  0  0  0  0  0  0
   12.0716  -17.5193   25.7446 C   0  0  0  0  0  0  0  0  0  0  0  0
   11.9417  -17.3030   27.2186 C   0  0  0  0  0  0  0  0  0  0  0  0
   10.6174  -16.7404   27.5954 C   0  0  2  0  0  0  0  0  0  0  0  0
   10.2917  -15.5984   26.7058 N   0  0  0  0  0  0  0  0  0  0  0  0
   10.5993  -16.2234   28.9950 C   0  0  0  0  0  0  0  0  0  0  0  0
   10.4827  -14.9096   29.2894 O   0  0  0  0  0  0  0  0  0  0  0  0
   10.6988  -17.0609   29.9631 O   0  0  0  0  0  0  0  0  0  0  0  0
  2  1  1  6
  3  2  1  0
  4  8  1  0
  4  3  1  0
  5  4  2  0
  6  5  1  0
  6  7  1  0
  7  8  2  0
  9 10  2  0
  9  2  1  0
 12 11  1  0
 13 12  1  0
 13 14  1  1
 15 13  1  0
 15 16  1  6
 16  9  1  0
 17 15  1  0
 18 17  2  0
 20 21  1  0
 20 19  1  0
 22 21  1  0
 23 22  1  6
 23 24  1  0
 24 17  1  0
 25 26  1  0
 25 23  1  0
 27 25  2  0
M  END
$$$$
