HIM.pdb
     RDKit          3D

 27 27  0  0  1  0  0  0  0  0999 V2000
    7.6806  -17.4964   20.6086 N   0  0  0  0  0  0  0  0  0  0  0  0
    9.0354  -17.0504   20.4220 C   0  0  1  0  0  0  0  0  0  0  0  0
    9.0712  -16.2826   19.1156 C   0  0  0  0  0  0  0  0  0  0  0  0
    8.7066  -17.2495   18.0485 C   0  0  0  0  0  0  0  0  0  0  0  0
    7.7487  -18.2408   18.0606 C   0  0  0  0  0  0  0  0  0  0  0  0
    7.7396  -18.8998   16.8867 N   0  0  0  0  0  0  0  0  0  0  0  0
    8.6961  -18.3255   16.1233 C   0  0  0  0  0  0  0  0  0  0  0  0
    9.2845  -17.3262   16.8215 N   0  0  0  0  0  0  0  0  0  0  0  0
    9.4867  -16.1602   21.5693 C   0  0  0  0  0  0  0  0  0  0  0  0
   10.6365  -15.6452   21.5137 O   0  0  0  0  0  0  0  0  0  0  0  0
    6.7838  -12.6135   25.8695 C   0  0  0  0  0  0  0  0  0  0  0  0
    8.0411  -13.3655   25.4341 C   0  0  0  0  0  0  0  0  0  0  0  0
    7.7097  -14.3779   24.3634 C   0  0  2  0  0  0  0  0  0  0  0  0
    6.5396  -15.1964   24.8560 C   0  0  0  0  0  0  0  0  0  0  0  0
    8.8375  -15.1665   23.8372 C   0  0  2  0  0  0  0  0  0  0  0  0
    8.6197  -15.9371   22.6511 N   0  0  0  0  0  0  0  0  0  0  0  0
    9.5447  -15.8952   24.8901 C   0  0  0  0  0  0  0  0  0  0  0  0
    8.9625  -16.9088   25.4079 O   0  0  0  0  0  0  0  0  0  0  0  0
   10.1012  -12.5700   30.3552 C   0  0  0  0  0  0  0  0  0  0  0  0
   10.3955  -14.2339   29.8471 S   0  0  0  0  0  0  0  0  0  0  0  0
   10.4887  -14.5591   28.0965 C   0  0  0  0  0  0  0  0  0  0  0  0
   10.5091  -16.0067   27.7220 C   0  0  0  0  0  0  0  0  0  0  0  0
   11.3648  -16.2742   26.5352 C   0  0  2  0  0  0  0  0  0  0  0  0
   10.8287  -15.5419   25.3613 N   0  0  0  0  0  0  0  0  0  0  0  0
   11.3930  -17.7213   26.1721 C   0  0  0  0  0  0  0  0  0  0  0  0
   10.5060  -18.2803   25.3195 O   0  0  0  0  0  0  0  0  0  0  0  0
   12.2981  -18.4697   26.6910 O   0  0  0  0  0  0  0  0  0  0  0  0
  2  1  1  1
  3  2  1  0
  4  8  1  0
  4  3  1  0
  5  4  2  0
  6  5  1  0
  6  7  1  0
  7  8  2  0
  9 10  2  0
  9  2  1  0
 12 11  1  0
 13 12  1  0
 13 14  1  1
 15 13  1  0
 15 16  1  6
 16  9  1  0
 17 15  1  0
 18 17  2  0
 20 21  1  0
 20 19  1  0
 22 21  1  0
 23 22  1  1
 23 24  1  0
 24 17  1  0
 25 26  1  0
 25 23  1  0
 27 25  2  0
M  END
$$$$
