HIM.pdb
     RDKit          3D

 27 27  0  0  1  0  0  0  0  0999 V2000
    9.6460  -15.7750   20.1818 N   0  0  0  0  0  0  0  0  0  0  0  0
    8.5941  -15.9961   21.1377 C   0  0  1  0  0  0  0  0  0  0  0  0
    8.2683  -17.4759   21.1010 C   0  0  0  0  0  0  0  0  0  0  0  0
    7.6888  -17.7465   19.7603 C   0  0  0  0  0  0  0  0  0  0  0  0
    6.3656  -17.8460   19.3866 C   0  0  0  0  0  0  0  0  0  0  0  0
    6.2676  -18.1045   18.0690 N   0  0  0  0  0  0  0  0  0  0  0  0
    7.5344  -18.1700   17.6013 C   0  0  0  0  0  0  0  0  0  0  0  0
    8.3984  -17.9541   18.6206 N   0  0  0  0  0  0  0  0  0  0  0  0
    9.0247  -15.5857   22.5373 C   0  0  0  0  0  0  0  0  0  0  0  0
   10.1659  -15.9378   22.9423 O   0  0  0  0  0  0  0  0  0  0  0  0
    6.6633  -11.6927   26.9038 C   0  0  0  0  0  0  0  0  0  0  0  0
    7.6900  -12.7639   26.5373 C   0  0  0  0  0  0  0  0  0  0  0  0
    7.3744  -13.3613   25.1865 C   0  0  2  0  0  0  0  0  0  0  0  0
    5.9343  -13.8161   25.2141 C   0  0  0  0  0  0  0  0  0  0  0  0
    8.3283  -14.3604   24.6741 C   0  0  2  0  0  0  0  0  0  0  0  0
    8.1484  -14.8326   23.3352 N   0  0  0  0  0  0  0  0  0  0  0  0
    8.5913  -15.4248   25.6425 C   0  0  0  0  0  0  0  0  0  0  0  0
    7.7693  -16.4028   25.6915 O   0  0  0  0  0  0  0  0  0  0  0  0
   13.3981  -19.4098   25.0814 C   0  0  0  0  0  0  0  0  0  0  0  0
   13.2408  -19.2155   26.8281 S   0  0  0  0  0  0  0  0  0  0  0  0
   11.7478  -18.4602   27.4443 C   0  0  0  0  0  0  0  0  0  0  0  0
   11.2806  -17.2644   26.6775 C   0  0  0  0  0  0  0  0  0  0  0  0
   10.0204  -16.6953   27.2256 C   0  0  2  0  0  0  0  0  0  0  0  0
    9.6985  -15.4304   26.5197 N   0  0  0  0  0  0  0  0  0  0  0  0
   10.1306  -16.3699   28.6777 C   0  0  0  0  0  0  0  0  0  0  0  0
   10.2550  -17.3171   29.6335 O   0  0  0  0  0  0  0  0  0  0  0  0
   10.1063  -15.1375   29.0370 O   0  0  0  0  0  0  0  0  0  0  0  0
  2  1  1  6
  3  2  1  0
  4  8  1  0
  4  3  1  0
  5  4  2  0
  6  5  1  0
  6  7  1  0
  7  8  2  0
  9 10  2  0
  9  2  1  0
 12 11  1  0
 13 12  1  0
 13 14  1  1
 15 13  1  0
 15 16  1  6
 16  9  1  0
 17 15  1  0
 18 17  2  0
 20 21  1  0
 20 19  1  0
 22 21  1  0
 23 22  1  6
 23 24  1  0
 24 17  1  0
 25 26  1  0
 25 23  1  0
 27 25  2  0
M  END
$$$$
