HIM.pdb
     RDKit          3D

 27 27  0  0  1  0  0  0  0  0999 V2000
   10.3111  -18.4020   18.1214 N   0  0  0  0  0  0  0  0  0  0  0  0
    9.3891  -18.3352   19.2235 C   0  0  1  0  0  0  0  0  0  0  0  0
    9.5871  -19.5957   20.0416 C   0  0  0  0  0  0  0  0  0  0  0  0
    8.9926  -20.7064   19.2546 C   0  0  0  0  0  0  0  0  0  0  0  0
    9.5604  -21.4681   18.2556 C   0  0  0  0  0  0  0  0  0  0  0  0
    8.6774  -22.3749   17.7968 N   0  0  0  0  0  0  0  0  0  0  0  0
    7.5419  -22.1899   18.5069 C   0  0  0  0  0  0  0  0  0  0  0  0
    7.7272  -21.1814   19.3905 N   0  0  0  0  0  0  0  0  0  0  0  0
    9.6419  -17.1050   20.0811 C   0  0  0  0  0  0  0  0  0  0  0  0
   10.8296  -16.8334   20.4067 O   0  0  0  0  0  0  0  0  0  0  0  0
    7.2398  -12.4308   18.7591 C   0  0  0  0  0  0  0  0  0  0  0  0
    8.1883  -13.5190   19.2612 C   0  0  0  0  0  0  0  0  0  0  0  0
    7.8159  -13.9423   20.6624 C   0  0  2  0  0  0  0  0  0  0  0  0
    7.8122  -12.7038   21.5272 C   0  0  0  0  0  0  0  0  0  0  0  0
    8.5613  -15.0837   21.2208 C   0  0  2  0  0  0  0  0  0  0  0  0
    8.5564  -16.3110   20.4848 N   0  0  0  0  0  0  0  0  0  0  0  0
    8.3212  -15.2564   22.6534 C   0  0  0  0  0  0  0  0  0  0  0  0
    7.2853  -15.9160   23.0091 O   0  0  0  0  0  0  0  0  0  0  0  0
    6.0262  -11.9408   28.5258 C   0  0  0  0  0  0  0  0  0  0  0  0
    6.0383  -12.3469   26.8087 S   0  0  0  0  0  0  0  0  0  0  0  0
    6.6321  -13.9633   26.3461 C   0  0  0  0  0  0  0  0  0  0  0  0
    7.2635  -14.0419   24.9928 C   0  0  0  0  0  0  0  0  0  0  0  0
    8.6280  -14.6323   25.0365 C   0  0  2  0  0  0  0  0  0  0  0  0
    9.1678  -14.7378   23.6583 N   0  0  0  0  0  0  0  0  0  0  0  0
    8.6315  -16.0082   25.6139 C   0  0  0  0  0  0  0  0  0  0  0  0
    9.2131  -16.3049   26.7971 O   0  0  0  0  0  0  0  0  0  0  0  0
    8.0578  -16.9528   24.9602 O   0  0  0  0  0  0  0  0  0  0  0  0
  2  1  1  6
  3  2  1  0
  4  8  1  0
  4  3  1  0
  5  4  2  0
  6  5  1  0
  6  7  1  0
  7  8  2  0
  9 10  2  0
  9  2  1  0
 12 11  1  0
 13 12  1  0
 13 14  1  1
 15 13  1  0
 15 16  1  6
 16  9  1  0
 17 15  1  0
 18 17  2  0
 20 21  1  0
 20 19  1  0
 22 21  1  0
 23 22  1  6
 23 24  1  0
 24 17  1  0
 25 26  1  0
 25 23  1  0
 27 25  2  0
M  END
$$$$
