HIM.pdb
     RDKit          3D

 27 27  0  0  1  0  0  0  0  0999 V2000
   10.4566  -18.8629   18.7625 N   0  0  0  0  0  0  0  0  0  0  0  0
    9.5135  -18.6978   19.8360 C   0  0  1  0  0  0  0  0  0  0  0  0
    9.7036  -19.8722   20.7751 C   0  0  0  0  0  0  0  0  0  0  0  0
    9.1073  -21.0529   20.0992 C   0  0  0  0  0  0  0  0  0  0  0  0
    8.4450  -21.1241   18.8922 C   0  0  0  0  0  0  0  0  0  0  0  0
    8.0582  -22.3892   18.6424 N   0  0  0  0  0  0  0  0  0  0  0  0
    8.4760  -23.1272   19.6952 C   0  0  0  0  0  0  0  0  0  0  0  0
    9.1115  -22.3235   20.5798 N   0  0  0  0  0  0  0  0  0  0  0  0
    9.7425  -17.3889   20.5757 C   0  0  0  0  0  0  0  0  0  0  0  0
   10.9279  -17.0433   20.8323 O   0  0  0  0  0  0  0  0  0  0  0  0
    7.1128  -12.9592   18.9211 C   0  0  0  0  0  0  0  0  0  0  0  0
    8.0904  -13.9956   19.4743 C   0  0  0  0  0  0  0  0  0  0  0  0
    7.8137  -14.2591   20.9355 C   0  0  2  0  0  0  0  0  0  0  0  0
    7.8368  -12.9292   21.6513 C   0  0  0  0  0  0  0  0  0  0  0  0
    8.6159  -15.3179   21.5727 C   0  0  2  0  0  0  0  0  0  0  0  0
    8.6384  -16.6066   20.9508 N   0  0  0  0  0  0  0  0  0  0  0  0
    8.4196  -15.3676   23.0214 C   0  0  0  0  0  0  0  0  0  0  0  0
    7.3132  -15.8371   23.4574 O   0  0  0  0  0  0  0  0  0  0  0  0
    7.0899  -10.5204   27.2477 C   0  0  0  0  0  0  0  0  0  0  0  0
    6.2614  -12.0262   26.8479 S   0  0  0  0  0  0  0  0  0  0  0  0
    7.2485  -13.5063   26.7295 C   0  0  0  0  0  0  0  0  0  0  0  0
    7.7097  -13.8505   25.3493 C   0  0  0  0  0  0  0  0  0  0  0  0
    8.9358  -14.6926   25.3539 C   0  0  2  0  0  0  0  0  0  0  0  0
    9.3813  -14.9286   23.9584 N   0  0  0  0  0  0  0  0  0  0  0  0
    8.7010  -16.0311   25.9702 C   0  0  0  0  0  0  0  0  0  0  0  0
    9.1512  -16.3601   27.2012 O   0  0  0  0  0  0  0  0  0  0  0  0
    8.0433  -16.9099   25.3042 O   0  0  0  0  0  0  0  0  0  0  0  0
  2  1  1  6
  3  2  1  0
  4  8  1  0
  4  3  1  0
  5  4  2  0
  6  5  1  0
  6  7  1  0
  7  8  2  0
  9 10  2  0
  9  2  1  0
 12 11  1  0
 13 12  1  0
 13 14  1  1
 15 13  1  0
 15 16  1  6
 16  9  1  0
 17 15  1  0
 18 17  2  0
 20 21  1  0
 20 19  1  0
 22 21  1  0
 23 22  1  6
 23 24  1  0
 24 17  1  0
 25 26  1  0
 25 23  1  0
 27 25  2  0
M  END
$$$$
