LWY.pdb
     RDKit          3D

 35 37  0  0  1  0  0  0  0  0999 V2000
   27.5617  -23.0076  -17.6191 C   0  0  0  0  0  0  0  0  0  0  0  0
   27.7322  -21.8650  -16.6440 C   0  0  1  0  0  0  0  0  0  0  0  0
   27.4689  -20.5372  -17.3044 C   0  0  0  0  0  0  0  0  0  0  0  0
   26.8360  -22.0289  -15.4179 C   0  0  0  0  0  0  0  0  0  0  0  0
   27.1880  -20.8867  -14.4874 C   0  0  2  0  0  0  0  0  0  0  0  0
   28.6199  -20.6855  -14.5146 N   0  0  0  0  0  0  0  0  0  0  0  0
   26.6992  -21.1126  -13.1097 C   0  0  0  0  0  0  0  0  0  0  0  0
   25.5414  -21.5696  -12.9634 O   0  0  0  0  0  0  0  0  0  0  0  0
   27.4486  -20.8479  -11.9385 N   0  0  0  0  0  0  0  0  0  0  0  0
   26.9240  -20.9167  -10.6261 C   0  0  1  0  0  0  0  0  0  0  0  0
   27.8428  -20.6619   -9.4898 C   0  0  0  0  0  0  0  0  0  0  0  0
   27.2065  -20.7349   -8.1432 C   0  0  0  0  0  0  0  0  0  0  0  0
   25.9890  -21.3201   -7.8347 C   0  0  0  0  0  0  0  0  0  0  0  0
   25.7837  -21.1903   -6.5213 N   0  0  0  0  0  0  0  0  0  0  0  0
   26.8210  -20.5387   -5.9422 C   0  0  0  0  0  0  0  0  0  0  0  0
   27.0365  -20.1832   -4.6271 C   0  0  0  0  0  0  0  0  0  0  0  0
   28.1998  -19.5113   -4.3255 C   0  0  0  0  0  0  0  0  0  0  0  0
   29.1280  -19.1988   -5.3070 C   0  0  0  0  0  0  0  0  0  0  0  0
   28.8702  -19.5735   -6.6049 C   0  0  0  0  0  0  0  0  0  0  0  0
   27.7041  -20.2562   -6.9521 C   0  0  0  0  0  0  0  0  0  0  0  0
   25.7225  -20.0504  -10.4329 C   0  0  0  0  0  0  0  0  0  0  0  0
   25.8144  -18.7989  -10.4823 O   0  0  0  0  0  0  0  0  0  0  0  0
   18.6833  -18.6955  -14.8864 O   0  0  0  0  0  0  0  0  0  0  0  0
   19.8804  -19.0072  -14.2362 C   0  0  0  0  0  0  0  0  0  0  0  0
   20.0568  -20.3227  -13.8488 C   0  0  0  0  0  0  0  0  0  0  0  0
   21.2172  -20.6880  -13.2043 C   0  0  0  0  0  0  0  0  0  0  0  0
   22.1998  -19.7486  -12.9454 C   0  0  0  0  0  0  0  0  0  0  0  0
   23.4086  -20.2083  -12.2496 C   0  0  0  0  0  0  0  0  0  0  0  0
   23.2635  -20.1297  -10.7388 C   0  0  2  0  0  0  0  0  0  0  0  0
   24.4837  -20.6807  -10.1939 N   0  0  0  0  0  0  0  0  0  0  0  0
   22.0900  -20.9047  -10.2440 C   0  0  0  0  0  0  0  0  0  0  0  0
   22.1874  -22.1454  -10.0632 O   0  0  0  0  0  0  0  0  0  0  0  0
   22.0214  -18.4506  -13.3295 C   0  0  0  0  0  0  0  0  0  0  0  0
   20.8634  -18.0948  -13.9708 C   0  0  0  0  0  0  0  0  0  0  0  0
   20.8795  -20.3168   -9.9684 O   0  0  0  0  0  0  0  0  0  0  0  0
  2  3  1  6
  2  4  1  0
  2  1  1  0
  4  5  1  0
  5  6  1  1
  7  5  1  0
  8  7  2  0
  9  7  1  0
 10 21  1  0
 10  9  1  0
 10 11  1  1
 12 11  1  0
 13 12  2  0
 14 13  1  0
 15 14  1  0
 15 20  2  0
 16 17  2  0
 16 15  1  0
 17 18  1  0
 18 19  2  0
 20 19  1  0
 20 12  1  0
 21 30  1  0
 22 21  2  0
 23 24  1  0
 24 25  2  0
 25 26  1  0
 27 26  2  0
 27 28  1  0
 29 28  1  6
 29 31  1  0
 30 29  1  0
 31 32  2  0
 31 35  1  0
 33 27  1  0
 34 24  1  0
 34 33  2  0
M  END
$$$$
