LWY.pdb
     RDKit          3D

 35 37  0  0  1  0  0  0  0  0999 V2000
   29.2120  -22.9866  -18.2588 C   0  0  0  0  0  0  0  0  0  0  0  0
   29.2651  -22.1131  -17.0261 C   0  0  1  0  0  0  0  0  0  0  0  0
   29.3839  -20.6567  -17.3912 C   0  0  0  0  0  0  0  0  0  0  0  0
   28.0510  -22.3315  -16.1251 C   0  0  0  0  0  0  0  0  0  0  0  0
   28.2470  -21.4198  -14.9315 C   0  0  2  0  0  0  0  0  0  0  0  0
   29.5636  -21.6496  -14.3787 N   0  0  0  0  0  0  0  0  0  0  0  0
   27.1925  -21.5967  -13.9095 C   0  0  0  0  0  0  0  0  0  0  0  0
   26.3869  -22.5461  -14.0530 O   0  0  0  0  0  0  0  0  0  0  0  0
   27.0262  -20.7663  -12.7754 N   0  0  0  0  0  0  0  0  0  0  0  0
   25.9943  -20.9222  -11.8198 C   0  0  1  0  0  0  0  0  0  0  0  0
   26.1587  -20.2697  -10.4979 C   0  0  0  0  0  0  0  0  0  0  0  0
   27.4182  -20.6197   -9.7805 C   0  0  0  0  0  0  0  0  0  0  0  0
   28.4574  -21.3972  -10.2658 C   0  0  0  0  0  0  0  0  0  0  0  0
   29.4060  -21.4598   -9.3276 N   0  0  0  0  0  0  0  0  0  0  0  0
   29.0366  -20.7518   -8.2330 C   0  0  0  0  0  0  0  0  0  0  0  0
   29.6903  -20.5414   -7.0369 C   0  0  0  0  0  0  0  0  0  0  0  0
   29.0604  -19.7681   -6.0876 C   0  0  0  0  0  0  0  0  0  0  0  0
   27.8097  -19.2166   -6.3202 C   0  0  0  0  0  0  0  0  0  0  0  0
   27.1960  -19.4536   -7.5279 C   0  0  0  0  0  0  0  0  0  0  0  0
   27.8006  -20.2307   -8.5164 C   0  0  0  0  0  0  0  0  0  0  0  0
   24.6504  -20.5359  -12.3454 C   0  0  0  0  0  0  0  0  0  0  0  0
   24.4947  -19.4780  -13.0040 O   0  0  0  0  0  0  0  0  0  0  0  0
   16.4528  -21.6658  -15.0096 O   0  0  0  0  0  0  0  0  0  0  0  0
   17.6863  -21.8969  -14.3947 C   0  0  0  0  0  0  0  0  0  0  0  0
   18.7718  -21.1980  -14.8897 C   0  0  0  0  0  0  0  0  0  0  0  0
   20.0122  -21.3854  -14.3227 C   0  0  0  0  0  0  0  0  0  0  0  0
   20.1737  -22.2650  -13.2667 C   0  0  0  0  0  0  0  0  0  0  0  0
   21.5262  -22.4186  -12.7152 C   0  0  0  0  0  0  0  0  0  0  0  0
   22.2448  -21.0860  -12.5837 C   0  0  2  0  0  0  0  0  0  0  0  0
   23.5639  -21.3947  -12.0796 N   0  0  0  0  0  0  0  0  0  0  0  0
   21.5467  -20.1589  -11.6478 C   0  0  0  0  0  0  0  0  0  0  0  0
   21.6855  -20.2980  -10.4057 O   0  0  0  0  0  0  0  0  0  0  0  0
   19.0992  -22.9532  -12.7812 C   0  0  0  0  0  0  0  0  0  0  0  0
   17.8675  -22.7611  -13.3509 C   0  0  0  0  0  0  0  0  0  0  0  0
   20.7413  -19.1359  -12.0853 O   0  0  0  0  0  0  0  0  0  0  0  0
  2  3  1  6
  2  4  1  0
  2  1  1  0
  4  5  1  0
  5  6  1  1
  7  5  1  0
  8  7  2  0
  9  7  1  0
 10 21  1  0
 10  9  1  0
 10 11  1  1
 12 11  1  0
 13 12  2  0
 14 13  1  0
 15 14  1  0
 15 20  2  0
 16 17  2  0
 16 15  1  0
 17 18  1  0
 18 19  2  0
 20 19  1  0
 20 12  1  0
 21 30  1  0
 22 21  2  0
 23 24  1  0
 24 25  2  0
 25 26  1  0
 27 26  2  0
 27 28  1  0
 29 28  1  1
 29 31  1  0
 30 29  1  0
 31 32  2  0
 31 35  1  0
 33 27  1  0
 34 24  1  0
 34 33  2  0
M  END
$$$$
