LWY.pdb
     RDKit          3D

 35 37  0  0  1  0  0  0  0  0999 V2000
   27.9700  -21.4755  -17.5822 C   0  0  0  0  0  0  0  0  0  0  0  0
   27.6809  -20.5034  -16.4611 C   0  0  1  0  0  0  0  0  0  0  0  0
   26.7313  -19.4219  -16.9049 C   0  0  0  0  0  0  0  0  0  0  0  0
   27.1294  -21.2124  -15.2255 C   0  0  0  0  0  0  0  0  0  0  0  0
   26.9663  -20.1412  -14.1671 C   0  0  2  0  0  0  0  0  0  0  0  0
   28.1686  -19.3386  -14.1247 N   0  0  0  0  0  0  0  0  0  0  0  0
   26.6462  -20.7073  -12.8385 C   0  0  0  0  0  0  0  0  0  0  0  0
   25.6498  -21.4618  -12.7447 O   0  0  0  0  0  0  0  0  0  0  0  0
   27.3876  -20.4565  -11.6593 N   0  0  0  0  0  0  0  0  0  0  0  0
   26.9206  -20.7325  -10.3524 C   0  0  1  0  0  0  0  0  0  0  0  0
   27.8740  -20.5970   -9.2241 C   0  0  0  0  0  0  0  0  0  0  0  0
   27.2689  -20.7623   -7.8713 C   0  0  0  0  0  0  0  0  0  0  0  0
   26.1094  -21.4556   -7.5634 C   0  0  0  0  0  0  0  0  0  0  0  0
   25.9163  -21.3820   -6.2438 N   0  0  0  0  0  0  0  0  0  0  0  0
   26.9059  -20.6638   -5.6600 C   0  0  0  0  0  0  0  0  0  0  0  0
   27.1137  -20.3306   -4.3378 C   0  0  0  0  0  0  0  0  0  0  0  0
   28.2224  -19.5735   -4.0325 C   0  0  0  0  0  0  0  0  0  0  0  0
   29.1048  -19.1562   -5.0173 C   0  0  0  0  0  0  0  0  0  0  0  0
   28.8568  -19.5125   -6.3222 C   0  0  0  0  0  0  0  0  0  0  0  0
   27.7453  -20.2793   -6.6734 C   0  0  0  0  0  0  0  0  0  0  0  0
   25.6936  -19.9583   -9.9967 C   0  0  0  0  0  0  0  0  0  0  0  0
   25.7145  -18.7038   -9.9441 O   0  0  0  0  0  0  0  0  0  0  0  0
   19.0131  -18.7542  -14.8186 O   0  0  0  0  0  0  0  0  0  0  0  0
   20.0801  -19.2360  -14.0555 C   0  0  0  0  0  0  0  0  0  0  0  0
   21.2250  -18.4616  -14.0233 C   0  0  0  0  0  0  0  0  0  0  0  0
   22.3082  -18.8864  -13.2874 C   0  0  0  0  0  0  0  0  0  0  0  0
   22.2540  -20.0778  -12.5855 C   0  0  0  0  0  0  0  0  0  0  0  0
   23.4484  -20.4709  -11.8269 C   0  0  0  0  0  0  0  0  0  0  0  0
   23.2595  -20.2914  -10.3296 C   0  0  2  0  0  0  0  0  0  0  0  0
   24.5127  -20.6789   -9.7224 N   0  0  0  0  0  0  0  0  0  0  0  0
   22.1529  -21.1358   -9.7957 C   0  0  0  0  0  0  0  0  0  0  0  0
   21.1544  -20.5949   -9.2555 O   0  0  0  0  0  0  0  0  0  0  0  0
   21.1215  -20.8395  -12.6203 C   0  0  0  0  0  0  0  0  0  0  0  0
   20.0472  -20.4097  -13.3551 C   0  0  0  0  0  0  0  0  0  0  0  0
   22.1700  -22.5075   -9.8670 O   0  0  0  0  0  0  0  0  0  0  0  0
  2  3  1  6
  2  4  1  0
  2  1  1  0
  4  5  1  0
  5  6  1  1
  7  5  1  0
  8  7  2  0
  9  7  1  0
 10 21  1  0
 10  9  1  0
 10 11  1  1
 12 11  1  0
 13 12  2  0
 14 13  1  0
 15 14  1  0
 15 20  2  0
 16 17  2  0
 16 15  1  0
 17 18  1  0
 18 19  2  0
 20 19  1  0
 20 12  1  0
 21 30  1  0
 22 21  2  0
 23 24  1  0
 24 25  2  0
 25 26  1  0
 27 26  2  0
 27 28  1  0
 29 28  1  6
 29 31  1  0
 30 29  1  0
 31 32  2  0
 31 35  1  0
 33 27  1  0
 34 24  1  0
 34 33  2  0
M  END
$$$$
