LWY.pdb
     RDKit          3D

 35 37  0  0  1  0  0  0  0  0999 V2000
   15.5214  -32.9321   -7.2899 C   0  0  0  0  0  0  0  0  0  0  0  0
   15.8081  -31.5747   -7.8904 C   0  0  1  0  0  0  0  0  0  0  0  0
   14.5981  -30.6801   -7.8254 C   0  0  0  0  0  0  0  0  0  0  0  0
   16.9993  -30.8974   -7.2152 C   0  0  0  0  0  0  0  0  0  0  0  0
   17.1248  -29.5327   -7.8603 C   0  0  2  0  0  0  0  0  0  0  0  0
   17.8554  -29.6674   -9.1012 N   0  0  0  0  0  0  0  0  0  0  0  0
   17.7597  -28.5427   -6.9631 C   0  0  0  0  0  0  0  0  0  0  0  0
   19.0011  -28.6053   -6.8021 O   0  0  0  0  0  0  0  0  0  0  0  0
   17.0625  -27.5251   -6.2692 N   0  0  0  0  0  0  0  0  0  0  0  0
   17.6770  -26.5847   -5.4087 C   0  0  1  0  0  0  0  0  0  0  0  0
   17.3366  -25.1511   -5.5796 C   0  0  0  0  0  0  0  0  0  0  0  0
   17.6382  -24.5938   -6.9294 C   0  0  0  0  0  0  0  0  0  0  0  0
   18.8312  -24.7103   -7.6244 C   0  0  0  0  0  0  0  0  0  0  0  0
   18.6931  -24.0895   -8.7989 N   0  0  0  0  0  0  0  0  0  0  0  0
   17.4501  -23.5624   -8.9124 C   0  0  0  0  0  0  0  0  0  0  0  0
   16.8697  -22.8430   -9.9361 C   0  0  0  0  0  0  0  0  0  0  0  0
   15.5685  -22.4246   -9.7702 C   0  0  0  0  0  0  0  0  0  0  0  0
   14.8594  -22.7134   -8.6142 C   0  0  0  0  0  0  0  0  0  0  0  0
   15.4794  -23.4336   -7.6201 C   0  0  0  0  0  0  0  0  0  0  0  0
   16.7961  -23.8767   -7.7492 C   0  0  0  0  0  0  0  0  0  0  0  0
   17.5018  -26.9169   -3.9628 C   0  0  0  0  0  0  0  0  0  0  0  0
   16.4261  -27.4071   -3.5389 O   0  0  0  0  0  0  0  0  0  0  0  0
   19.9345  -27.5360    4.4711 O   0  0  0  0  0  0  0  0  0  0  0  0
   19.9116  -27.3062    3.0928 C   0  0  0  0  0  0  0  0  0  0  0  0
   19.9464  -28.4191    2.2731 C   0  0  0  0  0  0  0  0  0  0  0  0
   19.9259  -28.2533    0.9066 C   0  0  0  0  0  0  0  0  0  0  0  0
   19.8712  -26.9850    0.3559 C   0  0  0  0  0  0  0  0  0  0  0  0
   19.8577  -26.8836   -1.1091 C   0  0  0  0  0  0  0  0  0  0  0  0
   18.4454  -26.8986   -1.6703 C   0  0  2  0  0  0  0  0  0  0  0  0
   18.5802  -26.6634   -3.0901 N   0  0  0  0  0  0  0  0  0  0  0  0
   17.5848  -25.8454   -1.0596 C   0  0  0  0  0  0  0  0  0  0  0  0
   16.9382  -26.0931   -0.0099 O   0  0  0  0  0  0  0  0  0  0  0  0
   19.8372  -25.8887    1.1690 C   0  0  0  0  0  0  0  0  0  0  0  0
   19.8578  -26.0620    2.5285 C   0  0  0  0  0  0  0  0  0  0  0  0
   17.4610  -24.5882   -1.5990 O   0  0  0  0  0  0  0  0  0  0  0  0
  2  3  1  1
  2  4  1  0
  2  1  1  0
  4  5  1  0
  5  6  1  6
  7  5  1  0
  8  7  2  0
  9  7  1  0
 10 21  1  0
 10  9  1  0
 10 11  1  1
 12 11  1  0
 13 12  2  0
 14 13  1  0
 15 14  1  0
 15 20  2  0
 16 17  2  0
 16 15  1  0
 17 18  1  0
 18 19  2  0
 20 19  1  0
 20 12  1  0
 21 30  1  0
 22 21  2  0
 23 24  1  0
 24 25  2  0
 25 26  1  0
 27 26  2  0
 27 28  1  0
 29 28  1  1
 29 31  1  0
 30 29  1  0
 31 32  2  0
 31 35  1  0
 33 27  1  0
 34 24  1  0
 34 33  2  0
M  END
$$$$
