LWY.pdb
     RDKit          3D

 35 37  0  0  1  0  0  0  0  0999 V2000
   27.1745  -22.3646  -20.7278 C   0  0  0  0  0  0  0  0  0  0  0  0
   27.9705  -22.3171  -19.4434 C   0  0  1  0  0  0  0  0  0  0  0  0
   28.5880  -20.9599  -19.2314 C   0  0  0  0  0  0  0  0  0  0  0  0
   27.1185  -22.7014  -18.2352 C   0  0  0  0  0  0  0  0  0  0  0  0
   28.0544  -22.6929  -17.0442 C   0  0  2  0  0  0  0  0  0  0  0  0
   28.8501  -23.9004  -17.0662 N   0  0  0  0  0  0  0  0  0  0  0  0
   27.3319  -22.5440  -15.7622 C   0  0  0  0  0  0  0  0  0  0  0  0
   26.7566  -23.5525  -15.2901 O   0  0  0  0  0  0  0  0  0  0  0  0
   27.2424  -21.3382  -15.0265 N   0  0  0  0  0  0  0  0  0  0  0  0
   26.5588  -21.2070  -13.7945 C   0  0  1  0  0  0  0  0  0  0  0  0
   27.0118  -20.1569  -12.8498 C   0  0  0  0  0  0  0  0  0  0  0  0
   27.8666  -20.6489  -11.7315 C   0  0  0  0  0  0  0  0  0  0  0  0
   29.1461  -21.1703  -11.8364 C   0  0  0  0  0  0  0  0  0  0  0  0
   29.5736  -21.4790  -10.6092 N   0  0  0  0  0  0  0  0  0  0  0  0
   28.6245  -21.1824   -9.6888 C   0  0  0  0  0  0  0  0  0  0  0  0
   28.6252  -21.3322   -8.3177 C   0  0  0  0  0  0  0  0  0  0  0  0
   27.4994  -20.9416   -7.6280 C   0  0  0  0  0  0  0  0  0  0  0  0
   26.3977  -20.4145   -8.2843 C   0  0  0  0  0  0  0  0  0  0  0  0
   26.4424  -20.2838   -9.6526 C   0  0  0  0  0  0  0  0  0  0  0  0
   27.5642  -20.6669  -10.3885 C   0  0  0  0  0  0  0  0  0  0  0  0
   25.0824  -21.0520  -13.9612 C   0  0  0  0  0  0  0  0  0  0  0  0
   24.6068  -20.3823  -14.9112 O   0  0  0  0  0  0  0  0  0  0  0  0
   16.6351  -22.8463  -12.3567 O   0  0  0  0  0  0  0  0  0  0  0  0
   18.0197  -22.7036  -12.2322 C   0  0  0  0  0  0  0  0  0  0  0  0
   18.8056  -23.5051  -13.0394 C   0  0  0  0  0  0  0  0  0  0  0  0
   20.1765  -23.4075  -12.9600 C   0  0  0  0  0  0  0  0  0  0  0  0
   20.7651  -22.5158  -12.0806 C   0  0  0  0  0  0  0  0  0  0  0  0
   22.2325  -22.4693  -12.0455 C   0  0  0  0  0  0  0  0  0  0  0  0
   22.8035  -21.5964  -13.1508 C   0  0  2  0  0  0  0  0  0  0  0  0
   24.2406  -21.6804  -13.0202 N   0  0  0  0  0  0  0  0  0  0  0  0
   22.3639  -20.1768  -13.0319 C   0  0  0  0  0  0  0  0  0  0  0  0
   21.4169  -19.7508  -13.7413 O   0  0  0  0  0  0  0  0  0  0  0  0
   19.9853  -21.7264  -11.2851 C   0  0  0  0  0  0  0  0  0  0  0  0
   18.6212  -21.8293  -11.3702 C   0  0  0  0  0  0  0  0  0  0  0  0
   22.9555  -19.2905  -12.1652 O   0  0  0  0  0  0  0  0  0  0  0  0
  2  3  1  1
  2  4  1  0
  2  1  1  0
  4  5  1  0
  5  6  1  1
  7  5  1  0
  8  7  2  0
  9  7  1  0
 10 21  1  0
 10  9  1  0
 10 11  1  6
 12 11  1  0
 13 12  2  0
 14 13  1  0
 15 14  1  0
 15 20  2  0
 16 17  2  0
 16 15  1  0
 17 18  1  0
 18 19  2  0
 20 19  1  0
 20 12  1  0
 21 30  1  0
 22 21  2  0
 23 24  1  0
 24 25  2  0
 25 26  1  0
 27 26  2  0
 27 28  1  0
 29 28  1  1
 29 31  1  0
 30 29  1  0
 31 32  2  0
 31 35  1  0
 33 27  1  0
 34 24  1  0
 34 33  2  0
M  END
$$$$
