LWY.pdb
     RDKit          3D

 35 37  0  0  1  0  0  0  0  0999 V2000
   28.9978  -15.6741  -18.9100 C   0  0  0  0  0  0  0  0  0  0  0  0
   28.3215  -16.9990  -18.6406 C   0  0  1  0  0  0  0  0  0  0  0  0
   29.3303  -18.0840  -18.3694 C   0  0  0  0  0  0  0  0  0  0  0  0
   27.3293  -16.9028  -17.4831 C   0  0  0  0  0  0  0  0  0  0  0  0
   26.7107  -18.2787  -17.3475 C   0  0  2  0  0  0  0  0  0  0  0  0
   26.7192  -18.9249  -18.6413 N   0  0  0  0  0  0  0  0  0  0  0  0
   25.3472  -18.2286  -16.7764 C   0  0  0  0  0  0  0  0  0  0  0  0
   25.2014  -17.7080  -15.6456 O   0  0  0  0  0  0  0  0  0  0  0  0
   24.1892  -18.7294  -17.4179 N   0  0  0  0  0  0  0  0  0  0  0  0
   22.8794  -18.6198  -16.8940 C   0  0  1  0  0  0  0  0  0  0  0  0
   21.7369  -18.7338  -17.8332 C   0  0  0  0  0  0  0  0  0  0  0  0
   20.4239  -18.2993  -17.2758 C   0  0  0  0  0  0  0  0  0  0  0  0
   20.1853  -17.1741  -16.5031 C   0  0  0  0  0  0  0  0  0  0  0  0
   18.8809  -17.1311  -16.2189 N   0  0  0  0  0  0  0  0  0  0  0  0
   18.2404  -18.1881  -16.7743 C   0  0  0  0  0  0  0  0  0  0  0  0
   16.9099  -18.5499  -16.7422 C   0  0  0  0  0  0  0  0  0  0  0  0
   16.5400  -19.6984  -17.4054 C   0  0  0  0  0  0  0  0  0  0  0  0
   17.4698  -20.4706  -18.0847 C   0  0  0  0  0  0  0  0  0  0  0  0
   18.7856  -20.0706  -18.0893 C   0  0  0  0  0  0  0  0  0  0  0  0
   19.2013  -18.9131  -17.4305 C   0  0  0  0  0  0  0  0  0  0  0  0
   22.6239  -19.5612  -15.7626 C   0  0  0  0  0  0  0  0  0  0  0  0
   23.0263  -20.7499  -15.8085 O   0  0  0  0  0  0  0  0  0  0  0  0
   20.5022  -21.9296   -7.6031 O   0  0  0  0  0  0  0  0  0  0  0  0
   20.8771  -21.2396   -8.7590 C   0  0  0  0  0  0  0  0  0  0  0  0
   19.8807  -20.5528   -9.4276 C   0  0  0  0  0  0  0  0  0  0  0  0
   20.1918  -19.8547  -10.5726 C   0  0  0  0  0  0  0  0  0  0  0  0
   21.4897  -19.8391  -11.0522 C   0  0  0  0  0  0  0  0  0  0  0  0
   21.7475  -19.0782  -12.2816 C   0  0  0  0  0  0  0  0  0  0  0  0
   21.6262  -19.9432  -13.5253 C   0  0  2  0  0  0  0  0  0  0  0  0
   21.9182  -19.0741  -14.6429 N   0  0  0  0  0  0  0  0  0  0  0  0
   20.2620  -20.5253  -13.6765 C   0  0  0  0  0  0  0  0  0  0  0  0
   19.3298  -19.8266  -14.1501 O   0  0  0  0  0  0  0  0  0  0  0  0
   22.4706  -20.5188  -10.3890 C   0  0  0  0  0  0  0  0  0  0  0  0
   22.1529  -21.2114   -9.2497 C   0  0  0  0  0  0  0  0  0  0  0  0
   19.9662  -21.8173  -13.3162 O   0  0  0  0  0  0  0  0  0  0  0  0
  2  3  1  1
  2  4  1  0
  2  1  1  0
  4  5  1  0
  5  6  1  6
  7  5  1  0
  8  7  2  0
  9  7  1  0
 10 21  1  0
 10  9  1  0
 10 11  1  6
 12 11  1  0
 13 12  2  0
 14 13  1  0
 15 14  1  0
 15 20  2  0
 16 17  2  0
 16 15  1  0
 17 18  1  0
 18 19  2  0
 20 19  1  0
 20 12  1  0
 21 30  1  0
 22 21  2  0
 23 24  1  0
 24 25  2  0
 25 26  1  0
 27 26  2  0
 27 28  1  0
 29 28  1  1
 29 31  1  0
 30 29  1  0
 31 32  2  0
 31 35  1  0
 33 27  1  0
 34 24  1  0
 34 33  2  0
M  END
$$$$
