LWY.pdb
     RDKit          3D

 35 37  0  0  1  0  0  0  0  0999 V2000
   29.8841  -26.1302  -17.0052 C   0  0  0  0  0  0  0  0  0  0  0  0
   28.6203  -25.3602  -17.3142 C   0  0  1  0  0  0  0  0  0  0  0  0
   27.5506  -26.2632  -17.8697 C   0  0  0  0  0  0  0  0  0  0  0  0
   28.0958  -24.6175  -16.0867 C   0  0  0  0  0  0  0  0  0  0  0  0
   26.8210  -23.9289  -16.5282 C   0  0  2  0  0  0  0  0  0  0  0  0
   27.1283  -23.0304  -17.6190 N   0  0  0  0  0  0  0  0  0  0  0  0
   26.1502  -23.2207  -15.4162 C   0  0  0  0  0  0  0  0  0  0  0  0
   25.8940  -23.8693  -14.3748 O   0  0  0  0  0  0  0  0  0  0  0  0
   25.7742  -21.8565  -15.4439 N   0  0  0  0  0  0  0  0  0  0  0  0
   25.2399  -21.1561  -14.3366 C   0  0  1  0  0  0  0  0  0  0  0  0
   25.8432  -19.8498  -13.9760 C   0  0  0  0  0  0  0  0  0  0  0  0
   27.1986  -19.9362  -13.3604 C   0  0  0  0  0  0  0  0  0  0  0  0
   28.4007  -19.5889  -13.9556 C   0  0  0  0  0  0  0  0  0  0  0  0
   29.3802  -19.7965  -13.0717 N   0  0  0  0  0  0  0  0  0  0  0  0
   28.8745  -20.2706  -11.9074 C   0  0  0  0  0  0  0  0  0  0  0  0
   29.5046  -20.6247  -10.7328 C   0  0  0  0  0  0  0  0  0  0  0  0
   28.7226  -21.0871   -9.6982 C   0  0  0  0  0  0  0  0  0  0  0  0
   27.3463  -21.1958   -9.8266 C   0  0  0  0  0  0  0  0  0  0  0  0
   26.7619  -20.8309  -11.0169 C   0  0  0  0  0  0  0  0  0  0  0  0
   27.5183  -20.3569  -12.0891 C   0  0  0  0  0  0  0  0  0  0  0  0
   23.7626  -20.9554  -14.4321 C   0  0  0  0  0  0  0  0  0  0  0  0
   23.1978  -20.8392  -15.5478 O   0  0  0  0  0  0  0  0  0  0  0  0
   15.5320  -20.8169  -11.3692 O   0  0  0  0  0  0  0  0  0  0  0  0
   16.9233  -20.7364  -11.4728 C   0  0  0  0  0  0  0  0  0  0  0  0
   17.6049  -21.9231  -11.6696 C   0  0  0  0  0  0  0  0  0  0  0  0
   18.9771  -21.9046  -11.7792 C   0  0  0  0  0  0  0  0  0  0  0  0
   19.6702  -20.7100  -11.6933 C   0  0  0  0  0  0  0  0  0  0  0  0
   21.1328  -20.7665  -11.8137 C   0  0  0  0  0  0  0  0  0  0  0  0
   21.5895  -20.7194  -13.2624 C   0  0  2  0  0  0  0  0  0  0  0  0
   23.0232  -20.9008  -13.2325 N   0  0  0  0  0  0  0  0  0  0  0  0
   21.2544  -19.4228  -13.9174 C   0  0  0  0  0  0  0  0  0  0  0  0
   21.9202  -18.3911  -13.6457 O   0  0  0  0  0  0  0  0  0  0  0  0
   18.9933  -19.5405  -11.4986 C   0  0  0  0  0  0  0  0  0  0  0  0
   17.6271  -19.5672  -11.3906 C   0  0  0  0  0  0  0  0  0  0  0  0
   20.2309  -19.2963  -14.8247 O   0  0  0  0  0  0  0  0  0  0  0  0
  2  3  1  1
  2  4  1  0
  2  1  1  0
  4  5  1  0
  5  6  1  6
  7  5  1  0
  8  7  2  0
  9  7  1  0
 10 21  1  0
 10  9  1  0
 10 11  1  6
 12 11  1  0
 13 12  2  0
 14 13  1  0
 15 14  1  0
 15 20  2  0
 16 17  2  0
 16 15  1  0
 17 18  1  0
 18 19  2  0
 20 19  1  0
 20 12  1  0
 21 30  1  0
 22 21  2  0
 23 24  1  0
 24 25  2  0
 25 26  1  0
 27 26  2  0
 27 28  1  0
 29 28  1  1
 29 31  1  0
 30 29  1  0
 31 32  2  0
 31 35  1  0
 33 27  1  0
 34 24  1  0
 34 33  2  0
M  END
$$$$
