LWY.pdb
     RDKit          3D

 35 37  0  0  1  0  0  0  0  0999 V2000
   29.6481  -23.7398  -17.1692 C   0  0  0  0  0  0  0  0  0  0  0  0
   29.2741  -22.4215  -16.5307 C   0  0  1  0  0  0  0  0  0  0  0  0
   29.1304  -21.3340  -17.5627 C   0  0  0  0  0  0  0  0  0  0  0  0
   27.9935  -22.5354  -15.7056 C   0  0  0  0  0  0  0  0  0  0  0  0
   27.8956  -21.2522  -14.9068 C   0  0  2  0  0  0  0  0  0  0  0  0
   29.2168  -20.6778  -14.7806 N   0  0  0  0  0  0  0  0  0  0  0  0
   27.2670  -21.4598  -13.5840 C   0  0  0  0  0  0  0  0  0  0  0  0
   26.1058  -21.9304  -13.5515 O   0  0  0  0  0  0  0  0  0  0  0  0
   27.8853  -21.1631  -12.3459 N   0  0  0  0  0  0  0  0  0  0  0  0
   27.2265  -21.2169  -11.0948 C   0  0  1  0  0  0  0  0  0  0  0  0
   28.0283  -20.9795   -9.8696 C   0  0  0  0  0  0  0  0  0  0  0  0
   27.2271  -20.7491   -8.6333 C   0  0  0  0  0  0  0  0  0  0  0  0
   25.8493  -20.8335   -8.5133 C   0  0  0  0  0  0  0  0  0  0  0  0
   25.5235  -20.5735   -7.2443 N   0  0  0  0  0  0  0  0  0  0  0  0
   26.6352  -20.3180   -6.5131 C   0  0  0  0  0  0  0  0  0  0  0  0
   26.7791  -20.0018   -5.1783 C   0  0  0  0  0  0  0  0  0  0  0  0
   28.0531  -19.7871   -4.7025 C   0  0  0  0  0  0  0  0  0  0  0  0
   29.1593  -19.8836   -5.5328 C   0  0  0  0  0  0  0  0  0  0  0  0
   28.9672  -20.2014   -6.8570 C   0  0  0  0  0  0  0  0  0  0  0  0
   27.6929  -20.4274   -7.3784 C   0  0  0  0  0  0  0  0  0  0  0  0
   26.0311  -20.3236  -11.0271 C   0  0  0  0  0  0  0  0  0  0  0  0
   26.1592  -19.0746  -11.0018 O   0  0  0  0  0  0  0  0  0  0  0  0
   19.3315  -17.6042  -15.3713 O   0  0  0  0  0  0  0  0  0  0  0  0
   20.4726  -18.1203  -14.7511 C   0  0  0  0  0  0  0  0  0  0  0  0
   20.5933  -19.4970  -14.7106 C   0  0  0  0  0  0  0  0  0  0  0  0
   21.6970  -20.0618  -14.1123 C   0  0  0  0  0  0  0  0  0  0  0  0
   22.6783  -19.2607  -13.5553 C   0  0  0  0  0  0  0  0  0  0  0  0
   23.8247  -19.9318  -12.9292 C   0  0  0  0  0  0  0  0  0  0  0  0
   23.5915  -20.2031  -11.4521 C   0  0  2  0  0  0  0  0  0  0  0  0
   24.7561  -20.9256  -10.9928 N   0  0  0  0  0  0  0  0  0  0  0  0
   22.3634  -21.0143  -11.2149 C   0  0  0  0  0  0  0  0  0  0  0  0
   21.2948  -20.4495  -10.8676 O   0  0  0  0  0  0  0  0  0  0  0  0
   22.5550  -17.9016  -13.5973 C   0  0  0  0  0  0  0  0  0  0  0  0
   21.4533  -17.3469  -14.1949 C   0  0  0  0  0  0  0  0  0  0  0  0
   22.3404  -22.3799  -11.3610 O   0  0  0  0  0  0  0  0  0  0  0  0
  2  3  1  6
  2  4  1  0
  2  1  1  0
  4  5  1  0
  5  6  1  1
  7  5  1  0
  8  7  2  0
  9  7  1  0
 10 21  1  0
 10  9  1  0
 10 11  1  1
 12 11  1  0
 13 12  2  0
 14 13  1  0
 15 14  1  0
 15 20  2  0
 16 17  2  0
 16 15  1  0
 17 18  1  0
 18 19  2  0
 20 19  1  0
 20 12  1  0
 21 30  1  0
 22 21  2  0
 23 24  1  0
 24 25  2  0
 25 26  1  0
 27 26  2  0
 27 28  1  0
 29 28  1  6
 29 31  1  0
 30 29  1  0
 31 32  2  0
 31 35  1  0
 33 27  1  0
 34 24  1  0
 34 33  2  0
M  END
$$$$
