LWY.pdb
     RDKit          3D

 35 37  0  0  1  0  0  0  0  0999 V2000
   28.9495  -16.0830  -16.6668 C   0  0  0  0  0  0  0  0  0  0  0  0
   28.1112  -17.3401  -16.6177 C   0  0  1  0  0  0  0  0  0  0  0  0
   28.9544  -18.5697  -16.8314 C   0  0  0  0  0  0  0  0  0  0  0  0
   27.3390  -17.4543  -15.3046 C   0  0  0  0  0  0  0  0  0  0  0  0
   26.7373  -18.8443  -15.2932 C   0  0  2  0  0  0  0  0  0  0  0  0
   25.8755  -18.9904  -16.4454 N   0  0  0  0  0  0  0  0  0  0  0  0
   26.0138  -19.1337  -14.0360 C   0  0  0  0  0  0  0  0  0  0  0  0
   25.3675  -18.2026  -13.5011 O   0  0  0  0  0  0  0  0  0  0  0  0
   25.9992  -20.3929  -13.3897 N   0  0  0  0  0  0  0  0  0  0  0  0
   25.2620  -20.6757  -12.2155 C   0  0  1  0  0  0  0  0  0  0  0  0
   24.1830  -21.6907  -12.2928 C   0  0  0  0  0  0  0  0  0  0  0  0
   22.9531  -21.2422  -13.0067 C   0  0  0  0  0  0  0  0  0  0  0  0
   21.8036  -20.7269  -12.4297 C   0  0  0  0  0  0  0  0  0  0  0  0
   20.9419  -20.4313  -13.4065 N   0  0  0  0  0  0  0  0  0  0  0  0
   21.4755  -20.7315  -14.6153 C   0  0  0  0  0  0  0  0  0  0  0  0
   20.9536  -20.5995  -15.8851 C   0  0  0  0  0  0  0  0  0  0  0  0
   21.7358  -20.9975  -16.9460 C   0  0  0  0  0  0  0  0  0  0  0  0
   23.0071  -21.5152  -16.7509 C   0  0  0  0  0  0  0  0  0  0  0  0
   23.4858  -21.6282  -15.4666 C   0  0  0  0  0  0  0  0  0  0  0  0
   22.7255  -21.2356  -14.3645 C   0  0  0  0  0  0  0  0  0  0  0  0
   26.1308  -21.0340  -11.0544 C   0  0  0  0  0  0  0  0  0  0  0  0
   26.7384  -22.1325  -11.0175 O   0  0  0  0  0  0  0  0  0  0  0  0
   29.1035  -20.3498   -2.8352 O   0  0  0  0  0  0  0  0  0  0  0  0
   28.6244  -20.0549   -4.1144 C   0  0  0  0  0  0  0  0  0  0  0  0
   29.3190  -20.5940   -5.1814 C   0  0  0  0  0  0  0  0  0  0  0  0
   28.8926  -20.3373   -6.4650 C   0  0  0  0  0  0  0  0  0  0  0  0
   27.7788  -19.5468   -6.6878 C   0  0  0  0  0  0  0  0  0  0  0  0
   27.3849  -19.3109   -8.0827 C   0  0  0  0  0  0  0  0  0  0  0  0
   26.7033  -20.5224   -8.6970 C   0  0  2  0  0  0  0  0  0  0  0  0
   26.2477  -20.1017  -10.0027 N   0  0  0  0  0  0  0  0  0  0  0  0
   25.5469  -20.9925   -7.8819 C   0  0  0  0  0  0  0  0  0  0  0  0
   25.7028  -21.9191   -7.0460 O   0  0  0  0  0  0  0  0  0  0  0  0
   27.0960  -19.0162   -5.6312 C   0  0  0  0  0  0  0  0  0  0  0  0
   27.5267  -19.2766   -4.3563 C   0  0  0  0  0  0  0  0  0  0  0  0
   24.2904  -20.4504   -8.0007 O   0  0  0  0  0  0  0  0  0  0  0  0
  2  3  1  1
  2  4  1  0
  2  1  1  0
  4  5  1  0
  5  6  1  6
  7  5  1  0
  8  7  2  0
  9  7  1  0
 10 21  1  0
 10  9  1  0
 10 11  1  6
 12 11  1  0
 13 12  2  0
 14 13  1  0
 15 14  1  0
 15 20  2  0
 16 17  2  0
 16 15  1  0
 17 18  1  0
 18 19  2  0
 20 19  1  0
 20 12  1  0
 21 30  1  0
 22 21  2  0
 23 24  1  0
 24 25  2  0
 25 26  1  0
 27 26  2  0
 27 28  1  0
 29 28  1  1
 29 31  1  0
 30 29  1  0
 31 32  2  0
 31 35  1  0
 33 27  1  0
 34 24  1  0
 34 33  2  0
M  END
$$$$
