LWY.pdb
     RDKit          3D

 35 37  0  0  1  0  0  0  0  0999 V2000
   28.3392  -16.1031  -18.4076 C   0  0  0  0  0  0  0  0  0  0  0  0
   28.4389  -17.5883  -18.1435 C   0  0  1  0  0  0  0  0  0  0  0  0
   29.5218  -17.8955  -17.1429 C   0  0  0  0  0  0  0  0  0  0  0  0
   27.1073  -18.1698  -17.6719 C   0  0  0  0  0  0  0  0  0  0  0  0
   27.3846  -19.6166  -17.3195 C   0  0  2  0  0  0  0  0  0  0  0  0
   27.5234  -20.3773  -18.5416 N   0  0  0  0  0  0  0  0  0  0  0  0
   26.3432  -20.1907  -16.4398 C   0  0  0  0  0  0  0  0  0  0  0  0
   25.1651  -20.2240  -16.8665 O   0  0  0  0  0  0  0  0  0  0  0  0
   26.5823  -20.7073  -15.1440 N   0  0  0  0  0  0  0  0  0  0  0  0
   25.5632  -21.0841  -14.2375 C   0  0  1  0  0  0  0  0  0  0  0  0
   25.9639  -21.7015  -12.9496 C   0  0  0  0  0  0  0  0  0  0  0  0
   24.9822  -21.5270  -11.8408 C   0  0  0  0  0  0  0  0  0  0  0  0
   23.6371  -21.8586  -11.8675 C   0  0  0  0  0  0  0  0  0  0  0  0
   23.1101  -21.5632  -10.6763 N   0  0  0  0  0  0  0  0  0  0  0  0
   24.0558  -21.0458   -9.8554 C   0  0  0  0  0  0  0  0  0  0  0  0
   23.9686  -20.6021   -8.5525 C   0  0  0  0  0  0  0  0  0  0  0  0
   25.1128  -20.1146   -7.9618 C   0  0  0  0  0  0  0  0  0  0  0  0
   26.3162  -20.0682   -8.6489 C   0  0  0  0  0  0  0  0  0  0  0  0
   26.3552  -20.5217   -9.9466 C   0  0  0  0  0  0  0  0  0  0  0  0
   25.2186  -21.0239  -10.5813 C   0  0  0  0  0  0  0  0  0  0  0  0
   24.6204  -19.9684  -13.9245 C   0  0  0  0  0  0  0  0  0  0  0  0
   25.0019  -18.9642  -13.2740 O   0  0  0  0  0  0  0  0  0  0  0  0
   20.7725  -19.5000  -20.1455 O   0  0  0  0  0  0  0  0  0  0  0  0
   21.2520  -19.1270  -18.8870 C   0  0  0  0  0  0  0  0  0  0  0  0
   20.3093  -18.7842  -17.9355 C   0  0  0  0  0  0  0  0  0  0  0  0
   20.7236  -18.4085  -16.6776 C   0  0  0  0  0  0  0  0  0  0  0  0
   22.0714  -18.3736  -16.3658 C   0  0  0  0  0  0  0  0  0  0  0  0
   22.4407  -17.9582  -15.0064 C   0  0  0  0  0  0  0  0  0  0  0  0
   22.3024  -19.0926  -14.0046 C   0  0  2  0  0  0  0  0  0  0  0  0
   23.2907  -20.0776  -14.3818 N   0  0  0  0  0  0  0  0  0  0  0  0
   20.9421  -19.7023  -14.0274 C   0  0  0  0  0  0  0  0  0  0  0  0
   19.9445  -19.0262  -13.6679 O   0  0  0  0  0  0  0  0  0  0  0  0
   22.9991  -18.7127  -17.3084 C   0  0  0  0  0  0  0  0  0  0  0  0
   22.5785  -19.0857  -18.5585 C   0  0  0  0  0  0  0  0  0  0  0  0
   20.7191  -20.9959  -14.4319 O   0  0  0  0  0  0  0  0  0  0  0  0
  2  3  1  1
  2  4  1  0
  2  1  1  0
  4  5  1  0
  5  6  1  6
  7  5  1  0
  8  7  2  0
  9  7  1  0
 10 21  1  0
 10  9  1  0
 10 11  1  1
 12 11  1  0
 13 12  2  0
 14 13  1  0
 15 14  1  0
 15 20  2  0
 16 17  2  0
 16 15  1  0
 17 18  1  0
 18 19  2  0
 20 19  1  0
 20 12  1  0
 21 30  1  0
 22 21  2  0
 23 24  1  0
 24 25  2  0
 25 26  1  0
 27 26  2  0
 27 28  1  0
 29 28  1  6
 29 31  1  0
 30 29  1  0
 31 32  2  0
 31 35  1  0
 33 27  1  0
 34 24  1  0
 34 33  2  0
M  END
$$$$
