TDY.pdb
     RDKit          3D

 28 28  0  0  1  0  0  0  0  0999 V2000
   12.6703  -20.0571   22.7098 C   0  0  0  0  0  0  0  0  0  0  0  0
   13.5363  -19.9607   21.4807 C   0  0  1  0  0  0  0  0  0  0  0  0
   14.2617  -21.1461   21.3804 O   0  0  0  0  0  0  0  0  0  0  0  0
   12.6520  -19.7943   20.2589 C   0  0  2  0  0  0  0  0  0  0  0  0
   13.4120  -19.8885   19.0355 N   0  0  0  0  0  0  0  0  0  0  0  0
   11.9592  -18.4830   20.2708 C   0  0  0  0  0  0  0  0  0  0  0  0
   12.6016  -17.4409   19.9974 O   0  0  0  0  0  0  0  0  0  0  0  0
   10.5823  -18.3196   20.5781 N   0  0  0  0  0  0  0  0  0  0  0  0
    9.9278  -17.0307   20.6257 C   0  0  1  0  0  0  0  0  0  0  0  0
    8.4207  -17.3151   20.6295 C   0  0  0  0  0  0  0  0  0  0  0  0
    7.6263  -16.0703   20.6696 C   0  0  0  0  0  0  0  0  0  0  0  0
    8.2055  -14.9481   20.7175 O   0  0  0  0  0  0  0  0  0  0  0  0
   10.2475  -16.3910   21.9372 C   0  0  0  0  0  0  0  0  0  0  0  0
    9.9039  -15.1898   22.1767 O   0  0  0  0  0  0  0  0  0  0  0  0
    6.2254  -16.1266   20.6546 O   0  0  0  0  0  0  0  0  0  0  0  0
   10.5422  -14.1969   30.2103 O   0  0  0  0  0  0  0  0  0  0  0  0
   10.3755  -14.6979   28.9347 C   0  0  0  0  0  0  0  0  0  0  0  0
   10.0720  -13.8370   27.9217 C   0  0  0  0  0  0  0  0  0  0  0  0
    9.9130  -14.3742   26.6593 C   0  0  0  0  0  0  0  0  0  0  0  0
   10.0496  -15.7177   26.4070 C   0  0  0  0  0  0  0  0  0  0  0  0
    9.8755  -16.2101   25.0332 C   0  0  0  0  0  0  0  0  0  0  0  0
   11.1482  -16.4774   24.2861 C   0  0  2  0  0  0  0  0  0  0  0  0
   10.9356  -17.0536   22.9807 N   0  0  0  0  0  0  0  0  0  0  0  0
   12.0205  -17.3435   25.0820 C   0  0  0  0  0  0  0  0  0  0  0  0
   12.8256  -16.8326   25.9068 O   0  0  0  0  0  0  0  0  0  0  0  0
   10.3573  -16.5452   27.4687 C   0  0  0  0  0  0  0  0  0  0  0  0
   10.5228  -16.0478   28.7366 C   0  0  0  0  0  0  0  0  0  0  0  0
   11.9936  -18.7280   24.9625 O   0  0  0  0  0  0  0  0  0  0  0  0
  2  1  1  1
  3  2  1  0
  4  2  1  0
  4  5  1  6
  4  6  1  0
  6  7  2  0
  8  6  1  0
  8  9  1  0
  9 13  1  0
  9 10  1  1
 10 11  1  0
 11 12  2  0
 11 15  1  0
 13 14  2  0
 16 17  1  0
 17 27  2  0
 18 17  1  0
 18 19  2  0
 19 20  1  0
 20 26  2  0
 20 21  1  0
 22 21  1  1
 22 24  1  0
 23 13  1  0
 23 22  1  0
 24 28  1  0
 25 24  2  0
 27 26  1  0
M  END
$$$$
