TDY.pdb
     RDKit          3D

 28 28  0  0  1  0  0  0  0  0999 V2000
    6.9314  -13.4476   18.5746 C   0  0  0  0  0  0  0  0  0  0  0  0
    8.0925  -14.0743   17.8473 C   0  0  1  0  0  0  0  0  0  0  0  0
    8.3983  -13.2609   16.7582 O   0  0  0  0  0  0  0  0  0  0  0  0
    9.2849  -14.1506   18.7827 C   0  0  2  0  0  0  0  0  0  0  0  0
   10.5051  -14.4363   18.0667 N   0  0  0  0  0  0  0  0  0  0  0  0
    9.0964  -15.2036   19.8099 C   0  0  0  0  0  0  0  0  0  0  0  0
    8.0363  -15.2323   20.4798 O   0  0  0  0  0  0  0  0  0  0  0  0
   10.0575  -16.2093   20.0963 N   0  0  0  0  0  0  0  0  0  0  0  0
    9.8676  -17.2218   21.1115 C   0  0  1  0  0  0  0  0  0  0  0  0
   11.1534  -18.0577   21.1290 C   0  0  0  0  0  0  0  0  0  0  0  0
   11.3934  -18.7247   19.8330 C   0  0  0  0  0  0  0  0  0  0  0  0
   10.5380  -19.5280   19.3638 O   0  0  0  0  0  0  0  0  0  0  0  0
    9.7784  -16.5431   22.4392 C   0  0  0  0  0  0  0  0  0  0  0  0
   10.7295  -15.8118   22.8619 O   0  0  0  0  0  0  0  0  0  0  0  0
   12.5713  -18.4705   19.1162 O   0  0  0  0  0  0  0  0  0  0  0  0
    6.2631  -11.4111   28.5503 O   0  0  0  0  0  0  0  0  0  0  0  0
    6.6044  -12.2000   27.4701 C   0  0  0  0  0  0  0  0  0  0  0  0
    5.6300  -12.5766   26.5935 C   0  0  0  0  0  0  0  0  0  0  0  0
    6.0086  -13.3653   25.5249 C   0  0  0  0  0  0  0  0  0  0  0  0
    7.3074  -13.7681   25.3294 C   0  0  0  0  0  0  0  0  0  0  0  0
    7.6320  -14.5981   24.1606 C   0  0  0  0  0  0  0  0  0  0  0  0
    8.4552  -15.8170   24.4537 C   0  0  2  0  0  0  0  0  0  0  0  0
    8.6621  -16.6590   23.3006 N   0  0  0  0  0  0  0  0  0  0  0  0
    7.8368  -16.5877   25.5345 C   0  0  0  0  0  0  0  0  0  0  0  0
    7.0105  -17.4993   25.2595 O   0  0  0  0  0  0  0  0  0  0  0  0
    8.2546  -13.3588   26.2469 C   0  0  0  0  0  0  0  0  0  0  0  0
    7.9160  -12.5750   27.3209 C   0  0  0  0  0  0  0  0  0  0  0  0
    8.1314  -16.3504   26.8720 O   0  0  0  0  0  0  0  0  0  0  0  0
  2  1  1  1
  3  2  1  0
  4  2  1  0
  4  5  1  6
  4  6  1  0
  6  7  2  0
  8  6  1  0
  8  9  1  0
  9 13  1  0
  9 10  1  1
 10 11  1  0
 11 12  2  0
 11 15  1  0
 13 14  2  0
 16 17  1  0
 17 27  2  0
 18 17  1  0
 18 19  2  0
 19 20  1  0
 20 26  2  0
 20 21  1  0
 22 21  1  6
 22 24  1  0
 23 13  1  0
 23 22  1  0
 24 28  1  0
 25 24  2  0
 27 26  1  0
M  END
$$$$
