TDY.pdb
     RDKit          3D

 28 28  0  0  1  0  0  0  0  0999 V2000
    8.9897  -12.5964   21.0892 C   0  0  0  0  0  0  0  0  0  0  0  0
    7.6927  -12.9741   20.4221 C   0  0  1  0  0  0  0  0  0  0  0  0
    7.4578  -12.0541   19.4025 O   0  0  0  0  0  0  0  0  0  0  0  0
    7.8199  -14.3684   19.8370 C   0  0  2  0  0  0  0  0  0  0  0  0
    6.6150  -14.7692   19.1509 N   0  0  0  0  0  0  0  0  0  0  0  0
    8.1040  -15.3709   20.8924 C   0  0  0  0  0  0  0  0  0  0  0  0
    7.1529  -15.9671   21.4521 O   0  0  0  0  0  0  0  0  0  0  0  0
    9.4125  -15.7128   21.3259 N   0  0  0  0  0  0  0  0  0  0  0  0
    9.6939  -16.8422   22.1843 C   0  0  1  0  0  0  0  0  0  0  0  0
   11.0993  -17.3274   21.8076 C   0  0  0  0  0  0  0  0  0  0  0  0
   11.4663  -18.5629   22.5292 C   0  0  0  0  0  0  0  0  0  0  0  0
   10.6269  -19.1312   23.2839 O   0  0  0  0  0  0  0  0  0  0  0  0
    9.7722  -16.3518   23.5932 C   0  0  0  0  0  0  0  0  0  0  0  0
   10.5714  -15.4152   23.9132 O   0  0  0  0  0  0  0  0  0  0  0  0
   12.7478  -19.1122   22.3811 O   0  0  0  0  0  0  0  0  0  0  0  0
    6.4557  -10.7322   26.0443 O   0  0  0  0  0  0  0  0  0  0  0  0
    6.8157  -12.0543   26.2129 C   0  0  0  0  0  0  0  0  0  0  0  0
    5.8928  -13.0268   25.9638 C   0  0  0  0  0  0  0  0  0  0  0  0
    6.2889  -14.3377   26.1430 C   0  0  0  0  0  0  0  0  0  0  0  0
    7.5553  -14.6757   26.5545 C   0  0  0  0  0  0  0  0  0  0  0  0
    7.9029  -16.0951   26.7111 C   0  0  0  0  0  0  0  0  0  0  0  0
    9.1708  -16.5193   26.0317 C   0  0  2  0  0  0  0  0  0  0  0  0
    8.9862  -16.8762   24.6461 N   0  0  0  0  0  0  0  0  0  0  0  0
    9.7780  -17.6343   26.7615 C   0  0  0  0  0  0  0  0  0  0  0  0
    9.8731  -18.7646   26.2111 O   0  0  0  0  0  0  0  0  0  0  0  0
    8.4507  -13.6519   26.7930 C   0  0  0  0  0  0  0  0  0  0  0  0
    8.0933  -12.3378   26.6259 C   0  0  0  0  0  0  0  0  0  0  0  0
   10.2622  -17.4921   28.0566 O   0  0  0  0  0  0  0  0  0  0  0  0
  2  1  1  6
  3  2  1  0
  4  2  1  0
  4  5  1  1
  4  6  1  0
  6  7  2  0
  8  6  1  0
  8  9  1  0
  9 13  1  0
  9 10  1  6
 10 11  1  0
 11 12  2  0
 11 15  1  0
 13 14  2  0
 16 17  1  0
 17 27  2  0
 18 17  1  0
 18 19  2  0
 19 20  1  0
 20 26  2  0
 20 21  1  0
 22 21  1  1
 22 24  1  0
 23 13  1  0
 23 22  1  0
 24 28  1  0
 25 24  2  0
 27 26  1  0
M  END
$$$$
