WPL.pdb
     RDKit          3D

 30 32  0  0  1  0  0  0  0  0999 V2000
    6.3029  -17.8678   25.4988 N   0  0  0  0  0  0  0  0  0  0  0  0
    6.9410  -16.8103   24.7845 C   0  0  1  0  0  0  0  0  0  0  0  0
    7.4959  -15.7494   25.7136 C   0  0  0  0  0  0  0  0  0  0  0  0
    6.5433  -14.7273   26.1274 C   0  0  0  0  0  0  0  0  0  0  0  0
    5.2183  -15.0027   26.4678 C   0  0  0  0  0  0  0  0  0  0  0  0
    4.5924  -13.8941   26.8292 N   0  0  0  0  0  0  0  0  0  0  0  0
    5.4858  -12.8742   26.7341 C   0  0  0  0  0  0  0  0  0  0  0  0
    5.3549  -11.5312   26.9833 C   0  0  0  0  0  0  0  0  0  0  0  0
    6.4287  -10.6898   26.7994 C   0  0  0  0  0  0  0  0  0  0  0  0
    7.6311  -11.1794   26.3689 C   0  0  0  0  0  0  0  0  0  0  0  0
    7.7745  -12.5164   26.1174 C   0  0  0  0  0  0  0  0  0  0  0  0
    6.7074  -13.3770   26.2971 C   0  0  0  0  0  0  0  0  0  0  0  0
    7.8707  -17.2045   23.7207 C   0  0  0  0  0  0  0  0  0  0  0  0
    8.2879  -18.4023   23.7161 O   0  0  0  0  0  0  0  0  0  0  0  0
    8.2790  -16.2864   22.7477 N   0  0  0  0  0  0  0  0  0  0  0  0
    7.6925  -15.0056   22.4673 C   0  0  0  0  0  0  0  0  0  0  0  0
    8.4438  -14.4412   21.2778 C   0  0  0  0  0  0  0  0  0  0  0  0
    8.9869  -15.6853   20.6145 C   0  0  0  0  0  0  0  0  0  0  0  0
    9.3948  -16.4998   21.8366 C   0  0  1  0  0  0  0  0  0  0  0  0
   10.6414  -15.8922   22.3642 C   0  0  0  0  0  0  0  0  0  0  0  0
   10.8181  -14.6500   22.1873 O   0  0  0  0  0  0  0  0  0  0  0  0
   11.7524  -14.0486   26.6579 C   0  0  0  0  0  0  0  0  0  0  0  0
   11.2627  -15.5501   26.6710 C   0  0  1  0  0  0  0  0  0  0  0  0
   10.0091  -15.5147   27.5639 C   0  0  0  0  0  0  0  0  0  0  0  0
   10.9910  -15.9481   25.2711 C   0  0  0  0  0  0  0  0  0  0  0  0
   12.1331  -16.2119   24.3983 C   0  0  2  0  0  0  0  0  0  0  0  0
   11.6391  -16.5993   23.0465 N   0  0  0  0  0  0  0  0  0  0  0  0
   13.1470  -17.1182   24.8585 C   0  0  0  0  0  0  0  0  0  0  0  0
   12.8755  -18.4872   25.0275 O   0  0  0  0  0  0  0  0  0  0  0  0
   14.3139  -16.7433   25.1312 O   0  0  0  0  0  0  0  0  0  0  0  0
  2  1  1  1
  2  3  1  0
  3  4  1  0
  4 12  1  0
  4  5  2  0
  5  6  1  0
  7  8  2  0
  7  6  1  0
  9  8  1  0
 10  9  2  0
 11 10  1  0
 11 12  2  0
 12  7  1  0
 13  2  1  0
 13 14  2  0
 15 16  1  0
 15 13  1  0
 17 16  1  0
 18 17  1  0
 18 19  1  0
 19 15  1  0
 19 20  1  1
 20 27  1  0
 21 20  2  0
 23 22  1  6
 23 25  1  0
 24 23  1  0
 26 25  1  1
 26 27  1  0
 26 28  1  0
 28 29  1  0
 30 28  2  0
M  END
$$$$
