WPL.pdb
     RDKit          3D

 30 32  0  0  1  0  0  0  0  0999 V2000
    6.0432  -17.9029   24.4312 N   0  0  0  0  0  0  0  0  0  0  0  0
    6.7686  -16.7392   24.0371 C   0  0  1  0  0  0  0  0  0  0  0  0
    7.5086  -16.1086   25.1995 C   0  0  0  0  0  0  0  0  0  0  0  0
    6.8040  -15.0218   25.8671 C   0  0  0  0  0  0  0  0  0  0  0  0
    5.5684  -15.1775   26.4969 C   0  0  0  0  0  0  0  0  0  0  0  0
    5.1779  -14.0360   27.0406 N   0  0  0  0  0  0  0  0  0  0  0  0
    6.1409  -13.1125   26.7812 C   0  0  0  0  0  0  0  0  0  0  0  0
    6.2310  -11.7833   27.1097 C   0  0  0  0  0  0  0  0  0  0  0  0
    7.3269  -11.0500   26.7144 C   0  0  0  0  0  0  0  0  0  0  0  0
    8.3324  -11.6339   25.9942 C   0  0  0  0  0  0  0  0  0  0  0  0
    8.2545  -12.9584   25.6607 C   0  0  0  0  0  0  0  0  0  0  0  0
    7.1619  -13.7112   26.0497 C   0  0  0  0  0  0  0  0  0  0  0  0
    7.5760  -16.8511   22.8176 C   0  0  0  0  0  0  0  0  0  0  0  0
    7.9156  -18.0133   22.4398 O   0  0  0  0  0  0  0  0  0  0  0  0
    7.9549  -15.7115   22.1006 N   0  0  0  0  0  0  0  0  0  0  0  0
    7.5313  -14.3598   22.3386 C   0  0  0  0  0  0  0  0  0  0  0  0
    8.1558  -13.5160   21.2450 C   0  0  0  0  0  0  0  0  0  0  0  0
    8.3891  -14.5264   20.1461 C   0  0  0  0  0  0  0  0  0  0  0  0
    8.8623  -15.7240   20.9617 C   0  0  1  0  0  0  0  0  0  0  0  0
   10.2555  -15.4363   21.3832 C   0  0  0  0  0  0  0  0  0  0  0  0
   10.4643  -14.3947   22.0737 O   0  0  0  0  0  0  0  0  0  0  0  0
   12.9242  -17.4960   25.0111 C   0  0  0  0  0  0  0  0  0  0  0  0
   12.7780  -18.4759   23.7811 C   0  0  1  0  0  0  0  0  0  0  0  0
   12.2028  -19.7596   24.4068 C   0  0  0  0  0  0  0  0  0  0  0  0
   11.8782  -17.8330   22.7967 C   0  0  0  0  0  0  0  0  0  0  0  0
   12.3728  -16.6612   22.0773 C   0  0  2  0  0  0  0  0  0  0  0  0
   11.3590  -16.2394   21.0694 N   0  0  0  0  0  0  0  0  0  0  0  0
   13.6850  -16.7214   21.4979 C   0  0  0  0  0  0  0  0  0  0  0  0
   13.9075  -17.3659   20.2684 O   0  0  0  0  0  0  0  0  0  0  0  0
   14.6903  -16.2095   22.0491 O   0  0  0  0  0  0  0  0  0  0  0  0
  2  1  1  1
  2  3  1  0
  3  4  1  0
  4 12  1  0
  4  5  2  0
  5  6  1  0
  7  8  2  0
  7  6  1  0
  9  8  1  0
 10  9  2  0
 11 10  1  0
 11 12  2  0
 12  7  1  0
 13  2  1  0
 13 14  2  0
 15 16  1  0
 15 13  1  0
 17 16  1  0
 18 17  1  0
 18 19  1  0
 19 15  1  0
 19 20  1  1
 20 27  1  0
 21 20  2  0
 23 22  1  1
 23 25  1  0
 24 23  1  0
 26 25  1  6
 26 27  1  0
 26 28  1  0
 28 29  1  0
 30 28  2  0
M  END
$$$$
