WPL.pdb
     RDKit          3D

 30 32  0  0  1  0  0  0  0  0999 V2000
    6.1088  -17.7042   25.0465 N   0  0  0  0  0  0  0  0  0  0  0  0
    6.9010  -16.6705   24.4639 C   0  0  1  0  0  0  0  0  0  0  0  0
    7.4536  -15.7201   25.5070 C   0  0  0  0  0  0  0  0  0  0  0  0
    6.5689  -14.6231   25.8773 C   0  0  0  0  0  0  0  0  0  0  0  0
    5.2417  -14.8031   26.2691 C   0  0  0  0  0  0  0  0  0  0  0  0
    4.6862  -13.6411   26.5731 N   0  0  0  0  0  0  0  0  0  0  0  0
    5.6293  -12.6798   26.3884 C   0  0  0  0  0  0  0  0  0  0  0  0
    5.5770  -11.3185   26.5524 C   0  0  0  0  0  0  0  0  0  0  0  0
    6.6880  -10.5506   26.2863 C   0  0  0  0  0  0  0  0  0  0  0  0
    7.8497  -11.1318   25.8579 C   0  0  0  0  0  0  0  0  0  0  0  0
    7.9146  -12.4881   25.6909 C   0  0  0  0  0  0  0  0  0  0  0  0
    6.8092  -13.2757   25.9540 C   0  0  0  0  0  0  0  0  0  0  0  0
    7.8909  -17.0867   23.4648 C   0  0  0  0  0  0  0  0  0  0  0  0
    8.2098  -18.3137   23.4261 O   0  0  0  0  0  0  0  0  0  0  0  0
    8.4598  -16.1575   22.5877 N   0  0  0  0  0  0  0  0  0  0  0  0
    7.9941  -14.8258   22.3178 C   0  0  0  0  0  0  0  0  0  0  0  0
    8.9018  -14.2642   21.2414 C   0  0  0  0  0  0  0  0  0  0  0  0
    9.4252  -15.5131   20.5713 C   0  0  0  0  0  0  0  0  0  0  0  0
    9.6473  -16.4100   21.7835 C   0  0  1  0  0  0  0  0  0  0  0  0
   10.8706  -15.9199   22.4652 C   0  0  0  0  0  0  0  0  0  0  0  0
   11.2211  -14.7187   22.2658 O   0  0  0  0  0  0  0  0  0  0  0  0
   11.3014  -14.0257   26.8795 C   0  0  0  0  0  0  0  0  0  0  0  0
   10.8058  -15.5240   26.8187 C   0  0  1  0  0  0  0  0  0  0  0  0
    9.4392  -15.4827   27.5263 C   0  0  0  0  0  0  0  0  0  0  0  0
   10.7317  -15.9172   25.3933 C   0  0  0  0  0  0  0  0  0  0  0  0
   11.9699  -16.3109   24.7244 C   0  0  2  0  0  0  0  0  0  0  0  0
   11.6668  -16.6958   23.3167 N   0  0  0  0  0  0  0  0  0  0  0  0
   12.8061  -17.2895   25.3602 C   0  0  0  0  0  0  0  0  0  0  0  0
   12.6126  -18.6644   25.1393 O   0  0  0  0  0  0  0  0  0  0  0  0
   13.7417  -16.9758   26.1366 O   0  0  0  0  0  0  0  0  0  0  0  0
  2  1  1  1
  2  3  1  0
  3  4  1  0
  4 12  1  0
  4  5  2  0
  5  6  1  0
  7  8  2  0
  7  6  1  0
  9  8  1  0
 10  9  2  0
 11 10  1  0
 11 12  2  0
 12  7  1  0
 13  2  1  0
 13 14  2  0
 15 16  1  0
 15 13  1  0
 17 16  1  0
 18 17  1  0
 18 19  1  0
 19 15  1  0
 19 20  1  1
 20 27  1  0
 21 20  2  0
 23 22  1  6
 23 25  1  0
 24 23  1  0
 26 25  1  1
 26 27  1  0
 26 28  1  0
 28 29  1  0
 30 28  2  0
M  END
$$$$
