WPL.pdb
     RDKit          3D

 30 32  0  0  1  0  0  0  0  0999 V2000
    5.5312  -18.4620   23.7029 N   0  0  0  0  0  0  0  0  0  0  0  0
    6.0341  -17.2966   23.0513 C   0  0  1  0  0  0  0  0  0  0  0  0
    5.5359  -16.0213   23.7008 C   0  0  0  0  0  0  0  0  0  0  0  0
    6.0937  -15.7363   25.0165 C   0  0  0  0  0  0  0  0  0  0  0  0
    6.5031  -16.7269   25.9100 C   0  0  0  0  0  0  0  0  0  0  0  0
    6.9929  -16.1832   27.0127 N   0  0  0  0  0  0  0  0  0  0  0  0
    6.9157  -14.8338   26.8685 C   0  0  0  0  0  0  0  0  0  0  0  0
    7.2777  -13.8124   27.7102 C   0  0  0  0  0  0  0  0  0  0  0  0
    7.0859  -12.5044   27.3265 C   0  0  0  0  0  0  0  0  0  0  0  0
    6.5357  -12.2094   26.1096 C   0  0  0  0  0  0  0  0  0  0  0  0
    6.1709  -13.2188   25.2613 C   0  0  0  0  0  0  0  0  0  0  0  0
    6.3568  -14.5386   25.6290 C   0  0  0  0  0  0  0  0  0  0  0  0
    7.4696  -17.2810   22.7505 C   0  0  0  0  0  0  0  0  0  0  0  0
    8.1011  -18.3780   22.8317 O   0  0  0  0  0  0  0  0  0  0  0  0
    8.1139  -16.0940   22.3868 N   0  0  0  0  0  0  0  0  0  0  0  0
    7.5257  -14.7877   22.2834 C   0  0  0  0  0  0  0  0  0  0  0  0
    8.6173  -13.8647   21.7792 C   0  0  0  0  0  0  0  0  0  0  0  0
    9.5539  -14.8199   21.0769 C   0  0  0  0  0  0  0  0  0  0  0  0
    9.5253  -16.0005   22.0405 C   0  0  1  0  0  0  0  0  0  0  0  0
   10.3419  -15.6168   23.2183 C   0  0  0  0  0  0  0  0  0  0  0  0
   10.8540  -14.4579   23.2343 O   0  0  0  0  0  0  0  0  0  0  0  0
   10.1574  -12.7578   27.4384 C   0  0  0  0  0  0  0  0  0  0  0  0
   10.9270  -14.1297   27.2969 C   0  0  1  0  0  0  0  0  0  0  0  0
   10.5087  -14.9113   28.5555 C   0  0  0  0  0  0  0  0  0  0  0  0
   10.4959  -14.7599   26.0285 C   0  0  0  0  0  0  0  0  0  0  0  0
   11.1957  -15.9648   25.5880 C   0  0  2  0  0  0  0  0  0  0  0  0
   10.5864  -16.4498   24.3171 N   0  0  0  0  0  0  0  0  0  0  0  0
   11.3598  -17.0387   26.5265 C   0  0  0  0  0  0  0  0  0  0  0  0
   12.3402  -16.9811   27.5325 O   0  0  0  0  0  0  0  0  0  0  0  0
   10.6476  -18.0725   26.5005 O   0  0  0  0  0  0  0  0  0  0  0  0
  2  1  1  1
  2  3  1  0
  3  4  1  0
  4 12  1  0
  4  5  2  0
  5  6  1  0
  7  8  2  0
  7  6  1  0
  9  8  1  0
 10  9  2  0
 11 10  1  0
 11 12  2  0
 12  7  1  0
 13  2  1  0
 13 14  2  0
 15 16  1  0
 15 13  1  0
 17 16  1  0
 18 17  1  0
 18 19  1  0
 19 15  1  0
 19 20  1  1
 20 27  1  0
 21 20  2  0
 23 22  1  1
 23 25  1  0
 24 23  1  0
 26 25  1  1
 26 27  1  0
 26 28  1  0
 28 29  1  0
 30 28  2  0
M  END
$$$$
