WPL.pdb
     RDKit          3D

 30 32  0  0  1  0  0  0  0  0999 V2000
    5.3508  -18.4559   23.9669 N   0  0  0  0  0  0  0  0  0  0  0  0
    6.2237  -17.3362   24.1079 C   0  0  1  0  0  0  0  0  0  0  0  0
    6.4590  -16.9771   25.5613 C   0  0  0  0  0  0  0  0  0  0  0  0
    6.1423  -15.6006   25.9193 C   0  0  0  0  0  0  0  0  0  0  0  0
    4.8689  -15.1788   26.3042 C   0  0  0  0  0  0  0  0  0  0  0  0
    4.8768  -13.8883   26.5974 N   0  0  0  0  0  0  0  0  0  0  0  0
    6.1458  -13.4379   26.4124 C   0  0  0  0  0  0  0  0  0  0  0  0
    6.6938  -12.1895   26.5674 C   0  0  0  0  0  0  0  0  0  0  0  0
    8.0295  -11.9871   26.3032 C   0  0  0  0  0  0  0  0  0  0  0  0
    8.8211  -13.0213   25.8856 C   0  0  0  0  0  0  0  0  0  0  0  0
    8.2867  -14.2707   25.7275 C   0  0  0  0  0  0  0  0  0  0  0  0
    6.9475  -14.4934   25.9890 C   0  0  0  0  0  0  0  0  0  0  0  0
    7.4485  -17.3533   23.3011 C   0  0  0  0  0  0  0  0  0  0  0  0
    8.0395  -18.4653   23.1498 O   0  0  0  0  0  0  0  0  0  0  0  0
    7.9422  -16.1803   22.7209 N   0  0  0  0  0  0  0  0  0  0  0  0
    7.2670  -14.9168   22.6166 C   0  0  0  0  0  0  0  0  0  0  0  0
    8.1900  -14.0006   21.8377 C   0  0  0  0  0  0  0  0  0  0  0  0
    9.0381  -14.9778   21.0577 C   0  0  0  0  0  0  0  0  0  0  0  0
    9.2580  -16.0598   22.1085 C   0  0  1  0  0  0  0  0  0  0  0  0
   10.2519  -15.5289   23.0738 C   0  0  0  0  0  0  0  0  0  0  0  0
   10.6668  -14.3432   22.9079 O   0  0  0  0  0  0  0  0  0  0  0  0
   11.2722  -13.2915   27.4442 C   0  0  0  0  0  0  0  0  0  0  0  0
   11.2094  -14.8552   27.6570 C   0  0  1  0  0  0  0  0  0  0  0  0
   10.3143  -15.0162   28.8992 C   0  0  0  0  0  0  0  0  0  0  0  0
   10.6432  -15.4553   26.4276 C   0  0  0  0  0  0  0  0  0  0  0  0
   11.5247  -15.6160   25.2732 C   0  0  2  0  0  0  0  0  0  0  0  0
   10.7644  -16.2503   24.1592 N   0  0  0  0  0  0  0  0  0  0  0  0
   12.7921  -16.2615   25.4687 C   0  0  0  0  0  0  0  0  0  0  0  0
   13.9096  -15.5439   25.9300 O   0  0  0  0  0  0  0  0  0  0  0  0
   12.9691  -17.4837   25.2417 O   0  0  0  0  0  0  0  0  0  0  0  0
  2  1  1  1
  2  3  1  0
  3  4  1  0
  4 12  1  0
  4  5  2  0
  5  6  1  0
  7  8  2  0
  7  6  1  0
  9  8  1  0
 10  9  2  0
 11 10  1  0
 11 12  2  0
 12  7  1  0
 13  2  1  0
 13 14  2  0
 15 16  1  0
 15 13  1  0
 17 16  1  0
 18 17  1  0
 18 19  1  0
 19 15  1  0
 19 20  1  1
 20 27  1  0
 21 20  2  0
 23 22  1  6
 23 25  1  0
 24 23  1  0
 26 25  1  1
 26 27  1  0
 26 28  1  0
 28 29  1  0
 30 28  2  0
M  END
$$$$
