WPL.pdb
     RDKit          3D

 30 32  0  0  1  0  0  0  0  0999 V2000
    6.0451  -17.9645   25.3026 N   0  0  0  0  0  0  0  0  0  0  0  0
    6.7753  -16.8504   24.7914 C   0  0  1  0  0  0  0  0  0  0  0  0
    7.2369  -15.9180   25.8933 C   0  0  0  0  0  0  0  0  0  0  0  0
    6.4102  -14.7345   26.0911 C   0  0  0  0  0  0  0  0  0  0  0  0
    5.0354  -14.7861   26.3249 C   0  0  0  0  0  0  0  0  0  0  0  0
    4.5478  -13.5675   26.4942 N   0  0  0  0  0  0  0  0  0  0  0  0
    5.5839  -12.6957   26.3757 C   0  0  0  0  0  0  0  0  0  0  0  0
    5.6275  -11.3267   26.4577 C   0  0  0  0  0  0  0  0  0  0  0  0
    6.8232  -10.6656   26.2898 C   0  0  0  0  0  0  0  0  0  0  0  0
    7.9743  -11.3609   26.0407 C   0  0  0  0  0  0  0  0  0  0  0  0
    7.9439  -12.7261   25.9570 C   0  0  0  0  0  0  0  0  0  0  0  0
    6.7525  -13.4075   26.1237 C   0  0  0  0  0  0  0  0  0  0  0  0
    7.8137  -17.1463   23.7985 C   0  0  0  0  0  0  0  0  0  0  0  0
    8.3428  -18.2987   23.8243 O   0  0  0  0  0  0  0  0  0  0  0  0
    8.2021  -16.1864   22.8584 N   0  0  0  0  0  0  0  0  0  0  0  0
    7.4817  -15.0013   22.4846 C   0  0  0  0  0  0  0  0  0  0  0  0
    8.2813  -14.3453   21.3763 C   0  0  0  0  0  0  0  0  0  0  0  0
    9.0634  -15.5058   20.8070 C   0  0  0  0  0  0  0  0  0  0  0  0
    9.4348  -16.2482   22.0854 C   0  0  1  0  0  0  0  0  0  0  0  0
   10.5163  -15.4700   22.7382 C   0  0  0  0  0  0  0  0  0  0  0  0
   10.2697  -14.2720   23.0693 O   0  0  0  0  0  0  0  0  0  0  0  0
   10.1154  -16.2809   27.4248 C   0  0  0  0  0  0  0  0  0  0  0  0
   10.6838  -15.5054   26.1719 C   0  0  1  0  0  0  0  0  0  0  0  0
   11.5713  -14.4122   26.7943 C   0  0  0  0  0  0  0  0  0  0  0  0
   11.4259  -16.4780   25.3380 C   0  0  0  0  0  0  0  0  0  0  0  0
   12.3973  -15.9585   24.3778 C   0  0  2  0  0  0  0  0  0  0  0  0
   11.7949  -15.9700   23.0145 N   0  0  0  0  0  0  0  0  0  0  0  0
   13.7151  -16.5280   24.3664 C   0  0  0  0  0  0  0  0  0  0  0  0
   14.8111  -15.8345   24.9089 O   0  0  0  0  0  0  0  0  0  0  0  0
   13.9573  -17.6594   23.8786 O   0  0  0  0  0  0  0  0  0  0  0  0
  2  1  1  1
  2  3  1  0
  3  4  1  0
  4 12  1  0
  4  5  2  0
  5  6  1  0
  7  8  2  0
  7  6  1  0
  9  8  1  0
 10  9  2  0
 11 10  1  0
 11 12  2  0
 12  7  1  0
 13  2  1  0
 13 14  2  0
 15 16  1  0
 15 13  1  0
 17 16  1  0
 18 17  1  0
 18 19  1  0
 19 15  1  0
 19 20  1  1
 20 27  1  0
 21 20  2  0
 23 22  1  1
 23 25  1  0
 24 23  1  0
 26 25  1  1
 26 27  1  0
 26 28  1  0
 28 29  1  0
 30 28  2  0
M  END
$$$$
