ADW.pdb
     RDKit          3D

 28 29  0  0  1  0  0  0  0  0999 V2000
   17.9125  -11.5152  -21.3386 C   0  0  0  0  0  0  0  0  0  0  0  0
   17.2952  -11.2341  -20.0039 C   0  0  2  0  0  0  0  0  0  0  0  0
   15.9824  -10.6345  -20.1084 N   0  0  0  0  0  0  0  0  0  0  0  0
   18.1315  -10.3774  -19.1301 C   0  0  0  0  0  0  0  0  0  0  0  0
   19.0201  -10.9412  -18.3934 O   0  0  0  0  0  0  0  0  0  0  0  0
   17.9578   -8.9734  -19.1049 N   0  0  0  0  0  0  0  0  0  0  0  0
   18.9080   -8.1902  -18.3934 C   0  0  1  0  0  0  0  0  0  0  0  0
   19.1239   -6.8202  -18.9991 C   0  0  0  0  0  0  0  0  0  0  0  0
   19.9678   -6.8089  -20.1890 C   0  0  0  0  0  0  0  0  0  0  0  0
   19.5247   -6.3522  -21.2690 O   0  0  0  0  0  0  0  0  0  0  0  0
   18.4323   -8.0012  -16.9947 C   0  0  0  0  0  0  0  0  0  0  0  0
   17.1815   -7.8400  -16.8191 O   0  0  0  0  0  0  0  0  0  0  0  0
   21.2897   -7.2874  -20.2207 O   0  0  0  0  0  0  0  0  0  0  0  0
   19.2984   -7.9987  -15.8936 N   0  0  0  0  0  0  0  0  0  0  0  0
   18.7482   -7.7346  -14.5473 C   0  0  1  0  0  0  0  0  0  0  0  0
   19.7395   -8.4262  -13.6194 C   0  0  0  0  0  0  0  0  0  0  0  0
   19.5907   -8.0897  -12.2060 C   0  0  0  0  0  0  0  0  0  0  0  0
   18.8731   -8.7444  -11.2224 C   0  0  0  0  0  0  0  0  0  0  0  0
   19.0772   -8.0459  -10.0912 N   0  0  0  0  0  0  0  0  0  0  0  0
   19.8847   -6.9880  -10.3086 C   0  0  0  0  0  0  0  0  0  0  0  0
   20.3919   -5.9886   -9.4848 C   0  0  0  0  0  0  0  0  0  0  0  0
   21.2236   -5.0103   -9.9775 C   0  0  0  0  0  0  0  0  0  0  0  0
   21.5768   -5.0018  -11.3248 C   0  0  0  0  0  0  0  0  0  0  0  0
   21.0691   -5.9964  -12.1366 C   0  0  0  0  0  0  0  0  0  0  0  0
   20.2330   -6.9790  -11.6370 C   0  0  0  0  0  0  0  0  0  0  0  0
   18.6954   -6.2895  -14.3901 C   0  0  0  0  0  0  0  0  0  0  0  0
   19.4842   -5.5030  -14.9330 O   0  0  0  0  0  0  0  0  0  0  0  0
   17.7058   -5.7132  -13.5858 O   0  0  0  0  0  0  0  0  0  0  0  0
  2  1  1  6
  3  2  1  0
  4  6  1  0
  4  2  1  0
  5  4  2  0
  7  8  1  6
  7  6  1  0
  8  9  1  0
  9 10  2  0
 11  7  1  0
 11 14  1  0
 12 11  2  0
 13  9  1  0
 15 14  1  0
 15 26  1  0
 15 16  1  1
 17 16  1  0
 18 17  2  0
 19 20  1  0
 19 18  1  0
 20 25  2  0
 21 22  2  0
 21 20  1  0
 22 23  1  0
 23 24  2  0
 25 17  1  0
 25 24  1  0
 26 28  1  0
 27 26  2  0
M  END
$$$$
