ADW.pdb
     RDKit          3D

 28 29  0  0  1  0  0  0  0  0999 V2000
   30.5081  -24.2479  -16.7365 C   0  0  0  0  0  0  0  0  0  0  0  0
   29.7053  -23.5524  -17.7916 C   0  0  2  0  0  0  0  0  0  0  0  0
   30.5296  -22.9495  -18.8169 N   0  0  0  0  0  0  0  0  0  0  0  0
   28.7919  -22.5148  -17.2571 C   0  0  0  0  0  0  0  0  0  0  0  0
   29.1631  -21.2864  -17.3167 O   0  0  0  0  0  0  0  0  0  0  0  0
   27.5419  -22.8647  -16.6940 N   0  0  0  0  0  0  0  0  0  0  0  0
   26.6785  -21.8178  -16.2685 C   0  0  1  0  0  0  0  0  0  0  0  0
   25.4671  -21.6456  -17.1592 C   0  0  0  0  0  0  0  0  0  0  0  0
   24.5573  -20.5823  -16.7474 C   0  0  0  0  0  0  0  0  0  0  0  0
   23.3597  -20.8460  -16.4877 O   0  0  0  0  0  0  0  0  0  0  0  0
   26.1944  -22.1163  -14.8919 C   0  0  0  0  0  0  0  0  0  0  0  0
   26.0547  -23.3413  -14.5739 O   0  0  0  0  0  0  0  0  0  0  0  0
   24.9325  -19.2339  -16.6128 O   0  0  0  0  0  0  0  0  0  0  0  0
   25.8982  -21.1142  -13.9589 N   0  0  0  0  0  0  0  0  0  0  0  0
   25.5047  -21.5025  -12.5880 C   0  0  1  0  0  0  0  0  0  0  0  0
   26.7692  -21.2546  -11.7746 C   0  0  0  0  0  0  0  0  0  0  0  0
   26.5371  -20.7684  -10.4171 C   0  0  0  0  0  0  0  0  0  0  0  0
   25.3411  -20.5112   -9.7732 C   0  0  0  0  0  0  0  0  0  0  0  0
   25.6703  -20.1035   -8.5344 N   0  0  0  0  0  0  0  0  0  0  0  0
   27.0077  -20.0910   -8.3630 C   0  0  0  0  0  0  0  0  0  0  0  0
   27.8299  -19.7644   -7.2894 C   0  0  0  0  0  0  0  0  0  0  0  0
   29.1990  -19.8517   -7.3858 C   0  0  0  0  0  0  0  0  0  0  0  0
   29.7942  -20.2727   -8.5726 C   0  0  0  0  0  0  0  0  0  0  0  0
   28.9720  -20.5945   -9.6341 C   0  0  0  0  0  0  0  0  0  0  0  0
   27.5951  -20.5057   -9.5330 C   0  0  0  0  0  0  0  0  0  0  0  0
   24.3828  -20.6547  -12.2160 C   0  0  0  0  0  0  0  0  0  0  0  0
   24.1738  -19.5307  -12.6941 O   0  0  0  0  0  0  0  0  0  0  0  0
   23.4591  -21.1014  -11.2643 O   0  0  0  0  0  0  0  0  0  0  0  0
  2  1  1  1
  3  2  1  0
  4  6  1  0
  4  2  1  0
  5  4  2  0
  7  8  1  6
  7  6  1  0
  8  9  1  0
  9 10  2  0
 11  7  1  0
 11 14  1  0
 12 11  2  0
 13  9  1  0
 15 14  1  0
 15 26  1  0
 15 16  1  1
 17 16  1  0
 18 17  2  0
 19 20  1  0
 19 18  1  0
 20 25  2  0
 21 22  2  0
 21 20  1  0
 22 23  1  0
 23 24  2  0
 25 17  1  0
 25 24  1  0
 26 28  1  0
 27 26  2  0
M  END
$$$$
