ADW.pdb
     RDKit          3D

 28 29  0  0  1  0  0  0  0  0999 V2000
   23.8635  -18.4544  -16.8710 C   0  0  0  0  0  0  0  0  0  0  0  0
   22.7592  -19.1075  -16.0992 C   0  0  2  0  0  0  0  0  0  0  0  0
   21.4483  -18.6294  -16.4827 N   0  0  0  0  0  0  0  0  0  0  0  0
   22.8959  -18.9667  -14.6301 C   0  0  0  0  0  0  0  0  0  0  0  0
   23.1660  -17.8056  -14.1513 O   0  0  0  0  0  0  0  0  0  0  0  0
   22.7344  -20.0810  -13.7733 N   0  0  0  0  0  0  0  0  0  0  0  0
   22.7734  -19.8616  -12.3687 C   0  0  1  0  0  0  0  0  0  0  0  0
   21.5669  -20.4191  -11.6449 C   0  0  0  0  0  0  0  0  0  0  0  0
   20.3466  -19.6365  -11.8076 C   0  0  0  0  0  0  0  0  0  0  0  0
   19.4926  -19.9746  -12.6606 O   0  0  0  0  0  0  0  0  0  0  0  0
   23.9865  -20.5189  -11.8077 C   0  0  0  0  0  0  0  0  0  0  0  0
   24.3701  -21.6030  -12.3545 O   0  0  0  0  0  0  0  0  0  0  0  0
   20.0409  -18.4897  -11.0534 O   0  0  0  0  0  0  0  0  0  0  0  0
   24.7019  -19.9914  -10.7249 N   0  0  0  0  0  0  0  0  0  0  0  0
   25.8394  -20.7577  -10.1735 C   0  0  1  0  0  0  0  0  0  0  0  0
   26.6408  -19.7046   -9.4181 C   0  0  0  0  0  0  0  0  0  0  0  0
   27.7730  -20.2273   -8.6578 C   0  0  0  0  0  0  0  0  0  0  0  0
   28.7918  -21.0651   -9.0717 C   0  0  0  0  0  0  0  0  0  0  0  0
   29.5910  -21.2289   -8.0023 N   0  0  0  0  0  0  0  0  0  0  0  0
   29.1318  -20.5392   -6.9384 C   0  0  0  0  0  0  0  0  0  0  0  0
   29.5898  -20.3779   -5.6349 C   0  0  0  0  0  0  0  0  0  0  0  0
   28.9145  -19.5892   -4.7330 C   0  0  0  0  0  0  0  0  0  0  0  0
   27.7471  -18.9308   -5.1117 C   0  0  0  0  0  0  0  0  0  0  0  0
   27.2980  -19.0961   -6.4068 C   0  0  0  0  0  0  0  0  0  0  0  0
   27.9804  -19.8901   -7.3112 C   0  0  0  0  0  0  0  0  0  0  0  0
   25.2756  -21.7968   -9.3260 C   0  0  0  0  0  0  0  0  0  0  0  0
   25.7649  -22.9279   -9.1963 O   0  0  0  0  0  0  0  0  0  0  0  0
   24.1105  -21.5413   -8.5942 O   0  0  0  0  0  0  0  0  0  0  0  0
  2  1  1  6
  3  2  1  0
  4  6  1  0
  4  2  1  0
  5  4  2  0
  7  8  1  1
  7  6  1  0
  8  9  1  0
  9 10  2  0
 11  7  1  0
 11 14  1  0
 12 11  2  0
 13  9  1  0
 15 14  1  0
 15 26  1  0
 15 16  1  1
 17 16  1  0
 18 17  2  0
 19 20  1  0
 19 18  1  0
 20 25  2  0
 21 22  2  0
 21 20  1  0
 22 23  1  0
 23 24  2  0
 25 17  1  0
 25 24  1  0
 26 28  1  0
 27 26  2  0
M  END
$$$$
