ADW.pdb
     RDKit          3D

 28 29  0  0  1  0  0  0  0  0999 V2000
   29.3198  -19.4752  -14.0241 C   0  0  0  0  0  0  0  0  0  0  0  0
   28.0797  -20.2619  -14.3156 C   0  0  2  0  0  0  0  0  0  0  0  0
   27.6040  -20.0771  -15.6698 N   0  0  0  0  0  0  0  0  0  0  0  0
   26.9617  -19.9768  -13.3852 C   0  0  0  0  0  0  0  0  0  0  0  0
   26.3440  -18.8562  -13.4994 O   0  0  0  0  0  0  0  0  0  0  0  0
   26.5817  -20.9129  -12.3946 N   0  0  0  0  0  0  0  0  0  0  0  0
   25.4721  -20.5991  -11.5621 C   0  0  1  0  0  0  0  0  0  0  0  0
   24.2055  -21.3264  -11.9586 C   0  0  0  0  0  0  0  0  0  0  0  0
   23.2318  -20.5055  -12.6699 C   0  0  0  0  0  0  0  0  0  0  0  0
   23.0429  -20.6768  -13.8972 O   0  0  0  0  0  0  0  0  0  0  0  0
   25.7955  -20.9773  -10.1583 C   0  0  0  0  0  0  0  0  0  0  0  0
   26.9469  -21.4739   -9.9368 O   0  0  0  0  0  0  0  0  0  0  0  0
   22.4582  -19.4998  -12.0639 O   0  0  0  0  0  0  0  0  0  0  0  0
   24.8940  -20.8043   -9.1001 N   0  0  0  0  0  0  0  0  0  0  0  0
   25.3407  -21.0936   -7.7211 C   0  0  1  0  0  0  0  0  0  0  0  0
   25.7051  -19.7193   -7.1729 C   0  0  0  0  0  0  0  0  0  0  0  0
   27.1385  -19.4798   -7.0275 C   0  0  0  0  0  0  0  0  0  0  0  0
   28.0316  -18.9427   -7.9358 C   0  0  0  0  0  0  0  0  0  0  0  0
   29.2219  -18.9164   -7.3102 N   0  0  0  0  0  0  0  0  0  0  0  0
   29.1269  -19.4066   -6.0576 C   0  0  0  0  0  0  0  0  0  0  0  0
   30.0462  -19.5822   -5.0285 C   0  0  0  0  0  0  0  0  0  0  0  0
   29.6691  -20.1107   -3.8161 C   0  0  0  0  0  0  0  0  0  0  0  0
   28.3458  -20.4843   -3.5939 C   0  0  0  0  0  0  0  0  0  0  0  0
   27.4391  -20.3079   -4.6200 C   0  0  0  0  0  0  0  0  0  0  0  0
   27.8224  -19.7755   -5.8381 C   0  0  0  0  0  0  0  0  0  0  0  0
   24.2223  -21.7277   -7.0405 C   0  0  0  0  0  0  0  0  0  0  0  0
   23.0431  -21.6368   -7.4103 O   0  0  0  0  0  0  0  0  0  0  0  0
   24.4517  -22.4981   -5.8950 O   0  0  0  0  0  0  0  0  0  0  0  0
  2  1  1  1
  3  2  1  0
  4  6  1  0
  4  2  1  0
  5  4  2  0
  7  8  1  6
  7  6  1  0
  8  9  1  0
  9 10  2  0
 11  7  1  0
 11 14  1  0
 12 11  2  0
 13  9  1  0
 15 14  1  0
 15 26  1  0
 15 16  1  1
 17 16  1  0
 18 17  2  0
 19 20  1  0
 19 18  1  0
 20 25  2  0
 21 22  2  0
 21 20  1  0
 22 23  1  0
 23 24  2  0
 25 17  1  0
 25 24  1  0
 26 28  1  0
 27 26  2  0
M  END
$$$$
