ADW.pdb
     RDKit          3D

 28 29  0  0  1  0  0  0  0  0999 V2000
   31.3856  -23.6861  -11.6190 C   0  0  0  0  0  0  0  0  0  0  0  0
   31.4521  -22.6253  -12.6734 C   0  0  2  0  0  0  0  0  0  0  0  0
   32.6982  -21.8899  -12.6509 N   0  0  0  0  0  0  0  0  0  0  0  0
   30.3352  -21.6531  -12.6108 C   0  0  0  0  0  0  0  0  0  0  0  0
   30.5391  -20.5268  -12.0274 O   0  0  0  0  0  0  0  0  0  0  0  0
   29.0744  -21.9546  -13.1776 N   0  0  0  0  0  0  0  0  0  0  0  0
   28.0283  -21.0010  -13.0387 C   0  0  1  0  0  0  0  0  0  0  0  0
   27.0710  -20.9919  -14.2108 C   0  0  0  0  0  0  0  0  0  0  0  0
   25.9171  -20.1150  -14.0450 C   0  0  0  0  0  0  0  0  0  0  0  0
   24.7817  -20.6037  -13.8361 O   0  0  0  0  0  0  0  0  0  0  0  0
   27.2448  -21.3146  -11.8115 C   0  0  0  0  0  0  0  0  0  0  0  0
   26.8977  -22.5266  -11.6329 O   0  0  0  0  0  0  0  0  0  0  0  0
   25.9807  -18.7115  -14.1022 O   0  0  0  0  0  0  0  0  0  0  0  0
   26.8897  -20.3402  -10.8697 N   0  0  0  0  0  0  0  0  0  0  0  0
   26.3105  -20.7666   -9.5782 C   0  0  1  0  0  0  0  0  0  0  0  0
   27.2006  -20.0807   -8.5491 C   0  0  0  0  0  0  0  0  0  0  0  0
   26.7708  -20.2451   -7.1629 C   0  0  0  0  0  0  0  0  0  0  0  0
   25.6874  -20.9413   -6.6604 C   0  0  0  0  0  0  0  0  0  0  0  0
   25.7471  -20.8006   -5.3241 N   0  0  0  0  0  0  0  0  0  0  0  0
   26.8093  -20.0550   -4.9579 C   0  0  0  0  0  0  0  0  0  0  0  0
   27.3042  -19.6376   -3.7267 C   0  0  0  0  0  0  0  0  0  0  0  0
   28.4423  -18.8707   -3.6370 C   0  0  0  0  0  0  0  0  0  0  0  0
   29.1275  -18.4933   -4.7894 C   0  0  0  0  0  0  0  0  0  0  0  0
   28.6301  -18.9105   -6.0079 C   0  0  0  0  0  0  0  0  0  0  0  0
   27.4851  -19.6823   -6.0938 C   0  0  0  0  0  0  0  0  0  0  0  0
   24.9287  -20.3123   -9.5661 C   0  0  0  0  0  0  0  0  0  0  0  0
   24.0713  -20.7195   -8.7694 O   0  0  0  0  0  0  0  0  0  0  0  0
   24.5030  -19.3555  -10.4943 O   0  0  0  0  0  0  0  0  0  0  0  0
  2  1  1  1
  3  2  1  0
  4  6  1  0
  4  2  1  0
  5  4  2  0
  7  8  1  6
  7  6  1  0
  8  9  1  0
  9 10  2  0
 11  7  1  0
 11 14  1  0
 12 11  2  0
 13  9  1  0
 15 14  1  0
 15 26  1  0
 15 16  1  1
 17 16  1  0
 18 17  2  0
 19 20  1  0
 19 18  1  0
 20 25  2  0
 21 22  2  0
 21 20  1  0
 22 23  1  0
 23 24  2  0
 25 17  1  0
 25 24  1  0
 26 28  1  0
 27 26  2  0
M  END
$$$$
