ADW.pdb
     RDKit          3D

 28 29  0  0  1  0  0  0  0  0999 V2000
   28.2920  -21.4201  -17.6520 C   0  0  0  0  0  0  0  0  0  0  0  0
   28.0466  -21.9943  -16.2912 C   0  0  2  0  0  0  0  0  0  0  0  0
   27.1397  -23.1217  -16.3137 N   0  0  0  0  0  0  0  0  0  0  0  0
   27.5381  -21.0056  -15.3110 C   0  0  0  0  0  0  0  0  0  0  0  0
   28.2223  -19.9367  -15.1122 O   0  0  0  0  0  0  0  0  0  0  0  0
   26.3300  -21.2304  -14.6096 N   0  0  0  0  0  0  0  0  0  0  0  0
   25.8916  -20.2390  -13.6889 C   0  0  1  0  0  0  0  0  0  0  0  0
   24.5597  -19.6257  -14.0633 C   0  0  0  0  0  0  0  0  0  0  0  0
   24.5254  -19.0101  -15.3854 C   0  0  0  0  0  0  0  0  0  0  0  0
   25.1546  -17.9474  -15.5999 O   0  0  0  0  0  0  0  0  0  0  0  0
   25.7472  -20.8571  -12.3415 C   0  0  0  0  0  0  0  0  0  0  0  0
   25.1828  -21.9968  -12.2783 O   0  0  0  0  0  0  0  0  0  0  0  0
   23.8158  -19.5355  -16.4798 O   0  0  0  0  0  0  0  0  0  0  0  0
   26.2050  -20.2384  -11.1710 N   0  0  0  0  0  0  0  0  0  0  0  0
   25.9675  -20.8979   -9.8696 C   0  0  1  0  0  0  0  0  0  0  0  0
   26.9689  -20.2196   -8.9427 C   0  0  0  0  0  0  0  0  0  0  0  0
   26.7758  -20.5021   -7.5227 C   0  0  0  0  0  0  0  0  0  0  0  0
   25.8316  -21.3061   -6.9119 C   0  0  0  0  0  0  0  0  0  0  0  0
   26.0939  -21.2457   -5.5941 N   0  0  0  0  0  0  0  0  0  0  0  0
   27.1520  -20.4487   -5.3420 C   0  0  0  0  0  0  0  0  0  0  0  0
   27.8090  -20.0745   -4.1745 C   0  0  0  0  0  0  0  0  0  0  0  0
   28.8966  -19.2334   -4.2051 C   0  0  0  0  0  0  0  0  0  0  0  0
   29.3652  -18.7350   -5.4183 C   0  0  0  0  0  0  0  0  0  0  0  0
   28.7077  -19.1100   -6.5730 C   0  0  0  0  0  0  0  0  0  0  0  0
   27.6141  -19.9567   -6.5380 C   0  0  0  0  0  0  0  0  0  0  0  0
   24.5762  -20.6544   -9.5220 C   0  0  0  0  0  0  0  0  0  0  0  0
   23.9461  -19.6392   -9.8508 O   0  0  0  0  0  0  0  0  0  0  0  0
   23.8704  -21.6025   -8.7727 O   0  0  0  0  0  0  0  0  0  0  0  0
  2  1  1  6
  3  2  1  0
  4  6  1  0
  4  2  1  0
  5  4  2  0
  7  8  1  6
  7  6  1  0
  8  9  1  0
  9 10  2  0
 11  7  1  0
 11 14  1  0
 12 11  2  0
 13  9  1  0
 15 14  1  0
 15 26  1  0
 15 16  1  1
 17 16  1  0
 18 17  2  0
 19 20  1  0
 19 18  1  0
 20 25  2  0
 21 22  2  0
 21 20  1  0
 22 23  1  0
 23 24  2  0
 25 17  1  0
 25 24  1  0
 26 28  1  0
 27 26  2  0
M  END
$$$$
