ADW.pdb
     RDKit          3D

 28 29  0  0  1  0  0  0  0  0999 V2000
   18.3342  -13.4100  -21.3232 C   0  0  0  0  0  0  0  0  0  0  0  0
   18.6352  -12.9558  -19.9286 C   0  0  2  0  0  0  0  0  0  0  0  0
   18.0622  -13.8221  -18.9210 N   0  0  0  0  0  0  0  0  0  0  0  0
   18.2034  -11.5657  -19.6493 C   0  0  0  0  0  0  0  0  0  0  0  0
   18.7347  -10.6139  -20.3292 O   0  0  0  0  0  0  0  0  0  0  0  0
   17.2313  -11.2899  -18.6589 N   0  0  0  0  0  0  0  0  0  0  0  0
   16.8385   -9.9377  -18.4592 C   0  0  1  0  0  0  0  0  0  0  0  0
   15.3383   -9.7605  -18.3673 C   0  0  0  0  0  0  0  0  0  0  0  0
   14.9022   -8.3869  -18.1416 C   0  0  0  0  0  0  0  0  0  0  0  0
   15.3719   -7.4564  -18.8380 O   0  0  0  0  0  0  0  0  0  0  0  0
   17.4357   -9.4409  -17.1884 C   0  0  0  0  0  0  0  0  0  0  0  0
   17.3393  -10.1913  -16.1642 O   0  0  0  0  0  0  0  0  0  0  0  0
   13.9599   -8.0103  -17.1682 O   0  0  0  0  0  0  0  0  0  0  0  0
   18.0866   -8.2043  -17.0896 N   0  0  0  0  0  0  0  0  0  0  0  0
   18.5961   -7.7636  -15.7739 C   0  0  1  0  0  0  0  0  0  0  0  0
   20.1075   -7.8910  -15.9204 C   0  0  0  0  0  0  0  0  0  0  0  0
   20.8823   -7.1417  -14.9347 C   0  0  0  0  0  0  0  0  0  0  0  0
   21.1500   -7.4516  -13.6143 C   0  0  0  0  0  0  0  0  0  0  0  0
   21.9204   -6.4514  -13.1505 N   0  0  0  0  0  0  0  0  0  0  0  0
   22.1530   -5.5295  -14.1066 C   0  0  0  0  0  0  0  0  0  0  0  0
   22.8781   -4.3426  -14.1327 C   0  0  0  0  0  0  0  0  0  0  0  0
   22.9590   -3.5799  -15.2742 C   0  0  0  0  0  0  0  0  0  0  0  0
   22.3096   -3.9857  -16.4376 C   0  0  0  0  0  0  0  0  0  0  0  0
   21.5913   -5.1643  -16.4042 C   0  0  0  0  0  0  0  0  0  0  0  0
   21.5125   -5.9289  -15.2539 C   0  0  0  0  0  0  0  0  0  0  0  0
   18.1307   -6.3995  -15.5776 C   0  0  0  0  0  0  0  0  0  0  0  0
   17.8050   -5.6379  -16.4993 O   0  0  0  0  0  0  0  0  0  0  0  0
   18.0285   -5.8791  -14.2826 O   0  0  0  0  0  0  0  0  0  0  0  0
  2  1  1  6
  3  2  1  0
  4  6  1  0
  4  2  1  0
  5  4  2  0
  7  8  1  1
  7  6  1  0
  8  9  1  0
  9 10  2  0
 11  7  1  0
 11 14  1  0
 12 11  2  0
 13  9  1  0
 15 14  1  0
 15 26  1  0
 15 16  1  6
 17 16  1  0
 18 17  2  0
 19 20  1  0
 19 18  1  0
 20 25  2  0
 21 22  2  0
 21 20  1  0
 22 23  1  0
 23 24  2  0
 25 17  1  0
 25 24  1  0
 26 28  1  0
 27 26  2  0
M  END
$$$$
