ADW.pdb
     RDKit          3D

 28 29  0  0  1  0  0  0  0  0999 V2000
   30.7856  -23.7843  -20.3585 C   0  0  0  0  0  0  0  0  0  0  0  0
   31.0898  -23.4968  -18.9210 C   0  0  2  0  0  0  0  0  0  0  0  0
   32.4588  -23.8028  -18.5657 N   0  0  0  0  0  0  0  0  0  0  0  0
   30.1933  -24.1976  -17.9713 C   0  0  0  0  0  0  0  0  0  0  0  0
   30.7138  -25.0297  -17.1424 O   0  0  0  0  0  0  0  0  0  0  0  0
   28.7987  -23.9592  -17.9750 N   0  0  0  0  0  0  0  0  0  0  0  0
   27.9982  -24.6313  -17.0106 C   0  0  1  0  0  0  0  0  0  0  0  0
   26.7120  -23.9007  -16.6905 C   0  0  0  0  0  0  0  0  0  0  0  0
   26.8747  -22.7348  -15.8290 C   0  0  0  0  0  0  0  0  0  0  0  0
   28.0128  -22.4167  -15.4109 O   0  0  0  0  0  0  0  0  0  0  0  0
   27.6399  -25.9799  -17.5312 C   0  0  0  0  0  0  0  0  0  0  0  0
   27.3276  -26.0675  -18.7626 O   0  0  0  0  0  0  0  0  0  0  0  0
   25.8152  -21.9078  -15.4158 O   0  0  0  0  0  0  0  0  0  0  0  0
   27.6391  -27.1270  -16.7271 N   0  0  0  0  0  0  0  0  0  0  0  0
   27.2482  -28.4220  -17.3230 C   0  0  1  0  0  0  0  0  0  0  0  0
   28.1608  -29.4219  -16.6235 C   0  0  0  0  0  0  0  0  0  0  0  0
   27.8568  -30.8236  -16.8991 C   0  0  0  0  0  0  0  0  0  0  0  0
   27.6865  -31.4584  -18.1153 C   0  0  0  0  0  0  0  0  0  0  0  0
   27.4446  -32.7494  -17.8260 N   0  0  0  0  0  0  0  0  0  0  0  0
   27.4542  -32.9623  -16.4945 C   0  0  0  0  0  0  0  0  0  0  0  0
   27.2709  -34.0942  -15.7070 C   0  0  0  0  0  0  0  0  0  0  0  0
   27.3444  -34.0296  -14.3352 C   0  0  0  0  0  0  0  0  0  0  0  0
   27.6061  -32.8169  -13.7022 C   0  0  0  0  0  0  0  0  0  0  0  0
   27.7862  -31.6975  -14.4900 C   0  0  0  0  0  0  0  0  0  0  0  0
   27.7119  -31.7668  -15.8698 C   0  0  0  0  0  0  0  0  0  0  0  0
   25.8339  -28.6071  -17.0375 C   0  0  0  0  0  0  0  0  0  0  0  0
   25.0678  -29.2856  -17.7363 O   0  0  0  0  0  0  0  0  0  0  0  0
   25.2664  -27.9993  -15.9119 O   0  0  0  0  0  0  0  0  0  0  0  0
  2  1  1  6
  3  2  1  0
  4  6  1  0
  4  2  1  0
  5  4  2  0
  7  8  1  6
  7  6  1  0
  8  9  1  0
  9 10  2  0
 11  7  1  0
 11 14  1  0
 12 11  2  0
 13  9  1  0
 15 14  1  0
 15 26  1  0
 15 16  1  1
 17 16  1  0
 18 17  2  0
 19 20  1  0
 19 18  1  0
 20 25  2  0
 21 22  2  0
 21 20  1  0
 22 23  1  0
 23 24  2  0
 25 17  1  0
 25 24  1  0
 26 28  1  0
 27 26  2  0
M  END
$$$$
