SSY.pdb
     RDKit          3D

 25 25  0  0  1  0  0  0  0  0999 V2000
   27.2875  -18.9233  -16.8891 O   0  0  0  0  0  0  0  0  0  0  0  0
   28.6873  -18.8780  -17.0084 C   0  0  0  0  0  0  0  0  0  0  0  0
   29.1523  -20.3287  -16.8942 C   0  0  2  0  0  0  0  0  0  0  0  0
   28.5619  -21.0332  -18.0163 N   0  0  0  0  0  0  0  0  0  0  0  0
   28.6441  -20.9539  -15.6447 C   0  0  0  0  0  0  0  0  0  0  0  0
   27.6750  -21.7597  -15.6433 O   0  0  0  0  0  0  0  0  0  0  0  0
   29.7918  -19.5354  -11.8142 O   0  0  0  0  0  0  0  0  0  0  0  0
   29.5109  -20.8916  -11.9557 C   0  0  0  0  0  0  0  0  0  0  0  0
   28.6251  -21.0967  -13.1656 C   0  0  2  0  0  0  0  0  0  0  0  0
   29.2348  -20.6676  -14.3832 N   0  0  0  0  0  0  0  0  0  0  0  0
   27.2798  -20.4762  -12.9560 C   0  0  0  0  0  0  0  0  0  0  0  0
   26.8467  -19.5617  -13.7252 O   0  0  0  0  0  0  0  0  0  0  0  0
   18.8331  -19.6149  -13.0184 O   0  0  0  0  0  0  0  0  0  0  0  0
   20.1865  -19.9522  -12.9967 C   0  0  0  0  0  0  0  0  0  0  0  0
   21.1331  -19.1227  -13.5607 C   0  0  0  0  0  0  0  0  0  0  0  0
   22.4747  -19.4566  -13.5395 C   0  0  0  0  0  0  0  0  0  0  0  0
   22.9324  -20.6257  -12.9585 C   0  0  0  0  0  0  0  0  0  0  0  0
   24.3745  -20.9792  -12.9414 C   0  0  0  0  0  0  0  0  0  0  0  0
   25.1082  -20.4771  -11.7295 C   0  0  2  0  0  0  0  0  0  0  0  0
   26.4906  -20.9372  -11.8674 N   0  0  0  0  0  0  0  0  0  0  0  0
   24.5260  -20.8867  -10.4478 C   0  0  0  0  0  0  0  0  0  0  0  0
   23.5230  -20.1409   -9.8774 O   0  0  0  0  0  0  0  0  0  0  0  0
   21.9803  -21.4520  -12.3955 C   0  0  0  0  0  0  0  0  0  0  0  0
   20.6413  -21.1179  -12.4173 C   0  0  0  0  0  0  0  0  0  0  0  0
   24.9390  -21.9108   -9.8729 O   0  0  0  0  0  0  0  0  0  0  0  0
  1  2  1  0
  3  4  1  6
  3  2  1  0
  5  3  1  0
  5 10  1  0
  6  5  2  0
  8  7  1  0
  9 10  1  0
  9  8  1  1
 11  9  1  0
 12 11  2  0
 13 14  1  0
 14 15  2  0
 15 16  1  0
 17 16  2  0
 17 18  1  0
 19 18  1  6
 19 20  1  0
 20 11  1  0
 21 22  1  0
 21 19  1  0
 23 17  1  0
 24 14  1  0
 24 23  2  0
 25 21  2  0
M  END
$$$$
