SSY.pdb
     RDKit          3D

 25 25  0  0  1  0  0  0  0  0999 V2000
   28.5911  -12.6332  -21.9630 O   0  0  0  0  0  0  0  0  0  0  0  0
   28.1414  -11.4234  -21.4065 C   0  0  0  0  0  0  0  0  0  0  0  0
   28.5453  -11.4781  -19.9342 C   0  0  2  0  0  0  0  0  0  0  0  0
   27.5724  -12.3306  -19.2782 N   0  0  0  0  0  0  0  0  0  0  0  0
   28.4658  -10.1310  -19.3099 C   0  0  0  0  0  0  0  0  0  0  0  0
   27.3649   -9.5844  -19.0311 O   0  0  0  0  0  0  0  0  0  0  0  0
   30.7372   -6.3983  -17.2291 O   0  0  0  0  0  0  0  0  0  0  0  0
   30.9140   -7.5705  -17.9591 C   0  0  0  0  0  0  0  0  0  0  0  0
   29.5634   -8.1049  -18.3844 C   0  0  2  0  0  0  0  0  0  0  0  0
   29.6399   -9.3924  -18.9966 N   0  0  0  0  0  0  0  0  0  0  0  0
   28.8397   -7.1128  -19.2392 C   0  0  0  0  0  0  0  0  0  0  0  0
   28.9902   -7.0936  -20.5011 O   0  0  0  0  0  0  0  0  0  0  0  0
   22.9986   -2.8189  -23.6631 O   0  0  0  0  0  0  0  0  0  0  0  0
   23.8176   -3.6012  -22.8489 C   0  0  0  0  0  0  0  0  0  0  0  0
   25.1856   -3.4257  -22.8415 C   0  0  0  0  0  0  0  0  0  0  0  0
   25.9979   -4.2009  -22.0346 C   0  0  0  0  0  0  0  0  0  0  0  0
   25.4875   -5.1813  -21.2026 C   0  0  0  0  0  0  0  0  0  0  0  0
   26.3659   -6.0119  -20.3404 C   0  0  0  0  0  0  0  0  0  0  0  0
   27.2331   -5.2127  -19.4086 C   0  0  2  0  0  0  0  0  0  0  0  0
   27.9723   -6.1844  -18.6018 N   0  0  0  0  0  0  0  0  0  0  0  0
   26.5090   -4.2518  -18.5708 C   0  0  0  0  0  0  0  0  0  0  0  0
   26.1774   -3.0156  -19.0702 O   0  0  0  0  0  0  0  0  0  0  0  0
   24.1174   -5.3525  -21.2143 C   0  0  0  0  0  0  0  0  0  0  0  0
   23.3075   -4.5781  -22.0201 C   0  0  0  0  0  0  0  0  0  0  0  0
   26.1930   -4.5533  -17.4050 O   0  0  0  0  0  0  0  0  0  0  0  0
  1  2  1  0
  3  4  1  1
  3  2  1  0
  5  3  1  0
  5 10  1  0
  6  5  2  0
  8  7  1  0
  9 10  1  0
  9  8  1  6
 11  9  1  0
 12 11  2  0
 13 14  1  0
 14 15  2  0
 15 16  1  0
 17 16  2  0
 17 18  1  0
 19 18  1  1
 19 20  1  0
 20 11  1  0
 21 22  1  0
 21 19  1  0
 23 17  1  0
 24 14  1  0
 24 23  2  0
 25 21  2  0
M  END
$$$$
