SSY.pdb
     RDKit          3D

 25 25  0  0  1  0  0  0  0  0999 V2000
   22.7832  -35.6336   -1.5783 O   0  0  0  0  0  0  0  0  0  0  0  0
   21.6978  -35.7683   -0.6955 C   0  0  0  0  0  0  0  0  0  0  0  0
   20.6326  -36.5374   -1.4751 C   0  0  2  0  0  0  0  0  0  0  0  0
   21.2019  -37.8402   -1.7621 N   0  0  0  0  0  0  0  0  0  0  0  0
   20.3382  -35.8726   -2.7720 C   0  0  0  0  0  0  0  0  0  0  0  0
   20.7687  -36.3202   -3.8687 O   0  0  0  0  0  0  0  0  0  0  0  0
   18.4325  -32.2161   -2.8708 O   0  0  0  0  0  0  0  0  0  0  0  0
   18.1194  -33.0392   -3.9491 C   0  0  0  0  0  0  0  0  0  0  0  0
   19.1778  -34.1126   -4.0844 C   0  0  2  0  0  0  0  0  0  0  0  0
   19.5499  -34.6905   -2.8331 N   0  0  0  0  0  0  0  0  0  0  0  0
   20.3601  -33.6061   -4.8488 C   0  0  0  0  0  0  0  0  0  0  0  0
   21.5111  -33.5342   -4.3145 O   0  0  0  0  0  0  0  0  0  0  0  0
   27.0251  -32.6786   -9.9889 O   0  0  0  0  0  0  0  0  0  0  0  0
   25.8706  -32.9615   -9.2590 C   0  0  0  0  0  0  0  0  0  0  0  0
   25.8885  -32.9729   -7.8799 C   0  0  0  0  0  0  0  0  0  0  0  0
   24.7444  -33.2533   -7.1559 C   0  0  0  0  0  0  0  0  0  0  0  0
   23.5365  -33.5338   -7.7691 C   0  0  0  0  0  0  0  0  0  0  0  0
   22.3121  -33.8365   -6.9854 C   0  0  0  0  0  0  0  0  0  0  0  0
   21.3026  -32.7230   -6.9823 C   0  0  2  0  0  0  0  0  0  0  0  0
   20.1644  -33.2037   -6.1980 N   0  0  0  0  0  0  0  0  0  0  0  0
   20.8897  -32.2670   -8.3131 C   0  0  0  0  0  0  0  0  0  0  0  0
   19.5690  -32.3359   -8.6856 O   0  0  0  0  0  0  0  0  0  0  0  0
   23.5246  -33.5210   -9.1498 C   0  0  0  0  0  0  0  0  0  0  0  0
   24.6672  -33.2410   -9.8716 C   0  0  0  0  0  0  0  0  0  0  0  0
   21.7343  -31.8164   -9.1090 O   0  0  0  0  0  0  0  0  0  0  0  0
  1  2  1  0
  3  4  1  6
  3  2  1  0
  5  3  1  0
  5 10  1  0
  6  5  2  0
  8  7  1  0
  9 10  1  0
  9  8  1  1
 11  9  1  0
 12 11  2  0
 13 14  1  0
 14 15  2  0
 15 16  1  0
 17 16  2  0
 17 18  1  0
 19 18  1  6
 19 20  1  0
 20 11  1  0
 21 22  1  0
 21 19  1  0
 23 17  1  0
 24 14  1  0
 24 23  2  0
 25 21  2  0
M  END
$$$$
