SSY.pdb
     RDKit          3D

 25 25  0  0  1  0  0  0  0  0999 V2000
   18.0968  -14.6414  -15.1237 O   0  0  0  0  0  0  0  0  0  0  0  0
   19.2933  -14.1824  -15.7008 C   0  0  0  0  0  0  0  0  0  0  0  0
   18.8840  -13.5279  -17.0191 C   0  0  2  0  0  0  0  0  0  0  0  0
   19.7901  -14.0448  -18.0269 N   0  0  0  0  0  0  0  0  0  0  0  0
   19.0622  -12.0530  -16.9591 C   0  0  0  0  0  0  0  0  0  0  0  0
   20.1875  -11.5061  -17.1110 O   0  0  0  0  0  0  0  0  0  0  0  0
   15.9754   -9.3268  -15.7603 O   0  0  0  0  0  0  0  0  0  0  0  0
   16.8470   -9.0002  -16.7957 C   0  0  0  0  0  0  0  0  0  0  0  0
   18.1377   -9.7723  -16.6270 C   0  0  2  0  0  0  0  0  0  0  0  0
   17.9599  -11.1854  -16.7253 N   0  0  0  0  0  0  0  0  0  0  0  0
   18.8385   -9.3756  -15.3660 C   0  0  0  0  0  0  0  0  0  0  0  0
   18.6576  -10.0123  -14.2810 O   0  0  0  0  0  0  0  0  0  0  0  0
   24.6552   -4.5876  -17.7824 O   0  0  0  0  0  0  0  0  0  0  0  0
   23.9622   -5.4468  -16.9296 C   0  0  0  0  0  0  0  0  0  0  0  0
   23.5155   -6.6751  -17.3701 C   0  0  0  0  0  0  0  0  0  0  0  0
   22.8285   -7.5271  -16.5252 C   0  0  0  0  0  0  0  0  0  0  0  0
   22.5565   -7.1965  -15.2097 C   0  0  0  0  0  0  0  0  0  0  0  0
   21.8161   -8.1154  -14.3084 C   0  0  0  0  0  0  0  0  0  0  0  0
   20.3544   -7.7908  -14.1783 C   0  0  2  0  0  0  0  0  0  0  0  0
   19.7189   -8.2604  -15.4100 N   0  0  0  0  0  0  0  0  0  0  0  0
   20.0613   -6.3772  -13.9222 C   0  0  0  0  0  0  0  0  0  0  0  0
   20.3515   -5.8245  -12.6984 O   0  0  0  0  0  0  0  0  0  0  0  0
   23.0061   -5.9658  -14.7742 C   0  0  0  0  0  0  0  0  0  0  0  0
   23.6918   -5.1159  -15.6185 C   0  0  0  0  0  0  0  0  0  0  0  0
   19.5486   -5.6743  -14.8127 O   0  0  0  0  0  0  0  0  0  0  0  0
  1  2  1  0
  3  4  1  6
  3  2  1  0
  5  3  1  0
  5 10  1  0
  6  5  2  0
  8  7  1  0
  9 10  1  0
  9  8  1  1
 11  9  1  0
 12 11  2  0
 13 14  1  0
 14 15  2  0
 15 16  1  0
 17 16  2  0
 17 18  1  0
 19 18  1  6
 19 20  1  0
 20 11  1  0
 21 22  1  0
 21 19  1  0
 23 17  1  0
 24 14  1  0
 24 23  2  0
 25 21  2  0
M  END
$$$$
