MAE.pdb
     RDKit          3D

 23 22  0  0  1  0  0  0  0  0999 V2000
   24.2294  -17.4103  -15.0845 C   0  0  0  0  0  0  0  0  0  0  0  0
   23.5744  -15.7574  -15.4509 S   0  0  0  0  0  0  0  0  0  0  0  0
   24.9128  -14.5425  -15.5832 C   0  0  0  0  0  0  0  0  0  0  0  0
   24.3180  -13.1641  -15.8023 C   0  0  0  0  0  0  0  0  0  0  0  0
   23.1378  -13.2168  -16.7454 C   0  0  2  0  0  0  0  0  0  0  0  0
   23.6020  -13.6251  -18.0362 N   0  0  0  0  0  0  0  0  0  0  0  0
   22.5333  -11.8582  -16.7565 C   0  0  0  0  0  0  0  0  0  0  0  0
   23.1080  -10.9132  -17.3550 O   0  0  0  0  0  0  0  0  0  0  0  0
   19.1850  -10.3053  -15.8802 C   0  0  0  0  0  0  0  0  0  0  0  0
   20.6483  -10.2737  -16.2003 C   0  0  2  0  0  0  0  0  0  0  0  0
   21.3028  -11.5463  -16.1108 N   0  0  0  0  0  0  0  0  0  0  0  0
   21.3844   -9.2062  -15.4703 C   0  0  0  0  0  0  0  0  0  0  0  0
   21.9459   -9.4860  -14.3807 O   0  0  0  0  0  0  0  0  0  0  0  0
   21.4871   -7.8770  -15.9437 N   0  0  0  0  0  0  0  0  0  0  0  0
   22.1404   -6.8200  -15.1739 C   0  0  1  0  0  0  0  0  0  0  0  0
   22.2313   -5.6185  -16.0642 C   0  0  0  0  0  0  0  0  0  0  0  0
   22.8533   -4.4083  -15.4297 C   0  0  0  0  0  0  0  0  0  0  0  0
   22.8574   -3.2797  -16.3609 C   0  0  0  0  0  0  0  0  0  0  0  0
   22.5695   -2.1124  -16.0725 O   0  0  0  0  0  0  0  0  0  0  0  0
   21.3297   -6.5153  -13.9440 C   0  0  0  0  0  0  0  0  0  0  0  0
   21.9433   -6.1377  -12.7619 O   0  0  0  0  0  0  0  0  0  0  0  0
   23.2188   -3.5507  -17.6902 O   0  0  0  0  0  0  0  0  0  0  0  0
   20.0752   -6.5931  -13.9484 O   0  0  0  0  0  0  0  0  0  0  0  0
  1  2  1  0
  3  2  1  0
  4  3  1  0
  5  4  1  0
  5  7  1  0
  5  6  1  6
  7  8  2  0
 10  9  1  1
 11  7  1  0
 11 10  1  0
 12 10  1  0
 12 14  1  0
 13 12  2  0
 15 20  1  0
 15 14  1  0
 15 16  1  6
 17 16  1  0
 17 18  1  0
 18 22  1  0
 19 18  2  0
 20 21  1  0
 23 20  2  0
M  END
$$$$
