MAE.pdb
     RDKit          3D

 23 22  0  0  1  0  0  0  0  0999 V2000
   31.6283  -23.8516  -21.6420 C   0  0  0  0  0  0  0  0  0  0  0  0
   32.3015  -24.4208  -20.0551 S   0  0  0  0  0  0  0  0  0  0  0  0
   31.1282  -25.5088  -19.2041 C   0  0  0  0  0  0  0  0  0  0  0  0
   29.9606  -24.6849  -18.6944 C   0  0  0  0  0  0  0  0  0  0  0  0
   30.2721  -24.0573  -17.3549 C   0  0  2  0  0  0  0  0  0  0  0  0
   30.4792  -25.1013  -16.3982 N   0  0  0  0  0  0  0  0  0  0  0  0
   29.1198  -23.1831  -17.0097 C   0  0  0  0  0  0  0  0  0  0  0  0
   28.1435  -23.6454  -16.3658 O   0  0  0  0  0  0  0  0  0  0  0  0
   28.3174  -19.4778  -17.0323 C   0  0  0  0  0  0  0  0  0  0  0  0
   27.9708  -20.9351  -17.0048 C   0  0  2  0  0  0  0  0  0  0  0  0
   29.0470  -21.8081  -17.3734 N   0  0  0  0  0  0  0  0  0  0  0  0
   26.7115  -21.2512  -17.7318 C   0  0  0  0  0  0  0  0  0  0  0  0
   26.7765  -21.6551  -18.9206 O   0  0  0  0  0  0  0  0  0  0  0  0
   25.4293  -21.1199  -17.1484 N   0  0  0  0  0  0  0  0  0  0  0  0
   24.1995  -21.3812  -17.8938 C   0  0  1  0  0  0  0  0  0  0  0  0
   23.1538  -21.7735  -16.8952 C   0  0  0  0  0  0  0  0  0  0  0  0
   21.8082  -22.0896  -17.4813 C   0  0  0  0  0  0  0  0  0  0  0  0
   20.8585  -22.4554  -16.4301 C   0  0  0  0  0  0  0  0  0  0  0  0
   19.6524  -22.6698  -16.5976 O   0  0  0  0  0  0  0  0  0  0  0  0
   23.7883  -20.1422  -18.6412 C   0  0  0  0  0  0  0  0  0  0  0  0
   23.1979  -20.2270  -19.8906 O   0  0  0  0  0  0  0  0  0  0  0  0
   21.3643  -22.5710  -15.1254 O   0  0  0  0  0  0  0  0  0  0  0  0
   23.9661  -18.9951  -18.1594 O   0  0  0  0  0  0  0  0  0  0  0  0
  1  2  1  0
  3  2  1  0
  4  3  1  0
  5  4  1  0
  5  7  1  0
  5  6  1  1
  7  8  2  0
 10  9  1  6
 11  7  1  0
 11 10  1  0
 12 10  1  0
 12 14  1  0
 13 12  2  0
 15 20  1  0
 15 14  1  0
 15 16  1  1
 17 16  1  0
 17 18  1  0
 18 22  1  0
 19 18  2  0
 20 21  1  0
 23 20  2  0
M  END
$$$$
