MAE.pdb
     RDKit          3D

 23 22  0  0  1  0  0  0  0  0999 V2000
   29.7445  -16.5089  -16.5329 C   0  0  0  0  0  0  0  0  0  0  0  0
   28.7323  -17.6190  -15.5140 S   0  0  0  0  0  0  0  0  0  0  0  0
   27.6039  -18.5963  -16.5419 C   0  0  0  0  0  0  0  0  0  0  0  0
   26.7173  -19.4421  -15.6473 C   0  0  0  0  0  0  0  0  0  0  0  0
   27.5351  -20.3796  -14.7886 C   0  0  2  0  0  0  0  0  0  0  0  0
   28.1642  -21.3451  -15.6372 N   0  0  0  0  0  0  0  0  0  0  0  0
   26.5991  -20.9974  -13.8121 C   0  0  0  0  0  0  0  0  0  0  0  0
   25.7863  -21.8816  -14.1849 O   0  0  0  0  0  0  0  0  0  0  0  0
   25.7347  -20.6448  -10.1112 C   0  0  0  0  0  0  0  0  0  0  0  0
   25.4680  -20.9392  -11.5558 C   0  0  2  0  0  0  0  0  0  0  0  0
   26.5616  -20.6405  -12.4339 N   0  0  0  0  0  0  0  0  0  0  0  0
   24.1812  -20.3710  -12.0413 C   0  0  0  0  0  0  0  0  0  0  0  0
   24.1589  -19.1920  -12.4772 O   0  0  0  0  0  0  0  0  0  0  0  0
   22.9669  -21.0968  -12.0384 N   0  0  0  0  0  0  0  0  0  0  0  0
   21.7258  -20.5485  -12.5821 C   0  0  1  0  0  0  0  0  0  0  0  0
   21.8055  -20.6718  -14.0731 C   0  0  0  0  0  0  0  0  0  0  0  0
   20.6087  -20.1502  -14.8145 C   0  0  0  0  0  0  0  0  0  0  0  0
   20.7574  -20.3649  -16.2541 C   0  0  0  0  0  0  0  0  0  0  0  0
   21.6550  -21.0245  -16.7908 O   0  0  0  0  0  0  0  0  0  0  0  0
   20.5528  -21.3205  -12.0427 C   0  0  0  0  0  0  0  0  0  0  0  0
   19.2956  -20.7458  -11.9677 O   0  0  0  0  0  0  0  0  0  0  0  0
   19.7988  -19.7706  -17.0903 O   0  0  0  0  0  0  0  0  0  0  0  0
   20.6743  -22.5063  -11.6442 O   0  0  0  0  0  0  0  0  0  0  0  0
  1  2  1  0
  3  2  1  0
  4  3  1  0
  5  4  1  0
  5  7  1  0
  5  6  1  6
  7  8  2  0
 10  9  1  1
 11  7  1  0
 11 10  1  0
 12 10  1  0
 12 14  1  0
 13 12  2  0
 15 20  1  0
 15 14  1  0
 15 16  1  6
 17 16  1  0
 17 18  1  0
 18 22  1  0
 19 18  2  0
 20 21  1  0
 23 20  2  0
M  END
$$$$
