MAE.pdb
     RDKit          3D

 23 22  0  0  1  0  0  0  0  0999 V2000
   10.4827  -11.8148  -12.8455 C   0  0  0  0  0  0  0  0  0  0  0  0
   11.8481  -10.6643  -13.1732 S   0  0  0  0  0  0  0  0  0  0  0  0
   13.4207  -11.3333  -12.5695 C   0  0  0  0  0  0  0  0  0  0  0  0
   14.5562  -10.4427  -13.0378 C   0  0  0  0  0  0  0  0  0  0  0  0
   15.8971  -10.9785  -12.5907 C   0  0  2  0  0  0  0  0  0  0  0  0
   16.0078  -10.8089  -11.1740 N   0  0  0  0  0  0  0  0  0  0  0  0
   16.9354  -10.2239  -13.3417 C   0  0  0  0  0  0  0  0  0  0  0  0
   17.2168   -9.0411  -13.0200 O   0  0  0  0  0  0  0  0  0  0  0  0
   19.3879  -10.8796  -16.1927 C   0  0  0  0  0  0  0  0  0  0  0  0
   18.6264  -10.0461  -15.2078 C   0  0  2  0  0  0  0  0  0  0  0  0
   17.6573  -10.7724  -14.4400 N   0  0  0  0  0  0  0  0  0  0  0  0
   18.0613   -8.8053  -15.8039 C   0  0  0  0  0  0  0  0  0  0  0  0
   16.8483   -8.7826  -16.1337 O   0  0  0  0  0  0  0  0  0  0  0  0
   18.8266   -7.6355  -16.0217 N   0  0  0  0  0  0  0  0  0  0  0  0
   18.2545   -6.4227  -16.6034 C   0  0  1  0  0  0  0  0  0  0  0  0
   17.2331   -5.9090  -15.6352 C   0  0  0  0  0  0  0  0  0  0  0  0
   16.6403   -4.5762  -15.9909 C   0  0  0  0  0  0  0  0  0  0  0  0
   15.6896   -4.1425  -14.9668 C   0  0  0  0  0  0  0  0  0  0  0  0
   14.4671   -4.3246  -15.0014 O   0  0  0  0  0  0  0  0  0  0  0  0
   19.3414   -5.4067  -16.8247 C   0  0  0  0  0  0  0  0  0  0  0  0
   20.5580   -5.5115  -16.1724 O   0  0  0  0  0  0  0  0  0  0  0  0
   16.2145   -3.4640  -13.8552 O   0  0  0  0  0  0  0  0  0  0  0  0
   19.1823   -4.4340  -17.6046 O   0  0  0  0  0  0  0  0  0  0  0  0
  1  2  1  0
  3  2  1  0
  4  3  1  0
  5  4  1  0
  5  7  1  0
  5  6  1  1
  7  8  2  0
 10  9  1  6
 11  7  1  0
 11 10  1  0
 12 10  1  0
 12 14  1  0
 13 12  2  0
 15 20  1  0
 15 14  1  0
 15 16  1  1
 17 16  1  0
 17 18  1  0
 18 22  1  0
 19 18  2  0
 20 21  1  0
 23 20  2  0
M  END
$$$$
