MAE.pdb
     RDKit          3D

 23 22  0  0  1  0  0  0  0  0999 V2000
   25.3469  -24.8354  -16.9716 C   0  0  0  0  0  0  0  0  0  0  0  0
   27.0667  -24.4799  -16.5118 S   0  0  0  0  0  0  0  0  0  0  0  0
   27.3738  -22.6940  -16.4759 C   0  0  0  0  0  0  0  0  0  0  0  0
   26.1140  -21.9784  -16.0259 C   0  0  0  0  0  0  0  0  0  0  0  0
   26.3092  -20.4795  -16.0049 C   0  0  2  0  0  0  0  0  0  0  0  0
   27.4010  -20.1730  -15.1318 N   0  0  0  0  0  0  0  0  0  0  0  0
   25.0254  -19.8835  -15.5491 C   0  0  0  0  0  0  0  0  0  0  0  0
   24.6073  -20.0942  -14.3819 O   0  0  0  0  0  0  0  0  0  0  0  0
   22.7218  -17.0957  -16.4384 C   0  0  0  0  0  0  0  0  0  0  0  0
   22.9566  -18.4978  -15.9656 C   0  0  2  0  0  0  0  0  0  0  0  0
   24.2095  -19.0608  -16.3772 N   0  0  0  0  0  0  0  0  0  0  0  0
   21.8108  -19.4073  -16.2384 C   0  0  0  0  0  0  0  0  0  0  0  0
   21.8964  -20.2324  -17.1832 O   0  0  0  0  0  0  0  0  0  0  0  0
   20.6159  -19.3923  -15.4812 N   0  0  0  0  0  0  0  0  0  0  0  0
   19.4578  -20.2132  -15.8298 C   0  0  1  0  0  0  0  0  0  0  0  0
   18.7336  -20.5178  -14.5541 C   0  0  0  0  0  0  0  0  0  0  0  0
   17.4455  -21.2702  -14.7236 C   0  0  0  0  0  0  0  0  0  0  0  0
   16.7053  -21.3204  -13.4625 C   0  0  0  0  0  0  0  0  0  0  0  0
   17.0808  -20.8292  -12.3918 O   0  0  0  0  0  0  0  0  0  0  0  0
   18.5711  -19.4584  -16.7820 C   0  0  0  0  0  0  0  0  0  0  0  0
   17.7775  -20.1271  -17.6983 O   0  0  0  0  0  0  0  0  0  0  0  0
   15.4672  -21.9824  -13.4752 O   0  0  0  0  0  0  0  0  0  0  0  0
   18.5214  -18.2025  -16.7777 O   0  0  0  0  0  0  0  0  0  0  0  0
  1  2  1  0
  3  2  1  0
  4  3  1  0
  5  4  1  0
  5  7  1  0
  5  6  1  1
  7  8  2  0
 10  9  1  6
 11  7  1  0
 11 10  1  0
 12 10  1  0
 12 14  1  0
 13 12  2  0
 15 20  1  0
 15 14  1  0
 15 16  1  1
 17 16  1  0
 17 18  1  0
 18 22  1  0
 19 18  2  0
 20 21  1  0
 23 20  2  0
M  END
$$$$
