MAE.pdb
     RDKit          3D

 23 22  0  0  1  0  0  0  0  0999 V2000
   27.5168  -13.6212  -15.0970 C   0  0  0  0  0  0  0  0  0  0  0  0
   28.1696  -12.1073  -15.8568 S   0  0  0  0  0  0  0  0  0  0  0  0
   27.3386  -11.7590  -17.4294 C   0  0  0  0  0  0  0  0  0  0  0  0
   26.0770  -10.9596  -17.1627 C   0  0  0  0  0  0  0  0  0  0  0  0
   24.9394  -11.8545  -16.7266 C   0  0  2  0  0  0  0  0  0  0  0  0
   24.5508  -12.6725  -17.8348 N   0  0  0  0  0  0  0  0  0  0  0  0
   23.8444  -10.9635  -16.2594 C   0  0  0  0  0  0  0  0  0  0  0  0
   23.0921  -10.3936  -17.0906 O   0  0  0  0  0  0  0  0  0  0  0  0
   22.1213  -10.1097  -12.9891 C   0  0  0  0  0  0  0  0  0  0  0  0
   22.5204   -9.8642  -14.4121 C   0  0  2  0  0  0  0  0  0  0  0  0
   23.5826  -10.7042  -14.8837 N   0  0  0  0  0  0  0  0  0  0  0  0
   22.7595   -8.4268  -14.7137 C   0  0  0  0  0  0  0  0  0  0  0  0
   23.9348   -8.0332  -14.9240 O   0  0  0  0  0  0  0  0  0  0  0  0
   21.7210   -7.4682  -14.7771 N   0  0  0  0  0  0  0  0  0  0  0  0
   21.9692   -6.0656  -15.1052 C   0  0  1  0  0  0  0  0  0  0  0  0
   20.7817   -5.5767  -15.8768 C   0  0  0  0  0  0  0  0  0  0  0  0
   20.6497   -6.1458  -17.2599 C   0  0  0  0  0  0  0  0  0  0  0  0
   19.4242   -5.6688  -17.9013 C   0  0  0  0  0  0  0  0  0  0  0  0
   19.3627   -4.7727  -18.7510 O   0  0  0  0  0  0  0  0  0  0  0  0
   22.1479   -5.2739  -13.8387 C   0  0  0  0  0  0  0  0  0  0  0  0
   22.8588   -4.0859  -13.8356 O   0  0  0  0  0  0  0  0  0  0  0  0
   18.2218   -6.2831  -17.5162 O   0  0  0  0  0  0  0  0  0  0  0  0
   21.6608   -5.6623  -12.7471 O   0  0  0  0  0  0  0  0  0  0  0  0
  1  2  1  0
  3  2  1  0
  4  3  1  0
  5  4  1  0
  5  7  1  0
  5  6  1  6
  7  8  2  0
 10  9  1  1
 11  7  1  0
 11 10  1  0
 12 10  1  0
 12 14  1  0
 13 12  2  0
 15 20  1  0
 15 14  1  0
 15 16  1  1
 17 16  1  0
 17 18  1  0
 18 22  1  0
 19 18  2  0
 20 21  1  0
 23 20  2  0
M  END
$$$$
