MAE.pdb
     RDKit          3D

 23 22  0  0  1  0  0  0  0  0999 V2000
   19.9649  -12.0830  -22.6813 C   0  0  0  0  0  0  0  0  0  0  0  0
   20.3893  -11.3192  -21.0901 S   0  0  0  0  0  0  0  0  0  0  0  0
   18.9059  -10.7105  -20.2451 C   0  0  0  0  0  0  0  0  0  0  0  0
   19.3103  -10.0341  -18.9487 C   0  0  0  0  0  0  0  0  0  0  0  0
   19.6583  -11.0482  -17.8831 C   0  0  2  0  0  0  0  0  0  0  0  0
   18.4869  -11.8119  -17.5789 N   0  0  0  0  0  0  0  0  0  0  0  0
   20.1665  -10.2860  -16.7118 C   0  0  0  0  0  0  0  0  0  0  0  0
   19.3900   -9.5549  -16.0454 O   0  0  0  0  0  0  0  0  0  0  0  0
   23.4072   -9.9776  -14.7299 C   0  0  0  0  0  0  0  0  0  0  0  0
   22.0476   -9.5540  -15.1953 C   0  0  2  0  0  0  0  0  0  0  0  0
   21.5229  -10.3315  -16.2799 N   0  0  0  0  0  0  0  0  0  0  0  0
   21.9439   -8.0910  -15.4461 C   0  0  0  0  0  0  0  0  0  0  0  0
   22.2862   -7.6368  -16.5673 O   0  0  0  0  0  0  0  0  0  0  0  0
   21.4746   -7.1730  -14.4773 N   0  0  0  0  0  0  0  0  0  0  0  0
   21.4968   -5.7275  -14.6929 C   0  0  1  0  0  0  0  0  0  0  0  0
   20.0718   -5.2721  -14.7744 C   0  0  0  0  0  0  0  0  0  0  0  0
   19.3846   -5.5782  -16.0738 C   0  0  0  0  0  0  0  0  0  0  0  0
   17.9876   -5.1449  -16.0353 C   0  0  0  0  0  0  0  0  0  0  0  0
   17.4096   -4.6782  -15.0470 O   0  0  0  0  0  0  0  0  0  0  0  0
   22.2090   -5.0566  -13.5503 C   0  0  0  0  0  0  0  0  0  0  0  0
   22.6365   -3.7436  -13.6499 O   0  0  0  0  0  0  0  0  0  0  0  0
   17.2473   -5.2721  -17.2215 O   0  0  0  0  0  0  0  0  0  0  0  0
   22.4386   -5.6622  -12.4732 O   0  0  0  0  0  0  0  0  0  0  0  0
  1  2  1  0
  3  2  1  0
  4  3  1  0
  5  4  1  0
  5  7  1  0
  5  6  1  1
  7  8  2  0
 10  9  1  6
 11  7  1  0
 11 10  1  0
 12 10  1  0
 12 14  1  0
 13 12  2  0
 15 20  1  0
 15 14  1  0
 15 16  1  1
 17 16  1  0
 17 18  1  0
 18 22  1  0
 19 18  2  0
 20 21  1  0
 23 20  2  0
M  END
$$$$
