QCT.pdb
     RDKit          3D

 23 22  0  0  1  0  0  0  0  0999 V2000
   16.2231  -14.4154  -15.8274 N   0  0  0  0  0  0  0  0  0  0  0  0
   15.8175  -13.6656  -16.9582 C   0  0  0  0  0  0  0  0  0  0  0  0
   15.1203  -14.2452  -17.8287 O   0  0  0  0  0  0  0  0  0  0  0  0
   16.1710  -12.2461  -17.1638 C   0  0  0  0  0  0  0  0  0  0  0  0
   17.0184  -11.7036  -16.0360 C   0  0  0  0  0  0  0  0  0  0  0  0
   18.3039  -11.1784  -16.6360 C   0  0  2  0  0  0  0  0  0  0  0  0
   19.0287  -12.3325  -17.1435 N   0  0  0  0  0  0  0  0  0  0  0  0
   19.1483  -10.5010  -15.6178 C   0  0  0  0  0  0  0  0  0  0  0  0
   18.7383  -10.4056  -14.4214 O   0  0  0  0  0  0  0  0  0  0  0  0
   20.4097   -9.9533  -15.9465 N   0  0  0  0  0  0  0  0  0  0  0  0
   21.2666   -9.3262  -14.9291 C   0  0  1  0  0  0  0  0  0  0  0  0
   22.6065  -10.0652  -14.8894 C   0  0  0  0  0  0  0  0  0  0  0  0
   23.7483   -9.1986  -13.7748 S   0  0  0  0  0  0  0  0  0  0  0  0
   21.5423   -7.9339  -15.3581 C   0  0  0  0  0  0  0  0  0  0  0  0
   22.0351   -7.6855  -16.4727 O   0  0  0  0  0  0  0  0  0  0  0  0
   19.3560   -5.3564  -16.0983 C   0  0  0  0  0  0  0  0  0  0  0  0
   20.1650   -4.7791  -14.9654 C   0  0  1  0  0  0  0  0  0  0  0  0
   19.4842   -4.9437  -13.7595 O   0  0  0  0  0  0  0  0  0  0  0  0
   21.4979   -5.4717  -14.8360 C   0  0  2  0  0  0  0  0  0  0  0  0
   21.2457   -6.8516  -14.4960 N   0  0  0  0  0  0  0  0  0  0  0  0
   22.3187   -4.8425  -13.7703 C   0  0  0  0  0  0  0  0  0  0  0  0
   22.7956   -3.5486  -13.9145 O   0  0  0  0  0  0  0  0  0  0  0  0
   22.5911   -5.4654  -12.7326 O   0  0  0  0  0  0  0  0  0  0  0  0
  1  2  1  0
  2  3  2  0
  4  2  1  0
  4  5  1  0
  5  6  1  0
  6  8  1  0
  6  7  1  1
  8 10  1  0
  8  9  2  0
 10 11  1  0
 11 14  1  0
 11 12  1  6
 13 12  1  0
 14 20  1  0
 14 15  2  0
 17 16  1  6
 17 19  1  0
 17 18  1  0
 19 21  1  0
 19 20  1  1
 21 22  1  0
 23 21  2  0
M  END
$$$$
