QCT.pdb
     RDKit          3D

 23 22  0  0  1  0  0  0  0  0999 V2000
   16.8475  -10.9565  -18.4885 N   0  0  0  0  0  0  0  0  0  0  0  0
   17.5534  -12.1826  -18.4268 C   0  0  0  0  0  0  0  0  0  0  0  0
   17.3644  -13.0169  -19.3476 O   0  0  0  0  0  0  0  0  0  0  0  0
   18.4943  -12.5269  -17.3412 C   0  0  0  0  0  0  0  0  0  0  0  0
   18.5466  -11.4568  -16.2752 C   0  0  0  0  0  0  0  0  0  0  0  0
   19.3343  -10.2906  -16.8300 C   0  0  2  0  0  0  0  0  0  0  0  0
   20.6554  -10.8001  -17.1612 N   0  0  0  0  0  0  0  0  0  0  0  0
   19.4852   -9.2036  -15.8278 C   0  0  0  0  0  0  0  0  0  0  0  0
   18.4679   -8.7794  -15.2003 O   0  0  0  0  0  0  0  0  0  0  0  0
   20.7432   -8.6215  -15.5494 N   0  0  0  0  0  0  0  0  0  0  0  0
   20.9078   -7.6085  -14.4963 C   0  0  1  0  0  0  0  0  0  0  0  0
   22.1917   -7.9093  -13.7190 C   0  0  0  0  0  0  0  0  0  0  0  0
   22.3900   -6.7017  -12.3776 S   0  0  0  0  0  0  0  0  0  0  0  0
   21.0870   -6.2910  -15.1526 C   0  0  0  0  0  0  0  0  0  0  0  0
   21.8767   -6.1428  -16.1021 O   0  0  0  0  0  0  0  0  0  0  0  0
   18.1343   -4.1665  -16.3174 C   0  0  0  0  0  0  0  0  0  0  0  0
   19.0011   -3.3341  -15.4079 C   0  0  1  0  0  0  0  0  0  0  0  0
   18.4853   -3.3473  -14.1123 O   0  0  0  0  0  0  0  0  0  0  0  0
   20.4070   -3.8749  -15.3456 C   0  0  2  0  0  0  0  0  0  0  0  0
   20.3536   -5.1668  -14.7042 N   0  0  0  0  0  0  0  0  0  0  0  0
   21.2865   -2.9704  -14.5622 C   0  0  0  0  0  0  0  0  0  0  0  0
   21.8264   -3.3801  -13.3526 O   0  0  0  0  0  0  0  0  0  0  0  0
   21.5526   -1.8324  -14.9781 O   0  0  0  0  0  0  0  0  0  0  0  0
  1  2  1  0
  2  3  2  0
  4  2  1  0
  4  5  1  0
  5  6  1  0
  6  8  1  0
  6  7  1  1
  8 10  1  0
  8  9  2  0
 10 11  1  0
 11 14  1  0
 11 12  1  6
 13 12  1  0
 14 20  1  0
 14 15  2  0
 17 16  1  6
 17 19  1  0
 17 18  1  0
 19 21  1  0
 19 20  1  1
 21 22  1  0
 23 21  2  0
M  END
$$$$
