QCT.pdb
     RDKit          3D

 23 22  0  0  1  0  0  0  0  0999 V2000
   20.4664  -15.2985  -16.1371 N   0  0  0  0  0  0  0  0  0  0  0  0
   20.9536  -14.6056  -17.2720 C   0  0  0  0  0  0  0  0  0  0  0  0
   21.0363  -15.2369  -18.3556 O   0  0  0  0  0  0  0  0  0  0  0  0
   21.3666  -13.1875  -17.2452 C   0  0  0  0  0  0  0  0  0  0  0  0
   21.2312  -12.5833  -15.8665 C   0  0  0  0  0  0  0  0  0  0  0  0
   20.0700  -11.6143  -15.8991 C   0  0  2  0  0  0  0  0  0  0  0  0
   19.7130  -11.4390  -17.2979 N   0  0  0  0  0  0  0  0  0  0  0  0
   20.4441  -10.2901  -15.3378 C   0  0  0  0  0  0  0  0  0  0  0  0
   21.3945  -10.2055  -14.5022 O   0  0  0  0  0  0  0  0  0  0  0  0
   19.7647   -9.1079  -15.7116 N   0  0  0  0  0  0  0  0  0  0  0  0
   20.1288   -7.7988  -15.1492 C   0  0  1  0  0  0  0  0  0  0  0  0
   21.5835   -7.4927  -15.5141 C   0  0  0  0  0  0  0  0  0  0  0  0
   21.9939   -5.7960  -15.0141 S   0  0  0  0  0  0  0  0  0  0  0  0
   19.2836   -6.7695  -15.8011 C   0  0  0  0  0  0  0  0  0  0  0  0
   19.3175   -6.5882  -17.0311 O   0  0  0  0  0  0  0  0  0  0  0  0
   15.7182   -6.6759  -15.8971 C   0  0  0  0  0  0  0  0  0  0  0  0
   16.1115   -5.3836  -15.2287 C   0  0  1  0  0  0  0  0  0  0  0  0
   16.0566   -5.5265  -13.8425 O   0  0  0  0  0  0  0  0  0  0  0  0
   17.5196   -4.9859  -15.5918 C   0  0  2  0  0  0  0  0  0  0  0  0
   18.4140   -5.9669  -15.0251 N   0  0  0  0  0  0  0  0  0  0  0  0
   17.8472   -3.6446  -15.0449 C   0  0  0  0  0  0  0  0  0  0  0  0
   17.2014   -2.5112  -15.5146 O   0  0  0  0  0  0  0  0  0  0  0  0
   18.7050   -3.5168  -14.1579 O   0  0  0  0  0  0  0  0  0  0  0  0
  1  2  1  0
  2  3  2  0
  4  2  1  0
  4  5  1  0
  5  6  1  0
  6  8  1  0
  6  7  1  6
  8 10  1  0
  8  9  2  0
 10 11  1  0
 11 14  1  0
 11 12  1  6
 13 12  1  0
 14 20  1  0
 14 15  2  0
 17 16  1  6
 17 19  1  0
 17 18  1  0
 19 21  1  0
 19 20  1  1
 21 22  1  0
 23 21  2  0
M  END
$$$$
