QCT.pdb
     RDKit          3D

 23 22  0  0  1  0  0  0  0  0999 V2000
   19.8138   -8.4829  -19.2195 N   0  0  0  0  0  0  0  0  0  0  0  0
   19.0633   -9.6784  -19.3348 C   0  0  0  0  0  0  0  0  0  0  0  0
   19.1487  -10.3247  -20.4094 O   0  0  0  0  0  0  0  0  0  0  0  0
   18.1915  -10.1995  -18.2622 C   0  0  0  0  0  0  0  0  0  0  0  0
   18.1203   -9.2583  -17.0817 C   0  0  0  0  0  0  0  0  0  0  0  0
   19.2980   -9.5580  -16.1808 C   0  0  2  0  0  0  0  0  0  0  0  0
   18.9359  -10.7284  -15.3974 N   0  0  0  0  0  0  0  0  0  0  0  0
   19.5765   -8.4341  -15.2493 C   0  0  0  0  0  0  0  0  0  0  0  0
   18.8644   -8.2856  -14.2103 O   0  0  0  0  0  0  0  0  0  0  0  0
   20.6234   -7.5147  -15.4891 N   0  0  0  0  0  0  0  0  0  0  0  0
   20.8851   -6.3898  -14.5787 C   0  0  1  0  0  0  0  0  0  0  0  0
   22.2055   -6.6443  -13.8473 C   0  0  0  0  0  0  0  0  0  0  0  0
   22.6521   -5.1820  -12.8679 S   0  0  0  0  0  0  0  0  0  0  0  0
   21.0633   -5.1683  -15.4002 C   0  0  0  0  0  0  0  0  0  0  0  0
   21.9183   -5.1135  -16.3019 O   0  0  0  0  0  0  0  0  0  0  0  0
   18.1641   -3.4341  -17.1512 C   0  0  0  0  0  0  0  0  0  0  0  0
   18.8650   -2.4345  -16.2675 C   0  0  1  0  0  0  0  0  0  0  0  0
   18.2104   -2.3404  -15.0397 O   0  0  0  0  0  0  0  0  0  0  0  0
   20.2891   -2.8482  -15.9956 C   0  0  2  0  0  0  0  0  0  0  0  0
   20.2538   -4.0308  -15.1690 N   0  0  0  0  0  0  0  0  0  0  0  0
   21.0254   -1.7713  -15.2859 C   0  0  0  0  0  0  0  0  0  0  0  0
   21.2930   -0.5641  -15.9131 O   0  0  0  0  0  0  0  0  0  0  0  0
   21.4133   -1.9350  -14.1190 O   0  0  0  0  0  0  0  0  0  0  0  0
  1  2  1  0
  2  3  2  0
  4  2  1  0
  4  5  1  0
  5  6  1  0
  6  8  1  0
  6  7  1  1
  8 10  1  0
  8  9  2  0
 10 11  1  0
 11 14  1  0
 11 12  1  6
 13 12  1  0
 14 20  1  0
 14 15  2  0
 17 16  1  6
 17 19  1  0
 17 18  1  0
 19 21  1  0
 19 20  1  1
 21 22  1  0
 23 21  2  0
M  END
$$$$
