QCT.pdb
     RDKit          3D

 23 22  0  0  1  0  0  0  0  0999 V2000
   22.9537  -20.2460  -18.7274 N   0  0  0  0  0  0  0  0  0  0  0  0
   22.7611  -19.3955  -17.6115 C   0  0  0  0  0  0  0  0  0  0  0  0
   21.6540  -18.8109  -17.5021 O   0  0  0  0  0  0  0  0  0  0  0  0
   23.7901  -19.1631  -16.5774 C   0  0  0  0  0  0  0  0  0  0  0  0
   23.1854  -19.0035  -15.2014 C   0  0  0  0  0  0  0  0  0  0  0  0
   23.2491  -20.3477  -14.5105 C   0  0  2  0  0  0  0  0  0  0  0  0
   22.9969  -21.3529  -15.5307 N   0  0  0  0  0  0  0  0  0  0  0  0
   22.2086  -20.4732  -13.4568 C   0  0  0  0  0  0  0  0  0  0  0  0
   22.1841  -19.6480  -12.4940 O   0  0  0  0  0  0  0  0  0  0  0  0
   21.2338  -21.4965  -13.4958 N   0  0  0  0  0  0  0  0  0  0  0  0
   20.2018  -21.6182  -12.4553 C   0  0  1  0  0  0  0  0  0  0  0  0
   19.2176  -20.4546  -12.5985 C   0  0  0  0  0  0  0  0  0  0  0  0
   18.4208  -20.5264  -14.2285 S   0  0  0  0  0  0  0  0  0  0  0  0
   19.4460  -22.8694  -12.7046 C   0  0  0  0  0  0  0  0  0  0  0  0
   19.2543  -23.2909  -13.8589 O   0  0  0  0  0  0  0  0  0  0  0  0
   19.6526  -26.1080  -10.2363 C   0  0  0  0  0  0  0  0  0  0  0  0
   18.2554  -25.6008  -10.4854 C   0  0  1  0  0  0  0  0  0  0  0  0
   17.8706  -24.7372   -9.4602 O   0  0  0  0  0  0  0  0  0  0  0  0
   18.1737  -24.8359  -11.7820 C   0  0  2  0  0  0  0  0  0  0  0  0
   18.9240  -23.6135  -11.6200 N   0  0  0  0  0  0  0  0  0  0  0  0
   16.7637  -24.5095  -12.1146 C   0  0  0  0  0  0  0  0  0  0  0  0
   15.8741  -25.5066  -12.4845 O   0  0  0  0  0  0  0  0  0  0  0  0
   16.3587  -23.3379  -12.0668 O   0  0  0  0  0  0  0  0  0  0  0  0
  1  2  1  0
  2  3  2  0
  4  2  1  0
  4  5  1  0
  5  6  1  0
  6  8  1  0
  6  7  1  6
  8 10  1  0
  8  9  2  0
 10 11  1  0
 11 14  1  0
 11 12  1  6
 13 12  1  0
 14 20  1  0
 14 15  2  0
 17 16  1  1
 17 19  1  0
 17 18  1  0
 19 21  1  0
 19 20  1  1
 21 22  1  0
 23 21  2  0
M  END
$$$$
