QCT.pdb
     RDKit          3D

 23 22  0  0  1  0  0  0  0  0999 V2000
   26.8552  -23.7034  -15.8164 N   0  0  0  0  0  0  0  0  0  0  0  0
   28.1919  -23.5151  -16.2448 C   0  0  0  0  0  0  0  0  0  0  0  0
   28.8160  -24.5153  -16.6804 O   0  0  0  0  0  0  0  0  0  0  0  0
   28.8838  -22.2105  -16.2052 C   0  0  0  0  0  0  0  0  0  0  0  0
   28.0067  -21.1205  -15.6334 C   0  0  0  0  0  0  0  0  0  0  0  0
   26.9976  -20.7366  -16.6931 C   0  0  2  0  0  0  0  0  0  0  0  0
   27.7040  -19.9146  -17.6627 N   0  0  0  0  0  0  0  0  0  0  0  0
   25.8800  -19.9395  -16.1236 C   0  0  0  0  0  0  0  0  0  0  0  0
   26.0114  -19.3923  -14.9870 O   0  0  0  0  0  0  0  0  0  0  0  0
   24.6605  -19.7709  -16.8188 N   0  0  0  0  0  0  0  0  0  0  0  0
   23.6037  -18.8799  -16.3167 C   0  0  1  0  0  0  0  0  0  0  0  0
   23.4432  -17.7086  -17.2890 C   0  0  0  0  0  0  0  0  0  0  0  0
   24.9069  -16.6378  -17.2012 S   0  0  0  0  0  0  0  0  0  0  0  0
   22.3280  -19.6356  -16.3207 C   0  0  0  0  0  0  0  0  0  0  0  0
   21.9516  -20.2653  -17.3251 O   0  0  0  0  0  0  0  0  0  0  0  0
   20.1956  -19.7115  -12.6875 C   0  0  0  0  0  0  0  0  0  0  0  0
   20.1360  -20.8727  -13.6463 C   0  0  1  0  0  0  0  0  0  0  0  0
   18.9061  -21.5208  -13.5361 O   0  0  0  0  0  0  0  0  0  0  0  0
   20.2833  -20.4118  -15.0742 C   0  0  2  0  0  0  0  0  0  0  0  0
   21.5076  -19.6531  -15.1677 N   0  0  0  0  0  0  0  0  0  0  0  0
   19.1387  -19.5536  -15.4728 C   0  0  0  0  0  0  0  0  0  0  0  0
   17.9395  -20.1171  -15.8812 O   0  0  0  0  0  0  0  0  0  0  0  0
   19.2375  -18.3173  -15.4467 O   0  0  0  0  0  0  0  0  0  0  0  0
  1  2  1  0
  2  3  2  0
  4  2  1  0
  4  5  1  0
  5  6  1  0
  6  8  1  0
  6  7  1  6
  8 10  1  0
  8  9  2  0
 10 11  1  0
 11 14  1  0
 11 12  1  6
 13 12  1  0
 14 20  1  0
 14 15  2  0
 17 16  1  1
 17 19  1  0
 17 18  1  0
 19 21  1  0
 19 20  1  1
 21 22  1  0
 23 21  2  0
M  END
$$$$
