QCT.pdb
     RDKit          3D

 23 22  0  0  1  0  0  0  0  0999 V2000
   27.1447  -13.0946  -17.3690 N   0  0  0  0  0  0  0  0  0  0  0  0
   27.6782  -12.7193  -16.1119 C   0  0  0  0  0  0  0  0  0  0  0  0
   28.6054  -13.4203  -15.6338 O   0  0  0  0  0  0  0  0  0  0  0  0
   27.2021  -11.5530  -15.3404 C   0  0  0  0  0  0  0  0  0  0  0  0
   26.3123  -10.6520  -16.1656 C   0  0  0  0  0  0  0  0  0  0  0  0
   24.8790  -10.9321  -15.7712 C   0  0  2  0  0  0  0  0  0  0  0  0
   24.5579  -12.2559  -16.2802 N   0  0  0  0  0  0  0  0  0  0  0  0
   23.9411   -9.9524  -16.3788 C   0  0  0  0  0  0  0  0  0  0  0  0
   23.3944  -10.2111  -17.4936 O   0  0  0  0  0  0  0  0  0  0  0  0
   23.6363   -8.7263  -15.7442 N   0  0  0  0  0  0  0  0  0  0  0  0
   22.5608   -7.8511  -16.2341 C   0  0  1  0  0  0  0  0  0  0  0  0
   21.2139   -8.4351  -15.8005 C   0  0  0  0  0  0  0  0  0  0  0  0
   20.8989   -9.9784  -16.7037 S   0  0  0  0  0  0  0  0  0  0  0  0
   22.7052   -6.5331  -15.5703 C   0  0  0  0  0  0  0  0  0  0  0  0
   22.8128   -6.4388  -14.3348 O   0  0  0  0  0  0  0  0  0  0  0  0
   25.3513   -4.0946  -16.4628 C   0  0  0  0  0  0  0  0  0  0  0  0
   24.0353   -3.3728  -16.5998 C   0  0  1  0  0  0  0  0  0  0  0  0
   23.6206   -3.3837  -17.9312 O   0  0  0  0  0  0  0  0  0  0  0  0
   22.9585   -4.0373  -15.7802 C   0  0  2  0  0  0  0  0  0  0  0  0
   22.7233   -5.3463  -16.3410 N   0  0  0  0  0  0  0  0  0  0  0  0
   21.7008   -3.2488  -15.8219 C   0  0  0  0  0  0  0  0  0  0  0  0
   21.6043   -2.0338  -15.1610 O   0  0  0  0  0  0  0  0  0  0  0  0
   20.7152   -3.6652  -16.4496 O   0  0  0  0  0  0  0  0  0  0  0  0
  1  2  1  0
  2  3  2  0
  4  2  1  0
  4  5  1  0
  5  6  1  0
  6  8  1  0
  6  7  1  6
  8 10  1  0
  8  9  2  0
 10 11  1  0
 11 14  1  0
 11 12  1  1
 13 12  1  0
 14 20  1  0
 14 15  2  0
 17 16  1  6
 17 19  1  0
 17 18  1  0
 19 21  1  0
 19 20  1  6
 21 22  1  0
 23 21  2  0
M  END
$$$$
