QCT.pdb
     RDKit          3D

 23 22  0  0  1  0  0  0  0  0999 V2000
   19.8058  -10.6808  -20.1205 N   0  0  0  0  0  0  0  0  0  0  0  0
   19.1728  -11.9475  -20.1018 C   0  0  0  0  0  0  0  0  0  0  0  0
   19.4077  -12.7361  -21.0519 O   0  0  0  0  0  0  0  0  0  0  0  0
   18.2568  -12.3845  -19.0285 C   0  0  0  0  0  0  0  0  0  0  0  0
   18.0033  -11.2892  -18.0183 C   0  0  0  0  0  0  0  0  0  0  0  0
   19.1337  -11.3175  -17.0135 C   0  0  2  0  0  0  0  0  0  0  0  0
   18.9437  -12.5120  -16.2060 N   0  0  0  0  0  0  0  0  0  0  0  0
   19.1016  -10.1321  -16.1176 C   0  0  0  0  0  0  0  0  0  0  0  0
   18.0944   -9.9318  -15.3734 O   0  0  0  0  0  0  0  0  0  0  0  0
   20.1725   -9.2103  -16.0694 N   0  0  0  0  0  0  0  0  0  0  0  0
   20.1334   -8.0282  -15.1956 C   0  0  1  0  0  0  0  0  0  0  0  0
   21.4676   -7.9195  -14.4531 C   0  0  0  0  0  0  0  0  0  0  0  0
   21.2449   -8.4195  -12.7218 S   0  0  0  0  0  0  0  0  0  0  0  0
   20.0073   -6.8271  -16.0559 C   0  0  0  0  0  0  0  0  0  0  0  0
   20.7631   -6.6438  -17.0266 O   0  0  0  0  0  0  0  0  0  0  0  0
   17.1158   -5.6580  -18.0559 C   0  0  0  0  0  0  0  0  0  0  0  0
   17.4003   -4.6061  -17.0148 C   0  0  1  0  0  0  0  0  0  0  0  0
   16.5983   -4.8146  -15.8931 O   0  0  0  0  0  0  0  0  0  0  0  0
   18.8382   -4.6565  -16.5643 C   0  0  2  0  0  0  0  0  0  0  0  0
   19.0130   -5.8577  -15.7834 N   0  0  0  0  0  0  0  0  0  0  0  0
   19.1725   -3.4731  -15.7316 C   0  0  0  0  0  0  0  0  0  0  0  0
   19.2564   -2.2100  -16.2971 O   0  0  0  0  0  0  0  0  0  0  0  0
   19.3823   -3.5962  -14.5151 O   0  0  0  0  0  0  0  0  0  0  0  0
  1  2  1  0
  2  3  2  0
  4  2  1  0
  4  5  1  0
  5  6  1  0
  6  8  1  0
  6  7  1  1
  8 10  1  0
  8  9  2  0
 10 11  1  0
 11 14  1  0
 11 12  1  6
 13 12  1  0
 14 20  1  0
 14 15  2  0
 17 16  1  6
 17 19  1  0
 17 18  1  0
 19 21  1  0
 19 20  1  1
 21 22  1  0
 23 21  2  0
M  END
$$$$
