QCT.pdb
     RDKit          3D

 23 22  0  0  1  0  0  0  0  0999 V2000
   16.4964  -14.1369  -18.2010 N   0  0  0  0  0  0  0  0  0  0  0  0
   17.1731  -12.9234  -18.4752 C   0  0  0  0  0  0  0  0  0  0  0  0
   16.4838  -11.9311  -18.8212 O   0  0  0  0  0  0  0  0  0  0  0  0
   18.6387  -12.7676  -18.3753 C   0  0  0  0  0  0  0  0  0  0  0  0
   19.0464  -12.0288  -17.1214 C   0  0  0  0  0  0  0  0  0  0  0  0
   20.5517  -11.8803  -17.1419 C   0  0  2  0  0  0  0  0  0  0  0  0
   21.1040  -13.2009  -16.8857 N   0  0  0  0  0  0  0  0  0  0  0  0
   21.0266  -10.9558  -16.0797 C   0  0  0  0  0  0  0  0  0  0  0  0
   20.2474  -10.6295  -15.1336 O   0  0  0  0  0  0  0  0  0  0  0  0
   22.3361  -10.4227  -16.0922 N   0  0  0  0  0  0  0  0  0  0  0  0
   22.8117   -9.5217  -15.0318 C   0  0  1  0  0  0  0  0  0  0  0  0
   24.2946   -9.8015  -14.7753 C   0  0  0  0  0  0  0  0  0  0  0  0
   24.4627  -11.2136  -13.6463 S   0  0  0  0  0  0  0  0  0  0  0  0
   22.7046   -8.1299  -15.5319 C   0  0  0  0  0  0  0  0  0  0  0  0
   23.2222   -7.7877  -16.6098 O   0  0  0  0  0  0  0  0  0  0  0  0
   19.5022   -5.9392  -14.4256 C   0  0  0  0  0  0  0  0  0  0  0  0
   20.4171   -5.5556  -15.5602 C   0  0  1  0  0  0  0  0  0  0  0  0
   20.2629   -4.2028  -15.8618 O   0  0  0  0  0  0  0  0  0  0  0  0
   21.8630   -5.7811  -15.1976 C   0  0  2  0  0  0  0  0  0  0  0  0
   22.0033   -7.1561  -14.7819 N   0  0  0  0  0  0  0  0  0  0  0  0
   22.2750   -4.8849  -14.0874 C   0  0  0  0  0  0  0  0  0  0  0  0
   22.5119   -5.3916  -12.8188 O   0  0  0  0  0  0  0  0  0  0  0  0
   22.4140   -3.6669  -14.2778 O   0  0  0  0  0  0  0  0  0  0  0  0
  1  2  1  0
  2  3  2  0
  4  2  1  0
  4  5  1  0
  5  6  1  0
  6  8  1  0
  6  7  1  1
  8 10  1  0
  8  9  2  0
 10 11  1  0
 11 14  1  0
 11 12  1  6
 13 12  1  0
 14 20  1  0
 14 15  2  0
 17 16  1  1
 17 19  1  0
 17 18  1  0
 19 21  1  0
 19 20  1  1
 21 22  1  0
 23 21  2  0
M  END
$$$$
