RIG.pdb
     RDKit          3D

 24 23  0  0  1  0  0  0  0  0999 V2000
   16.4162  -16.7956  -12.9291 N   0  0  0  0  0  0  0  0  0  0  0  0
   16.0197  -17.5387  -14.0677 C   0  0  0  0  0  0  0  0  0  0  0  0
   15.3396  -18.6115  -13.9870 N   0  0  0  0  0  0  0  0  0  0  0  0
   16.3995  -17.0652  -15.3716 N   0  0  0  0  0  0  0  0  0  0  0  0
   16.8940  -15.7462  -15.5266 C   0  0  0  0  0  0  0  0  0  0  0  0
   15.8587  -14.7433  -15.8375 C   0  0  0  0  0  0  0  0  0  0  0  0
   16.2843  -13.3532  -16.0338 C   0  0  0  0  0  0  0  0  0  0  0  0
   15.3042  -12.2789  -16.3026 C   0  0  2  0  0  0  0  0  0  0  0  0
   14.5606  -12.5141  -17.5237 N   0  0  0  0  0  0  0  0  0  0  0  0
   16.1265  -11.0046  -16.4599 C   0  0  0  0  0  0  0  0  0  0  0  0
   16.6488  -10.8003  -17.5758 O   0  0  0  0  0  0  0  0  0  0  0  0
   15.0458  -19.1343  -14.8328 C   0  0  0  0  0  0  0  0  0  0  0  0
   13.9601   -6.6748  -15.6328 C   0  0  0  0  0  0  0  0  0  0  0  0
   15.1103   -7.4398  -16.2218 C   0  0  2  0  0  0  0  0  0  0  0  0
   16.2721   -7.6309  -15.3150 C   0  0  0  0  0  0  0  0  0  0  0  0
   17.1990   -6.4278  -15.4133 C   0  0  2  0  0  0  0  0  0  0  0  0
   17.0955   -8.8567  -15.5710 N   0  0  0  0  0  0  0  0  0  0  0  0
   16.3062  -10.0838  -15.4120 C   0  0  0  0  0  0  0  0  0  0  0  0
   18.3790   -8.9249  -14.8576 O   0  0  0  0  0  0  0  0  0  0  0  0
   18.3688   -9.0437  -13.6007 N   0  0  0  0  0  0  0  0  0  0  0  0
   19.6422   -8.8705  -15.4950 C   0  0  0  0  0  0  0  0  0  0  0  0
   20.9145   -8.9339  -14.8569 C   0  0  0  0  0  0  0  0  0  0  0  0
   21.3683   -7.7419  -14.1526 O   0  0  0  0  0  0  0  0  0  0  0  0
   20.8623   -6.6018  -14.1823 O   0  0  0  0  0  0  0  0  0  0  0  0
  2  1  1  0
  2  3  2  0
  4  5  1  0
  4  2  1  0
  6  7  1  0
  6  5  1  0
  7  8  1  0
  8  9  1  6
 10  8  1  0
 10 17  1  0
 11 10  2  0
 13 12  1  0
 14 16  1  0
 14 13  1  0
 14 15  1  1
 16 17  1  6
 18 20  1  0
 18 16  1  0
 19 18  2  0
 21 22  1  0
 21 20  1  0
 22 24  1  0
 23 22  2  0
M  END
$$$$
