RIG.pdb
     RDKit          3D

 24 23  0  0  1  0  0  0  0  0999 V2000
   29.4854  -21.6653  -18.2096 N   0  0  0  0  0  0  0  0  0  0  0  0
   29.2154  -20.3400  -18.6298 C   0  0  0  0  0  0  0  0  0  0  0  0
   29.0713  -20.0218  -19.8536 N   0  0  0  0  0  0  0  0  0  0  0  0
   29.0988  -19.3075  -17.6354 N   0  0  0  0  0  0  0  0  0  0  0  0
   28.6558  -19.6328  -16.3293 C   0  0  0  0  0  0  0  0  0  0  0  0
   27.2164  -19.4060  -16.1034 C   0  0  0  0  0  0  0  0  0  0  0  0
   26.6608  -19.7639  -14.7937 C   0  0  0  0  0  0  0  0  0  0  0  0
   27.1150  -20.9702  -14.0686 C   0  0  2  0  0  0  0  0  0  0  0  0
   27.2441  -22.1160  -14.9461 N   0  0  0  0  0  0  0  0  0  0  0  0
   26.0330  -21.2572  -13.0334 C   0  0  0  0  0  0  0  0  0  0  0  0
   25.1834  -22.1245  -13.3260 O   0  0  0  0  0  0  0  0  0  0  0  0
   28.8564  -19.0492  -20.1411 C   0  0  0  0  0  0  0  0  0  0  0  0
   27.1208  -20.1026   -7.8092 C   0  0  0  0  0  0  0  0  0  0  0  0
   26.5234  -20.8792   -8.9472 C   0  0  2  0  0  0  0  0  0  0  0  0
   25.2360  -20.3489   -9.4667 C   0  0  0  0  0  0  0  0  0  0  0  0
   24.1031  -20.7592   -8.5371 C   0  0  2  0  0  0  0  0  0  0  0  0
   24.8671  -20.7917  -10.8501 N   0  0  0  0  0  0  0  0  0  0  0  0
   25.9701  -20.5895  -11.7971 C   0  0  0  0  0  0  0  0  0  0  0  0
   23.5900  -20.2784  -11.3663 O   0  0  0  0  0  0  0  0  0  0  0  0
   23.5795  -19.1634  -11.9586 N   0  0  0  0  0  0  0  0  0  0  0  0
   22.3560  -20.9622  -11.2461 C   0  0  0  0  0  0  0  0  0  0  0  0
   21.1045  -20.5493  -11.7876 C   0  0  0  0  0  0  0  0  0  0  0  0
   20.8395  -20.8780  -13.1822 O   0  0  0  0  0  0  0  0  0  0  0  0
   21.5808  -21.4972  -13.9720 O   0  0  0  0  0  0  0  0  0  0  0  0
  2  1  1  0
  2  3  2  0
  4  5  1  0
  4  2  1  0
  6  7  1  0
  6  5  1  0
  7  8  1  0
  8  9  1  6
 10  8  1  0
 10 17  1  0
 11 10  2  0
 13 12  1  0
 14 16  1  0
 14 13  1  0
 14 15  1  6
 16 17  1  6
 18 20  1  0
 18 16  1  0
 19 18  2  0
 21 22  1  0
 21 20  1  0
 22 24  1  0
 23 22  2  0
M  END
$$$$
