RIG.pdb
     RDKit          3D

 24 23  0  0  1  0  0  0  0  0999 V2000
   19.2104  -23.2862   -7.2377 N   0  0  0  0  0  0  0  0  0  0  0  0
   18.4844  -24.0474   -8.1861 C   0  0  0  0  0  0  0  0  0  0  0  0
   17.3238  -24.5140   -7.9512 N   0  0  0  0  0  0  0  0  0  0  0  0
   19.0800  -24.3069   -9.4693 N   0  0  0  0  0  0  0  0  0  0  0  0
   20.3143  -23.6997   -9.8098 C   0  0  0  0  0  0  0  0  0  0  0  0
   20.2264  -22.7249  -10.9127 C   0  0  0  0  0  0  0  0  0  0  0  0
   21.1109  -21.5553  -10.8693 C   0  0  0  0  0  0  0  0  0  0  0  0
   21.6595  -21.0524   -9.5913 C   0  0  2  0  0  0  0  0  0  0  0  0
   20.8825  -19.9498   -9.0622 N   0  0  0  0  0  0  0  0  0  0  0  0
   23.0651  -20.5586   -9.9153 C   0  0  0  0  0  0  0  0  0  0  0  0
   23.1595  -19.5819  -10.6879 O   0  0  0  0  0  0  0  0  0  0  0  0
   16.8182  -25.0912   -8.6484 C   0  0  0  0  0  0  0  0  0  0  0  0
   26.7778  -19.6621   -6.1712 C   0  0  0  0  0  0  0  0  0  0  0  0
   25.9647  -19.6638   -7.4337 C   0  0  2  0  0  0  0  0  0  0  0  0
   26.4375  -20.5983   -8.4881 C   0  0  0  0  0  0  0  0  0  0  0  0
   27.8312  -20.1906   -8.9433 C   0  0  2  0  0  0  0  0  0  0  0  0
   25.5719  -20.6854   -9.7085 N   0  0  0  0  0  0  0  0  0  0  0  0
   24.2209  -21.1579   -9.3832 C   0  0  0  0  0  0  0  0  0  0  0  0
   26.1513  -21.4028  -10.8532 O   0  0  0  0  0  0  0  0  0  0  0  0
   26.5466  -22.5904  -10.6876 N   0  0  0  0  0  0  0  0  0  0  0  0
   26.2929  -20.8451  -12.1470 C   0  0  0  0  0  0  0  0  0  0  0  0
   26.9492  -21.4463  -13.2594 C   0  0  0  0  0  0  0  0  0  0  0  0
   26.8594  -20.7569  -14.5400 O   0  0  0  0  0  0  0  0  0  0  0  0
   26.2209  -19.7173  -14.8011 O   0  0  0  0  0  0  0  0  0  0  0  0
  2  1  1  0
  2  3  2  0
  4  5  1  0
  4  2  1  0
  6  7  1  0
  6  5  1  0
  7  8  1  0
  8  9  1  6
 10  8  1  0
 10 17  1  0
 11 10  2  0
 13 12  1  0
 14 16  1  0
 14 13  1  0
 14 15  1  1
 16 17  1  6
 18 20  1  0
 18 16  1  0
 19 18  2  0
 21 22  1  0
 21 20  1  0
 22 24  1  0
 23 22  2  0
M  END
$$$$
