RIG.pdb
     RDKit          3D

 24 23  0  0  1  0  0  0  0  0999 V2000
   23.3403  -20.0228  -17.9483 N   0  0  0  0  0  0  0  0  0  0  0  0
   22.6900  -18.9300  -17.3249 C   0  0  0  0  0  0  0  0  0  0  0  0
   21.5364  -18.5237  -17.6768 N   0  0  0  0  0  0  0  0  0  0  0  0
   23.3576  -18.2477  -16.2491 N   0  0  0  0  0  0  0  0  0  0  0  0
   23.9383  -18.9936  -15.1933 C   0  0  0  0  0  0  0  0  0  0  0  0
   22.9914  -19.8678  -14.4766 C   0  0  0  0  0  0  0  0  0  0  0  0
   23.3345  -20.2803  -13.1112 C   0  0  0  0  0  0  0  0  0  0  0  0
   24.7393  -20.3273  -12.6515 C   0  0  2  0  0  0  0  0  0  0  0  0
   25.5682  -21.1410  -13.5177 N   0  0  0  0  0  0  0  0  0  0  0  0
   24.6956  -20.9627  -11.2662 C   0  0  0  0  0  0  0  0  0  0  0  0
   24.6767  -22.2104  -11.2145 O   0  0  0  0  0  0  0  0  0  0  0  0
   21.0648  -17.7382  -17.1915 C   0  0  0  0  0  0  0  0  0  0  0  0
   27.6584  -18.8700   -7.3804 C   0  0  0  0  0  0  0  0  0  0  0  0
   26.8963  -19.8810   -8.1881 C   0  0  2  0  0  0  0  0  0  0  0  0
   25.4863  -20.0914   -7.7685 C   0  0  0  0  0  0  0  0  0  0  0  0
   25.4538  -20.8741   -6.4638 C   0  0  2  0  0  0  0  0  0  0  0  0
   24.6220  -20.8196   -8.7528 N   0  0  0  0  0  0  0  0  0  0  0  0
   24.6757  -20.2021  -10.0833 C   0  0  0  0  0  0  0  0  0  0  0  0
   23.2431  -21.0855   -8.3186 O   0  0  0  0  0  0  0  0  0  0  0  0
   22.3574  -20.2145   -8.5445 N   0  0  0  0  0  0  0  0  0  0  0  0
   22.8359  -22.2708   -7.6596 C   0  0  0  0  0  0  0  0  0  0  0  0
   21.5772  -22.4996   -7.0326 C   0  0  0  0  0  0  0  0  0  0  0  0
   20.4680  -22.8998   -7.8885 O   0  0  0  0  0  0  0  0  0  0  0  0
   20.4501  -22.9545   -9.1348 O   0  0  0  0  0  0  0  0  0  0  0  0
  2  1  1  0
  2  3  2  0
  4  5  1  0
  4  2  1  0
  6  7  1  0
  6  5  1  0
  7  8  1  0
  8  9  1  6
 10  8  1  0
 10 17  1  0
 11 10  2  0
 13 12  1  0
 14 16  1  0
 14 13  1  0
 14 15  1  6
 16 17  1  6
 18 20  1  0
 18 16  1  0
 19 18  2  0
 21 22  1  0
 21 20  1  0
 22 24  1  0
 23 22  2  0
M  END
$$$$
