RIG.pdb
     RDKit          3D

 24 23  0  0  1  0  0  0  0  0999 V2000
   19.1443  -24.5212   -7.6361 N   0  0  0  0  0  0  0  0  0  0  0  0
   18.1442  -25.0634   -8.4797 C   0  0  0  0  0  0  0  0  0  0  0  0
   17.0161  -25.4595   -8.0433 N   0  0  0  0  0  0  0  0  0  0  0  0
   18.4103  -25.1733   -9.8888 N   0  0  0  0  0  0  0  0  0  0  0  0
   19.4415  -24.3977  -10.4745 C   0  0  0  0  0  0  0  0  0  0  0  0
   18.9929  -23.1001  -11.0125 C   0  0  0  0  0  0  0  0  0  0  0  0
   19.9791  -22.2654  -11.7074 C   0  0  0  0  0  0  0  0  0  0  0  0
   20.3757  -20.9420  -11.1797 C   0  0  2  0  0  0  0  0  0  0  0  0
   19.5495  -19.8757  -11.7086 N   0  0  0  0  0  0  0  0  0  0  0  0
   21.8135  -20.7314  -11.6413 C   0  0  0  0  0  0  0  0  0  0  0  0
   21.9805  -20.1144  -12.7142 O   0  0  0  0  0  0  0  0  0  0  0  0
   16.3066  -25.8794   -8.6720 C   0  0  0  0  0  0  0  0  0  0  0  0
   25.7195  -20.2602   -7.8983 C   0  0  0  0  0  0  0  0  0  0  0  0
   25.0460  -20.0031   -9.2156 C   0  0  2  0  0  0  0  0  0  0  0  0
   25.2812  -21.0364  -10.2575 C   0  0  0  0  0  0  0  0  0  0  0  0
   26.6684  -20.8513  -10.8553 C   0  0  2  0  0  0  0  0  0  0  0  0
   24.2996  -21.0458  -11.3900 N   0  0  0  0  0  0  0  0  0  0  0  0
   22.9206  -21.2010  -10.9119 C   0  0  0  0  0  0  0  0  0  0  0  0
   24.6104  -21.9611  -12.4975 O   0  0  0  0  0  0  0  0  0  0  0  0
   24.5663  -23.2052  -12.2868 N   0  0  0  0  0  0  0  0  0  0  0  0
   24.9555  -21.5348  -13.8029 C   0  0  0  0  0  0  0  0  0  0  0  0
   25.3223  -22.3716  -14.8961 C   0  0  0  0  0  0  0  0  0  0  0  0
   25.5577  -21.7263  -16.1811 O   0  0  0  0  0  0  0  0  0  0  0  0
   25.3643  -20.5302  -16.4785 O   0  0  0  0  0  0  0  0  0  0  0  0
  2  1  1  0
  2  3  2  0
  4  5  1  0
  4  2  1  0
  6  7  1  0
  6  5  1  0
  7  8  1  0
  8  9  1  6
 10  8  1  0
 10 17  1  0
 11 10  2  0
 13 12  1  0
 14 16  1  0
 14 13  1  0
 14 15  1  1
 16 17  1  6
 18 20  1  0
 18 16  1  0
 19 18  2  0
 21 22  1  0
 21 20  1  0
 22 24  1  0
 23 22  2  0
M  END
$$$$
