RIG.pdb
     RDKit          3D

 24 23  0  0  1  0  0  0  0  0999 V2000
   18.6796  -24.1376  -12.6127 N   0  0  0  0  0  0  0  0  0  0  0  0
   18.8351  -23.8699  -13.9948 C   0  0  0  0  0  0  0  0  0  0  0  0
   17.8732  -23.9514  -14.8242 N   0  0  0  0  0  0  0  0  0  0  0  0
   20.1324  -23.4901  -14.4859 N   0  0  0  0  0  0  0  0  0  0  0  0
   21.0134  -22.7539  -13.6552 C   0  0  0  0  0  0  0  0  0  0  0  0
   20.4453  -21.4977  -13.1321 C   0  0  0  0  0  0  0  0  0  0  0  0
   21.3297  -20.6059  -12.3741 C   0  0  0  0  0  0  0  0  0  0  0  0
   22.4657  -21.1344  -11.5882 C   0  0  2  0  0  0  0  0  0  0  0  0
   22.2696  -20.9592  -10.1633 N   0  0  0  0  0  0  0  0  0  0  0  0
   23.6794  -20.3220  -12.0258 C   0  0  0  0  0  0  0  0  0  0  0  0
   23.7640  -19.1522  -11.5967 O   0  0  0  0  0  0  0  0  0  0  0  0
   18.0143  -23.7897  -15.8384 C   0  0  0  0  0  0  0  0  0  0  0  0
   28.5363  -21.4331  -10.9999 C   0  0  0  0  0  0  0  0  0  0  0  0
   27.2445  -20.8049  -11.4379 C   0  0  2  0  0  0  0  0  0  0  0  0
   27.1148  -20.5826  -12.9015 C   0  0  0  0  0  0  0  0  0  0  0  0
   28.2000  -19.6240  -13.3699 C   0  0  2  0  0  0  0  0  0  0  0  0
   25.7979  -20.0297  -13.3559 N   0  0  0  0  0  0  0  0  0  0  0  0
   24.6734  -20.8410  -12.8747 C   0  0  0  0  0  0  0  0  0  0  0  0
   25.6921  -19.7283  -14.7908 O   0  0  0  0  0  0  0  0  0  0  0  0
   25.6323  -20.6878  -15.6093 N   0  0  0  0  0  0  0  0  0  0  0  0
   25.6474  -18.4167  -15.3224 C   0  0  0  0  0  0  0  0  0  0  0  0
   25.5273  -18.0658  -16.6980 C   0  0  0  0  0  0  0  0  0  0  0  0
   26.7399  -18.1032  -17.5049 O   0  0  0  0  0  0  0  0  0  0  0  0
   27.8875  -18.4285  -17.1389 O   0  0  0  0  0  0  0  0  0  0  0  0
  2  1  1  0
  2  3  2  0
  4  5  1  0
  4  2  1  0
  6  7  1  0
  6  5  1  0
  7  8  1  0
  8  9  1  1
 10  8  1  0
 10 17  1  0
 11 10  2  0
 13 12  1  0
 14 16  1  0
 14 13  1  0
 14 15  1  6
 16 17  1  1
 18 20  1  0
 18 16  1  0
 19 18  2  0
 21 22  1  0
 21 20  1  0
 22 24  1  0
 23 22  2  0
M  END
$$$$
