RIG.pdb
     RDKit          3D

 24 23  0  0  1  0  0  0  0  0999 V2000
   19.3175  -24.2988  -16.6021 N   0  0  0  0  0  0  0  0  0  0  0  0
   20.1129  -25.4470  -16.3675 C   0  0  0  0  0  0  0  0  0  0  0  0
   19.9598  -26.5338  -17.0118 N   0  0  0  0  0  0  0  0  0  0  0  0
   21.1373  -25.3868  -15.3598 N   0  0  0  0  0  0  0  0  0  0  0  0
   21.4078  -24.1615  -14.7012 C   0  0  0  0  0  0  0  0  0  0  0  0
   21.6333  -23.0220  -15.6095 C   0  0  0  0  0  0  0  0  0  0  0  0
   21.9113  -21.7110  -15.0127 C   0  0  0  0  0  0  0  0  0  0  0  0
   21.6867  -21.4576  -13.5731 C   0  0  2  0  0  0  0  0  0  0  0  0
   20.5281  -20.6185  -13.3427 N   0  0  0  0  0  0  0  0  0  0  0  0
   22.9334  -20.7269  -13.0868 C   0  0  0  0  0  0  0  0  0  0  0  0
   23.0216  -19.5114  -13.3598 O   0  0  0  0  0  0  0  0  0  0  0  0
   20.5484  -27.3660  -16.8223 C   0  0  0  0  0  0  0  0  0  0  0  0
   24.6219  -20.6998   -8.1352 C   0  0  0  0  0  0  0  0  0  0  0  0
   24.5863  -20.1863   -9.5459 C   0  0  2  0  0  0  0  0  0  0  0  0
   25.4805  -20.8946  -10.4985 C   0  0  0  0  0  0  0  0  0  0  0  0
   26.9214  -20.4676  -10.2591 C   0  0  2  0  0  0  0  0  0  0  0  0
   25.1803  -20.6746  -11.9503 N   0  0  0  0  0  0  0  0  0  0  0  0
   23.9542  -21.3682  -12.3623 C   0  0  0  0  0  0  0  0  0  0  0  0
   26.2949  -20.9177  -12.8774 O   0  0  0  0  0  0  0  0  0  0  0  0
   27.3368  -20.2125  -12.7713 N   0  0  0  0  0  0  0  0  0  0  0  0
   26.2793  -21.9059  -13.8914 C   0  0  0  0  0  0  0  0  0  0  0  0
   27.3535  -22.2351  -14.7674 C   0  0  0  0  0  0  0  0  0  0  0  0
   27.4864  -21.4477  -15.9863 O   0  0  0  0  0  0  0  0  0  0  0  0
   26.7293  -20.5438  -16.3942 O   0  0  0  0  0  0  0  0  0  0  0  0
  2  1  1  0
  2  3  2  0
  4  5  1  0
  4  2  1  0
  6  7  1  0
  6  5  1  0
  7  8  1  0
  8  9  1  6
 10  8  1  0
 10 17  1  0
 11 10  2  0
 13 12  1  0
 14 16  1  0
 14 13  1  0
 14 15  1  6
 16 17  1  6
 18 20  1  0
 18 16  1  0
 19 18  2  0
 21 22  1  0
 21 20  1  0
 22 24  1  0
 23 22  2  0
M  END
$$$$
