RIG.pdb
     RDKit          3D

 24 23  0  0  1  0  0  0  0  0999 V2000
   16.9856  -26.7835  -10.0161 N   0  0  0  0  0  0  0  0  0  0  0  0
   17.9267  -27.2107  -10.9845 C   0  0  0  0  0  0  0  0  0  0  0  0
   18.0685  -28.4316  -11.3149 N   0  0  0  0  0  0  0  0  0  0  0  0
   18.7593  -26.2273  -11.6233 N   0  0  0  0  0  0  0  0  0  0  0  0
   18.7482  -24.8871  -11.1628 C   0  0  0  0  0  0  0  0  0  0  0  0
   18.5865  -23.8812  -12.2288 C   0  0  0  0  0  0  0  0  0  0  0  0
   19.4338  -22.6847  -12.1798 C   0  0  0  0  0  0  0  0  0  0  0  0
   19.7892  -22.0454  -10.8943 C   0  0  2  0  0  0  0  0  0  0  0  0
   18.6981  -21.2564  -10.3592 N   0  0  0  0  0  0  0  0  0  0  0  0
   20.9624  -21.1229  -11.2065 C   0  0  0  0  0  0  0  0  0  0  0  0
   20.7037  -19.9126  -11.3738 O   0  0  0  0  0  0  0  0  0  0  0  0
   18.7608  -28.7251  -12.0285 C   0  0  0  0  0  0  0  0  0  0  0  0
   25.8615  -19.6473   -8.9336 C   0  0  0  0  0  0  0  0  0  0  0  0
   25.7174  -20.2966  -10.2800 C   0  0  2  0  0  0  0  0  0  0  0  0
   24.5430  -21.1957  -10.4250 C   0  0  0  0  0  0  0  0  0  0  0  0
   24.9921  -22.5333  -10.9954 C   0  0  2  0  0  0  0  0  0  0  0  0
   23.4399  -20.6803  -11.2989 N   0  0  0  0  0  0  0  0  0  0  0  0
   22.2861  -21.5873  -11.3084 C   0  0  0  0  0  0  0  0  0  0  0  0
   23.8363  -20.2707  -12.6539 O   0  0  0  0  0  0  0  0  0  0  0  0
   24.7510  -19.4101  -12.7842 N   0  0  0  0  0  0  0  0  0  0  0  0
   23.2564  -20.7872  -13.8379 C   0  0  0  0  0  0  0  0  0  0  0  0
   23.6382  -20.4713  -15.1736 C   0  0  0  0  0  0  0  0  0  0  0  0
   22.8952  -19.4149  -15.8483 O   0  0  0  0  0  0  0  0  0  0  0  0
   21.9226  -18.7689  -15.4085 O   0  0  0  0  0  0  0  0  0  0  0  0
  2  1  1  0
  2  3  2  0
  4  5  1  0
  4  2  1  0
  6  7  1  0
  6  5  1  0
  7  8  1  0
  8  9  1  6
 10  8  1  0
 10 17  1  0
 11 10  2  0
 13 12  1  0
 14 16  1  0
 14 13  1  0
 14 15  1  6
 16 17  1  6
 18 20  1  0
 18 16  1  0
 19 18  2  0
 21 22  1  0
 21 20  1  0
 22 24  1  0
 23 22  2  0
M  END
$$$$
