VQV.pdb
     RDKit          3D

 24 23  0  0  1  0  0  0  0  0999 V2000
    7.7228  -12.7748   18.1895 C   0  0  0  0  0  0  0  0  0  0  0  0
    7.5582  -13.3771   19.5355 C   0  0  2  0  0  0  0  0  0  0  0  0
    8.0989  -12.3986   20.5858 C   0  0  0  0  0  0  0  0  0  0  0  0
    8.1341  -14.7310   19.7449 C   0  0  2  0  0  0  0  0  0  0  0  0
    7.3726  -15.6437   18.8628 N   0  0  0  0  0  0  0  0  0  0  0  0
    8.0167  -15.2797   21.1070 C   0  0  0  0  0  0  0  0  0  0  0  0
    6.8723  -15.6373   21.5535 O   0  0  0  0  0  0  0  0  0  0  0  0
   11.4940  -19.2463   24.3129 N   0  0  0  0  0  0  0  0  0  0  0  0
   10.5345  -18.7922   25.2288 C   0  0  0  0  0  0  0  0  0  0  0  0
   10.3805  -19.4059   26.3087 O   0  0  0  0  0  0  0  0  0  0  0  0
    9.6791  -17.5954   24.9691 C   0  0  0  0  0  0  0  0  0  0  0  0
    9.9055  -17.0676   23.5632 C   0  0  0  0  0  0  0  0  0  0  0  0
    8.8912  -15.9219   23.3821 C   0  0  2  0  0  0  0  0  0  0  0  0
    9.0851  -15.4685   22.0272 N   0  0  0  0  0  0  0  0  0  0  0  0
    9.0763  -14.8925   24.4135 C   0  0  0  0  0  0  0  0  0  0  0  0
   10.1632  -14.2194   24.4627 O   0  0  0  0  0  0  0  0  0  0  0  0
    6.5072  -12.0459   25.3214 C   0  0  0  0  0  0  0  0  0  0  0  0
    7.0492  -12.6994   26.5628 C   0  0  1  0  0  0  0  0  0  0  0  0
    6.0067  -13.6085   27.1778 C   0  0  0  0  0  0  0  0  0  0  0  0
    8.3289  -13.4633   26.2864 C   0  0  2  0  0  0  0  0  0  0  0  0
    8.1081  -14.5740   25.3955 N   0  0  0  0  0  0  0  0  0  0  0  0
    8.9695  -13.9465   27.5125 C   0  0  0  0  0  0  0  0  0  0  0  0
    9.1252  -15.2961   27.7195 O   0  0  0  0  0  0  0  0  0  0  0  0
    9.3758  -13.1418   28.3721 O   0  0  0  0  0  0  0  0  0  0  0  0
  2  1  1  6
  2  3  1  0
  4  2  1  0
  4  5  1  6
  6  4  1  0
  6  7  2  0
  8  9  1  0
  9 11  1  0
  9 10  2  0
 11 12  1  0
 13 12  1  1
 13 14  1  0
 14  6  1  0
 15 13  1  0
 16 15  2  0
 18 17  1  6
 18 20  1  0
 19 18  1  0
 20 22  1  0
 20 21  1  6
 21 15  1  0
 22 23  1  0
 24 22  2  0
M  END
$$$$
