VQV.pdb
     RDKit          3D

 24 23  0  0  1  0  0  0  0  0999 V2000
    8.3283  -13.7321   17.8276 C   0  0  0  0  0  0  0  0  0  0  0  0
    7.7678  -13.8645   19.1950 C   0  0  2  0  0  0  0  0  0  0  0  0
    7.4957  -12.4633   19.7568 C   0  0  0  0  0  0  0  0  0  0  0  0
    8.5480  -14.6703   20.1699 C   0  0  2  0  0  0  0  0  0  0  0  0
    8.5830  -16.0485   19.6311 N   0  0  0  0  0  0  0  0  0  0  0  0
    7.9807  -14.7711   21.5257 C   0  0  0  0  0  0  0  0  0  0  0  0
    7.8426  -13.7178   22.2387 O   0  0  0  0  0  0  0  0  0  0  0  0
    6.6178  -19.2263   26.7622 N   0  0  0  0  0  0  0  0  0  0  0  0
    7.5001  -19.0151   25.6933 C   0  0  0  0  0  0  0  0  0  0  0  0
    8.1305  -19.9867   25.2187 O   0  0  0  0  0  0  0  0  0  0  0  0
    7.7228  -17.6668   25.0899 C   0  0  0  0  0  0  0  0  0  0  0  0
    6.8751  -17.4893   23.8425 C   0  0  0  0  0  0  0  0  0  0  0  0
    6.9711  -15.9935   23.4853 C   0  0  2  0  0  0  0  0  0  0  0  0
    7.5450  -15.9662   22.1629 N   0  0  0  0  0  0  0  0  0  0  0  0
    7.7306  -15.2601   24.5067 C   0  0  0  0  0  0  0  0  0  0  0  0
    9.0091  -15.3052   24.5132 O   0  0  0  0  0  0  0  0  0  0  0  0
    6.9756  -11.5103   25.5990 C   0  0  0  0  0  0  0  0  0  0  0  0
    7.2717  -12.3830   26.7875 C   0  0  1  0  0  0  0  0  0  0  0  0
    6.0006  -12.6769   27.5553 C   0  0  0  0  0  0  0  0  0  0  0  0
    7.9631  -13.6704   26.3848 C   0  0  2  0  0  0  0  0  0  0  0  0
    7.1354  -14.4765   25.5238 N   0  0  0  0  0  0  0  0  0  0  0  0
    8.3798  -14.4686   27.5409 C   0  0  0  0  0  0  0  0  0  0  0  0
    7.8956  -15.7441   27.7047 O   0  0  0  0  0  0  0  0  0  0  0  0
    9.1721  -13.9993   28.3797 O   0  0  0  0  0  0  0  0  0  0  0  0
  2  1  1  6
  2  3  1  0
  4  2  1  0
  4  5  1  6
  6  4  1  0
  6  7  2  0
  8  9  1  0
  9 11  1  0
  9 10  2  0
 11 12  1  0
 13 12  1  1
 13 14  1  0
 14  6  1  0
 15 13  1  0
 16 15  2  0
 18 17  1  6
 18 20  1  0
 19 18  1  0
 20 22  1  0
 20 21  1  6
 21 15  1  0
 22 23  1  0
 24 22  2  0
M  END
$$$$
