VQV.pdb
     RDKit          3D

 24 23  0  0  1  0  0  0  0  0999 V2000
    7.1613  -12.7755   20.1076 C   0  0  0  0  0  0  0  0  0  0  0  0
    8.3595  -13.3951   19.4896 C   0  0  2  0  0  0  0  0  0  0  0  0
    8.4247  -12.9834   18.0134 C   0  0  0  0  0  0  0  0  0  0  0  0
    8.5031  -14.8682   19.6227 C   0  0  2  0  0  0  0  0  0  0  0  0
    7.4648  -15.4638   18.7519 N   0  0  0  0  0  0  0  0  0  0  0  0
    8.2787  -15.4203   20.9699 C   0  0  0  0  0  0  0  0  0  0  0  0
    7.0868  -15.6507   21.3738 O   0  0  0  0  0  0  0  0  0  0  0  0
   11.9285  -19.2264   22.6009 N   0  0  0  0  0  0  0  0  0  0  0  0
   10.6253  -19.3889   22.1101 C   0  0  0  0  0  0  0  0  0  0  0  0
   10.3932  -20.2944   21.2777 O   0  0  0  0  0  0  0  0  0  0  0  0
    9.4900  -18.5194   22.5419 C   0  0  0  0  0  0  0  0  0  0  0  0
    9.9808  -17.4065   23.4513 C   0  0  0  0  0  0  0  0  0  0  0  0
    8.9988  -16.2376   23.2431 C   0  0  2  0  0  0  0  0  0  0  0  0
    9.2876  -15.7447   21.9191 N   0  0  0  0  0  0  0  0  0  0  0  0
    9.1328  -15.2450   24.3177 C   0  0  0  0  0  0  0  0  0  0  0  0
   10.1591  -14.4827   24.3647 O   0  0  0  0  0  0  0  0  0  0  0  0
    7.4128  -12.2717   27.7794 C   0  0  0  0  0  0  0  0  0  0  0  0
    7.2124  -13.1968   26.6107 C   0  0  1  0  0  0  0  0  0  0  0  0
    6.8854  -12.4056   25.3623 C   0  0  0  0  0  0  0  0  0  0  0  0
    8.4187  -14.0852   26.3801 C   0  0  2  0  0  0  0  0  0  0  0  0
    8.1776  -15.0583   25.3451 N   0  0  0  0  0  0  0  0  0  0  0  0
    8.8498  -14.7732   27.6000 C   0  0  0  0  0  0  0  0  0  0  0  0
    9.5132  -14.0778   28.5822 O   0  0  0  0  0  0  0  0  0  0  0  0
    8.6196  -15.9875   27.7551 O   0  0  0  0  0  0  0  0  0  0  0  0
  2  1  1  6
  2  3  1  0
  4  2  1  0
  4  5  1  6
  6  4  1  0
  6  7  2  0
  8  9  1  0
  9 11  1  0
  9 10  2  0
 11 12  1  0
 13 12  1  1
 13 14  1  0
 14  6  1  0
 15 13  1  0
 16 15  2  0
 18 17  1  1
 18 20  1  0
 19 18  1  0
 20 22  1  0
 20 21  1  6
 21 15  1  0
 22 23  1  0
 24 22  2  0
M  END
$$$$
