PCF.pdb
     RDKit          3D

 25 26  0  0  1  0  0  0  0  0999 V2000
   27.1174  -19.7747  -15.8434 N   0  0  0  0  0  0  0  0  0  0  0  0
   26.9084  -18.4697  -16.3816 C   0  0  0  0  0  0  0  0  0  0  0  0
   27.7704  -17.5356  -15.5665 C   0  0  0  0  0  0  0  0  0  0  0  0
   28.7252  -18.4450  -14.8034 C   0  0  0  0  0  0  0  0  0  0  0  0
   27.9177  -19.6960  -14.6647 C   0  0  1  0  0  0  0  0  0  0  0  0
   27.0499  -19.5613  -13.4497 C   0  0  0  0  0  0  0  0  0  0  0  0
   26.8695  -18.4445  -12.8977 O   0  0  0  0  0  0  0  0  0  0  0  0
   26.3872  -20.6727  -12.8555 N   0  0  0  0  0  0  0  0  0  0  0  0
   25.5093  -20.4705  -11.6919 C   0  0  1  0  0  0  0  0  0  0  0  0
   24.3439  -21.4290  -11.8794 C   0  0  0  0  0  0  0  0  0  0  0  0
   23.0125  -20.6069  -12.7801 S   0  0  0  0  0  0  0  0  0  0  0  0
   26.2852  -20.8494  -10.4845 C   0  0  0  0  0  0  0  0  0  0  0  0
   27.1223  -21.7833  -10.4684 O   0  0  0  0  0  0  0  0  0  0  0  0
   26.0811  -20.1297   -9.2835 N   0  0  0  0  0  0  0  0  0  0  0  0
   26.7969  -20.5032   -8.0656 C   0  0  1  0  0  0  0  0  0  0  0  0
   27.5210  -19.3102   -7.4879 C   0  0  0  0  0  0  0  0  0  0  0  0
   28.1533  -19.5426   -6.1923 C   0  0  0  0  0  0  0  0  0  0  0  0
   27.5750  -18.9787   -5.0574 C   0  0  0  0  0  0  0  0  0  0  0  0
   28.1793  -19.2178   -3.8458 C   0  0  0  0  0  0  0  0  0  0  0  0
   29.3236  -19.9894   -3.7352 C   0  0  0  0  0  0  0  0  0  0  0  0
   29.8910  -20.5452   -4.8655 C   0  0  0  0  0  0  0  0  0  0  0  0
   29.2991  -20.3165   -6.0897 C   0  0  0  0  0  0  0  0  0  0  0  0
   25.8007  -21.0580   -7.1204 C   0  0  0  0  0  0  0  0  0  0  0  0
   26.1541  -21.7575   -6.1119 O   0  0  0  0  0  0  0  0  0  0  0  0
   24.4498  -20.8189   -7.3227 O   0  0  0  0  0  0  0  0  0  0  0  0
  1  2  1  0
  2  3  1  0
  4  3  1  0
  5  1  1  0
  5  4  1  0
  5  6  1  1
  7  6  2  0
  8  6  1  0
  9  8  1  0
  9 10  1  6
 11 10  1  0
 12  9  1  0
 12 13  2  0
 14 12  1  0
 15 14  1  0
 15 16  1  1
 16 17  1  0
 17 22  1  0
 17 18  2  0
 18 19  1  0
 19 20  2  0
 21 20  1  0
 22 21  2  0
 23 15  1  0
 24 23  2  0
 25 23  1  0
M  END
$$$$
