PCF.pdb
     RDKit          3D

 25 26  0  0  1  0  0  0  0  0999 V2000
   28.3165  -21.1694  -15.2818 N   0  0  0  0  0  0  0  0  0  0  0  0
   27.4954  -21.1443  -16.4487 C   0  0  0  0  0  0  0  0  0  0  0  0
   27.2675  -19.6868  -16.7712 C   0  0  0  0  0  0  0  0  0  0  0  0
   28.2979  -18.9330  -15.9400 C   0  0  0  0  0  0  0  0  0  0  0  0
   28.4824  -19.8474  -14.7711 C   0  0  1  0  0  0  0  0  0  0  0  0
   27.4184  -19.5378  -13.7615 C   0  0  0  0  0  0  0  0  0  0  0  0
   27.1155  -18.3498  -13.4766 O   0  0  0  0  0  0  0  0  0  0  0  0
   26.6968  -20.5547  -13.0738 N   0  0  0  0  0  0  0  0  0  0  0  0
   25.6727  -20.1886  -12.0825 C   0  0  1  0  0  0  0  0  0  0  0  0
   24.4089  -20.9238  -12.5001 C   0  0  0  0  0  0  0  0  0  0  0  0
   23.0273  -20.4093  -11.4580 S   0  0  0  0  0  0  0  0  0  0  0  0
   26.1367  -20.6907  -10.7649 C   0  0  0  0  0  0  0  0  0  0  0  0
   26.5954  -21.8449  -10.5900 O   0  0  0  0  0  0  0  0  0  0  0  0
   26.0640  -19.8356   -9.6400 N   0  0  0  0  0  0  0  0  0  0  0  0
   26.3665  -20.3427   -8.3035 C   0  0  1  0  0  0  0  0  0  0  0  0
   26.6929  -19.2053   -7.3649 C   0  0  0  0  0  0  0  0  0  0  0  0
   27.5823  -19.5547   -6.2607 C   0  0  0  0  0  0  0  0  0  0  0  0
   28.5665  -18.6439   -5.8834 C   0  0  0  0  0  0  0  0  0  0  0  0
   29.3869  -18.9869   -4.8348 C   0  0  0  0  0  0  0  0  0  0  0  0
   29.2567  -20.1907   -4.1634 C   0  0  0  0  0  0  0  0  0  0  0  0
   28.2781  -21.0886   -4.5436 C   0  0  0  0  0  0  0  0  0  0  0  0
   27.4455  -20.7622   -5.5932 C   0  0  0  0  0  0  0  0  0  0  0  0
   25.1889  -21.1167   -7.8477 C   0  0  0  0  0  0  0  0  0  0  0  0
   24.0072  -20.8249   -8.2347 O   0  0  0  0  0  0  0  0  0  0  0  0
   25.3593  -22.1863   -6.9817 O   0  0  0  0  0  0  0  0  0  0  0  0
  1  2  1  0
  2  3  1  0
  4  3  1  0
  5  1  1  0
  5  4  1  0
  5  6  1  1
  7  6  2  0
  8  6  1  0
  9  8  1  0
  9 10  1  6
 11 10  1  0
 12  9  1  0
 12 13  2  0
 14 12  1  0
 15 14  1  0
 15 16  1  1
 16 17  1  0
 17 22  1  0
 17 18  2  0
 18 19  1  0
 19 20  2  0
 21 20  1  0
 22 21  2  0
 23 15  1  0
 24 23  2  0
 25 23  1  0
M  END
$$$$
