PCF.pdb
     RDKit          3D

 25 26  0  0  1  0  0  0  0  0999 V2000
   28.8122  -24.1953  -16.9682 N   0  0  0  0  0  0  0  0  0  0  0  0
   28.4892  -24.6422  -18.2845 C   0  0  0  0  0  0  0  0  0  0  0  0
   28.8913  -23.5257  -19.2182 C   0  0  0  0  0  0  0  0  0  0  0  0
   29.7750  -22.6099  -18.3806 C   0  0  0  0  0  0  0  0  0  0  0  0
   29.2359  -22.8332  -17.0037 C   0  0  1  0  0  0  0  0  0  0  0  0
   28.0677  -21.9152  -16.8033 C   0  0  0  0  0  0  0  0  0  0  0  0
   28.1832  -20.6707  -16.9524 O   0  0  0  0  0  0  0  0  0  0  0  0
   26.7759  -22.3893  -16.4372 N   0  0  0  0  0  0  0  0  0  0  0  0
   25.6651  -21.4398  -16.2635 C   0  0  1  0  0  0  0  0  0  0  0  0
   24.5986  -21.8612  -17.2620 C   0  0  0  0  0  0  0  0  0  0  0  0
   24.3263  -20.5404  -18.4625 S   0  0  0  0  0  0  0  0  0  0  0  0
   25.1554  -21.6077  -14.8795 C   0  0  0  0  0  0  0  0  0  0  0  0
   24.9212  -22.7262  -14.3625 O   0  0  0  0  0  0  0  0  0  0  0  0
   24.9167  -20.4571  -14.0915 N   0  0  0  0  0  0  0  0  0  0  0  0
   24.4148  -20.5862  -12.7253 C   0  0  1  0  0  0  0  0  0  0  0  0
   25.2062  -19.7099  -11.7835 C   0  0  0  0  0  0  0  0  0  0  0  0
   26.5191  -20.2319  -11.4144 C   0  0  0  0  0  0  0  0  0  0  0  0
   27.5563  -20.1429  -12.3401 C   0  0  0  0  0  0  0  0  0  0  0  0
   28.7874  -20.6304  -11.9698 C   0  0  0  0  0  0  0  0  0  0  0  0
   29.0102  -21.1941  -10.7249 C   0  0  0  0  0  0  0  0  0  0  0  0
   27.9763  -21.2786   -9.8125 C   0  0  0  0  0  0  0  0  0  0  0  0
   26.7344  -20.7948  -10.1658 C   0  0  0  0  0  0  0  0  0  0  0  0
   22.9792  -20.2228  -12.7460 C   0  0  0  0  0  0  0  0  0  0  0  0
   22.4604  -19.6061  -13.7369 O   0  0  0  0  0  0  0  0  0  0  0  0
   22.1679  -20.5549  -11.6714 O   0  0  0  0  0  0  0  0  0  0  0  0
  1  2  1  0
  2  3  1  0
  4  3  1  0
  5  1  1  0
  5  4  1  0
  5  6  1  6
  7  6  2  0
  8  6  1  0
  9  8  1  0
  9 10  1  6
 11 10  1  0
 12  9  1  0
 12 13  2  0
 14 12  1  0
 15 14  1  0
 15 16  1  1
 16 17  1  0
 17 22  1  0
 17 18  2  0
 18 19  1  0
 19 20  2  0
 21 20  1  0
 22 21  2  0
 23 15  1  0
 24 23  2  0
 25 23  1  0
M  END
$$$$
