PCF.pdb
     RDKit          3D

 25 26  0  0  1  0  0  0  0  0999 V2000
   27.5783  -17.9525  -15.7451 N   0  0  0  0  0  0  0  0  0  0  0  0
   26.6124  -17.1395  -16.4103 C   0  0  0  0  0  0  0  0  0  0  0  0
   26.1169  -16.1497  -15.3832 C   0  0  0  0  0  0  0  0  0  0  0  0
   27.1198  -16.2328  -14.2394 C   0  0  0  0  0  0  0  0  0  0  0  0
   27.6027  -17.6435  -14.3523 C   0  0  1  0  0  0  0  0  0  0  0  0
   26.6508  -18.5262  -13.6026 C   0  0  0  0  0  0  0  0  0  0  0  0
   25.5406  -18.0925  -13.1978 O   0  0  0  0  0  0  0  0  0  0  0  0
   26.9412  -19.8886  -13.3075 N   0  0  0  0  0  0  0  0  0  0  0  0
   26.0835  -20.6393  -12.3767 C   0  0  1  0  0  0  0  0  0  0  0  0
   26.0392  -22.0628  -12.9092 C   0  0  0  0  0  0  0  0  0  0  0  0
   25.0322  -23.0934  -11.8213 S   0  0  0  0  0  0  0  0  0  0  0  0
   26.7493  -20.6171  -11.0501 C   0  0  0  0  0  0  0  0  0  0  0  0
   27.9913  -20.7088  -10.9009 O   0  0  0  0  0  0  0  0  0  0  0  0
   25.9560  -20.4865   -9.8859 N   0  0  0  0  0  0  0  0  0  0  0  0
   26.5297  -20.7408   -8.5664 C   0  0  1  0  0  0  0  0  0  0  0  0
   27.4014  -19.5855   -8.1344 C   0  0  0  0  0  0  0  0  0  0  0  0
   27.9269  -19.6857   -6.7756 C   0  0  0  0  0  0  0  0  0  0  0  0
   29.0692  -20.4524   -6.5574 C   0  0  0  0  0  0  0  0  0  0  0  0
   29.5544  -20.5257   -5.2730 C   0  0  0  0  0  0  0  0  0  0  0  0
   28.9441  -19.8680   -4.2185 C   0  0  0  0  0  0  0  0  0  0  0  0
   27.8115  -19.1095   -4.4433 C   0  0  0  0  0  0  0  0  0  0  0  0
   27.3101  -19.0240   -5.7249 C   0  0  0  0  0  0  0  0  0  0  0  0
   25.4036  -20.9654   -7.6310 C   0  0  0  0  0  0  0  0  0  0  0  0
   25.5952  -21.4134   -6.4503 O   0  0  0  0  0  0  0  0  0  0  0  0
   24.1063  -20.6858   -8.0332 O   0  0  0  0  0  0  0  0  0  0  0  0
  1  2  1  0
  2  3  1  0
  4  3  1  0
  5  1  1  0
  5  4  1  0
  5  6  1  1
  7  6  2  0
  8  6  1  0
  9  8  1  0
  9 10  1  6
 11 10  1  0
 12  9  1  0
 12 13  2  0
 14 12  1  0
 15 14  1  0
 15 16  1  1
 16 17  1  0
 17 22  1  0
 17 18  2  0
 18 19  1  0
 19 20  2  0
 21 20  1  0
 22 21  2  0
 23 15  1  0
 24 23  2  0
 25 23  1  0
M  END
$$$$
