PCF.pdb
     RDKit          3D

 25 26  0  0  1  0  0  0  0  0999 V2000
   26.0191  -17.4615  -16.1113 N   0  0  0  0  0  0  0  0  0  0  0  0
   25.7486  -16.1047  -15.7616 C   0  0  0  0  0  0  0  0  0  0  0  0
   26.7112  -15.7566  -14.6515 C   0  0  0  0  0  0  0  0  0  0  0  0
   27.7516  -16.8693  -14.6682 C   0  0  0  0  0  0  0  0  0  0  0  0
   26.9632  -18.0231  -15.2007 C   0  0  1  0  0  0  0  0  0  0  0  0
   26.2577  -18.6786  -14.0518 C   0  0  0  0  0  0  0  0  0  0  0  0
   25.1019  -18.3197  -13.7058 O   0  0  0  0  0  0  0  0  0  0  0  0
   26.8444  -19.7315  -13.2936 N   0  0  0  0  0  0  0  0  0  0  0  0
   26.0195  -20.5143  -12.3596 C   0  0  1  0  0  0  0  0  0  0  0  0
   26.0326  -21.9398  -12.8886 C   0  0  0  0  0  0  0  0  0  0  0  0
   25.2015  -23.0357  -11.7189 S   0  0  0  0  0  0  0  0  0  0  0  0
   26.6858  -20.4616  -11.0342 C   0  0  0  0  0  0  0  0  0  0  0  0
   27.9268  -20.5616  -10.8824 O   0  0  0  0  0  0  0  0  0  0  0  0
   25.8941  -20.2903   -9.8741 N   0  0  0  0  0  0  0  0  0  0  0  0
   26.4632  -20.5214   -8.5484 C   0  0  1  0  0  0  0  0  0  0  0  0
   26.9156  -19.2197   -7.9301 C   0  0  0  0  0  0  0  0  0  0  0  0
   27.4780  -19.3389   -6.5878 C   0  0  0  0  0  0  0  0  0  0  0  0
   28.6737  -18.6823   -6.3051 C   0  0  0  0  0  0  0  0  0  0  0  0
   29.1814  -18.7981   -5.0327 C   0  0  0  0  0  0  0  0  0  0  0  0
   28.5426  -19.5367   -4.0512 C   0  0  0  0  0  0  0  0  0  0  0  0
   27.3571  -20.1848   -4.3394 C   0  0  0  0  0  0  0  0  0  0  0  0
   26.8322  -20.0802   -5.6102 C   0  0  0  0  0  0  0  0  0  0  0  0
   25.4243  -21.1910   -7.7323 C   0  0  0  0  0  0  0  0  0  0  0  0
   24.1896  -21.1471   -8.0559 O   0  0  0  0  0  0  0  0  0  0  0  0
   25.7872  -21.8862   -6.5886 O   0  0  0  0  0  0  0  0  0  0  0  0
  1  2  1  0
  2  3  1  0
  4  3  1  0
  5  1  1  0
  5  4  1  0
  5  6  1  1
  7  6  2  0
  8  6  1  0
  9  8  1  0
  9 10  1  6
 11 10  1  0
 12  9  1  0
 12 13  2  0
 14 12  1  0
 15 14  1  0
 15 16  1  1
 16 17  1  0
 17 22  1  0
 17 18  2  0
 18 19  1  0
 19 20  2  0
 21 20  1  0
 22 21  2  0
 23 15  1  0
 24 23  2  0
 25 23  1  0
M  END
$$$$
