PCF.pdb
     RDKit          3D

 25 26  0  0  1  0  0  0  0  0999 V2000
   27.6707  -20.0674  -15.3234 N   0  0  0  0  0  0  0  0  0  0  0  0
   26.9772  -19.1412  -16.1587 C   0  0  0  0  0  0  0  0  0  0  0  0
   27.4297  -17.7664  -15.7283 C   0  0  0  0  0  0  0  0  0  0  0  0
   28.6658  -18.0083  -14.8712 C   0  0  0  0  0  0  0  0  0  0  0  0
   28.3939  -19.3681  -14.3115 C   0  0  1  0  0  0  0  0  0  0  0  0
   27.5526  -19.2087  -13.0810 C   0  0  0  0  0  0  0  0  0  0  0  0
   27.8961  -18.4315  -12.1523 O   0  0  0  0  0  0  0  0  0  0  0  0
   26.3319  -19.9168  -12.8914 N   0  0  0  0  0  0  0  0  0  0  0  0
   25.5521  -19.7230  -11.6586 C   0  0  1  0  0  0  0  0  0  0  0  0
   24.1195  -20.0910  -12.0112 C   0  0  0  0  0  0  0  0  0  0  0  0
   23.0991  -20.0801  -10.5218 S   0  0  0  0  0  0  0  0  0  0  0  0
   26.0831  -20.6725  -10.6486 C   0  0  0  0  0  0  0  0  0  0  0  0
   26.3275  -21.8773  -10.8970 O   0  0  0  0  0  0  0  0  0  0  0  0
   26.3310  -20.2096   -9.3348 N   0  0  0  0  0  0  0  0  0  0  0  0
   26.7765  -21.1348   -8.2953 C   0  0  1  0  0  0  0  0  0  0  0  0
   28.1101  -20.7013   -7.7341 C   0  0  0  0  0  0  0  0  0  0  0  0
   28.0598  -20.1554   -6.3806 C   0  0  0  0  0  0  0  0  0  0  0  0
   28.3962  -20.9856   -5.3139 C   0  0  0  0  0  0  0  0  0  0  0  0
   28.3529  -20.4500   -4.0484 C   0  0  0  0  0  0  0  0  0  0  0  0
   27.9902  -19.1335   -3.8199 C   0  0  0  0  0  0  0  0  0  0  0  0
   27.6581  -18.3165   -4.8832 C   0  0  0  0  0  0  0  0  0  0  0  0
   27.6958  -18.8359   -6.1600 C   0  0  0  0  0  0  0  0  0  0  0  0
   25.7228  -21.1710   -7.2551 C   0  0  0  0  0  0  0  0  0  0  0  0
   24.7253  -20.3739   -7.2867 O   0  0  0  0  0  0  0  0  0  0  0  0
   25.8084  -22.0875   -6.2179 O   0  0  0  0  0  0  0  0  0  0  0  0
  1  2  1  0
  2  3  1  0
  4  3  1  0
  5  1  1  0
  5  4  1  0
  5  6  1  1
  7  6  2  0
  8  6  1  0
  9  8  1  0
  9 10  1  6
 11 10  1  0
 12  9  1  0
 12 13  2  0
 14 12  1  0
 15 14  1  0
 15 16  1  1
 16 17  1  0
 17 22  1  0
 17 18  2  0
 18 19  1  0
 19 20  2  0
 21 20  1  0
 22 21  2  0
 23 15  1  0
 24 23  2  0
 25 23  1  0
M  END
$$$$
