PCF.pdb
     RDKit          3D

 25 26  0  0  1  0  0  0  0  0999 V2000
   17.0607  -11.7261  -14.3282 N   0  0  0  0  0  0  0  0  0  0  0  0
   16.0938  -12.5841  -13.7237 C   0  0  0  0  0  0  0  0  0  0  0  0
   14.8619  -11.7394  -13.5022 C   0  0  0  0  0  0  0  0  0  0  0  0
   15.0850  -10.4886  -14.3429 C   0  0  0  0  0  0  0  0  0  0  0  0
   16.5767  -10.3840  -14.3535 C   0  0  1  0  0  0  0  0  0  0  0  0
   17.0038   -9.6492  -13.1185 C   0  0  0  0  0  0  0  0  0  0  0  0
   17.0854  -10.2342  -12.0070 O   0  0  0  0  0  0  0  0  0  0  0  0
   17.3378   -8.2650  -13.1286 N   0  0  0  0  0  0  0  0  0  0  0  0
   17.9181   -7.6390  -11.9300 C   0  0  1  0  0  0  0  0  0  0  0  0
   19.0975   -6.8148  -12.4216 C   0  0  0  0  0  0  0  0  0  0  0  0
   20.5725   -7.2225  -11.4635 S   0  0  0  0  0  0  0  0  0  0  0  0
   16.8819   -6.7447  -11.3555 C   0  0  0  0  0  0  0  0  0  0  0  0
   16.0767   -6.0847  -12.0550 O   0  0  0  0  0  0  0  0  0  0  0  0
   16.7854   -6.6201   -9.9495 N   0  0  0  0  0  0  0  0  0  0  0  0
   15.7820   -5.7427   -9.3509 C   0  0  1  0  0  0  0  0  0  0  0  0
   15.2799   -6.3204   -8.0488 C   0  0  0  0  0  0  0  0  0  0  0  0
   14.1418   -7.2265   -8.1762 C   0  0  0  0  0  0  0  0  0  0  0  0
   12.8704   -6.7472   -7.8689 C   0  0  0  0  0  0  0  0  0  0  0  0
   11.8107   -7.6125   -8.0053 C   0  0  0  0  0  0  0  0  0  0  0  0
   11.9791   -8.9189   -8.4317 C   0  0  0  0  0  0  0  0  0  0  0  0
   13.2433   -9.3866   -8.7346 C   0  0  0  0  0  0  0  0  0  0  0  0
   14.3186   -8.5334   -8.6040 C   0  0  0  0  0  0  0  0  0  0  0  0
   16.4120   -4.4156   -9.1619 C   0  0  0  0  0  0  0  0  0  0  0  0
   17.6812   -4.2728   -9.1609 O   0  0  0  0  0  0  0  0  0  0  0  0
   15.6169   -3.2938   -8.9822 O   0  0  0  0  0  0  0  0  0  0  0  0
  1  2  1  0
  2  3  1  0
  4  3  1  0
  5  1  1  0
  5  4  1  0
  5  6  1  1
  7  6  2  0
  8  6  1  0
  9  8  1  0
  9 10  1  6
 11 10  1  0
 12  9  1  0
 12 13  2  0
 14 12  1  0
 15 14  1  0
 15 16  1  1
 16 17  1  0
 17 22  1  0
 17 18  2  0
 18 19  1  0
 19 20  2  0
 21 20  1  0
 22 21  2  0
 23 15  1  0
 24 23  2  0
 25 23  1  0
M  END
$$$$
