PCF.pdb
     RDKit          3D

 25 26  0  0  1  0  0  0  0  0999 V2000
   27.9075  -19.7143  -15.6605 N   0  0  0  0  0  0  0  0  0  0  0  0
   27.0111  -19.1596  -16.6224 C   0  0  0  0  0  0  0  0  0  0  0  0
   26.8493  -17.7037  -16.2559 C   0  0  0  0  0  0  0  0  0  0  0  0
   27.9779  -17.4164  -15.2737 C   0  0  0  0  0  0  0  0  0  0  0  0
   28.1872  -18.7554  -14.6416 C   0  0  1  0  0  0  0  0  0  0  0  0
   27.2157  -18.8957  -13.5085 C   0  0  0  0  0  0  0  0  0  0  0  0
   26.7267  -17.8849  -12.9398 O   0  0  0  0  0  0  0  0  0  0  0  0
   26.7939  -20.1629  -13.0146 N   0  0  0  0  0  0  0  0  0  0  0  0
   25.7939  -20.2375  -11.9375 C   0  0  1  0  0  0  0  0  0  0  0  0
   24.8529  -21.3682  -12.3222 C   0  0  0  0  0  0  0  0  0  0  0  0
   25.8040  -22.8548  -12.7033 S   0  0  0  0  0  0  0  0  0  0  0  0
   26.5175  -20.5856  -10.6890 C   0  0  0  0  0  0  0  0  0  0  0  0
   27.5177  -21.3419  -10.6603 O   0  0  0  0  0  0  0  0  0  0  0  0
   26.0680  -20.0445   -9.4614 N   0  0  0  0  0  0  0  0  0  0  0  0
   26.6973  -20.4396   -8.2033 C   0  0  1  0  0  0  0  0  0  0  0  0
   27.4578  -19.2810   -7.6028 C   0  0  0  0  0  0  0  0  0  0  0  0
   27.9861  -19.5204   -6.2626 C   0  0  0  0  0  0  0  0  0  0  0  0
   27.4511  -18.8006   -5.1967 C   0  0  0  0  0  0  0  0  0  0  0  0
   27.9546  -19.0479   -3.9414 C   0  0  0  0  0  0  0  0  0  0  0  0
   28.9584  -19.9759   -3.7222 C   0  0  0  0  0  0  0  0  0  0  0  0
   29.4836  -20.6858   -4.7846 C   0  0  0  0  0  0  0  0  0  0  0  0
   28.9914  -20.4515   -6.0511 C   0  0  0  0  0  0  0  0  0  0  0  0
   25.6236  -20.9229   -7.3049 C   0  0  0  0  0  0  0  0  0  0  0  0
   25.8880  -21.5653   -6.2332 O   0  0  0  0  0  0  0  0  0  0  0  0
   24.2961  -20.6780   -7.6224 O   0  0  0  0  0  0  0  0  0  0  0  0
  1  2  1  0
  2  3  1  0
  4  3  1  0
  5  1  1  0
  5  4  1  0
  5  6  1  1
  7  6  2  0
  8  6  1  0
  9  8  1  0
  9 10  1  6
 11 10  1  0
 12  9  1  0
 12 13  2  0
 14 12  1  0
 15 14  1  0
 15 16  1  1
 16 17  1  0
 17 22  1  0
 17 18  2  0
 18 19  1  0
 19 20  2  0
 21 20  1  0
 22 21  2  0
 23 15  1  0
 24 23  2  0
 25 23  1  0
M  END
$$$$
