PCF.pdb
     RDKit          3D

 25 26  0  0  1  0  0  0  0  0999 V2000
   22.5554  -19.8443  -14.3564 N   0  0  0  0  0  0  0  0  0  0  0  0
   23.0118  -19.7854  -15.7072 C   0  0  0  0  0  0  0  0  0  0  0  0
   23.0686  -21.2136  -16.1945 C   0  0  0  0  0  0  0  0  0  0  0  0
   22.2791  -22.0131  -15.1656 C   0  0  0  0  0  0  0  0  0  0  0  0
   22.4763  -21.2020  -13.9248 C   0  0  1  0  0  0  0  0  0  0  0  0
   23.7656  -21.6258  -13.2880 C   0  0  0  0  0  0  0  0  0  0  0  0
   23.9313  -22.8017  -12.8706 O   0  0  0  0  0  0  0  0  0  0  0  0
   24.8646  -20.7362  -13.1193 N   0  0  0  0  0  0  0  0  0  0  0  0
   26.0451  -21.1618  -12.3507 C   0  0  1  0  0  0  0  0  0  0  0  0
   27.2389  -20.5048  -13.0254 C   0  0  0  0  0  0  0  0  0  0  0  0
   28.7546  -20.9334  -12.1430 S   0  0  0  0  0  0  0  0  0  0  0  0
   25.8881  -20.6304  -10.9735 C   0  0  0  0  0  0  0  0  0  0  0  0
   25.2697  -19.5716  -10.7098 O   0  0  0  0  0  0  0  0  0  0  0  0
   26.4595  -21.3435   -9.8933 N   0  0  0  0  0  0  0  0  0  0  0  0
   26.5795  -20.7219   -8.5764 C   0  0  1  0  0  0  0  0  0  0  0  0
   27.6432  -21.4137   -7.7572 C   0  0  0  0  0  0  0  0  0  0  0  0
   28.0261  -20.7174   -6.5320 C   0  0  0  0  0  0  0  0  0  0  0  0
   27.2417  -20.8904   -5.3939 C   0  0  0  0  0  0  0  0  0  0  0  0
   27.6247  -20.2348   -4.2477 C   0  0  0  0  0  0  0  0  0  0  0  0
   28.7476  -19.4258   -4.2043 C   0  0  0  0  0  0  0  0  0  0  0  0
   29.5203  -19.2595   -5.3374 C   0  0  0  0  0  0  0  0  0  0  0  0
   29.1520  -19.9091   -6.4965 C   0  0  0  0  0  0  0  0  0  0  0  0
   26.8892  -19.2895   -8.7907 C   0  0  0  0  0  0  0  0  0  0  0  0
   26.2990  -18.3718   -8.1267 O   0  0  0  0  0  0  0  0  0  0  0  0
   27.8410  -18.9224   -9.7301 O   0  0  0  0  0  0  0  0  0  0  0  0
  1  2  1  0
  2  3  1  0
  4  3  1  0
  5  1  1  0
  5  4  1  0
  5  6  1  6
  7  6  2  0
  8  6  1  0
  9  8  1  0
  9 10  1  6
 11 10  1  0
 12  9  1  0
 12 13  2  0
 14 12  1  0
 15 14  1  0
 15 16  1  1
 16 17  1  0
 17 22  1  0
 17 18  2  0
 18 19  1  0
 19 20  2  0
 21 20  1  0
 22 21  2  0
 23 15  1  0
 24 23  2  0
 25 23  1  0
M  END
$$$$
