PCF.pdb
     RDKit          3D

 25 26  0  0  1  0  0  0  0  0999 V2000
   22.3431  -12.7510  -18.1173 N   0  0  0  0  0  0  0  0  0  0  0  0
   21.3896  -13.8124  -18.0874 C   0  0  0  0  0  0  0  0  0  0  0  0
   20.1488  -13.2822  -18.7654 C   0  0  0  0  0  0  0  0  0  0  0  0
   20.6009  -12.0152  -19.4804 C   0  0  0  0  0  0  0  0  0  0  0  0
   21.7360  -11.5613  -18.6192 C   0  0  1  0  0  0  0  0  0  0  0  0
   21.1737  -10.7448  -17.4946 C   0  0  0  0  0  0  0  0  0  0  0  0
   20.1283  -11.0999  -16.8902 O   0  0  0  0  0  0  0  0  0  0  0  0
   21.7798   -9.5358  -17.0491 N   0  0  0  0  0  0  0  0  0  0  0  0
   21.1404   -8.7381  -15.9907 C   0  0  1  0  0  0  0  0  0  0  0  0
   22.2508   -8.3715  -15.0188 C   0  0  0  0  0  0  0  0  0  0  0  0
   21.5558   -8.0651  -13.3809 S   0  0  0  0  0  0  0  0  0  0  0  0
   20.6027   -7.5106  -16.6292 C   0  0  0  0  0  0  0  0  0  0  0  0
   21.1558   -6.9399  -17.5996 O   0  0  0  0  0  0  0  0  0  0  0  0
   19.4067   -6.9440  -16.1289 N   0  0  0  0  0  0  0  0  0  0  0  0
   18.8586   -5.7269  -16.7233 C   0  0  1  0  0  0  0  0  0  0  0  0
   17.5725   -6.0262  -17.4565 C   0  0  0  0  0  0  0  0  0  0  0  0
   16.8685   -4.8535  -17.9678 C   0  0  0  0  0  0  0  0  0  0  0  0
   15.7166   -4.4280  -17.3101 C   0  0  0  0  0  0  0  0  0  0  0  0
   15.0741   -3.3158  -17.8004 C   0  0  0  0  0  0  0  0  0  0  0  0
   15.5390   -2.6276  -18.9083 C   0  0  0  0  0  0  0  0  0  0  0  0
   16.6822   -3.0558  -19.5549 C   0  0  0  0  0  0  0  0  0  0  0  0
   17.3404   -4.1695  -19.0776 C   0  0  0  0  0  0  0  0  0  0  0  0
   18.6573   -4.7518  -15.6268 C   0  0  0  0  0  0  0  0  0  0  0  0
   18.5446   -3.5007  -15.8577 O   0  0  0  0  0  0  0  0  0  0  0  0
   18.5865   -5.1942  -14.3144 O   0  0  0  0  0  0  0  0  0  0  0  0
  1  2  1  0
  2  3  1  0
  4  3  1  0
  5  1  1  0
  5  4  1  0
  5  6  1  1
  7  6  2  0
  8  6  1  0
  9  8  1  0
  9 10  1  1
 11 10  1  0
 12  9  1  0
 12 13  2  0
 14 12  1  0
 15 14  1  0
 15 16  1  1
 16 17  1  0
 17 22  1  0
 17 18  2  0
 18 19  1  0
 19 20  2  0
 21 20  1  0
 22 21  2  0
 23 15  1  0
 24 23  2  0
 25 23  1  0
M  END
$$$$
