DTE.pdb
     RDKit          3D

 25 24  0  0  1  0  0  0  0  0999 V2000
   10.6147  -15.6402   16.3395 N   0  0  0  0  0  0  0  0  0  0  0  0
   11.8910  -15.4371   16.9937 C   0  0  1  0  0  0  0  0  0  0  0  0
   12.7394  -14.5433   16.1177 C   0  0  0  0  0  0  0  0  0  0  0  0
   13.1423  -15.2894   14.9005 C   0  0  0  0  0  0  0  0  0  0  0  0
   12.2624  -15.7150   14.1063 O   0  0  0  0  0  0  0  0  0  0  0  0
   11.6251  -14.8212   18.3181 C   0  0  0  0  0  0  0  0  0  0  0  0
   12.5628  -14.4041   19.0428 O   0  0  0  0  0  0  0  0  0  0  0  0
   14.4570  -15.5675   14.5510 O   0  0  0  0  0  0  0  0  0  0  0  0
    8.3574  -12.5158   19.2028 C   0  0  0  0  0  0  0  0  0  0  0  0
    8.5126  -13.7334   20.0562 C   0  0  1  0  0  0  0  0  0  0  0  0
    7.6257  -14.7549   19.7382 O   0  0  0  0  0  0  0  0  0  0  0  0
    9.9429  -14.1997   20.1122 C   0  0  2  0  0  0  0  0  0  0  0  0
   10.2979  -14.6890   18.7994 N   0  0  0  0  0  0  0  0  0  0  0  0
   10.1676  -15.2762   21.1265 C   0  0  0  0  0  0  0  0  0  0  0  0
    9.8295  -16.4620   20.8266 O   0  0  0  0  0  0  0  0  0  0  0  0
   10.7301  -15.0506   22.3859 N   0  0  0  0  0  0  0  0  0  0  0  0
   10.9352  -16.0560   23.4210 C   0  0  1  0  0  0  0  0  0  0  0  0
   12.3777  -16.0824   23.8374 C   0  0  0  0  0  0  0  0  0  0  0  0
   13.2814  -16.5344   22.7344 C   0  0  0  0  0  0  0  0  0  0  0  0
   14.6463  -16.0148   22.7800 C   0  0  0  0  0  0  0  0  0  0  0  0
   15.0287  -15.2363   23.6887 O   0  0  0  0  0  0  0  0  0  0  0  0
   10.0494  -15.8339   24.5790 C   0  0  0  0  0  0  0  0  0  0  0  0
    9.3381  -14.8189   24.6324 O   0  0  0  0  0  0  0  0  0  0  0  0
   15.5436  -16.3981   21.7835 O   0  0  0  0  0  0  0  0  0  0  0  0
   10.0125  -16.7520   25.5980 O   0  0  0  0  0  0  0  0  0  0  0  0
  2  1  1  6
  3  2  1  0
  3  4  1  0
  4  8  1  0
  4  5  2  0
  6  2  1  0
  7  6  2  0
 10  9  1  6
 10 12  1  0
 11 10  1  0
 12 14  1  0
 12 13  1  6
 13  6  1  0
 14 16  1  0
 15 14  2  0
 16 17  1  0
 17 18  1  1
 17 22  1  0
 19 20  1  0
 19 18  1  0
 20 21  2  0
 22 23  2  0
 22 25  1  0
 24 20  1  0
M  END
$$$$
