DTE.pdb
     RDKit          3D

 25 24  0  0  1  0  0  0  0  0999 V2000
   10.1615  -19.1475   15.4432 N   0  0  0  0  0  0  0  0  0  0  0  0
   10.4347  -17.9167   16.1566 C   0  0  1  0  0  0  0  0  0  0  0  0
    9.2407  -17.0018   16.0042 C   0  0  0  0  0  0  0  0  0  0  0  0
    9.1205  -16.5847   14.5857 C   0  0  0  0  0  0  0  0  0  0  0  0
    9.9922  -16.9440   13.7508 O   0  0  0  0  0  0  0  0  0  0  0  0
   10.6852  -18.2662   17.5777 C   0  0  0  0  0  0  0  0  0  0  0  0
    9.7739  -18.7367   18.3032 O   0  0  0  0  0  0  0  0  0  0  0  0
    8.0890  -15.8026   14.0835 O   0  0  0  0  0  0  0  0  0  0  0  0
   12.6521  -20.8663   18.9307 C   0  0  0  0  0  0  0  0  0  0  0  0
   13.3129  -19.6057   19.3882 C   0  0  1  0  0  0  0  0  0  0  0  0
   14.4477  -19.2733   18.6581 O   0  0  0  0  0  0  0  0  0  0  0  0
   12.3341  -18.4669   19.4948 C   0  0  2  0  0  0  0  0  0  0  0  0
   11.9670  -18.0752   18.1529 N   0  0  0  0  0  0  0  0  0  0  0  0
   12.8880  -17.2865   20.2283 C   0  0  0  0  0  0  0  0  0  0  0  0
   13.5494  -16.4276   19.5685 O   0  0  0  0  0  0  0  0  0  0  0  0
   12.7176  -17.0749   21.5993 N   0  0  0  0  0  0  0  0  0  0  0  0
   13.2959  -15.9829   22.3721 C   0  0  1  0  0  0  0  0  0  0  0  0
   12.6870  -15.9415   23.7441 C   0  0  0  0  0  0  0  0  0  0  0  0
   11.2048  -15.7441   23.7044 C   0  0  0  0  0  0  0  0  0  0  0  0
   10.5177  -15.8407   24.9904 C   0  0  0  0  0  0  0  0  0  0  0  0
   11.1164  -16.1951   26.0363 O   0  0  0  0  0  0  0  0  0  0  0  0
   14.7654  -16.0846   22.4432 C   0  0  0  0  0  0  0  0  0  0  0  0
   15.4428  -15.0954   22.7622 O   0  0  0  0  0  0  0  0  0  0  0  0
    9.1595  -15.5293   25.0503 O   0  0  0  0  0  0  0  0  0  0  0  0
   15.3833  -17.2756   22.1562 O   0  0  0  0  0  0  0  0  0  0  0  0
  2  1  1  6
  3  2  1  0
  3  4  1  0
  4  8  1  0
  4  5  2  0
  6  2  1  0
  7  6  2  0
 10  9  1  6
 10 12  1  0
 11 10  1  0
 12 14  1  0
 12 13  1  6
 13  6  1  0
 14 16  1  0
 15 14  2  0
 16 17  1  0
 17 18  1  1
 17 22  1  0
 19 20  1  0
 19 18  1  0
 20 21  2  0
 22 23  2  0
 22 25  1  0
 24 20  1  0
M  END
$$$$
