DTE.pdb
     RDKit          3D

 25 24  0  0  1  0  0  0  0  0999 V2000
    8.5700  -18.0895   17.8020 N   0  0  0  0  0  0  0  0  0  0  0  0
    9.9497  -17.6540   17.8733 C   0  0  1  0  0  0  0  0  0  0  0  0
   10.3457  -17.1005   16.5232 C   0  0  0  0  0  0  0  0  0  0  0  0
   10.2723  -18.1811   15.5095 C   0  0  0  0  0  0  0  0  0  0  0  0
   10.7640  -19.3125   15.7629 O   0  0  0  0  0  0  0  0  0  0  0  0
   10.0428  -16.6264   18.9407 C   0  0  0  0  0  0  0  0  0  0  0  0
   11.0570  -15.8934   19.0527 O   0  0  0  0  0  0  0  0  0  0  0  0
    9.6849  -18.0439   14.2589 O   0  0  0  0  0  0  0  0  0  0  0  0
    7.5682  -14.0170   22.3117 C   0  0  0  0  0  0  0  0  0  0  0  0
    7.6596  -14.9095   21.1158 C   0  0  1  0  0  0  0  0  0  0  0  0
    7.2411  -14.3064   19.9358 O   0  0  0  0  0  0  0  0  0  0  0  0
    9.0181  -15.5467   20.9947 C   0  0  2  0  0  0  0  0  0  0  0  0
    8.9825  -16.4474   19.8649 N   0  0  0  0  0  0  0  0  0  0  0  0
    9.4229  -16.2984   22.2232 C   0  0  0  0  0  0  0  0  0  0  0  0
    8.7390  -17.3141   22.5566 O   0  0  0  0  0  0  0  0  0  0  0  0
   10.5126  -15.9465   23.0245 N   0  0  0  0  0  0  0  0  0  0  0  0
   10.9374  -16.6351   24.2368 C   0  0  1  0  0  0  0  0  0  0  0  0
   12.3887  -16.3592   24.5064 C   0  0  0  0  0  0  0  0  0  0  0  0
   13.2327  -16.4968   23.2792 C   0  0  0  0  0  0  0  0  0  0  0  0
   14.6657  -16.2818   23.4679 C   0  0  0  0  0  0  0  0  0  0  0  0
   15.4198  -17.1875   23.9026 O   0  0  0  0  0  0  0  0  0  0  0  0
   10.1003  -16.2671   25.3938 C   0  0  0  0  0  0  0  0  0  0  0  0
    9.3489  -15.2820   25.3297 O   0  0  0  0  0  0  0  0  0  0  0  0
   15.2037  -15.0337   23.1548 O   0  0  0  0  0  0  0  0  0  0  0  0
   10.1532  -17.0160   26.5422 O   0  0  0  0  0  0  0  0  0  0  0  0
  2  1  1  6
  3  2  1  0
  3  4  1  0
  4  8  1  0
  4  5  2  0
  6  2  1  0
  7  6  2  0
 10  9  1  1
 10 12  1  0
 11 10  1  0
 12 14  1  0
 12 13  1  6
 13  6  1  0
 14 16  1  0
 15 14  2  0
 16 17  1  0
 17 18  1  1
 17 22  1  0
 19 20  1  0
 19 18  1  0
 20 21  2  0
 22 23  2  0
 22 25  1  0
 24 20  1  0
M  END
$$$$
