DTE.pdb
     RDKit          3D

 25 24  0  0  1  0  0  0  0  0999 V2000
    7.4594  -17.1185   17.3274 N   0  0  0  0  0  0  0  0  0  0  0  0
    8.8398  -16.8080   17.0169 C   0  0  1  0  0  0  0  0  0  0  0  0
    8.8819  -16.1089   15.6770 C   0  0  0  0  0  0  0  0  0  0  0  0
    8.5633  -17.0837   14.6051 C   0  0  0  0  0  0  0  0  0  0  0  0
    7.4026  -17.5647   14.5202 O   0  0  0  0  0  0  0  0  0  0  0  0
    9.3633  -15.9461   18.1065 C   0  0  0  0  0  0  0  0  0  0  0  0
   10.3700  -15.2150   17.9321 O   0  0  0  0  0  0  0  0  0  0  0  0
    9.4718  -17.5260   13.6527 O   0  0  0  0  0  0  0  0  0  0  0  0
    7.3905  -13.4386   20.1377 C   0  0  0  0  0  0  0  0  0  0  0  0
    7.9619  -14.4496   21.0791 C   0  0  1  0  0  0  0  0  0  0  0  0
    7.0225  -15.3478   21.5713 O   0  0  0  0  0  0  0  0  0  0  0  0
    9.1733  -15.1315   20.5012 C   0  0  2  0  0  0  0  0  0  0  0  0
    8.7357  -15.9285   19.3777 N   0  0  0  0  0  0  0  0  0  0  0  0
    9.8807  -16.0035   21.4898 C   0  0  0  0  0  0  0  0  0  0  0  0
    9.5440  -17.2251   21.5597 O   0  0  0  0  0  0  0  0  0  0  0  0
   10.8924  -15.5497   22.3406 N   0  0  0  0  0  0  0  0  0  0  0  0
   11.6533  -16.3702   23.2745 C   0  0  1  0  0  0  0  0  0  0  0  0
   13.0145  -15.7754   23.4947 C   0  0  0  0  0  0  0  0  0  0  0  0
   14.1046  -16.7950   23.3974 C   0  0  0  0  0  0  0  0  0  0  0  0
   15.4680  -16.2703   23.4295 C   0  0  0  0  0  0  0  0  0  0  0  0
   16.4517  -16.9987   23.7119 O   0  0  0  0  0  0  0  0  0  0  0  0
   10.9364  -16.5496   24.5507 C   0  0  0  0  0  0  0  0  0  0  0  0
    9.9872  -15.8053   24.8410 O   0  0  0  0  0  0  0  0  0  0  0  0
   15.6750  -14.9222   23.1375 O   0  0  0  0  0  0  0  0  0  0  0  0
   11.3204  -17.5415   25.4175 O   0  0  0  0  0  0  0  0  0  0  0  0
  2  1  1  1
  3  2  1  0
  3  4  1  0
  4  8  1  0
  4  5  2  0
  6  2  1  0
  7  6  2  0
 10  9  1  6
 10 12  1  0
 11 10  1  0
 12 14  1  0
 12 13  1  6
 13  6  1  0
 14 16  1  0
 15 14  2  0
 16 17  1  0
 17 18  1  1
 17 22  1  0
 19 20  1  0
 19 18  1  0
 20 21  2  0
 22 23  2  0
 22 25  1  0
 24 20  1  0
M  END
$$$$
