DTE.pdb
     RDKit          3D

 25 24  0  0  1  0  0  0  0  0999 V2000
    8.2362  -17.4093   16.5688 N   0  0  0  0  0  0  0  0  0  0  0  0
    8.3513  -18.0733   17.8511 C   0  0  1  0  0  0  0  0  0  0  0  0
    9.2147  -19.3021   17.6763 C   0  0  0  0  0  0  0  0  0  0  0  0
    9.4817  -19.5124   16.2323 C   0  0  0  0  0  0  0  0  0  0  0  0
   10.6688  -19.5885   15.8190 O   0  0  0  0  0  0  0  0  0  0  0  0
    8.9513  -17.1076   18.8059 C   0  0  0  0  0  0  0  0  0  0  0  0
   10.0989  -16.6325   18.6171 O   0  0  0  0  0  0  0  0  0  0  0  0
    8.4953  -19.6372   15.2630 O   0  0  0  0  0  0  0  0  0  0  0  0
    6.7719  -14.2922   20.6853 C   0  0  0  0  0  0  0  0  0  0  0  0
    7.5606  -15.1388   21.6320 C   0  0  1  0  0  0  0  0  0  0  0  0
    6.7881  -16.0492   22.3431 O   0  0  0  0  0  0  0  0  0  0  0  0
    8.7439  -15.7801   20.9574 C   0  0  2  0  0  0  0  0  0  0  0  0
    8.2388  -16.6969   19.9608 N   0  0  0  0  0  0  0  0  0  0  0  0
    9.6329  -16.5147   21.9103 C   0  0  0  0  0  0  0  0  0  0  0  0
    9.6239  -17.7834   21.8812 O   0  0  0  0  0  0  0  0  0  0  0  0
   10.4742  -15.8833   22.8306 N   0  0  0  0  0  0  0  0  0  0  0  0
   11.4399  -16.5462   23.6979 C   0  0  1  0  0  0  0  0  0  0  0  0
   12.8375  -16.1676   23.2998 C   0  0  0  0  0  0  0  0  0  0  0  0
   13.8713  -16.8039   24.1736 C   0  0  0  0  0  0  0  0  0  0  0  0
   15.2572  -16.4461   23.8796 C   0  0  0  0  0  0  0  0  0  0  0  0
   15.9977  -15.9041   24.7374 O   0  0  0  0  0  0  0  0  0  0  0  0
   11.1904  -16.2461   25.1201 C   0  0  0  0  0  0  0  0  0  0  0  0
   10.4595  -15.2948   25.4362 O   0  0  0  0  0  0  0  0  0  0  0  0
   15.7648  -16.7168   22.6090 O   0  0  0  0  0  0  0  0  0  0  0  0
   11.7676  -17.0210   26.0942 O   0  0  0  0  0  0  0  0  0  0  0  0
  2  1  1  6
  3  2  1  0
  3  4  1  0
  4  8  1  0
  4  5  2  0
  6  2  1  0
  7  6  2  0
 10  9  1  6
 10 12  1  0
 11 10  1  0
 12 14  1  0
 12 13  1  6
 13  6  1  0
 14 16  1  0
 15 14  2  0
 16 17  1  0
 17 18  1  6
 17 22  1  0
 19 20  1  0
 19 18  1  0
 20 21  2  0
 22 23  2  0
 22 25  1  0
 24 20  1  0
M  END
$$$$
