DTE.pdb
     RDKit          3D

 25 24  0  0  1  0  0  0  0  0999 V2000
    7.6426  -16.8038   16.7362 N   0  0  0  0  0  0  0  0  0  0  0  0
    9.0830  -16.9208   16.8363 C   0  0  1  0  0  0  0  0  0  0  0  0
    9.6916  -16.4483   15.5354 C   0  0  0  0  0  0  0  0  0  0  0  0
    9.2346  -17.3284   14.4321 C   0  0  0  0  0  0  0  0  0  0  0  0
    8.7130  -18.4440   14.6954 O   0  0  0  0  0  0  0  0  0  0  0  0
    9.5233  -16.0909   17.9858 C   0  0  0  0  0  0  0  0  0  0  0  0
   10.7291  -15.7709   18.1344 O   0  0  0  0  0  0  0  0  0  0  0  0
    9.3378  -17.0128   13.0839 O   0  0  0  0  0  0  0  0  0  0  0  0
    7.2285  -13.1265   19.6213 C   0  0  0  0  0  0  0  0  0  0  0  0
    7.6744  -14.1721   20.5924 C   0  0  1  0  0  0  0  0  0  0  0  0
    6.6681  -15.0565   20.9618 O   0  0  0  0  0  0  0  0  0  0  0  0
    8.9238  -14.8718   20.1280 C   0  0  2  0  0  0  0  0  0  0  0  0
    8.5871  -15.6375   18.9493 N   0  0  0  0  0  0  0  0  0  0  0  0
    9.5064  -15.7783   21.1658 C   0  0  0  0  0  0  0  0  0  0  0  0
    9.1843  -17.0055   21.1382 O   0  0  0  0  0  0  0  0  0  0  0  0
   10.3865  -15.3509   22.1638 N   0  0  0  0  0  0  0  0  0  0  0  0
   11.0075  -16.1987   23.1737 C   0  0  1  0  0  0  0  0  0  0  0  0
   12.4906  -15.9655   23.2036 C   0  0  0  0  0  0  0  0  0  0  0  0
   13.1942  -16.8900   24.1457 C   0  0  0  0  0  0  0  0  0  0  0  0
   14.6317  -16.6726   24.2920 C   0  0  0  0  0  0  0  0  0  0  0  0
   15.2255  -15.7424   23.6918 O   0  0  0  0  0  0  0  0  0  0  0  0
   10.4074  -15.9891   24.5045 C   0  0  0  0  0  0  0  0  0  0  0  0
    9.7794  -14.9468   24.7465 O   0  0  0  0  0  0  0  0  0  0  0  0
   15.3581  -17.5257   25.1227 O   0  0  0  0  0  0  0  0  0  0  0  0
   10.5442  -16.9488   25.4754 O   0  0  0  0  0  0  0  0  0  0  0  0
  2  1  1  6
  3  2  1  0
  3  4  1  0
  4  8  1  0
  4  5  2  0
  6  2  1  0
  7  6  2  0
 10  9  1  6
 10 12  1  0
 11 10  1  0
 12 14  1  0
 12 13  1  6
 13  6  1  0
 14 16  1  0
 15 14  2  0
 16 17  1  0
 17 18  1  1
 17 22  1  0
 19 20  1  0
 19 18  1  0
 20 21  2  0
 22 23  2  0
 22 25  1  0
 24 20  1  0
M  END
$$$$
