DTE.pdb
     RDKit          3D

 25 24  0  0  1  0  0  0  0  0999 V2000
    9.2644  -16.5826   15.7961 N   0  0  0  0  0  0  0  0  0  0  0  0
    8.6214  -17.0362   17.0122 C   0  0  1  0  0  0  0  0  0  0  0  0
    8.8382  -18.5272   17.1390 C   0  0  0  0  0  0  0  0  0  0  0  0
    8.3444  -19.2004   15.9128 C   0  0  0  0  0  0  0  0  0  0  0  0
    9.1659  -19.6698   15.0816 O   0  0  0  0  0  0  0  0  0  0  0  0
    9.2257  -16.2917   18.1456 C   0  0  0  0  0  0  0  0  0  0  0  0
   10.4711  -16.1651   18.2518 O   0  0  0  0  0  0  0  0  0  0  0  0
    7.0028  -19.3622   15.5937 O   0  0  0  0  0  0  0  0  0  0  0  0
    7.6318  -12.9523   19.8648 C   0  0  0  0  0  0  0  0  0  0  0  0
    7.8257  -14.0982   20.8053 C   0  0  1  0  0  0  0  0  0  0  0  0
    6.6458  -14.7521   21.1394 O   0  0  0  0  0  0  0  0  0  0  0  0
    8.8987  -15.0398   20.3275 C   0  0  2  0  0  0  0  0  0  0  0  0
    8.4060  -15.7030   19.1415 N   0  0  0  0  0  0  0  0  0  0  0  0
    9.2790  -16.0612   21.3522 C   0  0  0  0  0  0  0  0  0  0  0  0
    8.7335  -17.2053   21.2889 O   0  0  0  0  0  0  0  0  0  0  0  0
   10.2022  -15.8278   22.3752 N   0  0  0  0  0  0  0  0  0  0  0  0
   10.5731  -16.7725   23.4213 C   0  0  1  0  0  0  0  0  0  0  0  0
   12.0587  -16.9916   23.4170 C   0  0  0  0  0  0  0  0  0  0  0  0
   12.7895  -15.9284   22.6601 C   0  0  0  0  0  0  0  0  0  0  0  0
   14.2400  -16.0878   22.5839 C   0  0  0  0  0  0  0  0  0  0  0  0
   14.7847  -16.7732   21.6830 O   0  0  0  0  0  0  0  0  0  0  0  0
   10.1029  -16.3293   24.7470 C   0  0  0  0  0  0  0  0  0  0  0  0
   10.2769  -17.0500   25.7417 O   0  0  0  0  0  0  0  0  0  0  0  0
   15.0352  -15.4587   23.5416 O   0  0  0  0  0  0  0  0  0  0  0  0
    9.4724  -15.1178   24.8793 O   0  0  0  0  0  0  0  0  0  0  0  0
  2  1  1  6
  3  2  1  0
  3  4  1  0
  4  8  1  0
  4  5  2  0
  6  2  1  0
  7  6  2  0
 10  9  1  6
 10 12  1  0
 11 10  1  0
 12 14  1  0
 12 13  1  6
 13  6  1  0
 14 16  1  0
 15 14  2  0
 16 17  1  0
 17 18  1  1
 17 22  1  0
 19 20  1  0
 19 18  1  0
 20 21  2  0
 22 23  2  0
 22 25  1  0
 24 20  1  0
M  END
$$$$
