DTE.pdb
     RDKit          3D

 25 24  0  0  1  0  0  0  0  0999 V2000
    9.5517  -17.5471   18.6393 N   0  0  0  0  0  0  0  0  0  0  0  0
   10.8535  -17.3085   19.2283 C   0  0  1  0  0  0  0  0  0  0  0  0
   11.7308  -16.6421   18.1928 C   0  0  0  0  0  0  0  0  0  0  0  0
   12.4535  -17.6818   17.4200 C   0  0  0  0  0  0  0  0  0  0  0  0
   12.0480  -18.0049   16.2724 O   0  0  0  0  0  0  0  0  0  0  0  0
   10.6567  -16.4481   20.4221 C   0  0  0  0  0  0  0  0  0  0  0  0
   11.6024  -15.7758   20.9035 O   0  0  0  0  0  0  0  0  0  0  0  0
   13.5814  -18.3529   17.8734 O   0  0  0  0  0  0  0  0  0  0  0  0
    7.3695  -14.1912   21.2349 C   0  0  0  0  0  0  0  0  0  0  0  0
    7.6612  -15.2465   22.2529 C   0  0  1  0  0  0  0  0  0  0  0  0
    6.8177  -16.3481   22.1726 O   0  0  0  0  0  0  0  0  0  0  0  0
    9.1176  -15.6272   22.2638 C   0  0  2  0  0  0  0  0  0  0  0  0
    9.3886  -16.3652   21.0510 N   0  0  0  0  0  0  0  0  0  0  0  0
    9.4966  -16.4555   23.4505 C   0  0  0  0  0  0  0  0  0  0  0  0
    9.5650  -17.7144   23.3052 O   0  0  0  0  0  0  0  0  0  0  0  0
    9.7809  -15.9219   24.7105 N   0  0  0  0  0  0  0  0  0  0  0  0
   10.1611  -16.6838   25.8935 C   0  0  1  0  0  0  0  0  0  0  0  0
   10.6474  -15.7575   26.9707 C   0  0  0  0  0  0  0  0  0  0  0  0
    9.5802  -14.8218   27.4427 C   0  0  0  0  0  0  0  0  0  0  0  0
    9.9637  -13.9160   28.5233 C   0  0  0  0  0  0  0  0  0  0  0  0
   11.0751  -14.0078   29.1015 O   0  0  0  0  0  0  0  0  0  0  0  0
    9.0529  -17.5286   26.3763 C   0  0  0  0  0  0  0  0  0  0  0  0
    7.8924  -17.3095   25.9964 O   0  0  0  0  0  0  0  0  0  0  0  0
    9.0655  -12.9248   28.9183 O   0  0  0  0  0  0  0  0  0  0  0  0
    9.3069  -18.5584   27.2468 O   0  0  0  0  0  0  0  0  0  0  0  0
  2  1  1  6
  3  2  1  0
  3  4  1  0
  4  8  1  0
  4  5  2  0
  6  2  1  0
  7  6  2  0
 10  9  1  6
 10 12  1  0
 11 10  1  0
 12 14  1  0
 12 13  1  6
 13  6  1  0
 14 16  1  0
 15 14  2  0
 16 17  1  0
 17 18  1  1
 17 22  1  0
 19 20  1  0
 19 18  1  0
 20 21  2  0
 22 23  2  0
 22 25  1  0
 24 20  1  0
M  END
$$$$
