DTE.pdb
     RDKit          3D

 25 24  0  0  1  0  0  0  0  0999 V2000
    9.6565  -15.6315   16.6406 N   0  0  0  0  0  0  0  0  0  0  0  0
   10.2239  -16.3532   17.7612 C   0  0  1  0  0  0  0  0  0  0  0  0
   11.6564  -16.7031   17.4273 C   0  0  0  0  0  0  0  0  0  0  0  0
   11.6770  -17.6391   16.2766 C   0  0  0  0  0  0  0  0  0  0  0  0
   11.1892  -18.7937   16.3991 O   0  0  0  0  0  0  0  0  0  0  0  0
   10.1336  -15.4747   18.9546 C   0  0  0  0  0  0  0  0  0  0  0  0
   10.8121  -14.4209   19.0407 O   0  0  0  0  0  0  0  0  0  0  0  0
   12.2088  -17.3371   15.0300 O   0  0  0  0  0  0  0  0  0  0  0  0
    7.4095  -13.4753   20.1254 C   0  0  0  0  0  0  0  0  0  0  0  0
    7.6356  -14.5111   21.1794 C   0  0  1  0  0  0  0  0  0  0  0  0
    6.7224  -15.5579   21.1386 O   0  0  0  0  0  0  0  0  0  0  0  0
    9.0644  -14.9848   21.2022 C   0  0  2  0  0  0  0  0  0  0  0  0
    9.2741  -15.8071   20.0322 N   0  0  0  0  0  0  0  0  0  0  0  0
    9.4017  -15.7668   22.4321 C   0  0  0  0  0  0  0  0  0  0  0  0
    9.5803  -17.0179   22.3164 O   0  0  0  0  0  0  0  0  0  0  0  0
    9.5326  -15.1978   23.7019 N   0  0  0  0  0  0  0  0  0  0  0  0
    9.7843  -15.9241   24.9402 C   0  0  1  0  0  0  0  0  0  0  0  0
    9.9580  -14.9604   26.0786 C   0  0  0  0  0  0  0  0  0  0  0  0
   10.2064  -15.6543   27.3802 C   0  0  0  0  0  0  0  0  0  0  0  0
   10.2676  -14.7909   28.5574 C   0  0  0  0  0  0  0  0  0  0  0  0
   10.0484  -13.5561   28.4854 O   0  0  0  0  0  0  0  0  0  0  0  0
    8.7163  -16.9003   25.2256 C   0  0  0  0  0  0  0  0  0  0  0  0
    7.5529  -16.6744   24.8589 O   0  0  0  0  0  0  0  0  0  0  0  0
   10.5788  -15.3608   29.7918 O   0  0  0  0  0  0  0  0  0  0  0  0
    9.0110  -18.0597   25.8975 O   0  0  0  0  0  0  0  0  0  0  0  0
  2  1  1  6
  3  2  1  0
  3  4  1  0
  4  8  1  0
  4  5  2  0
  6  2  1  0
  7  6  2  0
 10  9  1  6
 10 12  1  0
 11 10  1  0
 12 14  1  0
 12 13  1  6
 13  6  1  0
 14 16  1  0
 15 14  2  0
 16 17  1  0
 17 18  1  1
 17 22  1  0
 19 20  1  0
 19 18  1  0
 20 21  2  0
 22 23  2  0
 22 25  1  0
 24 20  1  0
M  END
$$$$
