NIA.pdb
     RDKit          3D

 22 21  0  0  1  0  0  0  0  0999 V2000
   27.8778  -19.4649  -19.5752 N   0  0  0  0  0  0  0  0  0  0  0  0
   27.5584  -19.4362  -18.1858 C   0  0  0  0  0  0  0  0  0  0  0  0
   28.0757  -18.5292  -17.4978 O   0  0  0  0  0  0  0  0  0  0  0  0
   26.6580  -20.4165  -17.5384 C   0  0  0  0  0  0  0  0  0  0  0  0
   27.3169  -20.9638  -16.3201 C   0  0  2  0  0  0  0  0  0  0  0  0
   28.3164  -21.9149  -16.7003 N   0  0  0  0  0  0  0  0  0  0  0  0
   26.3658  -21.4822  -15.3153 C   0  0  0  0  0  0  0  0  0  0  0  0
   25.8652  -22.6199  -15.5119 O   0  0  0  0  0  0  0  0  0  0  0  0
   25.5937  -21.0553   -9.3739 C   0  0  0  0  0  0  0  0  0  0  0  0
   24.9882  -21.4980  -10.6802 C   0  0  0  0  0  0  0  0  0  0  0  0
   25.7700  -20.9088  -11.8367 C   0  0  2  0  0  0  0  0  0  0  0  0
   25.8450  -19.4296  -11.6138 C   0  0  0  0  0  0  0  0  0  0  0  0
   25.1473  -21.3878  -13.0831 C   0  0  2  0  0  0  0  0  0  0  0  0
   25.9763  -20.8012  -14.1543 N   0  0  0  0  0  0  0  0  0  0  0  0
   23.7776  -20.9900  -13.3537 C   0  0  0  0  0  0  0  0  0  0  0  0
   23.4476  -19.7775  -13.3861 O   0  0  0  0  0  0  0  0  0  0  0  0
   20.6929  -22.7880  -14.4468 C   0  0  0  0  0  0  0  0  0  0  0  0
   21.3695  -21.5367  -13.8733 C   0  0  2  0  0  0  0  0  0  0  0  0
   22.7463  -21.9349  -13.5943 N   0  0  0  0  0  0  0  0  0  0  0  0
   20.7027  -21.0761  -12.6508 C   0  0  0  0  0  0  0  0  0  0  0  0
   19.7832  -20.2151  -12.6844 O   0  0  0  0  0  0  0  0  0  0  0  0
   21.0730  -21.5822  -11.4257 O   0  0  0  0  0  0  0  0  0  0  0  0
  1  2  1  0
  2  4  1  0
  3  2  2  0
  4  5  1  0
  5  7  1  0
  5  6  1  6
  7  8  2  0
  9 10  1  0
 10 11  1  0
 11 12  1  6
 11 13  1  0
 13 14  1  6
 14  7  1  0
 15 13  1  0
 15 19  1  0
 16 15  2  0
 18 19  1  0
 18 17  1  1
 20 18  1  0
 21 20  2  0
 22 20  1  0
M  END
$$$$
