NIA.pdb
     RDKit          3D

 22 21  0  0  1  0  0  0  0  0999 V2000
   20.5040  -13.8610  -17.6136 N   0  0  0  0  0  0  0  0  0  0  0  0
   20.9540  -12.6925  -18.2958 C   0  0  0  0  0  0  0  0  0  0  0  0
   21.9012  -12.8283  -19.1008 O   0  0  0  0  0  0  0  0  0  0  0  0
   20.3575  -11.3531  -18.0938 C   0  0  0  0  0  0  0  0  0  0  0  0
   19.2716  -11.4434  -17.0785 C   0  0  2  0  0  0  0  0  0  0  0  0
   18.1332  -12.0966  -17.6490 N   0  0  0  0  0  0  0  0  0  0  0  0
   18.9480  -10.1501  -16.4417 C   0  0  0  0  0  0  0  0  0  0  0  0
   17.9805   -9.4924  -16.9054 O   0  0  0  0  0  0  0  0  0  0  0  0
   17.0445   -7.0343  -13.0214 C   0  0  0  0  0  0  0  0  0  0  0  0
   18.3851   -7.5504  -12.5680 C   0  0  0  0  0  0  0  0  0  0  0  0
   18.7542   -8.7898  -13.3575 C   0  0  2  0  0  0  0  0  0  0  0  0
   19.6710   -9.6060  -12.4993 C   0  0  0  0  0  0  0  0  0  0  0  0
   19.2518   -8.3469  -14.6717 C   0  0  2  0  0  0  0  0  0  0  0  0
   19.6388   -9.5965  -15.3556 N   0  0  0  0  0  0  0  0  0  0  0  0
   20.4167   -7.4810  -14.6994 C   0  0  0  0  0  0  0  0  0  0  0  0
   21.4191   -7.7172  -13.9789 O   0  0  0  0  0  0  0  0  0  0  0  0
   21.3756   -4.4400  -16.6718 C   0  0  0  0  0  0  0  0  0  0  0  0
   21.6690   -5.4740  -15.5777 C   0  0  2  0  0  0  0  0  0  0  0  0
   20.4894   -6.3333  -15.5312 N   0  0  0  0  0  0  0  0  0  0  0  0
   21.8980   -4.8332  -14.2784 C   0  0  0  0  0  0  0  0  0  0  0  0
   23.0495   -4.4757  -13.9121 O   0  0  0  0  0  0  0  0  0  0  0  0
   20.8452   -4.6064  -13.4214 O   0  0  0  0  0  0  0  0  0  0  0  0
  1  2  1  0
  2  4  1  0
  3  2  2  0
  4  5  1  0
  5  7  1  0
  5  6  1  6
  7  8  2  0
  9 10  1  0
 10 11  1  0
 11 12  1  1
 11 13  1  0
 13 14  1  6
 14  7  1  0
 15 13  1  0
 15 19  1  0
 16 15  2  0
 18 19  1  0
 18 17  1  6
 20 18  1  0
 21 20  2  0
 22 20  1  0
M  END
$$$$
