NIA.pdb
     RDKit          3D

 22 21  0  0  1  0  0  0  0  0999 V2000
   17.6877  -16.3118  -18.2034 N   0  0  0  0  0  0  0  0  0  0  0  0
   19.0063  -16.3195  -17.6609 C   0  0  0  0  0  0  0  0  0  0  0  0
   19.8151  -17.1481  -18.1331 O   0  0  0  0  0  0  0  0  0  0  0  0
   19.4473  -15.4051  -16.5837 C   0  0  0  0  0  0  0  0  0  0  0  0
   20.8810  -15.6622  -16.2730 C   0  0  2  0  0  0  0  0  0  0  0  0
   21.0122  -16.9309  -15.6240 N   0  0  0  0  0  0  0  0  0  0  0  0
   21.5349  -14.5581  -15.5407 C   0  0  0  0  0  0  0  0  0  0  0  0
   21.1586  -14.3308  -14.3616 O   0  0  0  0  0  0  0  0  0  0  0  0
   26.3989  -14.5768  -15.1133 C   0  0  0  0  0  0  0  0  0  0  0  0
   24.9732  -14.1929  -14.8150 C   0  0  0  0  0  0  0  0  0  0  0  0
   24.6383  -12.8826  -15.4983 C   0  0  2  0  0  0  0  0  0  0  0  0
   25.5917  -11.8529  -14.9748 C   0  0  0  0  0  0  0  0  0  0  0  0
   23.1961  -12.6432  -15.3162 C   0  0  2  0  0  0  0  0  0  0  0  0
   22.5470  -13.7403  -16.0605 N   0  0  0  0  0  0  0  0  0  0  0  0
   22.6429  -11.4055  -15.8356 C   0  0  0  0  0  0  0  0  0  0  0  0
   22.7684  -11.0959  -17.0473 O   0  0  0  0  0  0  0  0  0  0  0  0
   19.9933   -9.2519  -15.6210 C   0  0  0  0  0  0  0  0  0  0  0  0
   21.5197   -9.1719  -15.4940 C   0  0  2  0  0  0  0  0  0  0  0  0
   21.9376  -10.4866  -15.0156 N   0  0  0  0  0  0  0  0  0  0  0  0
   21.9277   -8.1219  -14.5546 C   0  0  0  0  0  0  0  0  0  0  0  0
   22.2479   -8.3879  -13.3652 O   0  0  0  0  0  0  0  0  0  0  0  0
   21.9696   -6.8071  -14.9590 O   0  0  0  0  0  0  0  0  0  0  0  0
  1  2  1  0
  2  4  1  0
  3  2  2  0
  4  5  1  0
  5  7  1  0
  5  6  1  1
  7  8  2  0
  9 10  1  0
 10 11  1  0
 11 12  1  1
 11 13  1  0
 13 14  1  6
 14  7  1  0
 15 13  1  0
 15 19  1  0
 16 15  2  0
 18 19  1  0
 18 17  1  1
 20 18  1  0
 21 20  2  0
 22 20  1  0
M  END
$$$$
