NIA.pdb
     RDKit          3D

 22 21  0  0  1  0  0  0  0  0999 V2000
   17.7926  -14.0036  -18.2347 N   0  0  0  0  0  0  0  0  0  0  0  0
   19.0099  -13.2653  -18.3151 C   0  0  0  0  0  0  0  0  0  0  0  0
   19.5837  -13.2262  -19.4254 O   0  0  0  0  0  0  0  0  0  0  0  0
   19.6091  -12.5580  -17.1613 C   0  0  0  0  0  0  0  0  0  0  0  0
   20.7316  -11.7014  -17.6350 C   0  0  2  0  0  0  0  0  0  0  0  0
   21.6987  -12.5086  -18.3142 N   0  0  0  0  0  0  0  0  0  0  0  0
   21.3156  -10.8524  -16.5763 C   0  0  0  0  0  0  0  0  0  0  0  0
   20.8011  -10.9062  -15.4291 O   0  0  0  0  0  0  0  0  0  0  0  0
   26.0571  -11.4304  -15.4410 C   0  0  0  0  0  0  0  0  0  0  0  0
   24.6143  -11.0101  -15.3369 C   0  0  0  0  0  0  0  0  0  0  0  0
   24.4674   -9.5623  -15.7588 C   0  0  2  0  0  0  0  0  0  0  0  0
   25.4376   -8.7624  -14.9452 C   0  0  0  0  0  0  0  0  0  0  0  0
   23.0385   -9.2158  -15.6653 C   0  0  2  0  0  0  0  0  0  0  0  0
   22.4038   -9.9873  -16.7519 N   0  0  0  0  0  0  0  0  0  0  0  0
   22.6622   -7.8282  -15.8672 C   0  0  0  0  0  0  0  0  0  0  0  0
   22.9815   -7.2146  -16.9167 O   0  0  0  0  0  0  0  0  0  0  0  0
   20.1519   -5.5417  -14.5477 C   0  0  0  0  0  0  0  0  0  0  0  0
   21.5813   -5.6865  -15.0847 C   0  0  2  0  0  0  0  0  0  0  0  0
   21.9216   -7.0949  -14.9038 N   0  0  0  0  0  0  0  0  0  0  0  0
   22.5200   -4.8263  -14.3565 C   0  0  0  0  0  0  0  0  0  0  0  0
   23.1396   -5.2375  -13.3393 O   0  0  0  0  0  0  0  0  0  0  0  0
   22.7459   -3.5350  -14.7757 O   0  0  0  0  0  0  0  0  0  0  0  0
  1  2  1  0
  2  4  1  0
  3  2  2  0
  4  5  1  0
  5  7  1  0
  5  6  1  1
  7  8  2  0
  9 10  1  0
 10 11  1  0
 11 12  1  1
 11 13  1  0
 13 14  1  6
 14  7  1  0
 15 13  1  0
 15 19  1  0
 16 15  2  0
 18 19  1  0
 18 17  1  1
 20 18  1  0
 21 20  2  0
 22 20  1  0
M  END
$$$$
