NIA.pdb
     RDKit          3D

 22 21  0  0  1  0  0  0  0  0999 V2000
   18.3955  -12.2497  -20.5481 N   0  0  0  0  0  0  0  0  0  0  0  0
   19.7052  -11.8870  -20.1162 C   0  0  0  0  0  0  0  0  0  0  0  0
   20.6441  -12.0653  -20.9225 O   0  0  0  0  0  0  0  0  0  0  0  0
   19.9921  -11.3198  -18.7795 C   0  0  0  0  0  0  0  0  0  0  0  0
   21.2880  -11.8589  -18.2814 C   0  0  2  0  0  0  0  0  0  0  0  0
   21.1623  -13.2634  -18.0369 N   0  0  0  0  0  0  0  0  0  0  0  0
   21.8378  -11.1103  -17.1324 C   0  0  0  0  0  0  0  0  0  0  0  0
   21.1824  -11.1176  -16.0582 O   0  0  0  0  0  0  0  0  0  0  0  0
   26.5855  -11.8995  -15.7080 C   0  0  0  0  0  0  0  0  0  0  0  0
   25.1431  -11.4717  -15.6339 C   0  0  0  0  0  0  0  0  0  0  0  0
   25.0221  -10.0033  -15.9872 C   0  0  2  0  0  0  0  0  0  0  0  0
   25.9236   -9.2480  -15.0598 C   0  0  0  0  0  0  0  0  0  0  0  0
   23.5886   -9.6630  -15.9848 C   0  0  2  0  0  0  0  0  0  0  0  0
   23.0391  -10.3891  -17.1466 N   0  0  0  0  0  0  0  0  0  0  0  0
   23.2218   -8.2688  -16.1556 C   0  0  0  0  0  0  0  0  0  0  0  0
   23.6683   -7.5927  -17.1166 O   0  0  0  0  0  0  0  0  0  0  0  0
   20.5199   -6.0807  -15.4050 C   0  0  0  0  0  0  0  0  0  0  0  0
   22.0506   -6.1738  -15.3766 C   0  0  2  0  0  0  0  0  0  0  0  0
   22.3494   -7.5983  -15.2593 N   0  0  0  0  0  0  0  0  0  0  0  0
   22.6148   -5.4286  -14.2463 C   0  0  0  0  0  0  0  0  0  0  0  0
   22.9621   -6.0064  -13.1817 O   0  0  0  0  0  0  0  0  0  0  0  0
   22.7783   -4.0644  -14.3270 O   0  0  0  0  0  0  0  0  0  0  0  0
  1  2  1  0
  2  4  1  0
  3  2  2  0
  4  5  1  0
  5  7  1  0
  5  6  1  1
  7  8  2  0
  9 10  1  0
 10 11  1  0
 11 12  1  1
 11 13  1  0
 13 14  1  6
 14  7  1  0
 15 13  1  0
 15 19  1  0
 16 15  2  0
 18 19  1  0
 18 17  1  1
 20 18  1  0
 21 20  2  0
 22 20  1  0
M  END
$$$$
