NIA.pdb
     RDKit          3D

 22 21  0  0  1  0  0  0  0  0999 V2000
   18.3889  -11.0455  -20.7941 N   0  0  0  0  0  0  0  0  0  0  0  0
   17.5166  -10.5357  -19.7879 C   0  0  0  0  0  0  0  0  0  0  0  0
   16.2922  -10.5276  -20.0417 O   0  0  0  0  0  0  0  0  0  0  0  0
   17.9921  -10.0263  -18.4821 C   0  0  0  0  0  0  0  0  0  0  0  0
   19.0759  -10.9107  -17.9712 C   0  0  2  0  0  0  0  0  0  0  0  0
   18.5538  -12.2216  -17.7316 N   0  0  0  0  0  0  0  0  0  0  0  0
   19.8027  -10.3483  -16.8143 C   0  0  0  0  0  0  0  0  0  0  0  0
   19.1868  -10.2579  -15.7207 O   0  0  0  0  0  0  0  0  0  0  0  0
   24.1907  -12.2373  -15.5174 C   0  0  0  0  0  0  0  0  0  0  0  0
   22.8987  -11.4705  -15.4082 C   0  0  0  0  0  0  0  0  0  0  0  0
   23.1475  -10.0004  -15.6778 C   0  0  2  0  0  0  0  0  0  0  0  0
   24.1733   -9.5356  -14.6905 C   0  0  0  0  0  0  0  0  0  0  0  0
   21.8392   -9.3228  -15.6839 C   0  0  2  0  0  0  0  0  0  0  0  0
   21.1318   -9.9054  -16.8411 N   0  0  0  0  0  0  0  0  0  0  0  0
   21.8216   -7.8830  -15.8688 C   0  0  0  0  0  0  0  0  0  0  0  0
   22.3897   -7.3476  -16.8540 O   0  0  0  0  0  0  0  0  0  0  0  0
   19.7045   -5.1327  -14.9183 C   0  0  0  0  0  0  0  0  0  0  0  0
   21.1611   -5.5599  -15.1379 C   0  0  2  0  0  0  0  0  0  0  0  0
   21.1702   -7.0091  -14.9599 N   0  0  0  0  0  0  0  0  0  0  0  0
   22.0628   -4.9118  -14.1797 C   0  0  0  0  0  0  0  0  0  0  0  0
   22.3989   -5.4752  -13.1039 O   0  0  0  0  0  0  0  0  0  0  0  0
   22.5669   -3.6579  -14.4402 O   0  0  0  0  0  0  0  0  0  0  0  0
  1  2  1  0
  2  4  1  0
  3  2  2  0
  4  5  1  0
  5  7  1  0
  5  6  1  1
  7  8  2  0
  9 10  1  0
 10 11  1  0
 11 12  1  1
 11 13  1  0
 13 14  1  6
 14  7  1  0
 15 13  1  0
 15 19  1  0
 16 15  2  0
 18 19  1  0
 18 17  1  1
 20 18  1  0
 21 20  2  0
 22 20  1  0
M  END
$$$$
