NIA.pdb
     RDKit          3D

 22 21  0  0  1  0  0  0  0  0999 V2000
   19.0235  -18.8578  -18.4282 N   0  0  0  0  0  0  0  0  0  0  0  0
   18.1468  -17.7349  -18.4901 C   0  0  0  0  0  0  0  0  0  0  0  0
   17.2436  -17.7604  -19.3545 O   0  0  0  0  0  0  0  0  0  0  0  0
   18.2604  -16.5646  -17.5911 C   0  0  0  0  0  0  0  0  0  0  0  0
   19.4284  -16.7483  -16.6854 C   0  0  2  0  0  0  0  0  0  0  0  0
   19.1237  -17.7445  -15.7041 N   0  0  0  0  0  0  0  0  0  0  0  0
   19.9306  -15.4864  -16.1040 C   0  0  0  0  0  0  0  0  0  0  0  0
   19.2792  -14.9758  -15.1561 O   0  0  0  0  0  0  0  0  0  0  0  0
   24.8332  -15.3056  -15.1633 C   0  0  0  0  0  0  0  0  0  0  0  0
   23.3830  -14.9266  -15.0135 C   0  0  0  0  0  0  0  0  0  0  0  0
   23.0622  -13.7499  -15.9125 C   0  0  2  0  0  0  0  0  0  0  0  0
   23.9071  -12.6002  -15.4571 C   0  0  0  0  0  0  0  0  0  0  0  0
   21.5993  -13.5748  -15.9091 C   0  0  2  0  0  0  0  0  0  0  0  0
   21.0822  -14.8107  -16.5289 N   0  0  0  0  0  0  0  0  0  0  0  0
   21.0467  -12.4675  -16.6681 C   0  0  0  0  0  0  0  0  0  0  0  0
   21.2959  -12.3307  -17.8925 O   0  0  0  0  0  0  0  0  0  0  0  0
   18.2214  -10.3658  -16.7701 C   0  0  0  0  0  0  0  0  0  0  0  0
   19.7536  -10.3050  -16.8047 C   0  0  2  0  0  0  0  0  0  0  0  0
   20.2043  -11.4891  -16.0789 N   0  0  0  0  0  0  0  0  0  0  0  0
   20.2585   -9.0823  -16.1711 C   0  0  0  0  0  0  0  0  0  0  0  0
   20.8433   -9.1098  -15.0552 O   0  0  0  0  0  0  0  0  0  0  0  0
   20.1015   -7.8637  -16.7913 O   0  0  0  0  0  0  0  0  0  0  0  0
  1  2  1  0
  2  4  1  0
  3  2  2  0
  4  5  1  0
  5  7  1  0
  5  6  1  1
  7  8  2  0
  9 10  1  0
 10 11  1  0
 11 12  1  1
 11 13  1  0
 13 14  1  6
 14  7  1  0
 15 13  1  0
 15 19  1  0
 16 15  2  0
 18 19  1  0
 18 17  1  1
 20 18  1  0
 21 20  2  0
 22 20  1  0
M  END
$$$$
