NIA.pdb
     RDKit          3D

 22 21  0  0  1  0  0  0  0  0999 V2000
   19.5594  -11.0893  -20.6234 N   0  0  0  0  0  0  0  0  0  0  0  0
   18.5796  -11.2654  -19.6024 C   0  0  0  0  0  0  0  0  0  0  0  0
   17.5493  -11.9074  -19.9020 O   0  0  0  0  0  0  0  0  0  0  0  0
   18.7299  -10.7299  -18.2308 C   0  0  0  0  0  0  0  0  0  0  0  0
   19.8165  -11.4674  -17.5283 C   0  0  2  0  0  0  0  0  0  0  0  0
   19.3978  -12.8120  -17.2732 N   0  0  0  0  0  0  0  0  0  0  0  0
   20.3224  -10.7725  -16.3267 C   0  0  0  0  0  0  0  0  0  0  0  0
   19.5769  -10.7318  -15.3137 O   0  0  0  0  0  0  0  0  0  0  0  0
   25.6150  -10.5448  -15.6160 C   0  0  0  0  0  0  0  0  0  0  0  0
   24.2476   -9.9911  -15.9205 C   0  0  0  0  0  0  0  0  0  0  0  0
   23.3453  -10.1534  -14.7141 C   0  0  2  0  0  0  0  0  0  0  0  0
   23.2981  -11.6146  -14.3886 C   0  0  0  0  0  0  0  0  0  0  0  0
   22.0741   -9.4725  -15.0159 C   0  0  2  0  0  0  0  0  0  0  0  0
   21.5747  -10.1519  -16.2275 N   0  0  0  0  0  0  0  0  0  0  0  0
   22.1205   -8.0548  -15.3246 C   0  0  0  0  0  0  0  0  0  0  0  0
   22.8158   -7.6197  -16.2771 O   0  0  0  0  0  0  0  0  0  0  0  0
   20.0765   -5.1415  -14.9479 C   0  0  0  0  0  0  0  0  0  0  0  0
   21.5155   -5.6570  -14.8222 C   0  0  2  0  0  0  0  0  0  0  0  0
   21.3926   -7.0915  -14.5786 N   0  0  0  0  0  0  0  0  0  0  0  0
   22.2284   -5.0010  -13.7209 C   0  0  0  0  0  0  0  0  0  0  0  0
   22.6765   -3.8283  -13.8300 O   0  0  0  0  0  0  0  0  0  0  0  0
   22.4250   -5.6624  -12.5301 O   0  0  0  0  0  0  0  0  0  0  0  0
  1  2  1  0
  2  4  1  0
  3  2  2  0
  4  5  1  0
  5  7  1  0
  5  6  1  1
  7  8  2  0
  9 10  1  0
 10 11  1  0
 11 12  1  6
 11 13  1  0
 13 14  1  6
 14  7  1  0
 15 13  1  0
 15 19  1  0
 16 15  2  0
 18 19  1  0
 18 17  1  1
 20 18  1  0
 21 20  2  0
 22 20  1  0
M  END
$$$$
