NIA.pdb
     RDKit          3D

 22 21  0  0  1  0  0  0  0  0999 V2000
   28.7668  -23.4483  -18.2118 N   0  0  0  0  0  0  0  0  0  0  0  0
   29.3354  -23.0791  -16.9573 C   0  0  0  0  0  0  0  0  0  0  0  0
   30.1754  -23.8590  -16.4575 O   0  0  0  0  0  0  0  0  0  0  0  0
   28.9789  -21.8357  -16.2379 C   0  0  0  0  0  0  0  0  0  0  0  0
   27.8421  -21.1706  -16.9333 C   0  0  2  0  0  0  0  0  0  0  0  0
   28.3342  -20.4155  -18.0450 N   0  0  0  0  0  0  0  0  0  0  0  0
   26.9729  -20.3877  -16.0309 C   0  0  0  0  0  0  0  0  0  0  0  0
   27.4981  -19.4498  -15.3765 O   0  0  0  0  0  0  0  0  0  0  0  0
   23.5718  -17.6111  -17.7916 C   0  0  0  0  0  0  0  0  0  0  0  0
   24.4877  -18.1545  -16.7263 C   0  0  0  0  0  0  0  0  0  0  0  0
   23.7562  -19.1900  -15.8966 C   0  0  2  0  0  0  0  0  0  0  0  0
   22.5569  -18.5169  -15.3036 C   0  0  0  0  0  0  0  0  0  0  0  0
   24.7352  -19.7925  -14.9751 C   0  0  2  0  0  0  0  0  0  0  0  0
   25.6019  -20.6100  -15.8465 N   0  0  0  0  0  0  0  0  0  0  0  0
   24.2357  -20.6779  -13.9386 C   0  0  0  0  0  0  0  0  0  0  0  0
   23.5482  -21.6904  -14.2249 O   0  0  0  0  0  0  0  0  0  0  0  0
   24.6084  -20.8571  -10.2166 C   0  0  0  0  0  0  0  0  0  0  0  0
   23.9010  -21.2783  -11.5107 C   0  0  2  0  0  0  0  0  0  0  0  0
   24.4922  -20.4539  -12.5608 N   0  0  0  0  0  0  0  0  0  0  0  0
   22.4531  -21.0585  -11.4291 C   0  0  0  0  0  0  0  0  0  0  0  0
   21.9240  -19.9878  -11.8311 O   0  0  0  0  0  0  0  0  0  0  0  0
   21.6321  -22.0307  -10.9046 O   0  0  0  0  0  0  0  0  0  0  0  0
  1  2  1  0
  2  4  1  0
  3  2  2  0
  4  5  1  0
  5  7  1  0
  5  6  1  6
  7  8  2  0
  9 10  1  0
 10 11  1  0
 11 12  1  1
 11 13  1  0
 13 14  1  6
 14  7  1  0
 15 13  1  0
 15 19  1  0
 16 15  2  0
 18 19  1  0
 18 17  1  1
 20 18  1  0
 21 20  2  0
 22 20  1  0
M  END
$$$$
