PDD.pdb
     RDKit          3D

 24 24  0  0  1  0  0  0  0  0999 V2000
   21.3153  -10.2156  -14.7779 N   0  0  0  0  0  0  0  0  0  0  0  0
   21.1189  -11.6354  -14.5949 C   0  0  0  0  0  0  0  0  0  0  0  0
   20.1480  -12.0057  -15.6677 C   0  0  0  0  0  0  0  0  0  0  0  0
   19.1951  -10.8059  -15.6362 C   0  0  0  0  0  0  0  0  0  0  0  0
   20.1695   -9.6683  -15.4167 C   0  0  1  0  0  0  0  0  0  0  0  0
   19.5967   -8.5433  -14.6465 C   0  0  0  0  0  0  0  0  0  0  0  0
   18.6378   -7.8720  -15.0964 O   0  0  0  0  0  0  0  0  0  0  0  0
   20.1048   -8.1703  -13.3631 N   0  0  0  0  0  0  0  0  0  0  0  0
   19.6213   -7.0443  -12.6140 C   0  0  1  0  0  0  0  0  0  0  0  0
   19.4840   -7.3323  -11.1392 C   0  0  0  0  0  0  0  0  0  0  0  0
   18.8663   -6.2016  -10.4058 C   0  0  0  0  0  0  0  0  0  0  0  0
   18.3935   -5.2064  -10.9677 O   0  0  0  0  0  0  0  0  0  0  0  0
   20.4379   -5.8179  -12.8623 C   0  0  0  0  0  0  0  0  0  0  0  0
   21.6501   -5.8469  -12.5401 O   0  0  0  0  0  0  0  0  0  0  0  0
   18.8202   -6.2710   -9.0214 O   0  0  0  0  0  0  0  0  0  0  0  0
   19.9276   -4.6351  -13.4350 N   0  0  0  0  0  0  0  0  0  0  0  0
   20.7061   -3.5144  -13.8778 C   0  0  1  0  0  0  0  0  0  0  0  0
   21.1569   -3.6310  -15.3116 C   0  0  0  0  0  0  0  0  0  0  0  0
   21.9766   -2.4935  -15.7479 C   0  0  0  0  0  0  0  0  0  0  0  0
   21.4356   -1.5785  -16.4184 O   0  0  0  0  0  0  0  0  0  0  0  0
   20.0499   -2.2119  -13.6311 C   0  0  0  0  0  0  0  0  0  0  0  0
   18.8074   -2.1965  -13.4900 O   0  0  0  0  0  0  0  0  0  0  0  0
   23.3246   -2.4071  -15.4386 O   0  0  0  0  0  0  0  0  0  0  0  0
   20.7618   -1.0568  -13.5571 O   0  0  0  0  0  0  0  0  0  0  0  0
  2  1  1  0
  3  2  1  0
  4  3  1  0
  4  5  1  0
  5  6  1  1
  5  1  1  0
  6  8  1  0
  7  6  2  0
  8  9  1  0
  9 13  1  0
  9 10  1  1
 10 11  1  0
 11 12  2  0
 13 16  1  0
 13 14  2  0
 15 11  1  0
 16 17  1  0
 17 21  1  0
 17 18  1  6
 19 18  1  0
 20 19  2  0
 21 22  2  0
 21 24  1  0
 23 19  1  0
M  END
$$$$
