PDD.pdb
     RDKit          3D

 24 24  0  0  1  0  0  0  0  0999 V2000
   24.6854  -11.0680  -16.2807 N   0  0  0  0  0  0  0  0  0  0  0  0
   24.9968  -12.4673  -16.0992 C   0  0  0  0  0  0  0  0  0  0  0  0
   25.7366  -12.8356  -17.3432 C   0  0  0  0  0  0  0  0  0  0  0  0
   24.9372  -12.0717  -18.4042 C   0  0  0  0  0  0  0  0  0  0  0  0
   24.6458  -10.7791  -17.6718 C   0  0  1  0  0  0  0  0  0  0  0  0
   23.3646  -10.1551  -18.0666 C   0  0  0  0  0  0  0  0  0  0  0  0
   23.1983   -9.6904  -19.2194 O   0  0  0  0  0  0  0  0  0  0  0  0
   22.2635  -10.0526  -17.1602 N   0  0  0  0  0  0  0  0  0  0  0  0
   20.9904   -9.4917  -17.5171 C   0  0  1  0  0  0  0  0  0  0  0  0
   19.8254  -10.3336  -17.0578 C   0  0  0  0  0  0  0  0  0  0  0  0
   19.9215  -11.7307  -17.5444 C   0  0  0  0  0  0  0  0  0  0  0  0
   20.2609  -12.0256  -18.6965 O   0  0  0  0  0  0  0  0  0  0  0  0
   20.8590   -8.0743  -17.0628 C   0  0  0  0  0  0  0  0  0  0  0  0
   19.8996   -7.4023  -17.5125 O   0  0  0  0  0  0  0  0  0  0  0  0
   19.6140  -12.7516  -16.6575 O   0  0  0  0  0  0  0  0  0  0  0  0
   21.7464   -7.4508  -16.1622 N   0  0  0  0  0  0  0  0  0  0  0  0
   21.7094   -6.0720  -15.7679 C   0  0  1  0  0  0  0  0  0  0  0  0
   21.4591   -5.8802  -14.2937 C   0  0  0  0  0  0  0  0  0  0  0  0
   21.3713   -4.4662  -13.9076 C   0  0  0  0  0  0  0  0  0  0  0  0
   22.4255   -3.8559  -13.5980 O   0  0  0  0  0  0  0  0  0  0  0  0
   22.8940   -5.3047  -16.2103 C   0  0  0  0  0  0  0  0  0  0  0  0
   23.9108   -5.9427  -16.5608 O   0  0  0  0  0  0  0  0  0  0  0  0
   20.1599   -3.7941  -13.8773 O   0  0  0  0  0  0  0  0  0  0  0  0
   22.8938   -3.9462  -16.2408 O   0  0  0  0  0  0  0  0  0  0  0  0
  2  1  1  0
  3  2  1  0
  4  3  1  0
  4  5  1  0
  5  6  1  6
  5  1  1  0
  6  8  1  0
  7  6  2  0
  8  9  1  0
  9 13  1  0
  9 10  1  1
 10 11  1  0
 11 12  2  0
 13 16  1  0
 13 14  2  0
 15 11  1  0
 16 17  1  0
 17 21  1  0
 17 18  1  1
 19 18  1  0
 20 19  2  0
 21 22  2  0
 21 24  1  0
 23 19  1  0
M  END
$$$$
