PDD.pdb
     RDKit          3D

 24 24  0  0  1  0  0  0  0  0999 V2000
   24.3549  -12.5081  -15.6684 N   0  0  0  0  0  0  0  0  0  0  0  0
   24.4364  -13.8201  -15.0684 C   0  0  0  0  0  0  0  0  0  0  0  0
   24.1206  -14.7505  -16.1931 C   0  0  0  0  0  0  0  0  0  0  0  0
   22.9919  -13.9928  -16.9005 C   0  0  0  0  0  0  0  0  0  0  0  0
   23.4900  -12.5671  -16.7947 C   0  0  1  0  0  0  0  0  0  0  0  0
   22.4025  -11.5691  -16.7045 C   0  0  0  0  0  0  0  0  0  0  0  0
   21.7357  -11.2443  -17.7156 O   0  0  0  0  0  0  0  0  0  0  0  0
   22.0623  -10.9322  -15.4704 N   0  0  0  0  0  0  0  0  0  0  0  0
   21.0897   -9.8811  -15.3605 C   0  0  1  0  0  0  0  0  0  0  0  0
   19.9302  -10.2419  -14.4649 C   0  0  0  0  0  0  0  0  0  0  0  0
   19.0433  -11.2565  -15.0830 C   0  0  0  0  0  0  0  0  0  0  0  0
   18.8836  -12.3912  -14.6177 O   0  0  0  0  0  0  0  0  0  0  0  0
   21.7138   -8.5843  -14.9587 C   0  0  0  0  0  0  0  0  0  0  0  0
   22.5474   -8.6019  -14.0212 O   0  0  0  0  0  0  0  0  0  0  0  0
   18.3628  -10.9080  -16.2402 O   0  0  0  0  0  0  0  0  0  0  0  0
   21.4215   -7.3476  -15.5690 N   0  0  0  0  0  0  0  0  0  0  0  0
   22.0671   -6.0986  -15.2837 C   0  0  1  0  0  0  0  0  0  0  0  0
   22.2213   -5.2167  -16.4965 C   0  0  0  0  0  0  0  0  0  0  0  0
   22.8684   -3.9340  -16.1927 C   0  0  0  0  0  0  0  0  0  0  0  0
   24.1222   -3.8614  -16.2405 O   0  0  0  0  0  0  0  0  0  0  0  0
   21.4432   -5.3594  -14.1646 C   0  0  0  0  0  0  0  0  0  0  0  0
   20.2163   -5.5075  -13.9733 O   0  0  0  0  0  0  0  0  0  0  0  0
   22.1320   -2.8093  -15.8567 O   0  0  0  0  0  0  0  0  0  0  0  0
   22.1678   -4.5396  -13.3589 O   0  0  0  0  0  0  0  0  0  0  0  0
  2  1  1  0
  3  2  1  0
  4  3  1  0
  4  5  1  0
  5  6  1  1
  5  1  1  0
  6  8  1  0
  7  6  2  0
  8  9  1  0
  9 13  1  0
  9 10  1  1
 10 11  1  0
 11 12  2  0
 13 16  1  0
 13 14  2  0
 15 11  1  0
 16 17  1  0
 17 21  1  0
 17 18  1  6
 19 18  1  0
 20 19  2  0
 21 22  2  0
 21 24  1  0
 23 19  1  0
M  END
$$$$
