PDD.pdb
     RDKit          3D

 24 24  0  0  1  0  0  0  0  0999 V2000
   21.2941  -12.8873  -16.8263 N   0  0  0  0  0  0  0  0  0  0  0  0
   20.7409  -14.2221  -16.8148 C   0  0  0  0  0  0  0  0  0  0  0  0
   20.5896  -14.5615  -18.2613 C   0  0  0  0  0  0  0  0  0  0  0  0
   20.0922  -13.2287  -18.8311 C   0  0  0  0  0  0  0  0  0  0  0  0
   20.9302  -12.2458  -18.0414 C   0  0  1  0  0  0  0  0  0  0  0  0
   20.2503  -10.9553  -17.7984 C   0  0  0  0  0  0  0  0  0  0  0  0
   19.9145  -10.2107  -18.7500 O   0  0  0  0  0  0  0  0  0  0  0  0
   19.9462  -10.4985  -16.4781 N   0  0  0  0  0  0  0  0  0  0  0  0
   19.3018   -9.2455  -16.1997 C   0  0  1  0  0  0  0  0  0  0  0  0
   17.9989   -9.4049  -15.4556 C   0  0  0  0  0  0  0  0  0  0  0  0
   17.3154   -8.1065  -15.2443 C   0  0  0  0  0  0  0  0  0  0  0  0
   17.3914   -7.1628  -16.0401 O   0  0  0  0  0  0  0  0  0  0  0  0
   20.2182   -8.2894  -15.5078 C   0  0  0  0  0  0  0  0  0  0  0  0
   20.9214   -8.7300  -14.5667 O   0  0  0  0  0  0  0  0  0  0  0  0
   16.5550   -7.9503  -14.0950 O   0  0  0  0  0  0  0  0  0  0  0  0
   20.3381   -6.9269  -15.8494 N   0  0  0  0  0  0  0  0  0  0  0  0
   21.2936   -6.0066  -15.3033 C   0  0  1  0  0  0  0  0  0  0  0  0
   21.7993   -5.0051  -16.3102 C   0  0  0  0  0  0  0  0  0  0  0  0
   22.8199   -4.1048  -15.7587 C   0  0  0  0  0  0  0  0  0  0  0  0
   22.5093   -2.9106  -15.5200 O   0  0  0  0  0  0  0  0  0  0  0  0
   20.8209   -5.3327  -14.0744 C   0  0  0  0  0  0  0  0  0  0  0  0
   21.6255   -4.5992  -13.4592 O   0  0  0  0  0  0  0  0  0  0  0  0
   24.1092   -4.5399  -15.4972 O   0  0  0  0  0  0  0  0  0  0  0  0
   19.5528   -5.4954  -13.6140 O   0  0  0  0  0  0  0  0  0  0  0  0
  2  1  1  0
  3  2  1  0
  4  3  1  0
  4  5  1  0
  5  6  1  1
  5  1  1  0
  6  8  1  0
  7  6  2  0
  8  9  1  0
  9 13  1  0
  9 10  1  1
 10 11  1  0
 11 12  2  0
 13 16  1  0
 13 14  2  0
 15 11  1  0
 16 17  1  0
 17 21  1  0
 17 18  1  6
 19 18  1  0
 20 19  2  0
 21 22  2  0
 21 24  1  0
 23 19  1  0
M  END
$$$$
