PDD.pdb
     RDKit          3D

 24 24  0  0  1  0  0  0  0  0999 V2000
   28.4511  -21.3722  -11.4327 N   0  0  0  0  0  0  0  0  0  0  0  0
   29.7282  -22.0413  -11.5290 C   0  0  0  0  0  0  0  0  0  0  0  0
   30.7228  -20.9287  -11.4691 C   0  0  0  0  0  0  0  0  0  0  0  0
   30.0331  -19.8640  -12.3288 C   0  0  0  0  0  0  0  0  0  0  0  0
   28.5908  -20.0382  -11.9029 C   0  0  1  0  0  0  0  0  0  0  0  0
   27.6196  -19.7295  -12.9745 C   0  0  0  0  0  0  0  0  0  0  0  0
   27.6087  -18.6080  -13.5356 O   0  0  0  0  0  0  0  0  0  0  0  0
   26.6545  -20.6868  -13.4180 N   0  0  0  0  0  0  0  0  0  0  0  0
   25.7481  -20.4547  -14.5077 C   0  0  1  0  0  0  0  0  0  0  0  0
   26.0070  -21.3536  -15.6917 C   0  0  0  0  0  0  0  0  0  0  0  0
   27.3110  -21.0654  -16.3355 C   0  0  0  0  0  0  0  0  0  0  0  0
   27.5797  -19.9819  -16.8677 O   0  0  0  0  0  0  0  0  0  0  0  0
   24.3213  -20.5187  -14.0688 C   0  0  0  0  0  0  0  0  0  0  0  0
   23.9964  -21.4261  -13.2655 O   0  0  0  0  0  0  0  0  0  0  0  0
   28.2716  -22.0657  -16.3366 O   0  0  0  0  0  0  0  0  0  0  0  0
   23.3233  -19.6227  -14.5029 N   0  0  0  0  0  0  0  0  0  0  0  0
   21.9401  -19.6605  -14.1239 C   0  0  1  0  0  0  0  0  0  0  0  0
   21.2297  -18.3469  -14.3291 C   0  0  0  0  0  0  0  0  0  0  0  0
   19.7908  -18.4244  -14.0466 C   0  0  0  0  0  0  0  0  0  0  0  0
   19.4078  -19.0275  -13.0126 O   0  0  0  0  0  0  0  0  0  0  0  0
   21.1922  -20.7729  -14.7493 C   0  0  0  0  0  0  0  0  0  0  0  0
   21.4408  -21.0512  -15.9428 O   0  0  0  0  0  0  0  0  0  0  0  0
   18.8520  -17.8510  -14.8893 O   0  0  0  0  0  0  0  0  0  0  0  0
   20.2590  -21.4814  -14.0609 O   0  0  0  0  0  0  0  0  0  0  0  0
  2  1  1  0
  3  2  1  0
  4  3  1  0
  4  5  1  0
  5  6  1  6
  5  1  1  0
  6  8  1  0
  7  6  2  0
  8  9  1  0
  9 13  1  0
  9 10  1  6
 10 11  1  0
 11 12  2  0
 13 16  1  0
 13 14  2  0
 15 11  1  0
 16 17  1  0
 17 21  1  0
 17 18  1  6
 19 18  1  0
 20 19  2  0
 21 22  2  0
 21 24  1  0
 23 19  1  0
M  END
$$$$
