PDD.pdb
     RDKit          3D

 24 24  0  0  1  0  0  0  0  0999 V2000
   26.8823  -20.2865  -15.2864 N   0  0  0  0  0  0  0  0  0  0  0  0
   28.0040  -20.9879  -15.8674 C   0  0  0  0  0  0  0  0  0  0  0  0
   28.4961  -20.0617  -16.9306 C   0  0  0  0  0  0  0  0  0  0  0  0
   27.1758  -19.5411  -17.5087 C   0  0  0  0  0  0  0  0  0  0  0  0
   26.3496  -19.3871  -16.2495 C   0  0  1  0  0  0  0  0  0  0  0  0
   24.9031  -19.6066  -16.4645 C   0  0  0  0  0  0  0  0  0  0  0  0
   24.2314  -18.8348  -17.1895 O   0  0  0  0  0  0  0  0  0  0  0  0
   24.2071  -20.7001  -15.8608 N   0  0  0  0  0  0  0  0  0  0  0  0
   22.7951  -20.9197  -16.0048 C   0  0  1  0  0  0  0  0  0  0  0  0
   22.4100  -22.3742  -15.8917 C   0  0  0  0  0  0  0  0  0  0  0  0
   20.9609  -22.5864  -16.1220 C   0  0  0  0  0  0  0  0  0  0  0  0
   20.0867  -22.2120  -15.3312 O   0  0  0  0  0  0  0  0  0  0  0  0
   22.0003  -20.0650  -15.0718 C   0  0  0  0  0  0  0  0  0  0  0  0
   22.3218  -20.0672  -13.8590 O   0  0  0  0  0  0  0  0  0  0  0  0
   20.5748  -23.2377  -17.2840 O   0  0  0  0  0  0  0  0  0  0  0  0
   20.9150  -19.2598  -15.4733 N   0  0  0  0  0  0  0  0  0  0  0  0
   20.1464  -18.4017  -14.6183 C   0  0  1  0  0  0  0  0  0  0  0  0
   20.5243  -16.9473  -14.7383 C   0  0  0  0  0  0  0  0  0  0  0  0
   19.7575  -16.0805  -13.8343 C   0  0  0  0  0  0  0  0  0  0  0  0
   19.1739  -16.5979  -12.8488 O   0  0  0  0  0  0  0  0  0  0  0  0
   18.6860  -18.5854  -14.7647 C   0  0  0  0  0  0  0  0  0  0  0  0
   18.0142  -18.8036  -13.7328 O   0  0  0  0  0  0  0  0  0  0  0  0
   19.6638  -14.7137  -14.0425 O   0  0  0  0  0  0  0  0  0  0  0  0
   18.0769  -18.5222  -15.9778 O   0  0  0  0  0  0  0  0  0  0  0  0
  2  1  1  0
  3  2  1  0
  4  3  1  0
  4  5  1  0
  5  6  1  6
  5  1  1  0
  6  8  1  0
  7  6  2  0
  8  9  1  0
  9 13  1  0
  9 10  1  1
 10 11  1  0
 11 12  2  0
 13 16  1  0
 13 14  2  0
 15 11  1  0
 16 17  1  0
 17 21  1  0
 17 18  1  6
 19 18  1  0
 20 19  2  0
 21 22  2  0
 21 24  1  0
 23 19  1  0
M  END
$$$$
