PDD.pdb
     RDKit          3D

 24 24  0  0  1  0  0  0  0  0999 V2000
   18.2766  -13.9837  -17.4564 N   0  0  0  0  0  0  0  0  0  0  0  0
   18.1886  -15.2937  -18.0599 C   0  0  0  0  0  0  0  0  0  0  0  0
   19.5259  -15.9030  -17.7938 C   0  0  0  0  0  0  0  0  0  0  0  0
   20.4526  -14.7049  -18.0266 C   0  0  0  0  0  0  0  0  0  0  0  0
   19.6405  -13.5868  -17.4083 C   0  0  1  0  0  0  0  0  0  0  0  0
   19.8538  -12.2758  -18.0583 C   0  0  0  0  0  0  0  0  0  0  0  0
   20.9816  -11.7274  -18.0562 O   0  0  0  0  0  0  0  0  0  0  0  0
   18.7932  -11.5765  -18.7145 N   0  0  0  0  0  0  0  0  0  0  0  0
   18.9686  -10.3232  -19.3935 C   0  0  1  0  0  0  0  0  0  0  0  0
   18.5764  -10.3813  -20.8494 C   0  0  0  0  0  0  0  0  0  0  0  0
   19.3963  -11.3553  -21.6089 C   0  0  0  0  0  0  0  0  0  0  0  0
   18.9694  -12.4535  -21.9850 O   0  0  0  0  0  0  0  0  0  0  0  0
   18.2817   -9.2031  -18.6820 C   0  0  0  0  0  0  0  0  0  0  0  0
   17.0836   -9.3691  -18.3486 O   0  0  0  0  0  0  0  0  0  0  0  0
   20.7058  -11.0104  -21.9086 O   0  0  0  0  0  0  0  0  0  0  0  0
   18.8989   -7.9760  -18.3649 N   0  0  0  0  0  0  0  0  0  0  0  0
   18.3068   -6.9105  -17.6083 C   0  0  1  0  0  0  0  0  0  0  0  0
   17.8533   -7.3353  -16.2349 C   0  0  0  0  0  0  0  0  0  0  0  0
   17.2507   -6.2385  -15.4667 C   0  0  0  0  0  0  0  0  0  0  0  0
   16.1056   -5.8317  -15.7874 O   0  0  0  0  0  0  0  0  0  0  0  0
   19.1554   -5.7011  -17.5376 C   0  0  0  0  0  0  0  0  0  0  0  0
   20.3034   -5.7583  -18.0302 O   0  0  0  0  0  0  0  0  0  0  0  0
   17.9122   -5.6460  -14.4030 O   0  0  0  0  0  0  0  0  0  0  0  0
   18.7155   -4.5535  -16.9578 O   0  0  0  0  0  0  0  0  0  0  0  0
  2  1  1  0
  3  2  1  0
  4  3  1  0
  4  5  1  0
  5  6  1  6
  5  1  1  0
  6  8  1  0
  7  6  2  0
  8  9  1  0
  9 13  1  0
  9 10  1  6
 10 11  1  0
 11 12  2  0
 13 16  1  0
 13 14  2  0
 15 11  1  0
 16 17  1  0
 17 21  1  0
 17 18  1  1
 19 18  1  0
 20 19  2  0
 21 22  2  0
 21 24  1  0
 23 19  1  0
M  END
$$$$
