PDD.pdb
     RDKit          3D

 24 24  0  0  1  0  0  0  0  0999 V2000
   19.5360  -10.1090  -17.5202 N   0  0  0  0  0  0  0  0  0  0  0  0
   20.6549  -10.6676  -18.2440 C   0  0  0  0  0  0  0  0  0  0  0  0
   20.9924  -11.9079  -17.4835 C   0  0  0  0  0  0  0  0  0  0  0  0
   20.8158  -11.4303  -16.0382 C   0  0  0  0  0  0  0  0  0  0  0  0
   19.5889  -10.5534  -16.1712 C   0  0  1  0  0  0  0  0  0  0  0  0
   19.5684   -9.4219  -15.2194 C   0  0  0  0  0  0  0  0  0  0  0  0
   18.5839   -9.2250  -14.4679 O   0  0  0  0  0  0  0  0  0  0  0  0
   20.6609   -8.5057  -15.1115 N   0  0  0  0  0  0  0  0  0  0  0  0
   20.7238   -7.4561  -14.1332 C   0  0  1  0  0  0  0  0  0  0  0  0
   21.9924   -7.4860  -13.3168 C   0  0  0  0  0  0  0  0  0  0  0  0
   21.9877   -6.4647  -12.2423 C   0  0  0  0  0  0  0  0  0  0  0  0
   22.6369   -5.4137  -12.3028 O   0  0  0  0  0  0  0  0  0  0  0  0
   20.4924   -6.1117  -14.7429 C   0  0  0  0  0  0  0  0  0  0  0  0
   20.4157   -5.1249  -13.9718 O   0  0  0  0  0  0  0  0  0  0  0  0
   21.2146   -6.7073  -11.1168 O   0  0  0  0  0  0  0  0  0  0  0  0
   20.3558   -5.8885  -16.1282 N   0  0  0  0  0  0  0  0  0  0  0  0
   20.1638   -4.6134  -16.7570 C   0  0  1  0  0  0  0  0  0  0  0  0
   21.2175   -3.6012  -16.3859 C   0  0  0  0  0  0  0  0  0  0  0  0
   20.9955   -2.2899  -17.0085 C   0  0  0  0  0  0  0  0  0  0  0  0
   20.0039   -2.1386  -17.7657 O   0  0  0  0  0  0  0  0  0  0  0  0
   20.0059   -4.7027  -18.2250 C   0  0  0  0  0  0  0  0  0  0  0  0
   20.1572   -5.8200  -18.7660 O   0  0  0  0  0  0  0  0  0  0  0  0
   21.8495   -1.2227  -16.7810 O   0  0  0  0  0  0  0  0  0  0  0  0
   19.7055   -3.6122  -18.9781 O   0  0  0  0  0  0  0  0  0  0  0  0
  2  1  1  0
  3  2  1  0
  4  3  1  0
  4  5  1  0
  5  6  1  1
  5  1  1  0
  6  8  1  0
  7  6  2  0
  8  9  1  0
  9 13  1  0
  9 10  1  6
 10 11  1  0
 11 12  2  0
 13 16  1  0
 13 14  2  0
 15 11  1  0
 16 17  1  0
 17 21  1  0
 17 18  1  6
 19 18  1  0
 20 19  2  0
 21 22  2  0
 21 24  1  0
 23 19  1  0
M  END
$$$$
