PDD.pdb
     RDKit          3D

 24 24  0  0  1  0  0  0  0  0999 V2000
   19.5616  -10.8054  -15.5118 N   0  0  0  0  0  0  0  0  0  0  0  0
   18.9318  -11.8993  -14.8086 C   0  0  0  0  0  0  0  0  0  0  0  0
   18.3420  -12.7348  -15.8970 C   0  0  0  0  0  0  0  0  0  0  0  0
   17.8079  -11.6566  -16.8460 C   0  0  0  0  0  0  0  0  0  0  0  0
   18.9134  -10.6256  -16.7639 C   0  0  1  0  0  0  0  0  0  0  0  0
   18.4371   -9.2369  -16.9410 C   0  0  0  0  0  0  0  0  0  0  0  0
   17.6646   -8.9318  -17.8805 O   0  0  0  0  0  0  0  0  0  0  0  0
   18.8316   -8.1845  -16.0571 N   0  0  0  0  0  0  0  0  0  0  0  0
   18.2321   -6.8795  -16.0582 C   0  0  1  0  0  0  0  0  0  0  0  0
   16.7260   -6.9223  -15.9762 C   0  0  0  0  0  0  0  0  0  0  0  0
   16.1293   -5.5652  -15.9741 C   0  0  0  0  0  0  0  0  0  0  0  0
   16.1996   -4.7920  -16.9369 O   0  0  0  0  0  0  0  0  0  0  0  0
   18.8166   -5.9969  -15.0036 C   0  0  0  0  0  0  0  0  0  0  0  0
   18.4084   -4.8122  -14.9399 O   0  0  0  0  0  0  0  0  0  0  0  0
   15.4607   -5.1496  -14.8323 O   0  0  0  0  0  0  0  0  0  0  0  0
   19.7957   -6.4162  -14.0801 N   0  0  0  0  0  0  0  0  0  0  0  0
   20.3785   -5.6053  -13.0501 C   0  0  1  0  0  0  0  0  0  0  0  0
   20.4081   -6.2824  -11.7036 C   0  0  0  0  0  0  0  0  0  0  0  0
   19.0751   -6.6818  -11.2347 C   0  0  0  0  0  0  0  0  0  0  0  0
   18.0822   -6.4639  -11.9738 O   0  0  0  0  0  0  0  0  0  0  0  0
   21.7120   -5.0742  -13.4076 C   0  0  0  0  0  0  0  0  0  0  0  0
   22.2583   -5.5066  -14.4461 O   0  0  0  0  0  0  0  0  0  0  0  0
   18.8889   -7.2899  -10.0036 O   0  0  0  0  0  0  0  0  0  0  0  0
   22.3386   -4.1438  -12.6407 O   0  0  0  0  0  0  0  0  0  0  0  0
  2  1  1  0
  3  2  1  0
  4  3  1  0
  4  5  1  0
  5  6  1  1
  5  1  1  0
  6  8  1  0
  7  6  2  0
  8  9  1  0
  9 13  1  0
  9 10  1  1
 10 11  1  0
 11 12  2  0
 13 16  1  0
 13 14  2  0
 15 11  1  0
 16 17  1  0
 17 21  1  0
 17 18  1  1
 19 18  1  0
 20 19  2  0
 21 22  2  0
 21 24  1  0
 23 19  1  0
M  END
$$$$
