HEY.pdb
     RDKit          3D

 32 33  0  0  1  0  0  0  0  0999 V2000
   24.3540  -17.7484  -16.9744 N   0  0  0  0  0  0  0  0  0  0  0  0
   24.6758  -19.0621  -16.4655 C   0  0  1  0  0  0  0  0  0  0  0  0
   26.1938  -19.1997  -16.5211 C   0  0  0  0  0  0  0  0  0  0  0  0
   26.6889  -19.2928  -17.9193 C   0  0  0  0  0  0  0  0  0  0  0  0
   27.3079  -18.2777  -18.6222 C   0  0  0  0  0  0  0  0  0  0  0  0
   27.5892  -18.7735  -19.8287 N   0  0  0  0  0  0  0  0  0  0  0  0
   27.1707  -20.0522  -19.9022 C   0  0  0  0  0  0  0  0  0  0  0  0
   26.6153  -20.3680  -18.7194 N   0  0  0  0  0  0  0  0  0  0  0  0
   24.3068  -19.1240  -15.0335 C   0  0  0  0  0  0  0  0  0  0  0  0
   24.5355  -18.1200  -14.3172 O   0  0  0  0  0  0  0  0  0  0  0  0
   23.7099  -20.2650  -14.4424 N   0  0  0  0  0  0  0  0  0  0  0  0
   23.2329  -20.2564  -13.0670 C   0  0  1  0  0  0  0  0  0  0  0  0
   21.9021  -20.9034  -12.9397 C   0  0  0  0  0  0  0  0  0  0  0  0
   21.3140  -20.9741  -11.5810 C   0  0  0  0  0  0  0  0  0  0  0  0
   19.9876  -21.6117  -11.6170 C   0  0  0  0  0  0  0  0  0  0  0  0
   19.0260  -20.9597  -11.1394 O   0  0  0  0  0  0  0  0  0  0  0  0
   24.2821  -20.7231  -12.1467 C   0  0  0  0  0  0  0  0  0  0  0  0
   25.0925  -21.6514  -12.4675 O   0  0  0  0  0  0  0  0  0  0  0  0
   19.7906  -22.8859  -12.1558 O   0  0  0  0  0  0  0  0  0  0  0  0
   29.3447  -19.7856   -4.9018 O   0  0  0  0  0  0  0  0  0  0  0  0
   28.6684  -19.7866   -6.1367 C   0  0  0  0  0  0  0  0  0  0  0  0
   29.1038  -20.5282   -7.1905 C   0  0  0  0  0  0  0  0  0  0  0  0
   28.3949  -20.4922   -8.3924 C   0  0  0  0  0  0  0  0  0  0  0  0
   27.2638  -19.7209   -8.5314 C   0  0  0  0  0  0  0  0  0  0  0  0
   26.5365  -19.6849   -9.7868 C   0  0  0  0  0  0  0  0  0  0  0  0
   25.3912  -20.6988   -9.8785 C   0  0  2  0  0  0  0  0  0  0  0  0
   24.4643  -20.1715  -10.8487 N   0  0  0  0  0  0  0  0  0  0  0  0
   24.8233  -20.9951   -8.5685 C   0  0  0  0  0  0  0  0  0  0  0  0
   25.4133  -21.7961   -7.6079 O   0  0  0  0  0  0  0  0  0  0  0  0
   26.8459  -18.9812   -7.4504 C   0  0  0  0  0  0  0  0  0  0  0  0
   27.5472  -19.0080   -6.2396 C   0  0  0  0  0  0  0  0  0  0  0  0
   23.6973  -20.5018   -8.2377 O   0  0  0  0  0  0  0  0  0  0  0  0
  2  1  1  1
  3  2  1  0
  3  4  1  0
  4  5  2  0
  5  6  1  0
  7  6  1  0
  8  4  1  0
  8  7  2  0
  9 11  1  0
  9  2  1  0
 10  9  2  0
 12 11  1  0
 13 14  1  0
 12 13  1  6
 14 15  1  0
 15 16  2  0
 15 19  1  0
 17 27  1  0
 17 12  1  0
 18 17  2  0
 20 21  1  0
 21 31  2  0
 21 22  1  0
 22 23  2  0
 23 24  1  0
 24 25  1  0
 26 25  1  1
 26 27  1  0
 26 28  1  0
 28 29  1  0
 30 24  2  0
 31 30  1  0
 32 28  2  0
M  END
$$$$
