HEY.pdb
     RDKit          3D

 32 33  0  0  1  0  0  0  0  0999 V2000
   23.7885  -12.0375  -19.8444 N   0  0  0  0  0  0  0  0  0  0  0  0
   23.0255  -12.3179  -18.6495 C   0  0  1  0  0  0  0  0  0  0  0  0
   21.5697  -11.9913  -18.9661 C   0  0  0  0  0  0  0  0  0  0  0  0
   21.3574  -10.5310  -19.1434 C   0  0  0  0  0  0  0  0  0  0  0  0
   21.7228   -9.5503  -18.2422 C   0  0  0  0  0  0  0  0  0  0  0  0
   21.3539   -8.3873  -18.7826 N   0  0  0  0  0  0  0  0  0  0  0  0
   20.7759   -8.6067  -19.9799 C   0  0  0  0  0  0  0  0  0  0  0  0
   20.7809   -9.9332  -20.1979 N   0  0  0  0  0  0  0  0  0  0  0  0
   23.0743  -13.7726  -18.3812 C   0  0  0  0  0  0  0  0  0  0  0  0
   23.0099  -14.5590  -19.3562 O   0  0  0  0  0  0  0  0  0  0  0  0
   23.1896  -14.3096  -17.0750 N   0  0  0  0  0  0  0  0  0  0  0  0
   23.2747  -15.7436  -16.8392 C   0  0  1  0  0  0  0  0  0  0  0  0
   24.3462  -16.0811  -15.8676 C   0  0  0  0  0  0  0  0  0  0  0  0
   24.5092  -17.5112  -15.5135 C   0  0  0  0  0  0  0  0  0  0  0  0
   25.2976  -18.2174  -16.5365 C   0  0  0  0  0  0  0  0  0  0  0  0
   26.4387  -17.7609  -16.7959 O   0  0  0  0  0  0  0  0  0  0  0  0
   21.9428  -16.3097  -16.5727 C   0  0  0  0  0  0  0  0  0  0  0  0
   21.0930  -15.7103  -15.8380 O   0  0  0  0  0  0  0  0  0  0  0  0
   24.8118  -19.3480  -17.1988 O   0  0  0  0  0  0  0  0  0  0  0  0
   14.2352  -20.2653  -17.6337 O   0  0  0  0  0  0  0  0  0  0  0  0
   15.5015  -19.6555  -17.7168 C   0  0  0  0  0  0  0  0  0  0  0  0
   15.7152  -18.3866  -17.2759 C   0  0  0  0  0  0  0  0  0  0  0  0
   16.9911  -17.8306  -17.3824 C   0  0  0  0  0  0  0  0  0  0  0  0
   18.0370  -18.5417  -17.9248 C   0  0  0  0  0  0  0  0  0  0  0  0
   19.3589  -17.9533  -18.0371 C   0  0  0  0  0  0  0  0  0  0  0  0
   20.2478  -18.1665  -16.8073 C   0  0  2  0  0  0  0  0  0  0  0  0
   21.5151  -17.5524  -17.1161 N   0  0  0  0  0  0  0  0  0  0  0  0
   20.3118  -19.5713  -16.4215 C   0  0  0  0  0  0  0  0  0  0  0  0
   19.3523  -20.2381  -15.6818 O   0  0  0  0  0  0  0  0  0  0  0  0
   17.7931  -19.8221  -18.3625 C   0  0  0  0  0  0  0  0  0  0  0  0
   16.5188  -20.3918  -18.2618 C   0  0  0  0  0  0  0  0  0  0  0  0
   21.3104  -20.2807  -16.7683 O   0  0  0  0  0  0  0  0  0  0  0  0
  2  1  1  6
  3  2  1  0
  3  4  1  0
  4  5  2  0
  5  6  1  0
  7  6  1  0
  8  4  1  0
  8  7  2  0
  9 11  1  0
  9  2  1  0
 10  9  2  0
 12 11  1  0
 13 14  1  0
 12 13  1  1
 14 15  1  0
 15 16  2  0
 15 19  1  0
 17 27  1  0
 17 12  1  0
 18 17  2  0
 20 21  1  0
 21 31  2  0
 21 22  1  0
 22 23  2  0
 23 24  1  0
 24 25  1  0
 26 25  1  6
 26 27  1  0
 26 28  1  0
 28 29  1  0
 30 24  2  0
 31 30  1  0
 32 28  2  0
M  END
$$$$
