HEY.pdb
     RDKit          3D

 32 33  0  0  1  0  0  0  0  0999 V2000
   19.7404   -9.3504  -19.3650 N   0  0  0  0  0  0  0  0  0  0  0  0
   18.9377   -8.8804  -18.2590 C   0  0  1  0  0  0  0  0  0  0  0  0
   19.5086   -9.5157  -16.9953 C   0  0  0  0  0  0  0  0  0  0  0  0
   19.1713  -10.9601  -16.9026 C   0  0  0  0  0  0  0  0  0  0  0  0
   18.0563  -11.4870  -16.2806 C   0  0  0  0  0  0  0  0  0  0  0  0
   18.1361  -12.8112  -16.4252 N   0  0  0  0  0  0  0  0  0  0  0  0
   19.2529  -13.1260  -17.1102 C   0  0  0  0  0  0  0  0  0  0  0  0
   19.8887  -11.9783  -17.4029 N   0  0  0  0  0  0  0  0  0  0  0  0
   19.1328   -7.4206  -18.1127 C   0  0  0  0  0  0  0  0  0  0  0  0
   20.2195   -6.9251  -18.4961 O   0  0  0  0  0  0  0  0  0  0  0  0
   18.1476   -6.5653  -17.5598 N   0  0  0  0  0  0  0  0  0  0  0  0
   18.3386   -5.1243  -17.4812 C   0  0  1  0  0  0  0  0  0  0  0  0
   17.0445   -4.3958  -17.4600 C   0  0  0  0  0  0  0  0  0  0  0  0
   17.1046   -2.9160  -17.4007 C   0  0  0  0  0  0  0  0  0  0  0  0
   15.7521   -2.3394  -17.3267 C   0  0  0  0  0  0  0  0  0  0  0  0
   14.7870   -3.1433  -17.3168 O   0  0  0  0  0  0  0  0  0  0  0  0
   19.3039   -4.7815  -16.4247 C   0  0  0  0  0  0  0  0  0  0  0  0
   19.6959   -3.5849  -16.2356 O   0  0  0  0  0  0  0  0  0  0  0  0
   15.5351   -0.9602  -17.2690 O   0  0  0  0  0  0  0  0  0  0  0  0
   23.1979  -11.2245  -15.8234 O   0  0  0  0  0  0  0  0  0  0  0  0
   22.5620  -10.0998  -15.2640 C   0  0  0  0  0  0  0  0  0  0  0  0
   21.2069   -9.9873  -15.2289 C   0  0  0  0  0  0  0  0  0  0  0  0
   20.6288   -8.8502  -14.6622 C   0  0  0  0  0  0  0  0  0  0  0  0
   21.4036   -7.8409  -14.1383 C   0  0  0  0  0  0  0  0  0  0  0  0
   20.7938   -6.6593  -13.5565 C   0  0  0  0  0  0  0  0  0  0  0  0
   20.7786   -5.4392  -14.4835 C   0  0  2  0  0  0  0  0  0  0  0  0
   19.8573   -5.7539  -15.5468 N   0  0  0  0  0  0  0  0  0  0  0  0
   22.1220   -5.0663  -14.9108 C   0  0  0  0  0  0  0  0  0  0  0  0
   22.5708   -5.0692  -16.2188 O   0  0  0  0  0  0  0  0  0  0  0  0
   22.7706   -7.9803  -14.1868 C   0  0  0  0  0  0  0  0  0  0  0  0
   23.3634   -9.1150  -14.7520 C   0  0  0  0  0  0  0  0  0  0  0  0
   22.9854   -4.7036  -14.0483 O   0  0  0  0  0  0  0  0  0  0  0  0
  2  1  1  6
  3  2  1  0
  3  4  1  0
  4  5  2  0
  5  6  1  0
  7  6  1  0
  8  4  1  0
  8  7  2  0
  9 11  1  0
  9  2  1  0
 10  9  2  0
 12 11  1  0
 13 14  1  0
 12 13  1  1
 14 15  1  0
 15 16  2  0
 15 19  1  0
 17 27  1  0
 17 12  1  0
 18 17  2  0
 20 21  1  0
 21 31  2  0
 21 22  1  0
 22 23  2  0
 23 24  1  0
 24 25  1  0
 26 25  1  1
 26 27  1  0
 26 28  1  0
 28 29  1  0
 30 24  2  0
 31 30  1  0
 32 28  2  0
M  END
$$$$
