HEY.pdb
     RDKit          3D

 32 33  0  0  1  0  0  0  0  0999 V2000
   31.6894  -36.4453   -4.0385 N   0  0  0  0  0  0  0  0  0  0  0  0
   31.8594  -35.3788   -3.0781 C   0  0  1  0  0  0  0  0  0  0  0  0
   31.0995  -34.1712   -3.6171 C   0  0  0  0  0  0  0  0  0  0  0  0
   31.8339  -33.5061   -4.7249 C   0  0  0  0  0  0  0  0  0  0  0  0
   33.0457  -33.9156   -5.2459 C   0  0  0  0  0  0  0  0  0  0  0  0
   33.3498  -33.0499   -6.2148 N   0  0  0  0  0  0  0  0  0  0  0  0
   32.3776  -32.1224   -6.3156 C   0  0  0  0  0  0  0  0  0  0  0  0
   31.4433  -32.4093   -5.3926 N   0  0  0  0  0  0  0  0  0  0  0  0
   31.1880  -35.7604   -1.8155 C   0  0  0  0  0  0  0  0  0  0  0  0
   29.9805  -36.0969   -1.8630 O   0  0  0  0  0  0  0  0  0  0  0  0
   31.8499  -35.7604   -0.5628 N   0  0  0  0  0  0  0  0  0  0  0  0
   31.1527  -36.0824    0.6740 C   0  0  1  0  0  0  0  0  0  0  0  0
   32.0101  -36.8591    1.6055 C   0  0  0  0  0  0  0  0  0  0  0  0
   32.4163  -38.2177    1.1739 C   0  0  0  0  0  0  0  0  0  0  0  0
   31.5364  -39.2396    1.7642 C   0  0  0  0  0  0  0  0  0  0  0  0
   31.3804  -40.3042    1.1160 O   0  0  0  0  0  0  0  0  0  0  0  0
   30.4920  -34.8898    1.2276 C   0  0  0  0  0  0  0  0  0  0  0  0
   30.4861  -33.7770    0.6086 O   0  0  0  0  0  0  0  0  0  0  0  0
   30.8959  -39.0488    2.9914 O   0  0  0  0  0  0  0  0  0  0  0  0
   24.2303  -29.8215    4.1665 O   0  0  0  0  0  0  0  0  0  0  0  0
   25.1779  -30.7089    3.6217 C   0  0  0  0  0  0  0  0  0  0  0  0
   24.8111  -31.8950    3.0660 C   0  0  0  0  0  0  0  0  0  0  0  0
   25.7922  -32.7373    2.5403 C   0  0  0  0  0  0  0  0  0  0  0  0
   27.1235  -32.3905    2.5733 C   0  0  0  0  0  0  0  0  0  0  0  0
   28.1373  -33.2753    2.0297 C   0  0  0  0  0  0  0  0  0  0  0  0
   29.1797  -33.7395    3.0525 C   0  0  2  0  0  0  0  0  0  0  0  0
   29.8169  -34.8988    2.4792 N   0  0  0  0  0  0  0  0  0  0  0  0
   28.5930  -33.9378    4.3727 C   0  0  0  0  0  0  0  0  0  0  0  0
   27.8536  -35.0412    4.7575 O   0  0  0  0  0  0  0  0  0  0  0  0
   27.4664  -31.1860    3.1408 C   0  0  0  0  0  0  0  0  0  0  0  0
   26.4930  -30.3320    3.6715 C   0  0  0  0  0  0  0  0  0  0  0  0
   28.7450  -33.0528    5.2751 O   0  0  0  0  0  0  0  0  0  0  0  0
  2  1  1  6
  3  2  1  0
  3  4  1  0
  4  5  2  0
  5  6  1  0
  7  6  1  0
  8  4  1  0
  8  7  2  0
  9 11  1  0
  9  2  1  0
 10  9  2  0
 12 11  1  0
 13 14  1  0
 12 13  1  1
 14 15  1  0
 15 16  2  0
 15 19  1  0
 17 27  1  0
 17 12  1  0
 18 17  2  0
 20 21  1  0
 21 31  2  0
 21 22  1  0
 22 23  2  0
 23 24  1  0
 24 25  1  0
 26 25  1  6
 26 27  1  0
 26 28  1  0
 28 29  1  0
 30 24  2  0
 31 30  1  0
 32 28  2  0
M  END
$$$$
