HEY.pdb
     RDKit          3D

 32 33  0  0  1  0  0  0  0  0999 V2000
   22.4362  -10.7005  -21.3395 N   0  0  0  0  0  0  0  0  0  0  0  0
   23.0033  -10.6367  -20.0118 C   0  0  1  0  0  0  0  0  0  0  0  0
   24.4475  -10.1719  -20.1682 C   0  0  0  0  0  0  0  0  0  0  0  0
   25.3467  -11.2871  -20.5640 C   0  0  0  0  0  0  0  0  0  0  0  0
   26.6050  -11.5272  -20.0478 C   0  0  0  0  0  0  0  0  0  0  0  0
   27.0652  -12.6142  -20.6700 N   0  0  0  0  0  0  0  0  0  0  0  0
   26.1452  -13.0570  -21.5492 C   0  0  0  0  0  0  0  0  0  0  0  0
   25.0851  -12.2333  -21.4794 N   0  0  0  0  0  0  0  0  0  0  0  0
   22.3086   -9.5781  -19.2453 C   0  0  0  0  0  0  0  0  0  0  0  0
   22.0169   -8.5110  -19.8365 O   0  0  0  0  0  0  0  0  0  0  0  0
   21.9626   -9.7204  -17.8787 N   0  0  0  0  0  0  0  0  0  0  0  0
   21.3244   -8.6456  -17.1324 C   0  0  1  0  0  0  0  0  0  0  0  0
   20.4782   -9.1662  -16.0284 C   0  0  0  0  0  0  0  0  0  0  0  0
   19.7554   -8.1683  -15.2047 C   0  0  0  0  0  0  0  0  0  0  0  0
   18.9050   -8.8327  -14.2035 C   0  0  0  0  0  0  0  0  0  0  0  0
   19.0201  -10.0785  -14.0910 O   0  0  0  0  0  0  0  0  0  0  0  0
   22.3012   -7.6038  -16.7774 C   0  0  0  0  0  0  0  0  0  0  0  0
   23.5550   -7.8255  -16.7924 O   0  0  0  0  0  0  0  0  0  0  0  0
   18.0046   -8.1224  -13.4052 O   0  0  0  0  0  0  0  0  0  0  0  0
   27.3907   -0.7944  -16.9512 O   0  0  0  0  0  0  0  0  0  0  0  0
   26.4639   -1.8487  -17.0610 C   0  0  0  0  0  0  0  0  0  0  0  0
   25.3116   -1.7177  -17.7717 C   0  0  0  0  0  0  0  0  0  0  0  0
   24.4279   -2.7954  -17.8477 C   0  0  0  0  0  0  0  0  0  0  0  0
   24.7001   -3.9880  -17.2173 C   0  0  0  0  0  0  0  0  0  0  0  0
   23.7724   -5.1012  -17.2967 C   0  0  0  0  0  0  0  0  0  0  0  0
   22.8536   -5.2412  -16.0785 C   0  0  2  0  0  0  0  0  0  0  0  0
   21.9158   -6.2878  -16.4005 N   0  0  0  0  0  0  0  0  0  0  0  0
   22.2592   -3.9650  -15.6983 C   0  0  0  0  0  0  0  0  0  0  0  0
   20.9027   -3.6989  -15.6593 O   0  0  0  0  0  0  0  0  0  0  0  0
   25.8719   -4.0931  -16.5058 C   0  0  0  0  0  0  0  0  0  0  0  0
   26.7669   -3.0205  -16.4214 C   0  0  0  0  0  0  0  0  0  0  0  0
   23.0070   -2.9885  -15.3697 O   0  0  0  0  0  0  0  0  0  0  0  0
  2  1  1  6
  3  2  1  0
  3  4  1  0
  4  5  2  0
  5  6  1  0
  7  6  1  0
  8  4  1  0
  8  7  2  0
  9 11  1  0
  9  2  1  0
 10  9  2  0
 12 11  1  0
 13 14  1  0
 12 13  1  1
 14 15  1  0
 15 16  2  0
 15 19  1  0
 17 27  1  0
 17 12  1  0
 18 17  2  0
 20 21  1  0
 21 31  2  0
 21 22  1  0
 22 23  2  0
 23 24  1  0
 24 25  1  0
 26 25  1  6
 26 27  1  0
 26 28  1  0
 28 29  1  0
 30 24  2  0
 31 30  1  0
 32 28  2  0
M  END
$$$$
