HEY.pdb
     RDKit          3D

 32 33  0  0  1  0  0  0  0  0999 V2000
   25.5038  -20.3904  -18.5800 N   0  0  0  0  0  0  0  0  0  0  0  0
   25.1533  -21.4097  -17.6173 C   0  0  1  0  0  0  0  0  0  0  0  0
   26.3660  -22.3240  -17.4780 C   0  0  0  0  0  0  0  0  0  0  0  0
   26.4929  -23.2525  -18.6316 C   0  0  0  0  0  0  0  0  0  0  0  0
   25.4587  -23.9622  -19.2099 C   0  0  0  0  0  0  0  0  0  0  0  0
   25.9982  -24.6687  -20.2050 N   0  0  0  0  0  0  0  0  0  0  0  0
   27.3222  -24.4263  -20.2672 C   0  0  0  0  0  0  0  0  0  0  0  0
   27.6224  -23.5503  -19.2926 N   0  0  0  0  0  0  0  0  0  0  0  0
   24.9610  -20.7730  -16.2951 C   0  0  0  0  0  0  0  0  0  0  0  0
   25.9336  -20.1736  -15.7773 O   0  0  0  0  0  0  0  0  0  0  0  0
   23.7301  -20.8137  -15.5944 N   0  0  0  0  0  0  0  0  0  0  0  0
   23.5536  -20.1456  -14.3131 C   0  0  1  0  0  0  0  0  0  0  0  0
   22.1386  -19.7576  -14.0824 C   0  0  0  0  0  0  0  0  0  0  0  0
   21.8060  -19.1750  -12.7607 C   0  0  0  0  0  0  0  0  0  0  0  0
   20.3806  -18.8140  -12.6912 C   0  0  0  0  0  0  0  0  0  0  0  0
   19.6700  -19.4441  -11.8691 O   0  0  0  0  0  0  0  0  0  0  0  0
   24.2131  -20.8996  -13.2351 C   0  0  0  0  0  0  0  0  0  0  0  0
   24.0589  -22.1567  -13.1031 O   0  0  0  0  0  0  0  0  0  0  0  0
   19.8272  -17.8159  -13.4977 O   0  0  0  0  0  0  0  0  0  0  0  0
   27.5533  -19.2298   -5.2762 O   0  0  0  0  0  0  0  0  0  0  0  0
   27.3769  -19.4463   -6.6562 C   0  0  0  0  0  0  0  0  0  0  0  0
   26.7518  -18.5352   -7.4495 C   0  0  0  0  0  0  0  0  0  0  0  0
   26.6040  -18.8007   -8.8118 C   0  0  0  0  0  0  0  0  0  0  0  0
   27.0788  -19.9666   -9.3677 C   0  0  0  0  0  0  0  0  0  0  0  0
   26.9153  -20.2370  -10.7842 C   0  0  0  0  0  0  0  0  0  0  0  0
   25.6174  -20.9708  -11.1378 C   0  0  2  0  0  0  0  0  0  0  0  0
   25.0640  -20.2824  -12.2773 N   0  0  0  0  0  0  0  0  0  0  0  0
   24.7297  -21.0875   -9.9867 C   0  0  0  0  0  0  0  0  0  0  0  0
   24.8815  -21.9937   -8.9532 O   0  0  0  0  0  0  0  0  0  0  0  0
   27.7066  -20.8700   -8.5431 C   0  0  0  0  0  0  0  0  0  0  0  0
   27.8616  -20.6165   -7.1755 C   0  0  0  0  0  0  0  0  0  0  0  0
   23.7215  -20.3175   -9.8811 O   0  0  0  0  0  0  0  0  0  0  0  0
  2  1  1  6
  3  2  1  0
  3  4  1  0
  4  5  2  0
  5  6  1  0
  7  6  1  0
  8  4  1  0
  8  7  2  0
  9 11  1  0
  9  2  1  0
 10  9  2  0
 12 11  1  0
 13 14  1  0
 12 13  1  1
 14 15  1  0
 15 16  2  0
 15 19  1  0
 17 27  1  0
 17 12  1  0
 18 17  2  0
 20 21  1  0
 21 31  2  0
 21 22  1  0
 22 23  2  0
 23 24  1  0
 24 25  1  0
 26 25  1  1
 26 27  1  0
 26 28  1  0
 28 29  1  0
 30 24  2  0
 31 30  1  0
 32 28  2  0
M  END
$$$$
