HEY.pdb
     RDKit          3D

 32 33  0  0  1  0  0  0  0  0999 V2000
   41.8038   -7.3071   -7.3121 N   0  0  0  0  0  0  0  0  0  0  0  0
   41.4413   -5.9445   -7.6290 C   0  0  1  0  0  0  0  0  0  0  0  0
   41.4996   -5.8117   -9.1473 C   0  0  0  0  0  0  0  0  0  0  0  0
   41.0103   -4.4849   -9.6047 C   0  0  0  0  0  0  0  0  0  0  0  0
   41.8021   -3.4510  -10.0647 C   0  0  0  0  0  0  0  0  0  0  0  0
   40.9737   -2.4499  -10.3682 N   0  0  0  0  0  0  0  0  0  0  0  0
   39.7030   -2.8204  -10.1157 C   0  0  0  0  0  0  0  0  0  0  0  0
   39.7316   -4.0791   -9.6442 N   0  0  0  0  0  0  0  0  0  0  0  0
   40.0281   -5.7246   -7.2483 C   0  0  0  0  0  0  0  0  0  0  0  0
   39.1844   -6.5963   -7.5673 O   0  0  0  0  0  0  0  0  0  0  0  0
   39.5921   -4.5757   -6.5430 N   0  0  0  0  0  0  0  0  0  0  0  0
   38.2038   -4.4027   -6.1406 C   0  0  1  0  0  0  0  0  0  0  0  0
   38.0689   -4.2600   -4.6684 C   0  0  0  0  0  0  0  0  0  0  0  0
   38.5756   -3.0053   -4.0634 C   0  0  0  0  0  0  0  0  0  0  0  0
   38.4125   -3.0262   -2.6005 C   0  0  0  0  0  0  0  0  0  0  0  0
   38.7187   -1.9804   -1.9755 O   0  0  0  0  0  0  0  0  0  0  0  0
   37.5446   -3.3767   -6.9641 C   0  0  0  0  0  0  0  0  0  0  0  0
   38.1483   -2.3153   -7.3251 O   0  0  0  0  0  0  0  0  0  0  0  0
   37.9386   -4.1522   -1.9222 O   0  0  0  0  0  0  0  0  0  0  0  0
   30.8444    0.3907  -11.5111 O   0  0  0  0  0  0  0  0  0  0  0  0
   31.6855   -0.4883  -10.8024 C   0  0  0  0  0  0  0  0  0  0  0  0
   32.5244   -1.3474  -11.4414 C   0  0  0  0  0  0  0  0  0  0  0  0
   33.3370   -2.1972  -10.6892 C   0  0  0  0  0  0  0  0  0  0  0  0
   33.3057   -2.1825   -9.3136 C   0  0  0  0  0  0  0  0  0  0  0  0
   34.1498   -3.0741   -8.5397 C   0  0  0  0  0  0  0  0  0  0  0  0
   35.5093   -2.4787   -8.1585 C   0  0  2  0  0  0  0  0  0  0  0  0
   36.2010   -3.5008   -7.4133 N   0  0  0  0  0  0  0  0  0  0  0  0
   35.3680   -1.1967   -7.4780 C   0  0  0  0  0  0  0  0  0  0  0  0
   35.2990   -1.0266   -6.1074 O   0  0  0  0  0  0  0  0  0  0  0  0
   32.4486   -1.3043   -8.6934 C   0  0  0  0  0  0  0  0  0  0  0  0
   31.6285   -0.4467   -9.4352 C   0  0  0  0  0  0  0  0  0  0  0  0
   35.2972   -0.1217   -8.1562 O   0  0  0  0  0  0  0  0  0  0  0  0
  2  1  1  6
  3  2  1  0
  3  4  1  0
  4  5  2  0
  5  6  1  0
  7  6  1  0
  8  4  1  0
  8  7  2  0
  9 11  1  0
  9  2  1  0
 10  9  2  0
 12 11  1  0
 13 14  1  0
 12 13  1  1
 14 15  1  0
 15 16  2  0
 15 19  1  0
 17 27  1  0
 17 12  1  0
 18 17  2  0
 20 21  1  0
 21 31  2  0
 21 22  1  0
 22 23  2  0
 23 24  1  0
 24 25  1  0
 26 25  1  1
 26 27  1  0
 26 28  1  0
 28 29  1  0
 30 24  2  0
 31 30  1  0
 32 28  2  0
M  END
$$$$
