HEY.pdb
     RDKit          3D

 32 33  0  0  1  0  0  0  0  0999 V2000
   17.0285  -15.5314    4.7042 N   0  0  0  0  0  0  0  0  0  0  0  0
   16.4303  -16.6547    5.3890 C   0  0  1  0  0  0  0  0  0  0  0  0
   15.7780  -17.5283    4.3224 C   0  0  0  0  0  0  0  0  0  0  0  0
   14.3693  -17.1292    4.0675 C   0  0  0  0  0  0  0  0  0  0  0  0
   13.2776  -17.9750    4.0886 C   0  0  0  0  0  0  0  0  0  0  0  0
   12.2127  -17.2210    3.8093 N   0  0  0  0  0  0  0  0  0  0  0  0
   12.5989  -15.9446    3.6163 C   0  0  0  0  0  0  0  0  0  0  0  0
   13.9326  -15.8936    3.7773 N   0  0  0  0  0  0  0  0  0  0  0  0
   17.5046  -17.4733    5.9942 C   0  0  0  0  0  0  0  0  0  0  0  0
   18.6055  -17.5439    5.3972 O   0  0  0  0  0  0  0  0  0  0  0  0
   17.3405  -18.1769    7.2131 N   0  0  0  0  0  0  0  0  0  0  0  0
   18.4292  -18.9320    7.8163 C   0  0  1  0  0  0  0  0  0  0  0  0
   18.6123  -18.5882    9.2496 C   0  0  0  0  0  0  0  0  0  0  0  0
   19.6985  -19.2867    9.9771 C   0  0  0  0  0  0  0  0  0  0  0  0
   19.8062  -18.7912   11.3591 C   0  0  0  0  0  0  0  0  0  0  0  0
   19.0010  -17.8929   11.7094 O   0  0  0  0  0  0  0  0  0  0  0  0
   18.3155  -20.3629    7.4924 C   0  0  0  0  0  0  0  0  0  0  0  0
   17.3130  -20.8313    6.8622 O   0  0  0  0  0  0  0  0  0  0  0  0
   20.7569  -19.2886   12.2543 O   0  0  0  0  0  0  0  0  0  0  0  0
   20.2377  -26.9119    2.5182 O   0  0  0  0  0  0  0  0  0  0  0  0
   20.0788  -25.7832    3.3445 C   0  0  0  0  0  0  0  0  0  0  0  0
   19.2563  -25.7992    4.4278 C   0  0  0  0  0  0  0  0  0  0  0  0
   19.1361  -24.6516    5.2132 C   0  0  0  0  0  0  0  0  0  0  0  0
   19.8339  -23.5042    4.9126 C   0  0  0  0  0  0  0  0  0  0  0  0
   19.6980  -22.3137    5.7314 C   0  0  0  0  0  0  0  0  0  0  0  0
   19.4582  -22.5978    7.2179 C   0  0  2  0  0  0  0  0  0  0  0  0
   19.3105  -21.3124    7.8540 N   0  0  0  0  0  0  0  0  0  0  0  0
   20.4935  -23.4575    7.7795 C   0  0  0  0  0  0  0  0  0  0  0  0
   20.3957  -24.8290    7.9268 O   0  0  0  0  0  0  0  0  0  0  0  0
   20.6581  -23.5156    3.8121 C   0  0  0  0  0  0  0  0  0  0  0  0
   20.7880  -24.6592    3.0161 C   0  0  0  0  0  0  0  0  0  0  0  0
   21.5908  -22.9519    8.1807 O   0  0  0  0  0  0  0  0  0  0  0  0
  2  1  1  6
  3  2  1  0
  3  4  1  0
  4  5  2  0
  5  6  1  0
  7  6  1  0
  8  4  1  0
  8  7  2  0
  9 11  1  0
  9  2  1  0
 10  9  2  0
 12 11  1  0
 13 14  1  0
 12 13  1  1
 14 15  1  0
 15 16  2  0
 15 19  1  0
 17 27  1  0
 17 12  1  0
 18 17  2  0
 20 21  1  0
 21 31  2  0
 21 22  1  0
 22 23  2  0
 23 24  1  0
 24 25  1  0
 26 25  1  6
 26 27  1  0
 26 28  1  0
 28 29  1  0
 30 24  2  0
 31 30  1  0
 32 28  2  0
M  END
$$$$
