HEY.pdb
     RDKit          3D

 32 33  0  0  1  0  0  0  0  0999 V2000
   24.1792   -8.4263  -21.8301 N   0  0  0  0  0  0  0  0  0  0  0  0
   24.4840   -8.9589  -20.5216 C   0  0  1  0  0  0  0  0  0  0  0  0
   25.5858   -8.0843  -19.9324 C   0  0  0  0  0  0  0  0  0  0  0  0
   26.8935   -8.3205  -20.5980 C   0  0  0  0  0  0  0  0  0  0  0  0
   27.9322   -9.0728  -20.0854 C   0  0  0  0  0  0  0  0  0  0  0  0
   28.9113   -9.0276  -20.9909 N   0  0  0  0  0  0  0  0  0  0  0  0
   28.5226   -8.2795  -22.0420 C   0  0  0  0  0  0  0  0  0  0  0  0
   27.2748   -7.8451  -21.7939 N   0  0  0  0  0  0  0  0  0  0  0  0
   23.3034   -8.7827  -19.6466 C   0  0  0  0  0  0  0  0  0  0  0  0
   22.5910   -7.7630  -19.8084 O   0  0  0  0  0  0  0  0  0  0  0  0
   22.9479   -9.7134  -18.6392 N   0  0  0  0  0  0  0  0  0  0  0  0
   21.7493   -9.5481  -17.8296 C   0  0  1  0  0  0  0  0  0  0  0  0
   21.0249  -10.8317  -17.6464 C   0  0  0  0  0  0  0  0  0  0  0  0
   20.6520  -11.5765  -18.8724 C   0  0  0  0  0  0  0  0  0  0  0  0
   20.5762  -13.0220  -18.6044 C   0  0  0  0  0  0  0  0  0  0  0  0
   19.8688  -13.3877  -17.6330 O   0  0  0  0  0  0  0  0  0  0  0  0
   22.0440   -8.7791  -16.6100 C   0  0  0  0  0  0  0  0  0  0  0  0
   23.1632   -8.8741  -16.0101 O   0  0  0  0  0  0  0  0  0  0  0  0
   21.2554  -13.9590  -19.3877 O   0  0  0  0  0  0  0  0  0  0  0  0
   25.7484   -3.9767  -18.0932 O   0  0  0  0  0  0  0  0  0  0  0  0
   24.6242   -4.4180  -17.3695 C   0  0  0  0  0  0  0  0  0  0  0  0
   23.4740   -4.7921  -17.9918 C   0  0  0  0  0  0  0  0  0  0  0  0
   22.3895   -5.2219  -17.2254 C   0  0  0  0  0  0  0  0  0  0  0  0
   22.4617   -5.2745  -15.8522 C   0  0  0  0  0  0  0  0  0  0  0  0
   21.3269   -5.7169  -15.0631 C   0  0  0  0  0  0  0  0  0  0  0  0
   21.3190   -7.2193  -14.7615 C   0  0  2  0  0  0  0  0  0  0  0  0
   21.1089   -7.8816  -16.0248 N   0  0  0  0  0  0  0  0  0  0  0  0
   20.3637   -7.5567  -13.7127 C   0  0  0  0  0  0  0  0  0  0  0  0
   20.5263   -7.2776  -12.3681 O   0  0  0  0  0  0  0  0  0  0  0  0
   23.6361   -4.8907  -15.2490 C   0  0  0  0  0  0  0  0  0  0  0  0
   24.7311   -4.4578  -16.0053 C   0  0  0  0  0  0  0  0  0  0  0  0
   19.2807   -8.1570  -14.0087 O   0  0  0  0  0  0  0  0  0  0  0  0
  2  1  1  6
  3  2  1  0
  3  4  1  0
  4  5  2  0
  5  6  1  0
  7  6  1  0
  8  4  1  0
  8  7  2  0
  9 11  1  0
  9  2  1  0
 10  9  2  0
 12 11  1  0
 13 14  1  0
 12 13  1  1
 14 15  1  0
 15 16  2  0
 15 19  1  0
 17 27  1  0
 17 12  1  0
 18 17  2  0
 20 21  1  0
 21 31  2  0
 21 22  1  0
 22 23  2  0
 23 24  1  0
 24 25  1  0
 26 25  1  6
 26 27  1  0
 26 28  1  0
 28 29  1  0
 30 24  2  0
 31 30  1  0
 32 28  2  0
M  END
$$$$
