HEY.pdb
     RDKit          3D

 32 33  0  0  1  0  0  0  0  0999 V2000
   20.0665  -26.7397  -13.8071 N   0  0  0  0  0  0  0  0  0  0  0  0
   20.6492  -25.9687  -12.7325 C   0  0  1  0  0  0  0  0  0  0  0  0
   21.3367  -24.7664  -13.3713 C   0  0  0  0  0  0  0  0  0  0  0  0
   22.5856  -25.1551  -14.0770 C   0  0  0  0  0  0  0  0  0  0  0  0
   23.1158  -26.4294  -14.1299 C   0  0  0  0  0  0  0  0  0  0  0  0
   24.2319  -26.3420  -14.8560 N   0  0  0  0  0  0  0  0  0  0  0  0
   24.4149  -25.0679  -15.2546 C   0  0  0  0  0  0  0  0  0  0  0  0
   23.3945  -24.3389  -14.7705 N   0  0  0  0  0  0  0  0  0  0  0  0
   19.5610  -25.4239  -11.8901 C   0  0  0  0  0  0  0  0  0  0  0  0
   18.4702  -25.1387  -12.4399 O   0  0  0  0  0  0  0  0  0  0  0  0
   19.7011  -25.2119  -10.4962 N   0  0  0  0  0  0  0  0  0  0  0  0
   18.7325  -24.4347   -9.7366 C   0  0  1  0  0  0  0  0  0  0  0  0
   18.8100  -24.7247   -8.2820 C   0  0  0  0  0  0  0  0  0  0  0  0
   17.9220  -23.9418   -7.3901 C   0  0  0  0  0  0  0  0  0  0  0  0
   17.1042  -24.8334   -6.5515 C   0  0  0  0  0  0  0  0  0  0  0  0
   15.9350  -24.4578   -6.2874 O   0  0  0  0  0  0  0  0  0  0  0  0
   18.7773  -23.0169  -10.1280 C   0  0  0  0  0  0  0  0  0  0  0  0
   19.8498  -22.3341  -10.0572 O   0  0  0  0  0  0  0  0  0  0  0  0
   17.5928  -26.0481   -6.0631 O   0  0  0  0  0  0  0  0  0  0  0  0
   19.3195  -15.6219  -14.1988 O   0  0  0  0  0  0  0  0  0  0  0  0
   19.1527  -16.9270  -13.6977 C   0  0  0  0  0  0  0  0  0  0  0  0
   18.3021  -17.8142  -14.2805 C   0  0  0  0  0  0  0  0  0  0  0  0
   18.1753  -19.0958  -13.7422 C   0  0  0  0  0  0  0  0  0  0  0  0
   18.8944  -19.4789  -12.6333 C   0  0  0  0  0  0  0  0  0  0  0  0
   18.7516  -20.8117  -12.0768 C   0  0  0  0  0  0  0  0  0  0  0  0
   17.6571  -20.9334  -11.0112 C   0  0  2  0  0  0  0  0  0  0  0  0
   17.6369  -22.3187  -10.6122 N   0  0  0  0  0  0  0  0  0  0  0  0
   16.3834  -20.3992  -11.4788 C   0  0  0  0  0  0  0  0  0  0  0  0
   15.3268  -21.1575  -11.9489 O   0  0  0  0  0  0  0  0  0  0  0  0
   19.7468  -18.5624  -12.0641 C   0  0  0  0  0  0  0  0  0  0  0  0
   19.8836  -17.2742  -12.5935 C   0  0  0  0  0  0  0  0  0  0  0  0
   16.1813  -19.1423  -11.4744 O   0  0  0  0  0  0  0  0  0  0  0  0
  2  1  1  6
  3  2  1  0
  3  4  1  0
  4  5  2  0
  5  6  1  0
  7  6  1  0
  8  4  1  0
  8  7  2  0
  9 11  1  0
  9  2  1  0
 10  9  2  0
 12 11  1  0
 13 14  1  0
 12 13  1  1
 14 15  1  0
 15 16  2  0
 15 19  1  0
 17 27  1  0
 17 12  1  0
 18 17  2  0
 20 21  1  0
 21 31  2  0
 21 22  1  0
 22 23  2  0
 23 24  1  0
 24 25  1  0
 26 25  1  6
 26 27  1  0
 26 28  1  0
 28 29  1  0
 30 24  2  0
 31 30  1  0
 32 28  2  0
M  END
$$$$
