API.pdb
     RDKit          3D

 21 21  0  0  1  0  0  0  0  0999 V2000
   10.2851  -13.6982   19.1854 C   0  0  0  0  0  0  0  0  0  0  0  0
    8.7674  -13.6537   19.0735 C   0  0  2  0  0  0  0  0  0  0  0  0
    8.4273  -12.4126   18.4704 N   0  0  0  0  0  0  0  0  0  0  0  0
    8.1010  -13.9981   20.3180 C   0  0  0  0  0  0  0  0  0  0  0  0
    7.8508  -13.0365   21.1305 O   0  0  0  0  0  0  0  0  0  0  0  0
    7.6867  -15.2936   20.7509 N   0  0  0  0  0  0  0  0  0  0  0  0
    7.9318  -16.4891   19.9647 C   0  0  0  0  0  0  0  0  0  0  0  0
    6.8740  -17.4755   20.4399 C   0  0  0  0  0  0  0  0  0  0  0  0
    6.8324  -17.1521   21.9060 C   0  0  0  0  0  0  0  0  0  0  0  0
    7.0037  -15.6594   21.9530 C   0  0  1  0  0  0  0  0  0  0  0  0
    7.7458  -15.2613   23.1833 C   0  0  0  0  0  0  0  0  0  0  0  0
    8.9979  -15.3011   23.1171 O   0  0  0  0  0  0  0  0  0  0  0  0
    5.6234  -12.3332   27.6159 C   0  0  0  0  0  0  0  0  0  0  0  0
    6.0112  -13.2738   26.5259 C   0  0  0  0  0  0  0  0  0  0  0  0
    7.4796  -13.2294   26.1925 C   0  0  2  0  0  0  0  0  0  0  0  0
    7.6962  -12.0969   25.2109 C   0  0  0  0  0  0  0  0  0  0  0  0
    7.9489  -14.5047   25.5273 C   0  0  2  0  0  0  0  0  0  0  0  0
    7.1281  -14.8510   24.3868 N   0  0  0  0  0  0  0  0  0  0  0  0
    7.9504  -15.6205   26.4893 C   0  0  0  0  0  0  0  0  0  0  0  0
    7.1148  -16.7142   26.3543 O   0  0  0  0  0  0  0  0  0  0  0  0
    8.7254  -15.5954   27.4656 O   0  0  0  0  0  0  0  0  0  0  0  0
  2  1  1  1
  3  2  1  0
  4  2  1  0
  4  5  2  0
  6  4  1  0
  7  6  1  0
  8  9  1  0
  8  7  1  0
  9 10  1  0
 10  6  1  0
 10 11  1  1
 11 12  2  0
 14 13  1  0
 15 14  1  0
 15 16  1  6
 17 15  1  0
 18 11  1  0
 17 18  1  6
 19 17  1  0
 19 20  1  0
 21 19  2  0
M  END
$$$$
