API.pdb
     RDKit          3D

 21 21  0  0  1  0  0  0  0  0999 V2000
    5.6975  -18.2510   22.0301 C   0  0  0  0  0  0  0  0  0  0  0  0
    6.6490  -17.7965   20.9320 C   0  0  2  0  0  0  0  0  0  0  0  0
    7.1182  -18.9650   20.2731 N   0  0  0  0  0  0  0  0  0  0  0  0
    7.6443  -16.8499   21.4061 C   0  0  0  0  0  0  0  0  0  0  0  0
    8.6740  -17.3352   21.9992 O   0  0  0  0  0  0  0  0  0  0  0  0
    7.6137  -15.4276   21.2905 N   0  0  0  0  0  0  0  0  0  0  0  0
    6.4900  -14.7214   20.7023 C   0  0  0  0  0  0  0  0  0  0  0  0
    7.0785  -13.3950   20.2418 C   0  0  0  0  0  0  0  0  0  0  0  0
    8.0469  -13.1197   21.3563 C   0  0  0  0  0  0  0  0  0  0  0  0
    8.5988  -14.4751   21.7000 C   0  0  1  0  0  0  0  0  0  0  0  0
    8.9093  -14.5544   23.1560 C   0  0  0  0  0  0  0  0  0  0  0  0
   10.1232  -14.6222   23.4647 O   0  0  0  0  0  0  0  0  0  0  0  0
    5.8022  -12.1593   27.0165 C   0  0  0  0  0  0  0  0  0  0  0  0
    6.3987  -13.1515   26.0768 C   0  0  0  0  0  0  0  0  0  0  0  0
    7.8445  -13.4573   26.3693 C   0  0  2  0  0  0  0  0  0  0  0  0
    8.6622  -12.2463   25.9721 C   0  0  0  0  0  0  0  0  0  0  0  0
    8.3500  -14.6329   25.5620 C   0  0  2  0  0  0  0  0  0  0  0  0
    7.9331  -14.5555   24.1783 N   0  0  0  0  0  0  0  0  0  0  0  0
    7.8825  -15.9019   26.1464 C   0  0  0  0  0  0  0  0  0  0  0  0
    8.3431  -16.3693   27.3638 O   0  0  0  0  0  0  0  0  0  0  0  0
    7.0424  -16.5923   25.5365 O   0  0  0  0  0  0  0  0  0  0  0  0
  2  1  1  1
  3  2  1  0
  4  2  1  0
  4  5  2  0
  6  4  1  0
  7  6  1  0
  8  9  1  0
  8  7  1  0
  9 10  1  0
 10  6  1  0
 10 11  1  1
 11 12  2  0
 14 13  1  0
 15 14  1  0
 15 16  1  6
 17 15  1  0
 18 11  1  0
 17 18  1  6
 19 17  1  0
 19 20  1  0
 21 19  2  0
M  END
$$$$
