API.pdb
     RDKit          3D

 21 21  0  0  1  0  0  0  0  0999 V2000
    5.8121  -14.7140   20.7491 C   0  0  0  0  0  0  0  0  0  0  0  0
    6.6026  -16.0128   20.6727 C   0  0  2  0  0  0  0  0  0  0  0  0
    5.6952  -17.0340   20.2810 N   0  0  0  0  0  0  0  0  0  0  0  0
    7.4084  -16.2518   21.8580 C   0  0  0  0  0  0  0  0  0  0  0  0
    6.7842  -16.5805   22.9303 O   0  0  0  0  0  0  0  0  0  0  0  0
    8.8282  -16.1629   21.9747 N   0  0  0  0  0  0  0  0  0  0  0  0
    9.6921  -15.9946   20.8202 C   0  0  0  0  0  0  0  0  0  0  0  0
   11.0415  -16.5299   21.2787 C   0  0  0  0  0  0  0  0  0  0  0  0
   11.0588  -16.0542   22.7032 C   0  0  0  0  0  0  0  0  0  0  0  0
    9.6339  -16.2117   23.1553 C   0  0  1  0  0  0  0  0  0  0  0  0
    9.2818  -15.1485   24.1395 C   0  0  0  0  0  0  0  0  0  0  0  0
    9.2927  -13.9686   23.7139 O   0  0  0  0  0  0  0  0  0  0  0  0
    6.0803  -12.2841   26.2093 C   0  0  0  0  0  0  0  0  0  0  0  0
    7.3235  -12.9989   25.8010 C   0  0  0  0  0  0  0  0  0  0  0  0
    8.0482  -13.6436   26.9537 C   0  0  2  0  0  0  0  0  0  0  0  0
    8.5198  -12.5404   27.8775 C   0  0  0  0  0  0  0  0  0  0  0  0
    9.2708  -14.4095   26.4978 C   0  0  2  0  0  0  0  0  0  0  0  0
    8.9442  -15.3952   25.4898 N   0  0  0  0  0  0  0  0  0  0  0  0
    9.9229  -15.0721   27.6407 C   0  0  0  0  0  0  0  0  0  0  0  0
   10.8920  -14.4463   28.4036 O   0  0  0  0  0  0  0  0  0  0  0  0
    9.6028  -16.2377   27.9459 O   0  0  0  0  0  0  0  0  0  0  0  0
  2  1  1  1
  3  2  1  0
  4  2  1  0
  4  5  2  0
  6  4  1  0
  7  6  1  0
  8  9  1  0
  8  7  1  0
  9 10  1  0
 10  6  1  0
 10 11  1  1
 11 12  2  0
 14 13  1  0
 15 14  1  0
 15 16  1  1
 17 15  1  0
 18 11  1  0
 17 18  1  6
 19 17  1  0
 19 20  1  0
 21 19  2  0
M  END
$$$$
