API.pdb
     RDKit          3D

 21 21  0  0  1  0  0  0  0  0999 V2000
    7.6241  -18.1898   20.1953 C   0  0  0  0  0  0  0  0  0  0  0  0
    8.7514  -17.1876   19.9890 C   0  0  2  0  0  0  0  0  0  0  0  0
    9.9293  -17.9324   19.7105 N   0  0  0  0  0  0  0  0  0  0  0  0
    8.8220  -16.1943   21.0472 C   0  0  0  0  0  0  0  0  0  0  0  0
    9.4579  -16.5223   22.1128 O   0  0  0  0  0  0  0  0  0  0  0  0
    8.2615  -14.8816   21.0441 N   0  0  0  0  0  0  0  0  0  0  0  0
    7.5248  -14.3557   19.9091 C   0  0  0  0  0  0  0  0  0  0  0  0
    7.6347  -12.8444   20.0568 C   0  0  0  0  0  0  0  0  0  0  0  0
    7.5390  -12.7042   21.5491 C   0  0  0  0  0  0  0  0  0  0  0  0
    8.2989  -13.8901   22.0741 C   0  0  1  0  0  0  0  0  0  0  0  0
    7.7001  -14.3642   23.3545 C   0  0  0  0  0  0  0  0  0  0  0  0
    6.7531  -15.1812   23.2587 O   0  0  0  0  0  0  0  0  0  0  0  0
    9.8757  -13.5777   28.6402 C   0  0  0  0  0  0  0  0  0  0  0  0
    8.9786  -13.3687   27.4676 C   0  0  0  0  0  0  0  0  0  0  0  0
    8.3233  -14.6358   26.9832 C   0  0  2  0  0  0  0  0  0  0  0  0
    9.4177  -15.5715   26.5143 C   0  0  0  0  0  0  0  0  0  0  0  0
    7.4040  -14.3853   25.8080 C   0  0  2  0  0  0  0  0  0  0  0  0
    8.1337  -13.9528   24.6355 N   0  0  0  0  0  0  0  0  0  0  0  0
    6.3854  -13.3782   26.1527 C   0  0  0  0  0  0  0  0  0  0  0  0
    5.3526  -13.6426   27.0337 O   0  0  0  0  0  0  0  0  0  0  0  0
    6.4402  -12.2421   25.6421 O   0  0  0  0  0  0  0  0  0  0  0  0
  2  1  1  1
  3  2  1  0
  4  2  1  0
  4  5  2  0
  6  4  1  0
  7  6  1  0
  8  9  1  0
  8  7  1  0
  9 10  1  0
 10  6  1  0
 10 11  1  1
 11 12  2  0
 14 13  1  0
 15 14  1  0
 15 16  1  6
 17 15  1  0
 18 11  1  0
 17 18  1  6
 19 17  1  0
 19 20  1  0
 21 19  2  0
M  END
$$$$
