API.pdb
     RDKit          3D

 21 21  0  0  1  0  0  0  0  0999 V2000
   11.4143  -18.0364   21.0062 C   0  0  0  0  0  0  0  0  0  0  0  0
   10.0730  -17.6909   20.3742 C   0  0  2  0  0  0  0  0  0  0  0  0
   10.3448  -16.9615   19.1852 N   0  0  0  0  0  0  0  0  0  0  0  0
    9.1393  -17.1044   21.3207 C   0  0  0  0  0  0  0  0  0  0  0  0
    9.1882  -15.8311   21.4746 O   0  0  0  0  0  0  0  0  0  0  0  0
    8.1628  -17.7830   22.1102 N   0  0  0  0  0  0  0  0  0  0  0  0
    7.9829  -19.2223   22.0525 C   0  0  0  0  0  0  0  0  0  0  0  0
    6.5543  -19.4425   22.5305 C   0  0  0  0  0  0  0  0  0  0  0  0
    6.4573  -18.3969   23.6043 C   0  0  0  0  0  0  0  0  0  0  0  0
    7.2350  -17.2356   23.0509 C   0  0  1  0  0  0  0  0  0  0  0  0
    7.9037  -16.4870   24.1533 C   0  0  0  0  0  0  0  0  0  0  0  0
    9.0897  -16.8078   24.4063 O   0  0  0  0  0  0  0  0  0  0  0  0
    5.8262  -11.7061   25.9570 C   0  0  0  0  0  0  0  0  0  0  0  0
    6.8994  -12.6470   25.5256 C   0  0  0  0  0  0  0  0  0  0  0  0
    7.2588  -13.6655   26.5758 C   0  0  2  0  0  0  0  0  0  0  0  0
    8.1698  -12.9915   27.5802 C   0  0  0  0  0  0  0  0  0  0  0  0
    8.0140  -14.8395   25.9922 C   0  0  2  0  0  0  0  0  0  0  0  0
    7.2873  -15.4617   24.9063 N   0  0  0  0  0  0  0  0  0  0  0  0
    8.2969  -15.8427   27.0333 C   0  0  0  0  0  0  0  0  0  0  0  0
    9.5051  -15.8913   27.7045 O   0  0  0  0  0  0  0  0  0  0  0  0
    7.4285  -16.6856   27.3334 O   0  0  0  0  0  0  0  0  0  0  0  0
  2  1  1  1
  3  2  1  0
  4  2  1  0
  4  5  2  0
  6  4  1  0
  7  6  1  0
  8  9  1  0
  8  7  1  0
  9 10  1  0
 10  6  1  0
 10 11  1  1
 11 12  2  0
 14 13  1  0
 15 14  1  0
 15 16  1  1
 17 15  1  0
 18 11  1  0
 17 18  1  6
 19 17  1  0
 19 20  1  0
 21 19  2  0
M  END
$$$$
