API.pdb
     RDKit          3D

 21 21  0  0  1  0  0  0  0  0999 V2000
    9.0252  -18.2971   20.1981 C   0  0  0  0  0  0  0  0  0  0  0  0
    9.8149  -17.0789   19.7398 C   0  0  2  0  0  0  0  0  0  0  0  0
   11.1280  -17.5234   19.4269 N   0  0  0  0  0  0  0  0  0  0  0  0
    9.6884  -15.9518   20.6482 C   0  0  0  0  0  0  0  0  0  0  0  0
   10.5480  -15.8693   21.5977 O   0  0  0  0  0  0  0  0  0  0  0  0
    8.7102  -14.9130   20.6112 N   0  0  0  0  0  0  0  0  0  0  0  0
    7.7707  -14.7712   19.5136 C   0  0  0  0  0  0  0  0  0  0  0  0
    7.3609  -13.3056   19.5559 C   0  0  0  0  0  0  0  0  0  0  0  0
    7.3124  -13.0742   21.0391 C   0  0  0  0  0  0  0  0  0  0  0  0
    8.4649  -13.8803   21.5697 C   0  0  1  0  0  0  0  0  0  0  0  0
    8.1443  -14.4136   22.9245 C   0  0  0  0  0  0  0  0  0  0  0  0
    7.4402  -15.4511   22.9634 O   0  0  0  0  0  0  0  0  0  0  0  0
    6.0306  -11.1634   26.2146 C   0  0  0  0  0  0  0  0  0  0  0  0
    7.2166  -12.0237   25.9379 C   0  0  0  0  0  0  0  0  0  0  0  0
    6.8876  -13.4925   25.8749 C   0  0  2  0  0  0  0  0  0  0  0  0
    6.5546  -13.9519   27.2788 C   0  0  0  0  0  0  0  0  0  0  0  0
    8.0615  -14.3163   25.3926 C   0  0  2  0  0  0  0  0  0  0  0  0
    8.5821  -13.8274   24.1340 N   0  0  0  0  0  0  0  0  0  0  0  0
    7.6773  -15.7314   25.2496 C   0  0  0  0  0  0  0  0  0  0  0  0
    8.2683  -16.7368   25.9929 O   0  0  0  0  0  0  0  0  0  0  0  0
    6.7900  -16.0529   24.4348 O   0  0  0  0  0  0  0  0  0  0  0  0
  2  1  1  1
  3  2  1  0
  4  2  1  0
  4  5  2  0
  6  4  1  0
  7  6  1  0
  8  9  1  0
  8  7  1  0
  9 10  1  0
 10  6  1  0
 10 11  1  1
 11 12  2  0
 14 13  1  0
 15 14  1  0
 15 16  1  1
 17 15  1  0
 18 11  1  0
 17 18  1  6
 19 17  1  0
 19 20  1  0
 21 19  2  0
M  END
$$$$
