LSI.pdb
     RDKit          3D

 23 22  0  0  1  0  0  0  0  0999 V2000
    9.3696  -12.8898   19.6478 C   0  0  0  0  0  0  0  0  0  0  0  0
    7.9364  -13.2619   19.5153 C   0  0  2  0  0  0  0  0  0  0  0  0
    7.0385  -12.0543   19.2226 C   0  0  0  0  0  0  0  0  0  0  0  0
    7.3554  -14.1954   20.5169 C   0  0  0  0  0  0  0  0  0  0  0  0
    8.2229  -15.3460   20.9605 C   0  0  2  0  0  0  0  0  0  0  0  0
    8.0717  -16.5058   20.1174 N   0  0  0  0  0  0  0  0  0  0  0  0
    8.1335  -15.6200   22.4126 C   0  0  0  0  0  0  0  0  0  0  0  0
    8.2615  -14.7417   23.3060 O   0  0  0  0  0  0  0  0  0  0  0  0
    6.9235  -18.9393   25.7811 O   0  0  0  0  0  0  0  0  0  0  0  0
    7.2331  -18.7929   24.4192 C   0  0  0  0  0  0  0  0  0  0  0  0
    7.7924  -17.3164   24.2661 C   0  0  2  0  0  0  0  0  0  0  0  0
    7.8815  -16.9591   22.9059 N   0  0  0  0  0  0  0  0  0  0  0  0
    8.9835  -17.2056   25.0970 C   0  0  0  0  0  0  0  0  0  0  0  0
   10.1367  -17.5864   24.6977 O   0  0  0  0  0  0  0  0  0  0  0  0
    9.5847  -13.2944   29.2350 C   0  0  0  0  0  0  0  0  0  0  0  0
    9.4879  -14.6989   28.7589 C   0  0  0  0  0  0  0  0  0  0  0  0
   10.4055  -15.0298   27.6278 C   0  0  2  0  0  0  0  0  0  0  0  0
   10.2510  -14.1117   26.4451 C   0  0  0  0  0  0  0  0  0  0  0  0
   10.2465  -16.4845   27.1819 C   0  0  2  0  0  0  0  0  0  0  0  0
    9.0291  -16.6606   26.4333 N   0  0  0  0  0  0  0  0  0  0  0  0
   10.4183  -17.4252   28.3083 C   0  0  0  0  0  0  0  0  0  0  0  0
   11.6553  -17.5557   28.9167 O   0  0  0  0  0  0  0  0  0  0  0  0
    9.4731  -18.1323   28.7505 O   0  0  0  0  0  0  0  0  0  0  0  0
  2  1  1  1
  3  2  1  0
  4  2  1  0
  5  4  1  0
  5  6  1  6
  7  8  2  0
  7  5  1  0
  9 10  1  0
 11 10  1  6
 11 13  1  0
 11 12  1  0
 12  7  1  0
 13 20  1  0
 14 13  2  0
 15 16  1  0
 17 19  1  0
 17 16  1  0
 17 18  1  6
 19 21  1  0
 19 20  1  1
 21 23  2  0
 21 22  1  0
M  END
$$$$
