LSI.pdb
     RDKit          3D

 23 22  0  0  1  0  0  0  0  0999 V2000
    8.6704  -12.0946   19.2710 C   0  0  0  0  0  0  0  0  0  0  0  0
    8.5065  -13.5473   19.0010 C   0  0  2  0  0  0  0  0  0  0  0  0
    8.4783  -13.8688   17.5023 C   0  0  0  0  0  0  0  0  0  0  0  0
    7.4868  -14.2982   19.7811 C   0  0  0  0  0  0  0  0  0  0  0  0
    7.7664  -15.7564   20.0435 C   0  0  2  0  0  0  0  0  0  0  0  0
    7.1880  -16.6165   19.0413 N   0  0  0  0  0  0  0  0  0  0  0  0
    7.4929  -16.1622   21.4406 C   0  0  0  0  0  0  0  0  0  0  0  0
    6.3527  -16.1314   21.9745 O   0  0  0  0  0  0  0  0  0  0  0  0
   10.2564  -18.4444   23.5632 O   0  0  0  0  0  0  0  0  0  0  0  0
    8.9162  -18.4057   23.9810 C   0  0  0  0  0  0  0  0  0  0  0  0
    8.4166  -16.9320   23.6732 C   0  0  2  0  0  0  0  0  0  0  0  0
    8.5568  -16.6379   22.3021 N   0  0  0  0  0  0  0  0  0  0  0  0
    9.0361  -16.0421   24.6455 C   0  0  0  0  0  0  0  0  0  0  0  0
   10.2082  -15.5578   24.4835 O   0  0  0  0  0  0  0  0  0  0  0  0
    6.1753  -12.2397   26.9165 C   0  0  0  0  0  0  0  0  0  0  0  0
    7.2835  -13.0744   26.3838 C   0  0  0  0  0  0  0  0  0  0  0  0
    8.1190  -13.7306   27.4338 C   0  0  2  0  0  0  0  0  0  0  0  0
    8.8629  -12.7524   28.3028 C   0  0  0  0  0  0  0  0  0  0  0  0
    9.0983  -14.7363   26.8257 C   0  0  2  0  0  0  0  0  0  0  0  0
    8.4321  -15.5901   25.8766 N   0  0  0  0  0  0  0  0  0  0  0  0
    9.8653  -15.4525   27.8658 C   0  0  0  0  0  0  0  0  0  0  0  0
   10.9583  -14.8443   28.4598 O   0  0  0  0  0  0  0  0  0  0  0  0
    9.5679  -16.6171   28.2455 O   0  0  0  0  0  0  0  0  0  0  0  0
  2  1  1  6
  3  2  1  0
  4  2  1  0
  5  4  1  0
  5  6  1  6
  7  8  2  0
  7  5  1  0
  9 10  1  0
 11 10  1  6
 11 13  1  0
 11 12  1  0
 12  7  1  0
 13 20  1  0
 14 13  2  0
 15 16  1  0
 17 19  1  0
 17 16  1  0
 17 18  1  6
 19 21  1  0
 19 20  1  1
 21 23  2  0
 21 22  1  0
M  END
$$$$
