LSI.pdb
     RDKit          3D

 23 22  0  0  1  0  0  0  0  0999 V2000
    9.5464  -12.7624   18.5360 C   0  0  0  0  0  0  0  0  0  0  0  0
    8.1825  -13.3319   18.3766 C   0  0  2  0  0  0  0  0  0  0  0  0
    7.1583  -12.2888   17.9149 C   0  0  0  0  0  0  0  0  0  0  0  0
    7.6648  -14.2296   19.4436 C   0  0  0  0  0  0  0  0  0  0  0  0
    8.6305  -15.2360   20.0162 C   0  0  2  0  0  0  0  0  0  0  0  0
    8.8067  -16.3801   19.1567 N   0  0  0  0  0  0  0  0  0  0  0  0
    8.3620  -15.5627   21.4349 C   0  0  0  0  0  0  0  0  0  0  0  0
    7.4781  -15.0003   22.1339 O   0  0  0  0  0  0  0  0  0  0  0  0
    9.3205  -18.6823   25.0794 O   0  0  0  0  0  0  0  0  0  0  0  0
    9.6544  -18.3538   23.7555 C   0  0  0  0  0  0  0  0  0  0  0  0
    8.9318  -16.9720   23.4645 C   0  0  2  0  0  0  0  0  0  0  0  0
    9.1240  -16.5855   22.1230 N   0  0  0  0  0  0  0  0  0  0  0  0
    9.3106  -16.0430   24.5203 C   0  0  0  0  0  0  0  0  0  0  0  0
   10.4961  -15.5777   24.6322 O   0  0  0  0  0  0  0  0  0  0  0  0
    5.6465  -12.5621   27.2145 C   0  0  0  0  0  0  0  0  0  0  0  0
    6.5437  -13.7279   27.0029 C   0  0  0  0  0  0  0  0  0  0  0  0
    7.9288  -13.3685   26.5748 C   0  0  2  0  0  0  0  0  0  0  0  0
    7.9798  -12.6688   25.2431 C   0  0  0  0  0  0  0  0  0  0  0  0
    8.8466  -14.5922   26.5555 C   0  0  2  0  0  0  0  0  0  0  0  0
    8.4311  -15.5282   25.5431 N   0  0  0  0  0  0  0  0  0  0  0  0
    9.0113  -15.1755   27.9030 C   0  0  0  0  0  0  0  0  0  0  0  0
    8.6727  -16.4990   28.1288 O   0  0  0  0  0  0  0  0  0  0  0  0
    9.4525  -14.5114   28.8793 O   0  0  0  0  0  0  0  0  0  0  0  0
  2  1  1  1
  3  2  1  0
  4  2  1  0
  5  4  1  0
  5  6  1  6
  7  8  2  0
  7  5  1  0
  9 10  1  0
 11 10  1  1
 11 13  1  0
 11 12  1  0
 12  7  1  0
 13 20  1  0
 14 13  2  0
 15 16  1  0
 17 19  1  0
 17 16  1  0
 17 18  1  6
 19 21  1  0
 19 20  1  6
 21 23  2  0
 21 22  1  0
M  END
$$$$
