LSI.pdb
     RDKit          3D

 23 22  0  0  1  0  0  0  0  0999 V2000
    9.8265  -13.0974   19.0643 C   0  0  0  0  0  0  0  0  0  0  0  0
    8.3914  -13.2885   18.7268 C   0  0  2  0  0  0  0  0  0  0  0  0
    7.6704  -11.9649   18.4463 C   0  0  0  0  0  0  0  0  0  0  0  0
    7.5911  -14.2274   19.5578 C   0  0  0  0  0  0  0  0  0  0  0  0
    8.2918  -15.4676   20.0522 C   0  0  2  0  0  0  0  0  0  0  0  0
    8.0668  -16.6050   19.1952 N   0  0  0  0  0  0  0  0  0  0  0  0
    8.0760  -15.7259   21.4937 C   0  0  0  0  0  0  0  0  0  0  0  0
    7.2066  -15.1422   22.1933 O   0  0  0  0  0  0  0  0  0  0  0  0
   10.7032  -18.3618   23.5314 O   0  0  0  0  0  0  0  0  0  0  0  0
    9.3415  -18.4708   23.8569 C   0  0  0  0  0  0  0  0  0  0  0  0
    8.7180  -17.0420   23.5640 C   0  0  2  0  0  0  0  0  0  0  0  0
    8.8773  -16.7010   22.2059 N   0  0  0  0  0  0  0  0  0  0  0  0
    9.2183  -16.1240   24.5781 C   0  0  0  0  0  0  0  0  0  0  0  0
   10.3233  -15.4942   24.4485 O   0  0  0  0  0  0  0  0  0  0  0  0
    6.0283  -12.5954   26.7863 C   0  0  0  0  0  0  0  0  0  0  0  0
    7.2128  -13.3503   26.3007 C   0  0  0  0  0  0  0  0  0  0  0  0
    8.0153  -13.9977   27.3814 C   0  0  2  0  0  0  0  0  0  0  0  0
    8.6244  -13.0138   28.3440 C   0  0  0  0  0  0  0  0  0  0  0  0
    9.1040  -14.9055   26.8062 C   0  0  2  0  0  0  0  0  0  0  0  0
    8.5563  -15.8002   25.8197 N   0  0  0  0  0  0  0  0  0  0  0  0
    9.8856  -15.5672   27.8712 C   0  0  0  0  0  0  0  0  0  0  0  0
    9.7477  -16.9283   28.0849 O   0  0  0  0  0  0  0  0  0  0  0  0
   10.6878  -14.9385   28.6128 O   0  0  0  0  0  0  0  0  0  0  0  0
  2  1  1  1
  3  2  1  0
  4  2  1  0
  5  4  1  0
  5  6  1  6
  7  8  2  0
  7  5  1  0
  9 10  1  0
 11 10  1  6
 11 13  1  0
 11 12  1  0
 12  7  1  0
 13 20  1  0
 14 13  2  0
 15 16  1  0
 17 19  1  0
 17 16  1  0
 17 18  1  6
 19 21  1  0
 19 20  1  6
 21 23  2  0
 21 22  1  0
M  END
$$$$
