LSI.pdb
     RDKit          3D

 23 22  0  0  1  0  0  0  0  0999 V2000
    9.2503  -12.5912   19.4456 C   0  0  0  0  0  0  0  0  0  0  0  0
    7.9596  -13.3287   19.4335 C   0  0  2  0  0  0  0  0  0  0  0  0
    6.7599  -12.4130   19.1644 C   0  0  0  0  0  0  0  0  0  0  0  0
    7.7072  -14.3249   20.5088 C   0  0  0  0  0  0  0  0  0  0  0  0
    8.8494  -15.2391   20.8733 C   0  0  2  0  0  0  0  0  0  0  0  0
    8.9966  -16.3325   19.9451 N   0  0  0  0  0  0  0  0  0  0  0  0
    8.8504  -15.6336   22.3001 C   0  0  0  0  0  0  0  0  0  0  0  0
    8.6533  -14.8349   23.2537 O   0  0  0  0  0  0  0  0  0  0  0  0
   10.1951  -19.4933   23.4491 O   0  0  0  0  0  0  0  0  0  0  0  0
    8.9902  -19.0740   24.0360 C   0  0  0  0  0  0  0  0  0  0  0  0
    9.0373  -17.4885   24.0190 C   0  0  2  0  0  0  0  0  0  0  0  0
    9.0824  -17.0086   22.6948 N   0  0  0  0  0  0  0  0  0  0  0  0
   10.0739  -17.0662   24.9509 C   0  0  0  0  0  0  0  0  0  0  0  0
   11.2947  -16.9218   24.6000 O   0  0  0  0  0  0  0  0  0  0  0  0
    9.6145  -13.4827   29.2965 C   0  0  0  0  0  0  0  0  0  0  0  0
    9.7144  -14.8443   28.7095 C   0  0  0  0  0  0  0  0  0  0  0  0
   10.8611  -15.0267   27.7700 C   0  0  2  0  0  0  0  0  0  0  0  0
   10.8369  -14.0730   26.6058 C   0  0  0  0  0  0  0  0  0  0  0  0
   10.9478  -16.4670   27.2616 C   0  0  2  0  0  0  0  0  0  0  0  0
    9.8737  -16.7524   26.3459 N   0  0  0  0  0  0  0  0  0  0  0  0
   11.0841  -17.4330   28.3712 C   0  0  0  0  0  0  0  0  0  0  0  0
   10.1089  -18.3951   28.5731 O   0  0  0  0  0  0  0  0  0  0  0  0
   12.0656  -17.4221   29.1621 O   0  0  0  0  0  0  0  0  0  0  0  0
  2  1  1  1
  3  2  1  0
  4  2  1  0
  5  4  1  0
  5  6  1  6
  7  8  2  0
  7  5  1  0
  9 10  1  0
 11 10  1  6
 11 13  1  0
 11 12  1  0
 12  7  1  0
 13 20  1  0
 14 13  2  0
 15 16  1  0
 17 19  1  0
 17 16  1  0
 17 18  1  6
 19 21  1  0
 19 20  1  1
 21 23  2  0
 21 22  1  0
M  END
$$$$
