TNF.pdb
     RDKit          3D

 27 27  0  0  1  0  0  0  0  0999 V2000
   19.0230  -13.2513  -17.5503 C   0  0  0  0  0  0  0  0  0  0  0  0
   20.0378  -14.2663  -18.0191 C   0  0  1  0  0  0  0  0  0  0  0  0
   19.8958  -14.5120  -19.3969 O   0  0  0  0  0  0  0  0  0  0  0  0
   21.4261  -13.7220  -17.7198 C   0  0  2  0  0  0  0  0  0  0  0  0
   21.5397  -13.5117  -16.2746 N   0  0  0  0  0  0  0  0  0  0  0  0
   21.5429  -12.4144  -18.4381 C   0  0  0  0  0  0  0  0  0  0  0  0
   21.5761  -12.4438  -19.6910 O   0  0  0  0  0  0  0  0  0  0  0  0
   21.6600   -8.1338  -20.5229 N   0  0  0  0  0  0  0  0  0  0  0  0
   20.4885   -8.9012  -20.3784 C   0  0  0  0  0  0  0  0  0  0  0  0
   19.5437   -8.7512  -21.1882 O   0  0  0  0  0  0  0  0  0  0  0  0
   20.3981   -9.8569  -19.2873 C   0  0  0  0  0  0  0  0  0  0  0  0
   21.7094   -9.8722  -18.4848 C   0  0  2  0  0  0  0  0  0  0  0  0
   21.6152  -11.1818  -17.7848 N   0  0  0  0  0  0  0  0  0  0  0  0
   21.7759   -8.8009  -17.4830 C   0  0  0  0  0  0  0  0  0  0  0  0
   20.8677   -8.7017  -16.5813 O   0  0  0  0  0  0  0  0  0  0  0  0
   22.7858   -7.8292  -17.4109 N   0  0  0  0  0  0  0  0  0  0  0  0
   22.8576   -6.8691  -16.3083 C   0  0  1  0  0  0  0  0  0  0  0  0
   24.2586   -6.8776  -15.7114 C   0  0  0  0  0  0  0  0  0  0  0  0
   24.7105   -8.2393  -15.3849 C   0  0  0  0  0  0  0  0  0  0  0  0
   25.7461   -8.7976  -16.0890 C   0  0  0  0  0  0  0  0  0  0  0  0
   26.1826  -10.0687  -15.7826 C   0  0  0  0  0  0  0  0  0  0  0  0
   25.5892  -10.8006  -14.7667 C   0  0  0  0  0  0  0  0  0  0  0  0
   24.5525  -10.2145  -14.0775 C   0  0  0  0  0  0  0  0  0  0  0  0
   24.1103   -8.9527  -14.3726 C   0  0  0  0  0  0  0  0  0  0  0  0
   22.4928   -5.5217  -16.8028 C   0  0  0  0  0  0  0  0  0  0  0  0
   22.2338   -4.4853  -15.9010 O   0  0  0  0  0  0  0  0  0  0  0  0
   22.3923   -5.2248  -18.0178 O   0  0  0  0  0  0  0  0  0  0  0  0
  2  1  1  6
  2  4  1  0
  3  2  1  0
  4  5  1  1
  6  4  1  0
  7  6  2  0
  8  9  1  0
  9 10  2  0
 12 11  1  6
 11  9  1  0
 12 13  1  0
 13  6  1  0
 14 15  2  0
 14 12  1  0
 16 14  1  0
 17 18  1  6
 17 16  1  0
 19 20  2  0
 19 18  1  0
 21 20  1  0
 22 21  2  0
 23 24  2  0
 23 22  1  0
 24 19  1  0
 25 17  1  0
 26 25  1  0
 27 25  2  0
M  END
$$$$
