TNF.pdb
     RDKit          3D

 27 27  0  0  1  0  0  0  0  0999 V2000
   22.2661  -18.4551  -19.0514 C   0  0  0  0  0  0  0  0  0  0  0  0
   22.6293  -19.4899  -20.0893 C   0  0  1  0  0  0  0  0  0  0  0  0
   22.6019  -18.9309  -21.3799 O   0  0  0  0  0  0  0  0  0  0  0  0
   24.0210  -20.0137  -19.7699 C   0  0  2  0  0  0  0  0  0  0  0  0
   24.4129  -20.9577  -20.8193 N   0  0  0  0  0  0  0  0  0  0  0  0
   23.9265  -20.7210  -18.4546 C   0  0  0  0  0  0  0  0  0  0  0  0
   22.8718  -21.3543  -18.2130 O   0  0  0  0  0  0  0  0  0  0  0  0
   26.3867  -23.4075  -15.4354 N   0  0  0  0  0  0  0  0  0  0  0  0
   26.9178  -22.1401  -15.1294 C   0  0  0  0  0  0  0  0  0  0  0  0
   28.0126  -22.0546  -14.5253 O   0  0  0  0  0  0  0  0  0  0  0  0
   26.1818  -20.9502  -15.5225 C   0  0  0  0  0  0  0  0  0  0  0  0
   24.8380  -21.3427  -16.1578 C   0  0  2  0  0  0  0  0  0  0  0  0
   24.9453  -20.7073  -17.4989 N   0  0  0  0  0  0  0  0  0  0  0  0
   23.6855  -20.7700  -15.4508 C   0  0  0  0  0  0  0  0  0  0  0  0
   23.6298  -19.5083  -15.2210 O   0  0  0  0  0  0  0  0  0  0  0  0
   22.5851  -21.5031  -14.9811 N   0  0  0  0  0  0  0  0  0  0  0  0
   21.4642  -20.8601  -14.2935 C   0  0  1  0  0  0  0  0  0  0  0  0
   20.2034  -20.9872  -15.1380 C   0  0  0  0  0  0  0  0  0  0  0  0
   19.0171  -20.4688  -14.4389 C   0  0  0  0  0  0  0  0  0  0  0  0
   18.3536  -21.2682  -13.5441 C   0  0  0  0  0  0  0  0  0  0  0  0
   17.2475  -20.7869  -12.8769 C   0  0  0  0  0  0  0  0  0  0  0  0
   16.7885  -19.4978  -13.0953 C   0  0  0  0  0  0  0  0  0  0  0  0
   17.4744  -18.7189  -13.9986 C   0  0  0  0  0  0  0  0  0  0  0  0
   18.5743  -19.1859  -14.6671 C   0  0  0  0  0  0  0  0  0  0  0  0
   21.2824  -21.4793  -12.9605 C   0  0  0  0  0  0  0  0  0  0  0  0
   21.4419  -22.8583  -12.7954 O   0  0  0  0  0  0  0  0  0  0  0  0
   20.9827  -20.8374  -11.9249 O   0  0  0  0  0  0  0  0  0  0  0  0
  2  1  1  1
  2  4  1  0
  3  2  1  0
  4  5  1  6
  6  4  1  0
  7  6  2  0
  8  9  1  0
  9 10  2  0
 12 11  1  1
 11  9  1  0
 12 13  1  0
 13  6  1  0
 14 15  2  0
 14 12  1  0
 16 14  1  0
 17 18  1  6
 17 16  1  0
 19 20  2  0
 19 18  1  0
 21 20  1  0
 22 21  2  0
 23 24  2  0
 23 22  1  0
 24 19  1  0
 25 17  1  0
 26 25  1  0
 27 25  2  0
M  END
$$$$
