TNF.pdb
     RDKit          3D

 27 27  0  0  1  0  0  0  0  0999 V2000
   26.9703  -23.7722  -16.8652 C   0  0  0  0  0  0  0  0  0  0  0  0
   28.0768  -22.9108  -16.3053 C   0  0  1  0  0  0  0  0  0  0  0  0
   29.3285  -23.5247  -16.4929 O   0  0  0  0  0  0  0  0  0  0  0  0
   28.0363  -21.5661  -17.0148 C   0  0  2  0  0  0  0  0  0  0  0  0
   29.3832  -21.2584  -17.5017 N   0  0  0  0  0  0  0  0  0  0  0  0
   27.6155  -20.5522  -15.9979 C   0  0  0  0  0  0  0  0  0  0  0  0
   28.0222  -19.3762  -16.1512 O   0  0  0  0  0  0  0  0  0  0  0  0
   23.6174  -18.3136  -14.1597 N   0  0  0  0  0  0  0  0  0  0  0  0
   23.7651  -18.8810  -15.4398 C   0  0  0  0  0  0  0  0  0  0  0  0
   22.9764  -18.5562  -16.3581 O   0  0  0  0  0  0  0  0  0  0  0  0
   24.8349  -19.8369  -15.6714 C   0  0  0  0  0  0  0  0  0  0  0  0
   25.7065  -19.9739  -14.4124 C   0  0  2  0  0  0  0  0  0  0  0  0
   26.8023  -20.8529  -14.9026 N   0  0  0  0  0  0  0  0  0  0  0  0
   25.0113  -20.6499  -13.3098 C   0  0  0  0  0  0  0  0  0  0  0  0
   24.4171  -21.7700  -13.5104 O   0  0  0  0  0  0  0  0  0  0  0  0
   24.9313  -20.1683  -11.9943 N   0  0  0  0  0  0  0  0  0  0  0  0
   24.2929  -20.9391  -10.9262 C   0  0  1  0  0  0  0  0  0  0  0  0
   24.7559  -20.4196   -9.5717 C   0  0  0  0  0  0  0  0  0  0  0  0
   26.2230  -20.3653   -9.4742 C   0  0  0  0  0  0  0  0  0  0  0  0
   26.8131  -19.4895   -8.5996 C   0  0  0  0  0  0  0  0  0  0  0  0
   28.1866  -19.4396   -8.4944 C   0  0  0  0  0  0  0  0  0  0  0  0
   28.9908  -20.2658   -9.2631 C   0  0  0  0  0  0  0  0  0  0  0  0
   28.3707  -21.1343  -10.1316 C   0  0  0  0  0  0  0  0  0  0  0  0
   27.0074  -21.1930  -10.2448 C   0  0  0  0  0  0  0  0  0  0  0  0
   22.8211  -20.8460  -11.0626 C   0  0  0  0  0  0  0  0  0  0  0  0
   21.9886  -21.6791  -10.3094 O   0  0  0  0  0  0  0  0  0  0  0  0
   22.2383  -20.0460  -11.8337 O   0  0  0  0  0  0  0  0  0  0  0  0
  2  1  1  6
  2  4  1  0
  3  2  1  0
  4  5  1  1
  6  4  1  0
  7  6  2  0
  8  9  1  0
  9 10  2  0
 12 11  1  6
 11  9  1  0
 12 13  1  0
 13  6  1  0
 14 15  2  0
 14 12  1  0
 16 14  1  0
 17 18  1  1
 17 16  1  0
 19 20  2  0
 19 18  1  0
 21 20  1  0
 22 21  2  0
 23 24  2  0
 23 22  1  0
 24 19  1  0
 25 17  1  0
 26 25  1  0
 27 25  2  0
M  END
$$$$
