TNF.pdb
     RDKit          3D

 27 27  0  0  1  0  0  0  0  0999 V2000
   21.3159   -9.4120  -20.7835 C   0  0  0  0  0  0  0  0  0  0  0  0
   21.5061   -8.4657  -21.9446 C   0  0  1  0  0  0  0  0  0  0  0  0
   20.8028   -7.2665  -21.7294 O   0  0  0  0  0  0  0  0  0  0  0  0
   22.9941   -8.1866  -22.0902 C   0  0  2  0  0  0  0  0  0  0  0  0
   23.6743   -9.4476  -22.3957 N   0  0  0  0  0  0  0  0  0  0  0  0
   23.4664   -7.6565  -20.7729 C   0  0  0  0  0  0  0  0  0  0  0  0
   23.8077   -8.4916  -19.9023 O   0  0  0  0  0  0  0  0  0  0  0  0
   25.0645   -4.2763  -17.1974 N   0  0  0  0  0  0  0  0  0  0  0  0
   24.7455   -3.5536  -18.3628 C   0  0  0  0  0  0  0  0  0  0  0  0
   24.9400   -2.3160  -18.3991 O   0  0  0  0  0  0  0  0  0  0  0  0
   24.1942   -4.2612  -19.5061 C   0  0  0  0  0  0  0  0  0  0  0  0
   24.0144   -5.7512  -19.1723 C   0  0  2  0  0  0  0  0  0  0  0  0
   23.5427   -6.2938  -20.4749 N   0  0  0  0  0  0  0  0  0  0  0  0
   22.9805   -5.9860  -18.1566 C   0  0  0  0  0  0  0  0  0  0  0  0
   21.7412   -5.8135  -18.4437 O   0  0  0  0  0  0  0  0  0  0  0  0
   23.2272   -6.4027  -16.8395 N   0  0  0  0  0  0  0  0  0  0  0  0
   22.1397   -6.7094  -15.9090 C   0  0  1  0  0  0  0  0  0  0  0  0
   22.3561   -8.0901  -15.3043 C   0  0  0  0  0  0  0  0  0  0  0  0
   21.3471   -8.4084  -14.2818 C   0  0  0  0  0  0  0  0  0  0  0  0
   21.6492   -8.2407  -12.9549 C   0  0  0  0  0  0  0  0  0  0  0  0
   20.7062   -8.5265  -11.9910 C   0  0  0  0  0  0  0  0  0  0  0  0
   19.4461   -8.9846  -12.3404 C   0  0  0  0  0  0  0  0  0  0  0  0
   19.1715   -9.1431  -13.6793 C   0  0  0  0  0  0  0  0  0  0  0  0
   20.0999   -8.8624  -14.6458 C   0  0  0  0  0  0  0  0  0  0  0  0
   22.0800   -5.6666  -14.8590 C   0  0  0  0  0  0  0  0  0  0  0  0
   20.8471   -5.2463  -14.3513 O   0  0  0  0  0  0  0  0  0  0  0  0
   23.0906   -5.1065  -14.3698 O   0  0  0  0  0  0  0  0  0  0  0  0
  2  1  1  1
  2  4  1  0
  3  2  1  0
  4  5  1  1
  6  4  1  0
  7  6  2  0
  8  9  1  0
  9 10  2  0
 12 11  1  6
 11  9  1  0
 12 13  1  0
 13  6  1  0
 14 15  2  0
 14 12  1  0
 16 14  1  0
 17 18  1  1
 17 16  1  0
 19 20  2  0
 19 18  1  0
 21 20  1  0
 22 21  2  0
 23 24  2  0
 23 22  1  0
 24 19  1  0
 25 17  1  0
 26 25  1  0
 27 25  2  0
M  END
$$$$
