TNF.pdb
     RDKit          3D

 27 27  0  0  1  0  0  0  0  0999 V2000
   22.8959  -10.5434  -14.9836 C   0  0  0  0  0  0  0  0  0  0  0  0
   23.0193  -11.0502  -16.4006 C   0  0  1  0  0  0  0  0  0  0  0  0
   23.6698  -12.2972  -16.4280 O   0  0  0  0  0  0  0  0  0  0  0  0
   21.6201  -11.1713  -16.9845 C   0  0  2  0  0  0  0  0  0  0  0  0
   21.7317  -11.6832  -18.3525 N   0  0  0  0  0  0  0  0  0  0  0  0
   21.0362   -9.7936  -16.9996 C   0  0  0  0  0  0  0  0  0  0  0  0
   21.3809   -9.0296  -17.9319 O   0  0  0  0  0  0  0  0  0  0  0  0
   16.6620   -9.9389  -16.9252 N   0  0  0  0  0  0  0  0  0  0  0  0
   17.3615   -8.7172  -16.9336 C   0  0  0  0  0  0  0  0  0  0  0  0
   17.3746   -8.0159  -17.9723 O   0  0  0  0  0  0  0  0  0  0  0  0
   18.0579   -8.2917  -15.7311 C   0  0  0  0  0  0  0  0  0  0  0  0
   19.5268   -7.9718  -16.0532 C   0  0  2  0  0  0  0  0  0  0  0  0
   20.1380   -9.3283  -16.0361 N   0  0  0  0  0  0  0  0  0  0  0  0
   20.1691   -7.1476  -15.0218 C   0  0  0  0  0  0  0  0  0  0  0  0
   20.1044   -7.4913  -13.7866 O   0  0  0  0  0  0  0  0  0  0  0  0
   20.8828   -5.9646  -15.2671 N   0  0  0  0  0  0  0  0  0  0  0  0
   21.5297   -5.2142  -14.1895 C   0  0  1  0  0  0  0  0  0  0  0  0
   22.9098   -5.7968  -13.9158 C   0  0  0  0  0  0  0  0  0  0  0  0
   23.7544   -5.8032  -15.1206 C   0  0  0  0  0  0  0  0  0  0  0  0
   23.8995   -6.9604  -15.8415 C   0  0  0  0  0  0  0  0  0  0  0  0
   24.6804   -6.9726  -16.9773 C   0  0  0  0  0  0  0  0  0  0  0  0
   25.3281   -5.8263  -17.4092 C   0  0  0  0  0  0  0  0  0  0  0  0
   25.1638   -4.6801  -16.6660 C   0  0  0  0  0  0  0  0  0  0  0  0
   24.3907   -4.6558  -15.5361 C   0  0  0  0  0  0  0  0  0  0  0  0
   21.6154   -3.7845  -14.5663 C   0  0  0  0  0  0  0  0  0  0  0  0
   22.0745   -2.8384  -13.6452 O   0  0  0  0  0  0  0  0  0  0  0  0
   21.2940   -3.3366  -15.6934 O   0  0  0  0  0  0  0  0  0  0  0  0
  2  1  1  1
  2  4  1  0
  3  2  1  0
  4  5  1  6
  6  4  1  0
  7  6  2  0
  8  9  1  0
  9 10  2  0
 12 11  1  1
 11  9  1  0
 12 13  1  0
 13  6  1  0
 14 15  2  0
 14 12  1  0
 16 14  1  0
 17 18  1  6
 17 16  1  0
 19 20  2  0
 19 18  1  0
 21 20  1  0
 22 21  2  0
 23 24  2  0
 23 22  1  0
 24 19  1  0
 25 17  1  0
 26 25  1  0
 27 25  2  0
M  END
$$$$
