TNF.pdb
     RDKit          3D

 27 27  0  0  1  0  0  0  0  0999 V2000
   28.2419  -21.1943  -16.0552 C   0  0  0  0  0  0  0  0  0  0  0  0
   28.3849  -20.5418  -17.4094 C   0  0  1  0  0  0  0  0  0  0  0  0
   29.4508  -21.1140  -18.1272 O   0  0  0  0  0  0  0  0  0  0  0  0
   27.0785  -20.7278  -18.1657 C   0  0  2  0  0  0  0  0  0  0  0  0
   27.2202  -20.1206  -19.4914 N   0  0  0  0  0  0  0  0  0  0  0  0
   26.0206  -20.0126  -17.3856 C   0  0  0  0  0  0  0  0  0  0  0  0
   25.5255  -18.9795  -17.8949 O   0  0  0  0  0  0  0  0  0  0  0  0
   22.5154  -17.9859  -15.8240 N   0  0  0  0  0  0  0  0  0  0  0  0
   22.3025  -19.1586  -16.5734 C   0  0  0  0  0  0  0  0  0  0  0  0
   21.3009  -19.2445  -17.3219 O   0  0  0  0  0  0  0  0  0  0  0  0
   23.2538  -20.2518  -16.4631 C   0  0  0  0  0  0  0  0  0  0  0  0
   24.3597  -19.8939  -15.4569 C   0  0  2  0  0  0  0  0  0  0  0  0
   25.5671  -20.4384  -16.1348 N   0  0  0  0  0  0  0  0  0  0  0  0
   24.1939  -20.5707  -14.1645 C   0  0  0  0  0  0  0  0  0  0  0  0
   24.1120  -21.8507  -14.1108 O   0  0  0  0  0  0  0  0  0  0  0  0
   24.1143  -19.9231  -12.9221 N   0  0  0  0  0  0  0  0  0  0  0  0
   23.9580  -20.6668  -11.6711 C   0  0  1  0  0  0  0  0  0  0  0  0
   24.9928  -20.1924  -10.6597 C   0  0  0  0  0  0  0  0  0  0  0  0
   26.3678  -20.3770  -11.1499 C   0  0  0  0  0  0  0  0  0  0  0  0
   26.8450  -19.5714  -12.1515 C   0  0  0  0  0  0  0  0  0  0  0  0
   28.1353  -19.7307  -12.6095 C   0  0  0  0  0  0  0  0  0  0  0  0
   28.9681  -20.6988  -12.0717 C   0  0  0  0  0  0  0  0  0  0  0  0
   28.4620  -21.4921  -11.0679 C   0  0  0  0  0  0  0  0  0  0  0  0
   27.1821  -21.3433  -10.6047 C   0  0  0  0  0  0  0  0  0  0  0  0
   22.5812  -20.4836  -11.1570 C   0  0  0  0  0  0  0  0  0  0  0  0
   22.0449  -21.3899  -10.2375 O   0  0  0  0  0  0  0  0  0  0  0  0
   21.8263  -19.5406  -11.4966 O   0  0  0  0  0  0  0  0  0  0  0  0
  2  1  1  1
  2  4  1  0
  3  2  1  0
  4  5  1  6
  6  4  1  0
  7  6  2  0
  8  9  1  0
  9 10  2  0
 12 11  1  6
 11  9  1  0
 12 13  1  0
 13  6  1  0
 14 15  2  0
 14 12  1  0
 16 14  1  0
 17 18  1  1
 17 16  1  0
 19 20  2  0
 19 18  1  0
 21 20  1  0
 22 21  2  0
 23 24  2  0
 23 22  1  0
 24 19  1  0
 25 17  1  0
 26 25  1  0
 27 25  2  0
M  END
$$$$
