TNF.pdb
     RDKit          3D

 27 27  0  0  1  0  0  0  0  0999 V2000
   33.1632  -13.5444   12.8663 C   0  0  0  0  0  0  0  0  0  0  0  0
   33.3336  -14.7615   11.9889 C   0  0  1  0  0  0  0  0  0  0  0  0
   32.1493  -15.0334   11.2801 O   0  0  0  0  0  0  0  0  0  0  0  0
   34.4776  -14.4936   11.0232 C   0  0  2  0  0  0  0  0  0  0  0  0
   34.0762  -13.4144   10.1174 N   0  0  0  0  0  0  0  0  0  0  0  0
   34.6965  -15.7559   10.2500 C   0  0  0  0  0  0  0  0  0  0  0  0
   34.3333  -15.7695    9.0501 O   0  0  0  0  0  0  0  0  0  0  0  0
   37.8784  -17.3565    9.0454 N   0  0  0  0  0  0  0  0  0  0  0  0
   37.9697  -18.1925   10.1745 C   0  0  0  0  0  0  0  0  0  0  0  0
   39.0941  -18.4654   10.6562 O   0  0  0  0  0  0  0  0  0  0  0  0
   36.7516  -18.7248   10.7618 C   0  0  0  0  0  0  0  0  0  0  0  0
   35.5204  -18.1576   10.0365 C   0  0  2  0  0  0  0  0  0  0  0  0
   35.2786  -16.9019   10.7971 N   0  0  0  0  0  0  0  0  0  0  0  0
   34.3400  -19.0223   10.1580 C   0  0  0  0  0  0  0  0  0  0  0  0
   33.6563  -19.0340   11.2444 O   0  0  0  0  0  0  0  0  0  0  0  0
   33.8624  -19.8768    9.1526 N   0  0  0  0  0  0  0  0  0  0  0  0
   32.6469  -20.6733    9.3278 C   0  0  1  0  0  0  0  0  0  0  0  0
   31.5419  -20.1261    8.4342 C   0  0  0  0  0  0  0  0  0  0  0  0
   31.9521  -20.0694    7.0223 C   0  0  0  0  0  0  0  0  0  0  0  0
   32.3197  -18.8694    6.4701 C   0  0  0  0  0  0  0  0  0  0  0  0
   32.7154  -18.8091    5.1511 C   0  0  0  0  0  0  0  0  0  0  0  0
   32.7493  -19.9492    4.3643 C   0  0  0  0  0  0  0  0  0  0  0  0
   32.3753  -21.1389    4.9455 C   0  0  0  0  0  0  0  0  0  0  0  0
   31.9805  -21.2113    6.2546 C   0  0  0  0  0  0  0  0  0  0  0  0
   32.9372  -22.0916    9.0153 C   0  0  0  0  0  0  0  0  0  0  0  0
   34.1979  -22.4659    8.5410 O   0  0  0  0  0  0  0  0  0  0  0  0
   32.1060  -23.0223    9.1470 O   0  0  0  0  0  0  0  0  0  0  0  0
  2  1  1  1
  2  4  1  0
  3  2  1  0
  4  5  1  6
  6  4  1  0
  7  6  2  0
  8  9  1  0
  9 10  2  0
 12 11  1  1
 11  9  1  0
 12 13  1  0
 13  6  1  0
 14 15  2  0
 14 12  1  0
 16 14  1  0
 17 18  1  6
 17 16  1  0
 19 20  2  0
 19 18  1  0
 21 20  1  0
 22 21  2  0
 23 24  2  0
 23 22  1  0
 24 19  1  0
 25 17  1  0
 26 25  1  0
 27 25  2  0
M  END
$$$$
