TNF.pdb
     RDKit          3D

 27 27  0  0  1  0  0  0  0  0999 V2000
   21.6290  -14.8741  -15.9660 C   0  0  0  0  0  0  0  0  0  0  0  0
   22.6323  -15.6580  -16.7776 C   0  0  1  0  0  0  0  0  0  0  0  0
   22.3702  -17.0376  -16.6946 O   0  0  0  0  0  0  0  0  0  0  0  0
   22.5439  -15.1894  -18.2219 C   0  0  2  0  0  0  0  0  0  0  0  0
   23.5342  -15.9273  -19.0098 N   0  0  0  0  0  0  0  0  0  0  0  0
   22.8724  -13.7295  -18.2246 C   0  0  0  0  0  0  0  0  0  0  0  0
   24.0846  -13.4095  -18.2270 O   0  0  0  0  0  0  0  0  0  0  0  0
   21.7873   -8.6759  -20.3515 N   0  0  0  0  0  0  0  0  0  0  0  0
   21.1404   -9.2976  -19.2666 C   0  0  0  0  0  0  0  0  0  0  0  0
   20.6086   -8.5954  -18.3750 O   0  0  0  0  0  0  0  0  0  0  0  0
   21.1023  -10.7490  -19.2021 C   0  0  0  0  0  0  0  0  0  0  0  0
   22.2133  -11.2687  -18.2751 C   0  0  2  0  0  0  0  0  0  0  0  0
   21.9035  -12.7231  -18.2248 N   0  0  0  0  0  0  0  0  0  0  0  0
   22.1261  -10.7164  -16.9174 C   0  0  0  0  0  0  0  0  0  0  0  0
   21.2885  -11.2021  -16.0745 O   0  0  0  0  0  0  0  0  0  0  0  0
   22.9086   -9.6596  -16.4275 N   0  0  0  0  0  0  0  0  0  0  0  0
   22.7555   -9.1521  -15.0631 C   0  0  1  0  0  0  0  0  0  0  0  0
   23.9131   -9.6391  -14.2018 C   0  0  0  0  0  0  0  0  0  0  0  0
   25.1362   -9.8520  -14.9915 C   0  0  0  0  0  0  0  0  0  0  0  0
   25.8161  -11.0378  -14.8830 C   0  0  0  0  0  0  0  0  0  0  0  0
   26.9570  -11.2496  -15.6271 C   0  0  0  0  0  0  0  0  0  0  0  0
   27.4349  -10.2777  -16.4914 C   0  0  0  0  0  0  0  0  0  0  0  0
   26.7318   -9.0983  -16.5796 C   0  0  0  0  0  0  0  0  0  0  0  0
   25.5973   -8.8764  -15.8457 C   0  0  0  0  0  0  0  0  0  0  0  0
   22.6924   -7.6727  -15.0913 C   0  0  0  0  0  0  0  0  0  0  0  0
   22.8948   -6.9805  -16.2889 O   0  0  0  0  0  0  0  0  0  0  0  0
   22.4633   -6.9619  -14.0830 O   0  0  0  0  0  0  0  0  0  0  0  0
  2  1  1  1
  2  4  1  0
  3  2  1  0
  4  5  1  6
  6  4  1  0
  7  6  2  0
  8  9  1  0
  9 10  2  0
 12 11  1  6
 11  9  1  0
 12 13  1  0
 13  6  1  0
 14 15  2  0
 14 12  1  0
 16 14  1  0
 17 18  1  1
 17 16  1  0
 19 20  2  0
 19 18  1  0
 21 20  1  0
 22 21  2  0
 23 24  2  0
 23 22  1  0
 24 19  1  0
 25 17  1  0
 26 25  1  0
 27 25  2  0
M  END
$$$$
