EDP.pdb
     RDKit          3D

 25 25  0  0  1  0  0  0  0  0999 V2000
   21.1220  -13.5579  -19.8260 N   0  0  0  0  0  0  0  0  0  0  0  0
   20.4524  -13.5894  -18.5524 C   0  0  1  0  0  0  0  0  0  0  0  0
   20.5536  -14.9533  -17.9650 C   0  0  0  0  0  0  0  0  0  0  0  0
   19.8248  -15.9914  -18.7438 C   0  0  0  0  0  0  0  0  0  0  0  0
   19.8744  -17.3568  -18.1861 C   0  0  0  0  0  0  0  0  0  0  0  0
   18.8238  -17.9469  -17.8330 O   0  0  0  0  0  0  0  0  0  0  0  0
   21.0999  -12.6161  -17.6064 C   0  0  0  0  0  0  0  0  0  0  0  0
   20.6860  -12.4902  -16.4169 O   0  0  0  0  0  0  0  0  0  0  0  0
   21.0742  -18.0351  -18.0320 O   0  0  0  0  0  0  0  0  0  0  0  0
   22.1917  -11.8034  -17.9984 N   0  0  0  0  0  0  0  0  0  0  0  0
   22.7393  -10.7870  -17.0671 C   0  0  1  0  0  0  0  0  0  0  0  0
   24.1008  -10.4608  -17.6402 C   0  0  0  0  0  0  0  0  0  0  0  0
   24.8121   -9.3831  -16.9500 C   0  0  0  0  0  0  0  0  0  0  0  0
   25.4984   -9.7368  -15.9312 O   0  0  0  0  0  0  0  0  0  0  0  0
   21.8315   -9.6429  -16.9732 C   0  0  0  0  0  0  0  0  0  0  0  0
   21.2575   -9.2452  -18.0556 O   0  0  0  0  0  0  0  0  0  0  0  0
   24.8290   -8.0507  -17.2631 O   0  0  0  0  0  0  0  0  0  0  0  0
   21.5176   -8.9259  -15.8003 N   0  0  0  0  0  0  0  0  0  0  0  0
   22.0926   -9.2239  -14.4739 C   0  0  0  0  0  0  0  0  0  0  0  0
   21.0293   -8.9006  -13.4731 C   0  0  0  0  0  0  0  0  0  0  0  0
   19.9802   -8.1293  -14.2076 C   0  0  0  0  0  0  0  0  0  0  0  0
   20.6399   -7.8143  -15.5422 C   0  0  1  0  0  0  0  0  0  0  0  0
   21.4496   -6.5713  -15.4189 C   0  0  0  0  0  0  0  0  0  0  0  0
   22.6962   -6.6729  -15.3984 O   0  0  0  0  0  0  0  0  0  0  0  0
   20.8229   -5.3268  -15.3293 O   0  0  0  0  0  0  0  0  0  0  0  0
  2  1  1  6
  2  3  1  0
  3  4  1  0
  5  4  1  0
  5  6  2  0
  7  2  1  0
  7  8  2  0
  9  5  1  0
 10  7  1  0
 11 10  1  0
 12 13  1  0
 11 12  1  6
 13 17  1  0
 14 13  2  0
 15 11  1  0
 16 15  2  0
 18 15  1  0
 18 22  1  0
 19 20  1  0
 19 18  1  0
 20 21  1  0
 22 21  1  0
 22 23  1  1
 24 23  2  0
 25 23  1  0
M  END
$$$$
