EDP.pdb
     RDKit          3D

 25 25  0  0  1  0  0  0  0  0999 V2000
   21.3428  -12.6119  -15.6441 N   0  0  0  0  0  0  0  0  0  0  0  0
   21.1742  -11.5860  -16.6392 C   0  0  1  0  0  0  0  0  0  0  0  0
   20.1632  -12.0197  -17.6419 C   0  0  0  0  0  0  0  0  0  0  0  0
   19.0466  -12.8107  -17.0563 C   0  0  0  0  0  0  0  0  0  0  0  0
   17.9984  -13.2312  -18.0061 C   0  0  0  0  0  0  0  0  0  0  0  0
   17.0201  -12.4853  -18.2576 O   0  0  0  0  0  0  0  0  0  0  0  0
   20.6882  -10.3178  -15.9934 C   0  0  0  0  0  0  0  0  0  0  0  0
   19.7753  -10.3413  -15.1169 O   0  0  0  0  0  0  0  0  0  0  0  0
   18.0533  -14.4572  -18.6522 O   0  0  0  0  0  0  0  0  0  0  0  0
   21.2237   -9.0512  -16.3326 N   0  0  0  0  0  0  0  0  0  0  0  0
   20.7812   -7.8343  -15.6090 C   0  0  1  0  0  0  0  0  0  0  0  0
   22.0195   -7.3767  -14.8702 C   0  0  0  0  0  0  0  0  0  0  0  0
   21.8481   -6.1479  -14.0928 C   0  0  0  0  0  0  0  0  0  0  0  0
   22.4677   -5.1216  -14.5364 O   0  0  0  0  0  0  0  0  0  0  0  0
   20.2396   -6.8529  -16.5499 C   0  0  0  0  0  0  0  0  0  0  0  0
   20.8129   -6.7467  -17.6985 O   0  0  0  0  0  0  0  0  0  0  0  0
   21.1089   -5.9684  -12.9548 O   0  0  0  0  0  0  0  0  0  0  0  0
   19.1374   -6.0036  -16.3213 N   0  0  0  0  0  0  0  0  0  0  0  0
   18.3414   -6.0035  -15.0783 C   0  0  0  0  0  0  0  0  0  0  0  0
   16.9399   -5.6668  -15.4773 C   0  0  0  0  0  0  0  0  0  0  0  0
   17.0107   -5.1713  -16.8860 C   0  0  0  0  0  0  0  0  0  0  0  0
   18.5027   -4.9918  -17.1250 C   0  0  1  0  0  0  0  0  0  0  0  0
   18.9282   -3.6485  -16.6446 C   0  0  0  0  0  0  0  0  0  0  0  0
   18.5836   -2.6438  -17.3052 O   0  0  0  0  0  0  0  0  0  0  0  0
   19.6932   -3.5242  -15.4831 O   0  0  0  0  0  0  0  0  0  0  0  0
  2  1  1  1
  2  3  1  0
  3  4  1  0
  5  4  1  0
  5  6  2  0
  7  2  1  0
  7  8  2  0
  9  5  1  0
 10  7  1  0
 11 10  1  0
 12 13  1  0
 11 12  1  6
 13 17  1  0
 14 13  2  0
 15 11  1  0
 16 15  2  0
 18 15  1  0
 18 22  1  0
 19 20  1  0
 19 18  1  0
 20 21  1  0
 22 21  1  0
 22 23  1  1
 24 23  2  0
 25 23  1  0
M  END
$$$$
