EDP.pdb
     RDKit          3D

 25 25  0  0  1  0  0  0  0  0999 V2000
   20.9833  -17.9086  -18.0727 N   0  0  0  0  0  0  0  0  0  0  0  0
   21.6188  -16.8880  -17.2817 C   0  0  1  0  0  0  0  0  0  0  0  0
   20.5838  -16.0327  -16.6392 C   0  0  0  0  0  0  0  0  0  0  0  0
   19.4298  -16.8015  -16.0980 C   0  0  0  0  0  0  0  0  0  0  0  0
   18.3884  -15.9985  -15.4282 C   0  0  0  0  0  0  0  0  0  0  0  0
   17.7733  -15.0959  -16.0475 O   0  0  0  0  0  0  0  0  0  0  0  0
   22.4512  -17.5190  -16.1998 C   0  0  0  0  0  0  0  0  0  0  0  0
   23.1936  -16.8150  -15.4547 O   0  0  0  0  0  0  0  0  0  0  0  0
   18.0521  -16.2087  -14.0993 O   0  0  0  0  0  0  0  0  0  0  0  0
   22.4433  -18.9161  -15.9669 N   0  0  0  0  0  0  0  0  0  0  0  0
   23.4700  -19.5341  -15.0927 C   0  0  1  0  0  0  0  0  0  0  0  0
   22.8258  -20.8199  -14.6234 C   0  0  0  0  0  0  0  0  0  0  0  0
   21.8307  -20.6530  -13.5626 C   0  0  0  0  0  0  0  0  0  0  0  0
   21.7319  -19.4747  -13.0769 O   0  0  0  0  0  0  0  0  0  0  0  0
   24.7211  -19.7169  -15.8298 C   0  0  0  0  0  0  0  0  0  0  0  0
   24.6472  -19.8478  -17.1091 O   0  0  0  0  0  0  0  0  0  0  0  0
   20.9994  -21.6022  -13.0318 O   0  0  0  0  0  0  0  0  0  0  0  0
   26.0150  -19.7622  -15.2712 N   0  0  0  0  0  0  0  0  0  0  0  0
   26.2915  -19.6664  -13.8245 C   0  0  0  0  0  0  0  0  0  0  0  0
   27.6040  -18.9614  -13.6937 C   0  0  0  0  0  0  0  0  0  0  0  0
   28.2105  -18.9436  -15.0600 C   0  0  0  0  0  0  0  0  0  0  0  0
   27.3249  -19.8925  -15.8542 C   0  0  1  0  0  0  0  0  0  0  0  0
   27.8024  -21.2910  -15.6741 C   0  0  0  0  0  0  0  0  0  0  0  0
   27.2000  -22.0252  -14.8600 O   0  0  0  0  0  0  0  0  0  0  0  0
   28.8971  -21.7621  -16.4016 O   0  0  0  0  0  0  0  0  0  0  0  0
  2  1  1  1
  2  3  1  0
  3  4  1  0
  5  4  1  0
  5  6  2  0
  7  2  1  0
  7  8  2  0
  9  5  1  0
 10  7  1  0
 11 10  1  0
 12 13  1  0
 11 12  1  6
 13 17  1  0
 14 13  2  0
 15 11  1  0
 16 15  2  0
 18 15  1  0
 18 22  1  0
 19 20  1  0
 19 18  1  0
 20 21  1  0
 22 21  1  0
 22 23  1  1
 24 23  2  0
 25 23  1  0
M  END
$$$$
