EDP.pdb
     RDKit          3D

 25 25  0  0  1  0  0  0  0  0999 V2000
   16.9918  -10.9410  -17.7948 N   0  0  0  0  0  0  0  0  0  0  0  0
   16.6594  -10.2692  -16.5662 C   0  0  1  0  0  0  0  0  0  0  0  0
   16.9276  -11.1701  -15.4122 C   0  0  0  0  0  0  0  0  0  0  0  0
   16.7434  -12.6127  -15.7290 C   0  0  0  0  0  0  0  0  0  0  0  0
   16.7838  -13.5283  -14.5724 C   0  0  0  0  0  0  0  0  0  0  0  0
   16.9452  -13.0880  -13.4076 O   0  0  0  0  0  0  0  0  0  0  0  0
   17.5036   -9.0344  -16.4104 C   0  0  0  0  0  0  0  0  0  0  0  0
   18.6021   -8.9140  -17.0274 O   0  0  0  0  0  0  0  0  0  0  0  0
   16.6462  -14.8997  -14.7267 O   0  0  0  0  0  0  0  0  0  0  0  0
   17.1127   -7.9599  -15.5745 N   0  0  0  0  0  0  0  0  0  0  0  0
   17.9031   -6.7049  -15.5512 C   0  0  1  0  0  0  0  0  0  0  0  0
   16.9598   -5.6889  -14.9459 C   0  0  0  0  0  0  0  0  0  0  0  0
   15.8634   -5.2743  -15.8232 C   0  0  0  0  0  0  0  0  0  0  0  0
   14.7552   -5.0174  -15.2402 O   0  0  0  0  0  0  0  0  0  0  0  0
   19.1448   -6.9008  -14.8019 C   0  0  0  0  0  0  0  0  0  0  0  0
   19.1277   -7.7420  -13.8264 O   0  0  0  0  0  0  0  0  0  0  0  0
   15.8832   -5.1306  -17.1843 O   0  0  0  0  0  0  0  0  0  0  0  0
   20.3734   -6.2536  -15.0466 N   0  0  0  0  0  0  0  0  0  0  0  0
   20.5758   -5.2426  -16.1028 C   0  0  0  0  0  0  0  0  0  0  0  0
   21.9841   -5.4082  -16.5783 C   0  0  0  0  0  0  0  0  0  0  0  0
   22.6643   -6.2900  -15.5809 C   0  0  0  0  0  0  0  0  0  0  0  0
   21.6704   -6.3580  -14.4306 C   0  0  1  0  0  0  0  0  0  0  0  0
   21.8751   -5.1955  -13.5235 C   0  0  0  0  0  0  0  0  0  0  0  0
   22.8539   -5.2135  -12.7449 O   0  0  0  0  0  0  0  0  0  0  0  0
   20.9899   -4.1159  -13.5491 O   0  0  0  0  0  0  0  0  0  0  0  0
  2  1  1  6
  2  3  1  0
  3  4  1  0
  5  4  1  0
  5  6  2  0
  7  2  1  0
  7  8  2  0
  9  5  1  0
 10  7  1  0
 11 10  1  0
 12 13  1  0
 11 12  1  1
 13 17  1  0
 14 13  2  0
 15 11  1  0
 16 15  2  0
 18 15  1  0
 18 22  1  0
 19 20  1  0
 19 18  1  0
 20 21  1  0
 22 21  1  0
 22 23  1  1
 24 23  2  0
 25 23  1  0
M  END
$$$$
