EDP.pdb
     RDKit          3D

 25 25  0  0  1  0  0  0  0  0999 V2000
   14.5546  -11.0293  -16.9863 N   0  0  0  0  0  0  0  0  0  0  0  0
   15.1324  -10.5301  -15.7664 C   0  0  1  0  0  0  0  0  0  0  0  0
   15.6988  -11.6594  -14.9795 C   0  0  0  0  0  0  0  0  0  0  0  0
   14.6648  -12.5770  -14.4279 C   0  0  0  0  0  0  0  0  0  0  0  0
   15.1779  -13.8108  -13.8017 C   0  0  0  0  0  0  0  0  0  0  0  0
   16.4078  -13.9699  -13.6048 O   0  0  0  0  0  0  0  0  0  0  0  0
   16.2433   -9.5661  -16.0800 C   0  0  0  0  0  0  0  0  0  0  0  0
   17.1278   -9.8488  -16.9400 O   0  0  0  0  0  0  0  0  0  0  0  0
   14.3277  -14.8341  -13.4098 O   0  0  0  0  0  0  0  0  0  0  0  0
   16.3503   -8.3101  -15.4342 N   0  0  0  0  0  0  0  0  0  0  0  0
   17.4626   -7.3885  -15.7711 C   0  0  1  0  0  0  0  0  0  0  0  0
   16.8111   -6.0236  -15.8019 C   0  0  0  0  0  0  0  0  0  0  0  0
   15.8867   -5.8128  -16.9176 C   0  0  0  0  0  0  0  0  0  0  0  0
   16.2754   -6.2601  -18.0502 O   0  0  0  0  0  0  0  0  0  0  0  0
   18.5452   -7.5213  -14.7953 C   0  0  0  0  0  0  0  0  0  0  0  0
   18.2281   -7.8580  -13.5931 O   0  0  0  0  0  0  0  0  0  0  0  0
   14.6643   -5.1973  -16.8927 O   0  0  0  0  0  0  0  0  0  0  0  0
   19.9179   -7.3169  -15.0449 N   0  0  0  0  0  0  0  0  0  0  0  0
   20.4649   -6.9033  -16.3519 C   0  0  0  0  0  0  0  0  0  0  0  0
   21.8072   -7.5521  -16.4697 C   0  0  0  0  0  0  0  0  0  0  0  0
   22.1467   -8.0675  -15.1080 C   0  0  0  0  0  0  0  0  0  0  0  0
   21.0884   -7.4363  -14.2152 C   0  0  1  0  0  0  0  0  0  0  0  0
   21.5315   -6.0779  -13.7977 C   0  0  0  0  0  0  0  0  0  0  0  0
   21.0879   -5.0892  -14.4225 O   0  0  0  0  0  0  0  0  0  0  0  0
   22.4211   -5.9220  -12.7328 O   0  0  0  0  0  0  0  0  0  0  0  0
  2  1  1  6
  2  3  1  0
  3  4  1  0
  5  4  1  0
  5  6  2  0
  7  2  1  0
  7  8  2  0
  9  5  1  0
 10  7  1  0
 11 10  1  0
 12 13  1  0
 11 12  1  1
 13 17  1  0
 14 13  2  0
 15 11  1  0
 16 15  2  0
 18 15  1  0
 18 22  1  0
 19 20  1  0
 19 18  1  0
 20 21  1  0
 22 21  1  0
 22 23  1  6
 24 23  2  0
 25 23  1  0
M  END
$$$$
