EDP.pdb
     RDKit          3D

 25 25  0  0  1  0  0  0  0  0999 V2000
   18.9308  -15.2896  -17.9934 N   0  0  0  0  0  0  0  0  0  0  0  0
   18.2898  -14.6047  -16.9019 C   0  0  1  0  0  0  0  0  0  0  0  0
   18.7408  -15.1876  -15.6087 C   0  0  0  0  0  0  0  0  0  0  0  0
   19.2861  -16.5666  -15.7363 C   0  0  0  0  0  0  0  0  0  0  0  0
   19.6127  -17.2418  -14.4653 C   0  0  0  0  0  0  0  0  0  0  0  0
   18.7271  -17.4482  -13.5994 O   0  0  0  0  0  0  0  0  0  0  0  0
   18.6602  -13.1473  -16.9203 C   0  0  0  0  0  0  0  0  0  0  0  0
   19.7739  -12.7640  -17.3838 O   0  0  0  0  0  0  0  0  0  0  0  0
   20.9006  -17.6706  -14.1809 O   0  0  0  0  0  0  0  0  0  0  0  0
   17.7892  -12.1463  -16.4249 N   0  0  0  0  0  0  0  0  0  0  0  0
   18.1650  -10.7146  -16.5198 C   0  0  1  0  0  0  0  0  0  0  0  0
   16.8884   -9.9774  -16.1802 C   0  0  0  0  0  0  0  0  0  0  0  0
   15.8578  -10.0298  -17.2189 C   0  0  0  0  0  0  0  0  0  0  0  0
   14.6712  -10.2709  -16.8093 O   0  0  0  0  0  0  0  0  0  0  0  0
   19.2880  -10.4242  -15.6274 C   0  0  0  0  0  0  0  0  0  0  0  0
   19.4348  -11.1721  -14.5889 O   0  0  0  0  0  0  0  0  0  0  0  0
   16.0126   -9.8532  -18.5675 O   0  0  0  0  0  0  0  0  0  0  0  0
   20.2379   -9.3958  -15.7954 N   0  0  0  0  0  0  0  0  0  0  0  0
   20.2143   -8.4264  -16.9083 C   0  0  0  0  0  0  0  0  0  0  0  0
   21.6422   -8.1041  -17.2147 C   0  0  0  0  0  0  0  0  0  0  0  0
   22.4490   -8.6432  -16.0774 C   0  0  0  0  0  0  0  0  0  0  0  0
   21.3989   -9.0072  -15.0380 C   0  0  1  0  0  0  0  0  0  0  0  0
   21.0690   -7.8086  -14.2192 C   0  0  0  0  0  0  0  0  0  0  0  0
   20.0318   -7.1663  -14.4958 O   0  0  0  0  0  0  0  0  0  0  0  0
   21.9037   -7.4191  -13.1698 O   0  0  0  0  0  0  0  0  0  0  0  0
  2  1  1  6
  2  3  1  0
  3  4  1  0
  5  4  1  0
  5  6  2  0
  7  2  1  0
  7  8  2  0
  9  5  1  0
 10  7  1  0
 11 10  1  0
 12 13  1  0
 11 12  1  1
 13 17  1  0
 14 13  2  0
 15 11  1  0
 16 15  2  0
 18 15  1  0
 18 22  1  0
 19 20  1  0
 19 18  1  0
 20 21  1  0
 22 21  1  0
 22 23  1  1
 24 23  2  0
 25 23  1  0
M  END
$$$$
