EDP.pdb
     RDKit          3D

 25 25  0  0  1  0  0  0  0  0999 V2000
   18.1272  -15.6032  -17.2538 N   0  0  0  0  0  0  0  0  0  0  0  0
   17.6434  -14.2869  -16.9308 C   0  0  1  0  0  0  0  0  0  0  0  0
   16.9077  -14.3250  -15.6374 C   0  0  0  0  0  0  0  0  0  0  0  0
   16.7529  -15.6972  -15.0820 C   0  0  0  0  0  0  0  0  0  0  0  0
   16.0019  -15.7898  -13.8150 C   0  0  0  0  0  0  0  0  0  0  0  0
   16.5701  -16.1481  -12.7541 O   0  0  0  0  0  0  0  0  0  0  0  0
   18.7984  -13.3339  -16.7918 C   0  0  0  0  0  0  0  0  0  0  0  0
   19.7890  -13.6139  -16.0553 O   0  0  0  0  0  0  0  0  0  0  0  0
   14.6501  -15.4870  -13.7483 O   0  0  0  0  0  0  0  0  0  0  0  0
   18.8311  -12.0916  -17.4713 N   0  0  0  0  0  0  0  0  0  0  0  0
   19.9974  -11.1876  -17.3209 C   0  0  1  0  0  0  0  0  0  0  0  0
   19.8760  -10.2353  -18.4900 C   0  0  0  0  0  0  0  0  0  0  0  0
   20.9531   -9.2484  -18.5885 C   0  0  0  0  0  0  0  0  0  0  0  0
   20.6510   -8.0614  -18.2227 O   0  0  0  0  0  0  0  0  0  0  0  0
   19.9730  -10.5415  -16.0079 C   0  0  0  0  0  0  0  0  0  0  0  0
   18.8245  -10.3536  -15.4557 O   0  0  0  0  0  0  0  0  0  0  0  0
   22.2362   -9.4438  -19.0234 O   0  0  0  0  0  0  0  0  0  0  0  0
   21.0962  -10.1012  -15.2780 N   0  0  0  0  0  0  0  0  0  0  0  0
   22.4842  -10.1827  -15.7734 C   0  0  0  0  0  0  0  0  0  0  0  0
   23.3452  -10.4180  -14.5733 C   0  0  0  0  0  0  0  0  0  0  0  0
   22.4847  -10.1546  -13.3796 C   0  0  0  0  0  0  0  0  0  0  0  0
   21.2409   -9.5097  -13.9734 C   0  0  1  0  0  0  0  0  0  0  0  0
   21.4598   -8.0449  -14.1230 C   0  0  0  0  0  0  0  0  0  0  0  0
   21.3591   -7.3215  -13.1076 O   0  0  0  0  0  0  0  0  0  0  0  0
   21.7700   -7.5015  -15.3713 O   0  0  0  0  0  0  0  0  0  0  0  0
  2  1  1  1
  2  3  1  0
  3  4  1  0
  5  4  1  0
  5  6  2  0
  7  2  1  0
  7  8  2  0
  9  5  1  0
 10  7  1  0
 11 10  1  0
 12 13  1  0
 11 12  1  6
 13 17  1  0
 14 13  2  0
 15 11  1  0
 16 15  2  0
 18 15  1  0
 18 22  1  0
 19 20  1  0
 19 18  1  0
 20 21  1  0
 22 21  1  0
 22 23  1  6
 24 23  2  0
 25 23  1  0
M  END
$$$$
