EDP.pdb
     RDKit          3D

 25 25  0  0  1  0  0  0  0  0999 V2000
   12.6871  -10.2234   -9.3106 N   0  0  0  0  0  0  0  0  0  0  0  0
   13.9311  -10.2638  -10.0330 C   0  0  1  0  0  0  0  0  0  0  0  0
   13.7529  -11.0268  -11.2986 C   0  0  0  0  0  0  0  0  0  0  0  0
   13.5408  -12.4850  -11.0887 C   0  0  0  0  0  0  0  0  0  0  0  0
   14.7497  -13.3251  -11.1916 C   0  0  0  0  0  0  0  0  0  0  0  0
   15.7727  -12.9112  -11.7907 O   0  0  0  0  0  0  0  0  0  0  0  0
   14.3712   -8.8679  -10.3785 C   0  0  0  0  0  0  0  0  0  0  0  0
   13.5326   -7.9905  -10.7376 O   0  0  0  0  0  0  0  0  0  0  0  0
   14.8015  -14.5942  -10.6348 O   0  0  0  0  0  0  0  0  0  0  0  0
   15.7304   -8.4742  -10.3187 N   0  0  0  0  0  0  0  0  0  0  0  0
   16.1419   -7.1325  -10.7990 C   0  0  1  0  0  0  0  0  0  0  0  0
   16.9767   -6.5779   -9.6659 C   0  0  0  0  0  0  0  0  0  0  0  0
   16.2044   -6.0281   -8.5501 C   0  0  0  0  0  0  0  0  0  0  0  0
   15.2342   -5.2612   -8.8736 O   0  0  0  0  0  0  0  0  0  0  0  0
   16.8502   -7.2450  -12.0747 C   0  0  0  0  0  0  0  0  0  0  0  0
   17.5727   -8.2941  -12.2665 O   0  0  0  0  0  0  0  0  0  0  0  0
   16.3964   -6.2356   -7.2108 O   0  0  0  0  0  0  0  0  0  0  0  0
   16.8176   -6.3084  -13.1282 N   0  0  0  0  0  0  0  0  0  0  0  0
   16.0663   -5.0388  -13.0787 C   0  0  0  0  0  0  0  0  0  0  0  0
   15.6053   -4.7690  -14.4756 C   0  0  0  0  0  0  0  0  0  0  0  0
   16.3590   -5.7121  -15.3573 C   0  0  0  0  0  0  0  0  0  0  0  0
   17.4228   -6.2881  -14.4343 C   0  0  1  0  0  0  0  0  0  0  0  0
   18.6061   -5.3851  -14.4101 C   0  0  0  0  0  0  0  0  0  0  0  0
   19.3306   -5.3264  -15.4281 O   0  0  0  0  0  0  0  0  0  0  0  0
   18.8914   -4.6260  -13.2734 O   0  0  0  0  0  0  0  0  0  0  0  0
  2  1  1  6
  2  3  1  0
  3  4  1  0
  5  4  1  0
  5  6  2  0
  7  2  1  0
  7  8  2  0
  9  5  1  0
 10  7  1  0
 11 10  1  0
 12 13  1  0
 11 12  1  1
 13 17  1  0
 14 13  2  0
 15 11  1  0
 16 15  2  0
 18 15  1  0
 18 22  1  0
 19 20  1  0
 19 18  1  0
 20 21  1  0
 22 21  1  0
 22 23  1  1
 24 23  2  0
 25 23  1  0
M  END
$$$$
