EDP.pdb
     RDKit          3D

 25 25  0  0  1  0  0  0  0  0999 V2000
   17.5419  -11.7152  -17.3501 N   0  0  0  0  0  0  0  0  0  0  0  0
   17.1719  -10.6199  -16.4931 C   0  0  1  0  0  0  0  0  0  0  0  0
   16.4239  -11.1349  -15.3137 C   0  0  0  0  0  0  0  0  0  0  0  0
   15.6947  -12.4047  -15.5806 C   0  0  0  0  0  0  0  0  0  0  0  0
   15.8154  -13.4394  -14.5353 C   0  0  0  0  0  0  0  0  0  0  0  0
   16.9241  -13.6894  -14.0013 O   0  0  0  0  0  0  0  0  0  0  0  0
   18.4043   -9.9122  -16.0013 C   0  0  0  0  0  0  0  0  0  0  0  0
   18.7184   -9.9268  -14.7753 O   0  0  0  0  0  0  0  0  0  0  0  0
   14.7172  -14.1697  -14.1062 O   0  0  0  0  0  0  0  0  0  0  0  0
   19.2618   -9.2036  -16.8781 N   0  0  0  0  0  0  0  0  0  0  0  0
   20.4611   -8.5081  -16.3507 C   0  0  1  0  0  0  0  0  0  0  0  0
   21.4675   -8.6092  -17.4757 C   0  0  0  0  0  0  0  0  0  0  0  0
   21.9649   -9.9624  -17.7309 C   0  0  0  0  0  0  0  0  0  0  0  0
   22.7837  -10.4234  -16.8643 O   0  0  0  0  0  0  0  0  0  0  0  0
   20.1234   -7.1385  -15.9610 C   0  0  0  0  0  0  0  0  0  0  0  0
   19.0514   -6.6235  -16.4560 O   0  0  0  0  0  0  0  0  0  0  0  0
   21.6602  -10.7869  -18.7802 O   0  0  0  0  0  0  0  0  0  0  0  0
   20.8632   -6.3180  -15.0849 N   0  0  0  0  0  0  0  0  0  0  0  0
   22.1311   -6.7253  -14.4482 C   0  0  0  0  0  0  0  0  0  0  0  0
   22.1598   -6.0626  -13.1078 C   0  0  0  0  0  0  0  0  0  0  0  0
   21.0688   -5.0405  -13.1200 C   0  0  0  0  0  0  0  0  0  0  0  0
   20.6492   -4.9862  -14.5817 C   0  0  1  0  0  0  0  0  0  0  0  0
   21.5283   -4.0383  -15.3197 C   0  0  0  0  0  0  0  0  0  0  0  0
   22.4920   -4.5026  -15.9681 O   0  0  0  0  0  0  0  0  0  0  0  0
   21.2746   -2.6657  -15.2825 O   0  0  0  0  0  0  0  0  0  0  0  0
  2  1  1  6
  2  3  1  0
  3  4  1  0
  5  4  1  0
  5  6  2  0
  7  2  1  0
  7  8  2  0
  9  5  1  0
 10  7  1  0
 11 10  1  0
 12 13  1  0
 11 12  1  6
 13 17  1  0
 14 13  2  0
 15 11  1  0
 16 15  2  0
 18 15  1  0
 18 22  1  0
 19 20  1  0
 19 18  1  0
 20 21  1  0
 22 21  1  0
 22 23  1  6
 24 23  2  0
 25 23  1  0
M  END
$$$$
