FIT.pdb
     RDKit          3D

 27 27  0  0  1  0  0  0  0  0999 V2000
   28.7480  -21.9100  -16.3573 N   0  0  0  0  0  0  0  0  0  0  0  0
   28.2051  -20.7886  -15.6189 C   0  0  1  0  0  0  0  0  0  0  0  0
   27.5681  -19.8472  -16.6186 C   0  0  0  0  0  0  0  0  0  0  0  0
   28.6411  -19.0255  -17.2383 C   0  0  0  0  0  0  0  0  0  0  0  0
   29.1963  -19.3779  -18.4559 C   0  0  0  0  0  0  0  0  0  0  0  0
   30.1927  -18.6338  -19.0530 C   0  0  0  0  0  0  0  0  0  0  0  0
   30.6678  -17.5020  -18.4413 C   0  0  0  0  0  0  0  0  0  0  0  0
   30.1276  -17.1420  -17.2369 C   0  0  0  0  0  0  0  0  0  0  0  0
   29.1282  -17.8850  -16.6342 C   0  0  0  0  0  0  0  0  0  0  0  0
   27.2109  -21.2776  -14.6419 C   0  0  0  0  0  0  0  0  0  0  0  0
   26.4109  -22.2054  -14.9609 O   0  0  0  0  0  0  0  0  0  0  0  0
   25.5740  -20.9980   -8.6854 C   0  0  0  0  0  0  0  0  0  0  0  0
   25.2250  -21.4302  -10.0897 C   0  0  0  0  0  0  0  0  0  0  0  0
   26.2966  -20.8841  -11.0160 C   0  0  2  0  0  0  0  0  0  0  0  0
   26.4079  -19.3838  -10.8896 C   0  0  0  0  0  0  0  0  0  0  0  0
   26.0446  -21.2407  -12.4425 C   0  0  2  0  0  0  0  0  0  0  0  0
   27.0934  -20.7543  -13.3246 N   0  0  0  0  0  0  0  0  0  0  0  0
   24.7185  -20.6472  -12.8553 C   0  0  0  0  0  0  0  0  0  0  0  0
   24.5893  -19.4122  -13.0113 O   0  0  0  0  0  0  0  0  0  0  0  0
   21.7461  -23.0980  -14.9296 C   0  0  0  0  0  0  0  0  0  0  0  0
   21.9182  -21.6168  -14.8895 C   0  0  1  0  0  0  0  0  0  0  0  0
   20.7381  -21.0357  -15.3594 O   0  0  0  0  0  0  0  0  0  0  0  0
   22.3041  -21.0687  -13.5688 C   0  0  2  0  0  0  0  0  0  0  0  0
   23.5885  -21.4773  -13.0756 N   0  0  0  0  0  0  0  0  0  0  0  0
   21.2134  -21.0773  -12.5480 C   0  0  0  0  0  0  0  0  0  0  0  0
   19.9901  -20.5491  -12.8835 O   0  0  0  0  0  0  0  0  0  0  0  0
   21.3565  -21.5434  -11.4074 O   0  0  0  0  0  0  0  0  0  0  0  0
  2  1  1  6
  3  2  1  0
  4  9  2  0
  4  3  1  0
  5  4  1  0
  6  7  1  0
  6  5  2  0
  7  8  2  0
  8  9  1  0
 10 17  1  0
 10  2  1  0
 11 10  2  0
 13 14  1  0
 13 12  1  0
 14 15  1  6
 16 14  1  0
 16 17  1  6
 18 16  1  0
 19 18  2  0
 21 20  1  1
 21 22  1  0
 21 23  1  0
 23 24  1  1
 24 18  1  0
 25 23  1  0
 25 26  1  0
 27 25  2  0
M  END
$$$$
