FIT.pdb
     RDKit          3D

 27 27  0  0  1  0  0  0  0  0999 V2000
   21.4892  -12.8544  -18.2543 N   0  0  0  0  0  0  0  0  0  0  0  0
   20.6107  -12.1657  -17.3315 C   0  0  1  0  0  0  0  0  0  0  0  0
   21.0292  -12.5488  -15.9281 C   0  0  0  0  0  0  0  0  0  0  0  0
   20.6635  -13.9722  -15.7022 C   0  0  0  0  0  0  0  0  0  0  0  0
   19.3387  -14.3675  -15.6423 C   0  0  0  0  0  0  0  0  0  0  0  0
   18.9716  -15.6808  -15.4338 C   0  0  0  0  0  0  0  0  0  0  0  0
   19.9314  -16.6478  -15.2773 C   0  0  0  0  0  0  0  0  0  0  0  0
   21.2454  -16.2706  -15.3343 C   0  0  0  0  0  0  0  0  0  0  0  0
   21.6184  -14.9549  -15.5432 C   0  0  0  0  0  0  0  0  0  0  0  0
   20.7238  -10.7076  -17.5398 C   0  0  0  0  0  0  0  0  0  0  0  0
   21.8191  -10.2050  -17.9275 O   0  0  0  0  0  0  0  0  0  0  0  0
   17.7293   -7.8592  -20.6507 C   0  0  0  0  0  0  0  0  0  0  0  0
   18.9050   -8.3843  -19.8615 C   0  0  0  0  0  0  0  0  0  0  0  0
   18.8100   -7.8073  -18.4606 C   0  0  2  0  0  0  0  0  0  0  0  0
   18.9472   -6.3040  -18.4841 C   0  0  0  0  0  0  0  0  0  0  0  0
   19.8369   -8.3811  -17.5432 C   0  0  2  0  0  0  0  0  0  0  0  0
   19.6449   -9.8060  -17.3251 N   0  0  0  0  0  0  0  0  0  0  0  0
   19.7590   -7.6506  -16.2236 C   0  0  0  0  0  0  0  0  0  0  0  0
   18.7820   -7.8115  -15.4582 O   0  0  0  0  0  0  0  0  0  0  0  0
   23.1765   -5.1031  -14.9083 C   0  0  0  0  0  0  0  0  0  0  0  0
   22.2480   -5.8775  -14.0346 C   0  0  1  0  0  0  0  0  0  0  0  0
   22.2243   -5.2603  -12.7817 O   0  0  0  0  0  0  0  0  0  0  0  0
   20.8816   -6.0546  -14.5779 C   0  0  2  0  0  0  0  0  0  0  0  0
   20.7926   -6.7648  -15.8218 N   0  0  0  0  0  0  0  0  0  0  0  0
   20.0142   -4.8415  -14.4898 C   0  0  0  0  0  0  0  0  0  0  0  0
   19.6023   -4.4120  -13.2512 O   0  0  0  0  0  0  0  0  0  0  0  0
   19.6483   -4.1964  -15.4842 O   0  0  0  0  0  0  0  0  0  0  0  0
  2  1  1  6
  3  2  1  0
  4  9  2  0
  4  3  1  0
  5  4  1  0
  6  7  1  0
  6  5  2  0
  7  8  2  0
  8  9  1  0
 10 17  1  0
 10  2  1  0
 11 10  2  0
 13 14  1  0
 13 12  1  0
 14 15  1  6
 16 14  1  0
 16 17  1  1
 18 16  1  0
 19 18  2  0
 21 20  1  6
 21 22  1  0
 21 23  1  0
 23 24  1  6
 24 18  1  0
 25 23  1  0
 25 26  1  0
 27 25  2  0
M  END
$$$$
