FIT.pdb
     RDKit          3D

 27 27  0  0  1  0  0  0  0  0999 V2000
   28.3403  -20.4565   -8.7661 N   0  0  0  0  0  0  0  0  0  0  0  0
   26.9207  -20.6748   -8.5794 C   0  0  1  0  0  0  0  0  0  0  0  0
   26.4721  -19.8072   -7.4229 C   0  0  0  0  0  0  0  0  0  0  0  0
   27.4886  -19.9044   -6.3422 C   0  0  0  0  0  0  0  0  0  0  0  0
   27.3948  -20.8744   -5.3598 C   0  0  0  0  0  0  0  0  0  0  0  0
   28.3236  -20.9869   -4.3461 C   0  0  0  0  0  0  0  0  0  0  0  0
   29.3857  -20.1214   -4.2857 C   0  0  0  0  0  0  0  0  0  0  0  0
   29.4905  -19.1573   -5.2508 C   0  0  0  0  0  0  0  0  0  0  0  0
   28.5616  -19.0406   -6.2694 C   0  0  0  0  0  0  0  0  0  0  0  0
   26.2010  -20.3200   -9.8198 C   0  0  0  0  0  0  0  0  0  0  0  0
   26.2031  -19.1240  -10.2347 O   0  0  0  0  0  0  0  0  0  0  0  0
   28.0499  -21.8544  -12.6036 C   0  0  0  0  0  0  0  0  0  0  0  0
   27.0840  -20.8083  -13.1072 C   0  0  0  0  0  0  0  0  0  0  0  0
   25.6884  -21.4011  -13.0338 C   0  0  2  0  0  0  0  0  0  0  0  0
   24.9228  -21.1424  -14.3090 C   0  0  0  0  0  0  0  0  0  0  0  0
   24.9105  -20.8713  -11.8764 C   0  0  2  0  0  0  0  0  0  0  0  0
   25.4838  -21.2684  -10.6003 N   0  0  0  0  0  0  0  0  0  0  0  0
   23.4940  -21.3854  -11.9783 C   0  0  0  0  0  0  0  0  0  0  0  0
   23.2176  -22.5678  -11.6753 O   0  0  0  0  0  0  0  0  0  0  0  0
   18.6651  -20.2948  -12.0756 C   0  0  0  0  0  0  0  0  0  0  0  0
   20.0971  -19.8799  -12.0247 C   0  0  1  0  0  0  0  0  0  0  0  0
   20.3930  -19.5230  -10.7070 O   0  0  0  0  0  0  0  0  0  0  0  0
   21.0562  -20.8821  -12.5436 C   0  0  2  0  0  0  0  0  0  0  0  0
   22.4442  -20.5387  -12.4204 N   0  0  0  0  0  0  0  0  0  0  0  0
   20.6778  -21.4846  -13.8572 C   0  0  0  0  0  0  0  0  0  0  0  0
   20.0475  -22.7056  -13.8673 O   0  0  0  0  0  0  0  0  0  0  0  0
   20.9020  -20.9329  -14.9454 O   0  0  0  0  0  0  0  0  0  0  0  0
  2  1  1  6
  3  2  1  0
  4  9  2  0
  4  3  1  0
  5  4  1  0
  6  7  1  0
  6  5  2  0
  7  8  2  0
  8  9  1  0
 10 17  1  0
 10  2  1  0
 11 10  2  0
 13 14  1  0
 13 12  1  0
 14 15  1  6
 16 14  1  0
 16 17  1  1
 18 16  1  0
 19 18  2  0
 21 20  1  1
 21 22  1  0
 21 23  1  0
 23 24  1  6
 24 18  1  0
 25 23  1  0
 25 26  1  0
 27 25  2  0
M  END
$$$$
