FIT.pdb
     RDKit          3D

 27 27  0  0  1  0  0  0  0  0999 V2000
   20.6786  -10.5958    7.4529 N   0  0  0  0  0  0  0  0  0  0  0  0
   19.7558  -11.6196    7.0081 C   0  0  1  0  0  0  0  0  0  0  0  0
   20.1638  -12.0274    5.6086 C   0  0  0  0  0  0  0  0  0  0  0  0
   19.0845  -12.8729    5.0334 C   0  0  0  0  0  0  0  0  0  0  0  0
   19.2474  -14.2399    4.8932 C   0  0  0  0  0  0  0  0  0  0  0  0
   18.2628  -15.0475    4.3629 C   0  0  0  0  0  0  0  0  0  0  0  0
   17.0725  -14.5036    3.9527 C   0  0  0  0  0  0  0  0  0  0  0  0
   16.8981  -13.1531    4.0857 C   0  0  0  0  0  0  0  0  0  0  0  0
   17.8826  -12.3391    4.6169 C   0  0  0  0  0  0  0  0  0  0  0  0
   19.8128  -12.7694    7.9340 C   0  0  0  0  0  0  0  0  0  0  0  0
   20.8689  -13.0024    8.5921 O   0  0  0  0  0  0  0  0  0  0  0  0
   18.0849  -14.7977   12.8481 C   0  0  0  0  0  0  0  0  0  0  0  0
   18.5111  -15.3729   11.5184 C   0  0  0  0  0  0  0  0  0  0  0  0
   18.4078  -14.2646   10.4862 C   0  0  2  0  0  0  0  0  0  0  0  0
   17.0025  -13.7168   10.4193 C   0  0  0  0  0  0  0  0  0  0  0  0
   18.8246  -14.7181    9.1276 C   0  0  2  0  0  0  0  0  0  0  0  0
   18.7210  -13.6578    8.1379 N   0  0  0  0  0  0  0  0  0  0  0  0
   17.9469  -15.8784    8.7220 C   0  0  0  0  0  0  0  0  0  0  0  0
   16.7526  -15.6957    8.3956 O   0  0  0  0  0  0  0  0  0  0  0  0
   17.9416  -17.9590    5.8448 C   0  0  0  0  0  0  0  0  0  0  0  0
   18.0983  -18.9260    6.9697 C   0  0  1  0  0  0  0  0  0  0  0  0
   19.4067  -19.4139    6.9359 O   0  0  0  0  0  0  0  0  0  0  0  0
   17.7539  -18.3896    8.3066 C   0  0  2  0  0  0  0  0  0  0  0  0
   18.4572  -17.2027    8.7020 N   0  0  0  0  0  0  0  0  0  0  0  0
   17.6241  -19.4228    9.3777 C   0  0  0  0  0  0  0  0  0  0  0  0
   18.4186  -19.3208   10.4942 O   0  0  0  0  0  0  0  0  0  0  0  0
   16.8278  -20.3716    9.3111 O   0  0  0  0  0  0  0  0  0  0  0  0
  2  1  1  1
  3  2  1  0
  4  9  2  0
  4  3  1  0
  5  4  1  0
  6  7  1  0
  6  5  2  0
  7  8  2  0
  8  9  1  0
 10 17  1  0
 10  2  1  0
 11 10  2  0
 13 14  1  0
 13 12  1  0
 14 15  1  6
 16 14  1  0
 16 17  1  6
 18 16  1  0
 19 18  2  0
 21 20  1  6
 21 22  1  0
 21 23  1  0
 23 24  1  1
 24 18  1  0
 25 23  1  0
 25 26  1  0
 27 25  2  0
M  END
$$$$
