FIT.pdb
     RDKit          3D

 27 27  0  0  1  0  0  0  0  0999 V2000
   25.7266  -21.2477   -9.3321 N   0  0  0  0  0  0  0  0  0  0  0  0
   24.6815  -20.9441  -10.2877 C   0  0  1  0  0  0  0  0  0  0  0  0
   23.5732  -20.2307   -9.5433 C   0  0  0  0  0  0  0  0  0  0  0  0
   22.7736  -21.2458   -8.8080 C   0  0  0  0  0  0  0  0  0  0  0  0
   22.8516  -21.3545   -7.4307 C   0  0  0  0  0  0  0  0  0  0  0  0
   22.1211  -22.2870   -6.7238 C   0  0  0  0  0  0  0  0  0  0  0  0
   21.2813  -23.1479   -7.3829 C   0  0  0  0  0  0  0  0  0  0  0  0
   21.1946  -23.0513   -8.7449 C   0  0  0  0  0  0  0  0  0  0  0  0
   21.9252  -22.1178   -9.4582 C   0  0  0  0  0  0  0  0  0  0  0  0
   25.2307  -20.0944  -11.3642 C   0  0  0  0  0  0  0  0  0  0  0  0
   25.7523  -18.9751  -11.0854 O   0  0  0  0  0  0  0  0  0  0  0  0
   29.2384  -19.2690  -15.2298 C   0  0  0  0  0  0  0  0  0  0  0  0
   27.7701  -18.9450  -15.0886 C   0  0  0  0  0  0  0  0  0  0  0  0
   27.2045  -19.8470  -14.0065 C   0  0  2  0  0  0  0  0  0  0  0  0
   27.3758  -21.3021  -14.3709 C   0  0  0  0  0  0  0  0  0  0  0  0
   25.7627  -19.5727  -13.7399 C   0  0  2  0  0  0  0  0  0  0  0  0
   25.2089  -20.4678  -12.7364 N   0  0  0  0  0  0  0  0  0  0  0  0
   25.0004  -19.7278  -15.0344 C   0  0  0  0  0  0  0  0  0  0  0  0
   24.6803  -20.8610  -15.4584 O   0  0  0  0  0  0  0  0  0  0  0  0
   22.0342  -17.3791  -18.2988 C   0  0  0  0  0  0  0  0  0  0  0  0
   23.0037  -17.3310  -17.1661 C   0  0  1  0  0  0  0  0  0  0  0  0
   22.2997  -16.9701  -16.0149 O   0  0  0  0  0  0  0  0  0  0  0  0
   23.7829  -18.5733  -16.9581 C   0  0  2  0  0  0  0  0  0  0  0  0
   24.6297  -18.5913  -15.7995 N   0  0  0  0  0  0  0  0  0  0  0  0
   24.4077  -19.1310  -18.1951 C   0  0  0  0  0  0  0  0  0  0  0  0
   23.7467  -20.1215  -18.8807 O   0  0  0  0  0  0  0  0  0  0  0  0
   25.4980  -18.7398  -18.6391 O   0  0  0  0  0  0  0  0  0  0  0  0
  2  1  1  1
  3  2  1  0
  4  9  2  0
  4  3  1  0
  5  4  1  0
  6  7  1  0
  6  5  2  0
  7  8  2  0
  8  9  1  0
 10 17  1  0
 10  2  1  0
 11 10  2  0
 13 14  1  0
 13 12  1  0
 14 15  1  6
 16 14  1  0
 16 17  1  1
 18 16  1  0
 19 18  2  0
 21 20  1  6
 21 22  1  0
 21 23  1  0
 23 24  1  1
 24 18  1  0
 25 23  1  0
 25 26  1  0
 27 25  2  0
M  END
$$$$
