FIT.pdb
     RDKit          3D

 27 27  0  0  1  0  0  0  0  0999 V2000
   23.1944  -32.9710  -15.7712 N   0  0  0  0  0  0  0  0  0  0  0  0
   22.3030  -33.1698  -14.6472 C   0  0  1  0  0  0  0  0  0  0  0  0
   22.1140  -34.6613  -14.4707 C   0  0  0  0  0  0  0  0  0  0  0  0
   21.2014  -35.1478  -15.5391 C   0  0  0  0  0  0  0  0  0  0  0  0
   21.6800  -35.8970  -16.5995 C   0  0  0  0  0  0  0  0  0  0  0  0
   20.8558  -36.3606  -17.6038 C   0  0  0  0  0  0  0  0  0  0  0  0
   19.5128  -36.0845  -17.5753 C   0  0  0  0  0  0  0  0  0  0  0  0
   19.0262  -35.3446  -16.5324 C   0  0  0  0  0  0  0  0  0  0  0  0
   19.8488  -34.8774  -15.5229 C   0  0  0  0  0  0  0  0  0  0  0  0
   22.8940  -32.5627  -13.4371 C   0  0  0  0  0  0  0  0  0  0  0  0
   24.1517  -32.4876  -13.3143 O   0  0  0  0  0  0  0  0  0  0  0  0
   20.7901  -28.2365  -10.8998 C   0  0  0  0  0  0  0  0  0  0  0  0
   21.7036  -29.2275  -11.5812 C   0  0  0  0  0  0  0  0  0  0  0  0
   21.9652  -30.3572  -10.6015 C   0  0  2  0  0  0  0  0  0  0  0  0
   22.6695  -29.8499   -9.3662 C   0  0  0  0  0  0  0  0  0  0  0  0
   22.7689  -31.4569  -11.2098 C   0  0  2  0  0  0  0  0  0  0  0  0
   22.1131  -32.0413  -12.3687 N   0  0  0  0  0  0  0  0  0  0  0  0
   22.9908  -32.5215  -10.1617 C   0  0  0  0  0  0  0  0  0  0  0  0
   22.1318  -33.4082   -9.9563 O   0  0  0  0  0  0  0  0  0  0  0  0
   26.9854  -32.8931   -8.2188 C   0  0  0  0  0  0  0  0  0  0  0  0
   25.9962  -33.9693   -8.5165 C   0  0  1  0  0  0  0  0  0  0  0  0
   26.2560  -35.0394   -7.6572 O   0  0  0  0  0  0  0  0  0  0  0  0
   24.5775  -33.5498   -8.4468 C   0  0  2  0  0  0  0  0  0  0  0  0
   24.1791  -32.5402   -9.3858 N   0  0  0  0  0  0  0  0  0  0  0  0
   24.0533  -33.3537   -7.0617 C   0  0  0  0  0  0  0  0  0  0  0  0
   24.0688  -34.4177   -6.1923 O   0  0  0  0  0  0  0  0  0  0  0  0
   23.6057  -32.2712   -6.6535 O   0  0  0  0  0  0  0  0  0  0  0  0
  2  1  1  6
  3  2  1  0
  4  9  2  0
  4  3  1  0
  5  4  1  0
  6  7  1  0
  6  5  2  0
  7  8  2  0
  8  9  1  0
 10 17  1  0
 10  2  1  0
 11 10  2  0
 13 14  1  0
 13 12  1  0
 14 15  1  1
 16 14  1  0
 16 17  1  6
 18 16  1  0
 19 18  2  0
 21 20  1  1
 21 22  1  0
 21 23  1  0
 23 24  1  6
 24 18  1  0
 25 23  1  0
 25 26  1  0
 27 25  2  0
M  END
$$$$
