FIT.pdb
     RDKit          3D

 27 27  0  0  1  0  0  0  0  0999 V2000
   24.5158  -10.6013  -17.9498 N   0  0  0  0  0  0  0  0  0  0  0  0
   24.2462  -10.1013  -16.6175 C   0  0  1  0  0  0  0  0  0  0  0  0
   25.4355   -9.2670  -16.1920 C   0  0  0  0  0  0  0  0  0  0  0  0
   26.6347  -10.1452  -16.1545 C   0  0  0  0  0  0  0  0  0  0  0  0
   27.6794   -9.9644  -17.0437 C   0  0  0  0  0  0  0  0  0  0  0  0
   28.8031  -10.7644  -17.0309 C   0  0  0  0  0  0  0  0  0  0  0  0
   28.9149  -11.7807  -16.1169 C   0  0  0  0  0  0  0  0  0  0  0  0
   27.8890  -11.9706  -15.2317 C   0  0  0  0  0  0  0  0  0  0  0  0
   26.7601  -11.1709  -15.2406 C   0  0  0  0  0  0  0  0  0  0  0  0
   23.0099   -9.2929  -16.6361 C   0  0  0  0  0  0  0  0  0  0  0  0
   22.5947   -8.7933  -17.7226 O   0  0  0  0  0  0  0  0  0  0  0  0
   19.1933  -11.3526  -14.6235 C   0  0  0  0  0  0  0  0  0  0  0  0
   19.4774  -10.2960  -15.6646 C   0  0  0  0  0  0  0  0  0  0  0  0
   19.8488   -9.0197  -14.9314 C   0  0  2  0  0  0  0  0  0  0  0  0
   18.6635   -8.0903  -14.8287 C   0  0  0  0  0  0  0  0  0  0  0  0
   20.9815   -8.3025  -15.5855 C   0  0  2  0  0  0  0  0  0  0  0  0
   22.2337   -9.0333  -15.4729 N   0  0  0  0  0  0  0  0  0  0  0  0
   21.1254   -6.9461  -14.9368 C   0  0  0  0  0  0  0  0  0  0  0  0
   21.4032   -6.8430  -13.7209 O   0  0  0  0  0  0  0  0  0  0  0  0
   23.2248   -3.8673  -16.2219 C   0  0  0  0  0  0  0  0  0  0  0  0
   21.8053   -3.4626  -16.0063 C   0  0  1  0  0  0  0  0  0  0  0  0
   21.2288   -3.2391  -17.2589 O   0  0  0  0  0  0  0  0  0  0  0  0
   21.0015   -4.4102  -15.2006 C   0  0  2  0  0  0  0  0  0  0  0  0
   20.9487   -5.7575  -15.6921 N   0  0  0  0  0  0  0  0  0  0  0  0
   19.6929   -3.8690  -14.7248 C   0  0  0  0  0  0  0  0  0  0  0  0
   19.6948   -2.8576  -13.7946 O   0  0  0  0  0  0  0  0  0  0  0  0
   18.5983   -4.2868  -15.1325 O   0  0  0  0  0  0  0  0  0  0  0  0
  2  1  1  6
  3  2  1  0
  4  9  2  0
  4  3  1  0
  5  4  1  0
  6  7  1  0
  6  5  2  0
  7  8  2  0
  8  9  1  0
 10 17  1  0
 10  2  1  0
 11 10  2  0
 13 14  1  0
 13 12  1  0
 14 15  1  6
 16 14  1  0
 16 17  1  1
 18 16  1  0
 19 18  2  0
 21 20  1  6
 21 22  1  0
 21 23  1  0
 23 24  1  6
 24 18  1  0
 25 23  1  0
 25 26  1  0
 27 25  2  0
M  END
$$$$
