FIT.pdb
     RDKit          3D

 27 27  0  0  1  0  0  0  0  0999 V2000
   23.2205  -20.5156  -14.7058 N   0  0  0  0  0  0  0  0  0  0  0  0
   22.4465  -19.9651  -13.6124 C   0  0  1  0  0  0  0  0  0  0  0  0
   21.0238  -19.7923  -14.0996 C   0  0  0  0  0  0  0  0  0  0  0  0
   21.0173  -18.7618  -15.1713 C   0  0  0  0  0  0  0  0  0  0  0  0
   20.8294  -19.1121  -16.4967 C   0  0  0  0  0  0  0  0  0  0  0  0
   20.8190  -18.1767  -17.5106 C   0  0  0  0  0  0  0  0  0  0  0  0
   20.9985  -16.8477  -17.2235 C   0  0  0  0  0  0  0  0  0  0  0  0
   21.1854  -16.4874  -15.9169 C   0  0  0  0  0  0  0  0  0  0  0  0
   21.1967  -17.4219  -14.8968 C   0  0  0  0  0  0  0  0  0  0  0  0
   22.5042  -20.8840  -12.4571 C   0  0  0  0  0  0  0  0  0  0  0  0
   22.4394  -22.1353  -12.6376 O   0  0  0  0  0  0  0  0  0  0  0  0
   25.1075  -19.5915   -7.6894 C   0  0  0  0  0  0  0  0  0  0  0  0
   23.8559  -19.7625   -8.5172 C   0  0  0  0  0  0  0  0  0  0  0  0
   23.9122  -21.1402   -9.1522 C   0  0  2  0  0  0  0  0  0  0  0  0
   25.1824  -21.3174   -9.9488 C   0  0  0  0  0  0  0  0  0  0  0  0
   22.7377  -21.4038  -10.0334 C   0  0  2  0  0  0  0  0  0  0  0  0
   22.6320  -20.4357  -11.1133 N   0  0  0  0  0  0  0  0  0  0  0  0
   21.4873  -21.3589   -9.1875 C   0  0  0  0  0  0  0  0  0  0  0  0
   20.8026  -20.3142   -9.1098 O   0  0  0  0  0  0  0  0  0  0  0  0
   18.3517  -22.1705   -9.6375 C   0  0  0  0  0  0  0  0  0  0  0  0
   18.6450  -23.0161   -8.4442 C   0  0  1  0  0  0  0  0  0  0  0  0
   18.7082  -24.3460   -8.8668 O   0  0  0  0  0  0  0  0  0  0  0  0
   19.8582  -22.6292   -7.6879 C   0  0  2  0  0  0  0  0  0  0  0  0
   21.0604  -22.5013   -8.4613 N   0  0  0  0  0  0  0  0  0  0  0  0
   20.0296  -23.3344   -6.3821 C   0  0  0  0  0  0  0  0  0  0  0  0
   19.0178  -23.2641   -5.4551 O   0  0  0  0  0  0  0  0  0  0  0  0
   21.0439  -23.9873   -6.0926 O   0  0  0  0  0  0  0  0  0  0  0  0
  2  1  1  6
  3  2  1  0
  4  9  2  0
  4  3  1  0
  5  4  1  0
  6  7  1  0
  6  5  2  0
  7  8  2  0
  8  9  1  0
 10 17  1  0
 10  2  1  0
 11 10  2  0
 13 14  1  0
 13 12  1  0
 14 15  1  6
 16 14  1  0
 16 17  1  6
 18 16  1  0
 19 18  2  0
 21 20  1  6
 21 22  1  0
 21 23  1  0
 23 24  1  6
 24 18  1  0
 25 23  1  0
 25 26  1  0
 27 25  2  0
M  END
$$$$
