FIT.pdb
     RDKit          3D

 27 27  0  0  1  0  0  0  0  0999 V2000
   28.6305  -20.9802  -16.4392 N   0  0  0  0  0  0  0  0  0  0  0  0
   27.9457  -20.0334  -15.5835 C   0  0  1  0  0  0  0  0  0  0  0  0
   27.1370  -19.1136  -16.4731 C   0  0  0  0  0  0  0  0  0  0  0  0
   27.8533  -17.8149  -16.5790 C   0  0  0  0  0  0  0  0  0  0  0  0
   27.6710  -16.8206  -15.6340 C   0  0  0  0  0  0  0  0  0  0  0  0
   28.3226  -15.6070  -15.7082 C   0  0  0  0  0  0  0  0  0  0  0  0
   29.1857  -15.3506  -16.7426 C   0  0  0  0  0  0  0  0  0  0  0  0
   29.3752  -16.3252  -17.6840 C   0  0  0  0  0  0  0  0  0  0  0  0
   28.7241  -17.5438  -17.6139 C   0  0  0  0  0  0  0  0  0  0  0  0
   27.0729  -20.7635  -14.6414 C   0  0  0  0  0  0  0  0  0  0  0  0
   26.5501  -21.8643  -14.9838 O   0  0  0  0  0  0  0  0  0  0  0  0
   25.4434  -21.2569   -8.7314 C   0  0  0  0  0  0  0  0  0  0  0  0
   25.0834  -21.5364  -10.1713 C   0  0  0  0  0  0  0  0  0  0  0  0
   26.1071  -20.8324  -11.0437 C   0  0  2  0  0  0  0  0  0  0  0  0
   26.1608  -19.3563  -10.7310 C   0  0  0  0  0  0  0  0  0  0  0  0
   25.8318  -21.0178  -12.4981 C   0  0  2  0  0  0  0  0  0  0  0  0
   26.7747  -20.2912  -13.3333 N   0  0  0  0  0  0  0  0  0  0  0  0
   24.4280  -20.5389  -12.7826 C   0  0  0  0  0  0  0  0  0  0  0  0
   24.1524  -19.3182  -12.7728 O   0  0  0  0  0  0  0  0  0  0  0  0
   22.5738  -21.1118  -15.8869 C   0  0  0  0  0  0  0  0  0  0  0  0
   21.6398  -21.5485  -14.8089 C   0  0  1  0  0  0  0  0  0  0  0  0
   21.4810  -22.9323  -14.9145 O   0  0  0  0  0  0  0  0  0  0  0  0
   22.0383  -21.1514  -13.4389 C   0  0  2  0  0  0  0  0  0  0  0  0
   23.3892  -21.4632  -13.0677 N   0  0  0  0  0  0  0  0  0  0  0  0
   21.0200  -21.4417  -12.3851 C   0  0  0  0  0  0  0  0  0  0  0  0
   19.7844  -20.8477  -12.4786 O   0  0  0  0  0  0  0  0  0  0  0  0
   21.2339  -22.1994  -11.4265 O   0  0  0  0  0  0  0  0  0  0  0  0
  2  1  1  6
  3  2  1  0
  4  9  2  0
  4  3  1  0
  5  4  1  0
  6  7  1  0
  6  5  2  0
  7  8  2  0
  8  9  1  0
 10 17  1  0
 10  2  1  0
 11 10  2  0
 13 14  1  0
 13 12  1  0
 14 15  1  1
 16 14  1  0
 16 17  1  6
 18 16  1  0
 19 18  2  0
 21 20  1  6
 21 22  1  0
 21 23  1  0
 23 24  1  1
 24 18  1  0
 25 23  1  0
 25 26  1  0
 27 25  2  0
M  END
$$$$
