FIT.pdb
     RDKit          3D

 27 27  0  0  1  0  0  0  0  0999 V2000
   28.3184  -20.6788  -15.5912 N   0  0  0  0  0  0  0  0  0  0  0  0
   27.6280  -19.8134  -14.6574 C   0  0  1  0  0  0  0  0  0  0  0  0
   26.7830  -18.8506  -15.4639 C   0  0  0  0  0  0  0  0  0  0  0  0
   27.6413  -17.7108  -15.8820 C   0  0  0  0  0  0  0  0  0  0  0  0
   28.2555  -17.6974  -17.1219 C   0  0  0  0  0  0  0  0  0  0  0  0
   29.0567  -16.6531  -17.5348 C   0  0  0  0  0  0  0  0  0  0  0  0
   29.2686  -15.5791  -16.7086 C   0  0  0  0  0  0  0  0  0  0  0  0
   28.6673  -15.5794  -15.4797 C   0  0  0  0  0  0  0  0  0  0  0  0
   27.8630  -16.6244  -15.0612 C   0  0  0  0  0  0  0  0  0  0  0  0
   26.7887  -20.6307  -13.7573 C   0  0  0  0  0  0  0  0  0  0  0  0
   26.2966  -21.7229  -14.1664 O   0  0  0  0  0  0  0  0  0  0  0  0
   26.5592  -20.5015   -8.1600 C   0  0  0  0  0  0  0  0  0  0  0  0
   26.6022  -21.0133   -9.5803 C   0  0  0  0  0  0  0  0  0  0  0  0
   25.3418  -20.5341  -10.2776 C   0  0  2  0  0  0  0  0  0  0  0  0
   24.1109  -21.1387   -9.6461 C   0  0  0  0  0  0  0  0  0  0  0  0
   25.3506  -20.8461  -11.7363 C   0  0  2  0  0  0  0  0  0  0  0  0
   26.4904  -20.2544  -12.4185 N   0  0  0  0  0  0  0  0  0  0  0  0
   24.0694  -20.3252  -12.3432 C   0  0  0  0  0  0  0  0  0  0  0  0
   24.0618  -19.2721  -13.0193 O   0  0  0  0  0  0  0  0  0  0  0  0
   22.7289  -20.2738  -15.0244 C   0  0  0  0  0  0  0  0  0  0  0  0
   21.6238  -20.9730  -14.3067 C   0  0  1  0  0  0  0  0  0  0  0  0
   21.6911  -22.3292  -14.6343 O   0  0  0  0  0  0  0  0  0  0  0  0
   21.6053  -20.7697  -12.8397 C   0  0  2  0  0  0  0  0  0  0  0  0
   22.8447  -21.0188  -12.1603 N   0  0  0  0  0  0  0  0  0  0  0  0
   20.3968  -21.3142  -12.1507 C   0  0  0  0  0  0  0  0  0  0  0  0
   19.1592  -20.8401  -12.5137 O   0  0  0  0  0  0  0  0  0  0  0  0
   20.4547  -22.1806  -11.2647 O   0  0  0  0  0  0  0  0  0  0  0  0
  2  1  1  6
  3  2  1  0
  4  9  2  0
  4  3  1  0
  5  4  1  0
  6  7  1  0
  6  5  2  0
  7  8  2  0
  8  9  1  0
 10 17  1  0
 10  2  1  0
 11 10  2  0
 13 14  1  0
 13 12  1  0
 14 15  1  1
 16 14  1  0
 16 17  1  6
 18 16  1  0
 19 18  2  0
 21 20  1  1
 21 22  1  0
 21 23  1  0
 23 24  1  1
 24 18  1  0
 25 23  1  0
 25 26  1  0
 27 25  2  0
M  END
$$$$
