FIT.pdb
     RDKit          3D

 27 27  0  0  1  0  0  0  0  0999 V2000
   28.3708  -20.5614  -16.3793 N   0  0  0  0  0  0  0  0  0  0  0  0
   27.7252  -19.6920  -15.4176 C   0  0  1  0  0  0  0  0  0  0  0  0
   26.8686  -18.7112  -16.1895 C   0  0  0  0  0  0  0  0  0  0  0  0
   27.6926  -17.5135  -16.5011 C   0  0  0  0  0  0  0  0  0  0  0  0
   28.2791  -17.3549  -17.7444 C   0  0  0  0  0  0  0  0  0  0  0  0
   29.0481  -16.2540  -18.0599 C   0  0  0  0  0  0  0  0  0  0  0  0
   29.2548  -15.2683  -17.1290 C   0  0  0  0  0  0  0  0  0  0  0  0
   28.6806  -15.4125  -15.8956 C   0  0  0  0  0  0  0  0  0  0  0  0
   27.9086  -16.5147  -15.5744 C   0  0  0  0  0  0  0  0  0  0  0  0
   26.9041  -20.5026  -14.4951 C   0  0  0  0  0  0  0  0  0  0  0  0
   26.3658  -21.5745  -14.8998 O   0  0  0  0  0  0  0  0  0  0  0  0
   25.4493  -21.3524   -8.5642 C   0  0  0  0  0  0  0  0  0  0  0  0
   25.0821  -21.5881  -10.0100 C   0  0  0  0  0  0  0  0  0  0  0  0
   26.0320  -20.7667  -10.8630 C   0  0  2  0  0  0  0  0  0  0  0  0
   25.9500  -19.3018  -10.5066 C   0  0  0  0  0  0  0  0  0  0  0  0
   25.7685  -20.9339  -12.3217 C   0  0  2  0  0  0  0  0  0  0  0  0
   26.6740  -20.1418  -13.1386 N   0  0  0  0  0  0  0  0  0  0  0  0
   24.3423  -20.5213  -12.5991 C   0  0  0  0  0  0  0  0  0  0  0  0
   24.0154  -19.3133  -12.6132 O   0  0  0  0  0  0  0  0  0  0  0  0
   21.8746  -23.1563  -14.9822 C   0  0  0  0  0  0  0  0  0  0  0  0
   21.7730  -21.6864  -14.7491 C   0  0  1  0  0  0  0  0  0  0  0  0
   20.5198  -21.2667  -15.2014 O   0  0  0  0  0  0  0  0  0  0  0  0
   22.0172  -21.2575  -13.3527 C   0  0  2  0  0  0  0  0  0  0  0  0
   23.3404  -21.4947  -12.8501 N   0  0  0  0  0  0  0  0  0  0  0  0
   20.9186  -21.5920  -12.3972 C   0  0  0  0  0  0  0  0  0  0  0  0
   19.6336  -21.2199  -12.7109 O   0  0  0  0  0  0  0  0  0  0  0  0
   21.1090  -22.1958  -11.3304 O   0  0  0  0  0  0  0  0  0  0  0  0
  2  1  1  6
  3  2  1  0
  4  9  2  0
  4  3  1  0
  5  4  1  0
  6  7  1  0
  6  5  2  0
  7  8  2  0
  8  9  1  0
 10 17  1  0
 10  2  1  0
 11 10  2  0
 13 14  1  0
 13 12  1  0
 14 15  1  1
 16 14  1  0
 16 17  1  6
 18 16  1  0
 19 18  2  0
 21 20  1  1
 21 22  1  0
 21 23  1  0
 23 24  1  1
 24 18  1  0
 25 23  1  0
 25 26  1  0
 27 25  2  0
M  END
$$$$
