VGM.pdb
     RDKit          3D

 20 19  0  0  1  0  0  0  0  0999 V2000
    8.1943  -12.5864   18.4625 C   0  0  0  0  0  0  0  0  0  0  0  0
    8.4469  -13.2941   19.7646 C   0  0  1  0  0  0  0  0  0  0  0  0
    7.6786  -12.6632   20.9050 C   0  0  0  0  0  0  0  0  0  0  0  0
    8.0741  -14.7490   19.5820 C   0  0  2  0  0  0  0  0  0  0  0  0
    6.6559  -14.9113   19.3772 N   0  0  0  0  0  0  0  0  0  0  0  0
    8.4852  -15.5768   20.7359 C   0  0  0  0  0  0  0  0  0  0  0  0
    9.6879  -15.8650   20.9268 O   0  0  0  0  0  0  0  0  0  0  0  0
    7.5306  -16.0807   21.6767 N   0  0  0  0  0  0  0  0  0  0  0  0
    7.9258  -16.8946   22.7973 C   0  0  0  0  0  0  0  0  0  0  0  0
    8.7011  -16.1616   23.8141 C   0  0  0  0  0  0  0  0  0  0  0  0
    9.8636  -15.7184   23.4924 O   0  0  0  0  0  0  0  0  0  0  0  0
    5.2601  -12.4797   26.5696 C   0  0  0  0  0  0  0  0  0  0  0  0
    6.9025  -11.9216   26.9578 S   0  0  0  0  0  0  0  0  0  0  0  0
    8.2513  -12.8984   26.4151 C   0  0  0  0  0  0  0  0  0  0  0  0
    8.4517  -14.2823   26.7796 C   0  0  0  0  0  0  0  0  0  0  0  0
    9.2812  -15.2821   26.0810 C   0  0  2  0  0  0  0  0  0  0  0  0
    8.2792  -15.9020   25.1149 N   0  0  0  0  0  0  0  0  0  0  0  0
    9.7254  -16.4539   26.9062 C   0  0  0  0  0  0  0  0  0  0  0  0
   10.6799  -16.4189   27.6478 O   0  0  0  0  0  0  0  0  0  0  0  0
    9.0116  -17.6758   26.8343 O   0  0  0  0  0  0  0  0  0  0  0  0
  2  1  1  6
  3  2  1  0
  4  2  1  0
  4  5  1  1
  6  8  1  0
  6  4  1  0
  7  6  2  0
  9 10  1  0
  9  8  1  0
 10 17  1  0
 11 10  2  0
 12 13  1  0
 13 14  1  0
 15 14  1  0
 16 15  1  1
 17 16  1  0
 18 16  1  0
 18 20  1  0
 19 18  2  0
M  END
$$$$
