VGM.pdb
     RDKit          3D

 20 19  0  0  1  0  0  0  0  0999 V2000
    8.4228  -12.3001   18.0382 C   0  0  0  0  0  0  0  0  0  0  0  0
    7.8023  -13.2070   19.0642 C   0  0  1  0  0  0  0  0  0  0  0  0
    6.7703  -14.1269   18.4498 C   0  0  0  0  0  0  0  0  0  0  0  0
    8.9158  -13.9870   19.7283 C   0  0  2  0  0  0  0  0  0  0  0  0
    9.5518  -14.8938   18.8049 N   0  0  0  0  0  0  0  0  0  0  0  0
    8.4352  -14.7570   20.8952 C   0  0  0  0  0  0  0  0  0  0  0  0
    7.9885  -14.1776   21.9105 O   0  0  0  0  0  0  0  0  0  0  0  0
    8.4612  -16.1886   20.9127 N   0  0  0  0  0  0  0  0  0  0  0  0
    8.0132  -16.9421   22.0554 C   0  0  0  0  0  0  0  0  0  0  0  0
    8.5304  -16.4321   23.3378 C   0  0  0  0  0  0  0  0  0  0  0  0
    9.8004  -16.2851   23.4680 O   0  0  0  0  0  0  0  0  0  0  0  0
    6.4379  -10.6495   27.3776 C   0  0  0  0  0  0  0  0  0  0  0  0
    6.1718  -12.3924   27.1514 S   0  0  0  0  0  0  0  0  0  0  0  0
    7.5039  -13.3543   26.5443 C   0  0  0  0  0  0  0  0  0  0  0  0
    7.4497  -14.7846   26.3453 C   0  0  0  0  0  0  0  0  0  0  0  0
    8.4683  -15.6402   25.7080 C   0  0  2  0  0  0  0  0  0  0  0  0
    7.7527  -16.0894   24.4401 N   0  0  0  0  0  0  0  0  0  0  0  0
    8.7640  -16.9346   26.4067 C   0  0  0  0  0  0  0  0  0  0  0  0
    8.1605  -17.9593   26.1878 O   0  0  0  0  0  0  0  0  0  0  0  0
    9.7955  -16.9908   27.3766 O   0  0  0  0  0  0  0  0  0  0  0  0
  2  1  1  6
  3  2  1  0
  4  2  1  0
  4  5  1  6
  6  8  1  0
  6  4  1  0
  7  6  2  0
  9 10  1  0
  9  8  1  0
 10 17  1  0
 11 10  2  0
 12 13  1  0
 13 14  1  0
 15 14  1  0
 16 15  1  1
 17 16  1  0
 18 16  1  0
 18 20  1  0
 19 18  2  0
M  END
$$$$
