VGM.pdb
     RDKit          3D

 20 19  0  0  1  0  0  0  0  0999 V2000
    7.5325  -12.3686   19.7376 C   0  0  0  0  0  0  0  0  0  0  0  0
    7.7635  -13.5932   18.8967 C   0  0  1  0  0  0  0  0  0  0  0  0
    8.3392  -13.2439   17.5420 C   0  0  0  0  0  0  0  0  0  0  0  0
    8.6792  -14.5192   19.6670 C   0  0  2  0  0  0  0  0  0  0  0  0
    8.8110  -15.7982   19.0142 N   0  0  0  0  0  0  0  0  0  0  0  0
    8.2102  -14.7388   21.0517 C   0  0  0  0  0  0  0  0  0  0  0  0
    8.1470  -13.7929   21.8687 O   0  0  0  0  0  0  0  0  0  0  0  0
    7.8118  -16.0344   21.5131 N   0  0  0  0  0  0  0  0  0  0  0  0
    7.3448  -16.2508   22.8583 C   0  0  0  0  0  0  0  0  0  0  0  0
    8.3584  -15.9607   23.8881 C   0  0  0  0  0  0  0  0  0  0  0  0
    9.5731  -15.7731   23.5127 O   0  0  0  0  0  0  0  0  0  0  0  0
    5.5406  -12.1347   27.0614 C   0  0  0  0  0  0  0  0  0  0  0  0
    7.2731  -11.7470   27.1495 S   0  0  0  0  0  0  0  0  0  0  0  0
    8.4052  -12.8810   26.4420 C   0  0  0  0  0  0  0  0  0  0  0  0
    8.5576  -14.2525   26.8710 C   0  0  0  0  0  0  0  0  0  0  0  0
    9.2317  -15.3479   26.1489 C   0  0  2  0  0  0  0  0  0  0  0  0
    8.1135  -15.8702   25.2553 N   0  0  0  0  0  0  0  0  0  0  0  0
    9.5947  -16.5477   26.9735 C   0  0  0  0  0  0  0  0  0  0  0  0
   10.5597  -16.5850   27.7012 O   0  0  0  0  0  0  0  0  0  0  0  0
    8.7863  -17.7101   26.9177 O   0  0  0  0  0  0  0  0  0  0  0  0
  2  1  1  1
  3  2  1  0
  4  2  1  0
  4  5  1  6
  6  8  1  0
  6  4  1  0
  7  6  2  0
  9 10  1  0
  9  8  1  0
 10 17  1  0
 11 10  2  0
 12 13  1  0
 13 14  1  0
 15 14  1  0
 16 15  1  1
 17 16  1  0
 18 16  1  0
 18 20  1  0
 19 18  2  0
M  END
$$$$
