VGM.pdb
     RDKit          3D

 20 19  0  0  1  0  0  0  0  0999 V2000
    9.1863  -13.1027   19.4871 C   0  0  0  0  0  0  0  0  0  0  0  0
    7.7771  -13.4314   19.8950 C   0  0  1  0  0  0  0  0  0  0  0  0
    6.8002  -13.2216   18.7590 C   0  0  0  0  0  0  0  0  0  0  0  0
    7.7579  -14.8622   20.3864 C   0  0  2  0  0  0  0  0  0  0  0  0
    6.4111  -15.3632   20.5076 N   0  0  0  0  0  0  0  0  0  0  0  0
    8.4391  -15.0110   21.6901 C   0  0  0  0  0  0  0  0  0  0  0  0
    7.9704  -14.4879   22.7258 O   0  0  0  0  0  0  0  0  0  0  0  0
    9.6559  -15.7543   21.8211 N   0  0  0  0  0  0  0  0  0  0  0  0
   10.6833  -15.3702   22.7546 C   0  0  0  0  0  0  0  0  0  0  0  0
   10.3250  -15.6211   24.1620 C   0  0  0  0  0  0  0  0  0  0  0  0
   11.2298  -15.4584   25.0600 O   0  0  0  0  0  0  0  0  0  0  0  0
    6.6728  -11.1357   26.8070 C   0  0  0  0  0  0  0  0  0  0  0  0
    6.5371  -12.7878   26.1654 S   0  0  0  0  0  0  0  0  0  0  0  0
    7.5961  -14.0156   26.8283 C   0  0  0  0  0  0  0  0  0  0  0  0
    7.6617  -15.3775   26.3498 C   0  0  0  0  0  0  0  0  0  0  0  0
    8.8716  -16.1879   26.1153 C   0  0  2  0  0  0  0  0  0  0  0  0
    9.0722  -16.0257   24.6136 N   0  0  0  0  0  0  0  0  0  0  0  0
    8.7063  -17.6704   26.2767 C   0  0  0  0  0  0  0  0  0  0  0  0
    8.5638  -18.2088   27.3500 O   0  0  0  0  0  0  0  0  0  0  0  0
    8.7138  -18.5076   25.1335 O   0  0  0  0  0  0  0  0  0  0  0  0
  2  1  1  6
  3  2  1  0
  4  2  1  0
  4  5  1  1
  6  8  1  0
  6  4  1  0
  7  6  2  0
  9 10  1  0
  9  8  1  0
 10 17  1  0
 11 10  2  0
 12 13  1  0
 13 14  1  0
 15 14  1  0
 16 15  1  6
 17 16  1  0
 18 16  1  0
 18 20  1  0
 19 18  2  0
M  END
$$$$
