VGM.pdb
     RDKit          3D

 20 19  0  0  1  0  0  0  0  0999 V2000
    8.9800  -12.6998   20.1148 C   0  0  0  0  0  0  0  0  0  0  0  0
    8.1815  -13.2854   18.9835 C   0  0  1  0  0  0  0  0  0  0  0  0
    8.4400  -12.5618   17.6803 C   0  0  0  0  0  0  0  0  0  0  0  0
    8.5296  -14.7542   18.8813 C   0  0  2  0  0  0  0  0  0  0  0  0
    7.9501  -15.3560   17.7060 N   0  0  0  0  0  0  0  0  0  0  0  0
    8.0882  -15.5137   20.0705 C   0  0  0  0  0  0  0  0  0  0  0  0
    6.8728  -15.7074   20.2973 O   0  0  0  0  0  0  0  0  0  0  0  0
    9.0266  -16.0552   21.0067 N   0  0  0  0  0  0  0  0  0  0  0  0
    8.5998  -16.7502   22.1938 C   0  0  0  0  0  0  0  0  0  0  0  0
    8.7697  -15.9655   23.4297 C   0  0  0  0  0  0  0  0  0  0  0  0
    9.5499  -14.9447   23.4016 O   0  0  0  0  0  0  0  0  0  0  0  0
    6.2067  -10.8411   27.1299 C   0  0  0  0  0  0  0  0  0  0  0  0
    6.6703  -12.2692   26.1784 S   0  0  0  0  0  0  0  0  0  0  0  0
    6.6672  -13.8264   26.9805 C   0  0  0  0  0  0  0  0  0  0  0  0
    7.1315  -15.0537   26.3752 C   0  0  0  0  0  0  0  0  0  0  0  0
    8.4733  -15.3325   25.8298 C   0  0  2  0  0  0  0  0  0  0  0  0
    8.1499  -16.2359   24.6462 N   0  0  0  0  0  0  0  0  0  0  0  0
    9.3587  -16.1939   26.6815 C   0  0  0  0  0  0  0  0  0  0  0  0
    9.3315  -17.4026   26.6555 O   0  0  0  0  0  0  0  0  0  0  0  0
   10.2824  -15.5907   27.5706 O   0  0  0  0  0  0  0  0  0  0  0  0
  2  1  1  1
  3  2  1  0
  4  2  1  0
  4  5  1  6
  6  8  1  0
  6  4  1  0
  7  6  2  0
  9 10  1  0
  9  8  1  0
 10 17  1  0
 11 10  2  0
 12 13  1  0
 13 14  1  0
 15 14  1  0
 16 15  1  1
 17 16  1  0
 18 16  1  0
 18 20  1  0
 19 18  2  0
M  END
$$$$
