VGM.pdb
     RDKit          3D

 20 19  0  0  1  0  0  0  0  0999 V2000
    7.4695  -12.6643   19.1545 C   0  0  0  0  0  0  0  0  0  0  0  0
    8.1221  -13.3792   20.3048 C   0  0  1  0  0  0  0  0  0  0  0  0
    7.5676  -12.9235   21.6366 C   0  0  0  0  0  0  0  0  0  0  0  0
    7.9239  -14.8652   20.1003 C   0  0  2  0  0  0  0  0  0  0  0  0
    6.5257  -15.2062   20.0101 N   0  0  0  0  0  0  0  0  0  0  0  0
    8.5382  -15.6618   21.1837 C   0  0  0  0  0  0  0  0  0  0  0  0
    7.8380  -16.1643   22.0911 O   0  0  0  0  0  0  0  0  0  0  0  0
    9.9507  -15.8896   21.2401 N   0  0  0  0  0  0  0  0  0  0  0  0
   10.5446  -16.7298   22.2480 C   0  0  0  0  0  0  0  0  0  0  0  0
   10.4341  -16.1826   23.6120 C   0  0  0  0  0  0  0  0  0  0  0  0
   11.5064  -16.0635   24.3102 O   0  0  0  0  0  0  0  0  0  0  0  0
    6.6703  -11.0835   26.0334 C   0  0  0  0  0  0  0  0  0  0  0  0
    6.3580  -12.5776   26.9442 S   0  0  0  0  0  0  0  0  0  0  0  0
    7.6042  -13.8086   26.9544 C   0  0  0  0  0  0  0  0  0  0  0  0
    8.1475  -14.4256   25.7660 C   0  0  0  0  0  0  0  0  0  0  0  0
    9.3163  -15.3207   25.6752 C   0  0  2  0  0  0  0  0  0  0  0  0
    9.2512  -15.7761   24.2226 N   0  0  0  0  0  0  0  0  0  0  0  0
    9.2139  -16.6084   26.4386 C   0  0  0  0  0  0  0  0  0  0  0  0
    9.4034  -16.6897   27.6301 O   0  0  0  0  0  0  0  0  0  0  0  0
    8.8809  -17.8054   25.7574 O   0  0  0  0  0  0  0  0  0  0  0  0
  2  1  1  6
  3  2  1  0
  4  2  1  0
  4  5  1  1
  6  8  1  0
  6  4  1  0
  7  6  2  0
  9 10  1  0
  9  8  1  0
 10 17  1  0
 11 10  2  0
 12 13  1  0
 13 14  1  0
 15 14  1  0
 16 15  1  1
 17 16  1  0
 18 16  1  0
 18 20  1  0
 19 18  2  0
M  END
$$$$
