YTS.pdb
     RDKit          3D

 26 26  0  0  1  0  0  0  0  0999 V2000
   28.7971  -12.2333  -15.9588 O   0  0  0  0  0  0  0  0  0  0  0  0
   27.8401  -11.2535  -16.1496 C   0  0  0  0  0  0  0  0  0  0  0  0
   27.2751  -10.9815  -17.3857 C   0  0  0  0  0  0  0  0  0  0  0  0
   26.3233  -10.0013  -17.5539 C   0  0  0  0  0  0  0  0  0  0  0  0
   25.8871   -9.2402  -16.4882 C   0  0  0  0  0  0  0  0  0  0  0  0
   24.8720   -8.1737  -16.6286 C   0  0  0  0  0  0  0  0  0  0  0  0
   23.4573   -8.6768  -16.4750 C   0  0  2  0  0  0  0  0  0  0  0  0
   23.3609  -10.0751  -16.8603 N   0  0  0  0  0  0  0  0  0  0  0  0
   22.4597   -7.9161  -17.2367 C   0  0  0  0  0  0  0  0  0  0  0  0
   22.1074   -8.2362  -18.4217 O   0  0  0  0  0  0  0  0  0  0  0  0
   26.4448   -9.5058  -15.2586 C   0  0  0  0  0  0  0  0  0  0  0  0
   27.4116  -10.5010  -15.0854 C   0  0  0  0  0  0  0  0  0  0  0  0
   20.0325   -8.2300  -18.4235 C   0  0  0  0  0  0  0  0  0  0  0  0
   19.5875   -7.0483  -17.5885 C   0  0  1  0  0  0  0  0  0  0  0  0
   19.2167   -7.6296  -16.3471 O   0  0  0  0  0  0  0  0  0  0  0  0
   20.7467   -6.1198  -17.3932 C   0  0  2  0  0  0  0  0  0  0  0  0
   21.8385   -6.7874  -16.6921 N   0  0  0  0  0  0  0  0  0  0  0  0
   20.3797   -4.9451  -16.6078 C   0  0  0  0  0  0  0  0  0  0  0  0
   20.6745   -4.9445  -15.3508 O   0  0  0  0  0  0  0  0  0  0  0  0
   18.3596   -1.8227  -18.0008 O   0  0  0  0  0  0  0  0  0  0  0  0
   19.0250   -1.4335  -16.8307 C   0  0  0  0  0  0  0  0  0  0  0  0
   19.4106   -2.7072  -16.1093 C   0  0  2  0  0  0  0  0  0  0  0  0
   19.7316   -3.7747  -17.0412 N   0  0  0  0  0  0  0  0  0  0  0  0
   18.2411   -3.1323  -15.3119 C   0  0  0  0  0  0  0  0  0  0  0  0
   17.8145   -2.3574  -14.2509 O   0  0  0  0  0  0  0  0  0  0  0  0
   17.6029   -4.1848  -15.5563 O   0  0  0  0  0  0  0  0  0  0  0  0
  2  1  1  0
  2  3  2  0
  4  3  1  0
  5  4  2  0
  6  5  1  0
  7  6  1  0
  7  9  1  0
  7  8  1  6
  9 10  2  0
  9 17  1  0
 11 12  2  0
 11  5  1  0
 12  2  1  0
 14 13  1  6
 14 15  1  0
 16 14  1  0
 16 17  1  1
 18 16  1  0
 18 19  2  0
 20 21  1  0
 22 21  1  6
 22 23  1  0
 23 18  1  0
 24 22  1  0
 25 24  1  0
 26 24  2  0
M  END
$$$$
