YTS.pdb
     RDKit          3D

 26 26  0  0  1  0  0  0  0  0999 V2000
   17.5351    1.5714   -8.8466 O   0  0  0  0  0  0  0  0  0  0  0  0
   17.7514    0.2285   -9.0956 C   0  0  0  0  0  0  0  0  0  0  0  0
   17.3174   -0.4040  -10.2500 C   0  0  0  0  0  0  0  0  0  0  0  0
   17.5433   -1.7426  -10.4785 C   0  0  0  0  0  0  0  0  0  0  0  0
   18.2183   -2.5192   -9.5585 C   0  0  0  0  0  0  0  0  0  0  0  0
   18.4749   -3.9614   -9.7634 C   0  0  0  0  0  0  0  0  0  0  0  0
   17.2157   -4.7618   -9.9916 C   0  0  2  0  0  0  0  0  0  0  0  0
   16.4872   -4.9459   -8.7473 N   0  0  0  0  0  0  0  0  0  0  0  0
   17.4393   -6.0797  -10.5975 C   0  0  0  0  0  0  0  0  0  0  0  0
   17.5420   -7.1476   -9.9046 O   0  0  0  0  0  0  0  0  0  0  0  0
   18.6513   -1.8965   -8.4104 C   0  0  0  0  0  0  0  0  0  0  0  0
   18.4231   -0.5371   -8.1763 C   0  0  0  0  0  0  0  0  0  0  0  0
   15.3245   -8.0174  -12.7498 C   0  0  0  0  0  0  0  0  0  0  0  0
   16.6111   -7.8600  -13.5317 C   0  0  1  0  0  0  0  0  0  0  0  0
   16.3633   -6.7429  -14.3728 O   0  0  0  0  0  0  0  0  0  0  0  0
   17.7281   -7.5489  -12.5833 C   0  0  2  0  0  0  0  0  0  0  0  0
   17.5523   -6.2304  -11.9835 N   0  0  0  0  0  0  0  0  0  0  0  0
   19.0275   -7.5540  -13.2488 C   0  0  0  0  0  0  0  0  0  0  0  0
   19.5955   -6.4158  -13.4704 O   0  0  0  0  0  0  0  0  0  0  0  0
   23.0362   -9.4977  -15.0748 O   0  0  0  0  0  0  0  0  0  0  0  0
   21.7911   -9.7980  -14.5066 C   0  0  0  0  0  0  0  0  0  0  0  0
   21.0634   -8.4811  -14.3404 C   0  0  2  0  0  0  0  0  0  0  0  0
   19.7740   -8.6592  -13.6949 N   0  0  0  0  0  0  0  0  0  0  0  0
   20.8263   -7.9358  -15.6934 C   0  0  0  0  0  0  0  0  0  0  0  0
   21.5996   -6.8897  -16.1578 O   0  0  0  0  0  0  0  0  0  0  0  0
   19.9382   -8.3858  -16.4574 O   0  0  0  0  0  0  0  0  0  0  0  0
  2  1  1  0
  2  3  2  0
  4  3  1  0
  5  4  2  0
  6  5  1  0
  7  6  1  0
  7  9  1  0
  7  8  1  1
  9 10  2  0
  9 17  1  0
 11 12  2  0
 11  5  1  0
 12  2  1  0
 14 13  1  1
 14 15  1  0
 16 14  1  0
 16 17  1  6
 18 16  1  0
 18 19  2  0
 20 21  1  0
 22 21  1  6
 22 23  1  0
 23 18  1  0
 24 22  1  0
 25 24  1  0
 26 24  2  0
M  END
$$$$
