YTS.pdb
     RDKit          3D

 26 26  0  0  1  0  0  0  0  0999 V2000
   14.6869  -15.1428  -18.5291 O   0  0  0  0  0  0  0  0  0  0  0  0
   15.5315  -14.2698  -17.8681 C   0  0  0  0  0  0  0  0  0  0  0  0
   15.9704  -13.0785  -18.4244 C   0  0  0  0  0  0  0  0  0  0  0  0
   16.8114  -12.2232  -17.7490 C   0  0  0  0  0  0  0  0  0  0  0  0
   17.2576  -12.5186  -16.4767 C   0  0  0  0  0  0  0  0  0  0  0  0
   18.1667  -11.6299  -15.7208 C   0  0  0  0  0  0  0  0  0  0  0  0
   19.6211  -11.8327  -16.0702 C   0  0  2  0  0  0  0  0  0  0  0  0
   20.0334  -13.1992  -15.7949 N   0  0  0  0  0  0  0  0  0  0  0  0
   20.5410  -10.9224  -15.3782 C   0  0  0  0  0  0  0  0  0  0  0  0
   20.8008  -11.0222  -14.1318 O   0  0  0  0  0  0  0  0  0  0  0  0
   16.8251  -13.7002  -15.9195 C   0  0  0  0  0  0  0  0  0  0  0  0
   15.9709  -14.5704  -16.6036 C   0  0  0  0  0  0  0  0  0  0  0  0
   23.9999  -10.6026  -15.6081 C   0  0  0  0  0  0  0  0  0  0  0  0
   23.5216   -9.2026  -15.9286 C   0  0  1  0  0  0  0  0  0  0  0  0
   23.4888   -9.1712  -17.3480 O   0  0  0  0  0  0  0  0  0  0  0  0
   22.1399   -9.0173  -15.3803 C   0  0  2  0  0  0  0  0  0  0  0  0
   21.1865   -9.8867  -16.0618 N   0  0  0  0  0  0  0  0  0  0  0  0
   21.6680   -7.6451  -15.5400 C   0  0  0  0  0  0  0  0  0  0  0  0
   20.8298   -7.4030  -16.4917 O   0  0  0  0  0  0  0  0  0  0  0  0
   19.4735   -3.9387  -15.2389 O   0  0  0  0  0  0  0  0  0  0  0  0
   19.9177   -5.2337  -14.9406 C   0  0  0  0  0  0  0  0  0  0  0  0
   21.4259   -5.2130  -15.0686 C   0  0  2  0  0  0  0  0  0  0  0  0
   22.0062   -6.5129  -14.7776 N   0  0  0  0  0  0  0  0  0  0  0  0
   21.9387   -4.2496  -14.0720 C   0  0  0  0  0  0  0  0  0  0  0  0
   21.7102   -2.8979  -14.2422 O   0  0  0  0  0  0  0  0  0  0  0  0
   22.5851   -4.6064  -13.0572 O   0  0  0  0  0  0  0  0  0  0  0  0
  2  1  1  0
  2  3  2  0
  4  3  1  0
  5  4  2  0
  6  5  1  0
  7  6  1  0
  7  9  1  0
  7  8  1  1
  9 10  2  0
  9 17  1  0
 11 12  2  0
 11  5  1  0
 12  2  1  0
 14 13  1  6
 14 15  1  0
 16 14  1  0
 16 17  1  6
 18 16  1  0
 18 19  2  0
 20 21  1  0
 22 21  1  1
 22 23  1  0
 23 18  1  0
 24 22  1  0
 25 24  1  0
 26 24  2  0
M  END
$$$$
