YTS.pdb
     RDKit          3D

 26 26  0  0  1  0  0  0  0  0999 V2000
   27.5371  -19.3089   -5.3403 O   0  0  0  0  0  0  0  0  0  0  0  0
   27.4240  -19.5147   -6.7031 C   0  0  0  0  0  0  0  0  0  0  0  0
   26.2493  -19.9338   -7.3077 C   0  0  0  0  0  0  0  0  0  0  0  0
   26.1579  -20.1326   -8.6668 C   0  0  0  0  0  0  0  0  0  0  0  0
   27.2431  -19.9211   -9.4932 C   0  0  0  0  0  0  0  0  0  0  0  0
   27.1877  -20.1300  -10.9563 C   0  0  0  0  0  0  0  0  0  0  0  0
   26.2250  -21.2186  -11.3645 C   0  0  2  0  0  0  0  0  0  0  0  0
   26.8970  -22.5060  -11.4286 N   0  0  0  0  0  0  0  0  0  0  0  0
   25.5540  -20.9813  -12.6479 C   0  0  0  0  0  0  0  0  0  0  0  0
   26.1914  -20.8803  -13.7499 O   0  0  0  0  0  0  0  0  0  0  0  0
   28.4121  -19.5051   -8.8982 C   0  0  0  0  0  0  0  0  0  0  0  0
   28.5071  -19.3024   -7.5180 C   0  0  0  0  0  0  0  0  0  0  0  0
   22.2561  -22.1074  -15.7106 C   0  0  0  0  0  0  0  0  0  0  0  0
   23.0568  -22.1988  -14.4291 C   0  0  1  0  0  0  0  0  0  0  0  0
   24.1923  -22.9706  -14.7920 O   0  0  0  0  0  0  0  0  0  0  0  0
   23.4832  -20.8234  -14.0164 C   0  0  2  0  0  0  0  0  0  0  0  0
   24.1633  -20.8525  -12.7257 N   0  0  0  0  0  0  0  0  0  0  0  0
   22.3479  -19.9144  -13.8890 C   0  0  0  0  0  0  0  0  0  0  0  0
   21.6989  -19.9136  -12.7729 O   0  0  0  0  0  0  0  0  0  0  0  0
   20.8381  -17.7256  -16.8371 O   0  0  0  0  0  0  0  0  0  0  0  0
   20.4608  -17.1388  -15.6219 C   0  0  0  0  0  0  0  0  0  0  0  0
   20.6856  -18.1834  -14.5497 C   0  0  2  0  0  0  0  0  0  0  0  0
   21.8463  -19.0079  -14.8399 N   0  0  0  0  0  0  0  0  0  0  0  0
   19.4953  -19.0592  -14.5324 C   0  0  0  0  0  0  0  0  0  0  0  0
   18.3666  -18.6707  -13.8371 O   0  0  0  0  0  0  0  0  0  0  0  0
   19.4584  -20.1617  -15.1307 O   0  0  0  0  0  0  0  0  0  0  0  0
  2  1  1  0
  2  3  2  0
  4  3  1  0
  5  4  2  0
  6  5  1  0
  7  6  1  0
  7  9  1  0
  7  8  1  6
  9 10  2  0
  9 17  1  0
 11 12  2  0
 11  5  1  0
 12  2  1  0
 14 13  1  6
 14 15  1  0
 16 14  1  0
 16 17  1  1
 18 16  1  0
 18 19  2  0
 20 21  1  0
 22 21  1  6
 22 23  1  0
 23 18  1  0
 24 22  1  0
 25 24  1  0
 26 24  2  0
M  END
$$$$
