YTS.pdb
     RDKit          3D

 26 26  0  0  1  0  0  0  0  0999 V2000
   26.8796   -3.6892  -19.1409 O   0  0  0  0  0  0  0  0  0  0  0  0
   25.9109   -4.3815  -18.4377 C   0  0  0  0  0  0  0  0  0  0  0  0
   24.5527   -4.1773  -18.6243 C   0  0  0  0  0  0  0  0  0  0  0  0
   23.6044   -4.8775  -17.9135 C   0  0  0  0  0  0  0  0  0  0  0  0
   23.9694   -5.8220  -16.9755 C   0  0  0  0  0  0  0  0  0  0  0  0
   22.9818   -6.5901  -16.1866 C   0  0  0  0  0  0  0  0  0  0  0  0
   22.0953   -5.7162  -15.3329 C   0  0  2  0  0  0  0  0  0  0  0  0
   22.8369   -5.1683  -14.2092 N   0  0  0  0  0  0  0  0  0  0  0  0
   20.9002   -6.3921  -14.8145 C   0  0  0  0  0  0  0  0  0  0  0  0
   20.8113   -6.8059  -13.6096 O   0  0  0  0  0  0  0  0  0  0  0  0
   25.3166   -6.0288  -16.7859 C   0  0  0  0  0  0  0  0  0  0  0  0
   26.2816   -5.3188  -17.5068 C   0  0  0  0  0  0  0  0  0  0  0  0
   17.7356   -4.9832  -14.3030 C   0  0  0  0  0  0  0  0  0  0  0  0
   17.4304   -6.1775  -15.1817 C   0  0  1  0  0  0  0  0  0  0  0  0
   17.3868   -5.6328  -16.4925 O   0  0  0  0  0  0  0  0  0  0  0  0
   18.5509   -7.1659  -15.0750 C   0  0  2  0  0  0  0  0  0  0  0  0
   19.7851   -6.6182  -15.6282 N   0  0  0  0  0  0  0  0  0  0  0  0
   18.2611   -8.4008  -15.7977 C   0  0  0  0  0  0  0  0  0  0  0  0
   18.5042   -8.4283  -17.0655 O   0  0  0  0  0  0  0  0  0  0  0  0
   18.1473  -12.0617  -14.4017 O   0  0  0  0  0  0  0  0  0  0  0  0
   18.2059  -11.9611  -15.7980 C   0  0  0  0  0  0  0  0  0  0  0  0
   17.4303  -10.7168  -16.1743 C   0  0  2  0  0  0  0  0  0  0  0  0
   17.7401   -9.6050  -15.2917 N   0  0  0  0  0  0  0  0  0  0  0  0
   15.9941  -11.0321  -16.0260 C   0  0  0  0  0  0  0  0  0  0  0  0
   15.4156  -11.9955  -16.8295 O   0  0  0  0  0  0  0  0  0  0  0  0
   15.2584  -10.4557  -15.1885 O   0  0  0  0  0  0  0  0  0  0  0  0
  2  1  1  0
  2  3  2  0
  4  3  1  0
  5  4  2  0
  6  5  1  0
  7  6  1  0
  7  9  1  0
  7  8  1  1
  9 10  2  0
  9 17  1  0
 11 12  2  0
 11  5  1  0
 12  2  1  0
 14 13  1  1
 14 15  1  0
 16 14  1  0
 16 17  1  6
 18 16  1  0
 18 19  2  0
 20 21  1  0
 22 21  1  1
 22 23  1  0
 23 18  1  0
 24 22  1  0
 25 24  1  0
 26 24  2  0
M  END
$$$$
