YTS.pdb
     RDKit          3D

 26 26  0  0  1  0  0  0  0  0999 V2000
   36.9340   -2.0832   -0.1241 O   0  0  0  0  0  0  0  0  0  0  0  0
   37.3629   -2.5669   -1.3465 C   0  0  0  0  0  0  0  0  0  0  0  0
   38.1538   -1.8299   -2.2139 C   0  0  0  0  0  0  0  0  0  0  0  0
   38.5702   -2.3305   -3.4267 C   0  0  0  0  0  0  0  0  0  0  0  0
   38.2142   -3.6002   -3.8344 C   0  0  0  0  0  0  0  0  0  0  0  0
   38.6351   -4.1717   -5.1320 C   0  0  0  0  0  0  0  0  0  0  0  0
   39.6581   -5.2727   -4.9919 C   0  0  2  0  0  0  0  0  0  0  0  0
   40.8483   -4.7892   -4.3117 N   0  0  0  0  0  0  0  0  0  0  0  0
   40.0660   -5.8833   -6.2626 C   0  0  0  0  0  0  0  0  0  0  0  0
   41.2252   -5.7092   -6.7695 O   0  0  0  0  0  0  0  0  0  0  0  0
   37.4289   -4.3364   -2.9772 C   0  0  0  0  0  0  0  0  0  0  0  0
   37.0049   -3.8300   -1.7448 C   0  0  0  0  0  0  0  0  0  0  0  0
   39.4855   -9.6012   -7.2540 C   0  0  0  0  0  0  0  0  0  0  0  0
   38.9877   -8.6995   -8.3634 C   0  0  1  0  0  0  0  0  0  0  0  0
   37.5907   -8.6074   -8.1255 O   0  0  0  0  0  0  0  0  0  0  0  0
   39.6213   -7.3496   -8.2217 C   0  0  2  0  0  0  0  0  0  0  0  0
   39.1909   -6.6971   -6.9895 N   0  0  0  0  0  0  0  0  0  0  0  0
   39.2721   -6.4631   -9.3278 C   0  0  0  0  0  0  0  0  0  0  0  0
   38.4034   -5.5343   -9.1045 O   0  0  0  0  0  0  0  0  0  0  0  0
   39.8037   -4.3470  -13.5964 O   0  0  0  0  0  0  0  0  0  0  0  0
   40.3036   -5.3542  -12.7603 C   0  0  0  0  0  0  0  0  0  0  0  0
   39.3151   -5.5016  -11.6234 C   0  0  2  0  0  0  0  0  0  0  0  0
   39.7659   -6.4761  -10.6445 N   0  0  0  0  0  0  0  0  0  0  0  0
   38.0466   -5.9896  -12.2040 C   0  0  0  0  0  0  0  0  0  0  0  0
   37.1193   -5.0864  -12.6860 O   0  0  0  0  0  0  0  0  0  0  0  0
   37.7643   -7.2099  -12.2823 O   0  0  0  0  0  0  0  0  0  0  0  0
  2  1  1  0
  2  3  2  0
  4  3  1  0
  5  4  2  0
  6  5  1  0
  7  6  1  0
  7  9  1  0
  7  8  1  6
  9 10  2  0
  9 17  1  0
 11 12  2  0
 11  5  1  0
 12  2  1  0
 14 13  1  1
 14 15  1  0
 16 14  1  0
 16 17  1  1
 18 16  1  0
 18 19  2  0
 20 21  1  0
 22 21  1  6
 22 23  1  0
 23 18  1  0
 24 22  1  0
 25 24  1  0
 26 24  2  0
M  END
$$$$
