YTS.pdb
     RDKit          3D

 26 26  0  0  1  0  0  0  0  0999 V2000
   28.3211  -19.9136   -3.6839 O   0  0  0  0  0  0  0  0  0  0  0  0
   27.9975  -19.8247   -5.0254 C   0  0  0  0  0  0  0  0  0  0  0  0
   26.8292  -20.3490   -5.5558 C   0  0  0  0  0  0  0  0  0  0  0  0
   26.5260  -20.2495   -6.8949 C   0  0  0  0  0  0  0  0  0  0  0  0
   27.3811  -19.6172   -7.7748 C   0  0  0  0  0  0  0  0  0  0  0  0
   27.0951  -19.4955   -9.2208 C   0  0  0  0  0  0  0  0  0  0  0  0
   27.0195  -20.8284   -9.9251 C   0  0  2  0  0  0  0  0  0  0  0  0
   28.3093  -21.4985   -9.9038 N   0  0  0  0  0  0  0  0  0  0  0  0
   26.5602  -20.7508  -11.3169 C   0  0  0  0  0  0  0  0  0  0  0  0
   27.3407  -20.4579  -12.2843 O   0  0  0  0  0  0  0  0  0  0  0  0
   28.5426  -19.0949   -7.2537 C   0  0  0  0  0  0  0  0  0  0  0  0
   28.8526  -19.1947   -5.8939 C   0  0  0  0  0  0  0  0  0  0  0  0
   24.7241  -22.1638  -15.1932 C   0  0  0  0  0  0  0  0  0  0  0  0
   25.1858  -22.2352  -13.7533 C   0  0  1  0  0  0  0  0  0  0  0  0
   26.6005  -22.3081  -13.8532 O   0  0  0  0  0  0  0  0  0  0  0  0
   24.7866  -20.9766  -13.0458 C   0  0  2  0  0  0  0  0  0  0  0  0
   25.2254  -20.9979  -11.6543 N   0  0  0  0  0  0  0  0  0  0  0  0
   23.3391  -20.7872  -13.0422 C   0  0  0  0  0  0  0  0  0  0  0  0
   22.6185  -21.6610  -12.4224 O   0  0  0  0  0  0  0  0  0  0  0  0
   19.7726  -21.0900  -15.5045 O   0  0  0  0  0  0  0  0  0  0  0  0
   21.1152  -21.0467  -15.1062 C   0  0  0  0  0  0  0  0  0  0  0  0
   21.2186  -19.9641  -14.0532 C   0  0  2  0  0  0  0  0  0  0  0  0
   22.5940  -19.7525  -13.6355 N   0  0  0  0  0  0  0  0  0  0  0  0
   20.4483  -20.4197  -12.8770 C   0  0  0  0  0  0  0  0  0  0  0  0
   19.0688  -20.3489  -12.8898 O   0  0  0  0  0  0  0  0  0  0  0  0
   20.9971  -20.8774  -11.8454 O   0  0  0  0  0  0  0  0  0  0  0  0
  2  1  1  0
  2  3  2  0
  4  3  1  0
  5  4  2  0
  6  5  1  0
  7  6  1  0
  7  9  1  0
  7  8  1  6
  9 10  2  0
  9 17  1  0
 11 12  2  0
 11  5  1  0
 12  2  1  0
 14 13  1  6
 14 15  1  0
 16 14  1  0
 16 17  1  1
 18 16  1  0
 18 19  2  0
 20 21  1  0
 22 21  1  6
 22 23  1  0
 23 18  1  0
 24 22  1  0
 25 24  1  0
 26 24  2  0
M  END
$$$$
