YTS.pdb
     RDKit          3D

 26 26  0  0  1  0  0  0  0  0999 V2000
   26.7116  -15.5128  -17.8518 O   0  0  0  0  0  0  0  0  0  0  0  0
   26.0107  -14.3286  -17.7152 C   0  0  0  0  0  0  0  0  0  0  0  0
   25.4476  -13.6572  -18.7891 C   0  0  0  0  0  0  0  0  0  0  0  0
   24.7533  -12.4791  -18.6312 C   0  0  0  0  0  0  0  0  0  0  0  0
   24.5868  -11.9109  -17.3843 C   0  0  0  0  0  0  0  0  0  0  0  0
   23.8541  -10.6435  -17.1736 C   0  0  0  0  0  0  0  0  0  0  0  0
   22.4347  -10.8497  -16.7031 C   0  0  2  0  0  0  0  0  0  0  0  0
   21.7494  -11.8225  -17.5378 N   0  0  0  0  0  0  0  0  0  0  0  0
   21.6283   -9.6242  -16.6616 C   0  0  0  0  0  0  0  0  0  0  0  0
   20.9959   -9.1813  -17.6789 O   0  0  0  0  0  0  0  0  0  0  0  0
   25.1439  -12.5731  -16.3145 C   0  0  0  0  0  0  0  0  0  0  0  0
   25.8495  -13.7699  -16.4725 C   0  0  0  0  0  0  0  0  0  0  0  0
   18.6465   -9.2334  -15.2660 C   0  0  0  0  0  0  0  0  0  0  0  0
   19.3830   -8.0936  -14.5951 C   0  0  1  0  0  0  0  0  0  0  0  0
   19.7797   -8.6351  -13.3436 O   0  0  0  0  0  0  0  0  0  0  0  0
   20.5917   -7.7431  -15.4076 C   0  0  2  0  0  0  0  0  0  0  0  0
   21.5126   -8.8721  -15.4879 N   0  0  0  0  0  0  0  0  0  0  0  0
   21.3289   -6.6209  -14.8345 C   0  0  0  0  0  0  0  0  0  0  0  0
   22.2021   -6.8781  -13.9188 O   0  0  0  0  0  0  0  0  0  0  0  0
   21.3607   -2.8262  -16.2006 O   0  0  0  0  0  0  0  0  0  0  0  0
   22.4955   -3.1799  -15.4588 C   0  0  0  0  0  0  0  0  0  0  0  0
   22.0619   -4.2661  -14.4977 C   0  0  2  0  0  0  0  0  0  0  0  0
   21.2210   -5.2548  -15.1506 N   0  0  0  0  0  0  0  0  0  0  0  0
   21.2659   -3.6195  -13.4335 C   0  0  0  0  0  0  0  0  0  0  0  0
   19.9349   -3.9522  -13.2729 O   0  0  0  0  0  0  0  0  0  0  0  0
   21.7497   -2.7651  -12.6519 O   0  0  0  0  0  0  0  0  0  0  0  0
  2  1  1  0
  2  3  2  0
  4  3  1  0
  5  4  2  0
  6  5  1  0
  7  6  1  0
  7  9  1  0
  7  8  1  6
  9 10  2  0
  9 17  1  0
 11 12  2  0
 11  5  1  0
 12  2  1  0
 14 13  1  6
 14 15  1  0
 16 14  1  0
 16 17  1  1
 18 16  1  0
 18 19  2  0
 20 21  1  0
 22 21  1  6
 22 23  1  0
 23 18  1  0
 24 22  1  0
 25 24  1  0
 26 24  2  0
M  END
$$$$
