ERY.pdb
     RDKit          3D

 33 33  0  0  1  0  0  0  0  0999 V2000
   26.5076  -18.9307  -18.8151 N   0  0  0  0  0  0  0  0  0  0  0  0
   25.7116  -18.3120  -17.7958 C   0  0  1  0  0  0  0  0  0  0  0  0
   24.9318  -17.1111  -18.1998 C   0  0  0  0  0  0  0  0  0  0  0  0
   24.7472  -16.8670  -19.6470 C   0  0  0  0  0  0  0  0  0  0  0  0
   25.7417  -15.9487  -20.2042 C   0  0  0  0  0  0  0  0  0  0  0  0
   26.9165  -16.2623  -20.3854 O   0  0  0  0  0  0  0  0  0  0  0  0
   24.7912  -19.3686  -17.2375 C   0  0  0  0  0  0  0  0  0  0  0  0
   24.1083  -20.0414  -18.0206 O   0  0  0  0  0  0  0  0  0  0  0  0
   25.3210  -14.6450  -20.5460 O   0  0  0  0  0  0  0  0  0  0  0  0
   26.9369  -21.4595  -11.3911 N   0  0  0  0  0  0  0  0  0  0  0  0
   25.7703  -21.1742  -10.6179 C   0  0  0  0  0  0  0  0  0  0  0  0
   25.8906  -20.4148   -9.5638 N   0  0  0  0  0  0  0  0  0  0  0  0
   24.5491  -21.7280  -11.0347 N   0  0  0  0  0  0  0  0  0  0  0  0
   24.5133  -22.6442  -12.1277 C   0  0  0  0  0  0  0  0  0  0  0  0
   23.6815  -22.1462  -13.3077 C   0  0  0  0  0  0  0  0  0  0  0  0
   24.4892  -21.0286  -13.9401 C   0  0  0  0  0  0  0  0  0  0  0  0
   23.8760  -20.5119  -15.2104 C   0  0  2  0  0  0  0  0  0  0  0  0
   24.7510  -19.5433  -15.8310 N   0  0  0  0  0  0  0  0  0  0  0  0
   22.5801  -19.8714  -14.8466 C   0  0  0  0  0  0  0  0  0  0  0  0
   22.5313  -18.8034  -14.1808 O   0  0  0  0  0  0  0  0  0  0  0  0
   25.0764  -20.2387   -8.9424 O   0  0  0  0  0  0  0  0  0  0  0  0
   20.9605  -15.1681  -18.8988 C   0  0  0  0  0  0  0  0  0  0  0  0
   20.5486  -16.3021  -18.1971 C   0  0  0  0  0  0  0  0  0  0  0  0
   21.0851  -17.5554  -18.4719 C   0  0  0  0  0  0  0  0  0  0  0  0
   20.6701  -18.6621  -17.7748 C   0  0  0  0  0  0  0  0  0  0  0  0
   19.7076  -18.5053  -16.7928 C   0  0  0  0  0  0  0  0  0  0  0  0
   19.2568  -19.6947  -16.0548 C   0  0  2  0  0  0  0  0  0  0  0  0
   20.0766  -19.8559  -14.8110 N   0  0  0  0  0  0  0  0  0  0  0  0
   21.3507  -20.4524  -15.2431 C   0  0  0  0  0  0  0  0  0  0  0  0
   19.4622  -20.7763  -13.8271 O   0  0  0  0  0  0  0  0  0  0  0  0
   20.0974  -21.9755  -13.4459 C   0  0  0  0  0  0  0  0  0  0  0  0
   19.1761  -17.2611  -16.5209 C   0  0  0  0  0  0  0  0  0  0  0  0
   19.5868  -16.1380  -17.2175 O   0  0  0  0  0  0  0  0  0  0  0  0
  2  3  1  0
  2  1  1  6
  3  4  1  0
  4  5  1  0
  5  6  2  0
  7  2  1  0
  7 18  1  0
  8  7  2  0
  9  5  1  0
 10 11  1  0
 11 12  2  0
 13 11  1  0
 13 14  1  0
 15 16  1  0
 15 14  1  0
 17 16  1  1
 17 18  1  0
 17 19  1  0
 19 20  2  0
 19 28  1  0
 22 21  1  0
 23 22  2  0
 24 23  1  0
 25 24  2  0
 25 31  1  0
 26 25  1  0
 27 26  1  6
 28 27  1  0
 29 30  1  0
 29 27  1  0
 31 32  2  0
 32 22  1  0
 33 29  2  0
M  END
$$$$
