ERY.pdb
     RDKit          3D

 33 33  0  0  1  0  0  0  0  0999 V2000
   24.9585  -23.1351  -18.1122 N   0  0  0  0  0  0  0  0  0  0  0  0
   23.8109  -22.9439  -17.2742 C   0  0  1  0  0  0  0  0  0  0  0  0
   23.5867  -23.9621  -16.2129 C   0  0  0  0  0  0  0  0  0  0  0  0
   24.7039  -24.2450  -15.2855 C   0  0  0  0  0  0  0  0  0  0  0  0
   24.3986  -25.3107  -14.3296 C   0  0  0  0  0  0  0  0  0  0  0  0
   24.0967  -25.0939  -13.1578 O   0  0  0  0  0  0  0  0  0  0  0  0
   23.9213  -21.5691  -16.6636 C   0  0  0  0  0  0  0  0  0  0  0  0
   24.9415  -20.9007  -16.8751 O   0  0  0  0  0  0  0  0  0  0  0  0
   24.4563  -26.6457  -14.7855 O   0  0  0  0  0  0  0  0  0  0  0  0
   18.8555  -21.9525  -12.3590 N   0  0  0  0  0  0  0  0  0  0  0  0
   18.3846  -21.0679  -13.3768 C   0  0  0  0  0  0  0  0  0  0  0  0
   17.3336  -21.4147  -14.0677 N   0  0  0  0  0  0  0  0  0  0  0  0
   19.0802  -19.8654  -13.5814 N   0  0  0  0  0  0  0  0  0  0  0  0
   19.1115  -19.2666  -14.8759 C   0  0  0  0  0  0  0  0  0  0  0  0
   20.3853  -19.5814  -15.6574 C   0  0  0  0  0  0  0  0  0  0  0  0
   21.5199  -19.4827  -14.6552 C   0  0  0  0  0  0  0  0  0  0  0  0
   22.8601  -19.7932  -15.2584 C   0  0  2  0  0  0  0  0  0  0  0  0
   22.8429  -21.1027  -15.8698 N   0  0  0  0  0  0  0  0  0  0  0  0
   23.8605  -19.7574  -14.1540 C   0  0  0  0  0  0  0  0  0  0  0  0
   23.5647  -19.3386  -13.0037 O   0  0  0  0  0  0  0  0  0  0  0  0
   16.9930  -20.8192  -14.8483 O   0  0  0  0  0  0  0  0  0  0  0  0
   28.8388  -20.7587   -7.6163 C   0  0  0  0  0  0  0  0  0  0  0  0
   28.0240  -20.8302   -8.7473 C   0  0  0  0  0  0  0  0  0  0  0  0
   26.6521  -21.0294   -8.6371 C   0  0  0  0  0  0  0  0  0  0  0  0
   25.8630  -21.0987   -9.7576 C   0  0  0  0  0  0  0  0  0  0  0  0
   26.4604  -20.9658  -10.9990 C   0  0  0  0  0  0  0  0  0  0  0  0
   25.6140  -21.0514  -12.1985 C   0  0  2  0  0  0  0  0  0  0  0  0
   26.1677  -20.1619  -13.2698 N   0  0  0  0  0  0  0  0  0  0  0  0
   25.1894  -20.1980  -14.3686 C   0  0  0  0  0  0  0  0  0  0  0  0
   27.4625  -20.6388  -13.8071 O   0  0  0  0  0  0  0  0  0  0  0  0
   28.6822  -20.3213  -13.1758 C   0  0  0  0  0  0  0  0  0  0  0  0
   27.8219  -20.7679  -11.1070 C   0  0  0  0  0  0  0  0  0  0  0  0
   28.6275  -20.6965   -9.9841 O   0  0  0  0  0  0  0  0  0  0  0  0
  2  3  1  0
  2  1  1  1
  3  4  1  0
  4  5  1  0
  5  6  2  0
  7  2  1  0
  7 18  1  0
  8  7  2  0
  9  5  1  0
 10 11  1  0
 11 12  2  0
 13 11  1  0
 13 14  1  0
 15 16  1  0
 15 14  1  0
 17 16  1  1
 17 18  1  0
 17 19  1  0
 19 20  2  0
 19 28  1  0
 22 21  1  0
 23 22  2  0
 24 23  1  0
 25 24  2  0
 25 31  1  0
 26 25  1  0
 27 26  1  1
 28 27  1  0
 29 30  1  0
 29 27  1  0
 31 32  2  0
 32 22  1  0
 33 29  2  0
M  END
$$$$
