ERY.pdb
     RDKit          3D

 33 33  0  0  1  0  0  0  0  0999 V2000
   21.1672  -24.0961  -17.0716 N   0  0  0  0  0  0  0  0  0  0  0  0
   21.4022  -23.1647  -16.0072 C   0  0  1  0  0  0  0  0  0  0  0  0
   21.9151  -21.8243  -16.3990 C   0  0  0  0  0  0  0  0  0  0  0  0
   23.2982  -21.7427  -16.9173 C   0  0  0  0  0  0  0  0  0  0  0  0
   23.6353  -22.8408  -17.8247 C   0  0  0  0  0  0  0  0  0  0  0  0
   24.1755  -23.8792  -17.4488 O   0  0  0  0  0  0  0  0  0  0  0  0
   20.1135  -23.0255  -15.2358 C   0  0  0  0  0  0  0  0  0  0  0  0
   19.0434  -23.0031  -15.8577 O   0  0  0  0  0  0  0  0  0  0  0  0
   23.3206  -22.6897  -19.1927 O   0  0  0  0  0  0  0  0  0  0  0  0
   18.8724  -25.3959   -7.1113 N   0  0  0  0  0  0  0  0  0  0  0  0
   18.6133  -26.1055   -8.3235 C   0  0  0  0  0  0  0  0  0  0  0  0
   18.6540  -27.4095   -8.3041 N   0  0  0  0  0  0  0  0  0  0  0  0
   18.3265  -25.3595   -9.4780 N   0  0  0  0  0  0  0  0  0  0  0  0
   18.3837  -23.9344   -9.4433 C   0  0  0  0  0  0  0  0  0  0  0  0
   17.9907  -23.2808  -10.7664 C   0  0  0  0  0  0  0  0  0  0  0  0
   19.2168  -23.3763  -11.6546 C   0  0  0  0  0  0  0  0  0  0  0  0
   19.0054  -22.7625  -13.0093 C   0  0  2  0  0  0  0  0  0  0  0  0
   20.1884  -22.9262  -13.8233 N   0  0  0  0  0  0  0  0  0  0  0  0
   18.7257  -21.3136  -12.7989 C   0  0  0  0  0  0  0  0  0  0  0  0
   19.6524  -20.4681  -12.6864 O   0  0  0  0  0  0  0  0  0  0  0  0
   18.4609  -27.9581   -9.1654 O   0  0  0  0  0  0  0  0  0  0  0  0
   19.1645  -15.0356  -17.1429 C   0  0  0  0  0  0  0  0  0  0  0  0
   18.7571  -16.2435  -16.5745 C   0  0  0  0  0  0  0  0  0  0  0  0
   19.6703  -17.1020  -15.9719 C   0  0  0  0  0  0  0  0  0  0  0  0
   19.2559  -18.2871  -15.4179 C   0  0  0  0  0  0  0  0  0  0  0  0
   17.9111  -18.6098  -15.4707 C   0  0  0  0  0  0  0  0  0  0  0  0
   17.4715  -19.8855  -14.8859 C   0  0  2  0  0  0  0  0  0  0  0  0
   16.9807  -19.6560  -13.4888 N   0  0  0  0  0  0  0  0  0  0  0  0
   17.3935  -20.8394  -12.7176 C   0  0  0  0  0  0  0  0  0  0  0  0
   15.5058  -19.5568  -13.4016 O   0  0  0  0  0  0  0  0  0  0  0  0
   14.8521  -18.3080  -13.3944 C   0  0  0  0  0  0  0  0  0  0  0  0
   17.0059  -17.7570  -16.0688 C   0  0  0  0  0  0  0  0  0  0  0  0
   17.4122  -16.5594  -16.6309 O   0  0  0  0  0  0  0  0  0  0  0  0
  2  3  1  0
  2  1  1  6
  3  4  1  0
  4  5  1  0
  5  6  2  0
  7  2  1  0
  7 18  1  0
  8  7  2  0
  9  5  1  0
 10 11  1  0
 11 12  2  0
 13 11  1  0
 13 14  1  0
 15 16  1  0
 15 14  1  0
 17 16  1  1
 17 18  1  0
 17 19  1  0
 19 20  2  0
 19 28  1  0
 22 21  1  0
 23 22  2  0
 24 23  1  0
 25 24  2  0
 25 31  1  0
 26 25  1  0
 27 26  1  1
 28 27  1  0
 29 30  1  0
 29 27  1  0
 31 32  2  0
 32 22  1  0
 33 29  2  0
M  END
$$$$
