ERY.pdb
     RDKit          3D

 33 33  0  0  1  0  0  0  0  0999 V2000
   20.5844  -13.4717  -16.6473 N   0  0  0  0  0  0  0  0  0  0  0  0
   20.7877  -12.2155  -17.3078 C   0  0  1  0  0  0  0  0  0  0  0  0
   19.5800  -11.5651  -17.8838 C   0  0  0  0  0  0  0  0  0  0  0  0
   18.4233  -11.3480  -16.9875 C   0  0  0  0  0  0  0  0  0  0  0  0
   17.2921  -10.7049  -17.6580 C   0  0  0  0  0  0  0  0  0  0  0  0
   16.7705  -11.1571  -18.6753 O   0  0  0  0  0  0  0  0  0  0  0  0
   21.4591  -11.2907  -16.3233 C   0  0  0  0  0  0  0  0  0  0  0  0
   20.9257  -11.0993  -15.2228 O   0  0  0  0  0  0  0  0  0  0  0  0
   16.7845   -9.5107  -17.1018 O   0  0  0  0  0  0  0  0  0  0  0  0
   26.7402  -13.4086  -17.4042 N   0  0  0  0  0  0  0  0  0  0  0  0
   27.5243  -13.4275  -16.2105 C   0  0  0  0  0  0  0  0  0  0  0  0
   28.1275  -14.5355  -15.8776 N   0  0  0  0  0  0  0  0  0  0  0  0
   27.6058  -12.2472  -15.4541 N   0  0  0  0  0  0  0  0  0  0  0  0
   26.8997  -11.0793  -15.8698 C   0  0  0  0  0  0  0  0  0  0  0  0
   25.4105  -11.1211  -15.5341 C   0  0  0  0  0  0  0  0  0  0  0  0
   24.8361   -9.8112  -16.0396 C   0  0  0  0  0  0  0  0  0  0  0  0
   23.3476   -9.7183  -15.8593 C   0  0  2  0  0  0  0  0  0  0  0  0
   22.6795  -10.6793  -16.7072 N   0  0  0  0  0  0  0  0  0  0  0  0
   22.9425   -8.3343  -16.2368 C   0  0  0  0  0  0  0  0  0  0  0  0
   22.7257   -8.0094  -17.4342 O   0  0  0  0  0  0  0  0  0  0  0  0
   28.6836  -14.5930  -15.0016 O   0  0  0  0  0  0  0  0  0  0  0  0
   18.9686   -1.0791  -17.5862 C   0  0  0  0  0  0  0  0  0  0  0  0
   19.4579   -2.3392  -17.2388 C   0  0  0  0  0  0  0  0  0  0  0  0
   18.8045   -3.1346  -16.3036 C   0  0  0  0  0  0  0  0  0  0  0  0
   19.2975   -4.3712  -15.9707 C   0  0  0  0  0  0  0  0  0  0  0  0
   20.4574   -4.8105  -16.5848 C   0  0  0  0  0  0  0  0  0  0  0  0
   20.9894   -6.1315  -16.2181 C   0  0  1  0  0  0  0  0  0  0  0  0
   22.3585   -5.9768  -15.6290 N   0  0  0  0  0  0  0  0  0  0  0  0
   22.7884   -7.3318  -15.2483 C   0  0  0  0  0  0  0  0  0  0  0  0
   22.3722   -5.1424  -14.4057 O   0  0  0  0  0  0  0  0  0  0  0  0
   22.1112   -5.6954  -13.1357 C   0  0  0  0  0  0  0  0  0  0  0  0
   21.1047   -4.0203  -17.5128 C   0  0  0  0  0  0  0  0  0  0  0  0
   20.6170   -2.7716  -17.8562 O   0  0  0  0  0  0  0  0  0  0  0  0
  2  3  1  0
  2  1  1  1
  3  4  1  0
  4  5  1  0
  5  6  2  0
  7  2  1  0
  7 18  1  0
  8  7  2  0
  9  5  1  0
 10 11  1  0
 11 12  2  0
 13 11  1  0
 13 14  1  0
 15 16  1  0
 15 14  1  0
 17 16  1  6
 17 18  1  0
 17 19  1  0
 19 20  2  0
 19 28  1  0
 22 21  1  0
 23 22  2  0
 24 23  1  0
 25 24  2  0
 25 31  1  0
 26 25  1  0
 27 26  1  6
 28 27  1  0
 29 30  1  0
 29 27  1  0
 31 32  2  0
 32 22  1  0
 33 29  2  0
M  END
$$$$
