ERY.pdb
     RDKit          3D

 33 33  0  0  1  0  0  0  0  0999 V2000
   28.3200  -19.1545  -20.6944 N   0  0  0  0  0  0  0  0  0  0  0  0
   27.8223  -18.8595  -19.3826 C   0  0  1  0  0  0  0  0  0  0  0  0
   27.5049  -17.4342  -19.0978 C   0  0  0  0  0  0  0  0  0  0  0  0
   28.6087  -16.4534  -19.1880 C   0  0  0  0  0  0  0  0  0  0  0  0
   28.2364  -15.1256  -18.6971 C   0  0  0  0  0  0  0  0  0  0  0  0
   27.1858  -14.9023  -18.0989 O   0  0  0  0  0  0  0  0  0  0  0  0
   26.6046  -19.7205  -19.1570 C   0  0  0  0  0  0  0  0  0  0  0  0
   25.8003  -19.8744  -20.0854 O   0  0  0  0  0  0  0  0  0  0  0  0
   29.1330  -14.0595  -18.9264 O   0  0  0  0  0  0  0  0  0  0  0  0
   26.6735  -27.1598  -15.8231 N   0  0  0  0  0  0  0  0  0  0  0  0
   27.0366  -26.4187  -16.9888 C   0  0  0  0  0  0  0  0  0  0  0  0
   27.9819  -26.8869  -17.7567 N   0  0  0  0  0  0  0  0  0  0  0  0
   26.3540  -25.2196  -17.2492 N   0  0  0  0  0  0  0  0  0  0  0  0
   25.3147  -24.7819  -16.3752 C   0  0  0  0  0  0  0  0  0  0  0  0
   24.6532  -23.4812  -16.8255 C   0  0  0  0  0  0  0  0  0  0  0  0
   25.7890  -22.5137  -17.1003 C   0  0  0  0  0  0  0  0  0  0  0  0
   25.3108  -21.1755  -17.5874 C   0  0  2  0  0  0  0  0  0  0  0  0
   26.4366  -20.3184  -17.8823 N   0  0  0  0  0  0  0  0  0  0  0  0
   24.4849  -20.5788  -16.4994 C   0  0  0  0  0  0  0  0  0  0  0  0
   24.9792  -20.2738  -15.3819 O   0  0  0  0  0  0  0  0  0  0  0  0
   28.2444  -26.3945  -18.6334 O   0  0  0  0  0  0  0  0  0  0  0  0
   17.8976  -16.4551  -12.5733 C   0  0  0  0  0  0  0  0  0  0  0  0
   18.7238  -17.0693  -13.5157 C   0  0  0  0  0  0  0  0  0  0  0  0
   18.4396  -18.3393  -14.0063 C   0  0  0  0  0  0  0  0  0  0  0  0
   19.2613  -18.9316  -14.9319 C   0  0  0  0  0  0  0  0  0  0  0  0
   20.3779  -18.2394  -15.3673 C   0  0  0  0  0  0  0  0  0  0  0  0
   21.2627  -18.8812  -16.3511 C   0  0  1  0  0  0  0  0  0  0  0  0
   22.3131  -19.6779  -15.6390 N   0  0  0  0  0  0  0  0  0  0  0  0
   23.1030  -20.3352  -16.6924 C   0  0  0  0  0  0  0  0  0  0  0  0
   21.7486  -20.7393  -14.7745 O   0  0  0  0  0  0  0  0  0  0  0  0
   21.5908  -20.5506  -13.3865 C   0  0  0  0  0  0  0  0  0  0  0  0
   20.6587  -16.9793  -14.8799 C   0  0  0  0  0  0  0  0  0  0  0  0
   19.8374  -16.3720  -13.9462 O   0  0  0  0  0  0  0  0  0  0  0  0
  2  3  1  0
  2  1  1  6
  3  4  1  0
  4  5  1  0
  5  6  2  0
  7  2  1  0
  7 18  1  0
  8  7  2  0
  9  5  1  0
 10 11  1  0
 11 12  2  0
 13 11  1  0
 13 14  1  0
 15 16  1  0
 15 14  1  0
 17 16  1  1
 17 18  1  0
 17 19  1  0
 19 20  2  0
 19 28  1  0
 22 21  1  0
 23 22  2  0
 24 23  1  0
 25 24  2  0
 25 31  1  0
 26 25  1  0
 27 26  1  6
 28 27  1  0
 29 30  1  0
 29 27  1  0
 31 32  2  0
 32 22  1  0
 33 29  2  0
M  END
$$$$
