ERY.pdb
     RDKit          3D

 33 33  0  0  1  0  0  0  0  0999 V2000
   26.4460  -21.6731  -16.5875 N   0  0  0  0  0  0  0  0  0  0  0  0
   27.2620  -21.6747  -15.4086 C   0  0  1  0  0  0  0  0  0  0  0  0
   28.6549  -21.1758  -15.5645 C   0  0  0  0  0  0  0  0  0  0  0  0
   29.5653  -21.9438  -16.4418 C   0  0  0  0  0  0  0  0  0  0  0  0
   29.5186  -21.5070  -17.8381 C   0  0  0  0  0  0  0  0  0  0  0  0
   28.9648  -22.1540  -18.7247 O   0  0  0  0  0  0  0  0  0  0  0  0
   26.5361  -20.8753  -14.3555 C   0  0  0  0  0  0  0  0  0  0  0  0
   26.4754  -19.6446  -14.4747 O   0  0  0  0  0  0  0  0  0  0  0  0
   30.1413  -20.2843  -18.1706 O   0  0  0  0  0  0  0  0  0  0  0  0
   21.1492  -24.9096  -14.2748 N   0  0  0  0  0  0  0  0  0  0  0  0
   22.5193  -24.6919  -14.6148 C   0  0  0  0  0  0  0  0  0  0  0  0
   23.1955  -25.6757  -15.1414 N   0  0  0  0  0  0  0  0  0  0  0  0
   23.0694  -23.4246  -14.3640 N   0  0  0  0  0  0  0  0  0  0  0  0
   22.2997  -22.4292  -13.6917 C   0  0  0  0  0  0  0  0  0  0  0  0
   23.0716  -21.1360  -13.4388 C   0  0  0  0  0  0  0  0  0  0  0  0
   23.8254  -21.3520  -12.1401 C   0  0  0  0  0  0  0  0  0  0  0  0
   25.2523  -20.8874  -12.2093 C   0  0  2  0  0  0  0  0  0  0  0  0
   25.9523  -21.5760  -13.2698 N   0  0  0  0  0  0  0  0  0  0  0  0
   25.8822  -21.1983  -10.8945 C   0  0  0  0  0  0  0  0  0  0  0  0
   26.2907  -22.3555  -10.6112 O   0  0  0  0  0  0  0  0  0  0  0  0
   24.2090  -25.5716  -15.3462 O   0  0  0  0  0  0  0  0  0  0  0  0
   29.3483  -19.9383   -2.9784 C   0  0  0  0  0  0  0  0  0  0  0  0
   28.9374  -19.8527   -4.3095 C   0  0  0  0  0  0  0  0  0  0  0  0
   29.4714  -20.6880   -5.2850 C   0  0  0  0  0  0  0  0  0  0  0  0
   29.0589  -20.5921   -6.5902 C   0  0  0  0  0  0  0  0  0  0  0  0
   28.1007  -19.6479   -6.9156 C   0  0  0  0  0  0  0  0  0  0  0  0
   27.6685  -19.5400   -8.3171 C   0  0  1  0  0  0  0  0  0  0  0  0
   26.5734  -20.5275   -8.5835 N   0  0  0  0  0  0  0  0  0  0  0  0
   26.0411  -20.1894   -9.9132 C   0  0  0  0  0  0  0  0  0  0  0  0
   25.4567  -20.4296   -7.6160 O   0  0  0  0  0  0  0  0  0  0  0  0
   24.3264  -19.6288   -7.8765 C   0  0  0  0  0  0  0  0  0  0  0  0
   27.5715  -18.8198   -5.9468 C   0  0  0  0  0  0  0  0  0  0  0  0
   27.9799  -18.9073   -4.6274 O   0  0  0  0  0  0  0  0  0  0  0  0
  2  3  1  0
  2  1  1  6
  3  4  1  0
  4  5  1  0
  5  6  2  0
  7  2  1  0
  7 18  1  0
  8  7  2  0
  9  5  1  0
 10 11  1  0
 11 12  2  0
 13 11  1  0
 13 14  1  0
 15 16  1  0
 15 14  1  0
 17 16  1  1
 17 18  1  0
 17 19  1  0
 19 20  2  0
 19 28  1  0
 22 21  1  0
 23 22  2  0
 24 23  1  0
 25 24  2  0
 25 31  1  0
 26 25  1  0
 27 26  1  6
 28 27  1  0
 29 30  1  0
 29 27  1  0
 31 32  2  0
 32 22  1  0
 33 29  2  0
M  END
$$$$
