ERY.pdb
     RDKit          3D

 33 33  0  0  1  0  0  0  0  0999 V2000
   18.7497  -13.3150  -19.1754 N   0  0  0  0  0  0  0  0  0  0  0  0
   18.9876  -13.0993  -17.7781 C   0  0  1  0  0  0  0  0  0  0  0  0
   19.2476  -14.3104  -16.9540 C   0  0  0  0  0  0  0  0  0  0  0  0
   20.0254  -15.4070  -17.5711 C   0  0  0  0  0  0  0  0  0  0  0  0
   20.2125  -16.5502  -16.6763 C   0  0  0  0  0  0  0  0  0  0  0  0
   19.5413  -17.5774  -16.7516 O   0  0  0  0  0  0  0  0  0  0  0  0
   20.1378  -12.1307  -17.6597 C   0  0  0  0  0  0  0  0  0  0  0  0
   20.4723  -11.7337  -16.5360 O   0  0  0  0  0  0  0  0  0  0  0  0
   21.2133  -16.4581  -15.6847 O   0  0  0  0  0  0  0  0  0  0  0  0
   25.8425  -10.3953  -24.0190 N   0  0  0  0  0  0  0  0  0  0  0  0
   26.4553   -9.6665  -22.9544 C   0  0  0  0  0  0  0  0  0  0  0  0
   27.6146   -9.1071  -23.1673 N   0  0  0  0  0  0  0  0  0  0  0  0
   25.7747   -9.5891  -21.7286 N   0  0  0  0  0  0  0  0  0  0  0  0
   24.5210  -10.2492  -21.5618 C   0  0  0  0  0  0  0  0  0  0  0  0
   23.9100  -10.0465  -20.1769 C   0  0  0  0  0  0  0  0  0  0  0  0
   22.6503  -10.8915  -20.1533 C   0  0  0  0  0  0  0  0  0  0  0  0
   21.9541  -10.8645  -18.8224 C   0  0  2  0  0  0  0  0  0  0  0  0
   20.7873  -11.7170  -18.8503 N   0  0  0  0  0  0  0  0  0  0  0  0
   21.5504   -9.4531  -18.5637 C   0  0  0  0  0  0  0  0  0  0  0  0
   20.9630   -8.7602  -19.4360 O   0  0  0  0  0  0  0  0  0  0  0  0
   28.1151   -8.6173  -22.3996 O   0  0  0  0  0  0  0  0  0  0  0  0
   17.9746   -9.6311  -12.1305 C   0  0  0  0  0  0  0  0  0  0  0  0
   18.4354   -9.1211  -13.3453 C   0  0  0  0  0  0  0  0  0  0  0  0
   18.9240   -7.8228  -13.4443 C   0  0  0  0  0  0  0  0  0  0  0  0
   19.3729   -7.3340  -14.6453 C   0  0  0  0  0  0  0  0  0  0  0  0
   19.3298   -8.1594  -15.7554 C   0  0  0  0  0  0  0  0  0  0  0  0
   19.8013   -7.6293  -17.0435 C   0  0  1  0  0  0  0  0  0  0  0  0
   21.2940   -7.4999  -17.0184 N   0  0  0  0  0  0  0  0  0  0  0  0
   21.8194   -8.8423  -17.3145 C   0  0  0  0  0  0  0  0  0  0  0  0
   21.8184   -7.0957  -15.6940 O   0  0  0  0  0  0  0  0  0  0  0  0
   21.5264   -5.8320  -15.1421 C   0  0  0  0  0  0  0  0  0  0  0  0
   18.8449   -9.4476  -15.6559 C   0  0  0  0  0  0  0  0  0  0  0  0
   18.3894   -9.9512  -14.4501 O   0  0  0  0  0  0  0  0  0  0  0  0
  2  3  1  0
  2  1  1  6
  3  4  1  0
  4  5  1  0
  5  6  2  0
  7  2  1  0
  7 18  1  0
  8  7  2  0
  9  5  1  0
 10 11  1  0
 11 12  2  0
 13 11  1  0
 13 14  1  0
 15 16  1  0
 15 14  1  0
 17 16  1  6
 17 18  1  0
 17 19  1  0
 19 20  2  0
 19 28  1  0
 22 21  1  0
 23 22  2  0
 24 23  1  0
 25 24  2  0
 25 31  1  0
 26 25  1  0
 27 26  1  6
 28 27  1  0
 29 30  1  0
 29 27  1  0
 31 32  2  0
 32 22  1  0
 33 29  2  0
M  END
$$$$
