ERY.pdb
     RDKit          3D

 33 33  0  0  1  0  0  0  0  0999 V2000
   27.6519  -18.2863  -16.8681 N   0  0  0  0  0  0  0  0  0  0  0  0
   26.4350  -18.3058  -17.6259 C   0  0  1  0  0  0  0  0  0  0  0  0
   26.5173  -17.8123  -19.0270 C   0  0  0  0  0  0  0  0  0  0  0  0
   27.8635  -17.6048  -19.6041 C   0  0  0  0  0  0  0  0  0  0  0  0
   27.8261  -17.1148  -20.9830 C   0  0  0  0  0  0  0  0  0  0  0  0
   26.7824  -16.8171  -21.5605 O   0  0  0  0  0  0  0  0  0  0  0  0
   25.9093  -19.7193  -17.6004 C   0  0  0  0  0  0  0  0  0  0  0  0
   24.7901  -19.9500  -18.0762 O   0  0  0  0  0  0  0  0  0  0  0  0
   29.0512  -16.9815  -21.6718 O   0  0  0  0  0  0  0  0  0  0  0  0
   31.5875  -23.7621  -17.7451 N   0  0  0  0  0  0  0  0  0  0  0  0
   30.6641  -24.4798  -16.9251 C   0  0  0  0  0  0  0  0  0  0  0  0
   31.0709  -24.9218  -15.7669 N   0  0  0  0  0  0  0  0  0  0  0  0
   29.3606  -24.6727  -17.4102 N   0  0  0  0  0  0  0  0  0  0  0  0
   28.9535  -24.0630  -18.6341 C   0  0  0  0  0  0  0  0  0  0  0  0
   28.0499  -22.8483  -18.4336 C   0  0  0  0  0  0  0  0  0  0  0  0
   27.3672  -23.0576  -17.0951 C   0  0  0  0  0  0  0  0  0  0  0  0
   26.2543  -22.0793  -16.8482 C   0  0  2  0  0  0  0  0  0  0  0  0
   26.7281  -20.7258  -17.0286 N   0  0  0  0  0  0  0  0  0  0  0  0
   25.7952  -22.2777  -15.4440 C   0  0  0  0  0  0  0  0  0  0  0  0
   25.7556  -23.4193  -14.9136 O   0  0  0  0  0  0  0  0  0  0  0  0
   30.4064  -25.3789  -15.1115 O   0  0  0  0  0  0  0  0  0  0  0  0
   24.1912  -20.8994   -7.0665 C   0  0  0  0  0  0  0  0  0  0  0  0
   24.6017  -20.8161   -8.3979 C   0  0  0  0  0  0  0  0  0  0  0  0
   23.8622  -20.1068   -9.3383 C   0  0  0  0  0  0  0  0  0  0  0  0
   24.2771  -20.0340  -10.6442 C   0  0  0  0  0  0  0  0  0  0  0  0
   25.4462  -20.6803  -11.0060 C   0  0  0  0  0  0  0  0  0  0  0  0
   25.8826  -20.6098  -12.4085 C   0  0  1  0  0  0  0  0  0  0  0  0
   24.9318  -21.3828  -13.2709 N   0  0  0  0  0  0  0  0  0  0  0  0
   25.3844  -21.1750  -14.6557 C   0  0  0  0  0  0  0  0  0  0  0  0
   23.5370  -20.8945  -13.1777 O   0  0  0  0  0  0  0  0  0  0  0  0
   22.6116  -21.4782  -12.2890 C   0  0  0  0  0  0  0  0  0  0  0  0
   26.1792  -21.3837  -10.0720 C   0  0  0  0  0  0  0  0  0  0  0  0
   25.7706  -21.4641   -8.7522 O   0  0  0  0  0  0  0  0  0  0  0  0
  2  3  1  0
  2  1  1  6
  3  4  1  0
  4  5  1  0
  5  6  2  0
  7  2  1  0
  7 18  1  0
  8  7  2  0
  9  5  1  0
 10 11  1  0
 11 12  2  0
 13 11  1  0
 13 14  1  0
 15 16  1  0
 15 14  1  0
 17 16  1  1
 17 18  1  0
 17 19  1  0
 19 20  2  0
 19 28  1  0
 22 21  1  0
 23 22  2  0
 24 23  1  0
 25 24  2  0
 25 31  1  0
 26 25  1  0
 27 26  1  1
 28 27  1  0
 29 30  1  0
 29 27  1  0
 31 32  2  0
 32 22  1  0
 33 29  2  0
M  END
$$$$
