THR.pdb
     RDKit          3D

 29 29  0  0  1  0  0  0  0  0999 V2000
   17.1892  -23.7376  -13.0930 C   0  0  0  0  0  0  0  0  0  0  0  0
   18.5455  -23.5287  -13.6875 C   0  0  1  0  0  0  0  0  0  0  0  0
   18.5440  -22.6592  -14.7792 O   0  0  0  0  0  0  0  0  0  0  0  0
   19.4322  -22.8960  -12.6070 C   0  0  2  0  0  0  0  0  0  0  0  0
   20.7416  -22.5822  -13.1494 N   0  0  0  0  0  0  0  0  0  0  0  0
   19.5192  -23.8933  -11.5086 C   0  0  0  0  0  0  0  0  0  0  0  0
   20.1568  -24.9709  -11.6198 O   0  0  0  0  0  0  0  0  0  0  0  0
   18.8409  -23.5812  -10.2971 N   0  0  0  0  0  0  0  0  0  0  0  0
   18.7953  -24.4638   -9.1742 C   0  0  1  0  0  0  0  0  0  0  0  0
   18.0176  -23.8873   -8.0148 C   0  0  0  0  0  0  0  0  0  0  0  0
   17.9041  -24.8501   -6.8907 C   0  0  0  0  0  0  0  0  0  0  0  0
   18.4571  -26.1188   -6.8747 C   0  0  0  0  0  0  0  0  0  0  0  0
   18.1525  -26.7129   -5.6915 N   0  0  0  0  0  0  0  0  0  0  0  0
   17.4335  -25.8557   -4.9821 C   0  0  0  0  0  0  0  0  0  0  0  0
   17.2838  -24.7307   -5.7072 N   0  0  0  0  0  0  0  0  0  0  0  0
   18.1848  -25.7519   -9.6069 C   0  0  0  0  0  0  0  0  0  0  0  0
   17.4539  -25.7998  -10.6384 O   0  0  0  0  0  0  0  0  0  0  0  0
   21.4208  -31.8300  -12.9729 N   0  0  0  0  0  0  0  0  0  0  0  0
   20.1310  -32.1175  -13.4772 C   0  0  0  0  0  0  0  0  0  0  0  0
   19.8117  -33.2475  -13.9669 N   0  0  0  0  0  0  0  0  0  0  0  0
   19.1583  -31.0971  -13.4316 N   0  0  0  0  0  0  0  0  0  0  0  0
   19.3826  -29.8171  -12.7882 C   0  0  0  0  0  0  0  0  0  0  0  0
   18.6490  -29.7270  -11.4672 C   0  0  0  0  0  0  0  0  0  0  0  0
   18.8147  -28.3899  -10.8304 C   0  0  0  0  0  0  0  0  0  0  0  0
   18.0998  -28.2288   -9.5087 C   0  0  2  0  0  0  0  0  0  0  0  0
   18.3942  -26.9595   -8.8912 N   0  0  0  0  0  0  0  0  0  0  0  0
   18.3416  -29.3640   -8.5960 C   0  0  0  0  0  0  0  0  0  0  0  0
   19.1835  -29.3150   -7.6816 O   0  0  0  0  0  0  0  0  0  0  0  0
   17.6147  -30.5268   -8.7520 O   0  0  0  0  0  0  0  0  0  0  0  0
  2  1  1  1
  2  3  1  0
  4  2  1  0
  4  5  1  6
  6  4  1  0
  7  6  2  0
  8  6  1  0
  9  8  1  0
 10 11  1  0
  9 10  1  1
 11 15  1  0
 12 11  2  0
 12 13  1  0
 13 14  1  0
 15 14  2  0
 16  9  1  0
 16 17  2  0
 19 18  1  0
 20 19  2  0
 21 19  1  0
 22 21  1  0
 23 22  1  0
 25 24  1  6
 24 23  1  0
 25 26  1  0
 26 16  1  0
 27 25  1  0
 28 27  2  0
 29 27  1  0
M  END
$$$$
