HHM.pdb
     RDKit          3D

 29 30  0  0  1  0  0  0  0  0999 V2000
   21.7332   -8.6625  -20.4714 N   0  0  0  0  0  0  0  0  0  0  0  0
   21.4241   -9.8035  -19.6080 C   0  0  1  0  0  0  0  0  0  0  0  0
   22.6675  -10.2074  -18.8440 C   0  0  0  0  0  0  0  0  0  0  0  0
   23.6795  -10.8064  -19.7588 C   0  0  0  0  0  0  0  0  0  0  0  0
   23.8133  -12.1153  -20.1461 C   0  0  0  0  0  0  0  0  0  0  0  0
   24.8683  -12.1730  -20.9771 N   0  0  0  0  0  0  0  0  0  0  0  0
   25.3875  -10.9595  -21.1167 C   0  0  0  0  0  0  0  0  0  0  0  0
   24.6570  -10.1201  -20.3684 N   0  0  0  0  0  0  0  0  0  0  0  0
   20.3667   -9.3639  -18.6730 C   0  0  0  0  0  0  0  0  0  0  0  0
   20.3696   -8.1934  -18.2037 O   0  0  0  0  0  0  0  0  0  0  0  0
   19.3037  -10.2185  -18.2550 N   0  0  0  0  0  0  0  0  0  0  0  0
   18.2421   -9.8196  -17.3892 C   0  0  1  0  0  0  0  0  0  0  0  0
   16.9682  -10.6295  -17.5674 C   0  0  0  0  0  0  0  0  0  0  0  0
   15.8991  -10.1984  -16.6621 C   0  0  0  0  0  0  0  0  0  0  0  0
   15.3892  -10.8169  -15.5387 C   0  0  0  0  0  0  0  0  0  0  0  0
   14.4174  -10.0639  -15.0201 N   0  0  0  0  0  0  0  0  0  0  0  0
   14.2991   -8.9722  -15.7968 C   0  0  0  0  0  0  0  0  0  0  0  0
   15.1957   -9.0572  -16.7874 N   0  0  0  0  0  0  0  0  0  0  0  0
   18.6426   -9.8817  -15.9437 C   0  0  0  0  0  0  0  0  0  0  0  0
   19.3771  -10.8257  -15.5575 O   0  0  0  0  0  0  0  0  0  0  0  0
   23.1152   -8.1516  -10.5505 C   0  0  0  0  0  0  0  0  0  0  0  0
   22.3893   -7.8737  -12.1849 S   0  0  0  0  0  0  0  0  0  0  0  0
   20.7143   -8.5080  -12.1919 C   0  0  0  0  0  0  0  0  0  0  0  0
   20.0722   -8.5531  -13.5244 C   0  0  0  0  0  0  0  0  0  0  0  0
   18.6932   -9.0621  -13.5619 C   0  0  2  0  0  0  0  0  0  0  0  0
   18.2336   -8.9300  -14.9962 N   0  0  0  0  0  0  0  0  0  0  0  0
   17.7561   -8.3241  -12.7214 C   0  0  0  0  0  0  0  0  0  0  0  0
   17.5709   -8.7196  -11.3779 O   0  0  0  0  0  0  0  0  0  0  0  0
   17.0793   -7.3502  -13.0739 O   0  0  0  0  0  0  0  0  0  0  0  0
  2  3  1  0
  2  1  1  6
  3  4  1  0
  4  8  1  0
  5  4  2  0
  5  6  1  0
  6  7  1  0
  8  7  2  0
  9 10  2  0
  9  2  1  0
 11  9  1  0
 12 11  1  0
 13 14  1  0
 12 13  1  1
 14 18  1  0
 14 15  2  0
 15 16  1  0
 17 16  1  0
 18 17  2  0
 19 20  2  0
 19 12  1  0
 22 21  1  0
 23 22  1  0
 25 24  1  6
 24 23  1  0
 25 26  1  0
 26 19  1  0
 27 25  1  0
 28 27  1  0
 29 27  2  0
M  END
$$$$
