HHM.pdb
     RDKit          3D

 29 30  0  0  1  0  0  0  0  0999 V2000
   23.4210  -22.5317  -15.0707 N   0  0  0  0  0  0  0  0  0  0  0  0
   22.7008  -23.7168  -14.6020 C   0  0  1  0  0  0  0  0  0  0  0  0
   23.6864  -24.7041  -14.0133 C   0  0  0  0  0  0  0  0  0  0  0  0
   24.6134  -25.2154  -15.0616 C   0  0  0  0  0  0  0  0  0  0  0  0
   24.4060  -26.2233  -15.9685 C   0  0  0  0  0  0  0  0  0  0  0  0
   25.5245  -26.3229  -16.7074 N   0  0  0  0  0  0  0  0  0  0  0  0
   26.4081  -25.4226  -16.2948 C   0  0  0  0  0  0  0  0  0  0  0  0
   25.8482  -24.7423  -15.2839 N   0  0  0  0  0  0  0  0  0  0  0  0
   21.7483  -23.2623  -13.5668 C   0  0  0  0  0  0  0  0  0  0  0  0
   22.1637  -22.8057  -12.4671 O   0  0  0  0  0  0  0  0  0  0  0  0
   20.3338  -23.3122  -13.7458 N   0  0  0  0  0  0  0  0  0  0  0  0
   19.3856  -22.7803  -12.8220 C   0  0  1  0  0  0  0  0  0  0  0  0
   18.5830  -21.6121  -13.3714 C   0  0  0  0  0  0  0  0  0  0  0  0
   19.3906  -20.3979  -13.5191 C   0  0  0  0  0  0  0  0  0  0  0  0
   20.7178  -20.1762  -13.2125 C   0  0  0  0  0  0  0  0  0  0  0  0
   21.0380  -18.9159  -13.5115 N   0  0  0  0  0  0  0  0  0  0  0  0
   19.9332  -18.3286  -14.0052 C   0  0  0  0  0  0  0  0  0  0  0  0
   18.9405  -19.2269  -14.0081 N   0  0  0  0  0  0  0  0  0  0  0  0
   18.4244  -23.8272  -12.3382 C   0  0  0  0  0  0  0  0  0  0  0  0
   18.0948  -24.7556  -13.1187 O   0  0  0  0  0  0  0  0  0  0  0  0
   18.3100  -25.4389   -5.4746 C   0  0  0  0  0  0  0  0  0  0  0  0
   17.0172  -24.7805   -6.5564 S   0  0  0  0  0  0  0  0  0  0  0  0
   17.4257  -25.1733   -8.2554 C   0  0  0  0  0  0  0  0  0  0  0  0
   16.5006  -24.6097   -9.2636 C   0  0  0  0  0  0  0  0  0  0  0  0
   16.8444  -24.8619  -10.6708 C   0  0  2  0  0  0  0  0  0  0  0  0
   17.8724  -23.8192  -11.0474 N   0  0  0  0  0  0  0  0  0  0  0  0
   15.7225  -24.7395  -11.5958 C   0  0  0  0  0  0  0  0  0  0  0  0
   15.1617  -25.9057  -12.1628 O   0  0  0  0  0  0  0  0  0  0  0  0
   15.1887  -23.6813  -11.9508 O   0  0  0  0  0  0  0  0  0  0  0  0
  2  3  1  0
  2  1  1  1
  3  4  1  0
  4  8  1  0
  5  4  2  0
  5  6  1  0
  6  7  1  0
  8  7  2  0
  9 10  2  0
  9  2  1  0
 11  9  1  0
 12 11  1  0
 13 14  1  0
 12 13  1  6
 14 18  1  0
 14 15  2  0
 15 16  1  0
 17 16  1  0
 18 17  2  0
 19 20  2  0
 19 12  1  0
 22 21  1  0
 23 22  1  0
 25 24  1  1
 24 23  1  0
 25 26  1  0
 26 19  1  0
 27 25  1  0
 28 27  1  0
 29 27  2  0
M  END
$$$$
