HHM.pdb
     RDKit          3D

 29 30  0  0  1  0  0  0  0  0999 V2000
   25.4025  -34.0561  -12.2679 N   0  0  0  0  0  0  0  0  0  0  0  0
   26.1472  -32.8348  -11.9568 C   0  0  1  0  0  0  0  0  0  0  0  0
   25.8620  -31.7888  -13.0139 C   0  0  0  0  0  0  0  0  0  0  0  0
   26.5098  -32.1515  -14.3056 C   0  0  0  0  0  0  0  0  0  0  0  0
   27.8449  -32.3064  -14.5786 C   0  0  0  0  0  0  0  0  0  0  0  0
   27.9444  -32.6354  -15.8782 N   0  0  0  0  0  0  0  0  0  0  0  0
   26.7314  -32.6890  -16.4143 C   0  0  0  0  0  0  0  0  0  0  0  0
   25.8503  -32.3919  -15.4481 N   0  0  0  0  0  0  0  0  0  0  0  0
   25.6801  -32.3690  -10.6338 C   0  0  0  0  0  0  0  0  0  0  0  0
   26.1724  -31.3350  -10.1058 O   0  0  0  0  0  0  0  0  0  0  0  0
   24.6672  -33.0463   -9.8918 N   0  0  0  0  0  0  0  0  0  0  0  0
   24.1971  -32.6351   -8.6091 C   0  0  1  0  0  0  0  0  0  0  0  0
   22.6893  -32.4560   -8.5371 C   0  0  0  0  0  0  0  0  0  0  0  0
   22.2465  -31.1906   -9.1297 C   0  0  0  0  0  0  0  0  0  0  0  0
   22.9851  -30.0958   -9.5301 C   0  0  0  0  0  0  0  0  0  0  0  0
   22.1660  -29.1615  -10.0163 N   0  0  0  0  0  0  0  0  0  0  0  0
   20.9134  -29.6443   -9.9321 C   0  0  0  0  0  0  0  0  0  0  0  0
   20.9662  -30.8699   -9.3961 N   0  0  0  0  0  0  0  0  0  0  0  0
   24.6113  -33.5892   -7.5265 C   0  0  0  0  0  0  0  0  0  0  0  0
   24.9712  -34.7502   -7.8459 O   0  0  0  0  0  0  0  0  0  0  0  0
   30.0676  -36.5470   -4.2505 C   0  0  0  0  0  0  0  0  0  0  0  0
   29.1445  -35.5384   -5.4361 S   0  0  0  0  0  0  0  0  0  0  0  0
   27.4974  -35.2495   -4.7945 C   0  0  0  0  0  0  0  0  0  0  0  0
   26.6374  -34.4006   -5.6488 C   0  0  0  0  0  0  0  0  0  0  0  0
   25.2678  -34.1722   -5.1651 C   0  0  2  0  0  0  0  0  0  0  0  0
   24.6161  -33.2447   -6.1655 N   0  0  0  0  0  0  0  0  0  0  0  0
   25.1907  -33.5402   -3.8520 C   0  0  0  0  0  0  0  0  0  0  0  0
   25.4777  -32.1625   -3.7284 O   0  0  0  0  0  0  0  0  0  0  0  0
   24.8891  -34.1048   -2.7932 O   0  0  0  0  0  0  0  0  0  0  0  0
  2  3  1  0
  2  1  1  6
  3  4  1  0
  4  8  1  0
  5  4  2  0
  5  6  1  0
  6  7  1  0
  8  7  2  0
  9 10  2  0
  9  2  1  0
 11  9  1  0
 12 11  1  0
 13 14  1  0
 12 13  1  6
 14 18  1  0
 14 15  2  0
 15 16  1  0
 17 16  1  0
 18 17  2  0
 19 20  2  0
 19 12  1  0
 22 21  1  0
 23 22  1  0
 25 24  1  6
 24 23  1  0
 25 26  1  0
 26 19  1  0
 27 25  1  0
 28 27  1  0
 29 27  2  0
M  END
$$$$
