HHM.pdb
     RDKit          3D

 29 30  0  0  1  0  0  0  0  0999 V2000
   21.6786  -31.6845  -15.4596 N   0  0  0  0  0  0  0  0  0  0  0  0
   22.8752  -30.8565  -15.3007 C   0  0  1  0  0  0  0  0  0  0  0  0
   22.8053  -29.6831  -16.2553 C   0  0  0  0  0  0  0  0  0  0  0  0
   23.0641  -30.1233  -17.6548 C   0  0  0  0  0  0  0  0  0  0  0  0
   24.0939  -30.8931  -18.1324 C   0  0  0  0  0  0  0  0  0  0  0  0
   23.9048  -31.0242  -19.4568 N   0  0  0  0  0  0  0  0  0  0  0  0
   22.8064  -30.3697  -19.8130 C   0  0  0  0  0  0  0  0  0  0  0  0
   22.2900  -29.8166  -18.7059 N   0  0  0  0  0  0  0  0  0  0  0  0
   22.8885  -30.3803  -13.9012 C   0  0  0  0  0  0  0  0  0  0  0  0
   23.7643  -29.5622  -13.5089 O   0  0  0  0  0  0  0  0  0  0  0  0
   21.9328  -30.8085  -12.9324 N   0  0  0  0  0  0  0  0  0  0  0  0
   21.9916  -30.4837  -11.5444 C   0  0  1  0  0  0  0  0  0  0  0  0
   20.6907  -29.9271  -10.9891 C   0  0  0  0  0  0  0  0  0  0  0  0
   20.4820  -28.5225  -11.3526 C   0  0  0  0  0  0  0  0  0  0  0  0
   21.3032  -27.6577  -12.0470 C   0  0  0  0  0  0  0  0  0  0  0  0
   20.7097  -26.4670  -12.1480 N   0  0  0  0  0  0  0  0  0  0  0  0
   19.5199  -26.5588  -11.5274 C   0  0  0  0  0  0  0  0  0  0  0  0
   19.3861  -27.8018  -11.0483 N   0  0  0  0  0  0  0  0  0  0  0  0
   22.3954  -31.6633  -10.7080 C   0  0  0  0  0  0  0  0  0  0  0  0
   21.9618  -32.8021  -11.0156 O   0  0  0  0  0  0  0  0  0  0  0  0
   27.0266  -34.3243   -4.8721 C   0  0  0  0  0  0  0  0  0  0  0  0
   26.4990  -32.9130   -5.8746 S   0  0  0  0  0  0  0  0  0  0  0  0
   25.2057  -33.4462   -6.9931 C   0  0  0  0  0  0  0  0  0  0  0  0
   24.7111  -32.3999   -7.9155 C   0  0  0  0  0  0  0  0  0  0  0  0
   23.6341  -32.8014   -8.8326 C   0  0  2  0  0  0  0  0  0  0  0  0
   23.2397  -31.5548   -9.5916 N   0  0  0  0  0  0  0  0  0  0  0  0
   22.4413  -33.3189   -8.1702 C   0  0  0  0  0  0  0  0  0  0  0  0
   21.5070  -32.4136   -7.6193 O   0  0  0  0  0  0  0  0  0  0  0  0
   22.1493  -34.5134   -8.0339 O   0  0  0  0  0  0  0  0  0  0  0  0
  2  3  1  0
  2  1  1  1
  3  4  1  0
  4  8  1  0
  5  4  2  0
  5  6  1  0
  6  7  1  0
  8  7  2  0
  9 10  2  0
  9  2  1  0
 11  9  1  0
 12 11  1  0
 13 14  1  0
 12 13  1  1
 14 18  1  0
 14 15  2  0
 15 16  1  0
 17 16  1  0
 18 17  2  0
 19 20  2  0
 19 12  1  0
 22 21  1  0
 23 22  1  0
 25 24  1  1
 24 23  1  0
 25 26  1  0
 26 19  1  0
 27 25  1  0
 28 27  1  0
 29 27  2  0
M  END
$$$$
