HHM.pdb
     RDKit          3D

 29 30  0  0  1  0  0  0  0  0999 V2000
   22.6632  -33.2131  -10.6168 N   0  0  0  0  0  0  0  0  0  0  0  0
   22.9178  -32.6892   -9.2738 C   0  0  1  0  0  0  0  0  0  0  0  0
   21.7501  -31.8284   -8.8399 C   0  0  0  0  0  0  0  0  0  0  0  0
   21.7424  -30.5351   -9.5794 C   0  0  0  0  0  0  0  0  0  0  0  0
   22.8066  -29.7429   -9.9272 C   0  0  0  0  0  0  0  0  0  0  0  0
   22.3077  -28.6808  -10.5831 N   0  0  0  0  0  0  0  0  0  0  0  0
   20.9864  -28.7857  -10.6530 C   0  0  0  0  0  0  0  0  0  0  0  0
   20.6394  -29.9249  -10.0366 N   0  0  0  0  0  0  0  0  0  0  0  0
   23.0592  -33.8544   -8.3750 C   0  0  0  0  0  0  0  0  0  0  0  0
   22.2302  -34.8038   -8.4182 O   0  0  0  0  0  0  0  0  0  0  0  0
   24.1179  -33.9718   -7.4261 N   0  0  0  0  0  0  0  0  0  0  0  0
   24.3117  -35.0966   -6.5701 C   0  0  1  0  0  0  0  0  0  0  0  0
   25.5868  -35.8729   -6.8567 C   0  0  0  0  0  0  0  0  0  0  0  0
   26.7446  -34.9957   -7.0527 C   0  0  0  0  0  0  0  0  0  0  0  0
   26.8110  -33.6183   -7.1065 C   0  0  0  0  0  0  0  0  0  0  0  0
   28.0760  -33.2423   -7.3026 N   0  0  0  0  0  0  0  0  0  0  0  0
   28.8195  -34.3608   -7.3749 C   0  0  0  0  0  0  0  0  0  0  0  0
   28.0117  -35.4177   -7.2235 N   0  0  0  0  0  0  0  0  0  0  0  0
   24.3126  -34.7059   -5.1205 C   0  0  0  0  0  0  0  0  0  0  0  0
   24.5016  -33.5010   -4.8169 O   0  0  0  0  0  0  0  0  0  0  0  0
   20.8770  -35.7993    1.7307 C   0  0  0  0  0  0  0  0  0  0  0  0
   21.0505  -36.2405   -0.0159 S   0  0  0  0  0  0  0  0  0  0  0  0
   22.5224  -35.4567   -0.6695 C   0  0  0  0  0  0  0  0  0  0  0  0
   22.7820  -35.7188   -2.1027 C   0  0  0  0  0  0  0  0  0  0  0  0
   24.0118  -35.1325   -2.6559 C   0  0  2  0  0  0  0  0  0  0  0  0
   24.1112  -35.6276   -4.0809 N   0  0  0  0  0  0  0  0  0  0  0  0
   25.2322  -35.5253   -1.9589 C   0  0  0  0  0  0  0  0  0  0  0  0
   25.5621  -34.9019   -0.7349 O   0  0  0  0  0  0  0  0  0  0  0  0
   26.0412  -36.3799   -2.3409 O   0  0  0  0  0  0  0  0  0  0  0  0
  2  3  1  0
  2  1  1  6
  3  4  1  0
  4  8  1  0
  5  4  2  0
  5  6  1  0
  6  7  1  0
  8  7  2  0
  9 10  2  0
  9  2  1  0
 11  9  1  0
 12 11  1  0
 13 14  1  0
 12 13  1  6
 14 18  1  0
 14 15  2  0
 15 16  1  0
 17 16  1  0
 18 17  2  0
 19 20  2  0
 19 12  1  0
 22 21  1  0
 23 22  1  0
 25 24  1  1
 24 23  1  0
 25 26  1  0
 26 19  1  0
 27 25  1  0
 28 27  1  0
 29 27  2  0
M  END
$$$$
