HHM.pdb
     RDKit          3D

 29 30  0  0  1  0  0  0  0  0999 V2000
   14.7371  -11.1177  -13.5876 N   0  0  0  0  0  0  0  0  0  0  0  0
   14.7575   -9.6572  -13.4901 C   0  0  1  0  0  0  0  0  0  0  0  0
   14.6246   -9.2481  -12.0383 C   0  0  0  0  0  0  0  0  0  0  0  0
   13.2970   -9.6496  -11.4947 C   0  0  0  0  0  0  0  0  0  0  0  0
   12.1032   -8.9786  -11.5715 C   0  0  0  0  0  0  0  0  0  0  0  0
   11.1882   -9.7310  -10.9363 N   0  0  0  0  0  0  0  0  0  0  0  0
   11.7664  -10.8324  -10.4732 C   0  0  0  0  0  0  0  0  0  0  0  0
   13.0617  -10.7822  -10.8165 N   0  0  0  0  0  0  0  0  0  0  0  0
   16.0557   -9.2059  -14.0345 C   0  0  0  0  0  0  0  0  0  0  0  0
   17.0927   -9.9089  -13.8900 O   0  0  0  0  0  0  0  0  0  0  0  0
   16.2098   -7.9754  -14.7398 N   0  0  0  0  0  0  0  0  0  0  0  0
   17.4323   -7.5297  -15.3248 C   0  0  1  0  0  0  0  0  0  0  0  0
   17.2467   -6.4792  -16.4077 C   0  0  0  0  0  0  0  0  0  0  0  0
   16.7136   -7.0441  -17.6507 C   0  0  0  0  0  0  0  0  0  0  0  0
   16.4898   -8.3606  -17.9988 C   0  0  0  0  0  0  0  0  0  0  0  0
   15.9927   -8.4143  -19.2358 N   0  0  0  0  0  0  0  0  0  0  0  0
   15.8956   -7.1497  -19.6834 C   0  0  0  0  0  0  0  0  0  0  0  0
   16.3320   -6.3251  -18.7232 N   0  0  0  0  0  0  0  0  0  0  0  0
   18.3814   -6.9853  -14.2968 C   0  0  0  0  0  0  0  0  0  0  0  0
   17.9134   -6.3903  -13.2935 O   0  0  0  0  0  0  0  0  0  0  0  0
   23.4593   -8.7529   -9.1094 C   0  0  0  0  0  0  0  0  0  0  0  0
   22.3898   -9.1786  -10.5058 S   0  0  0  0  0  0  0  0  0  0  0  0
   21.9847   -7.6831  -11.4042 C   0  0  0  0  0  0  0  0  0  0  0  0
   21.0633   -7.8742  -12.5464 C   0  0  0  0  0  0  0  0  0  0  0  0
   20.6529   -6.6549  -13.2585 C   0  0  2  0  0  0  0  0  0  0  0  0
   19.7757   -7.1097  -14.4028 N   0  0  0  0  0  0  0  0  0  0  0  0
   21.7581   -5.8848  -13.8197 C   0  0  0  0  0  0  0  0  0  0  0  0
   22.4199   -4.9333  -13.0121 O   0  0  0  0  0  0  0  0  0  0  0  0
   22.1946   -5.9800  -14.9735 O   0  0  0  0  0  0  0  0  0  0  0  0
  2  3  1  0
  2  1  1  1
  3  4  1  0
  4  8  1  0
  5  4  2  0
  5  6  1  0
  6  7  1  0
  8  7  2  0
  9 10  2  0
  9  2  1  0
 11  9  1  0
 12 11  1  0
 13 14  1  0
 12 13  1  6
 14 18  1  0
 14 15  2  0
 15 16  1  0
 17 16  1  0
 18 17  2  0
 19 20  2  0
 19 12  1  0
 22 21  1  0
 23 22  1  0
 25 24  1  6
 24 23  1  0
 25 26  1  0
 26 19  1  0
 27 25  1  0
 28 27  1  0
 29 27  2  0
M  END
$$$$
