HHM.pdb
     RDKit          3D

 29 30  0  0  1  0  0  0  0  0999 V2000
   27.0083  -12.9874  -18.3652 N   0  0  0  0  0  0  0  0  0  0  0  0
   28.1393  -12.5128  -19.1642 C   0  0  1  0  0  0  0  0  0  0  0  0
   27.7114  -12.3765  -20.6103 C   0  0  0  0  0  0  0  0  0  0  0  0
   27.5250  -13.7158  -21.2356 C   0  0  0  0  0  0  0  0  0  0  0  0
   28.2864  -14.3214  -22.2024 C   0  0  0  0  0  0  0  0  0  0  0  0
   27.7299  -15.5204  -22.4468 N   0  0  0  0  0  0  0  0  0  0  0  0
   26.6620  -15.6773  -21.6744 C   0  0  0  0  0  0  0  0  0  0  0  0
   26.5364  -14.5688  -20.9303 N   0  0  0  0  0  0  0  0  0  0  0  0
   28.5320  -11.1964  -18.6182 C   0  0  0  0  0  0  0  0  0  0  0  0
   27.6579  -10.3390  -18.3165 O   0  0  0  0  0  0  0  0  0  0  0  0
   29.8929  -10.8254  -18.4049 N   0  0  0  0  0  0  0  0  0  0  0  0
   30.3130   -9.5599  -17.8976 C   0  0  1  0  0  0  0  0  0  0  0  0
   31.7338   -9.5567  -17.3573 C   0  0  0  0  0  0  0  0  0  0  0  0
   32.1163   -8.2584  -16.7947 C   0  0  0  0  0  0  0  0  0  0  0  0
   31.3908   -7.0884  -16.6984 C   0  0  0  0  0  0  0  0  0  0  0  0
   32.1370   -6.1504  -16.1123 N   0  0  0  0  0  0  0  0  0  0  0  0
   33.3300   -6.7050  -15.8324 C   0  0  0  0  0  0  0  0  0  0  0  0
   33.3136   -7.9781  -16.2460 N   0  0  0  0  0  0  0  0  0  0  0  0
   30.1979   -8.4749  -18.9290 C   0  0  0  0  0  0  0  0  0  0  0  0
   30.6596   -8.6802  -20.0798 O   0  0  0  0  0  0  0  0  0  0  0  0
   25.8323   -5.0391  -23.6936 C   0  0  0  0  0  0  0  0  0  0  0  0
   26.1069   -6.0935  -22.2486 S   0  0  0  0  0  0  0  0  0  0  0  0
   27.6789   -5.6630  -21.5058 C   0  0  0  0  0  0  0  0  0  0  0  0
   28.1240   -6.5689  -20.4236 C   0  0  0  0  0  0  0  0  0  0  0  0
   29.4131   -6.2433  -19.7956 C   0  0  2  0  0  0  0  0  0  0  0  0
   29.5953   -7.2341  -18.6682 N   0  0  0  0  0  0  0  0  0  0  0  0
   29.4841   -4.9008  -19.2281 C   0  0  0  0  0  0  0  0  0  0  0  0
   30.0277   -3.8502  -20.0004 O   0  0  0  0  0  0  0  0  0  0  0  0
   29.1040   -4.5714  -18.0977 O   0  0  0  0  0  0  0  0  0  0  0  0
  2  3  1  0
  2  1  1  1
  3  4  1  0
  4  8  1  0
  5  4  2  0
  5  6  1  0
  6  7  1  0
  8  7  2  0
  9 10  2  0
  9  2  1  0
 11  9  1  0
 12 11  1  0
 13 14  1  0
 12 13  1  6
 14 18  1  0
 14 15  2  0
 15 16  1  0
 17 16  1  0
 18 17  2  0
 19 20  2  0
 19 12  1  0
 22 21  1  0
 23 22  1  0
 25 24  1  1
 24 23  1  0
 25 26  1  0
 26 19  1  0
 27 25  1  0
 28 27  1  0
 29 27  2  0
M  END
$$$$
