HHM.pdb
     RDKit          3D

 29 30  0  0  1  0  0  0  0  0999 V2000
   26.9400  -19.1535  -17.1355 N   0  0  0  0  0  0  0  0  0  0  0  0
   27.5379  -19.2565  -15.8033 C   0  0  1  0  0  0  0  0  0  0  0  0
   27.8921  -17.8721  -15.3025 C   0  0  0  0  0  0  0  0  0  0  0  0
   28.8123  -17.1854  -16.2518 C   0  0  0  0  0  0  0  0  0  0  0  0
   29.2505  -17.6138  -17.4788 C   0  0  0  0  0  0  0  0  0  0  0  0
   30.0640  -16.6584  -17.9608 N   0  0  0  0  0  0  0  0  0  0  0  0
   30.1448  -15.6641  -17.0854 C   0  0  0  0  0  0  0  0  0  0  0  0
   29.3757  -15.9879  -16.0357 N   0  0  0  0  0  0  0  0  0  0  0  0
   26.5264  -19.8784  -14.9225 C   0  0  0  0  0  0  0  0  0  0  0  0
   25.3367  -19.4604  -14.9148 O   0  0  0  0  0  0  0  0  0  0  0  0
   26.8291  -20.9642  -14.0480 N   0  0  0  0  0  0  0  0  0  0  0  0
   25.8701  -21.6287  -13.2268 C   0  0  1  0  0  0  0  0  0  0  0  0
   25.8223  -23.1336  -13.4351 C   0  0  0  0  0  0  0  0  0  0  0  0
   25.1570  -23.5050  -14.6873 C   0  0  0  0  0  0  0  0  0  0  0  0
   24.5075  -22.7127  -15.6119 C   0  0  0  0  0  0  0  0  0  0  0  0
   24.0483  -23.4756  -16.6056 N   0  0  0  0  0  0  0  0  0  0  0  0
   24.3954  -24.7453  -16.3287 C   0  0  0  0  0  0  0  0  0  0  0  0
   25.0648  -24.7588  -15.1693 N   0  0  0  0  0  0  0  0  0  0  0  0
   26.0987  -21.3612  -11.7673 C   0  0  0  0  0  0  0  0  0  0  0  0
   27.2678  -21.4373  -11.3123 O   0  0  0  0  0  0  0  0  0  0  0  0
   29.4545  -19.5868   -7.0727 C   0  0  0  0  0  0  0  0  0  0  0  0
   27.8957  -18.6978   -7.3068 S   0  0  0  0  0  0  0  0  0  0  0  0
   26.5961  -19.8832   -7.6447 C   0  0  0  0  0  0  0  0  0  0  0  0
   26.3624  -20.1571   -9.0801 C   0  0  0  0  0  0  0  0  0  0  0  0
   25.2988  -21.1238   -9.3902 C   0  0  2  0  0  0  0  0  0  0  0  0
   25.0628  -21.0279  -10.8805 N   0  0  0  0  0  0  0  0  0  0  0  0
   24.0309  -20.8599   -8.7179 C   0  0  0  0  0  0  0  0  0  0  0  0
   23.9091  -21.1323   -7.3371 O   0  0  0  0  0  0  0  0  0  0  0  0
   23.0104  -20.4050   -9.2493 O   0  0  0  0  0  0  0  0  0  0  0  0
  2  3  1  0
  2  1  1  6
  3  4  1  0
  4  8  1  0
  5  4  2  0
  5  6  1  0
  6  7  1  0
  8  7  2  0
  9 10  2  0
  9  2  1  0
 11  9  1  0
 12 11  1  0
 13 14  1  0
 12 13  1  1
 14 18  1  0
 14 15  2  0
 15 16  1  0
 17 16  1  0
 18 17  2  0
 19 20  2  0
 19 12  1  0
 22 21  1  0
 23 22  1  0
 25 24  1  1
 24 23  1  0
 25 26  1  0
 26 19  1  0
 27 25  1  0
 28 27  1  0
 29 27  2  0
M  END
$$$$
