HHM.pdb
     RDKit          3D

 29 30  0  0  1  0  0  0  0  0999 V2000
   20.7948  -15.2584  -18.2385 N   0  0  0  0  0  0  0  0  0  0  0  0
   20.8396  -14.7176  -16.8789 C   0  0  1  0  0  0  0  0  0  0  0  0
   22.1849  -15.0294  -16.2577 C   0  0  0  0  0  0  0  0  0  0  0  0
   22.3476  -16.4966  -16.0564 C   0  0  0  0  0  0  0  0  0  0  0  0
   21.8745  -17.2767  -15.0323 C   0  0  0  0  0  0  0  0  0  0  0  0
   22.2720  -18.5362  -15.2822 N   0  0  0  0  0  0  0  0  0  0  0  0
   22.9674  -18.5639  -16.4124 C   0  0  0  0  0  0  0  0  0  0  0  0
   23.0135  -17.3109  -16.8879 N   0  0  0  0  0  0  0  0  0  0  0  0
   20.6508  -13.2555  -16.9889 C   0  0  0  0  0  0  0  0  0  0  0  0
   21.3469  -12.5761  -17.7916 O   0  0  0  0  0  0  0  0  0  0  0  0
   19.6916  -12.5416  -16.2108 N   0  0  0  0  0  0  0  0  0  0  0  0
   19.4564  -11.1380  -16.3113 C   0  0  1  0  0  0  0  0  0  0  0  0
   18.0781  -10.7114  -15.8330 C   0  0  0  0  0  0  0  0  0  0  0  0
   17.8985   -9.2571  -15.8677 C   0  0  0  0  0  0  0  0  0  0  0  0
   17.8996   -8.3414  -14.8351 C   0  0  0  0  0  0  0  0  0  0  0  0
   17.6976   -7.1177  -15.3269 N   0  0  0  0  0  0  0  0  0  0  0  0
   17.5674   -7.2385  -16.6602 C   0  0  0  0  0  0  0  0  0  0  0  0
   17.6893   -8.5321  -16.9828 N   0  0  0  0  0  0  0  0  0  0  0  0
   20.4840  -10.3411  -15.5610 C   0  0  0  0  0  0  0  0  0  0  0  0
   20.7456  -10.6544  -14.3723 O   0  0  0  0  0  0  0  0  0  0  0  0
   26.7746  -11.1232  -16.1578 C   0  0  0  0  0  0  0  0  0  0  0  0
   25.8730   -9.6092  -16.5703 S   0  0  0  0  0  0  0  0  0  0  0  0
   24.3685   -9.5466  -15.6004 C   0  0  0  0  0  0  0  0  0  0  0  0
   23.4219   -8.4778  -15.9896 C   0  0  0  0  0  0  0  0  0  0  0  0
   22.1359   -8.4603  -15.2767 C   0  0  2  0  0  0  0  0  0  0  0  0
   21.1714   -9.2557  -16.1269 N   0  0  0  0  0  0  0  0  0  0  0  0
   21.5715   -7.1283  -15.0859 C   0  0  0  0  0  0  0  0  0  0  0  0
   21.8706   -6.4117  -13.9058 O   0  0  0  0  0  0  0  0  0  0  0  0
   20.8292   -6.5359  -15.8790 O   0  0  0  0  0  0  0  0  0  0  0  0
  2  3  1  0
  2  1  1  6
  3  4  1  0
  4  8  1  0
  5  4  2  0
  5  6  1  0
  6  7  1  0
  8  7  2  0
  9 10  2  0
  9  2  1  0
 11  9  1  0
 12 11  1  0
 13 14  1  0
 12 13  1  1
 14 18  1  0
 14 15  2  0
 15 16  1  0
 17 16  1  0
 18 17  2  0
 19 20  2  0
 19 12  1  0
 22 21  1  0
 23 22  1  0
 25 24  1  6
 24 23  1  0
 25 26  1  0
 26 19  1  0
 27 25  1  0
 28 27  1  0
 29 27  2  0
M  END
$$$$
