EPL.pdb
     RDKit          3D

 25 25  0  0  1  0  0  0  0  0999 V2000
   10.3944  -14.2719   18.3551 N   0  0  0  0  0  0  0  0  0  0  0  0
   10.6855  -14.9522   19.5878 C   0  0  1  0  0  0  0  0  0  0  0  0
   11.8079  -14.1341   20.2532 C   0  0  0  0  0  0  0  0  0  0  0  0
   13.1087  -14.8051   19.9187 C   0  0  0  0  0  0  0  0  0  0  0  0
   14.2496  -14.2366   20.6692 C   0  0  0  0  0  0  0  0  0  0  0  0
   14.3383  -14.4234   21.8900 O   0  0  0  0  0  0  0  0  0  0  0  0
    9.5980  -15.0888   20.5357 C   0  0  0  0  0  0  0  0  0  0  0  0
    8.7294  -14.1478   20.5711 O   0  0  0  0  0  0  0  0  0  0  0  0
   15.2253  -13.4953   20.0280 O   0  0  0  0  0  0  0  0  0  0  0  0
    9.4114  -16.1644   21.4221 N   0  0  0  0  0  0  0  0  0  0  0  0
   10.2046  -17.3428   21.6821 C   0  0  0  0  0  0  0  0  0  0  0  0
    9.1573  -18.4461   21.7160 C   0  0  0  0  0  0  0  0  0  0  0  0
    7.9019  -17.7640   22.1402 C   0  0  0  0  0  0  0  0  0  0  0  0
    8.2608  -16.3197   22.3432 C   0  0  1  0  0  0  0  0  0  0  0  0
    8.6674  -16.0028   23.7272 C   0  0  0  0  0  0  0  0  0  0  0  0
    9.8521  -16.2290   24.1237 O   0  0  0  0  0  0  0  0  0  0  0  0
    8.0517  -12.0448   26.0274 C   0  0  0  0  0  0  0  0  0  0  0  0
    6.8051  -12.9442   25.9615 C   0  0  2  0  0  0  0  0  0  0  0  0
    5.6956  -12.1477   26.6096 C   0  0  0  0  0  0  0  0  0  0  0  0
    7.1666  -14.1962   26.6933 C   0  0  0  0  0  0  0  0  0  0  0  0
    8.1662  -15.0712   26.0098 C   0  0  2  0  0  0  0  0  0  0  0  0
    7.7646  -15.4375   24.6690 N   0  0  0  0  0  0  0  0  0  0  0  0
    8.5526  -16.2685   26.7809 C   0  0  0  0  0  0  0  0  0  0  0  0
    9.5322  -16.2441   27.7607 O   0  0  0  0  0  0  0  0  0  0  0  0
    7.9719  -17.3693   26.5453 O   0  0  0  0  0  0  0  0  0  0  0  0
  2  1  1  6
  3  2  1  0
  4  3  1  0
  5  4  1  0
  6  5  2  0
  7 10  1  0
  7  2  1  0
  8  7  2  0
  9  5  1  0
 10 14  1  0
 11 10  1  0
 11 12  1  0
 12 13  1  0
 14 13  1  0
 14 15  1  1
 15 22  1  0
 16 15  2  0
 18 19  1  1
 18 17  1  0
 20 18  1  0
 21 22  1  0
 21 20  1  1
 23 21  1  0
 23 24  1  0
 25 23  2  0
M  END
$$$$
