EPL.pdb
     RDKit          3D

 25 25  0  0  1  0  0  0  0  0999 V2000
   10.3207  -18.1651   19.0721 N   0  0  0  0  0  0  0  0  0  0  0  0
    9.1738  -17.5989   19.7284 C   0  0  1  0  0  0  0  0  0  0  0  0
    8.5605  -18.7490   20.5486 C   0  0  0  0  0  0  0  0  0  0  0  0
    9.0341  -20.0360   19.9375 C   0  0  0  0  0  0  0  0  0  0  0  0
    8.5912  -21.2232   20.7008 C   0  0  0  0  0  0  0  0  0  0  0  0
    7.3900  -21.5220   20.7326 O   0  0  0  0  0  0  0  0  0  0  0  0
    9.4117  -16.4807   20.6189 C   0  0  0  0  0  0  0  0  0  0  0  0
   10.6169  -16.2866   21.0072 O   0  0  0  0  0  0  0  0  0  0  0  0
    9.5001  -22.0104   21.3839 O   0  0  0  0  0  0  0  0  0  0  0  0
    8.4350  -15.5884   21.0959 N   0  0  0  0  0  0  0  0  0  0  0  0
    7.0039  -15.5417   20.9086 C   0  0  0  0  0  0  0  0  0  0  0  0
    6.7568  -14.0703   20.6104 C   0  0  0  0  0  0  0  0  0  0  0  0
    7.8712  -13.3531   21.2921 C   0  0  0  0  0  0  0  0  0  0  0  0
    8.7032  -14.4123   21.9569 C   0  0  1  0  0  0  0  0  0  0  0  0
    8.2960  -14.6939   23.3484 C   0  0  0  0  0  0  0  0  0  0  0  0
    7.3430  -15.4953   23.5964 O   0  0  0  0  0  0  0  0  0  0  0  0
    7.7300  -11.6882   26.5011 C   0  0  0  0  0  0  0  0  0  0  0  0
    6.8779  -12.7682   25.8119 C   0  0  2  0  0  0  0  0  0  0  0  0
    5.4465  -12.4528   26.1820 C   0  0  0  0  0  0  0  0  0  0  0  0
    7.3720  -14.0760   26.3404 C   0  0  0  0  0  0  0  0  0  0  0  0
    8.7041  -14.5129   25.8242 C   0  0  2  0  0  0  0  0  0  0  0  0
    8.9421  -14.0895   24.4614 N   0  0  0  0  0  0  0  0  0  0  0  0
    8.9689  -15.9569   25.9726 C   0  0  0  0  0  0  0  0  0  0  0  0
    9.4277  -16.7451   24.9294 O   0  0  0  0  0  0  0  0  0  0  0  0
    8.7715  -16.5092   27.0954 O   0  0  0  0  0  0  0  0  0  0  0  0
  2  1  1  1
  3  2  1  0
  4  3  1  0
  5  4  1  0
  6  5  2  0
  7 10  1  0
  7  2  1  0
  8  7  2  0
  9  5  1  0
 10 14  1  0
 11 10  1  0
 11 12  1  0
 12 13  1  0
 14 13  1  0
 14 15  1  1
 15 22  1  0
 16 15  2  0
 18 19  1  1
 18 17  1  0
 20 18  1  0
 21 22  1  0
 21 20  1  6
 23 21  1  0
 23 24  1  0
 25 23  2  0
M  END
$$$$
