EPL.pdb
     RDKit          3D

 25 25  0  0  1  0  0  0  0  0999 V2000
   11.0762  -16.8926   18.7785 N   0  0  0  0  0  0  0  0  0  0  0  0
   10.8620  -17.4285   20.0953 C   0  0  1  0  0  0  0  0  0  0  0  0
   12.2515  -17.4551   20.7589 C   0  0  0  0  0  0  0  0  0  0  0  0
   12.1379  -18.2916   22.0005 C   0  0  0  0  0  0  0  0  0  0  0  0
   13.4119  -18.3737   22.7477 C   0  0  0  0  0  0  0  0  0  0  0  0
   14.1518  -19.3552   22.5977 O   0  0  0  0  0  0  0  0  0  0  0  0
    9.9572  -16.7003   20.9619 C   0  0  0  0  0  0  0  0  0  0  0  0
   10.1878  -15.4521   21.1343 O   0  0  0  0  0  0  0  0  0  0  0  0
   13.7942  -17.3678   23.6163 O   0  0  0  0  0  0  0  0  0  0  0  0
    8.8466  -17.2435   21.6320 N   0  0  0  0  0  0  0  0  0  0  0  0
    8.4224  -18.6086   21.8371 C   0  0  0  0  0  0  0  0  0  0  0  0
    6.9335  -18.5423   21.5305 C   0  0  0  0  0  0  0  0  0  0  0  0
    6.5448  -17.1375   21.8410 C   0  0  0  0  0  0  0  0  0  0  0  0
    7.7952  -16.4549   22.3169 C   0  0  1  0  0  0  0  0  0  0  0  0
    7.9803  -16.5188   23.7808 C   0  0  0  0  0  0  0  0  0  0  0  0
    8.7323  -17.3987   24.3023 O   0  0  0  0  0  0  0  0  0  0  0  0
    8.5566  -12.5600   26.2770 C   0  0  0  0  0  0  0  0  0  0  0  0
    7.1250  -13.0623   26.0208 C   0  0  2  0  0  0  0  0  0  0  0  0
    6.2140  -11.9787   26.5510 C   0  0  0  0  0  0  0  0  0  0  0  0
    7.0138  -14.3640   26.7469 C   0  0  0  0  0  0  0  0  0  0  0  0
    7.6579  -15.5307   26.0719 C   0  0  2  0  0  0  0  0  0  0  0  0
    7.3342  -15.6110   24.6641 N   0  0  0  0  0  0  0  0  0  0  0  0
    7.4144  -16.8261   26.7350 C   0  0  0  0  0  0  0  0  0  0  0  0
    6.5016  -17.7524   26.2563 O   0  0  0  0  0  0  0  0  0  0  0  0
    8.0602  -17.1134   27.7862 O   0  0  0  0  0  0  0  0  0  0  0  0
  2  1  1  6
  3  2  1  0
  4  3  1  0
  5  4  1  0
  6  5  2  0
  7 10  1  0
  7  2  1  0
  8  7  2  0
  9  5  1  0
 10 14  1  0
 11 10  1  0
 11 12  1  0
 12 13  1  0
 14 13  1  0
 14 15  1  1
 15 22  1  0
 16 15  2  0
 18 19  1  1
 18 17  1  0
 20 18  1  0
 21 22  1  0
 21 20  1  1
 23 21  1  0
 23 24  1  0
 25 23  2  0
M  END
$$$$
