EPL.pdb
     RDKit          3D

 25 25  0  0  1  0  0  0  0  0999 V2000
   12.0757  -17.5692   19.0992 N   0  0  0  0  0  0  0  0  0  0  0  0
   11.3218  -17.6801   20.3184 C   0  0  1  0  0  0  0  0  0  0  0  0
   12.3700  -17.8041   21.4398 C   0  0  0  0  0  0  0  0  0  0  0  0
   12.0022  -19.0033   22.2649 C   0  0  0  0  0  0  0  0  0  0  0  0
   12.7181  -19.0427   23.5588 C   0  0  0  0  0  0  0  0  0  0  0  0
   12.0921  -18.8781   24.6144 O   0  0  0  0  0  0  0  0  0  0  0  0
   10.4339  -16.5822   20.6442 C   0  0  0  0  0  0  0  0  0  0  0  0
   10.8982  -15.3951   20.5167 O   0  0  0  0  0  0  0  0  0  0  0  0
   14.0827  -19.2613   23.6113 O   0  0  0  0  0  0  0  0  0  0  0  0
    9.1055  -16.7045   21.0891 N   0  0  0  0  0  0  0  0  0  0  0  0
    8.2720  -17.8616   21.3166 C   0  0  0  0  0  0  0  0  0  0  0  0
    6.9555  -17.4532   20.6722 C   0  0  0  0  0  0  0  0  0  0  0  0
    6.9388  -15.9652   20.7543 C   0  0  0  0  0  0  0  0  0  0  0  0
    8.2164  -15.5716   21.4391 C   0  0  1  0  0  0  0  0  0  0  0  0
    8.0873  -15.4572   22.9059 C   0  0  0  0  0  0  0  0  0  0  0  0
    8.1832  -16.4829   23.6479 O   0  0  0  0  0  0  0  0  0  0  0  0
    5.5779  -11.6339   26.9733 C   0  0  0  0  0  0  0  0  0  0  0  0
    6.6683  -12.7109   26.8366 C   0  0  2  0  0  0  0  0  0  0  0  0
    7.8709  -12.1663   27.5730 C   0  0  0  0  0  0  0  0  0  0  0  0
    6.8808  -12.8916   25.3682 C   0  0  0  0  0  0  0  0  0  0  0  0
    7.6792  -14.0931   24.9800 C   0  0  2  0  0  0  0  0  0  0  0  0
    7.8525  -14.2108   23.5485 N   0  0  0  0  0  0  0  0  0  0  0  0
    7.1832  -15.3612   25.5485 C   0  0  0  0  0  0  0  0  0  0  0  0
    7.8134  -16.0078   26.5996 O   0  0  0  0  0  0  0  0  0  0  0  0
    6.1393  -15.8897   25.0630 O   0  0  0  0  0  0  0  0  0  0  0  0
  2  1  1  6
  3  2  1  0
  4  3  1  0
  5  4  1  0
  6  5  2  0
  7 10  1  0
  7  2  1  0
  8  7  2  0
  9  5  1  0
 10 14  1  0
 11 10  1  0
 11 12  1  0
 12 13  1  0
 14 13  1  0
 14 15  1  1
 15 22  1  0
 16 15  2  0
 18 19  1  1
 18 17  1  0
 20 18  1  0
 21 22  1  0
 21 20  1  6
 23 21  1  0
 23 24  1  0
 25 23  2  0
M  END
$$$$
