EPL.pdb
     RDKit          3D

 25 25  0  0  1  0  0  0  0  0999 V2000
   11.9380  -17.0230   19.2167 N   0  0  0  0  0  0  0  0  0  0  0  0
   10.6625  -17.2435   19.8425 C   0  0  1  0  0  0  0  0  0  0  0  0
   10.8287  -18.5307   20.6715 C   0  0  0  0  0  0  0  0  0  0  0  0
   11.8062  -18.2312   21.7710 C   0  0  0  0  0  0  0  0  0  0  0  0
   11.9750  -19.3661   22.7046 C   0  0  0  0  0  0  0  0  0  0  0  0
   12.3493  -20.4658   22.2761 O   0  0  0  0  0  0  0  0  0  0  0  0
   10.1704  -16.1984   20.7175 C   0  0  0  0  0  0  0  0  0  0  0  0
   10.9605  -15.2210   20.9654 O   0  0  0  0  0  0  0  0  0  0  0  0
   11.7206  -19.2202   24.0562 O   0  0  0  0  0  0  0  0  0  0  0  0
    8.9004  -16.1622   21.3202 N   0  0  0  0  0  0  0  0  0  0  0  0
    7.8222  -17.1226   21.3458 C   0  0  0  0  0  0  0  0  0  0  0  0
    6.6019  -16.2580   21.0654 C   0  0  0  0  0  0  0  0  0  0  0  0
    6.9742  -14.9038   21.5640 C   0  0  0  0  0  0  0  0  0  0  0  0
    8.3660  -15.0307   22.1143 C   0  0  1  0  0  0  0  0  0  0  0  0
    8.4024  -15.3548   23.5548 C   0  0  0  0  0  0  0  0  0  0  0  0
    8.7259  -16.5169   23.9507 O   0  0  0  0  0  0  0  0  0  0  0  0
    7.7991  -11.3213   25.6574 C   0  0  0  0  0  0  0  0  0  0  0  0
    6.9789  -12.5041   26.2012 C   0  0  2  0  0  0  0  0  0  0  0  0
    6.0100  -11.9034   27.1940 C   0  0  0  0  0  0  0  0  0  0  0  0
    7.9708  -13.4438   26.8069 C   0  0  0  0  0  0  0  0  0  0  0  0
    8.3427  -14.6161   25.9589 C   0  0  2  0  0  0  0  0  0  0  0  0
    8.0813  -14.3949   24.5532 N   0  0  0  0  0  0  0  0  0  0  0  0
    7.7555  -15.8956   26.4007 C   0  0  0  0  0  0  0  0  0  0  0  0
    6.7681  -16.5532   25.6846 O   0  0  0  0  0  0  0  0  0  0  0  0
    8.1628  -16.4233   27.4778 O   0  0  0  0  0  0  0  0  0  0  0  0
  2  1  1  1
  3  2  1  0
  4  3  1  0
  5  4  1  0
  6  5  2  0
  7 10  1  0
  7  2  1  0
  8  7  2  0
  9  5  1  0
 10 14  1  0
 11 10  1  0
 11 12  1  0
 12 13  1  0
 14 13  1  0
 14 15  1  1
 15 22  1  0
 16 15  2  0
 18 19  1  1
 18 17  1  0
 20 18  1  0
 21 22  1  0
 21 20  1  1
 23 21  1  0
 23 24  1  0
 25 23  2  0
M  END
$$$$
