EPL.pdb
     RDKit          3D

 25 25  0  0  1  0  0  0  0  0999 V2000
    8.1887  -17.9223   19.3400 N   0  0  0  0  0  0  0  0  0  0  0  0
    8.6242  -18.2061   20.6805 C   0  0  1  0  0  0  0  0  0  0  0  0
   10.0811  -17.7123   20.7523 C   0  0  0  0  0  0  0  0  0  0  0  0
   10.8856  -18.5538   19.8042 C   0  0  0  0  0  0  0  0  0  0  0  0
   12.3178  -18.1841   19.7930 C   0  0  0  0  0  0  0  0  0  0  0  0
   13.1461  -18.9440   19.2738 O   0  0  0  0  0  0  0  0  0  0  0  0
    7.8796  -17.5866   21.7583 C   0  0  0  0  0  0  0  0  0  0  0  0
    7.2086  -16.5322   21.4771 O   0  0  0  0  0  0  0  0  0  0  0  0
   12.7514  -16.9974   20.3556 O   0  0  0  0  0  0  0  0  0  0  0  0
    7.8284  -18.0409   23.0882 N   0  0  0  0  0  0  0  0  0  0  0  0
    8.4742  -19.1506   23.7491 C   0  0  0  0  0  0  0  0  0  0  0  0
    7.3393  -19.7594   24.5594 C   0  0  0  0  0  0  0  0  0  0  0  0
    6.4075  -18.6254   24.8181 C   0  0  0  0  0  0  0  0  0  0  0  0
    7.0279  -17.4206   24.1703 C   0  0  1  0  0  0  0  0  0  0  0  0
    7.9033  -16.6500   25.0764 C   0  0  0  0  0  0  0  0  0  0  0  0
    9.1143  -16.9881   25.2521 O   0  0  0  0  0  0  0  0  0  0  0  0
    7.7454  -12.2571   24.6900 C   0  0  0  0  0  0  0  0  0  0  0  0
    6.8047  -12.7413   25.8073 C   0  0  2  0  0  0  0  0  0  0  0  0
    6.0377  -11.5165   26.2509 C   0  0  0  0  0  0  0  0  0  0  0  0
    7.6899  -13.3234   26.8616 C   0  0  0  0  0  0  0  0  0  0  0  0
    8.3273  -14.6288   26.5132 C   0  0  2  0  0  0  0  0  0  0  0  0
    7.4386  -15.5086   25.7856 N   0  0  0  0  0  0  0  0  0  0  0  0
    8.9317  -15.3343   27.6596 C   0  0  0  0  0  0  0  0  0  0  0  0
   10.0987  -14.9059   28.2718 O   0  0  0  0  0  0  0  0  0  0  0  0
    8.3692  -16.3759   28.1106 O   0  0  0  0  0  0  0  0  0  0  0  0
  2  1  1  6
  3  2  1  0
  4  3  1  0
  5  4  1  0
  6  5  2  0
  7 10  1  0
  7  2  1  0
  8  7  2  0
  9  5  1  0
 10 14  1  0
 11 10  1  0
 11 12  1  0
 12 13  1  0
 14 13  1  0
 14 15  1  1
 15 22  1  0
 16 15  2  0
 18 19  1  1
 18 17  1  0
 20 18  1  0
 21 22  1  0
 21 20  1  1
 23 21  1  0
 23 24  1  0
 25 23  2  0
M  END
$$$$
