EPL.pdb
     RDKit          3D

 25 25  0  0  1  0  0  0  0  0999 V2000
   11.7837  -17.7876   19.6012 N   0  0  0  0  0  0  0  0  0  0  0  0
   10.4158  -17.6214   20.0113 C   0  0  1  0  0  0  0  0  0  0  0  0
   10.0553  -18.9112   20.7716 C   0  0  0  0  0  0  0  0  0  0  0  0
   10.7889  -18.8781   22.0812 C   0  0  0  0  0  0  0  0  0  0  0  0
   10.4748  -20.0430   22.9370 C   0  0  0  0  0  0  0  0  0  0  0  0
    9.6423  -20.8781   22.5593 O   0  0  0  0  0  0  0  0  0  0  0  0
   10.1192  -16.4902   20.8670 C   0  0  0  0  0  0  0  0  0  0  0  0
   11.1118  -15.8033   21.2960 O   0  0  0  0  0  0  0  0  0  0  0  0
   11.0981  -20.2174   24.1592 O   0  0  0  0  0  0  0  0  0  0  0  0
    8.8360  -16.0790   21.2695 N   0  0  0  0  0  0  0  0  0  0  0  0
    7.5331  -16.6703   21.0739 C   0  0  0  0  0  0  0  0  0  0  0  0
    6.6859  -15.4758   20.6610 C   0  0  0  0  0  0  0  0  0  0  0  0
    7.3552  -14.3014   21.2887 C   0  0  0  0  0  0  0  0  0  0  0  0
    8.5377  -14.8468   22.0370 C   0  0  1  0  0  0  0  0  0  0  0  0
    8.2408  -15.1807   23.4448 C   0  0  0  0  0  0  0  0  0  0  0  0
    8.1864  -16.3900   23.8275 O   0  0  0  0  0  0  0  0  0  0  0  0
    6.2438  -12.4512   25.3734 C   0  0  0  0  0  0  0  0  0  0  0  0
    6.8147  -12.7303   26.7747 C   0  0  2  0  0  0  0  0  0  0  0  0
    6.5482  -11.4778   27.5781 C   0  0  0  0  0  0  0  0  0  0  0  0
    8.2650  -13.0295   26.5718 C   0  0  0  0  0  0  0  0  0  0  0  0
    8.5597  -14.2480   25.7594 C   0  0  2  0  0  0  0  0  0  0  0  0
    8.0048  -14.1783   24.4251 N   0  0  0  0  0  0  0  0  0  0  0  0
    8.1851  -15.5176   26.4114 C   0  0  0  0  0  0  0  0  0  0  0  0
    7.2795  -16.4065   25.8547 O   0  0  0  0  0  0  0  0  0  0  0  0
    8.7061  -15.8170   27.5265 O   0  0  0  0  0  0  0  0  0  0  0  0
  2  1  1  1
  3  2  1  0
  4  3  1  0
  5  4  1  0
  6  5  2  0
  7 10  1  0
  7  2  1  0
  8  7  2  0
  9  5  1  0
 10 14  1  0
 11 10  1  0
 11 12  1  0
 12 13  1  0
 14 13  1  0
 14 15  1  1
 15 22  1  0
 16 15  2  0
 18 19  1  1
 18 17  1  0
 20 18  1  0
 21 22  1  0
 21 20  1  1
 23 21  1  0
 23 24  1  0
 25 23  2  0
M  END
$$$$
