EPL.pdb
     RDKit          3D

 25 25  0  0  1  0  0  0  0  0999 V2000
   11.8050  -16.5647   19.0769 N   0  0  0  0  0  0  0  0  0  0  0  0
   11.0031  -17.0631   20.1611 C   0  0  1  0  0  0  0  0  0  0  0  0
   11.9603  -17.9015   21.0284 C   0  0  0  0  0  0  0  0  0  0  0  0
   11.1344  -18.5651   22.0923 C   0  0  0  0  0  0  0  0  0  0  0  0
   11.9257  -19.4953   22.9270 C   0  0  0  0  0  0  0  0  0  0  0  0
   13.1330  -19.6513   22.7002 O   0  0  0  0  0  0  0  0  0  0  0  0
   10.3621  -16.0795   21.0105 C   0  0  0  0  0  0  0  0  0  0  0  0
   11.0988  -15.1446   21.4841 O   0  0  0  0  0  0  0  0  0  0  0  0
   11.3379  -20.1985   23.9626 O   0  0  0  0  0  0  0  0  0  0  0  0
    9.0006  -16.0604   21.3621 N   0  0  0  0  0  0  0  0  0  0  0  0
    7.9434  -17.0232   21.1604 C   0  0  0  0  0  0  0  0  0  0  0  0
    6.7928  -16.1545   20.6740 C   0  0  0  0  0  0  0  0  0  0  0  0
    7.0550  -14.8120   21.2656 C   0  0  0  0  0  0  0  0  0  0  0  0
    8.3181  -14.9494   22.0667 C   0  0  1  0  0  0  0  0  0  0  0  0
    8.0829  -15.3082   23.4800 C   0  0  0  0  0  0  0  0  0  0  0  0
    8.0301  -16.5243   23.8409 O   0  0  0  0  0  0  0  0  0  0  0  0
    7.8245  -11.5903   26.6538 C   0  0  0  0  0  0  0  0  0  0  0  0
    6.6596  -12.4346   26.1081 C   0  0  2  0  0  0  0  0  0  0  0  0
    5.4017  -11.7593   26.6049 C   0  0  0  0  0  0  0  0  0  0  0  0
    6.8674  -13.8128   26.6477 C   0  0  0  0  0  0  0  0  0  0  0  0
    7.8492  -14.6527   25.8976 C   0  0  2  0  0  0  0  0  0  0  0  0
    7.9067  -14.3232   24.4900 N   0  0  0  0  0  0  0  0  0  0  0  0
    7.6719  -16.1057   26.0834 C   0  0  0  0  0  0  0  0  0  0  0  0
    6.8564  -16.8712   25.2654 O   0  0  0  0  0  0  0  0  0  0  0  0
    8.2852  -16.6875   27.0268 O   0  0  0  0  0  0  0  0  0  0  0  0
  2  1  1  6
  3  2  1  0
  4  3  1  0
  5  4  1  0
  6  5  2  0
  7 10  1  0
  7  2  1  0
  8  7  2  0
  9  5  1  0
 10 14  1  0
 11 10  1  0
 11 12  1  0
 12 13  1  0
 14 13  1  0
 14 15  1  1
 15 22  1  0
 16 15  2  0
 18 19  1  1
 18 17  1  0
 20 18  1  0
 21 22  1  0
 21 20  1  6
 23 21  1  0
 23 24  1  0
 25 23  2  0
M  END
$$$$
