EPL.pdb
     RDKit          3D

 25 25  0  0  1  0  0  0  0  0999 V2000
   11.8936  -16.9935   19.2376 N   0  0  0  0  0  0  0  0  0  0  0  0
   10.8542  -17.3832   20.1512 C   0  0  1  0  0  0  0  0  0  0  0  0
   11.5212  -18.3554   21.1419 C   0  0  0  0  0  0  0  0  0  0  0  0
   11.5682  -19.7034   20.4823 C   0  0  0  0  0  0  0  0  0  0  0  0
   12.1299  -20.7481   21.3661 C   0  0  0  0  0  0  0  0  0  0  0  0
   11.3761  -21.4162   22.0863 O   0  0  0  0  0  0  0  0  0  0  0  0
   10.2160  -16.3263   20.9100 C   0  0  0  0  0  0  0  0  0  0  0  0
   10.9183  -15.2881   21.1744 O   0  0  0  0  0  0  0  0  0  0  0  0
   13.4904  -20.9937   21.4030 O   0  0  0  0  0  0  0  0  0  0  0  0
    8.8918  -16.3395   21.3831 N   0  0  0  0  0  0  0  0  0  0  0  0
    7.8373  -17.3182   21.2578 C   0  0  0  0  0  0  0  0  0  0  0  0
    6.6327  -16.4624   20.8948 C   0  0  0  0  0  0  0  0  0  0  0  0
    6.9243  -15.1265   21.4876 C   0  0  0  0  0  0  0  0  0  0  0  0
    8.2568  -15.2551   22.1688 C   0  0  1  0  0  0  0  0  0  0  0  0
    8.1566  -15.6447   23.5898 C   0  0  0  0  0  0  0  0  0  0  0  0
    8.5372  -16.7924   23.9767 O   0  0  0  0  0  0  0  0  0  0  0  0
    8.1428  -11.7544   26.3860 C   0  0  0  0  0  0  0  0  0  0  0  0
    6.8746  -12.6141   26.2446 C   0  0  2  0  0  0  0  0  0  0  0  0
    5.7898  -11.8607   26.9800 C   0  0  0  0  0  0  0  0  0  0  0  0
    7.2123  -13.9404   26.8451 C   0  0  0  0  0  0  0  0  0  0  0  0
    8.0121  -14.8528   25.9734 C   0  0  2  0  0  0  0  0  0  0  0  0
    7.6362  -14.7658   24.5790 N   0  0  0  0  0  0  0  0  0  0  0  0
    8.0280  -16.2592   26.4196 C   0  0  0  0  0  0  0  0  0  0  0  0
    7.4816  -17.2887   25.6702 O   0  0  0  0  0  0  0  0  0  0  0  0
    8.5599  -16.5486   27.5322 O   0  0  0  0  0  0  0  0  0  0  0  0
  2  1  1  6
  3  2  1  0
  4  3  1  0
  5  4  1  0
  6  5  2  0
  7 10  1  0
  7  2  1  0
  8  7  2  0
  9  5  1  0
 10 14  1  0
 11 10  1  0
 11 12  1  0
 12 13  1  0
 14 13  1  0
 14 15  1  1
 15 22  1  0
 16 15  2  0
 18 19  1  1
 18 17  1  0
 20 18  1  0
 21 22  1  0
 21 20  1  1
 23 21  1  0
 23 24  1  0
 25 23  2  0
M  END
$$$$
