EPL.pdb
     RDKit          3D

 25 25  0  0  1  0  0  0  0  0999 V2000
   11.7837  -17.2824   19.0637 N   0  0  0  0  0  0  0  0  0  0  0  0
   10.9523  -17.5576   20.2038 C   0  0  1  0  0  0  0  0  0  0  0  0
   11.9116  -18.0538   21.3016 C   0  0  0  0  0  0  0  0  0  0  0  0
   11.4907  -19.4480   21.6664 C   0  0  0  0  0  0  0  0  0  0  0  0
   12.3157  -20.0243   22.7505 C   0  0  0  0  0  0  0  0  0  0  0  0
   12.2206  -21.2283   23.0234 O   0  0  0  0  0  0  0  0  0  0  0  0
   10.1819  -16.4523   20.7374 C   0  0  0  0  0  0  0  0  0  0  0  0
   10.8155  -15.3719   21.0063 O   0  0  0  0  0  0  0  0  0  0  0  0
   13.1972  -19.2376   23.4695 O   0  0  0  0  0  0  0  0  0  0  0  0
    8.7981  -16.4606   20.9872 N   0  0  0  0  0  0  0  0  0  0  0  0
    7.8096  -17.5081   20.8809 C   0  0  0  0  0  0  0  0  0  0  0  0
    6.6579  -16.8064   20.1765 C   0  0  0  0  0  0  0  0  0  0  0  0
    6.8053  -15.3704   20.5472 C   0  0  0  0  0  0  0  0  0  0  0  0
    8.0076  -15.2931   21.4441 C   0  0  1  0  0  0  0  0  0  0  0  0
    7.6818  -15.4262   22.8785 C   0  0  0  0  0  0  0  0  0  0  0  0
    8.0277  -16.4597   23.5296 O   0  0  0  0  0  0  0  0  0  0  0  0
    6.1173  -13.1079   27.5625 C   0  0  0  0  0  0  0  0  0  0  0  0
    7.0455  -12.2347   26.7003 C   0  0  2  0  0  0  0  0  0  0  0  0
    6.6434  -10.8066   26.9901 C   0  0  0  0  0  0  0  0  0  0  0  0
    6.8100  -12.6614   25.2874 C   0  0  0  0  0  0  0  0  0  0  0  0
    7.3332  -14.0147   24.9317 C   0  0  2  0  0  0  0  0  0  0  0  0
    6.9750  -14.4177   23.5891 N   0  0  0  0  0  0  0  0  0  0  0  0
    6.9880  -15.0729   25.9003 C   0  0  0  0  0  0  0  0  0  0  0  0
    5.8462  -15.8496   25.7855 O   0  0  0  0  0  0  0  0  0  0  0  0
    7.7598  -15.2884   26.8814 O   0  0  0  0  0  0  0  0  0  0  0  0
  2  1  1  6
  3  2  1  0
  4  3  1  0
  5  4  1  0
  6  5  2  0
  7 10  1  0
  7  2  1  0
  8  7  2  0
  9  5  1  0
 10 14  1  0
 11 10  1  0
 11 12  1  0
 12 13  1  0
 14 13  1  0
 14 15  1  1
 15 22  1  0
 16 15  2  0
 18 19  1  6
 18 17  1  0
 20 18  1  0
 21 22  1  0
 21 20  1  1
 23 21  1  0
 23 24  1  0
 25 23  2  0
M  END
$$$$
