GEV.pdb
     RDKit          3D

 21 20  0  0  1  0  0  0  0  0999 V2000
    7.4756  -12.9746   18.2961 N   0  0  0  0  0  0  0  0  0  0  0  0
    8.5139  -13.2435   19.2482 C   0  0  0  0  0  0  0  0  0  0  0  0
    7.9601  -13.9159   20.4766 C   0  0  0  0  0  0  0  0  0  0  0  0
    6.7167  -13.9524   20.6333 O   0  0  0  0  0  0  0  0  0  0  0  0
    8.8243  -14.4970   21.4383 N   0  0  0  0  0  0  0  0  0  0  0  0
    8.3902  -15.2995   22.5582 C   0  0  1  0  0  0  0  0  0  0  0  0
    8.9861  -16.6578   22.5215 C   0  0  0  0  0  0  0  0  0  0  0  0
    8.9516  -17.3543   21.2078 C   0  0  0  0  0  0  0  0  0  0  0  0
   10.1273  -18.1559   20.8712 C   0  0  0  0  0  0  0  0  0  0  0  0
   10.4239  -19.1870   21.5280 O   0  0  0  0  0  0  0  0  0  0  0  0
    8.7681  -14.5980   23.8342 C   0  0  0  0  0  0  0  0  0  0  0  0
    9.9554  -14.2301   23.9933 O   0  0  0  0  0  0  0  0  0  0  0  0
   10.9659  -17.8203   19.8185 O   0  0  0  0  0  0  0  0  0  0  0  0
    7.1458  -11.5342   25.4650 C   0  0  0  0  0  0  0  0  0  0  0  0
    7.1942  -12.6425   26.4914 C   0  0  1  0  0  0  0  0  0  0  0  0
    5.8254  -13.2675   26.6412 C   0  0  0  0  0  0  0  0  0  0  0  0
    8.2234  -13.6600   26.0445 C   0  0  2  0  0  0  0  0  0  0  0  0
    7.8138  -14.3484   24.8491 N   0  0  0  0  0  0  0  0  0  0  0  0
    8.3959  -14.6714   27.1156 C   0  0  0  0  0  0  0  0  0  0  0  0
    9.0437  -14.3945   28.3139 O   0  0  0  0  0  0  0  0  0  0  0  0
    7.9568  -15.8374   26.9802 O   0  0  0  0  0  0  0  0  0  0  0  0
  2  1  1  0
  3  4  2  0
  3  2  1  0
  5  3  1  0
  6  5  1  0
  6 11  1  0
  6  7  1  1
  8  9  1  0
  8  7  1  0
  9 13  1  0
 10  9  2  0
 11 12  2  0
 15 14  1  6
 15 16  1  0
 17 15  1  0
 18 11  1  0
 17 18  1  6
 19 20  1  0
 19 17  1  0
 21 19  2  0
M  END
$$$$
