GEV.pdb
     RDKit          3D

 21 20  0  0  1  0  0  0  0  0999 V2000
    7.2088  -16.2364   18.5834 N   0  0  0  0  0  0  0  0  0  0  0  0
    7.9121  -15.3695   19.4837 C   0  0  0  0  0  0  0  0  0  0  0  0
    7.8820  -15.9102   20.8890 C   0  0  0  0  0  0  0  0  0  0  0  0
    6.8157  -16.4109   21.3180 O   0  0  0  0  0  0  0  0  0  0  0  0
    9.0344  -15.8559   21.7127 N   0  0  0  0  0  0  0  0  0  0  0  0
    9.1107  -16.3754   23.0584 C   0  0  1  0  0  0  0  0  0  0  0  0
   10.2655  -17.2917   23.2264 C   0  0  0  0  0  0  0  0  0  0  0  0
   10.2429  -18.5332   22.4078 C   0  0  0  0  0  0  0  0  0  0  0  0
   11.4222  -19.3921   22.5050 C   0  0  0  0  0  0  0  0  0  0  0  0
   11.7706  -20.1326   21.5496 O   0  0  0  0  0  0  0  0  0  0  0  0
    9.2149  -15.2225   24.0191 C   0  0  0  0  0  0  0  0  0  0  0  0
   10.1516  -14.4019   23.8798 O   0  0  0  0  0  0  0  0  0  0  0  0
   12.2080  -19.4312   23.6474 O   0  0  0  0  0  0  0  0  0  0  0  0
    7.2674  -11.9817   26.9684 C   0  0  0  0  0  0  0  0  0  0  0  0
    7.0719  -13.1543   26.0352 C   0  0  1  0  0  0  0  0  0  0  0  0
    6.5918  -12.6666   24.6868 C   0  0  0  0  0  0  0  0  0  0  0  0
    8.3876  -13.8961   25.9213 C   0  0  2  0  0  0  0  0  0  0  0  0
    8.2811  -15.0502   25.0686 N   0  0  0  0  0  0  0  0  0  0  0  0
    8.7948  -14.3622   27.2692 C   0  0  0  0  0  0  0  0  0  0  0  0
    9.4471  -13.5426   28.1829 O   0  0  0  0  0  0  0  0  0  0  0  0
    8.5632  -15.5352   27.6446 O   0  0  0  0  0  0  0  0  0  0  0  0
  2  1  1  0
  3  4  2  0
  3  2  1  0
  5  3  1  0
  6  5  1  0
  6 11  1  0
  6  7  1  6
  8  9  1  0
  8  7  1  0
  9 13  1  0
 10  9  2  0
 11 12  2  0
 15 14  1  1
 15 16  1  0
 17 15  1  0
 18 11  1  0
 17 18  1  6
 19 20  1  0
 19 17  1  0
 21 19  2  0
M  END
$$$$
