GEV.pdb
     RDKit          3D

 21 20  0  0  1  0  0  0  0  0999 V2000
    6.9775  -16.4299   18.6954 N   0  0  0  0  0  0  0  0  0  0  0  0
    7.9634  -16.3521   19.7341 C   0  0  0  0  0  0  0  0  0  0  0  0
    7.3143  -16.2792   21.0911 C   0  0  0  0  0  0  0  0  0  0  0  0
    6.0982  -15.9823   21.1609 O   0  0  0  0  0  0  0  0  0  0  0  0
    8.0603  -16.5406   22.2678 N   0  0  0  0  0  0  0  0  0  0  0  0
    7.5211  -16.5166   23.6077 C   0  0  1  0  0  0  0  0  0  0  0  0
    7.6847  -17.8258   24.2867 C   0  0  0  0  0  0  0  0  0  0  0  0
    7.2128  -17.8981   25.6952 C   0  0  0  0  0  0  0  0  0  0  0  0
    7.4277  -19.1702   26.3835 C   0  0  0  0  0  0  0  0  0  0  0  0
    7.9902  -20.1368   25.8075 O   0  0  0  0  0  0  0  0  0  0  0  0
    8.2115  -15.4329   24.3900 C   0  0  0  0  0  0  0  0  0  0  0  0
    9.4443  -15.2685   24.2372 O   0  0  0  0  0  0  0  0  0  0  0  0
    7.0247  -19.3706   27.6955 O   0  0  0  0  0  0  0  0  0  0  0  0
    7.0201  -11.6960   25.0271 C   0  0  0  0  0  0  0  0  0  0  0  0
    7.3357  -12.3943   26.3298 C   0  0  1  0  0  0  0  0  0  0  0  0
    6.0540  -12.8024   27.0205 C   0  0  0  0  0  0  0  0  0  0  0  0
    8.2096  -13.5938   26.0270 C   0  0  2  0  0  0  0  0  0  0  0  0
    7.4986  -14.6031   25.2878 N   0  0  0  0  0  0  0  0  0  0  0  0
    8.6576  -14.1972   27.3057 C   0  0  0  0  0  0  0  0  0  0  0  0
    9.5689  -13.5759   28.1518 O   0  0  0  0  0  0  0  0  0  0  0  0
    8.2249  -15.3119   27.6809 O   0  0  0  0  0  0  0  0  0  0  0  0
  2  1  1  0
  3  4  2  0
  3  2  1  0
  5  3  1  0
  6  5  1  0
  6 11  1  0
  6  7  1  1
  8  9  1  0
  8  7  1  0
  9 13  1  0
 10  9  2  0
 11 12  2  0
 15 14  1  6
 15 16  1  0
 17 15  1  0
 18 11  1  0
 17 18  1  1
 19 20  1  0
 19 17  1  0
 21 19  2  0
M  END
$$$$
