GEV.pdb
     RDKit          3D

 21 20  0  0  1  0  0  0  0  0999 V2000
    5.7843  -16.1094   19.3441 N   0  0  0  0  0  0  0  0  0  0  0  0
    6.6426  -15.1702   20.0061 C   0  0  0  0  0  0  0  0  0  0  0  0
    6.9587  -15.6216   21.4076 C   0  0  0  0  0  0  0  0  0  0  0  0
    6.0234  -16.0404   22.1300 O   0  0  0  0  0  0  0  0  0  0  0  0
    8.2860  -15.5754   21.9033 N   0  0  0  0  0  0  0  0  0  0  0  0
    8.6880  -16.0024   23.2234 C   0  0  1  0  0  0  0  0  0  0  0  0
    9.9353  -16.8049   23.1826 C   0  0  0  0  0  0  0  0  0  0  0  0
   10.4124  -17.3431   24.4844 C   0  0  0  0  0  0  0  0  0  0  0  0
   11.6466  -18.1263   24.4458 C   0  0  0  0  0  0  0  0  0  0  0  0
   11.9183  -18.9608   25.3472 O   0  0  0  0  0  0  0  0  0  0  0  0
    8.8769  -14.7877   24.0905 C   0  0  0  0  0  0  0  0  0  0  0  0
    9.7202  -13.9261   23.7491 O   0  0  0  0  0  0  0  0  0  0  0  0
   12.5704  -17.9880   23.4203 O   0  0  0  0  0  0  0  0  0  0  0  0
    6.9517  -11.8958   24.9206 C   0  0  0  0  0  0  0  0  0  0  0  0
    7.2030  -12.5585   26.2556 C   0  0  1  0  0  0  0  0  0  0  0  0
    5.9744  -13.3249   26.6909 C   0  0  0  0  0  0  0  0  0  0  0  0
    8.4051  -13.4693   26.1157 C   0  0  2  0  0  0  0  0  0  0  0  0
    8.1247  -14.6030   25.2751 N   0  0  0  0  0  0  0  0  0  0  0  0
    8.7806  -13.9790   27.4570 C   0  0  0  0  0  0  0  0  0  0  0  0
    8.7193  -15.3263   27.7935 O   0  0  0  0  0  0  0  0  0  0  0  0
    9.1748  -13.2010   28.3569 O   0  0  0  0  0  0  0  0  0  0  0  0
  2  1  1  0
  3  4  2  0
  3  2  1  0
  5  3  1  0
  6  5  1  0
  6 11  1  0
  6  7  1  6
  8  9  1  0
  8  7  1  0
  9 13  1  0
 10  9  2  0
 11 12  2  0
 15 14  1  6
 15 16  1  0
 17 15  1  0
 18 11  1  0
 17 18  1  6
 19 20  1  0
 19 17  1  0
 21 19  2  0
M  END
$$$$
