GEV.pdb
     RDKit          3D

 21 20  0  0  1  0  0  0  0  0999 V2000
    7.6992  -12.7357   18.4840 N   0  0  0  0  0  0  0  0  0  0  0  0
    8.7579  -13.2619   19.2959 C   0  0  0  0  0  0  0  0  0  0  0  0
    8.2118  -14.1181   20.4079 C   0  0  0  0  0  0  0  0  0  0  0  0
    6.9710  -14.1574   20.5828 O   0  0  0  0  0  0  0  0  0  0  0  0
    9.0805  -14.8660   21.2419 N   0  0  0  0  0  0  0  0  0  0  0  0
    8.6525  -15.6960   22.3440 C   0  0  1  0  0  0  0  0  0  0  0  0
    9.3443  -17.0087   22.3410 C   0  0  0  0  0  0  0  0  0  0  0  0
    9.2309  -17.8075   21.0916 C   0  0  0  0  0  0  0  0  0  0  0  0
    9.1004  -19.2541   21.2599 C   0  0  0  0  0  0  0  0  0  0  0  0
    9.5489  -19.8353   22.2815 O   0  0  0  0  0  0  0  0  0  0  0  0
    8.9199  -14.9680   23.6330 C   0  0  0  0  0  0  0  0  0  0  0  0
   10.0531  -14.4675   23.8211 O   0  0  0  0  0  0  0  0  0  0  0  0
    8.4798  -20.0495   20.3079 O   0  0  0  0  0  0  0  0  0  0  0  0
    7.3343  -12.4920   27.4892 C   0  0  0  0  0  0  0  0  0  0  0  0
    7.0021  -13.2005   26.1960 C   0  0  1  0  0  0  0  0  0  0  0  0
    6.6582  -12.1884   25.1265 C   0  0  0  0  0  0  0  0  0  0  0  0
    8.1937  -14.0465   25.7976 C   0  0  2  0  0  0  0  0  0  0  0  0
    7.9219  -14.8397   24.6282 N   0  0  0  0  0  0  0  0  0  0  0  0
    8.5194  -14.9722   26.9098 C   0  0  0  0  0  0  0  0  0  0  0  0
    9.3633  -14.6215   27.9572 O   0  0  0  0  0  0  0  0  0  0  0  0
    8.0384  -16.1287   26.9498 O   0  0  0  0  0  0  0  0  0  0  0  0
  2  1  1  0
  3  4  2  0
  3  2  1  0
  5  3  1  0
  6  5  1  0
  6 11  1  0
  6  7  1  1
  8  9  1  0
  8  7  1  0
  9 13  1  0
 10  9  2  0
 11 12  2  0
 15 14  1  1
 15 16  1  0
 17 15  1  0
 18 11  1  0
 17 18  1  6
 19 20  1  0
 19 17  1  0
 21 19  2  0
M  END
$$$$
