GEV.pdb
     RDKit          3D

 21 20  0  0  1  0  0  0  0  0999 V2000
    7.2771  -12.9879   18.5064 N   0  0  0  0  0  0  0  0  0  0  0  0
    8.4251  -13.5127   19.1873 C   0  0  0  0  0  0  0  0  0  0  0  0
    8.0316  -14.1654   20.4862 C   0  0  0  0  0  0  0  0  0  0  0  0
    6.8477  -14.0508   20.8824 O   0  0  0  0  0  0  0  0  0  0  0  0
    8.9783  -14.8956   21.2479 N   0  0  0  0  0  0  0  0  0  0  0  0
    8.6590  -15.7107   22.3970 C   0  0  1  0  0  0  0  0  0  0  0  0
    9.4640  -16.9568   22.4243 C   0  0  0  0  0  0  0  0  0  0  0  0
    9.0321  -18.0377   21.4985 C   0  0  0  0  0  0  0  0  0  0  0  0
    9.9839  -18.4107   20.4531 C   0  0  0  0  0  0  0  0  0  0  0  0
    9.6526  -19.1776   19.5125 O   0  0  0  0  0  0  0  0  0  0  0  0
    8.8995  -14.9063   23.6452 C   0  0  0  0  0  0  0  0  0  0  0  0
    9.9911  -14.3051   23.7764 O   0  0  0  0  0  0  0  0  0  0  0  0
   11.2887  -17.9399   20.4482 O   0  0  0  0  0  0  0  0  0  0  0  0
    7.3355  -12.3103   27.3897 C   0  0  0  0  0  0  0  0  0  0  0  0
    6.9756  -13.1485   26.1846 C   0  0  1  0  0  0  0  0  0  0  0  0
    6.5516  -12.2540   25.0415 C   0  0  0  0  0  0  0  0  0  0  0  0
    8.1791  -13.9903   25.8141 C   0  0  2  0  0  0  0  0  0  0  0  0
    7.9223  -14.8176   24.6651 N   0  0  0  0  0  0  0  0  0  0  0  0
    8.5107  -14.8820   26.9520 C   0  0  0  0  0  0  0  0  0  0  0  0
    9.2458  -14.4555   28.0520 O   0  0  0  0  0  0  0  0  0  0  0  0
    8.1348  -16.0773   26.9671 O   0  0  0  0  0  0  0  0  0  0  0  0
  2  1  1  0
  3  4  2  0
  3  2  1  0
  5  3  1  0
  6  5  1  0
  6 11  1  0
  6  7  1  1
  8  9  1  0
  8  7  1  0
  9 13  1  0
 10  9  2  0
 11 12  2  0
 15 14  1  1
 15 16  1  0
 17 15  1  0
 18 11  1  0
 17 18  1  6
 19 20  1  0
 19 17  1  0
 21 19  2  0
M  END
$$$$
