GEV.pdb
     RDKit          3D

 21 20  0  0  1  0  0  0  0  0999 V2000
    7.5389  -12.9108   18.5933 N   0  0  0  0  0  0  0  0  0  0  0  0
    8.6582  -13.3411   19.3799 C   0  0  0  0  0  0  0  0  0  0  0  0
    8.2057  -14.1509   20.5663 C   0  0  0  0  0  0  0  0  0  0  0  0
    6.9840  -14.1762   20.8466 O   0  0  0  0  0  0  0  0  0  0  0  0
    9.1398  -14.8715   21.3523 N   0  0  0  0  0  0  0  0  0  0  0  0
    8.7994  -15.6884   22.4940 C   0  0  1  0  0  0  0  0  0  0  0  0
    9.6174  -16.9253   22.5450 C   0  0  0  0  0  0  0  0  0  0  0  0
    9.3982  -17.9029   21.4458 C   0  0  0  0  0  0  0  0  0  0  0  0
   10.5657  -18.6785   21.0294 C   0  0  0  0  0  0  0  0  0  0  0  0
   11.1335  -19.4774   21.8181 O   0  0  0  0  0  0  0  0  0  0  0  0
    8.9977  -14.8794   23.7467 C   0  0  0  0  0  0  0  0  0  0  0  0
   10.0743  -14.2568   23.9005 O   0  0  0  0  0  0  0  0  0  0  0  0
   11.0994  -18.5715   19.7536 O   0  0  0  0  0  0  0  0  0  0  0  0
    7.2367  -12.2616   27.3879 C   0  0  0  0  0  0  0  0  0  0  0  0
    6.9508  -13.1275   26.1825 C   0  0  1  0  0  0  0  0  0  0  0  0
    6.5492  -12.2625   25.0091 C   0  0  0  0  0  0  0  0  0  0  0  0
    8.1920  -13.9393   25.8749 C   0  0  2  0  0  0  0  0  0  0  0  0
    7.9978  -14.8100   24.7458 N   0  0  0  0  0  0  0  0  0  0  0  0
    8.5175  -14.7837   27.0500 C   0  0  0  0  0  0  0  0  0  0  0  0
    9.2358  -14.3088   28.1413 O   0  0  0  0  0  0  0  0  0  0  0  0
    8.1517  -15.9810   27.1067 O   0  0  0  0  0  0  0  0  0  0  0  0
  2  1  1  0
  3  4  2  0
  3  2  1  0
  5  3  1  0
  6  5  1  0
  6 11  1  0
  6  7  1  1
  8  9  1  0
  8  7  1  0
  9 13  1  0
 10  9  2  0
 11 12  2  0
 15 14  1  1
 15 16  1  0
 17 15  1  0
 18 11  1  0
 17 18  1  6
 19 20  1  0
 19 17  1  0
 21 19  2  0
M  END
$$$$
