GEV.pdb
     RDKit          3D

 21 20  0  0  1  0  0  0  0  0999 V2000
    5.3004  -16.6476   19.6445 N   0  0  0  0  0  0  0  0  0  0  0  0
    6.1924  -15.6468   20.1542 C   0  0  0  0  0  0  0  0  0  0  0  0
    6.6761  -16.0061   21.5344 C   0  0  0  0  0  0  0  0  0  0  0  0
    5.8288  -16.1861   22.4407 O   0  0  0  0  0  0  0  0  0  0  0  0
    8.0609  -16.1392   21.8066 N   0  0  0  0  0  0  0  0  0  0  0  0
    8.6183  -16.4818   23.0945 C   0  0  1  0  0  0  0  0  0  0  0  0
    9.9342  -17.1542   22.9596 C   0  0  0  0  0  0  0  0  0  0  0  0
   10.6314  -17.4926   24.2290 C   0  0  0  0  0  0  0  0  0  0  0  0
   11.9263  -18.1589   24.0964 C   0  0  0  0  0  0  0  0  0  0  0  0
   12.6114  -18.4607   25.1074 O   0  0  0  0  0  0  0  0  0  0  0  0
    8.7544  -15.2279   23.9143 C   0  0  0  0  0  0  0  0  0  0  0  0
    9.4004  -14.2636   23.4420 O   0  0  0  0  0  0  0  0  0  0  0  0
   12.4575  -18.4881   22.8580 O   0  0  0  0  0  0  0  0  0  0  0  0
    7.1113  -12.0655   27.0885 C   0  0  0  0  0  0  0  0  0  0  0  0
    6.9219  -13.2530   26.1730 C   0  0  1  0  0  0  0  0  0  0  0  0
    6.2624  -12.8124   24.8856 C   0  0  0  0  0  0  0  0  0  0  0  0
    8.2780  -13.8773   25.9170 C   0  0  2  0  0  0  0  0  0  0  0  0
    8.1701  -15.1195   25.1988 N   0  0  0  0  0  0  0  0  0  0  0  0
    8.9306  -14.1595   27.2187 C   0  0  0  0  0  0  0  0  0  0  0  0
    9.5800  -13.1807   27.9620 O   0  0  0  0  0  0  0  0  0  0  0  0
    8.9228  -15.3128   27.7089 O   0  0  0  0  0  0  0  0  0  0  0  0
  2  1  1  0
  3  4  2  0
  3  2  1  0
  5  3  1  0
  6  5  1  0
  6 11  1  0
  6  7  1  6
  8  9  1  0
  8  7  1  0
  9 13  1  0
 10  9  2  0
 11 12  2  0
 15 14  1  1
 15 16  1  0
 17 15  1  0
 18 11  1  0
 17 18  1  1
 19 20  1  0
 19 17  1  0
 21 19  2  0
M  END
$$$$
