GEV.pdb
     RDKit          3D

 21 20  0  0  1  0  0  0  0  0999 V2000
    7.3241  -12.7851   18.3700 N   0  0  0  0  0  0  0  0  0  0  0  0
    8.4806  -13.1483   19.1364 C   0  0  0  0  0  0  0  0  0  0  0  0
    8.0916  -13.9224   20.3682 C   0  0  0  0  0  0  0  0  0  0  0  0
    6.8840  -13.9511   20.7041 O   0  0  0  0  0  0  0  0  0  0  0  0
    9.0686  -14.6060   21.1348 N   0  0  0  0  0  0  0  0  0  0  0  0
    8.7772  -15.5206   22.2143 C   0  0  1  0  0  0  0  0  0  0  0  0
    9.6384  -16.7276   22.1562 C   0  0  0  0  0  0  0  0  0  0  0  0
    9.4620  -17.7133   23.2558 C   0  0  0  0  0  0  0  0  0  0  0  0
   10.3506  -18.8743   23.2306 C   0  0  0  0  0  0  0  0  0  0  0  0
   10.8042  -19.3254   22.1474 O   0  0  0  0  0  0  0  0  0  0  0  0
    8.9696  -14.8046   23.5232 C   0  0  0  0  0  0  0  0  0  0  0  0
   10.0064  -14.1214   23.6922 O   0  0  0  0  0  0  0  0  0  0  0  0
   10.7334  -19.5293   24.3918 O   0  0  0  0  0  0  0  0  0  0  0  0
    7.1894  -12.6486   27.4487 C   0  0  0  0  0  0  0  0  0  0  0  0
    6.9410  -13.3465   26.1313 C   0  0  1  0  0  0  0  0  0  0  0  0
    6.5698  -12.3331   25.0722 C   0  0  0  0  0  0  0  0  0  0  0  0
    8.1934  -14.1105   25.7543 C   0  0  2  0  0  0  0  0  0  0  0  0
    8.0079  -14.8885   24.5581 N   0  0  0  0  0  0  0  0  0  0  0  0
    8.5371  -15.0433   26.8551 C   0  0  0  0  0  0  0  0  0  0  0  0
    9.1772  -14.6306   28.0179 O   0  0  0  0  0  0  0  0  0  0  0  0
    8.2594  -16.2629   26.7790 O   0  0  0  0  0  0  0  0  0  0  0  0
  2  1  1  0
  3  4  2  0
  3  2  1  0
  5  3  1  0
  6  5  1  0
  6 11  1  0
  6  7  1  1
  8  9  1  0
  8  7  1  0
  9 13  1  0
 10  9  2  0
 11 12  2  0
 15 14  1  1
 15 16  1  0
 17 15  1  0
 18 11  1  0
 17 18  1  6
 19 20  1  0
 19 17  1  0
 21 19  2  0
M  END
$$$$
