IFK.pdb
     RDKit          3D

 29 29  0  0  1  0  0  0  0  0999 V2000
    7.7158  -20.4057   19.0137 C   0  0  0  0  0  0  0  0  0  0  0  0
    7.5696  -18.9067   18.8827 C   0  0  0  0  0  0  0  0  0  0  0  0
    8.0691  -18.1818   20.0990 C   0  0  2  0  0  0  0  0  0  0  0  0
    7.3119  -18.6969   21.3026 C   0  0  0  0  0  0  0  0  0  0  0  0
    7.8822  -16.6768   19.9760 C   0  0  2  0  0  0  0  0  0  0  0  0
    8.6331  -16.1926   18.8380 N   0  0  0  0  0  0  0  0  0  0  0  0
    8.3425  -15.9799   21.1841 C   0  0  0  0  0  0  0  0  0  0  0  0
    9.5630  -15.8942   21.4483 O   0  0  0  0  0  0  0  0  0  0  0  0
    7.4513  -15.3659   22.1197 N   0  0  0  0  0  0  0  0  0  0  0  0
    7.9515  -14.7858   23.3542 C   0  0  1  0  0  0  0  0  0  0  0  0
    6.8973  -13.7609   23.7863 C   0  0  0  0  0  0  0  0  0  0  0  0
    7.1929  -13.2106   25.1138 C   0  0  0  0  0  0  0  0  0  0  0  0
    8.4046  -12.6192   25.4028 C   0  0  0  0  0  0  0  0  0  0  0  0
    8.6606  -12.1100   26.6544 C   0  0  0  0  0  0  0  0  0  0  0  0
    7.7385  -12.1596   27.6752 C   0  0  0  0  0  0  0  0  0  0  0  0
    6.5208  -12.7469   27.4064 C   0  0  0  0  0  0  0  0  0  0  0  0
    6.2604  -13.2575   26.1562 C   0  0  0  0  0  0  0  0  0  0  0  0
    8.1424  -15.7998   24.4016 C   0  0  0  0  0  0  0  0  0  0  0  0
    7.2149  -16.5065   24.8767 O   0  0  0  0  0  0  0  0  0  0  0  0
    9.4411  -16.0140   24.9255 N   0  0  0  0  0  0  0  0  0  0  0  0
    9.7949  -17.1716   25.7409 C   0  0  1  0  0  0  0  0  0  0  0  0
   11.0959  -17.7562   25.3483 C   0  0  0  0  0  0  0  0  0  0  0  0
   11.5039  -18.8970   26.2350 C   0  0  0  0  0  0  0  0  0  0  0  0
   12.8502  -19.4754   25.8780 C   0  0  0  0  0  0  0  0  0  0  0  0
   13.2507  -20.5961   26.7831 C   0  0  0  0  0  0  0  0  0  0  0  0
   14.6104  -21.0068   26.4901 N   0  0  0  0  0  0  0  0  0  0  0  0
    9.8194  -16.7343   27.1485 C   0  0  0  0  0  0  0  0  0  0  0  0
   10.2731  -15.4932   27.5882 O   0  0  0  0  0  0  0  0  0  0  0  0
    9.3984  -17.5454   28.0364 O   0  0  0  0  0  0  0  0  0  0  0  0
  2  1  1  0
  3  2  1  0
  3  4  1  1
  5  3  1  0
  5  6  1  6
  7  8  2  0
  7  5  1  0
  9  7  1  0
 10  9  1  0
 10 11  1  1
 12 17  2  0
 12 11  1  0
 13 12  1  0
 14 15  1  0
 14 13  2  0
 15 16  2  0
 16 17  1  0
 18 20  1  0
 18 10  1  0
 19 18  2  0
 21 20  1  0
 21 27  1  0
 21 22  1  6
 22 23  1  0
 24 23  1  0
 25 26  1  0
 25 24  1  0
 27 28  1  0
 29 27  2  0
M  END
$$$$
