IFK.pdb
     RDKit          3D

 29 29  0  0  1  0  0  0  0  0999 V2000
    6.9261  -12.3931   18.5153 C   0  0  0  0  0  0  0  0  0  0  0  0
    7.2129  -13.7677   19.0756 C   0  0  0  0  0  0  0  0  0  0  0  0
    7.8884  -13.7023   20.4150 C   0  0  2  0  0  0  0  0  0  0  0  0
    9.1668  -12.9086   20.2633 C   0  0  0  0  0  0  0  0  0  0  0  0
    8.2021  -15.0887   20.9577 C   0  0  2  0  0  0  0  0  0  0  0  0
    6.9675  -15.8187   21.1485 N   0  0  0  0  0  0  0  0  0  0  0  0
    8.9156  -15.0129   22.2392 C   0  0  0  0  0  0  0  0  0  0  0  0
   10.1050  -14.6260   22.2882 O   0  0  0  0  0  0  0  0  0  0  0  0
    8.3168  -15.3666   23.4894 N   0  0  0  0  0  0  0  0  0  0  0  0
    9.0957  -15.3635   24.7157 C   0  0  1  0  0  0  0  0  0  0  0  0
    8.1184  -14.9607   25.8252 C   0  0  0  0  0  0  0  0  0  0  0  0
    8.7998  -14.8126   27.1161 C   0  0  0  0  0  0  0  0  0  0  0  0
    9.2337  -13.5861   27.5731 C   0  0  0  0  0  0  0  0  0  0  0  0
    9.8706  -13.4702   28.7864 C   0  0  0  0  0  0  0  0  0  0  0  0
   10.1087  -14.5529   29.6026 C   0  0  0  0  0  0  0  0  0  0  0  0
    9.6825  -15.7881   29.1636 C   0  0  0  0  0  0  0  0  0  0  0  0
    9.0451  -15.9087   27.9508 C   0  0  0  0  0  0  0  0  0  0  0  0
    9.6812  -16.6819   24.9997 C   0  0  0  0  0  0  0  0  0  0  0  0
    9.0086  -17.7012   25.3062 O   0  0  0  0  0  0  0  0  0  0  0  0
   11.0872  -16.8412   24.9311 N   0  0  0  0  0  0  0  0  0  0  0  0
   11.7561  -18.1285   25.0911 C   0  0  1  0  0  0  0  0  0  0  0  0
   12.7655  -18.3696   24.0369 C   0  0  0  0  0  0  0  0  0  0  0  0
   12.1823  -18.2952   22.6554 C   0  0  0  0  0  0  0  0  0  0  0  0
   13.1950  -18.5521   21.5678 C   0  0  0  0  0  0  0  0  0  0  0  0
   12.5793  -18.5765   20.2056 C   0  0  0  0  0  0  0  0  0  0  0  0
   13.5978  -18.8392   19.2070 N   0  0  0  0  0  0  0  0  0  0  0  0
   12.3787  -18.1441   26.4272 C   0  0  0  0  0  0  0  0  0  0  0  0
   12.3750  -17.0744   27.3191 O   0  0  0  0  0  0  0  0  0  0  0  0
   12.9681  -19.2096   26.8024 O   0  0  0  0  0  0  0  0  0  0  0  0
  2  1  1  0
  3  2  1  0
  3  4  1  6
  5  3  1  0
  5  6  1  1
  7  8  2  0
  7  5  1  0
  9  7  1  0
 10  9  1  0
 10 11  1  1
 12 17  2  0
 12 11  1  0
 13 12  1  0
 14 15  1  0
 14 13  2  0
 15 16  2  0
 16 17  1  0
 18 20  1  0
 18 10  1  0
 19 18  2  0
 21 20  1  0
 21 27  1  0
 21 22  1  6
 22 23  1  0
 24 23  1  0
 25 26  1  0
 25 24  1  0
 27 28  1  0
 29 27  2  0
M  END
$$$$
