IFK.pdb
     RDKit          3D

 29 29  0  0  1  0  0  0  0  0999 V2000
    5.3941  -19.9571   18.3413 C   0  0  0  0  0  0  0  0  0  0  0  0
    5.9343  -20.0676   19.7490 C   0  0  0  0  0  0  0  0  0  0  0  0
    6.4216  -18.7474   20.2725 C   0  0  2  0  0  0  0  0  0  0  0  0
    7.3826  -18.1619   19.2621 C   0  0  0  0  0  0  0  0  0  0  0  0
    7.1140  -18.8946   21.6193 C   0  0  2  0  0  0  0  0  0  0  0  0
    6.2297  -19.5753   22.5403 N   0  0  0  0  0  0  0  0  0  0  0  0
    7.4748  -17.5866   22.1814 C   0  0  0  0  0  0  0  0  0  0  0  0
    8.2860  -16.8377   21.5914 O   0  0  0  0  0  0  0  0  0  0  0  0
    6.9385  -17.0893   23.4108 N   0  0  0  0  0  0  0  0  0  0  0  0
    7.4707  -15.8835   24.0219 C   0  0  1  0  0  0  0  0  0  0  0  0
    6.3256  -15.3045   24.8597 C   0  0  0  0  0  0  0  0  0  0  0  0
    6.7353  -14.0830   25.5615 C   0  0  0  0  0  0  0  0  0  0  0  0
    7.1872  -12.9709   24.8828 C   0  0  0  0  0  0  0  0  0  0  0  0
    7.5665  -11.8362   25.5609 C   0  0  0  0  0  0  0  0  0  0  0  0
    7.5185  -11.7448   26.9335 C   0  0  0  0  0  0  0  0  0  0  0  0
    7.0696  -12.8460   27.6305 C   0  0  0  0  0  0  0  0  0  0  0  0
    6.6892  -13.9829   26.9565 C   0  0  0  0  0  0  0  0  0  0  0  0
    8.6376  -16.1651   24.8708 C   0  0  0  0  0  0  0  0  0  0  0  0
    8.5813  -16.7891   25.9629 O   0  0  0  0  0  0  0  0  0  0  0  0
    9.9160  -15.7169   24.4564 N   0  0  0  0  0  0  0  0  0  0  0  0
   11.1610  -16.3612   24.8623 C   0  0  1  0  0  0  0  0  0  0  0  0
   11.1811  -17.8018   24.5267 C   0  0  0  0  0  0  0  0  0  0  0  0
   10.8991  -18.6727   25.7166 C   0  0  0  0  0  0  0  0  0  0  0  0
   10.8870  -20.1444   25.3868 C   0  0  0  0  0  0  0  0  0  0  0  0
   10.5440  -20.9937   26.5685 C   0  0  0  0  0  0  0  0  0  0  0  0
   10.5896  -22.3957   26.2000 N   0  0  0  0  0  0  0  0  0  0  0  0
   12.2679  -15.6515   24.1958 C   0  0  0  0  0  0  0  0  0  0  0  0
   12.2194  -15.1387   22.9019 O   0  0  0  0  0  0  0  0  0  0  0  0
   13.3544  -15.4923   24.8420 O   0  0  0  0  0  0  0  0  0  0  0  0
  2  1  1  0
  3  2  1  0
  3  4  1  6
  5  3  1  0
  5  6  1  1
  7  8  2  0
  7  5  1  0
  9  7  1  0
 10  9  1  0
 10 11  1  1
 12 17  2  0
 12 11  1  0
 13 12  1  0
 14 15  1  0
 14 13  2  0
 15 16  2  0
 16 17  1  0
 18 20  1  0
 18 10  1  0
 19 18  2  0
 21 20  1  0
 21 27  1  0
 21 22  1  6
 22 23  1  0
 24 23  1  0
 25 26  1  0
 25 24  1  0
 27 28  1  0
 29 27  2  0
M  END
$$$$
