IFK.pdb
     RDKit          3D

 29 29  0  0  1  0  0  0  0  0999 V2000
    7.5744  -12.1722   18.9387 C   0  0  0  0  0  0  0  0  0  0  0  0
    7.0270  -13.3009   19.7824 C   0  0  0  0  0  0  0  0  0  0  0  0
    8.0234  -13.7823   20.7973 C   0  0  2  0  0  0  0  0  0  0  0  0
    9.2785  -14.2044   20.0667 C   0  0  0  0  0  0  0  0  0  0  0  0
    7.4822  -14.9484   21.6111 C   0  0  2  0  0  0  0  0  0  0  0  0
    6.0664  -14.7564   21.8396 N   0  0  0  0  0  0  0  0  0  0  0  0
    8.1648  -15.0593   22.9067 C   0  0  0  0  0  0  0  0  0  0  0  0
    9.1802  -14.3713   23.1566 O   0  0  0  0  0  0  0  0  0  0  0  0
    7.7286  -15.9387   23.9474 N   0  0  0  0  0  0  0  0  0  0  0  0
    8.5396  -16.1478   25.1345 C   0  0  1  0  0  0  0  0  0  0  0  0
    7.6375  -15.7886   26.3200 C   0  0  0  0  0  0  0  0  0  0  0  0
    7.4831  -14.3363   26.4592 C   0  0  0  0  0  0  0  0  0  0  0  0
    8.4740  -13.5485   27.0062 C   0  0  0  0  0  0  0  0  0  0  0  0
    8.3081  -12.1888   27.1274 C   0  0  0  0  0  0  0  0  0  0  0  0
    7.1630  -11.5444   26.7171 C   0  0  0  0  0  0  0  0  0  0  0  0
    6.1604  -12.3144   26.1674 C   0  0  0  0  0  0  0  0  0  0  0  0
    6.3219  -13.6747   26.0442 C   0  0  0  0  0  0  0  0  0  0  0  0
    9.0055  -17.5379   25.2454 C   0  0  0  0  0  0  0  0  0  0  0  0
    8.3185  -18.5405   24.9166 O   0  0  0  0  0  0  0  0  0  0  0  0
   10.3044  -17.7916   25.7508 N   0  0  0  0  0  0  0  0  0  0  0  0
   10.8924  -19.1258   25.8150 C   0  0  1  0  0  0  0  0  0  0  0  0
   11.4971  -19.5335   24.5280 C   0  0  0  0  0  0  0  0  0  0  0  0
   12.5408  -18.5651   24.0515 C   0  0  0  0  0  0  0  0  0  0  0  0
   13.2717  -19.0373   22.8197 C   0  0  0  0  0  0  0  0  0  0  0  0
   14.3835  -18.1186   22.4256 C   0  0  0  0  0  0  0  0  0  0  0  0
   15.0727  -18.6460   21.2635 N   0  0  0  0  0  0  0  0  0  0  0  0
   11.9016  -19.1167   26.8896 C   0  0  0  0  0  0  0  0  0  0  0  0
   12.6383  -20.2257   27.2983 O   0  0  0  0  0  0  0  0  0  0  0  0
   12.1220  -18.0185   27.4969 O   0  0  0  0  0  0  0  0  0  0  0  0
  2  1  1  0
  3  2  1  0
  3  4  1  6
  5  3  1  0
  5  6  1  1
  7  8  2  0
  7  5  1  0
  9  7  1  0
 10  9  1  0
 10 11  1  1
 12 17  2  0
 12 11  1  0
 13 12  1  0
 14 15  1  0
 14 13  2  0
 15 16  2  0
 16 17  1  0
 18 20  1  0
 18 10  1  0
 19 18  2  0
 21 20  1  0
 21 27  1  0
 21 22  1  6
 22 23  1  0
 24 23  1  0
 25 26  1  0
 25 24  1  0
 27 28  1  0
 29 27  2  0
M  END
$$$$
