IFK.pdb
     RDKit          3D

 29 29  0  0  1  0  0  0  0  0999 V2000
    9.7625  -19.1926   18.0708 C   0  0  0  0  0  0  0  0  0  0  0  0
    8.9853  -17.9097   18.2601 C   0  0  0  0  0  0  0  0  0  0  0  0
    9.5709  -17.0487   19.3419 C   0  0  2  0  0  0  0  0  0  0  0  0
   11.0783  -17.1250   19.2451 C   0  0  0  0  0  0  0  0  0  0  0  0
    9.1187  -17.4936   20.7248 C   0  0  2  0  0  0  0  0  0  0  0  0
    7.7278  -17.8886   20.6695 N   0  0  0  0  0  0  0  0  0  0  0  0
    9.2705  -16.4152   21.7102 C   0  0  0  0  0  0  0  0  0  0  0  0
   10.3497  -15.7896   21.8138 O   0  0  0  0  0  0  0  0  0  0  0  0
    8.2228  -16.0143   22.5979 N   0  0  0  0  0  0  0  0  0  0  0  0
    8.4673  -15.0386   23.6462 C   0  0  1  0  0  0  0  0  0  0  0  0
    7.0825  -14.5814   24.1167 C   0  0  0  0  0  0  0  0  0  0  0  0
    7.1794  -13.5860   25.1902 C   0  0  0  0  0  0  0  0  0  0  0  0
    6.7148  -13.8413   26.4632 C   0  0  0  0  0  0  0  0  0  0  0  0
    6.8155  -12.8935   27.4544 C   0  0  0  0  0  0  0  0  0  0  0  0
    7.3764  -11.6551   27.2386 C   0  0  0  0  0  0  0  0  0  0  0  0
    7.8469  -11.3803   25.9724 C   0  0  0  0  0  0  0  0  0  0  0  0
    7.7483  -12.3252   24.9779 C   0  0  0  0  0  0  0  0  0  0  0  0
    9.2275  -15.6124   24.7663 C   0  0  0  0  0  0  0  0  0  0  0  0
    9.8940  -14.9310   25.5890 O   0  0  0  0  0  0  0  0  0  0  0  0
    9.2259  -17.0167   24.9531 N   0  0  0  0  0  0  0  0  0  0  0  0
    9.9852  -17.6857   26.0047 C   0  0  1  0  0  0  0  0  0  0  0  0
   11.4032  -17.8827   25.6323 C   0  0  0  0  0  0  0  0  0  0  0  0
   11.7833  -19.3336   25.5654 C   0  0  0  0  0  0  0  0  0  0  0  0
   11.7103  -19.9036   24.1710 C   0  0  0  0  0  0  0  0  0  0  0  0
   12.1935  -21.3170   24.1037 C   0  0  0  0  0  0  0  0  0  0  0  0
   12.1512  -21.7895   22.7332 N   0  0  0  0  0  0  0  0  0  0  0  0
    9.8719  -16.8673   27.2255 C   0  0  0  0  0  0  0  0  0  0  0  0
    8.9672  -17.1003   28.2583 O   0  0  0  0  0  0  0  0  0  0  0  0
   10.6537  -15.8693   27.3539 O   0  0  0  0  0  0  0  0  0  0  0  0
  2  1  1  0
  3  2  1  0
  3  4  1  1
  5  3  1  0
  5  6  1  6
  7  8  2  0
  7  5  1  0
  9  7  1  0
 10  9  1  0
 10 11  1  1
 12 17  2  0
 12 11  1  0
 13 12  1  0
 14 15  1  0
 14 13  2  0
 15 16  2  0
 16 17  1  0
 18 20  1  0
 18 10  1  0
 19 18  2  0
 21 20  1  0
 21 27  1  0
 21 22  1  6
 22 23  1  0
 24 23  1  0
 25 26  1  0
 25 24  1  0
 27 28  1  0
 29 27  2  0
M  END
$$$$
