IFK.pdb
     RDKit          3D

 29 29  0  0  1  0  0  0  0  0999 V2000
    8.3563  -20.7709   19.1331 C   0  0  0  0  0  0  0  0  0  0  0  0
    7.6216  -19.4511   19.1952 C   0  0  0  0  0  0  0  0  0  0  0  0
    8.1157  -18.5816   20.3153 C   0  0  2  0  0  0  0  0  0  0  0  0
    7.9797  -19.3523   21.6095 C   0  0  0  0  0  0  0  0  0  0  0  0
    7.3351  -17.2787   20.4053 C   0  0  2  0  0  0  0  0  0  0  0  0
    7.4610  -16.5581   19.1569 N   0  0  0  0  0  0  0  0  0  0  0  0
    7.8312  -16.4321   21.4981 C   0  0  0  0  0  0  0  0  0  0  0  0
    8.9797  -15.9364   21.4535 O   0  0  0  0  0  0  0  0  0  0  0  0
    7.0567  -16.1225   22.6603 N   0  0  0  0  0  0  0  0  0  0  0  0
    7.6147  -15.3199   23.7351 C   0  0  1  0  0  0  0  0  0  0  0  0
    6.4162  -14.6506   24.4163 C   0  0  0  0  0  0  0  0  0  0  0  0
    6.8407  -13.7703   25.5107 C   0  0  0  0  0  0  0  0  0  0  0  0
    7.0154  -12.4147   25.3278 C   0  0  0  0  0  0  0  0  0  0  0  0
    7.4141  -11.6080   26.3677 C   0  0  0  0  0  0  0  0  0  0  0  0
    7.6583  -12.0972   27.6310 C   0  0  0  0  0  0  0  0  0  0  0  0
    7.4892  -13.4500   27.8344 C   0  0  0  0  0  0  0  0  0  0  0  0
    7.0906  -14.2607   26.7973 C   0  0  0  0  0  0  0  0  0  0  0  0
    8.3646  -16.1369   24.7004 C   0  0  0  0  0  0  0  0  0  0  0  0
    7.8654  -17.0873   25.3582 O   0  0  0  0  0  0  0  0  0  0  0  0
    9.7356  -15.8573   24.9221 N   0  0  0  0  0  0  0  0  0  0  0  0
   10.6144  -16.7250   25.6999 C   0  0  1  0  0  0  0  0  0  0  0  0
   12.0062  -16.7057   25.1992 C   0  0  0  0  0  0  0  0  0  0  0  0
   12.1184  -17.2228   23.7942 C   0  0  0  0  0  0  0  0  0  0  0  0
   13.5241  -17.1666   23.2505 C   0  0  0  0  0  0  0  0  0  0  0  0
   13.6264  -17.7260   21.8677 C   0  0  0  0  0  0  0  0  0  0  0  0
   14.9832  -17.5836   21.3756 N   0  0  0  0  0  0  0  0  0  0  0  0
   10.5551  -16.2768   27.1030 C   0  0  0  0  0  0  0  0  0  0  0  0
    9.8484  -15.1645   27.5536 O   0  0  0  0  0  0  0  0  0  0  0  0
   11.1960  -16.9487   27.9754 O   0  0  0  0  0  0  0  0  0  0  0  0
  2  1  1  0
  3  2  1  0
  3  4  1  1
  5  3  1  0
  5  6  1  6
  7  8  2  0
  7  5  1  0
  9  7  1  0
 10  9  1  0
 10 11  1  1
 12 17  2  0
 12 11  1  0
 13 12  1  0
 14 15  1  0
 14 13  2  0
 15 16  2  0
 16 17  1  0
 18 20  1  0
 18 10  1  0
 19 18  2  0
 21 20  1  0
 21 27  1  0
 21 22  1  6
 22 23  1  0
 24 23  1  0
 25 26  1  0
 25 24  1  0
 27 28  1  0
 29 27  2  0
M  END
$$$$
