IFK.pdb
     RDKit          3D

 29 29  0  0  1  0  0  0  0  0999 V2000
    7.7658  -22.5913   22.2104 C   0  0  0  0  0  0  0  0  0  0  0  0
    6.7259  -21.4952   22.1555 C   0  0  0  0  0  0  0  0  0  0  0  0
    7.2835  -20.1658   22.5754 C   0  0  2  0  0  0  0  0  0  0  0  0
    7.8148  -20.2983   23.9853 C   0  0  0  0  0  0  0  0  0  0  0  0
    6.2304  -19.0690   22.5210 C   0  0  2  0  0  0  0  0  0  0  0  0
    5.7053  -18.9760   21.1759 N   0  0  0  0  0  0  0  0  0  0  0  0
    6.7925  -17.7679   22.9057 C   0  0  0  0  0  0  0  0  0  0  0  0
    7.4106  -17.0659   22.0738 O   0  0  0  0  0  0  0  0  0  0  0  0
    6.6762  -17.2252   24.2243 N   0  0  0  0  0  0  0  0  0  0  0  0
    7.1449  -15.8825   24.5211 C   0  0  1  0  0  0  0  0  0  0  0  0
    6.2765  -15.3890   25.6833 C   0  0  0  0  0  0  0  0  0  0  0  0
    6.6742  -14.0463   26.1210 C   0  0  0  0  0  0  0  0  0  0  0  0
    7.6505  -13.8516   27.0751 C   0  0  0  0  0  0  0  0  0  0  0  0
    8.0076  -12.5839   27.4709 C   0  0  0  0  0  0  0  0  0  0  0  0
    7.4218  -11.4537   26.9472 C   0  0  0  0  0  0  0  0  0  0  0  0
    6.4434  -11.6270   25.9919 C   0  0  0  0  0  0  0  0  0  0  0  0
    6.0830  -12.8930   25.5930 C   0  0  0  0  0  0  0  0  0  0  0  0
    8.5659  -15.8658   24.8978 C   0  0  0  0  0  0  0  0  0  0  0  0
    9.1647  -14.8536   25.3474 O   0  0  0  0  0  0  0  0  0  0  0  0
    9.3309  -17.0496   24.7554 N   0  0  0  0  0  0  0  0  0  0  0  0
   10.7574  -17.1224   25.0552 C   0  0  1  0  0  0  0  0  0  0  0  0
   11.5292  -16.0660   24.3649 C   0  0  0  0  0  0  0  0  0  0  0  0
   12.3779  -16.6090   23.2519 C   0  0  0  0  0  0  0  0  0  0  0  0
   11.7215  -16.5040   21.8981 C   0  0  0  0  0  0  0  0  0  0  0  0
   12.4991  -17.2017   20.8286 C   0  0  0  0  0  0  0  0  0  0  0  0
   11.7728  -17.1486   19.5743 N   0  0  0  0  0  0  0  0  0  0  0  0
   10.9114  -17.0145   26.5174 C   0  0  0  0  0  0  0  0  0  0  0  0
   10.7654  -15.8378   27.2479 O   0  0  0  0  0  0  0  0  0  0  0  0
   11.2018  -18.0696   27.1699 O   0  0  0  0  0  0  0  0  0  0  0  0
  2  1  1  0
  3  2  1  0
  3  4  1  1
  5  3  1  0
  5  6  1  6
  7  8  2  0
  7  5  1  0
  9  7  1  0
 10  9  1  0
 10 11  1  1
 12 17  2  0
 12 11  1  0
 13 12  1  0
 14 15  1  0
 14 13  2  0
 15 16  2  0
 16 17  1  0
 18 20  1  0
 18 10  1  0
 19 18  2  0
 21 20  1  0
 21 27  1  0
 21 22  1  6
 22 23  1  0
 24 23  1  0
 25 26  1  0
 25 24  1  0
 27 28  1  0
 29 27  2  0
M  END
$$$$
