IFK.pdb
     RDKit          3D

 29 29  0  0  1  0  0  0  0  0999 V2000
    8.0401  -16.0316   17.1003 C   0  0  0  0  0  0  0  0  0  0  0  0
    7.5795  -14.9557   18.0573 C   0  0  0  0  0  0  0  0  0  0  0  0
    8.1498  -15.1418   19.4337 C   0  0  2  0  0  0  0  0  0  0  0  0
    7.8245  -16.5446   19.8962 C   0  0  0  0  0  0  0  0  0  0  0  0
    7.5872  -14.1290   20.4200 C   0  0  2  0  0  0  0  0  0  0  0  0
    7.8832  -12.7916   19.9537 N   0  0  0  0  0  0  0  0  0  0  0  0
    8.1649  -14.3075   21.7584 C   0  0  0  0  0  0  0  0  0  0  0  0
    9.3465  -13.9698   21.9962 O   0  0  0  0  0  0  0  0  0  0  0  0
    7.4365  -14.8654   22.8561 N   0  0  0  0  0  0  0  0  0  0  0  0
    8.0912  -15.1329   24.1252 C   0  0  1  0  0  0  0  0  0  0  0  0
    7.0099  -14.9476   25.1952 C   0  0  0  0  0  0  0  0  0  0  0  0
    6.9547  -13.5609   25.6712 C   0  0  0  0  0  0  0  0  0  0  0  0
    8.0487  -12.9426   26.2389 C   0  0  0  0  0  0  0  0  0  0  0  0
    7.9746  -11.6417   26.6787 C   0  0  0  0  0  0  0  0  0  0  0  0
    6.8240  -10.8926   26.5800 C   0  0  0  0  0  0  0  0  0  0  0  0
    5.7190  -11.4927   26.0152 C   0  0  0  0  0  0  0  0  0  0  0  0
    5.7885  -12.7935   25.5740 C   0  0  0  0  0  0  0  0  0  0  0  0
    8.6445  -16.4938   24.1834 C   0  0  0  0  0  0  0  0  0  0  0  0
    7.9635  -17.5399   24.0185 O   0  0  0  0  0  0  0  0  0  0  0  0
   10.0272  -16.6655   24.4397 N   0  0  0  0  0  0  0  0  0  0  0  0
   10.6800  -17.9705   24.4707 C   0  0  1  0  0  0  0  0  0  0  0  0
   12.0095  -17.9468   23.8225 C   0  0  0  0  0  0  0  0  0  0  0  0
   11.9248  -17.6780   22.3478 C   0  0  0  0  0  0  0  0  0  0  0  0
   13.2615  -17.7487   21.6529 C   0  0  0  0  0  0  0  0  0  0  0  0
   13.1428  -17.6209   20.1679 C   0  0  0  0  0  0  0  0  0  0  0  0
   14.4622  -17.5414   19.5712 N   0  0  0  0  0  0  0  0  0  0  0  0
   10.7916  -18.3794   25.8826 C   0  0  0  0  0  0  0  0  0  0  0  0
   11.1849  -19.6432   26.3160 O   0  0  0  0  0  0  0  0  0  0  0  0
   10.5074  -17.5212   26.7804 O   0  0  0  0  0  0  0  0  0  0  0  0
  2  1  1  0
  3  2  1  0
  3  4  1  1
  5  3  1  0
  5  6  1  6
  7  8  2  0
  7  5  1  0
  9  7  1  0
 10  9  1  0
 10 11  1  1
 12 17  2  0
 12 11  1  0
 13 12  1  0
 14 15  1  0
 14 13  2  0
 15 16  2  0
 16 17  1  0
 18 20  1  0
 18 10  1  0
 19 18  2  0
 21 20  1  0
 21 27  1  0
 21 22  1  1
 22 23  1  0
 24 23  1  0
 25 26  1  0
 25 24  1  0
 27 28  1  0
 29 27  2  0
M  END
$$$$
