HRI.pdb
     RDKit          3D

 30 30  0  0  1  0  0  0  0  0999 V2000
    7.6295  -16.6713   18.3697 N   0  0  0  0  0  0  0  0  0  0  0  0
    8.1846  -15.6372   19.1831 C   0  0  1  0  0  0  0  0  0  0  0  0
    7.5196  -14.3204   18.7708 C   0  0  0  0  0  0  0  0  0  0  0  0
    7.8306  -14.0136   17.3538 C   0  0  0  0  0  0  0  0  0  0  0  0
    7.1817  -14.3264   16.2012 C   0  0  0  0  0  0  0  0  0  0  0  0
    7.8899  -13.8042   15.1825 N   0  0  0  0  0  0  0  0  0  0  0  0
    8.9664  -13.1730   15.6823 C   0  0  0  0  0  0  0  0  0  0  0  0
    8.9296  -13.3011   17.0056 N   0  0  0  0  0  0  0  0  0  0  0  0
    7.9274  -15.9119   20.6267 C   0  0  0  0  0  0  0  0  0  0  0  0
    6.7989  -15.6902   21.1377 O   0  0  0  0  0  0  0  0  0  0  0  0
   14.7338  -19.8902   21.8207 N   0  0  0  0  0  0  0  0  0  0  0  0
   13.5632  -19.2754   22.2751 C   0  0  0  0  0  0  0  0  0  0  0  0
   13.4254  -17.9790   22.3041 N   0  0  0  0  0  0  0  0  0  0  0  0
   12.4701  -20.0342   22.7223 N   0  0  0  0  0  0  0  0  0  0  0  0
   11.4584  -19.5486   23.6166 C   0  0  0  0  0  0  0  0  0  0  0  0
   10.9024  -18.1910   23.2857 C   0  0  0  0  0  0  0  0  0  0  0  0
    9.4262  -18.1045   23.2378 C   0  0  0  0  0  0  0  0  0  0  0  0
    8.8503  -16.7852   22.8299 C   0  0  2  0  0  0  0  0  0  0  0  0
    8.9625  -16.4343   21.4590 N   0  0  0  0  0  0  0  0  0  0  0  0
    9.0806  -15.7181   23.8137 C   0  0  0  0  0  0  0  0  0  0  0  0
   10.1728  -15.0704   23.7029 O   0  0  0  0  0  0  0  0  0  0  0  0
   12.5770  -17.5967   22.7668 C   0  0  0  0  0  0  0  0  0  0  0  0
    6.3737  -11.1750   26.7805 C   0  0  0  0  0  0  0  0  0  0  0  0
    7.5059  -12.1323   26.7724 C   0  0  2  0  0  0  0  0  0  0  0  0
    7.3886  -13.3547   25.9554 C   0  0  0  0  0  0  0  0  0  0  0  0
    6.0838  -14.0610   26.2653 C   0  0  2  0  0  0  0  0  0  0  0  0
    8.5659  -14.2318   25.7927 N   0  0  0  0  0  0  0  0  0  0  0  0
    8.2217  -15.3444   24.8645 C   0  0  0  0  0  0  0  0  0  0  0  0
    9.1355  -14.8595   26.9736 O   0  0  0  0  0  0  0  0  0  0  0  0
    9.1106  -16.2445   27.1595 O   0  0  0  0  0  0  0  0  0  0  0  0
  2  9  1  0
  2  3  1  0
  2  1  1  6
  3  4  1  0
  4  8  1  0
  5  6  1  0
  5  4  2  0
  6  7  1  0
  7  8  2  0
  9 10  2  0
 11 12  1  0
 12 14  1  0
 12 13  2  0
 14 15  1  0
 15 16  1  0
 16 17  1  0
 18 17  1  1
 18 20  1  0
 19 18  1  0
 19  9  1  0
 20 21  2  0
 22 23  1  0
 23 24  1  0
 24 25  1  6
 24 26  1  0
 26 28  1  0
 27 20  1  0
 26 27  1  1
 28 30  2  0
 28 29  1  0
M  END
$$$$
