HRI.pdb
     RDKit          3D

 30 30  0  0  1  0  0  0  0  0999 V2000
    9.4985  -15.7364   18.8994 N   0  0  0  0  0  0  0  0  0  0  0  0
    8.4499  -14.8938   19.3784 C   0  0  1  0  0  0  0  0  0  0  0  0
    7.2297  -15.1224   18.4812 C   0  0  0  0  0  0  0  0  0  0  0  0
    7.5467  -14.7445   17.0829 C   0  0  0  0  0  0  0  0  0  0  0  0
    7.8038  -15.4992   15.9821 C   0  0  0  0  0  0  0  0  0  0  0  0
    8.0325  -14.6570   14.9573 N   0  0  0  0  0  0  0  0  0  0  0  0
    7.9218  -13.3934   15.4022 C   0  0  0  0  0  0  0  0  0  0  0  0
    7.6258  -13.4475   16.6978 N   0  0  0  0  0  0  0  0  0  0  0  0
    8.1158  -15.2270   20.7936 C   0  0  0  0  0  0  0  0  0  0  0  0
    7.1463  -14.6768   21.3776 O   0  0  0  0  0  0  0  0  0  0  0  0
    9.5319  -20.6138   19.8741 N   0  0  0  0  0  0  0  0  0  0  0  0
   10.8911  -20.2859   19.8662 C   0  0  0  0  0  0  0  0  0  0  0  0
   11.5959  -20.2709   18.7693 N   0  0  0  0  0  0  0  0  0  0  0  0
   11.5649  -19.9510   21.0515 N   0  0  0  0  0  0  0  0  0  0  0  0
   11.0038  -19.1546   22.1050 C   0  0  0  0  0  0  0  0  0  0  0  0
    9.5338  -18.8626   21.9803 C   0  0  0  0  0  0  0  0  0  0  0  0
    8.9425  -18.0946   23.0981 C   0  0  0  0  0  0  0  0  0  0  0  0
    8.6494  -16.6518   22.8317 C   0  0  2  0  0  0  0  0  0  0  0  0
    8.8941  -16.1815   21.5149 N   0  0  0  0  0  0  0  0  0  0  0  0
    9.0296  -15.7643   23.9396 C   0  0  0  0  0  0  0  0  0  0  0  0
   10.2196  -15.3079   23.9180 O   0  0  0  0  0  0  0  0  0  0  0  0
   12.6101  -20.0605   18.8532 C   0  0  0  0  0  0  0  0  0  0  0  0
    5.6412  -12.0479   25.7377 C   0  0  0  0  0  0  0  0  0  0  0  0
    6.8812  -12.7747   25.3737 C   0  0  2  0  0  0  0  0  0  0  0  0
    7.6033  -13.5082   26.4302 C   0  0  0  0  0  0  0  0  0  0  0  0
    7.8866  -12.5861   27.5992 C   0  0  2  0  0  0  0  0  0  0  0  0
    8.7034  -14.4199   26.0553 N   0  0  0  0  0  0  0  0  0  0  0  0
    8.2165  -15.3733   25.0200 C   0  0  0  0  0  0  0  0  0  0  0  0
    9.3162  -15.2350   27.0913 O   0  0  0  0  0  0  0  0  0  0  0  0
   10.4472  -14.8100   27.7940 O   0  0  0  0  0  0  0  0  0  0  0  0
  2  9  1  0
  2  3  1  0
  2  1  1  6
  3  4  1  0
  4  8  1  0
  5  6  1  0
  5  4  2  0
  6  7  1  0
  7  8  2  0
  9 10  2  0
 11 12  1  0
 12 14  1  0
 12 13  2  0
 14 15  1  0
 15 16  1  0
 16 17  1  0
 18 17  1  1
 18 20  1  0
 19 18  1  0
 19  9  1  0
 20 21  2  0
 22 23  1  0
 23 24  1  0
 24 25  1  1
 24 26  1  0
 26 28  1  0
 27 20  1  0
 26 27  1  6
 28 30  2  0
 28 29  1  0
M  END
$$$$
