HRI.pdb
     RDKit          3D

 30 30  0  0  1  0  0  0  0  0999 V2000
    9.5504  -15.4430   19.3419 N   0  0  0  0  0  0  0  0  0  0  0  0
    8.5640  -14.6346   19.9841 C   0  0  1  0  0  0  0  0  0  0  0  0
    7.2643  -14.7729   19.1855 C   0  0  0  0  0  0  0  0  0  0  0  0
    7.4979  -14.4162   17.7653 C   0  0  0  0  0  0  0  0  0  0  0  0
    8.0606  -13.3193   17.1929 C   0  0  0  0  0  0  0  0  0  0  0  0
    8.0280  -13.4962   15.8589 N   0  0  0  0  0  0  0  0  0  0  0  0
    7.4555  -14.6830   15.5932 C   0  0  0  0  0  0  0  0  0  0  0  0
    7.1326  -15.2432   16.7555 N   0  0  0  0  0  0  0  0  0  0  0  0
    8.3524  -15.0855   21.3904 C   0  0  0  0  0  0  0  0  0  0  0  0
    7.4406  -14.5875   22.1005 O   0  0  0  0  0  0  0  0  0  0  0  0
    9.0109  -22.1790   22.7818 N   0  0  0  0  0  0  0  0  0  0  0  0
    9.1062  -21.9541   21.4051 C   0  0  0  0  0  0  0  0  0  0  0  0
    8.7436  -22.8484   20.5282 N   0  0  0  0  0  0  0  0  0  0  0  0
    9.5989  -20.7407   20.8992 N   0  0  0  0  0  0  0  0  0  0  0  0
   10.1207  -19.6775   21.7093 C   0  0  0  0  0  0  0  0  0  0  0  0
    9.1421  -19.0565   22.6676 C   0  0  0  0  0  0  0  0  0  0  0  0
    9.6839  -17.9689   23.5117 C   0  0  0  0  0  0  0  0  0  0  0  0
    9.1159  -16.6037   23.2826 C   0  0  2  0  0  0  0  0  0  0  0  0
    9.1851  -16.0957   21.9589 N   0  0  0  0  0  0  0  0  0  0  0  0
    9.3988  -15.6625   24.3751 C   0  0  0  0  0  0  0  0  0  0  0  0
   10.5894  -15.2122   24.4419 O   0  0  0  0  0  0  0  0  0  0  0  0
    8.8709  -22.6149   19.5236 C   0  0  0  0  0  0  0  0  0  0  0  0
    6.2019  -11.6249   25.6961 C   0  0  0  0  0  0  0  0  0  0  0  0
    7.3128  -12.5832   25.4822 C   0  0  2  0  0  0  0  0  0  0  0  0
    7.8869  -13.2689   26.6551 C   0  0  0  0  0  0  0  0  0  0  0  0
    8.1733  -12.2641   27.7531 C   0  0  2  0  0  0  0  0  0  0  0  0
    8.9198  -14.3054   26.4533 N   0  0  0  0  0  0  0  0  0  0  0  0
    8.4918  -15.2141   25.3538 C   0  0  0  0  0  0  0  0  0  0  0  0
    9.2688  -15.1678   27.5703 O   0  0  0  0  0  0  0  0  0  0  0  0
   10.1987  -14.7820   28.5398 O   0  0  0  0  0  0  0  0  0  0  0  0
  2  9  1  0
  2  3  1  0
  2  1  1  6
  3  4  1  0
  4  8  1  0
  5  6  1  0
  5  4  2  0
  6  7  1  0
  7  8  2  0
  9 10  2  0
 11 12  1  0
 12 14  1  0
 12 13  2  0
 14 15  1  0
 15 16  1  0
 16 17  1  0
 18 17  1  6
 18 20  1  0
 19 18  1  0
 19  9  1  0
 20 21  2  0
 22 23  1  0
 23 24  1  0
 24 25  1  1
 24 26  1  0
 26 28  1  0
 27 20  1  0
 26 27  1  6
 28 30  2  0
 28 29  1  0
M  END
$$$$
