HRI.pdb
     RDKit          3D

 30 30  0  0  1  0  0  0  0  0999 V2000
    8.9880  -16.1554   19.3682 N   0  0  0  0  0  0  0  0  0  0  0  0
    8.3316  -14.9999   19.8905 C   0  0  1  0  0  0  0  0  0  0  0  0
    7.1617  -14.6739   18.9571 C   0  0  0  0  0  0  0  0  0  0  0  0
    7.6599  -14.4231   17.5832 C   0  0  0  0  0  0  0  0  0  0  0  0
    8.4069  -13.4119   17.0666 C   0  0  0  0  0  0  0  0  0  0  0  0
    8.5812  -13.6650   15.7561 N   0  0  0  0  0  0  0  0  0  0  0  0
    7.9561  -14.8151   15.4503 C   0  0  0  0  0  0  0  0  0  0  0  0
    7.3948  -15.2765   16.5643 N   0  0  0  0  0  0  0  0  0  0  0  0
    7.8292  -15.2623   21.2705 C   0  0  0  0  0  0  0  0  0  0  0  0
    7.1676  -14.3932   21.8956 O   0  0  0  0  0  0  0  0  0  0  0  0
    4.5892  -22.2241   22.5597 N   0  0  0  0  0  0  0  0  0  0  0  0
    5.1341  -21.8419   23.7894 C   0  0  0  0  0  0  0  0  0  0  0  0
    5.4489  -22.7103   24.7098 N   0  0  0  0  0  0  0  0  0  0  0  0
    5.3726  -20.4916   24.0906 N   0  0  0  0  0  0  0  0  0  0  0  0
    5.5000  -19.4529   23.1089 C   0  0  0  0  0  0  0  0  0  0  0  0
    6.9037  -19.1658   22.6516 C   0  0  0  0  0  0  0  0  0  0  0  0
    7.7084  -18.3239   23.5642 C   0  0  0  0  0  0  0  0  0  0  0  0
    7.7635  -16.8630   23.2458 C   0  0  2  0  0  0  0  0  0  0  0  0
    8.0910  -16.5110   21.9101 N   0  0  0  0  0  0  0  0  0  0  0  0
    8.3634  -16.0542   24.3161 C   0  0  0  0  0  0  0  0  0  0  0  0
    9.6350  -15.9651   24.3150 O   0  0  0  0  0  0  0  0  0  0  0  0
    5.8607  -22.3467   25.5920 C   0  0  0  0  0  0  0  0  0  0  0  0
    7.2715  -10.7953   27.1810 C   0  0  0  0  0  0  0  0  0  0  0  0
    8.1094  -12.0130   27.0644 C   0  0  2  0  0  0  0  0  0  0  0  0
    7.5676  -13.1729   26.3318 C   0  0  0  0  0  0  0  0  0  0  0  0
    6.1068  -13.3709   26.6837 C   0  0  2  0  0  0  0  0  0  0  0  0
    8.3733  -14.4071   26.2337 N   0  0  0  0  0  0  0  0  0  0  0  0
    7.6777  -15.3749   25.3407 C   0  0  0  0  0  0  0  0  0  0  0  0
    8.6793  -15.1379   27.4524 O   0  0  0  0  0  0  0  0  0  0  0  0
    9.6388  -14.6875   28.3634 O   0  0  0  0  0  0  0  0  0  0  0  0
  2  9  1  0
  2  3  1  0
  2  1  1  6
  3  4  1  0
  4  8  1  0
  5  6  1  0
  5  4  2  0
  6  7  1  0
  7  8  2  0
  9 10  2  0
 11 12  1  0
 12 14  1  0
 12 13  2  0
 14 15  1  0
 15 16  1  0
 16 17  1  0
 18 17  1  1
 18 20  1  0
 19 18  1  0
 19  9  1  0
 20 21  2  0
 22 23  1  0
 23 24  1  0
 24 25  1  6
 24 26  1  0
 26 28  1  0
 27 20  1  0
 26 27  1  1
 28 30  2  0
 28 29  1  0
M  END
$$$$
