HRI.pdb
     RDKit          3D

 30 30  0  0  1  0  0  0  0  0999 V2000
   12.4685  -16.0381   19.8550 N   0  0  0  0  0  0  0  0  0  0  0  0
   12.7838  -15.0491   20.8354 C   0  0  1  0  0  0  0  0  0  0  0  0
   13.4932  -13.8977   20.1162 C   0  0  0  0  0  0  0  0  0  0  0  0
   14.7725  -14.3708   19.5344 C   0  0  0  0  0  0  0  0  0  0  0  0
   15.7537  -15.1634   20.0408 C   0  0  0  0  0  0  0  0  0  0  0  0
   16.7053  -15.2841   19.0965 N   0  0  0  0  0  0  0  0  0  0  0  0
   16.3322  -14.5810   18.0134 C   0  0  0  0  0  0  0  0  0  0  0  0
   15.1542  -14.0246   18.2810 N   0  0  0  0  0  0  0  0  0  0  0  0
   11.5419  -14.5533   21.4968 C   0  0  0  0  0  0  0  0  0  0  0  0
   11.5866  -13.6293   22.3501 O   0  0  0  0  0  0  0  0  0  0  0  0
    8.7742  -15.3300   16.6056 N   0  0  0  0  0  0  0  0  0  0  0  0
    7.8216  -14.3139   16.4829 C   0  0  0  0  0  0  0  0  0  0  0  0
    7.9192  -13.3749   15.5835 N   0  0  0  0  0  0  0  0  0  0  0  0
    6.7030  -14.2601   17.3296 N   0  0  0  0  0  0  0  0  0  0  0  0
    6.6668  -14.7981   18.6594 C   0  0  0  0  0  0  0  0  0  0  0  0
    7.8561  -14.4715   19.5201 C   0  0  0  0  0  0  0  0  0  0  0  0
    7.8074  -15.0064   20.8987 C   0  0  0  0  0  0  0  0  0  0  0  0
    9.0206  -14.7773   21.7439 C   0  0  2  0  0  0  0  0  0  0  0  0
   10.2734  -15.1210   21.1718 N   0  0  0  0  0  0  0  0  0  0  0  0
    8.8179  -15.1139   23.1600 C   0  0  0  0  0  0  0  0  0  0  0  0
    9.5154  -16.0767   23.6196 O   0  0  0  0  0  0  0  0  0  0  0  0
    7.1791  -12.6455   15.5687 C   0  0  0  0  0  0  0  0  0  0  0  0
    6.1896  -11.4617   26.4101 C   0  0  0  0  0  0  0  0  0  0  0  0
    7.2533  -12.3932   25.9640 C   0  0  2  0  0  0  0  0  0  0  0  0
    7.0799  -13.8352   26.2214 C   0  0  0  0  0  0  0  0  0  0  0  0
    6.9110  -14.0789   27.7077 C   0  0  2  0  0  0  0  0  0  0  0  0
    7.9362  -14.8053   25.5089 N   0  0  0  0  0  0  0  0  0  0  0  0
    7.9310  -14.4855   24.0544 C   0  0  0  0  0  0  0  0  0  0  0  0
    7.6168  -16.2201   25.6073 O   0  0  0  0  0  0  0  0  0  0  0  0
    6.8396  -16.8711   24.6452 O   0  0  0  0  0  0  0  0  0  0  0  0
  2  9  1  0
  2  3  1  0
  2  1  1  6
  3  4  1  0
  4  8  1  0
  5  6  1  0
  5  4  2  0
  6  7  1  0
  7  8  2  0
  9 10  2  0
 11 12  1  0
 12 14  1  0
 12 13  2  0
 14 15  1  0
 15 16  1  0
 16 17  1  0
 18 17  1  6
 18 20  1  0
 19 18  1  0
 19  9  1  0
 20 21  2  0
 22 23  1  0
 23 24  1  0
 24 25  1  6
 24 26  1  0
 26 28  1  0
 27 20  1  0
 26 27  1  1
 28 30  2  0
 28 29  1  0
M  END
$$$$
