HRI.pdb
     RDKit          3D

 30 30  0  0  1  0  0  0  0  0999 V2000
    8.9759  -16.4258   19.0288 N   0  0  0  0  0  0  0  0  0  0  0  0
    8.4132  -15.2113   19.5261 C   0  0  1  0  0  0  0  0  0  0  0  0
    7.4159  -14.7038   18.4802 C   0  0  0  0  0  0  0  0  0  0  0  0
    8.1079  -14.4605   17.1915 C   0  0  0  0  0  0  0  0  0  0  0  0
    9.4100  -14.6013   16.8277 C   0  0  0  0  0  0  0  0  0  0  0  0
    9.5104  -14.2441   15.5338 N   0  0  0  0  0  0  0  0  0  0  0  0
    8.2943  -13.8845   15.0882 C   0  0  0  0  0  0  0  0  0  0  0  0
    7.4401  -14.0165   16.0990 N   0  0  0  0  0  0  0  0  0  0  0  0
    7.7182  -15.4497   20.8245 C   0  0  0  0  0  0  0  0  0  0  0  0
    6.9168  -14.6016   21.2960 O   0  0  0  0  0  0  0  0  0  0  0  0
    7.4234  -19.7234   28.5275 N   0  0  0  0  0  0  0  0  0  0  0  0
    7.5619  -20.4487   27.3403 C   0  0  0  0  0  0  0  0  0  0  0  0
    8.6114  -21.1819   27.0923 N   0  0  0  0  0  0  0  0  0  0  0  0
    6.5650  -20.4230   26.3521 N   0  0  0  0  0  0  0  0  0  0  0  0
    6.8033  -20.1273   24.9684 C   0  0  0  0  0  0  0  0  0  0  0  0
    7.0436  -18.6771   24.6505 C   0  0  0  0  0  0  0  0  0  0  0  0
    7.2980  -18.3738   23.2250 C   0  0  0  0  0  0  0  0  0  0  0  0
    7.5124  -16.9339   22.8795 C   0  0  2  0  0  0  0  0  0  0  0  0
    7.9507  -16.6509   21.5593 N   0  0  0  0  0  0  0  0  0  0  0  0
    8.1230  -16.1570   23.9672 C   0  0  0  0  0  0  0  0  0  0  0  0
    9.3776  -16.3065   24.1362 O   0  0  0  0  0  0  0  0  0  0  0  0
    8.6635  -21.6473   26.1646 C   0  0  0  0  0  0  0  0  0  0  0  0
    6.1627  -11.2087   25.1541 C   0  0  0  0  0  0  0  0  0  0  0  0
    7.0576  -12.3654   24.9100 C   0  0  2  0  0  0  0  0  0  0  0  0
    7.4781  -13.1856   26.0615 C   0  0  0  0  0  0  0  0  0  0  0  0
    8.0370  -12.2959   27.1540 C   0  0  2  0  0  0  0  0  0  0  0  0
    8.2154  -14.4431   25.8231 N   0  0  0  0  0  0  0  0  0  0  0  0
    7.4633  -15.2717   24.8404 C   0  0  0  0  0  0  0  0  0  0  0  0
    8.4889  -15.3153   26.9535 O   0  0  0  0  0  0  0  0  0  0  0  0
    9.6780  -15.2294   27.6829 O   0  0  0  0  0  0  0  0  0  0  0  0
  2  9  1  0
  2  3  1  0
  2  1  1  6
  3  4  1  0
  4  8  1  0
  5  6  1  0
  5  4  2  0
  6  7  1  0
  7  8  2  0
  9 10  2  0
 11 12  1  0
 12 14  1  0
 12 13  2  0
 14 15  1  0
 15 16  1  0
 16 17  1  0
 18 17  1  1
 18 20  1  0
 19 18  1  0
 19  9  1  0
 20 21  2  0
 22 23  1  0
 23 24  1  0
 24 25  1  1
 24 26  1  0
 26 28  1  0
 27 20  1  0
 26 27  1  6
 28 30  2  0
 28 29  1  0
M  END
$$$$
