HRI.pdb
     RDKit          3D

 30 30  0  0  1  0  0  0  0  0999 V2000
    6.3391  -16.6874   19.1879 N   0  0  0  0  0  0  0  0  0  0  0  0
    7.2916  -16.0236   20.0193 C   0  0  1  0  0  0  0  0  0  0  0  0
    7.1821  -14.5222   19.7364 C   0  0  0  0  0  0  0  0  0  0  0  0
    7.8083  -14.2022   18.4310 C   0  0  0  0  0  0  0  0  0  0  0  0
    8.4220  -14.9902   17.5091 C   0  0  0  0  0  0  0  0  0  0  0  0
    8.8163  -14.1970   16.4956 N   0  0  0  0  0  0  0  0  0  0  0  0
    8.4583  -12.9311   16.7719 C   0  0  0  0  0  0  0  0  0  0  0  0
    7.8441  -12.9350   17.9516 N   0  0  0  0  0  0  0  0  0  0  0  0
    7.0098  -16.2963   21.4587 C   0  0  0  0  0  0  0  0  0  0  0  0
    5.9704  -15.8514   22.0114 O   0  0  0  0  0  0  0  0  0  0  0  0
    8.4402  -20.3192   28.9275 N   0  0  0  0  0  0  0  0  0  0  0  0
    7.4264  -20.8924   28.1539 C   0  0  0  0  0  0  0  0  0  0  0  0
    6.3084  -21.3143   28.6759 N   0  0  0  0  0  0  0  0  0  0  0  0
    7.5663  -21.0380   26.7646 N   0  0  0  0  0  0  0  0  0  0  0  0
    8.5363  -20.3397   25.9705 C   0  0  0  0  0  0  0  0  0  0  0  0
    8.1428  -18.9523   25.5439 C   0  0  0  0  0  0  0  0  0  0  0  0
    8.0984  -18.7268   24.0823 C   0  0  0  0  0  0  0  0  0  0  0  0
    7.8356  -17.3238   23.6338 C   0  0  2  0  0  0  0  0  0  0  0  0
    7.9191  -17.0715   22.2393 N   0  0  0  0  0  0  0  0  0  0  0  0
    8.4021  -16.3077   24.5317 C   0  0  0  0  0  0  0  0  0  0  0  0
    9.6614  -16.1245   24.4585 O   0  0  0  0  0  0  0  0  0  0  0  0
    5.6162  -21.7536   28.0372 C   0  0  0  0  0  0  0  0  0  0  0  0
    5.6128  -11.7984   25.9080 C   0  0  0  0  0  0  0  0  0  0  0  0
    6.6846  -12.7568   25.5459 C   0  0  2  0  0  0  0  0  0  0  0  0
    7.4291  -13.4233   26.6308 C   0  0  0  0  0  0  0  0  0  0  0  0
    7.9230  -12.3940   27.6278 C   0  0  2  0  0  0  0  0  0  0  0  0
    8.3852  -14.4988   26.2974 N   0  0  0  0  0  0  0  0  0  0  0  0
    7.6970  -15.5232   25.4639 C   0  0  0  0  0  0  0  0  0  0  0  0
    9.0193  -15.2284   27.3831 O   0  0  0  0  0  0  0  0  0  0  0  0
   10.1742  -14.7583   28.0144 O   0  0  0  0  0  0  0  0  0  0  0  0
  2  9  1  0
  2  3  1  0
  2  1  1  6
  3  4  1  0
  4  8  1  0
  5  6  1  0
  5  4  2  0
  6  7  1  0
  7  8  2  0
  9 10  2  0
 11 12  1  0
 12 14  1  0
 12 13  2  0
 14 15  1  0
 15 16  1  0
 16 17  1  0
 18 17  1  6
 18 20  1  0
 19 18  1  0
 19  9  1  0
 20 21  2  0
 22 23  1  0
 23 24  1  0
 24 25  1  1
 24 26  1  0
 26 28  1  0
 27 20  1  0
 26 27  1  6
 28 30  2  0
 28 29  1  0
M  END
$$$$
