HRI.pdb
     RDKit          3D

 30 30  0  0  1  0  0  0  0  0999 V2000
    7.2980  -17.1822   18.4682 N   0  0  0  0  0  0  0  0  0  0  0  0
    7.7629  -16.1138   19.2936 C   0  0  1  0  0  0  0  0  0  0  0  0
    7.3115  -14.8014   18.6453 C   0  0  0  0  0  0  0  0  0  0  0  0
    7.9402  -14.6491   17.3110 C   0  0  0  0  0  0  0  0  0  0  0  0
    8.8364  -15.4232   16.6439 C   0  0  0  0  0  0  0  0  0  0  0  0
    9.0818  -14.8310   15.4602 N   0  0  0  0  0  0  0  0  0  0  0  0
    8.3540  -13.7037   15.3808 C   0  0  0  0  0  0  0  0  0  0  0  0
    7.6586  -13.5934   16.5091 N   0  0  0  0  0  0  0  0  0  0  0  0
    7.1947  -16.2289   20.6682 C   0  0  0  0  0  0  0  0  0  0  0  0
    5.9896  -15.9477   20.8971 O   0  0  0  0  0  0  0  0  0  0  0  0
    9.2301  -20.5377   26.5954 N   0  0  0  0  0  0  0  0  0  0  0  0
    8.0386  -20.5190   27.3267 C   0  0  0  0  0  0  0  0  0  0  0  0
    8.0009  -20.7946   28.6007 N   0  0  0  0  0  0  0  0  0  0  0  0
    6.8162  -20.1958   26.7166 N   0  0  0  0  0  0  0  0  0  0  0  0
    6.6601  -19.9022   25.3207 C   0  0  0  0  0  0  0  0  0  0  0  0
    6.9301  -18.4761   24.9272 C   0  0  0  0  0  0  0  0  0  0  0  0
    7.3992  -18.2793   23.5379 C   0  0  0  0  0  0  0  0  0  0  0  0
    7.5988  -16.8633   23.0977 C   0  0  2  0  0  0  0  0  0  0  0  0
    8.0123  -16.6629   21.7546 N   0  0  0  0  0  0  0  0  0  0  0  0
    8.2236  -16.0156   24.1227 C   0  0  0  0  0  0  0  0  0  0  0  0
    9.4968  -15.9548   24.1096 O   0  0  0  0  0  0  0  0  0  0  0  0
    7.0742  -20.7674   29.0704 C   0  0  0  0  0  0  0  0  0  0  0  0
    5.8260  -11.4070   25.9627 C   0  0  0  0  0  0  0  0  0  0  0  0
    6.8559  -12.3773   25.5199 C   0  0  2  0  0  0  0  0  0  0  0  0
    7.4235  -13.3053   26.5161 C   0  0  0  0  0  0  0  0  0  0  0  0
    7.9048  -12.5326   27.7279 C   0  0  2  0  0  0  0  0  0  0  0  0
    8.3073  -14.3993   26.0646 N   0  0  0  0  0  0  0  0  0  0  0  0
    7.5601  -15.2711   25.1162 C   0  0  0  0  0  0  0  0  0  0  0  0
    8.8771  -15.2909   27.0613 O   0  0  0  0  0  0  0  0  0  0  0  0
   10.1043  -15.0254   27.6754 O   0  0  0  0  0  0  0  0  0  0  0  0
  2  9  1  0
  2  3  1  0
  2  1  1  6
  3  4  1  0
  4  8  1  0
  5  6  1  0
  5  4  2  0
  6  7  1  0
  7  8  2  0
  9 10  2  0
 11 12  1  0
 12 14  1  0
 12 13  2  0
 14 15  1  0
 15 16  1  0
 16 17  1  0
 18 17  1  1
 18 20  1  0
 19 18  1  0
 19  9  1  0
 20 21  2  0
 22 23  1  0
 23 24  1  0
 24 25  1  1
 24 26  1  0
 26 28  1  0
 27 20  1  0
 26 27  1  6
 28 30  2  0
 28 29  1  0
M  END
$$$$
