HRI.pdb
     RDKit          3D

 30 30  0  0  1  0  0  0  0  0999 V2000
    8.6597  -15.9351   19.4599 N   0  0  0  0  0  0  0  0  0  0  0  0
    8.1373  -14.7533   20.0675 C   0  0  1  0  0  0  0  0  0  0  0  0
    7.0115  -14.2328   19.1687 C   0  0  0  0  0  0  0  0  0  0  0  0
    7.4906  -14.1091   17.7709 C   0  0  0  0  0  0  0  0  0  0  0  0
    8.1339  -13.1009   17.1251 C   0  0  0  0  0  0  0  0  0  0  0  0
    8.3418  -13.4995   15.8563 N   0  0  0  0  0  0  0  0  0  0  0  0
    7.8393  -14.7368   15.7033 C   0  0  0  0  0  0  0  0  0  0  0  0
    7.3206  -15.1077   16.8704 N   0  0  0  0  0  0  0  0  0  0  0  0
    7.6084  -15.0549   21.4295 C   0  0  0  0  0  0  0  0  0  0  0  0
    7.0861  -14.1541   22.1362 O   0  0  0  0  0  0  0  0  0  0  0  0
    9.1314  -20.2771   27.0600 N   0  0  0  0  0  0  0  0  0  0  0  0
    7.8302  -20.6140   27.4449 C   0  0  0  0  0  0  0  0  0  0  0  0
    7.5428  -21.0054   28.6551 N   0  0  0  0  0  0  0  0  0  0  0  0
    6.7619  -20.5422   26.5367 N   0  0  0  0  0  0  0  0  0  0  0  0
    6.8894  -20.1353   25.1666 C   0  0  0  0  0  0  0  0  0  0  0  0
    7.1116  -18.6640   24.9484 C   0  0  0  0  0  0  0  0  0  0  0  0
    7.2378  -18.2442   23.5353 C   0  0  0  0  0  0  0  0  0  0  0  0
    7.3919  -16.7765   23.2890 C   0  0  2  0  0  0  0  0  0  0  0  0
    7.6856  -16.3782   21.9585 N   0  0  0  0  0  0  0  0  0  0  0  0
    8.0999  -16.0742   24.3684 C   0  0  0  0  0  0  0  0  0  0  0  0
    9.3641  -16.2310   24.4135 O   0  0  0  0  0  0  0  0  0  0  0  0
    6.5515  -21.2398   28.8611 C   0  0  0  0  0  0  0  0  0  0  0  0
    5.9768  -11.2886   25.9330 C   0  0  0  0  0  0  0  0  0  0  0  0
    6.8980  -12.3773   25.5275 C   0  0  2  0  0  0  0  0  0  0  0  0
    7.5586  -13.1699   26.5815 C   0  0  0  0  0  0  0  0  0  0  0  0
    8.1998  -12.2464   27.5981 C   0  0  2  0  0  0  0  0  0  0  0  0
    8.3558  -14.3545   26.2034 N   0  0  0  0  0  0  0  0  0  0  0  0
    7.5238  -15.2531   25.3560 C   0  0  0  0  0  0  0  0  0  0  0  0
    8.9007  -15.1931   27.2584 O   0  0  0  0  0  0  0  0  0  0  0  0
   10.0634  -14.8464   27.9521 O   0  0  0  0  0  0  0  0  0  0  0  0
  2  9  1  0
  2  3  1  0
  2  1  1  6
  3  4  1  0
  4  8  1  0
  5  6  1  0
  5  4  2  0
  6  7  1  0
  7  8  2  0
  9 10  2  0
 11 12  1  0
 12 14  1  0
 12 13  2  0
 14 15  1  0
 15 16  1  0
 16 17  1  0
 18 17  1  6
 18 20  1  0
 19 18  1  0
 19  9  1  0
 20 21  2  0
 22 23  1  0
 23 24  1  0
 24 25  1  1
 24 26  1  0
 26 28  1  0
 27 20  1  0
 26 27  1  6
 28 30  2  0
 28 29  1  0
M  END
$$$$
