KVE.pdb
     RDKit          3D

 26 25  0  0  1  0  0  0  0  0999 V2000
    8.7175  -15.2955   20.7898 N   0  0  0  0  0  0  0  0  0  0  0  0
    7.9359  -15.7032   21.9329 C   0  0  1  0  0  0  0  0  0  0  0  0
    7.9810  -17.1820   22.0766 C   0  0  0  0  0  0  0  0  0  0  0  0
    7.4348  -17.8244   20.8265 C   0  0  0  0  0  0  0  0  0  0  0  0
    7.4051  -19.3218   20.8658 C   0  0  0  0  0  0  0  0  0  0  0  0
    6.9193  -19.8946   19.5267 C   0  0  0  0  0  0  0  0  0  0  0  0
    6.8533  -21.3264   19.6618 N   0  0  0  0  0  0  0  0  0  0  0  0
    8.3635  -14.9693   23.1367 C   0  0  0  0  0  0  0  0  0  0  0  0
    9.5843  -14.7213   23.2838 O   0  0  0  0  0  0  0  0  0  0  0  0
    7.2423  -12.4260   27.2767 C   0  0  0  0  0  0  0  0  0  0  0  0
    6.8967  -13.0734   25.9621 C   0  0  1  0  0  0  0  0  0  0  0  0
    6.3069  -12.0458   25.0546 C   0  0  0  0  0  0  0  0  0  0  0  0
    8.0187  -13.8824   25.3969 C   0  0  2  0  0  0  0  0  0  0  0  0
    7.4914  -14.5128   24.1601 N   0  0  0  0  0  0  0  0  0  0  0  0
    8.5423  -14.9283   26.2943 C   0  0  0  0  0  0  0  0  0  0  0  0
    7.8232  -15.9263   26.6383 O   0  0  0  0  0  0  0  0  0  0  0  0
    9.8502  -14.9236   26.8392 N   0  0  0  0  0  0  0  0  0  0  0  0
   10.3476  -15.9322   27.7227 C   0  0  1  0  0  0  0  0  0  0  0  0
   11.5594  -16.6513   27.2762 C   0  0  0  0  0  0  0  0  0  0  0  0
   11.4749  -17.3938   26.0050 C   0  0  0  0  0  0  0  0  0  0  0  0
   12.7076  -18.1075   25.6408 C   0  0  0  0  0  0  0  0  0  0  0  0
   13.8694  -17.6905   25.7761 O   0  0  0  0  0  0  0  0  0  0  0  0
   10.4444  -15.4395   29.1274 C   0  0  0  0  0  0  0  0  0  0  0  0
   10.7329  -16.3540   30.1220 O   0  0  0  0  0  0  0  0  0  0  0  0
   12.5318  -19.3920   25.0838 O   0  0  0  0  0  0  0  0  0  0  0  0
   10.2770  -14.2410   29.4473 O   0  0  0  0  0  0  0  0  0  0  0  0
  2  3  1  0
  2  1  1  6
  4  3  1  0
  5  4  1  0
  5  6  1  0
  7  6  1  0
  8  9  2  0
  8  2  1  0
 11 10  1  1
 11 12  1  0
 11 13  1  0
 13 14  1  6
 14  8  1  0
 15 16  2  0
 15 13  1  0
 17 15  1  0
 18 19  1  6
 18 17  1  0
 20 19  1  0
 20 21  1  0
 21 25  1  0
 22 21  2  0
 23 18  1  0
 24 23  1  0
 26 23  2  0
M  END
$$$$
