KVE.pdb
     RDKit          3D

 26 25  0  0  1  0  0  0  0  0999 V2000
    6.7134  -15.3178   21.4068 N   0  0  0  0  0  0  0  0  0  0  0  0
    8.0815  -14.8635   21.4803 C   0  0  1  0  0  0  0  0  0  0  0  0
    8.3119  -13.7849   20.4838 C   0  0  0  0  0  0  0  0  0  0  0  0
    8.1160  -14.3358   19.0939 C   0  0  0  0  0  0  0  0  0  0  0  0
    8.1862  -13.3065   18.0075 C   0  0  0  0  0  0  0  0  0  0  0  0
    7.8426  -13.9250   16.6449 C   0  0  0  0  0  0  0  0  0  0  0  0
    7.8005  -12.8585   15.6788 N   0  0  0  0  0  0  0  0  0  0  0  0
    8.4253  -14.4876   22.8628 C   0  0  0  0  0  0  0  0  0  0  0  0
    9.6232  -14.2316   23.1326 O   0  0  0  0  0  0  0  0  0  0  0  0
    7.1126  -12.6289   27.2310 C   0  0  0  0  0  0  0  0  0  0  0  0
    6.8267  -13.1363   25.8426 C   0  0  1  0  0  0  0  0  0  0  0  0
    6.3915  -11.9931   24.9876 C   0  0  0  0  0  0  0  0  0  0  0  0
    7.9266  -13.9857   25.2934 C   0  0  2  0  0  0  0  0  0  0  0  0
    7.4952  -14.3904   23.9314 N   0  0  0  0  0  0  0  0  0  0  0  0
    8.2354  -15.1893   26.0868 C   0  0  0  0  0  0  0  0  0  0  0  0
    7.7010  -16.3169   25.8144 O   0  0  0  0  0  0  0  0  0  0  0  0
    9.1263  -15.2057   27.1885 N   0  0  0  0  0  0  0  0  0  0  0  0
    9.9326  -16.3324   27.5429 C   0  0  1  0  0  0  0  0  0  0  0  0
   10.7384  -16.9265   26.4553 C   0  0  0  0  0  0  0  0  0  0  0  0
   11.6149  -18.0595   26.8051 C   0  0  0  0  0  0  0  0  0  0  0  0
   12.4265  -18.5612   25.6865 C   0  0  0  0  0  0  0  0  0  0  0  0
   12.4325  -18.1238   24.5244 O   0  0  0  0  0  0  0  0  0  0  0  0
   10.7208  -16.0809   28.7842 C   0  0  0  0  0  0  0  0  0  0  0  0
   11.1003  -17.1675   29.5484 O   0  0  0  0  0  0  0  0  0  0  0  0
   13.2765  -19.6478   25.9834 O   0  0  0  0  0  0  0  0  0  0  0  0
   11.0537  -14.9362   29.1657 O   0  0  0  0  0  0  0  0  0  0  0  0
  2  3  1  0
  2  1  1  1
  4  3  1  0
  5  4  1  0
  5  6  1  0
  7  6  1  0
  8  9  2  0
  8  2  1  0
 11 10  1  1
 11 12  1  0
 11 13  1  0
 13 14  1  6
 14  8  1  0
 15 16  2  0
 15 13  1  0
 17 15  1  0
 18 19  1  6
 18 17  1  0
 20 19  1  0
 20 21  1  0
 21 25  1  0
 22 21  2  0
 23 18  1  0
 24 23  1  0
 26 23  2  0
M  END
$$$$
