KVE.pdb
     RDKit          3D

 26 25  0  0  1  0  0  0  0  0999 V2000
    9.1422  -17.1669   16.1113 N   0  0  0  0  0  0  0  0  0  0  0  0
    8.3966  -17.3849   17.3278 C   0  0  1  0  0  0  0  0  0  0  0  0
    8.4517  -18.8214   17.7058 C   0  0  0  0  0  0  0  0  0  0  0  0
    7.1718  -19.4997   17.2873 C   0  0  0  0  0  0  0  0  0  0  0  0
    6.6927  -19.1212   15.9191 C   0  0  0  0  0  0  0  0  0  0  0  0
    5.4006  -19.8713   15.5650 C   0  0  0  0  0  0  0  0  0  0  0  0
    5.0753  -19.5603   14.1975 N   0  0  0  0  0  0  0  0  0  0  0  0
    8.8569  -16.4674   18.3847 C   0  0  0  0  0  0  0  0  0  0  0  0
   10.0911  -16.3132   18.5470 O   0  0  0  0  0  0  0  0  0  0  0  0
    7.8334  -13.1505   21.9723 C   0  0  0  0  0  0  0  0  0  0  0  0
    7.5019  -13.9379   20.7326 C   0  0  1  0  0  0  0  0  0  0  0  0
    7.1174  -12.9918   19.6444 C   0  0  0  0  0  0  0  0  0  0  0  0
    8.5471  -14.9480   20.3857 C   0  0  2  0  0  0  0  0  0  0  0  0
    8.0026  -15.7321   19.2484 N   0  0  0  0  0  0  0  0  0  0  0  0
    8.9117  -15.8641   21.4817 C   0  0  0  0  0  0  0  0  0  0  0  0
    8.2131  -16.9025   21.7367 O   0  0  0  0  0  0  0  0  0  0  0  0
   10.0358  -15.6836   22.3252 N   0  0  0  0  0  0  0  0  0  0  0  0
   10.5324  -16.6873   23.2146 C   0  0  1  0  0  0  0  0  0  0  0  0
   10.8353  -18.0023   22.6111 C   0  0  0  0  0  0  0  0  0  0  0  0
   11.9387  -18.0599   21.6347 C   0  0  0  0  0  0  0  0  0  0  0  0
   12.3469  -19.4234   21.2662 C   0  0  0  0  0  0  0  0  0  0  0  0
   11.9229  -20.4801   21.7616 O   0  0  0  0  0  0  0  0  0  0  0  0
   11.6372  -16.1695   24.0728 C   0  0  0  0  0  0  0  0  0  0  0  0
   12.1474  -14.9160   23.7951 O   0  0  0  0  0  0  0  0  0  0  0  0
   13.3174  -19.5195   20.2464 O   0  0  0  0  0  0  0  0  0  0  0  0
   12.1229  -16.8142   25.0294 O   0  0  0  0  0  0  0  0  0  0  0  0
  2  3  1  0
  2  1  1  6
  4  3  1  0
  5  4  1  0
  5  6  1  0
  7  6  1  0
  8  9  2  0
  8  2  1  0
 11 10  1  1
 11 12  1  0
 11 13  1  0
 13 14  1  6
 14  8  1  0
 15 16  2  0
 15 13  1  0
 17 15  1  0
 18 19  1  6
 18 17  1  0
 20 19  1  0
 20 21  1  0
 21 25  1  0
 22 21  2  0
 23 18  1  0
 24 23  1  0
 26 23  2  0
M  END
$$$$
