KVE.pdb
     RDKit          3D

 26 25  0  0  1  0  0  0  0  0999 V2000
    7.4511  -14.5238   20.5493 N   0  0  0  0  0  0  0  0  0  0  0  0
    6.8467  -15.0354   21.7561 C   0  0  1  0  0  0  0  0  0  0  0  0
    6.8000  -16.5203   21.7097 C   0  0  0  0  0  0  0  0  0  0  0  0
    6.6666  -16.9736   20.2778 C   0  0  0  0  0  0  0  0  0  0  0  0
    6.3548  -18.4305   20.1192 C   0  0  0  0  0  0  0  0  0  0  0  0
    6.1141  -18.7808   18.6439 C   0  0  0  0  0  0  0  0  0  0  0  0
    5.8604  -20.1959   18.5664 N   0  0  0  0  0  0  0  0  0  0  0  0
    7.5294  -14.4925   22.9435 C   0  0  0  0  0  0  0  0  0  0  0  0
    8.7750  -14.3500   22.9042 O   0  0  0  0  0  0  0  0  0  0  0  0
    7.2871  -12.3246   27.4291 C   0  0  0  0  0  0  0  0  0  0  0  0
    6.6865  -12.8234   26.1418 C   0  0  1  0  0  0  0  0  0  0  0  0
    5.9974  -11.6909   25.4562 C   0  0  0  0  0  0  0  0  0  0  0  0
    7.6524  -13.6042   25.3108 C   0  0  2  0  0  0  0  0  0  0  0  0
    6.8809  -14.1117   24.1479 N   0  0  0  0  0  0  0  0  0  0  0  0
    8.2932  -14.7361   26.0046 C   0  0  0  0  0  0  0  0  0  0  0  0
    7.6373  -15.7940   26.2913 O   0  0  0  0  0  0  0  0  0  0  0  0
    9.6527  -14.7548   26.4033 N   0  0  0  0  0  0  0  0  0  0  0  0
   10.3187  -15.9165   26.9053 C   0  0  1  0  0  0  0  0  0  0  0  0
   11.6030  -16.2626   26.2603 C   0  0  0  0  0  0  0  0  0  0  0  0
   12.3290  -17.4337   26.7853 C   0  0  0  0  0  0  0  0  0  0  0  0
   13.5866  -17.7278   26.0828 C   0  0  0  0  0  0  0  0  0  0  0  0
   14.5708  -18.3240   26.5495 O   0  0  0  0  0  0  0  0  0  0  0  0
   10.3956  -15.9106   28.3951 C   0  0  0  0  0  0  0  0  0  0  0  0
   10.6474  -17.1056   29.0409 O   0  0  0  0  0  0  0  0  0  0  0  0
   13.6631  -17.2800   24.7468 O   0  0  0  0  0  0  0  0  0  0  0  0
   10.2430  -14.8781   29.0860 O   0  0  0  0  0  0  0  0  0  0  0  0
  2  3  1  0
  2  1  1  6
  4  3  1  0
  5  4  1  0
  5  6  1  0
  7  6  1  0
  8  9  2  0
  8  2  1  0
 11 10  1  1
 11 12  1  0
 11 13  1  0
 13 14  1  6
 14  8  1  0
 15 16  2  0
 15 13  1  0
 17 15  1  0
 18 19  1  6
 18 17  1  0
 20 19  1  0
 20 21  1  0
 21 25  1  0
 22 21  2  0
 23 18  1  0
 24 23  1  0
 26 23  2  0
M  END
$$$$
