KVE.pdb
     RDKit          3D

 26 25  0  0  1  0  0  0  0  0999 V2000
    8.5000  -15.3560   20.9299 N   0  0  0  0  0  0  0  0  0  0  0  0
    7.6173  -15.5236   22.0597 C   0  0  1  0  0  0  0  0  0  0  0  0
    7.3026  -16.9641   22.2479 C   0  0  0  0  0  0  0  0  0  0  0  0
    7.2830  -17.6527   20.9066 C   0  0  0  0  0  0  0  0  0  0  0  0
    6.9145  -19.1038   20.9643 C   0  0  0  0  0  0  0  0  0  0  0  0
    6.8474  -19.7076   19.5543 C   0  0  0  0  0  0  0  0  0  0  0  0
    8.1927  -19.7850   19.0474 N   0  0  0  0  0  0  0  0  0  0  0  0
    8.1809  -14.8707   23.2541 C   0  0  0  0  0  0  0  0  0  0  0  0
    9.4221  -14.6992   23.3124 O   0  0  0  0  0  0  0  0  0  0  0  0
    7.5204  -12.4401   27.5572 C   0  0  0  0  0  0  0  0  0  0  0  0
    7.0690  -12.9638   26.2198 C   0  0  1  0  0  0  0  0  0  0  0  0
    6.5707  -11.8242   25.3947 C   0  0  0  0  0  0  0  0  0  0  0  0
    8.0790  -13.8528   25.5698 C   0  0  2  0  0  0  0  0  0  0  0  0
    7.4204  -14.4128   24.3624 N   0  0  0  0  0  0  0  0  0  0  0  0
    8.5694  -14.9560   26.4158 C   0  0  0  0  0  0  0  0  0  0  0  0
    7.7743  -15.8473   26.8682 O   0  0  0  0  0  0  0  0  0  0  0  0
    9.9251  -15.1246   26.7918 N   0  0  0  0  0  0  0  0  0  0  0  0
   10.3839  -16.1509   27.6757 C   0  0  1  0  0  0  0  0  0  0  0  0
   11.3973  -17.0781   27.1293 C   0  0  0  0  0  0  0  0  0  0  0  0
   11.1813  -17.5860   25.7620 C   0  0  0  0  0  0  0  0  0  0  0  0
   12.2458  -18.4750   25.2742 C   0  0  0  0  0  0  0  0  0  0  0  0
   13.2578  -18.8280   25.9012 O   0  0  0  0  0  0  0  0  0  0  0  0
   10.7520  -15.6052   29.0144 C   0  0  0  0  0  0  0  0  0  0  0  0
   11.0380  -16.4993   30.0281 O   0  0  0  0  0  0  0  0  0  0  0  0
   12.0830  -18.9651   23.9610 O   0  0  0  0  0  0  0  0  0  0  0  0
   10.8138  -14.3800   29.2627 O   0  0  0  0  0  0  0  0  0  0  0  0
  2  3  1  0
  2  1  1  6
  4  3  1  0
  5  4  1  0
  5  6  1  0
  7  6  1  0
  8  9  2  0
  8  2  1  0
 11 10  1  1
 11 12  1  0
 11 13  1  0
 13 14  1  6
 14  8  1  0
 15 16  2  0
 15 13  1  0
 17 15  1  0
 18 19  1  6
 18 17  1  0
 20 19  1  0
 20 21  1  0
 21 25  1  0
 22 21  2  0
 23 18  1  0
 24 23  1  0
 26 23  2  0
M  END
$$$$
