KVE.pdb
     RDKit          3D

 26 25  0  0  1  0  0  0  0  0999 V2000
    8.2556  -14.7359   20.5058 N   0  0  0  0  0  0  0  0  0  0  0  0
    7.7384  -15.4500   21.6486 C   0  0  1  0  0  0  0  0  0  0  0  0
    8.0738  -16.8939   21.5385 C   0  0  0  0  0  0  0  0  0  0  0  0
    7.2616  -17.5145   20.4300 C   0  0  0  0  0  0  0  0  0  0  0  0
    6.1443  -18.3936   20.9027 C   0  0  0  0  0  0  0  0  0  0  0  0
    5.3762  -18.9888   19.7139 C   0  0  0  0  0  0  0  0  0  0  0  0
    4.2358  -19.6935   20.2389 N   0  0  0  0  0  0  0  0  0  0  0  0
    8.1967  -14.8204   22.8993 C   0  0  0  0  0  0  0  0  0  0  0  0
    9.4174  -14.5611   23.0259 O   0  0  0  0  0  0  0  0  0  0  0  0
    7.1504  -12.7185   27.3010 C   0  0  0  0  0  0  0  0  0  0  0  0
    6.8089  -13.1743   25.9072 C   0  0  1  0  0  0  0  0  0  0  0  0
    6.2697  -12.0160   25.1357 C   0  0  0  0  0  0  0  0  0  0  0  0
    7.9148  -13.9396   25.2558 C   0  0  2  0  0  0  0  0  0  0  0  0
    7.3549  -14.4782   23.9904 N   0  0  0  0  0  0  0  0  0  0  0  0
    8.4595  -15.0480   26.0608 C   0  0  0  0  0  0  0  0  0  0  0  0
    7.7994  -16.1278   26.2331 O   0  0  0  0  0  0  0  0  0  0  0  0
    9.7257  -15.0190   26.6960 N   0  0  0  0  0  0  0  0  0  0  0  0
   10.3998  -16.1836   27.1801 C   0  0  1  0  0  0  0  0  0  0  0  0
   11.6618  -16.5386   26.4972 C   0  0  0  0  0  0  0  0  0  0  0  0
   12.3992  -17.7099   27.0058 C   0  0  0  0  0  0  0  0  0  0  0  0
   13.5411  -18.1119   26.1715 C   0  0  0  0  0  0  0  0  0  0  0  0
   14.3343  -17.3533   25.5907 O   0  0  0  0  0  0  0  0  0  0  0  0
   10.5219  -16.1752   28.6668 C   0  0  0  0  0  0  0  0  0  0  0  0
   10.5483  -14.9545   29.3132 O   0  0  0  0  0  0  0  0  0  0  0  0
   13.7384  -19.5019   26.0291 O   0  0  0  0  0  0  0  0  0  0  0  0
   10.6015  -17.2179   29.3548 O   0  0  0  0  0  0  0  0  0  0  0  0
  2  3  1  0
  2  1  1  6
  4  3  1  0
  5  4  1  0
  5  6  1  0
  7  6  1  0
  8  9  2  0
  8  2  1  0
 11 10  1  1
 11 12  1  0
 11 13  1  0
 13 14  1  6
 14  8  1  0
 15 16  2  0
 15 13  1  0
 17 15  1  0
 18 19  1  6
 18 17  1  0
 20 19  1  0
 20 21  1  0
 21 25  1  0
 22 21  2  0
 23 18  1  0
 24 23  1  0
 26 23  2  0
M  END
$$$$
