KVE.pdb
     RDKit          3D

 26 25  0  0  1  0  0  0  0  0999 V2000
    9.5283  -17.4080   16.4753 N   0  0  0  0  0  0  0  0  0  0  0  0
    8.6118  -17.5161   17.5853 C   0  0  1  0  0  0  0  0  0  0  0  0
    8.5132  -18.9324   18.0254 C   0  0  0  0  0  0  0  0  0  0  0  0
    8.1008  -19.7930   16.8579 C   0  0  0  0  0  0  0  0  0  0  0  0
    7.8131  -21.2193   17.2151 C   0  0  0  0  0  0  0  0  0  0  0  0
    7.5923  -22.0654   15.9530 C   0  0  0  0  0  0  0  0  0  0  0  0
    7.3071  -23.4123   16.3740 N   0  0  0  0  0  0  0  0  0  0  0  0
    8.9894  -16.5787   18.6573 C   0  0  0  0  0  0  0  0  0  0  0  0
   10.1793  -16.1862   18.7169 O   0  0  0  0  0  0  0  0  0  0  0  0
    7.5839  -13.3256   22.1461 C   0  0  0  0  0  0  0  0  0  0  0  0
    7.3564  -14.2489   20.9787 C   0  0  1  0  0  0  0  0  0  0  0  0
    6.7739  -13.4680   19.8480 C   0  0  0  0  0  0  0  0  0  0  0  0
    8.5522  -15.0837   20.6529 C   0  0  2  0  0  0  0  0  0  0  0  0
    8.1010  -16.0758   19.6444 N   0  0  0  0  0  0  0  0  0  0  0  0
    9.1468  -15.7899   21.8023 C   0  0  0  0  0  0  0  0  0  0  0  0
    8.6527  -16.8859   22.2336 O   0  0  0  0  0  0  0  0  0  0  0  0
   10.2858  -15.3333   22.5107 N   0  0  0  0  0  0  0  0  0  0  0  0
   11.0624  -16.1570   23.3844 C   0  0  1  0  0  0  0  0  0  0  0  0
   12.5303  -16.0169   23.2803 C   0  0  0  0  0  0  0  0  0  0  0  0
   13.3260  -17.2574   23.2344 C   0  0  0  0  0  0  0  0  0  0  0  0
   14.7445  -17.0517   22.9071 C   0  0  0  0  0  0  0  0  0  0  0  0
   15.2896  -15.9701   22.6333 O   0  0  0  0  0  0  0  0  0  0  0  0
   10.5673  -16.0944   24.7902 C   0  0  0  0  0  0  0  0  0  0  0  0
    9.5937  -15.1642   25.0990 O   0  0  0  0  0  0  0  0  0  0  0  0
   15.5497  -18.2105   22.9096 O   0  0  0  0  0  0  0  0  0  0  0  0
   10.9904  -16.8418   25.7007 O   0  0  0  0  0  0  0  0  0  0  0  0
  2  3  1  0
  2  1  1  6
  4  3  1  0
  5  4  1  0
  5  6  1  0
  7  6  1  0
  8  9  2  0
  8  2  1  0
 11 10  1  1
 11 12  1  0
 11 13  1  0
 13 14  1  6
 14  8  1  0
 15 16  2  0
 15 13  1  0
 17 15  1  0
 18 19  1  1
 18 17  1  0
 20 19  1  0
 20 21  1  0
 21 25  1  0
 22 21  2  0
 23 18  1  0
 24 23  1  0
 26 23  2  0
M  END
$$$$
