KVE.pdb
     RDKit          3D

 26 25  0  0  1  0  0  0  0  0999 V2000
    9.2985  -18.2463   17.1227 N   0  0  0  0  0  0  0  0  0  0  0  0
    8.3999  -18.0042   18.2260 C   0  0  1  0  0  0  0  0  0  0  0  0
    8.1681  -19.2655   18.9774 C   0  0  0  0  0  0  0  0  0  0  0  0
    8.0358  -20.4111   18.0059 C   0  0  0  0  0  0  0  0  0  0  0  0
    7.7998  -21.7424   18.6515 C   0  0  0  0  0  0  0  0  0  0  0  0
    6.3239  -21.9074   19.0412 C   0  0  0  0  0  0  0  0  0  0  0  0
    6.1600  -23.2314   19.5824 N   0  0  0  0  0  0  0  0  0  0  0  0
    8.8932  -16.8919   19.0568 C   0  0  0  0  0  0  0  0  0  0  0  0
   10.1298  -16.6884   19.1107 O   0  0  0  0  0  0  0  0  0  0  0  0
    8.0611  -12.7920   21.7451 C   0  0  0  0  0  0  0  0  0  0  0  0
    7.6284  -13.9134   20.8384 C   0  0  1  0  0  0  0  0  0  0  0  0
    7.1234  -13.3359   19.5582 C   0  0  0  0  0  0  0  0  0  0  0  0
    8.6553  -14.9917   20.7125 C   0  0  2  0  0  0  0  0  0  0  0  0
    8.0688  -16.0179   19.8136 N   0  0  0  0  0  0  0  0  0  0  0  0
    9.0498  -15.6235   21.9847 C   0  0  0  0  0  0  0  0  0  0  0  0
    8.5342  -16.7291   22.3628 O   0  0  0  0  0  0  0  0  0  0  0  0
   10.0081  -15.0804   22.8760 N   0  0  0  0  0  0  0  0  0  0  0  0
   10.9858  -15.8630   23.5665 C   0  0  1  0  0  0  0  0  0  0  0  0
   10.8067  -17.3292   23.5105 C   0  0  0  0  0  0  0  0  0  0  0  0
   10.0314  -17.9574   24.5961 C   0  0  0  0  0  0  0  0  0  0  0  0
   10.4164  -19.3464   24.8858 C   0  0  0  0  0  0  0  0  0  0  0  0
    9.7931  -20.1524   25.5957 O   0  0  0  0  0  0  0  0  0  0  0  0
   12.3750  -15.4306   23.2368 C   0  0  0  0  0  0  0  0  0  0  0  0
   13.0495  -14.6461   24.1523 O   0  0  0  0  0  0  0  0  0  0  0  0
   11.6160  -19.7885   24.2887 O   0  0  0  0  0  0  0  0  0  0  0  0
   12.9569  -15.7434   22.1737 O   0  0  0  0  0  0  0  0  0  0  0  0
  2  3  1  0
  2  1  1  6
  4  3  1  0
  5  4  1  0
  5  6  1  0
  7  6  1  0
  8  9  2  0
  8  2  1  0
 11 10  1  1
 11 12  1  0
 11 13  1  0
 13 14  1  6
 14  8  1  0
 15 16  2  0
 15 13  1  0
 17 15  1  0
 18 19  1  6
 18 17  1  0
 20 19  1  0
 20 21  1  0
 21 25  1  0
 22 21  2  0
 23 18  1  0
 24 23  1  0
 26 23  2  0
M  END
$$$$
