KVE.pdb
     RDKit          3D

 26 25  0  0  1  0  0  0  0  0999 V2000
    8.3565  -14.3102   20.2396 N   0  0  0  0  0  0  0  0  0  0  0  0
    7.4803  -14.7759   21.2879 C   0  0  1  0  0  0  0  0  0  0  0  0
    7.2338  -16.2334   21.1327 C   0  0  0  0  0  0  0  0  0  0  0  0
    6.7419  -16.5130   19.7350 C   0  0  0  0  0  0  0  0  0  0  0  0
    6.4329  -17.9544   19.4673 C   0  0  0  0  0  0  0  0  0  0  0  0
    6.0638  -18.1699   17.9926 C   0  0  0  0  0  0  0  0  0  0  0  0
    7.2696  -18.0410   17.2168 N   0  0  0  0  0  0  0  0  0  0  0  0
    8.0096  -14.3933   22.6085 C   0  0  0  0  0  0  0  0  0  0  0  0
    9.2442  -14.4895   22.8087 O   0  0  0  0  0  0  0  0  0  0  0  0
    7.2571  -12.7787   27.2724 C   0  0  0  0  0  0  0  0  0  0  0  0
    6.8893  -12.8986   25.8173 C   0  0  1  0  0  0  0  0  0  0  0  0
    6.7516  -11.5307   25.2366 C   0  0  0  0  0  0  0  0  0  0  0  0
    7.7711  -13.8443   25.0683 C   0  0  2  0  0  0  0  0  0  0  0  0
    7.2226  -13.9172   23.6903 N   0  0  0  0  0  0  0  0  0  0  0  0
    7.8481  -15.2023   25.6369 C   0  0  0  0  0  0  0  0  0  0  0  0
    7.0875  -16.1392   25.2187 O   0  0  0  0  0  0  0  0  0  0  0  0
    8.7455  -15.5814   26.6658 N   0  0  0  0  0  0  0  0  0  0  0  0
    9.6042  -16.7226   26.5919 C   0  0  1  0  0  0  0  0  0  0  0  0
   10.4391  -16.8339   25.3771 C   0  0  0  0  0  0  0  0  0  0  0  0
   11.4078  -17.9443   25.3223 C   0  0  0  0  0  0  0  0  0  0  0  0
   12.2064  -17.9869   24.0885 C   0  0  0  0  0  0  0  0  0  0  0  0
   12.8803  -17.0587   23.6130 O   0  0  0  0  0  0  0  0  0  0  0  0
   10.3776  -16.9164   27.8527 C   0  0  0  0  0  0  0  0  0  0  0  0
   10.9259  -15.8033   28.4603 O   0  0  0  0  0  0  0  0  0  0  0  0
   12.1926  -19.2129   23.3901 O   0  0  0  0  0  0  0  0  0  0  0  0
   10.5534  -18.0356   28.3849 O   0  0  0  0  0  0  0  0  0  0  0  0
  2  3  1  0
  2  1  1  6
  4  3  1  0
  5  4  1  0
  5  6  1  0
  7  6  1  0
  8  9  2  0
  8  2  1  0
 11 10  1  1
 11 12  1  0
 11 13  1  0
 13 14  1  6
 14  8  1  0
 15 16  2  0
 15 13  1  0
 17 15  1  0
 18 19  1  6
 18 17  1  0
 20 19  1  0
 20 21  1  0
 21 25  1  0
 22 21  2  0
 23 18  1  0
 24 23  1  0
 26 23  2  0
M  END
$$$$
