KVE.pdb
     RDKit          3D

 26 25  0  0  1  0  0  0  0  0999 V2000
    8.6769  -14.8864   20.7215 N   0  0  0  0  0  0  0  0  0  0  0  0
    7.6402  -14.9704   21.7224 C   0  0  1  0  0  0  0  0  0  0  0  0
    6.9657  -16.2926   21.6442 C   0  0  0  0  0  0  0  0  0  0  0  0
    7.6284  -17.1317   20.5809 C   0  0  0  0  0  0  0  0  0  0  0  0
    7.0720  -18.5170   20.4535 C   0  0  0  0  0  0  0  0  0  0  0  0
    7.6895  -19.2461   19.2517 C   0  0  0  0  0  0  0  0  0  0  0  0
    7.0971  -20.5565   19.1838 N   0  0  0  0  0  0  0  0  0  0  0  0
    8.1838  -14.6510   23.0540 C   0  0  0  0  0  0  0  0  0  0  0  0
    9.3914  -14.9016   23.2829 O   0  0  0  0  0  0  0  0  0  0  0  0
    7.3290  -11.5001   25.2972 C   0  0  0  0  0  0  0  0  0  0  0  0
    7.2841  -12.7706   26.1040 C   0  0  1  0  0  0  0  0  0  0  0  0
    5.8688  -13.0567   26.4814 C   0  0  0  0  0  0  0  0  0  0  0  0
    8.0335  -13.8946   25.4652 C   0  0  2  0  0  0  0  0  0  0  0  0
    7.4391  -14.0735   24.1163 N   0  0  0  0  0  0  0  0  0  0  0  0
    7.9775  -15.1724   26.1982 C   0  0  0  0  0  0  0  0  0  0  0  0
    7.0704  -16.0374   25.9525 O   0  0  0  0  0  0  0  0  0  0  0  0
    8.8965  -15.5475   27.2093 N   0  0  0  0  0  0  0  0  0  0  0  0
    9.5219  -16.8317   27.2794 C   0  0  1  0  0  0  0  0  0  0  0  0
   10.1096  -17.3411   26.0224 C   0  0  0  0  0  0  0  0  0  0  0  0
   11.5658  -17.5724   26.0023 C   0  0  0  0  0  0  0  0  0  0  0  0
   12.0635  -18.1727   24.7558 C   0  0  0  0  0  0  0  0  0  0  0  0
   12.5706  -19.2991   24.6301 O   0  0  0  0  0  0  0  0  0  0  0  0
   10.4508  -16.9327   28.4423 C   0  0  0  0  0  0  0  0  0  0  0  0
   10.7818  -15.7732   29.1166 O   0  0  0  0  0  0  0  0  0  0  0  0
   11.9440  -17.3736   23.5989 O   0  0  0  0  0  0  0  0  0  0  0  0
   10.9434  -18.0142   28.8352 O   0  0  0  0  0  0  0  0  0  0  0  0
  2  3  1  0
  2  1  1  6
  4  3  1  0
  5  4  1  0
  5  6  1  0
  7  6  1  0
  8  9  2  0
  8  2  1  0
 11 10  1  6
 11 12  1  0
 11 13  1  0
 13 14  1  6
 14  8  1  0
 15 16  2  0
 15 13  1  0
 17 15  1  0
 18 19  1  6
 18 17  1  0
 20 19  1  0
 20 21  1  0
 21 25  1  0
 22 21  2  0
 23 18  1  0
 24 23  1  0
 26 23  2  0
M  END
$$$$
