KVE.pdb
     RDKit          3D

 26 25  0  0  1  0  0  0  0  0999 V2000
    6.6812  -15.3885   21.3548 N   0  0  0  0  0  0  0  0  0  0  0  0
    8.0486  -14.9296   21.4110 C   0  0  1  0  0  0  0  0  0  0  0  0
    8.2337  -13.7741   20.4944 C   0  0  0  0  0  0  0  0  0  0  0  0
    7.6983  -14.1258   19.1294 C   0  0  0  0  0  0  0  0  0  0  0  0
    8.5082  -13.5837   17.9914 C   0  0  0  0  0  0  0  0  0  0  0  0
    7.9065  -14.0039   16.6428 C   0  0  0  0  0  0  0  0  0  0  0  0
    8.7629  -13.4938   15.6041 N   0  0  0  0  0  0  0  0  0  0  0  0
    8.4440  -14.6604   22.8045 C   0  0  0  0  0  0  0  0  0  0  0  0
    9.6576  -14.4652   23.0546 O   0  0  0  0  0  0  0  0  0  0  0  0
    7.2664  -13.1808   27.3737 C   0  0  0  0  0  0  0  0  0  0  0  0
    6.9306  -13.5646   25.9570 C   0  0  1  0  0  0  0  0  0  0  0  0
    6.4121  -12.3637   25.2383 C   0  0  0  0  0  0  0  0  0  0  0  0
    8.0323  -14.3116   25.2778 C   0  0  2  0  0  0  0  0  0  0  0  0
    7.5482  -14.6035   23.9047 N   0  0  0  0  0  0  0  0  0  0  0  0
    8.4251  -15.5707   25.9362 C   0  0  0  0  0  0  0  0  0  0  0  0
    7.6087  -16.5478   26.0371 O   0  0  0  0  0  0  0  0  0  0  0  0
    9.7042  -15.8060   26.4984 N   0  0  0  0  0  0  0  0  0  0  0  0
   10.0737  -17.0220   27.1542 C   0  0  1  0  0  0  0  0  0  0  0  0
   10.8771  -17.9746   26.3590 C   0  0  0  0  0  0  0  0  0  0  0  0
   12.1420  -17.4784   25.7862 C   0  0  0  0  0  0  0  0  0  0  0  0
   12.8556  -18.4620   24.9586 C   0  0  0  0  0  0  0  0  0  0  0  0
   12.5288  -19.6453   24.7719 O   0  0  0  0  0  0  0  0  0  0  0  0
   10.6400  -16.7697   28.5110 C   0  0  0  0  0  0  0  0  0  0  0  0
   10.8563  -15.4605   28.8955 O   0  0  0  0  0  0  0  0  0  0  0  0
   14.0252  -17.9956   24.3217 O   0  0  0  0  0  0  0  0  0  0  0  0
   10.9279  -17.6845   29.3154 O   0  0  0  0  0  0  0  0  0  0  0  0
  2  3  1  0
  2  1  1  1
  4  3  1  0
  5  4  1  0
  5  6  1  0
  7  6  1  0
  8  9  2  0
  8  2  1  0
 11 10  1  1
 11 12  1  0
 11 13  1  0
 13 14  1  6
 14  8  1  0
 15 16  2  0
 15 13  1  0
 17 15  1  0
 18 19  1  6
 18 17  1  0
 20 19  1  0
 20 21  1  0
 21 25  1  0
 22 21  2  0
 23 18  1  0
 24 23  1  0
 26 23  2  0
M  END
$$$$
