HYN.pdb
     RDKit          3D

 31 32  0  0  1  0  0  0  0  0999 V2000
   42.5496   -8.8868   -7.1410 N   0  0  0  0  0  0  0  0  0  0  0  0
   42.3574   -7.7575   -8.0093 C   0  0  1  0  0  0  0  0  0  0  0  0
   42.1269   -8.2719   -9.4168 C   0  0  0  0  0  0  0  0  0  0  0  0
   43.4391   -8.7026   -9.9786 C   0  0  0  0  0  0  0  0  0  0  0  0
   44.6329   -8.6378   -9.2866 C   0  0  0  0  0  0  0  0  0  0  0  0
   45.5802   -9.1076  -10.1088 N   0  0  0  0  0  0  0  0  0  0  0  0
   44.9941   -9.4523  -11.2714 C   0  0  0  0  0  0  0  0  0  0  0  0
   43.6635   -9.2072  -11.2072 N   0  0  0  0  0  0  0  0  0  0  0  0
   41.2074   -6.9436   -7.5623 C   0  0  0  0  0  0  0  0  0  0  0  0
   40.0869   -7.4964   -7.5103 O   0  0  0  0  0  0  0  0  0  0  0  0
   35.9368   -0.9519   -3.7897 O   0  0  0  0  0  0  0  0  0  0  0  0
   37.0464   -1.7235   -4.1851 C   0  0  0  0  0  0  0  0  0  0  0  0
   38.0462   -1.1784   -4.9531 C   0  0  0  0  0  0  0  0  0  0  0  0
   39.1482   -1.9385   -5.3504 C   0  0  0  0  0  0  0  0  0  0  0  0
   39.2880   -3.2445   -5.0010 C   0  0  0  0  0  0  0  0  0  0  0  0
   40.4255   -4.1204   -5.3707 C   0  0  0  0  0  0  0  0  0  0  0  0
   40.2435   -4.7592   -6.7307 C   0  0  2  0  0  0  0  0  0  0  0  0
   41.3086   -5.5692   -7.1891 N   0  0  0  0  0  0  0  0  0  0  0  0
   39.6737   -3.8108   -7.6717 C   0  0  0  0  0  0  0  0  0  0  0  0
   40.4725   -3.0015   -8.2529 O   0  0  0  0  0  0  0  0  0  0  0  0
   38.2537   -3.7803   -4.2157 C   0  0  0  0  0  0  0  0  0  0  0  0
   37.1671   -3.0442   -3.8192 C   0  0  0  0  0  0  0  0  0  0  0  0
   36.5920   -1.3457  -11.0959 N   0  0  0  0  0  0  0  0  0  0  0  0
   36.5754   -2.7838  -11.1357 C   0  0  0  0  0  0  0  0  0  0  0  0
   36.0306   -3.3166  -12.1186 O   0  0  0  0  0  0  0  0  0  0  0  0
   37.1755   -3.5405  -10.0563 C   0  0  0  0  0  0  0  0  0  0  0  0
   37.7787   -2.7206   -8.9750 C   0  0  2  0  0  0  0  0  0  0  0  0
   38.3058   -3.7139   -7.9988 N   0  0  0  0  0  0  0  0  0  0  0  0
   36.9116   -1.7919   -8.2556 C   0  0  0  0  0  0  0  0  0  0  0  0
   36.0667   -2.2440   -7.4260 O   0  0  0  0  0  0  0  0  0  0  0  0
   36.9102   -0.4037   -8.3800 O   0  0  0  0  0  0  0  0  0  0  0  0
  2  1  1  1
  3  2  1  0
  3  4  1  0
  4  5  2  0
  5  6  1  0
  7  6  1  0
  8  4  1  0
  8  7  2  0
  9 18  1  0
  9  2  1  0
 10  9  2  0
 11 12  1  0
 12 13  2  0
 13 14  1  0
 15 16  1  0
 15 14  2  0
 17 16  1  1
 17 18  1  0
 19 17  1  0
 20 19  2  0
 21 15  1  0
 22 21  2  0
 22 12  1  0
 23 24  1  0
 24 25  2  0
 24 26  1  0
 27 26  1  6
 27 29  1  0
 27 28  1  0
 28 19  1  0
 29 31  1  0
 30 29  2  0
M  END
$$$$
