HYN.pdb
     RDKit          3D

 31 32  0  0  1  0  0  0  0  0999 V2000
   27.0728  -22.6611  -17.7186 N   0  0  0  0  0  0  0  0  0  0  0  0
   27.1926  -21.4429  -16.9653 C   0  0  1  0  0  0  0  0  0  0  0  0
   26.6147  -20.3115  -17.7929 C   0  0  0  0  0  0  0  0  0  0  0  0
   27.5699  -20.0025  -18.8951 C   0  0  0  0  0  0  0  0  0  0  0  0
   28.8129  -19.4319  -18.7012 C   0  0  0  0  0  0  0  0  0  0  0  0
   29.3732  -19.3097  -19.9116 N   0  0  0  0  0  0  0  0  0  0  0  0
   28.5075  -19.7884  -20.8257 C   0  0  0  0  0  0  0  0  0  0  0  0
   27.3817  -20.2231  -20.2106 N   0  0  0  0  0  0  0  0  0  0  0  0
   26.4813  -21.5538  -15.6744 C   0  0  0  0  0  0  0  0  0  0  0  0
   25.3570  -22.1014  -15.6733 O   0  0  0  0  0  0  0  0  0  0  0  0
   24.0398  -20.3940   -7.1872 O   0  0  0  0  0  0  0  0  0  0  0  0
   24.8025  -20.4890   -8.3672 C   0  0  0  0  0  0  0  0  0  0  0  0
   24.9752  -21.6960   -8.9994 C   0  0  0  0  0  0  0  0  0  0  0  0
   25.7320  -21.7977  -10.1686 C   0  0  0  0  0  0  0  0  0  0  0  0
   26.3310  -20.7180  -10.7368 C   0  0  0  0  0  0  0  0  0  0  0  0
   27.1425  -20.7340  -11.9773 C   0  0  0  0  0  0  0  0  0  0  0  0
   26.3110  -21.0287  -13.2071 C   0  0  2  0  0  0  0  0  0  0  0  0
   27.0073  -21.0722  -14.4375 N   0  0  0  0  0  0  0  0  0  0  0  0
   25.0624  -20.2876  -13.1728 C   0  0  0  0  0  0  0  0  0  0  0  0
   25.0775  -19.0830  -13.5964 O   0  0  0  0  0  0  0  0  0  0  0  0
   26.1406  -19.4947  -10.0729 C   0  0  0  0  0  0  0  0  0  0  0  0
   25.3997  -19.3822   -8.9249 C   0  0  0  0  0  0  0  0  0  0  0  0
   21.0870  -17.9437  -13.9760 N   0  0  0  0  0  0  0  0  0  0  0  0
   21.6304  -18.8952  -14.9083 C   0  0  0  0  0  0  0  0  0  0  0  0
   21.3891  -18.7076  -16.1139 O   0  0  0  0  0  0  0  0  0  0  0  0
   22.4163  -20.0106  -14.4224 C   0  0  0  0  0  0  0  0  0  0  0  0
   22.5345  -20.0982  -12.9447 C   0  0  2  0  0  0  0  0  0  0  0  0
   23.8302  -20.7939  -12.7112 N   0  0  0  0  0  0  0  0  0  0  0  0
   21.4939  -20.8185  -12.2164 C   0  0  0  0  0  0  0  0  0  0  0  0
   20.3943  -20.2398  -11.9663 O   0  0  0  0  0  0  0  0  0  0  0  0
   21.5744  -22.1287  -11.7481 O   0  0  0  0  0  0  0  0  0  0  0  0
  2  1  1  6
  3  2  1  0
  3  4  1  0
  4  5  2  0
  5  6  1  0
  7  6  1  0
  8  4  1  0
  8  7  2  0
  9 18  1  0
  9  2  1  0
 10  9  2  0
 11 12  1  0
 12 13  2  0
 13 14  1  0
 15 16  1  0
 15 14  2  0
 17 16  1  1
 17 18  1  0
 19 17  1  0
 20 19  2  0
 21 15  1  0
 22 21  2  0
 22 12  1  0
 23 24  1  0
 24 25  2  0
 24 26  1  0
 27 26  1  6
 27 29  1  0
 27 28  1  0
 28 19  1  0
 29 31  1  0
 30 29  2  0
M  END
$$$$
