HYN.pdb
     RDKit          3D

 31 32  0  0  1  0  0  0  0  0999 V2000
   23.3746  -32.3879  -11.1127 N   0  0  0  0  0  0  0  0  0  0  0  0
   22.8545  -31.8144   -9.9016 C   0  0  1  0  0  0  0  0  0  0  0  0
   23.9877  -31.1081   -9.1834 C   0  0  0  0  0  0  0  0  0  0  0  0
   24.9374  -32.1405   -8.6782 C   0  0  0  0  0  0  0  0  0  0  0  0
   26.1755  -32.3892   -9.2379 C   0  0  0  0  0  0  0  0  0  0  0  0
   26.7317  -33.3734   -8.5195 N   0  0  0  0  0  0  0  0  0  0  0  0
   25.8682  -33.7235   -7.5470 C   0  0  0  0  0  0  0  0  0  0  0  0
   24.7479  -32.9667   -7.6313 N   0  0  0  0  0  0  0  0  0  0  0  0
   21.7611  -30.8655  -10.1995 C   0  0  0  0  0  0  0  0  0  0  0  0
   21.9069  -30.0950  -11.1736 O   0  0  0  0  0  0  0  0  0  0  0  0
   13.9858  -26.8016  -11.0403 O   0  0  0  0  0  0  0  0  0  0  0  0
   15.0264  -27.7299  -10.8437 C   0  0  0  0  0  0  0  0  0  0  0  0
   15.9257  -28.0029  -11.8452 C   0  0  0  0  0  0  0  0  0  0  0  0
   16.9586  -28.9239  -11.6577 C   0  0  0  0  0  0  0  0  0  0  0  0
   17.1265  -29.5913  -10.4857 C   0  0  0  0  0  0  0  0  0  0  0  0
   18.1967  -30.5762  -10.1984 C   0  0  0  0  0  0  0  0  0  0  0  0
   19.4688  -29.9194   -9.7074 C   0  0  2  0  0  0  0  0  0  0  0  0
   20.5557  -30.7836   -9.4387 N   0  0  0  0  0  0  0  0  0  0  0  0
   19.1708  -28.8955   -8.7213 C   0  0  0  0  0  0  0  0  0  0  0  0
   19.0717  -29.2600   -7.5014 O   0  0  0  0  0  0  0  0  0  0  0  0
   16.1952  -29.2960   -9.4762 C   0  0  0  0  0  0  0  0  0  0  0  0
   15.1774  -28.3938   -9.6482 C   0  0  0  0  0  0  0  0  0  0  0  0
   18.4224  -24.1972   -6.4084 N   0  0  0  0  0  0  0  0  0  0  0  0
   18.7018  -24.0345   -7.8103 C   0  0  0  0  0  0  0  0  0  0  0  0
   18.7618  -22.8705   -8.2442 O   0  0  0  0  0  0  0  0  0  0  0  0
   18.8954  -25.2018   -8.6456 C   0  0  0  0  0  0  0  0  0  0  0  0
   18.7921  -26.5035   -7.9384 C   0  0  2  0  0  0  0  0  0  0  0  0
   18.9849  -27.5267   -9.0029 N   0  0  0  0  0  0  0  0  0  0  0  0
   17.5468  -26.8049   -7.2381 C   0  0  0  0  0  0  0  0  0  0  0  0
   17.1516  -26.0361   -6.3111 O   0  0  0  0  0  0  0  0  0  0  0  0
   16.7044  -27.8870   -7.4868 O   0  0  0  0  0  0  0  0  0  0  0  0
  2  1  1  6
  3  2  1  0
  3  4  1  0
  4  5  2  0
  5  6  1  0
  7  6  1  0
  8  4  1  0
  8  7  2  0
  9 18  1  0
  9  2  1  0
 10  9  2  0
 11 12  1  0
 12 13  2  0
 13 14  1  0
 15 16  1  0
 15 14  2  0
 17 16  1  1
 17 18  1  0
 19 17  1  0
 20 19  2  0
 21 15  1  0
 22 21  2  0
 22 12  1  0
 23 24  1  0
 24 25  2  0
 24 26  1  0
 27 26  1  6
 27 29  1  0
 27 28  1  0
 28 19  1  0
 29 31  1  0
 30 29  2  0
M  END
$$$$
