HYN.pdb
     RDKit          3D

 31 32  0  0  1  0  0  0  0  0999 V2000
   20.4401  -10.9763  -16.9635 N   0  0  0  0  0  0  0  0  0  0  0  0
   19.1768  -10.7004  -16.3357 C   0  0  1  0  0  0  0  0  0  0  0  0
   18.8049  -11.8881  -15.4698 C   0  0  0  0  0  0  0  0  0  0  0  0
   18.5938  -13.0670  -16.3579 C   0  0  0  0  0  0  0  0  0  0  0  0
   19.3270  -14.2349  -16.2767 C   0  0  0  0  0  0  0  0  0  0  0  0
   18.8536  -15.0531  -17.2255 N   0  0  0  0  0  0  0  0  0  0  0  0
   17.8602  -14.4148  -17.8735 C   0  0  0  0  0  0  0  0  0  0  0  0
   17.6858  -13.1792  -17.3466 N   0  0  0  0  0  0  0  0  0  0  0  0
   19.2559   -9.4709  -15.5192 C   0  0  0  0  0  0  0  0  0  0  0  0
   18.2426   -9.1384  -14.8660 O   0  0  0  0  0  0  0  0  0  0  0  0
   26.5762   -8.0746  -16.8457 O   0  0  0  0  0  0  0  0  0  0  0  0
   25.3948   -7.8775  -16.1051 C   0  0  0  0  0  0  0  0  0  0  0  0
   24.8472   -6.6250  -15.9719 C   0  0  0  0  0  0  0  0  0  0  0  0
   23.6771   -6.4222  -15.2372 C   0  0  0  0  0  0  0  0  0  0  0  0
   23.0251   -7.4438  -14.6218 C   0  0  0  0  0  0  0  0  0  0  0  0
   21.7769   -7.3200  -13.8315 C   0  0  0  0  0  0  0  0  0  0  0  0
   20.5361   -7.4555  -14.6874 C   0  0  2  0  0  0  0  0  0  0  0  0
   20.4206   -8.6491  -15.4375 N   0  0  0  0  0  0  0  0  0  0  0  0
   20.2443   -6.2074  -15.3704 C   0  0  0  0  0  0  0  0  0  0  0  0
   20.6350   -6.0897  -16.5805 O   0  0  0  0  0  0  0  0  0  0  0  0
   23.6033   -8.7153  -14.7718 C   0  0  0  0  0  0  0  0  0  0  0  0
   24.7513   -8.9269  -15.4907 C   0  0  0  0  0  0  0  0  0  0  0  0
   18.1776   -1.8288  -17.1287 N   0  0  0  0  0  0  0  0  0  0  0  0
   17.7592   -3.1803  -17.3902 C   0  0  0  0  0  0  0  0  0  0  0  0
   16.9057   -3.3467  -18.2793 O   0  0  0  0  0  0  0  0  0  0  0  0
   18.3299   -4.2707  -16.6265 C   0  0  0  0  0  0  0  0  0  0  0  0
   19.2772   -3.8606  -15.5588 C   0  0  2  0  0  0  0  0  0  0  0  0
   19.5591   -5.1130  -14.8043 N   0  0  0  0  0  0  0  0  0  0  0  0
   18.8369   -2.8452  -14.6065 C   0  0  0  0  0  0  0  0  0  0  0  0
   18.3338   -3.2052  -13.5002 O   0  0  0  0  0  0  0  0  0  0  0  0
   18.9141   -1.4647  -14.7816 O   0  0  0  0  0  0  0  0  0  0  0  0
  2  1  1  1
  3  2  1  0
  3  4  1  0
  4  5  2  0
  5  6  1  0
  7  6  1  0
  8  4  1  0
  8  7  2  0
  9 18  1  0
  9  2  1  0
 10  9  2  0
 11 12  1  0
 12 13  2  0
 13 14  1  0
 15 16  1  0
 15 14  2  0
 17 16  1  6
 17 18  1  0
 19 17  1  0
 20 19  2  0
 21 15  1  0
 22 21  2  0
 22 12  1  0
 23 24  1  0
 24 25  2  0
 24 26  1  0
 27 26  1  6
 27 29  1  0
 27 28  1  0
 28 19  1  0
 29 31  1  0
 30 29  2  0
M  END
$$$$
