HYN.pdb
     RDKit          3D

 31 32  0  0  1  0  0  0  0  0999 V2000
   24.7338  -13.6991  -19.6524 N   0  0  0  0  0  0  0  0  0  0  0  0
   24.9235  -12.3349  -20.0634 C   0  0  1  0  0  0  0  0  0  0  0  0
   23.9171  -12.0207  -21.1530 C   0  0  0  0  0  0  0  0  0  0  0  0
   24.2606  -12.8324  -22.3556 C   0  0  0  0  0  0  0  0  0  0  0  0
   23.3555  -13.6232  -23.0365 C   0  0  0  0  0  0  0  0  0  0  0  0
   24.0252  -14.1907  -24.0482 N   0  0  0  0  0  0  0  0  0  0  0  0
   25.3025  -13.7663  -23.9970 C   0  0  0  0  0  0  0  0  0  0  0  0
   25.4656  -12.9213  -22.9510 N   0  0  0  0  0  0  0  0  0  0  0  0
   24.7499  -11.4149  -18.9196 C   0  0  0  0  0  0  0  0  0  0  0  0
   23.8208  -11.6515  -18.1166 O   0  0  0  0  0  0  0  0  0  0  0  0
   28.4822  -14.4541  -14.9174 O   0  0  0  0  0  0  0  0  0  0  0  0
   28.0334  -13.1888  -15.3425 C   0  0  0  0  0  0  0  0  0  0  0  0
   27.0567  -12.5177  -14.6481 C   0  0  0  0  0  0  0  0  0  0  0  0
   26.6055  -11.2637  -15.0652 C   0  0  0  0  0  0  0  0  0  0  0  0
   27.1048  -10.6475  -16.1691 C   0  0  0  0  0  0  0  0  0  0  0  0
   26.6911   -9.3177  -16.6771 C   0  0  0  0  0  0  0  0  0  0  0  0
   25.4817   -9.3970  -17.5836 C   0  0  2  0  0  0  0  0  0  0  0  0
   25.5821  -10.2787  -18.6851 N   0  0  0  0  0  0  0  0  0  0  0  0
   24.9410   -8.0728  -17.8360 C   0  0  0  0  0  0  0  0  0  0  0  0
   25.5868   -7.3120  -18.6328 O   0  0  0  0  0  0  0  0  0  0  0  0
   28.1024  -11.3524  -16.8629 C   0  0  0  0  0  0  0  0  0  0  0  0
   28.5536  -12.5837  -16.4632 C   0  0  0  0  0  0  0  0  0  0  0  0
   21.6207   -3.9578  -18.0492 N   0  0  0  0  0  0  0  0  0  0  0  0
   20.9582   -5.1603  -17.6192 C   0  0  0  0  0  0  0  0  0  0  0  0
   19.7235   -5.1074  -17.4797 O   0  0  0  0  0  0  0  0  0  0  0  0
   21.7328   -6.3580  -17.3676 C   0  0  0  0  0  0  0  0  0  0  0  0
   23.1838   -6.2398  -17.6605 C   0  0  2  0  0  0  0  0  0  0  0  0
   23.7548   -7.5593  -17.2729 N   0  0  0  0  0  0  0  0  0  0  0  0
   23.9385   -5.1974  -16.9708 C   0  0  0  0  0  0  0  0  0  0  0  0
   23.7725   -3.9853  -17.3024 O   0  0  0  0  0  0  0  0  0  0  0  0
   24.8578   -5.3919  -15.9415 O   0  0  0  0  0  0  0  0  0  0  0  0
  2  1  1  1
  3  2  1  0
  3  4  1  0
  4  5  2  0
  5  6  1  0
  7  6  1  0
  8  4  1  0
  8  7  2  0
  9 18  1  0
  9  2  1  0
 10  9  2  0
 11 12  1  0
 12 13  2  0
 13 14  1  0
 15 16  1  0
 15 14  2  0
 17 16  1  6
 17 18  1  0
 19 17  1  0
 20 19  2  0
 21 15  1  0
 22 21  2  0
 22 12  1  0
 23 24  1  0
 24 25  2  0
 24 26  1  0
 27 26  1  1
 27 29  1  0
 27 28  1  0
 28 19  1  0
 29 31  1  0
 30 29  2  0
M  END
$$$$
