HYN.pdb
     RDKit          3D

 31 32  0  0  1  0  0  0  0  0999 V2000
   23.4910  -18.2295  -21.3734 N   0  0  0  0  0  0  0  0  0  0  0  0
   22.8774  -18.0181  -20.0910 C   0  0  1  0  0  0  0  0  0  0  0  0
   23.9725  -17.9403  -19.0452 C   0  0  0  0  0  0  0  0  0  0  0  0
   24.6538  -19.2650  -18.9816 C   0  0  0  0  0  0  0  0  0  0  0  0
   24.0819  -20.4013  -18.4429 C   0  0  0  0  0  0  0  0  0  0  0  0
   24.9865  -21.3817  -18.5641 N   0  0  0  0  0  0  0  0  0  0  0  0
   26.0824  -20.8712  -19.1578 C   0  0  0  0  0  0  0  0  0  0  0  0
   25.8921  -19.5568  -19.4241 N   0  0  0  0  0  0  0  0  0  0  0  0
   22.0761  -16.7760  -20.0927 C   0  0  0  0  0  0  0  0  0  0  0  0
   22.6381  -15.7200  -20.4574 O   0  0  0  0  0  0  0  0  0  0  0  0
   21.2903  -15.3725  -26.0403 O   0  0  0  0  0  0  0  0  0  0  0  0
   20.6918  -15.3982  -24.7659 C   0  0  0  0  0  0  0  0  0  0  0  0
   20.3419  -14.2332  -24.1280 C   0  0  0  0  0  0  0  0  0  0  0  0
   19.7501  -14.2513  -22.8633 C   0  0  0  0  0  0  0  0  0  0  0  0
   19.4914  -15.4115  -22.2041 C   0  0  0  0  0  0  0  0  0  0  0  0
   18.8605  -15.5229  -20.8672 C   0  0  0  0  0  0  0  0  0  0  0  0
   19.8804  -15.5703  -19.7499 C   0  0  2  0  0  0  0  0  0  0  0  0
   20.7038  -16.7195  -19.7028 N   0  0  0  0  0  0  0  0  0  0  0  0
   19.2951  -15.1172  -18.5003 C   0  0  0  0  0  0  0  0  0  0  0  0
   18.8969  -16.0077  -17.6762 O   0  0  0  0  0  0  0  0  0  0  0  0
   19.8576  -16.5898  -22.8756 C   0  0  0  0  0  0  0  0  0  0  0  0
   20.4389  -16.5848  -24.1172 C   0  0  0  0  0  0  0  0  0  0  0  0
   17.6440  -12.1110  -14.4869 N   0  0  0  0  0  0  0  0  0  0  0  0
   18.6416  -11.4471  -15.2831 C   0  0  0  0  0  0  0  0  0  0  0  0
   19.0033  -10.3170  -14.9105 O   0  0  0  0  0  0  0  0  0  0  0  0
   19.1734  -12.1001  -16.4615 C   0  0  0  0  0  0  0  0  0  0  0  0
   18.4901  -13.3628  -16.8413 C   0  0  2  0  0  0  0  0  0  0  0  0
   19.1338  -13.7689  -18.1212 N   0  0  0  0  0  0  0  0  0  0  0  0
   17.0457  -13.3228  -17.0513 C   0  0  0  0  0  0  0  0  0  0  0  0
   16.5852  -12.8185  -18.1191 O   0  0  0  0  0  0  0  0  0  0  0  0
   16.0736  -13.8007  -16.1744 O   0  0  0  0  0  0  0  0  0  0  0  0
  2  1  1  6
  3  2  1  0
  3  4  1  0
  4  5  2  0
  5  6  1  0
  7  6  1  0
  8  4  1  0
  8  7  2  0
  9 18  1  0
  9  2  1  0
 10  9  2  0
 11 12  1  0
 12 13  2  0
 13 14  1  0
 15 16  1  0
 15 14  2  0
 17 16  1  6
 17 18  1  0
 19 17  1  0
 20 19  2  0
 21 15  1  0
 22 21  2  0
 22 12  1  0
 23 24  1  0
 24 25  2  0
 24 26  1  0
 27 26  1  6
 27 29  1  0
 27 28  1  0
 28 19  1  0
 29 31  1  0
 30 29  2  0
M  END
$$$$
