HYN.pdb
     RDKit          3D

 31 32  0  0  1  0  0  0  0  0999 V2000
   27.5622  -17.7015  -19.9867 N   0  0  0  0  0  0  0  0  0  0  0  0
   27.6097  -17.5084  -18.5632 C   0  0  1  0  0  0  0  0  0  0  0  0
   27.0827  -16.1212  -18.2522 C   0  0  0  0  0  0  0  0  0  0  0  0
   28.0132  -15.1218  -18.8508 C   0  0  0  0  0  0  0  0  0  0  0  0
   29.3820  -15.1343  -18.6648 C   0  0  0  0  0  0  0  0  0  0  0  0
   29.8729  -14.0939  -19.3506 N   0  0  0  0  0  0  0  0  0  0  0  0
   28.8439  -13.4574  -19.9423 C   0  0  0  0  0  0  0  0  0  0  0  0
   27.6809  -14.0835  -19.6420 N   0  0  0  0  0  0  0  0  0  0  0  0
   26.8036  -18.5345  -17.8688 C   0  0  0  0  0  0  0  0  0  0  0  0
   25.6384  -18.7348  -18.2761 O   0  0  0  0  0  0  0  0  0  0  0  0
   24.2735  -25.7194  -13.4404 O   0  0  0  0  0  0  0  0  0  0  0  0
   25.0274  -24.6071  -13.8616 C   0  0  0  0  0  0  0  0  0  0  0  0
   25.1506  -23.4961  -13.0634 C   0  0  0  0  0  0  0  0  0  0  0  0
   25.8949  -22.3889  -13.4758 C   0  0  0  0  0  0  0  0  0  0  0  0
   26.5305  -22.3532  -14.6767 C   0  0  0  0  0  0  0  0  0  0  0  0
   27.3460  -21.2261  -15.1889 C   0  0  0  0  0  0  0  0  0  0  0  0
   26.5452  -20.2848  -16.0627 C   0  0  2  0  0  0  0  0  0  0  0  0
   27.2828  -19.3036  -16.7654 N   0  0  0  0  0  0  0  0  0  0  0  0
   25.3390  -19.8510  -15.3799 C   0  0  0  0  0  0  0  0  0  0  0  0
   25.4658  -18.9932  -14.4424 O   0  0  0  0  0  0  0  0  0  0  0  0
   26.3904  -23.5001  -15.4757 C   0  0  0  0  0  0  0  0  0  0  0  0
   25.6628  -24.5932  -15.0818 C   0  0  0  0  0  0  0  0  0  0  0  0
   19.6349  -19.3482  -15.5766 N   0  0  0  0  0  0  0  0  0  0  0  0
   20.8015  -18.5127  -15.4718 C   0  0  0  0  0  0  0  0  0  0  0  0
   20.6442  -17.3794  -14.9844 O   0  0  0  0  0  0  0  0  0  0  0  0
   22.0840  -19.0071  -15.9283 C   0  0  0  0  0  0  0  0  0  0  0  0
   22.8330  -19.8189  -14.9357 C   0  0  2  0  0  0  0  0  0  0  0  0
   24.0347  -20.2995  -15.6721 N   0  0  0  0  0  0  0  0  0  0  0  0
   22.1624  -20.9781  -14.3538 C   0  0  0  0  0  0  0  0  0  0  0  0
   22.1569  -22.0768  -14.9859 O   0  0  0  0  0  0  0  0  0  0  0  0
   21.5023  -21.0165  -13.1270 O   0  0  0  0  0  0  0  0  0  0  0  0
  2  1  1  6
  3  2  1  0
  3  4  1  0
  4  5  2  0
  5  6  1  0
  7  6  1  0
  8  4  1  0
  8  7  2  0
  9 18  1  0
  9  2  1  0
 10  9  2  0
 11 12  1  0
 12 13  2  0
 13 14  1  0
 15 16  1  0
 15 14  2  0
 17 16  1  1
 17 18  1  0
 19 17  1  0
 20 19  2  0
 21 15  1  0
 22 21  2  0
 22 12  1  0
 23 24  1  0
 24 25  2  0
 24 26  1  0
 27 26  1  6
 27 29  1  0
 27 28  1  0
 28 19  1  0
 29 31  1  0
 30 29  2  0
M  END
$$$$
