EHF.pdb
     RDKit          3D

 31 32  0  0  1  0  0  0  0  0999 V2000
   32.4505  -25.3144  -15.6459 N   0  0  0  0  0  0  0  0  0  0  0  0
   31.7380  -24.7399  -16.7368 C   0  0  1  0  0  0  0  0  0  0  0  0
   31.7672  -25.6638  -17.9286 C   0  0  0  0  0  0  0  0  0  0  0  0
   33.1397  -25.9031  -18.4633 C   0  0  0  0  0  0  0  0  0  0  0  0
   33.7868  -27.1245  -17.9543 C   0  0  0  0  0  0  0  0  0  0  0  0
   33.1808  -28.1517  -17.5462 O   0  0  0  0  0  0  0  0  0  0  0  0
   30.3160  -24.4233  -16.4228 C   0  0  0  0  0  0  0  0  0  0  0  0
   29.6804  -24.9921  -15.4755 O   0  0  0  0  0  0  0  0  0  0  0  0
   35.1911  -27.1571  -17.9152 O   0  0  0  0  0  0  0  0  0  0  0  0
   29.6779  -23.4499  -17.2259 N   0  0  0  0  0  0  0  0  0  0  0  0
   28.3166  -22.9289  -16.9038 C   0  0  1  0  0  0  0  0  0  0  0  0
   28.2005  -21.5485  -17.4878 C   0  0  0  0  0  0  0  0  0  0  0  0
   26.8957  -20.9150  -17.2427 C   0  0  0  0  0  0  0  0  0  0  0  0
   25.8022  -21.4624  -16.5642 C   0  0  0  0  0  0  0  0  0  0  0  0
   24.8097  -20.5810  -16.5574 N   0  0  0  0  0  0  0  0  0  0  0  0
   25.2577  -19.4975  -17.2151 C   0  0  0  0  0  0  0  0  0  0  0  0
   26.5085  -19.7007  -17.6247 N   0  0  0  0  0  0  0  0  0  0  0  0
   27.3930  -23.9354  -17.3988 C   0  0  0  0  0  0  0  0  0  0  0  0
   27.5738  -24.4457  -18.5728 O   0  0  0  0  0  0  0  0  0  0  0  0
   26.2600  -24.4799  -16.7512 N   0  0  0  0  0  0  0  0  0  0  0  0
   25.4526  -25.5625  -17.3216 C   0  0  1  0  0  0  0  0  0  0  0  0
   25.4814  -26.7679  -16.4224 C   0  0  0  0  0  0  0  0  0  0  0  0
   26.6798  -27.5667  -16.6796 C   0  0  0  0  0  0  0  0  0  0  0  0
   26.7696  -28.5191  -17.6619 C   0  0  0  0  0  0  0  0  0  0  0  0
   27.9119  -29.2540  -17.8992 C   0  0  0  0  0  0  0  0  0  0  0  0
   29.0401  -29.0377  -17.1190 C   0  0  0  0  0  0  0  0  0  0  0  0
   28.9745  -28.0843  -16.1236 C   0  0  0  0  0  0  0  0  0  0  0  0
   27.8296  -27.3692  -15.9085 C   0  0  0  0  0  0  0  0  0  0  0  0
   24.0804  -25.0828  -17.4804 C   0  0  0  0  0  0  0  0  0  0  0  0
   23.5997  -23.8569  -17.0527 O   0  0  0  0  0  0  0  0  0  0  0  0
   23.2132  -25.8193  -18.0555 O   0  0  0  0  0  0  0  0  0  0  0  0
  2  1  1  1
  3  2  1  0
  3  4  1  0
  4  5  1  0
  5  9  1  0
  6  5  2  0
  7  2  1  0
  8  7  2  0
 10  7  1  0
 11 10  1  0
 11 12  1  6
 12 13  1  0
 13 17  1  0
 14 13  2  0
 14 15  1  0
 15 16  1  0
 17 16  2  0
 18 19  2  0
 18 11  1  0
 20 18  1  0
 21 22  1  1
 21 20  1  0
 23 28  1  0
 23 22  1  0
 24 23  2  0
 25 26  2  0
 25 24  1  0
 26 27  1  0
 27 28  2  0
 29 21  1  0
 30 29  1  0
 31 29  2  0
M  END
$$$$
