EHF.pdb
     RDKit          3D

 31 32  0  0  1  0  0  0  0  0999 V2000
   34.5864  -29.4468  -19.6316 N   0  0  0  0  0  0  0  0  0  0  0  0
   33.2978  -30.0514  -19.5884 C   0  0  1  0  0  0  0  0  0  0  0  0
   33.1946  -30.9854  -18.4087 C   0  0  0  0  0  0  0  0  0  0  0  0
   33.4815  -32.4096  -18.7495 C   0  0  0  0  0  0  0  0  0  0  0  0
   33.4315  -33.3319  -17.6021 C   0  0  0  0  0  0  0  0  0  0  0  0
   34.4356  -33.7779  -16.9840 O   0  0  0  0  0  0  0  0  0  0  0  0
   32.1787  -29.0705  -19.5103 C   0  0  0  0  0  0  0  0  0  0  0  0
   32.3075  -27.9260  -18.9641 O   0  0  0  0  0  0  0  0  0  0  0  0
   32.1690  -33.7554  -17.1534 O   0  0  0  0  0  0  0  0  0  0  0  0
   30.9404  -29.4564  -20.0736 N   0  0  0  0  0  0  0  0  0  0  0  0
   29.7816  -28.5186  -20.1519 C   0  0  1  0  0  0  0  0  0  0  0  0
   29.4005  -28.3754  -21.5991 C   0  0  0  0  0  0  0  0  0  0  0  0
   30.1806  -27.3532  -22.3135 C   0  0  0  0  0  0  0  0  0  0  0  0
   31.2196  -27.5643  -23.2255 C   0  0  0  0  0  0  0  0  0  0  0  0
   31.6713  -26.3900  -23.6488 N   0  0  0  0  0  0  0  0  0  0  0  0
   30.9393  -25.4521  -23.0230 C   0  0  0  0  0  0  0  0  0  0  0  0
   30.0465  -26.0326  -22.2232 N   0  0  0  0  0  0  0  0  0  0  0  0
   28.7793  -29.0705  -19.2564 C   0  0  0  0  0  0  0  0  0  0  0  0
   28.5151  -30.3355  -19.2959 O   0  0  0  0  0  0  0  0  0  0  0  0
   28.0049  -28.3957  -18.2846 N   0  0  0  0  0  0  0  0  0  0  0  0
   27.1141  -29.0864  -17.3472 C   0  0  1  0  0  0  0  0  0  0  0  0
   27.2308  -28.4853  -15.9733 C   0  0  0  0  0  0  0  0  0  0  0  0
   27.0224  -27.0383  -16.0312 C   0  0  0  0  0  0  0  0  0  0  0  0
   25.8238  -26.4258  -15.7705 C   0  0  0  0  0  0  0  0  0  0  0  0
   25.6482  -25.0589  -15.8167 C   0  0  0  0  0  0  0  0  0  0  0  0
   26.7225  -24.2408  -16.1407 C   0  0  0  0  0  0  0  0  0  0  0  0
   27.9395  -24.8338  -16.4076 C   0  0  0  0  0  0  0  0  0  0  0  0
   28.0873  -26.1917  -16.3551 C   0  0  0  0  0  0  0  0  0  0  0  0
   25.7417  -28.9648  -17.8373 C   0  0  0  0  0  0  0  0  0  0  0  0
   25.3340  -28.1926  -18.9116 O   0  0  0  0  0  0  0  0  0  0  0  0
   24.8026  -29.6049  -17.2596 O   0  0  0  0  0  0  0  0  0  0  0  0
  2  1  1  1
  3  2  1  0
  3  4  1  0
  4  5  1  0
  5  9  1  0
  6  5  2  0
  7  2  1  0
  8  7  2  0
 10  7  1  0
 11 10  1  0
 11 12  1  6
 12 13  1  0
 13 17  1  0
 14 13  2  0
 14 15  1  0
 15 16  1  0
 17 16  2  0
 18 19  2  0
 18 11  1  0
 20 18  1  0
 21 22  1  1
 21 20  1  0
 23 28  1  0
 23 22  1  0
 24 23  2  0
 25 26  2  0
 25 24  1  0
 26 27  1  0
 27 28  2  0
 29 21  1  0
 30 29  1  0
 31 29  2  0
M  END
$$$$
