EHF.pdb
     RDKit          3D

 31 32  0  0  1  0  0  0  0  0999 V2000
   18.9173  -13.5766  -16.8231 N   0  0  0  0  0  0  0  0  0  0  0  0
   19.2574  -12.2292  -17.1339 C   0  0  1  0  0  0  0  0  0  0  0  0
   18.0238  -11.3614  -17.1297 C   0  0  0  0  0  0  0  0  0  0  0  0
   16.9585  -11.8358  -18.0608 C   0  0  0  0  0  0  0  0  0  0  0  0
   15.7705  -10.9670  -18.1195 C   0  0  0  0  0  0  0  0  0  0  0  0
   15.5027  -10.1642  -19.0537 O   0  0  0  0  0  0  0  0  0  0  0  0
   20.2543  -11.6329  -16.2005 C   0  0  0  0  0  0  0  0  0  0  0  0
   20.2685  -11.8963  -14.9534 O   0  0  0  0  0  0  0  0  0  0  0  0
   14.8570  -11.0295  -17.0535 O   0  0  0  0  0  0  0  0  0  0  0  0
   21.2066  -10.7453  -16.7527 N   0  0  0  0  0  0  0  0  0  0  0  0
   22.3226  -10.1782  -15.9395 C   0  0  1  0  0  0  0  0  0  0  0  0
   23.6120  -10.7422  -16.4682 C   0  0  0  0  0  0  0  0  0  0  0  0
   23.8386  -12.1453  -16.0889 C   0  0  0  0  0  0  0  0  0  0  0  0
   23.9050  -13.2529  -16.9401 C   0  0  0  0  0  0  0  0  0  0  0  0
   24.1195  -14.3447  -16.2161 N   0  0  0  0  0  0  0  0  0  0  0  0
   24.1884  -13.9448  -14.9346 C   0  0  0  0  0  0  0  0  0  0  0  0
   24.0196  -12.6257  -14.8614 N   0  0  0  0  0  0  0  0  0  0  0  0
   22.1546   -8.7366  -16.0088 C   0  0  0  0  0  0  0  0  0  0  0  0
   21.8032   -8.1878  -17.1253 O   0  0  0  0  0  0  0  0  0  0  0  0
   22.3214   -7.7839  -14.9773 N   0  0  0  0  0  0  0  0  0  0  0  0
   22.0409   -6.3554  -15.1513 C   0  0  1  0  0  0  0  0  0  0  0  0
   20.6264   -6.1522  -15.6206 C   0  0  0  0  0  0  0  0  0  0  0  0
   20.3505   -4.7271  -15.8041 C   0  0  0  0  0  0  0  0  0  0  0  0
   19.6045   -3.9729  -14.9354 C   0  0  0  0  0  0  0  0  0  0  0  0
   19.3653   -2.6271  -15.1171 C   0  0  0  0  0  0  0  0  0  0  0  0
   19.8947   -1.9808  -16.2262 C   0  0  0  0  0  0  0  0  0  0  0  0
   20.6491   -2.7187  -17.1155 C   0  0  0  0  0  0  0  0  0  0  0  0
   20.8714   -4.0520  -16.9125 C   0  0  0  0  0  0  0  0  0  0  0  0
   22.2500   -5.6829  -13.8697 C   0  0  0  0  0  0  0  0  0  0  0  0
   22.7563   -4.4053  -13.7021 O   0  0  0  0  0  0  0  0  0  0  0  0
   21.9567   -6.2822  -12.7833 O   0  0  0  0  0  0  0  0  0  0  0  0
  2  1  1  1
  3  2  1  0
  3  4  1  0
  4  5  1  0
  5  9  1  0
  6  5  2  0
  7  2  1  0
  8  7  2  0
 10  7  1  0
 11 10  1  0
 11 12  1  6
 12 13  1  0
 13 17  1  0
 14 13  2  0
 14 15  1  0
 15 16  1  0
 17 16  2  0
 18 19  2  0
 18 11  1  0
 20 18  1  0
 21 22  1  1
 21 20  1  0
 23 28  1  0
 23 22  1  0
 24 23  2  0
 25 26  2  0
 25 24  1  0
 26 27  1  0
 27 28  2  0
 29 21  1  0
 30 29  1  0
 31 29  2  0
M  END
$$$$
