EHF.pdb
     RDKit          3D

 31 32  0  0  1  0  0  0  0  0999 V2000
   28.0044  -20.6274  -14.6769 N   0  0  0  0  0  0  0  0  0  0  0  0
   27.8298  -19.3263  -14.1251 C   0  0  1  0  0  0  0  0  0  0  0  0
   27.3843  -18.3581  -15.1923 C   0  0  0  0  0  0  0  0  0  0  0  0
   27.9197  -18.6780  -16.5480 C   0  0  0  0  0  0  0  0  0  0  0  0
   28.8632  -17.6802  -17.0807 C   0  0  0  0  0  0  0  0  0  0  0  0
   30.1192  -17.7867  -17.0649 O   0  0  0  0  0  0  0  0  0  0  0  0
   26.8464  -19.2774  -13.0065 C   0  0  0  0  0  0  0  0  0  0  0  0
   26.3516  -18.1843  -12.5764 O   0  0  0  0  0  0  0  0  0  0  0  0
   28.3314  -16.5122  -17.6531 O   0  0  0  0  0  0  0  0  0  0  0  0
   26.4696  -20.5092  -12.4228 N   0  0  0  0  0  0  0  0  0  0  0  0
   25.4600  -20.5875  -11.3260 C   0  0  1  0  0  0  0  0  0  0  0  0
   24.4471  -21.6319  -11.7046 C   0  0  0  0  0  0  0  0  0  0  0  0
   23.3713  -21.1209  -12.5681 C   0  0  0  0  0  0  0  0  0  0  0  0
   22.1058  -20.6766  -12.1718 C   0  0  0  0  0  0  0  0  0  0  0  0
   21.4228  -20.2979  -13.2453 N   0  0  0  0  0  0  0  0  0  0  0  0
   22.2315  -20.4951  -14.3008 C   0  0  0  0  0  0  0  0  0  0  0  0
   23.3989  -20.9886  -13.8916 N   0  0  0  0  0  0  0  0  0  0  0  0
   26.2269  -20.8198  -10.1138 C   0  0  0  0  0  0  0  0  0  0  0  0
   27.3835  -21.3924  -10.1900 O   0  0  0  0  0  0  0  0  0  0  0  0
   25.8833  -20.4903   -8.7824 N   0  0  0  0  0  0  0  0  0  0  0  0
   26.7771  -20.7189   -7.6429 C   0  0  1  0  0  0  0  0  0  0  0  0
   27.7000  -19.5458   -7.4568 C   0  0  0  0  0  0  0  0  0  0  0  0
   28.3748  -19.6292   -6.1614 C   0  0  0  0  0  0  0  0  0  0  0  0
   27.9414  -18.9891   -5.0290 C   0  0  0  0  0  0  0  0  0  0  0  0
   28.5827  -19.0893   -3.8124 C   0  0  0  0  0  0  0  0  0  0  0  0
   29.7253  -19.8707   -3.7026 C   0  0  0  0  0  0  0  0  0  0  0  0
   30.1815  -20.5249   -4.8286 C   0  0  0  0  0  0  0  0  0  0  0  0
   29.5275  -20.4089   -6.0233 C   0  0  0  0  0  0  0  0  0  0  0  0
   25.9606  -20.9148   -6.4457 C   0  0  0  0  0  0  0  0  0  0  0  0
   24.5803  -20.8244   -6.3868 O   0  0  0  0  0  0  0  0  0  0  0  0
   26.5201  -21.1945   -5.3348 O   0  0  0  0  0  0  0  0  0  0  0  0
  2  1  1  6
  3  2  1  0
  3  4  1  0
  4  5  1  0
  5  9  1  0
  6  5  2  0
  7  2  1  0
  8  7  2  0
 10  7  1  0
 11 10  1  0
 11 12  1  6
 12 13  1  0
 13 17  1  0
 14 13  2  0
 14 15  1  0
 15 16  1  0
 17 16  2  0
 18 19  2  0
 18 11  1  0
 20 18  1  0
 21 22  1  1
 21 20  1  0
 23 28  1  0
 23 22  1  0
 24 23  2  0
 25 26  2  0
 25 24  1  0
 26 27  1  0
 27 28  2  0
 29 21  1  0
 30 29  1  0
 31 29  2  0
M  END
$$$$
