EHF.pdb
     RDKit          3D

 31 32  0  0  1  0  0  0  0  0999 V2000
   36.0280  -30.4769    4.8805 N   0  0  0  0  0  0  0  0  0  0  0  0
   35.4236  -29.1913    4.9800 C   0  0  1  0  0  0  0  0  0  0  0  0
   34.4316  -29.1633    6.1158 C   0  0  0  0  0  0  0  0  0  0  0  0
   33.1348  -29.8261    5.7907 C   0  0  0  0  0  0  0  0  0  0  0  0
   31.9459  -28.9936    6.0423 C   0  0  0  0  0  0  0  0  0  0  0  0
   31.9625  -27.8326    6.5330 O   0  0  0  0  0  0  0  0  0  0  0  0
   36.4006  -28.0845    5.1822 C   0  0  0  0  0  0  0  0  0  0  0  0
   37.4199  -28.2000    5.9389 O   0  0  0  0  0  0  0  0  0  0  0  0
   30.6881  -29.5273    5.7140 O   0  0  0  0  0  0  0  0  0  0  0  0
   36.1576  -26.8737    4.4932 N   0  0  0  0  0  0  0  0  0  0  0  0
   37.0598  -25.6923    4.6298 C   0  0  1  0  0  0  0  0  0  0  0  0
   37.6080  -25.3701    3.2675 C   0  0  0  0  0  0  0  0  0  0  0  0
   38.5582  -26.3740    2.7643 C   0  0  0  0  0  0  0  0  0  0  0  0
   38.9946  -27.5303    3.4187 C   0  0  0  0  0  0  0  0  0  0  0  0
   39.8533  -28.1737    2.6372 N   0  0  0  0  0  0  0  0  0  0  0  0
   39.9629  -27.4467    1.5118 C   0  0  0  0  0  0  0  0  0  0  0  0
   39.1853  -26.3684    1.5909 N   0  0  0  0  0  0  0  0  0  0  0  0
   36.2573  -24.6689    5.2779 C   0  0  0  0  0  0  0  0  0  0  0  0
   35.5600  -23.8529    4.5573 O   0  0  0  0  0  0  0  0  0  0  0  0
   36.1087  -24.4167    6.6613 N   0  0  0  0  0  0  0  0  0  0  0  0
   35.1737  -23.4243    7.2002 C   0  0  1  0  0  0  0  0  0  0  0  0
   33.7562  -23.8103    6.8780 C   0  0  0  0  0  0  0  0  0  0  0  0
   33.2963  -23.1066    5.6805 C   0  0  0  0  0  0  0  0  0  0  0  0
   33.1358  -21.7470    5.6049 C   0  0  0  0  0  0  0  0  0  0  0  0
   32.7138  -21.0986    4.4635 C   0  0  0  0  0  0  0  0  0  0  0  0
   32.4313  -21.8361    3.3214 C   0  0  0  0  0  0  0  0  0  0  0  0
   32.5850  -23.2065    3.3726 C   0  0  0  0  0  0  0  0  0  0  0  0
   33.0047  -23.8252    4.5169 C   0  0  0  0  0  0  0  0  0  0  0  0
   35.3608  -23.3502    8.6486 C   0  0  0  0  0  0  0  0  0  0  0  0
   36.1244  -24.2194    9.4090 O   0  0  0  0  0  0  0  0  0  0  0  0
   34.7928  -22.4237    9.3152 O   0  0  0  0  0  0  0  0  0  0  0  0
  2  1  1  1
  3  2  1  0
  3  4  1  0
  4  5  1  0
  5  9  1  0
  6  5  2  0
  7  2  1  0
  8  7  2  0
 10  7  1  0
 11 10  1  0
 11 12  1  6
 12 13  1  0
 13 17  1  0
 14 13  2  0
 14 15  1  0
 15 16  1  0
 17 16  2  0
 18 19  2  0
 18 11  1  0
 20 18  1  0
 21 22  1  1
 21 20  1  0
 23 28  1  0
 23 22  1  0
 24 23  2  0
 25 26  2  0
 25 24  1  0
 26 27  1  0
 27 28  2  0
 29 21  1  0
 30 29  1  0
 31 29  2  0
M  END
$$$$
