EHF.pdb
     RDKit          3D

 31 32  0  0  1  0  0  0  0  0999 V2000
   20.6720  -13.6692  -18.8561 N   0  0  0  0  0  0  0  0  0  0  0  0
   21.0928  -12.5941  -18.0226 C   0  0  1  0  0  0  0  0  0  0  0  0
   22.1469  -11.7703  -18.7192 C   0  0  0  0  0  0  0  0  0  0  0  0
   21.8983  -11.5971  -20.1804 C   0  0  0  0  0  0  0  0  0  0  0  0
   23.1184  -11.5545  -21.0045 C   0  0  0  0  0  0  0  0  0  0  0  0
   23.8191  -12.5545  -21.3176 O   0  0  0  0  0  0  0  0  0  0  0  0
   19.9846  -11.6872  -17.6102 C   0  0  0  0  0  0  0  0  0  0  0  0
   19.1984  -11.1397  -18.4510 O   0  0  0  0  0  0  0  0  0  0  0  0
   23.5448  -10.3042  -21.4838 O   0  0  0  0  0  0  0  0  0  0  0  0
   19.8275  -11.4466  -16.2256 N   0  0  0  0  0  0  0  0  0  0  0  0
   18.6749  -10.6671  -15.6850 C   0  0  1  0  0  0  0  0  0  0  0  0
   17.9264  -11.5531  -14.7286 C   0  0  0  0  0  0  0  0  0  0  0  0
   17.0875  -12.5609  -15.3954 C   0  0  0  0  0  0  0  0  0  0  0  0
   17.3720  -13.9190  -15.5696 C   0  0  0  0  0  0  0  0  0  0  0  0
   16.3687  -14.4925  -16.2227 N   0  0  0  0  0  0  0  0  0  0  0  0
   15.4658  -13.5252  -16.4599 C   0  0  0  0  0  0  0  0  0  0  0  0
   15.8996  -12.3683  -15.9627 N   0  0  0  0  0  0  0  0  0  0  0  0
   19.2547   -9.4503  -15.1424 C   0  0  0  0  0  0  0  0  0  0  0  0
   20.5014   -9.4344  -14.8006 O   0  0  0  0  0  0  0  0  0  0  0  0
   18.6271   -8.2024  -14.9224 N   0  0  0  0  0  0  0  0  0  0  0  0
   19.3514   -7.0066  -14.4807 C   0  0  1  0  0  0  0  0  0  0  0  0
   20.4931   -6.7105  -15.4140 C   0  0  0  0  0  0  0  0  0  0  0  0
   21.1196   -5.4356  -15.0638 C   0  0  0  0  0  0  0  0  0  0  0  0
   21.7439   -5.1915  -13.8677 C   0  0  0  0  0  0  0  0  0  0  0  0
   22.3411   -3.9876  -13.5592 C   0  0  0  0  0  0  0  0  0  0  0  0
   22.3230   -2.9559  -14.4884 C   0  0  0  0  0  0  0  0  0  0  0  0
   21.7004   -3.1771  -15.6999 C   0  0  0  0  0  0  0  0  0  0  0  0
   21.1155   -4.3801  -15.9812 C   0  0  0  0  0  0  0  0  0  0  0  0
   18.4164   -5.8826  -14.4529 C   0  0  0  0  0  0  0  0  0  0  0  0
   17.3980   -5.6576  -15.3634 O   0  0  0  0  0  0  0  0  0  0  0  0
   18.5048   -5.0064  -13.5311 O   0  0  0  0  0  0  0  0  0  0  0  0
  2  1  1  6
  3  2  1  0
  3  4  1  0
  4  5  1  0
  5  9  1  0
  6  5  2  0
  7  2  1  0
  8  7  2  0
 10  7  1  0
 11 10  1  0
 11 12  1  1
 12 13  1  0
 13 17  1  0
 14 13  2  0
 14 15  1  0
 15 16  1  0
 17 16  2  0
 18 19  2  0
 18 11  1  0
 20 18  1  0
 21 22  1  6
 21 20  1  0
 23 28  1  0
 23 22  1  0
 24 23  2  0
 25 26  2  0
 25 24  1  0
 26 27  1  0
 27 28  2  0
 29 21  1  0
 30 29  1  0
 31 29  2  0
M  END
$$$$
