EHF.pdb
     RDKit          3D

 31 32  0  0  1  0  0  0  0  0999 V2000
   13.9855  -11.9766  -15.4631 N   0  0  0  0  0  0  0  0  0  0  0  0
   14.5759  -11.9450  -14.1677 C   0  0  1  0  0  0  0  0  0  0  0  0
   15.9175  -12.6339  -14.1844 C   0  0  0  0  0  0  0  0  0  0  0  0
   16.8355  -12.1248  -15.2451 C   0  0  0  0  0  0  0  0  0  0  0  0
   18.1442  -12.7991  -15.2923 C   0  0  0  0  0  0  0  0  0  0  0  0
   18.3177  -14.0470  -15.3332 O   0  0  0  0  0  0  0  0  0  0  0  0
   14.7616  -10.5685  -13.6279 C   0  0  0  0  0  0  0  0  0  0  0  0
   14.8619   -9.5449  -14.3808 O   0  0  0  0  0  0  0  0  0  0  0  0
   19.2978  -11.9965  -15.2909 O   0  0  0  0  0  0  0  0  0  0  0  0
   14.8245  -10.4284  -12.2221 N   0  0  0  0  0  0  0  0  0  0  0  0
   14.8413   -9.0899  -11.5615 C   0  0  1  0  0  0  0  0  0  0  0  0
   14.5242   -9.2895  -10.1056 C   0  0  0  0  0  0  0  0  0  0  0  0
   14.4723   -8.0353   -9.3385 C   0  0  0  0  0  0  0  0  0  0  0  0
   15.4624   -7.5136   -8.4999 C   0  0  0  0  0  0  0  0  0  0  0  0
   15.0367   -6.3655   -7.9872 N   0  0  0  0  0  0  0  0  0  0  0  0
   13.8055   -6.1589   -8.4857 C   0  0  0  0  0  0  0  0  0  0  0  0
   13.4699   -7.1616   -9.2955 N   0  0  0  0  0  0  0  0  0  0  0  0
   16.1384   -8.5192  -11.8828 C   0  0  0  0  0  0  0  0  0  0  0  0
   17.2065   -9.2291  -11.7195 O   0  0  0  0  0  0  0  0  0  0  0  0
   16.4290   -7.2288  -12.3828 N   0  0  0  0  0  0  0  0  0  0  0  0
   17.7945   -6.7234  -12.5544 C   0  0  1  0  0  0  0  0  0  0  0  0
   18.2200   -6.8403  -13.9923 C   0  0  0  0  0  0  0  0  0  0  0  0
   19.5716   -6.3086  -14.1683 C   0  0  0  0  0  0  0  0  0  0  0  0
   20.7147   -7.0333  -13.9489 C   0  0  0  0  0  0  0  0  0  0  0  0
   21.9813   -6.5201  -14.1325 C   0  0  0  0  0  0  0  0  0  0  0  0
   22.1334   -5.2078  -14.5602 C   0  0  0  0  0  0  0  0  0  0  0  0
   20.9976   -4.4578  -14.7877 C   0  0  0  0  0  0  0  0  0  0  0  0
   19.7531   -4.9902  -14.5980 C   0  0  0  0  0  0  0  0  0  0  0  0
   17.8275   -5.3246  -12.1294 C   0  0  0  0  0  0  0  0  0  0  0  0
   16.7370   -4.5838  -11.7067 O   0  0  0  0  0  0  0  0  0  0  0  0
   18.9315   -4.6871  -12.1303 O   0  0  0  0  0  0  0  0  0  0  0  0
  2  1  1  6
  3  2  1  0
  3  4  1  0
  4  5  1  0
  5  9  1  0
  6  5  2  0
  7  2  1  0
  8  7  2  0
 10  7  1  0
 11 10  1  0
 11 12  1  1
 12 13  1  0
 13 17  1  0
 14 13  2  0
 14 15  1  0
 15 16  1  0
 17 16  2  0
 18 19  2  0
 18 11  1  0
 20 18  1  0
 21 22  1  6
 21 20  1  0
 23 28  1  0
 23 22  1  0
 24 23  2  0
 25 26  2  0
 25 24  1  0
 26 27  1  0
 27 28  2  0
 29 21  1  0
 30 29  1  0
 31 29  2  0
M  END
$$$$
