EHF.pdb
     RDKit          3D

 31 32  0  0  1  0  0  0  0  0999 V2000
   18.9747  -12.1374  -17.2048 N   0  0  0  0  0  0  0  0  0  0  0  0
   18.9888  -10.7600  -16.8438 C   0  0  1  0  0  0  0  0  0  0  0  0
   17.7216  -10.3954  -16.1117 C   0  0  0  0  0  0  0  0  0  0  0  0
   16.4821  -10.6524  -16.9019 C   0  0  0  0  0  0  0  0  0  0  0  0
   15.5086  -11.5355  -16.2369 C   0  0  0  0  0  0  0  0  0  0  0  0
   15.6758  -12.0881  -15.1163 O   0  0  0  0  0  0  0  0  0  0  0  0
   20.1500  -10.3763  -15.9923 C   0  0  0  0  0  0  0  0  0  0  0  0
   20.1752  -10.5821  -14.7346 O   0  0  0  0  0  0  0  0  0  0  0  0
   14.2940  -11.7899  -16.8964 O   0  0  0  0  0  0  0  0  0  0  0  0
   21.2492   -9.7627  -16.6366 N   0  0  0  0  0  0  0  0  0  0  0  0
   22.4707   -9.3439  -15.8876 C   0  0  1  0  0  0  0  0  0  0  0  0
   23.6637   -9.9457  -16.5766 C   0  0  0  0  0  0  0  0  0  0  0  0
   23.8806  -11.3624  -16.2451 C   0  0  0  0  0  0  0  0  0  0  0  0
   23.1594  -12.1390  -15.3327 C   0  0  0  0  0  0  0  0  0  0  0  0
   23.6629  -13.3672  -15.3145 N   0  0  0  0  0  0  0  0  0  0  0  0
   24.6802  -13.3751  -16.1932 C   0  0  0  0  0  0  0  0  0  0  0  0
   24.8083  -12.1718  -16.7495 N   0  0  0  0  0  0  0  0  0  0  0  0
   22.4054   -7.8936  -15.8262 C   0  0  0  0  0  0  0  0  0  0  0  0
   22.4256   -7.2067  -16.9212 O   0  0  0  0  0  0  0  0  0  0  0  0
   22.3117   -7.0679  -14.6822 N   0  0  0  0  0  0  0  0  0  0  0  0
   22.2030   -5.6076  -14.7532 C   0  0  1  0  0  0  0  0  0  0  0  0
   21.0391   -5.2099  -15.6191 C   0  0  0  0  0  0  0  0  0  0  0  0
   20.9295   -3.7526  -15.6872 C   0  0  0  0  0  0  0  0  0  0  0  0
   21.9366   -2.9277  -16.1176 C   0  0  0  0  0  0  0  0  0  0  0  0
   21.8115   -1.5562  -16.1879 C   0  0  0  0  0  0  0  0  0  0  0  0
   20.6173   -0.9570  -15.8100 C   0  0  0  0  0  0  0  0  0  0  0  0
   19.5885   -1.7662  -15.3729 C   0  0  0  0  0  0  0  0  0  0  0  0
   19.7380   -3.1235  -15.3124 C   0  0  0  0  0  0  0  0  0  0  0  0
   22.0245   -5.0898  -13.3973 C   0  0  0  0  0  0  0  0  0  0  0  0
   21.7866   -5.8531  -12.2670 O   0  0  0  0  0  0  0  0  0  0  0  0
   22.0839   -3.8342  -13.1846 O   0  0  0  0  0  0  0  0  0  0  0  0
  2  1  1  1
  3  2  1  0
  3  4  1  0
  4  5  1  0
  5  9  1  0
  6  5  2  0
  7  2  1  0
  8  7  2  0
 10  7  1  0
 11 10  1  0
 11 12  1  6
 12 13  1  0
 13 17  1  0
 14 13  2  0
 14 15  1  0
 15 16  1  0
 17 16  2  0
 18 19  2  0
 18 11  1  0
 20 18  1  0
 21 22  1  6
 21 20  1  0
 23 28  1  0
 23 22  1  0
 24 23  2  0
 25 26  2  0
 25 24  1  0
 26 27  1  0
 27 28  2  0
 29 21  1  0
 30 29  1  0
 31 29  2  0
M  END
$$$$
