EHF.pdb
     RDKit          3D

 31 32  0  0  1  0  0  0  0  0999 V2000
   15.2454  -10.3426  -17.0969 N   0  0  0  0  0  0  0  0  0  0  0  0
   15.8198   -9.1409  -16.5932 C   0  0  1  0  0  0  0  0  0  0  0  0
   14.8412   -8.4269  -15.6946 C   0  0  0  0  0  0  0  0  0  0  0  0
   14.3428   -7.1392  -16.2606 C   0  0  0  0  0  0  0  0  0  0  0  0
   12.8952   -7.1134  -16.5316 C   0  0  0  0  0  0  0  0  0  0  0  0
   12.0074   -6.7683  -15.7060 O   0  0  0  0  0  0  0  0  0  0  0  0
   17.0847   -9.3540  -15.8347 C   0  0  0  0  0  0  0  0  0  0  0  0
   17.0981   -9.7066  -14.6099 O   0  0  0  0  0  0  0  0  0  0  0  0
   12.4583   -7.5038  -17.8089 O   0  0  0  0  0  0  0  0  0  0  0  0
   18.2983   -9.1486  -16.5309 N   0  0  0  0  0  0  0  0  0  0  0  0
   19.6252   -9.4127  -15.9002 C   0  0  1  0  0  0  0  0  0  0  0  0
   20.2865  -10.5255  -16.6646 C   0  0  0  0  0  0  0  0  0  0  0  0
   19.6748  -11.8428  -16.4311 C   0  0  0  0  0  0  0  0  0  0  0  0
   20.1231  -12.8432  -15.5627 C   0  0  0  0  0  0  0  0  0  0  0  0
   19.3026  -13.8839  -15.6386 N   0  0  0  0  0  0  0  0  0  0  0  0
   18.3538  -13.5567  -16.5329 C   0  0  0  0  0  0  0  0  0  0  0  0
   18.5796  -12.3325  -17.0063 N   0  0  0  0  0  0  0  0  0  0  0  0
   20.3048   -8.1284  -15.8828 C   0  0  0  0  0  0  0  0  0  0  0  0
   20.3510   -7.4159  -16.9606 O   0  0  0  0  0  0  0  0  0  0  0  0
   20.9588   -7.4972  -14.7997 N   0  0  0  0  0  0  0  0  0  0  0  0
   21.5378   -6.1529  -14.8851 C   0  0  1  0  0  0  0  0  0  0  0  0
   20.4859   -5.1532  -15.2807 C   0  0  0  0  0  0  0  0  0  0  0  0
   21.0518   -3.8044  -15.3131 C   0  0  0  0  0  0  0  0  0  0  0  0
   21.9385   -3.3680  -16.2635 C   0  0  0  0  0  0  0  0  0  0  0  0
   22.4520   -2.0885  -16.2866 C   0  0  0  0  0  0  0  0  0  0  0  0
   22.0680   -1.1785  -15.3106 C   0  0  0  0  0  0  0  0  0  0  0  0
   21.1766   -1.5941  -14.3427 C   0  0  0  0  0  0  0  0  0  0  0  0
   20.6822   -2.8684  -14.3420 C   0  0  0  0  0  0  0  0  0  0  0  0
   22.0991   -5.8066  -13.5800 C   0  0  0  0  0  0  0  0  0  0  0  0
   21.8947   -6.5055  -12.4025 O   0  0  0  0  0  0  0  0  0  0  0  0
   22.8478   -4.7813  -13.4631 O   0  0  0  0  0  0  0  0  0  0  0  0
  2  1  1  1
  3  2  1  0
  3  4  1  0
  4  5  1  0
  5  9  1  0
  6  5  2  0
  7  2  1  0
  8  7  2  0
 10  7  1  0
 11 10  1  0
 11 12  1  6
 12 13  1  0
 13 17  1  0
 14 13  2  0
 14 15  1  0
 15 16  1  0
 17 16  2  0
 18 19  2  0
 18 11  1  0
 20 18  1  0
 21 22  1  1
 21 20  1  0
 23 28  1  0
 23 22  1  0
 24 23  2  0
 25 26  2  0
 25 24  1  0
 26 27  1  0
 27 28  2  0
 29 21  1  0
 30 29  1  0
 31 29  2  0
M  END
$$$$
