EHF.pdb
     RDKit          3D

 31 32  0  0  1  0  0  0  0  0999 V2000
   27.0338  -26.1244  -18.3806 N   0  0  0  0  0  0  0  0  0  0  0  0
   27.9813  -26.6081  -17.4340 C   0  0  1  0  0  0  0  0  0  0  0  0
   27.3307  -27.5933  -16.4954 C   0  0  0  0  0  0  0  0  0  0  0  0
   26.1771  -28.3207  -17.1012 C   0  0  0  0  0  0  0  0  0  0  0  0
   26.2067  -29.7801  -16.9043 C   0  0  0  0  0  0  0  0  0  0  0  0
   26.0166  -30.3692  -15.8061 O   0  0  0  0  0  0  0  0  0  0  0  0
   29.1667  -27.2637  -18.0551 C   0  0  0  0  0  0  0  0  0  0  0  0
   29.1762  -27.6550  -19.2682 O   0  0  0  0  0  0  0  0  0  0  0  0
   26.4683  -30.5893  -18.0230 O   0  0  0  0  0  0  0  0  0  0  0  0
   30.3078  -27.4427  -17.2392 N   0  0  0  0  0  0  0  0  0  0  0  0
   31.5608  -28.0655  -17.7591 C   0  0  1  0  0  0  0  0  0  0  0  0
   32.7202  -27.2319  -17.2891 C   0  0  0  0  0  0  0  0  0  0  0  0
   32.9379  -26.0209  -18.0954 C   0  0  0  0  0  0  0  0  0  0  0  0
   33.5394  -25.9387  -19.3553 C   0  0  0  0  0  0  0  0  0  0  0  0
   33.5520  -24.6709  -19.7486 N   0  0  0  0  0  0  0  0  0  0  0  0
   32.9732  -23.9609  -18.7648 C   0  0  0  0  0  0  0  0  0  0  0  0
   32.6061  -24.7729  -17.7750 N   0  0  0  0  0  0  0  0  0  0  0  0
   31.5169  -29.4475  -17.3126 C   0  0  0  0  0  0  0  0  0  0  0  0
   31.1573  -29.7155  -16.1000 O   0  0  0  0  0  0  0  0  0  0  0  0
   31.8206  -30.6165  -18.0478 N   0  0  0  0  0  0  0  0  0  0  0  0
   31.5256  -31.9685  -17.5634 C   0  0  1  0  0  0  0  0  0  0  0  0
   30.0432  -32.1492  -17.3837 C   0  0  0  0  0  0  0  0  0  0  0  0
   29.7539  -33.4779  -16.8438 C   0  0  0  0  0  0  0  0  0  0  0  0
   29.7857  -33.7858  -15.5081 C   0  0  0  0  0  0  0  0  0  0  0  0
   29.4972  -35.0409  -15.0152 C   0  0  0  0  0  0  0  0  0  0  0  0
   29.1548  -36.0599  -15.8940 C   0  0  0  0  0  0  0  0  0  0  0  0
   29.1160  -35.7748  -17.2436 C   0  0  0  0  0  0  0  0  0  0  0  0
   29.4066  -34.5220  -17.7068 C   0  0  0  0  0  0  0  0  0  0  0  0
   32.0379  -32.9315  -18.5373 C   0  0  0  0  0  0  0  0  0  0  0  0
   32.3053  -34.2669  -18.2877 O   0  0  0  0  0  0  0  0  0  0  0  0
   32.2757  -32.5592  -19.7332 O   0  0  0  0  0  0  0  0  0  0  0  0
  2  1  1  6
  3  2  1  0
  3  4  1  0
  4  5  1  0
  5  9  1  0
  6  5  2  0
  7  2  1  0
  8  7  2  0
 10  7  1  0
 11 10  1  0
 11 12  1  1
 12 13  1  0
 13 17  1  0
 14 13  2  0
 14 15  1  0
 15 16  1  0
 17 16  2  0
 18 19  2  0
 18 11  1  0
 20 18  1  0
 21 22  1  6
 21 20  1  0
 23 28  1  0
 23 22  1  0
 24 23  2  0
 25 26  2  0
 25 24  1  0
 26 27  1  0
 27 28  2  0
 29 21  1  0
 30 29  1  0
 31 29  2  0
M  END
$$$$
