EHF.pdb
     RDKit          3D

 31 32  0  0  1  0  0  0  0  0999 V2000
   27.9601  -22.0822  -17.8375 N   0  0  0  0  0  0  0  0  0  0  0  0
   27.8905  -20.9390  -16.9913 C   0  0  1  0  0  0  0  0  0  0  0  0
   28.3213  -19.7031  -17.7408 C   0  0  0  0  0  0  0  0  0  0  0  0
   29.7013  -19.7969  -18.3010 C   0  0  0  0  0  0  0  0  0  0  0  0
   30.0715  -18.6872  -19.1960 C   0  0  0  0  0  0  0  0  0  0  0  0
   29.3294  -17.7112  -19.4888 O   0  0  0  0  0  0  0  0  0  0  0  0
   26.5339  -20.6955  -16.4246 C   0  0  0  0  0  0  0  0  0  0  0  0
   25.8580  -19.6481  -16.6908 O   0  0  0  0  0  0  0  0  0  0  0  0
   31.3514  -18.7091  -19.7759 O   0  0  0  0  0  0  0  0  0  0  0  0
   26.0065  -21.6845  -15.5624 N   0  0  0  0  0  0  0  0  0  0  0  0
   24.6600  -21.5470  -14.9328 C   0  0  1  0  0  0  0  0  0  0  0  0
   23.7518  -22.5696  -15.5570 C   0  0  0  0  0  0  0  0  0  0  0  0
   23.3118  -22.2135  -16.9147 C   0  0  0  0  0  0  0  0  0  0  0  0
   22.3475  -21.2654  -17.2714 C   0  0  0  0  0  0  0  0  0  0  0  0
   22.2323  -21.2394  -18.5936 N   0  0  0  0  0  0  0  0  0  0  0  0
   23.1011  -22.1480  -19.0698 C   0  0  0  0  0  0  0  0  0  0  0  0
   23.7468  -22.7304  -18.0609 N   0  0  0  0  0  0  0  0  0  0  0  0
   24.8919  -21.6549  -13.5024 C   0  0  0  0  0  0  0  0  0  0  0  0
   25.3344  -22.7651  -13.0093 O   0  0  0  0  0  0  0  0  0  0  0  0
   24.7013  -20.6694  -12.5065 N   0  0  0  0  0  0  0  0  0  0  0  0
   24.9779  -20.9006  -11.0854 C   0  0  1  0  0  0  0  0  0  0  0  0
   26.0872  -20.0008  -10.6141 C   0  0  0  0  0  0  0  0  0  0  0  0
   27.3628  -20.4161  -11.1980 C   0  0  0  0  0  0  0  0  0  0  0  0
   27.8708  -19.9111  -12.3672 C   0  0  0  0  0  0  0  0  0  0  0  0
   29.0817  -20.3046  -12.8967 C   0  0  0  0  0  0  0  0  0  0  0  0
   29.8428  -21.2573  -12.2324 C   0  0  0  0  0  0  0  0  0  0  0  0
   29.3526  -21.7808  -11.0535 C   0  0  0  0  0  0  0  0  0  0  0  0
   28.1488  -21.3739  -10.5497 C   0  0  0  0  0  0  0  0  0  0  0  0
   23.7560  -20.6367  -10.3267 C   0  0  0  0  0  0  0  0  0  0  0  0
   22.5770  -20.1302  -10.8466 O   0  0  0  0  0  0  0  0  0  0  0  0
   23.7219  -20.8767   -9.0751 O   0  0  0  0  0  0  0  0  0  0  0  0
  2  1  1  6
  3  2  1  0
  3  4  1  0
  4  5  1  0
  5  9  1  0
  6  5  2  0
  7  2  1  0
  8  7  2  0
 10  7  1  0
 11 10  1  0
 11 12  1  6
 12 13  1  0
 13 17  1  0
 14 13  2  0
 14 15  1  0
 15 16  1  0
 17 16  2  0
 18 19  2  0
 18 11  1  0
 20 18  1  0
 21 22  1  1
 21 20  1  0
 23 28  1  0
 23 22  1  0
 24 23  2  0
 25 26  2  0
 25 24  1  0
 26 27  1  0
 27 28  2  0
 29 21  1  0
 30 29  1  0
 31 29  2  0
M  END
$$$$
