EHF.pdb
     RDKit          3D

 31 32  0  0  1  0  0  0  0  0999 V2000
   28.7226  -28.0221  -15.8902 N   0  0  0  0  0  0  0  0  0  0  0  0
   29.1641  -27.0777  -16.8602 C   0  0  1  0  0  0  0  0  0  0  0  0
   28.8213  -27.5526  -18.2501 C   0  0  0  0  0  0  0  0  0  0  0  0
   29.5342  -28.8026  -18.6453 C   0  0  0  0  0  0  0  0  0  0  0  0
   31.0012  -28.6781  -18.6910 C   0  0  0  0  0  0  0  0  0  0  0  0
   31.8095  -29.3502  -17.9954 O   0  0  0  0  0  0  0  0  0  0  0  0
   28.5894  -25.7155  -16.6743 C   0  0  0  0  0  0  0  0  0  0  0  0
   27.6062  -25.4869  -15.8959 O   0  0  0  0  0  0  0  0  0  0  0  0
   31.5539  -27.7372  -19.5764 O   0  0  0  0  0  0  0  0  0  0  0  0
   29.1815  -24.6589  -17.4043 N   0  0  0  0  0  0  0  0  0  0  0  0
   28.7412  -23.2419  -17.2408 C   0  0  1  0  0  0  0  0  0  0  0  0
   29.8269  -22.3555  -17.7845 C   0  0  0  0  0  0  0  0  0  0  0  0
   29.4900  -20.9241  -17.7475 C   0  0  0  0  0  0  0  0  0  0  0  0
   28.2545  -20.3525  -17.4268 C   0  0  0  0  0  0  0  0  0  0  0  0
   28.3525  -19.0313  -17.5101 N   0  0  0  0  0  0  0  0  0  0  0  0
   29.6187  -18.7653  -17.8749 C   0  0  0  0  0  0  0  0  0  0  0  0
   30.2982  -19.9020  -18.0164 N   0  0  0  0  0  0  0  0  0  0  0  0
   27.4417  -23.1664  -17.8864 C   0  0  0  0  0  0  0  0  0  0  0  0
   27.1969  -23.9074  -18.9172 O   0  0  0  0  0  0  0  0  0  0  0  0
   26.3336  -22.3613  -17.5352 N   0  0  0  0  0  0  0  0  0  0  0  0
   25.0755  -22.3549  -18.2879 C   0  0  1  0  0  0  0  0  0  0  0  0
   24.3588  -23.6669  -18.1224 C   0  0  0  0  0  0  0  0  0  0  0  0
   23.0932  -23.6520  -18.8564 C   0  0  0  0  0  0  0  0  0  0  0  0
   21.9041  -23.2240  -18.3247 C   0  0  0  0  0  0  0  0  0  0  0  0
   20.7225  -23.2044  -19.0354 C   0  0  0  0  0  0  0  0  0  0  0  0
   20.7101  -23.6338  -20.3559 C   0  0  0  0  0  0  0  0  0  0  0  0
   21.8947  -24.0696  -20.9135 C   0  0  0  0  0  0  0  0  0  0  0  0
   23.0527  -24.0793  -20.1873 C   0  0  0  0  0  0  0  0  0  0  0  0
   24.2445  -21.2587  -17.7919 C   0  0  0  0  0  0  0  0  0  0  0  0
   23.3135  -20.5523  -18.5342 O   0  0  0  0  0  0  0  0  0  0  0  0
   24.3485  -20.8826  -16.5782 O   0  0  0  0  0  0  0  0  0  0  0  0
  2  1  1  1
  3  2  1  0
  3  4  1  0
  4  5  1  0
  5  9  1  0
  6  5  2  0
  7  2  1  0
  8  7  2  0
 10  7  1  0
 11 10  1  0
 11 12  1  6
 12 13  1  0
 13 17  1  0
 14 13  2  0
 14 15  1  0
 15 16  1  0
 17 16  2  0
 18 19  2  0
 18 11  1  0
 20 18  1  0
 21 22  1  1
 21 20  1  0
 23 28  1  0
 23 22  1  0
 24 23  2  0
 25 26  2  0
 25 24  1  0
 26 27  1  0
 27 28  2  0
 29 21  1  0
 30 29  1  0
 31 29  2  0
M  END
$$$$
