GYI.pdb
     RDKit          3D

 25 25  0  0  1  0  0  0  0  0999 V2000
    7.8562  -21.1577   27.8257 N   0  0  0  0  0  0  0  0  0  0  0  0
    8.4085  -20.4310   26.7057 C   0  0  0  0  0  0  0  0  0  0  0  0
    8.2559  -18.9751   26.9105 C   0  0  0  0  0  0  0  0  0  0  0  0
    7.3180  -18.5450   27.6278 O   0  0  0  0  0  0  0  0  0  0  0  0
   12.5137  -16.7884   32.0266 O   0  0  0  0  0  0  0  0  0  0  0  0
   11.9803  -16.6225   30.7549 C   0  0  0  0  0  0  0  0  0  0  0  0
   11.3215  -15.4648   30.4007 C   0  0  0  0  0  0  0  0  0  0  0  0
   10.7766  -15.2558   29.1517 C   0  0  0  0  0  0  0  0  0  0  0  0
   10.8692  -16.2227   28.1727 C   0  0  0  0  0  0  0  0  0  0  0  0
   10.3293  -16.0564   26.8325 C   0  0  0  0  0  0  0  0  0  0  0  0
    8.9708  -16.6293   26.5517 C   0  0  2  0  0  0  0  0  0  0  0  0
    9.1669  -18.0900   26.2966 N   0  0  0  0  0  0  0  0  0  0  0  0
    8.3266  -16.0273   25.3732 C   0  0  0  0  0  0  0  0  0  0  0  0
    8.2462  -16.7937   24.3390 O   0  0  0  0  0  0  0  0  0  0  0  0
   11.5410  -17.3994   28.5399 C   0  0  0  0  0  0  0  0  0  0  0  0
   12.0797  -17.5980   29.7857 C   0  0  0  0  0  0  0  0  0  0  0  0
    5.6258  -11.3232   25.6838 C   0  0  0  0  0  0  0  0  0  0  0  0
    5.6495  -12.7032   25.1108 C   0  0  0  0  0  0  0  0  0  0  0  0
    6.7409  -12.8728   24.0727 C   0  0  2  0  0  0  0  0  0  0  0  0
    6.2572  -12.5232   22.6878 C   0  0  0  0  0  0  0  0  0  0  0  0
    7.2039  -14.3295   24.0127 C   0  0  2  0  0  0  0  0  0  0  0  0
    7.7935  -14.7151   25.2815 N   0  0  0  0  0  0  0  0  0  0  0  0
    8.2444  -14.3667   22.9673 C   0  0  0  0  0  0  0  0  0  0  0  0
    7.8959  -14.4891   21.7690 O   0  0  0  0  0  0  0  0  0  0  0  0
    9.6109  -14.2673   23.2913 O   0  0  0  0  0  0  0  0  0  0  0  0
  2  3  1  0
  2  1  1  0
  3  4  2  0
  6  7  2  0
  6  5  1  0
  8  7  1  0
  9  8  2  0
 10  9  1  0
 11 10  1  6
 12 11  1  0
 12  3  1  0
 13 22  1  0
 13 11  1  0
 14 13  2  0
 15  9  1  0
 15 16  2  0
 16  6  1  0
 18 17  1  0
 19 20  1  6
 19 18  1  0
 21 19  1  0
 21 22  1  1
 23 25  1  0
 23 21  1  0
 24 23  2  0
M  END
$$$$
