GYI.pdb
     RDKit          3D

 25 25  0  0  1  0  0  0  0  0999 V2000
    3.7575  -19.7896   21.5378 N   0  0  0  0  0  0  0  0  0  0  0  0
    5.1682  -19.7188   21.8418 C   0  0  0  0  0  0  0  0  0  0  0  0
    5.3788  -19.1061   23.1704 C   0  0  0  0  0  0  0  0  0  0  0  0
    4.3863  -18.7389   23.8480 O   0  0  0  0  0  0  0  0  0  0  0  0
    6.1951  -23.6521   28.6239 O   0  0  0  0  0  0  0  0  0  0  0  0
    6.6078  -22.5345   27.9099 C   0  0  0  0  0  0  0  0  0  0  0  0
    6.3116  -21.2597   28.3420 C   0  0  0  0  0  0  0  0  0  0  0  0
    6.7000  -20.1222   27.6669 C   0  0  0  0  0  0  0  0  0  0  0  0
    7.4233  -20.2111   26.4960 C   0  0  0  0  0  0  0  0  0  0  0  0
    7.8754  -19.0496   25.7465 C   0  0  0  0  0  0  0  0  0  0  0  0
    6.8461  -18.2680   24.9834 C   0  0  2  0  0  0  0  0  0  0  0  0
    6.6928  -18.9430   23.6575 N   0  0  0  0  0  0  0  0  0  0  0  0
    7.2405  -16.8682   24.7569 C   0  0  0  0  0  0  0  0  0  0  0  0
    7.8339  -16.6388   23.6350 O   0  0  0  0  0  0  0  0  0  0  0  0
    7.7214  -21.5122   26.0612 C   0  0  0  0  0  0  0  0  0  0  0  0
    7.3301  -22.6381   26.7401 C   0  0  0  0  0  0  0  0  0  0  0  0
    5.1974  -12.3993   27.4020 C   0  0  0  0  0  0  0  0  0  0  0  0
    5.6624  -13.2661   26.2769 C   0  0  0  0  0  0  0  0  0  0  0  0
    7.1702  -13.4201   26.2590 C   0  0  2  0  0  0  0  0  0  0  0  0
    7.8590  -12.1490   25.8298 C   0  0  0  0  0  0  0  0  0  0  0  0
    7.5887  -14.4968   25.2562 C   0  0  2  0  0  0  0  0  0  0  0  0
    7.0228  -15.7773   25.6384 N   0  0  0  0  0  0  0  0  0  0  0  0
    9.0590  -14.5720   25.3534 C   0  0  0  0  0  0  0  0  0  0  0  0
    9.7514  -13.7258   24.7396 O   0  0  0  0  0  0  0  0  0  0  0  0
    9.6914  -15.5703   26.1186 O   0  0  0  0  0  0  0  0  0  0  0  0
  2  3  1  0
  2  1  1  0
  3  4  2  0
  6  7  2  0
  6  5  1  0
  8  7  1  0
  9  8  2  0
 10  9  1  0
 11 10  1  1
 12 11  1  0
 12  3  1  0
 13 22  1  0
 13 11  1  0
 14 13  2  0
 15  9  1  0
 15 16  2  0
 16  6  1  0
 18 17  1  0
 19 20  1  6
 19 18  1  0
 21 19  1  0
 21 22  1  1
 23 25  1  0
 23 21  1  0
 24 23  2  0
M  END
$$$$
