GYI.pdb
     RDKit          3D

 25 25  0  0  1  0  0  0  0  0999 V2000
    5.2239  -20.2122   24.2684 N   0  0  0  0  0  0  0  0  0  0  0  0
    5.9989  -19.3936   25.1722 C   0  0  0  0  0  0  0  0  0  0  0  0
    6.0133  -17.9892   24.7115 C   0  0  0  0  0  0  0  0  0  0  0  0
    5.4628  -17.6883   23.6226 O   0  0  0  0  0  0  0  0  0  0  0  0
   11.3561  -15.1467   29.5303 O   0  0  0  0  0  0  0  0  0  0  0  0
   10.2643  -15.0402   28.6785 C   0  0  0  0  0  0  0  0  0  0  0  0
   10.1315  -13.9741   27.8151 C   0  0  0  0  0  0  0  0  0  0  0  0
    9.0662  -13.8266   26.9525 C   0  0  0  0  0  0  0  0  0  0  0  0
    8.0573  -14.7659   26.9132 C   0  0  0  0  0  0  0  0  0  0  0  0
    6.9165  -14.6753   26.0156 C   0  0  0  0  0  0  0  0  0  0  0  0
    6.8391  -15.6588   24.8846 C   0  0  2  0  0  0  0  0  0  0  0  0
    6.6459  -17.0071   25.5025 N   0  0  0  0  0  0  0  0  0  0  0  0
    8.0608  -15.6869   24.0641 C   0  0  0  0  0  0  0  0  0  0  0  0
    8.8017  -16.7315   24.2168 O   0  0  0  0  0  0  0  0  0  0  0  0
    8.1982  -15.8490   27.7951 C   0  0  0  0  0  0  0  0  0  0  0  0
    9.2622  -15.9867   28.6500 C   0  0  0  0  0  0  0  0  0  0  0  0
    7.1647  -12.3304   19.9092 C   0  0  0  0  0  0  0  0  0  0  0  0
    7.3235  -13.5482   20.7608 C   0  0  0  0  0  0  0  0  0  0  0  0
    8.7594  -14.0316   20.8055 C   0  0  2  0  0  0  0  0  0  0  0  0
    9.2004  -14.6034   19.4815 C   0  0  0  0  0  0  0  0  0  0  0  0
    8.9171  -15.1534   21.8335 C   0  0  2  0  0  0  0  0  0  0  0  0
    8.4784  -14.6952   23.1387 N   0  0  0  0  0  0  0  0  0  0  0  0
   10.3642  -15.4372   21.8842 C   0  0  0  0  0  0  0  0  0  0  0  0
   11.0379  -14.9834   22.8394 O   0  0  0  0  0  0  0  0  0  0  0  0
   10.9948  -16.2034   20.8856 O   0  0  0  0  0  0  0  0  0  0  0  0
  2  3  1  0
  2  1  1  0
  3  4  2  0
  6  7  2  0
  6  5  1  0
  8  7  1  0
  9  8  2  0
 10  9  1  0
 11 10  1  1
 12 11  1  0
 12  3  1  0
 13 22  1  0
 13 11  1  0
 14 13  2  0
 15  9  1  0
 15 16  2  0
 16  6  1  0
 18 17  1  0
 19 20  1  6
 19 18  1  0
 21 19  1  0
 21 22  1  1
 23 25  1  0
 23 21  1  0
 24 23  2  0
M  END
$$$$
