GYI.pdb
     RDKit          3D

 25 25  0  0  1  0  0  0  0  0999 V2000
    7.6902  -21.3238   27.6623 N   0  0  0  0  0  0  0  0  0  0  0  0
    8.0383  -20.5433   26.4973 C   0  0  0  0  0  0  0  0  0  0  0  0
    7.9505  -19.0991   26.7996 C   0  0  0  0  0  0  0  0  0  0  0  0
    7.0476  -18.6802   27.5668 O   0  0  0  0  0  0  0  0  0  0  0  0
   12.2942  -17.0270   31.9954 O   0  0  0  0  0  0  0  0  0  0  0  0
   11.7619  -16.8205   30.7293 C   0  0  0  0  0  0  0  0  0  0  0  0
   11.8351  -17.7927   29.7550 C   0  0  0  0  0  0  0  0  0  0  0  0
   11.3213  -17.6326   28.4857 C   0  0  0  0  0  0  0  0  0  0  0  0
   10.6929  -16.4596   28.1237 C   0  0  0  0  0  0  0  0  0  0  0  0
   10.1172  -16.2356   26.8070 C   0  0  0  0  0  0  0  0  0  0  0  0
    8.7348  -16.7612   26.5516 C   0  0  2  0  0  0  0  0  0  0  0  0
    8.8831  -18.2124   26.2213 N   0  0  0  0  0  0  0  0  0  0  0  0
    8.0637  -16.0882   25.4277 C   0  0  0  0  0  0  0  0  0  0  0  0
    7.8706  -16.8210   24.3841 O   0  0  0  0  0  0  0  0  0  0  0  0
   10.6219  -15.4735   29.1203 C   0  0  0  0  0  0  0  0  0  0  0  0
   11.1365  -15.6423   30.3806 C   0  0  0  0  0  0  0  0  0  0  0  0
    5.8400  -11.1007   25.8719 C   0  0  0  0  0  0  0  0  0  0  0  0
    5.7091  -12.4827   25.3184 C   0  0  0  0  0  0  0  0  0  0  0  0
    6.7437  -12.7708   24.2488 C   0  0  2  0  0  0  0  0  0  0  0  0
    6.2715  -12.3435   22.8818 C   0  0  0  0  0  0  0  0  0  0  0  0
    7.0204  -14.2726   24.1592 C   0  0  2  0  0  0  0  0  0  0  0  0
    7.6155  -14.7419   25.3969 N   0  0  0  0  0  0  0  0  0  0  0  0
    7.9994  -14.4257   23.0659 C   0  0  0  0  0  0  0  0  0  0  0  0
    7.5846  -14.6976   21.9143 O   0  0  0  0  0  0  0  0  0  0  0  0
    9.3802  -14.2722   23.2936 O   0  0  0  0  0  0  0  0  0  0  0  0
  2  3  1  0
  2  1  1  0
  3  4  2  0
  6  7  2  0
  6  5  1  0
  8  7  1  0
  9  8  2  0
 10  9  1  0
 11 10  1  6
 12 11  1  0
 12  3  1  0
 13 22  1  0
 13 11  1  0
 14 13  2  0
 15  9  1  0
 15 16  2  0
 16  6  1  0
 18 17  1  0
 19 20  1  6
 19 18  1  0
 21 19  1  0
 21 22  1  1
 23 25  1  0
 23 21  1  0
 24 23  2  0
M  END
$$$$
