GYI.pdb
     RDKit          3D

 25 25  0  0  1  0  0  0  0  0999 V2000
   12.3306  -16.7758   19.7256 N   0  0  0  0  0  0  0  0  0  0  0  0
   11.4865  -17.2750   20.7867 C   0  0  0  0  0  0  0  0  0  0  0  0
   10.8082  -16.1565   21.4749 C   0  0  0  0  0  0  0  0  0  0  0  0
   11.4285  -15.0810   21.6697 O   0  0  0  0  0  0  0  0  0  0  0  0
    7.6129  -13.9393   16.1596 O   0  0  0  0  0  0  0  0  0  0  0  0
    7.5760  -14.1854   17.5260 C   0  0  0  0  0  0  0  0  0  0  0  0
    7.3420  -15.4510   18.0192 C   0  0  0  0  0  0  0  0  0  0  0  0
    7.2965  -15.7423   19.3659 C   0  0  0  0  0  0  0  0  0  0  0  0
    7.4892  -14.7526   20.3069 C   0  0  0  0  0  0  0  0  0  0  0  0
    7.4689  -14.9986   21.7401 C   0  0  0  0  0  0  0  0  0  0  0  0
    8.7879  -15.1019   22.4488 C   0  0  2  0  0  0  0  0  0  0  0  0
    9.4732  -16.3141   21.9029 N   0  0  0  0  0  0  0  0  0  0  0  0
    8.6459  -15.2566   23.9056 C   0  0  0  0  0  0  0  0  0  0  0  0
    8.9596  -16.4190   24.3682 O   0  0  0  0  0  0  0  0  0  0  0  0
    7.7268  -13.4659   19.7982 C   0  0  0  0  0  0  0  0  0  0  0  0
    7.7698  -13.1861   18.4559 C   0  0  0  0  0  0  0  0  0  0  0  0
    6.1761  -11.5182   27.3475 C   0  0  0  0  0  0  0  0  0  0  0  0
    6.5752  -12.6773   26.4927 C   0  0  0  0  0  0  0  0  0  0  0  0
    7.7509  -13.4379   27.0730 C   0  0  2  0  0  0  0  0  0  0  0  0
    9.0008  -12.5951   27.1110 C   0  0  0  0  0  0  0  0  0  0  0  0
    8.0798  -14.6582   26.2111 C   0  0  2  0  0  0  0  0  0  0  0  0
    8.2134  -14.2622   24.8213 N   0  0  0  0  0  0  0  0  0  0  0  0
    6.9177  -15.5573   26.3459 C   0  0  0  0  0  0  0  0  0  0  0  0
    6.0998  -15.6372   25.3989 O   0  0  0  0  0  0  0  0  0  0  0  0
    6.7149  -16.3208   27.5112 O   0  0  0  0  0  0  0  0  0  0  0  0
  2  3  1  0
  2  1  1  0
  3  4  2  0
  6  7  2  0
  6  5  1  0
  8  7  1  0
  9  8  2  0
 10  9  1  0
 11 10  1  6
 12 11  1  0
 12  3  1  0
 13 22  1  0
 13 11  1  0
 14 13  2  0
 15  9  1  0
 15 16  2  0
 16  6  1  0
 18 17  1  0
 19 20  1  6
 19 18  1  0
 21 19  1  0
 21 22  1  6
 23 25  1  0
 23 21  1  0
 24 23  2  0
M  END
$$$$
