GYI.pdb
     RDKit          3D

 25 25  0  0  1  0  0  0  0  0999 V2000
    7.8530  -19.5986   21.2449 N   0  0  0  0  0  0  0  0  0  0  0  0
    7.2056  -18.4773   21.8859 C   0  0  0  0  0  0  0  0  0  0  0  0
    8.1084  -17.3072   21.9121 C   0  0  0  0  0  0  0  0  0  0  0  0
    9.2953  -17.4310   21.5180 O   0  0  0  0  0  0  0  0  0  0  0  0
    7.7162  -13.5010   16.1320 O   0  0  0  0  0  0  0  0  0  0  0  0
    7.7688  -13.5514   17.5190 C   0  0  0  0  0  0  0  0  0  0  0  0
    6.8499  -14.2794   18.2439 C   0  0  0  0  0  0  0  0  0  0  0  0
    6.8630  -14.3586   19.6202 C   0  0  0  0  0  0  0  0  0  0  0  0
    7.8233  -13.6946   20.3543 C   0  0  0  0  0  0  0  0  0  0  0  0
    7.8998  -13.7512   21.8055 C   0  0  0  0  0  0  0  0  0  0  0  0
    8.5934  -14.9308   22.4219 C   0  0  2  0  0  0  0  0  0  0  0  0
    7.6227  -16.0679   22.3798 N   0  0  0  0  0  0  0  0  0  0  0  0
    8.9867  -14.6983   23.8211 C   0  0  0  0  0  0  0  0  0  0  0  0
    9.9960  -13.9124   23.9853 O   0  0  0  0  0  0  0  0  0  0  0  0
    8.7558  -12.9548   19.6101 C   0  0  0  0  0  0  0  0  0  0  0  0
    8.7343  -12.8820   18.2404 C   0  0  0  0  0  0  0  0  0  0  0  0
    6.0678  -12.3638   26.8057 C   0  0  0  0  0  0  0  0  0  0  0  0
    7.3192  -12.9339   26.2205 C   0  0  0  0  0  0  0  0  0  0  0  0
    7.8782  -14.0665   27.0585 C   0  0  2  0  0  0  0  0  0  0  0  0
    8.5879  -13.5574   28.2879 C   0  0  0  0  0  0  0  0  0  0  0  0
    8.9129  -14.8639   26.2626 C   0  0  2  0  0  0  0  0  0  0  0  0
    8.3631  -15.2427   24.9741 N   0  0  0  0  0  0  0  0  0  0  0  0
    9.1629  -16.0824   27.0563 C   0  0  0  0  0  0  0  0  0  0  0  0
    9.7718  -15.9809   28.1477 O   0  0  0  0  0  0  0  0  0  0  0  0
    8.7316  -17.3465   26.6113 O   0  0  0  0  0  0  0  0  0  0  0  0
  2  3  1  0
  2  1  1  0
  3  4  2  0
  6  7  2  0
  6  5  1  0
  8  7  1  0
  9  8  2  0
 10  9  1  0
 11 10  1  1
 12 11  1  0
 12  3  1  0
 13 22  1  0
 13 11  1  0
 14 13  2  0
 15  9  1  0
 15 16  2  0
 16  6  1  0
 18 17  1  0
 19 20  1  1
 19 18  1  0
 21 19  1  0
 21 22  1  6
 23 25  1  0
 23 21  1  0
 24 23  2  0
M  END
$$$$
