GYI.pdb
     RDKit          3D

 25 25  0  0  1  0  0  0  0  0999 V2000
   12.1702  -16.8400   19.7468 N   0  0  0  0  0  0  0  0  0  0  0  0
   10.9987  -17.3321   20.4346 C   0  0  0  0  0  0  0  0  0  0  0  0
   10.6065  -16.4019   21.5143 C   0  0  0  0  0  0  0  0  0  0  0  0
   11.3684  -15.4506   21.8202 O   0  0  0  0  0  0  0  0  0  0  0  0
    5.3626  -11.6892   26.9203 O   0  0  0  0  0  0  0  0  0  0  0  0
    5.9111  -12.6008   26.0274 C   0  0  0  0  0  0  0  0  0  0  0  0
    5.8260  -13.9586   26.2482 C   0  0  0  0  0  0  0  0  0  0  0  0
    6.3548  -14.8996   25.3907 C   0  0  0  0  0  0  0  0  0  0  0  0
    7.0109  -14.5139   24.2406 C   0  0  0  0  0  0  0  0  0  0  0  0
    7.5762  -15.4574   23.2891 C   0  0  0  0  0  0  0  0  0  0  0  0
    9.0635  -15.6580   23.3055 C   0  0  2  0  0  0  0  0  0  0  0  0
    9.3809  -16.5970   22.1854 N   0  0  0  0  0  0  0  0  0  0  0  0
    9.5495  -16.2450   24.5647 C   0  0  0  0  0  0  0  0  0  0  0  0
    9.9647  -17.4631   24.4793 O   0  0  0  0  0  0  0  0  0  0  0  0
    7.0944  -13.1297   24.0217 C   0  0  0  0  0  0  0  0  0  0  0  0
    6.5651  -12.2010   24.8813 C   0  0  0  0  0  0  0  0  0  0  0  0
   10.8420  -13.0387   28.9004 C   0  0  0  0  0  0  0  0  0  0  0  0
   10.9767  -14.0039   27.7675 C   0  0  0  0  0  0  0  0  0  0  0  0
   10.4311  -15.3745   28.1159 C   0  0  2  0  0  0  0  0  0  0  0  0
   11.3111  -16.0932   29.1075 C   0  0  0  0  0  0  0  0  0  0  0  0
   10.3709  -16.2614   26.8710 C   0  0  2  0  0  0  0  0  0  0  0  0
    9.6068  -15.6015   25.8284 N   0  0  0  0  0  0  0  0  0  0  0  0
    9.6556  -17.4808   27.2934 C   0  0  0  0  0  0  0  0  0  0  0  0
    8.4017  -17.4804   27.2896 O   0  0  0  0  0  0  0  0  0  0  0  0
   10.3531  -18.6353   27.6968 O   0  0  0  0  0  0  0  0  0  0  0  0
  2  3  1  0
  2  1  1  0
  3  4  2  0
  6  7  2  0
  6  5  1  0
  8  7  1  0
  9  8  2  0
 10  9  1  0
 11 10  1  1
 12 11  1  0
 12  3  1  0
 13 22  1  0
 13 11  1  0
 14 13  2  0
 15  9  1  0
 15 16  2  0
 16  6  1  0
 18 17  1  0
 19 20  1  1
 19 18  1  0
 21 19  1  0
 21 22  1  6
 23 25  1  0
 23 21  1  0
 24 23  2  0
M  END
$$$$
