GYI.pdb
     RDKit          3D

 25 25  0  0  1  0  0  0  0  0999 V2000
    6.7103  -21.2182   24.9366 N   0  0  0  0  0  0  0  0  0  0  0  0
    6.0379  -19.9444   25.0500 C   0  0  0  0  0  0  0  0  0  0  0  0
    6.8970  -18.8602   24.5293 C   0  0  0  0  0  0  0  0  0  0  0  0
    8.1011  -19.0986   24.2598 O   0  0  0  0  0  0  0  0  0  0  0  0
    8.9057  -12.5643   18.8618 O   0  0  0  0  0  0  0  0  0  0  0  0
    8.2841  -13.3037   19.8598 C   0  0  0  0  0  0  0  0  0  0  0  0
    8.0821  -14.6604   19.7248 C   0  0  0  0  0  0  0  0  0  0  0  0
    7.4704  -15.4343   20.6879 C   0  0  0  0  0  0  0  0  0  0  0  0
    7.0209  -14.8699   21.8632 C   0  0  0  0  0  0  0  0  0  0  0  0
    6.3827  -15.6344   22.9231 C   0  0  0  0  0  0  0  0  0  0  0  0
    7.2508  -16.5325   23.7552 C   0  0  2  0  0  0  0  0  0  0  0  0
    6.3509  -17.5728   24.3428 N   0  0  0  0  0  0  0  0  0  0  0  0
    7.9277  -15.8211   24.8516 C   0  0  0  0  0  0  0  0  0  0  0  0
    7.3896  -14.7004   25.1949 O   0  0  0  0  0  0  0  0  0  0  0  0
    7.2293  -13.4878   21.9945 C   0  0  0  0  0  0  0  0  0  0  0  0
    7.8389  -12.7263   21.0300 C   0  0  0  0  0  0  0  0  0  0  0  0
    9.4601  -14.1006   29.2221 C   0  0  0  0  0  0  0  0  0  0  0  0
    9.5650  -15.0345   28.0601 C   0  0  0  0  0  0  0  0  0  0  0  0
    9.9155  -14.3113   26.7750 C   0  0  2  0  0  0  0  0  0  0  0  0
    8.7858  -13.4330   26.2993 C   0  0  0  0  0  0  0  0  0  0  0  0
   10.1854  -15.3132   25.6509 C   0  0  2  0  0  0  0  0  0  0  0  0
    9.0849  -16.2538   25.5502 N   0  0  0  0  0  0  0  0  0  0  0  0
   11.4037  -16.0392   26.0579 C   0  0  0  0  0  0  0  0  0  0  0  0
   12.4898  -15.4155   26.1177 O   0  0  0  0  0  0  0  0  0  0  0  0
   11.3659  -17.4097   26.3778 O   0  0  0  0  0  0  0  0  0  0  0  0
  2  3  1  0
  2  1  1  0
  3  4  2  0
  6  7  2  0
  6  5  1  0
  8  7  1  0
  9  8  2  0
 10  9  1  0
 11 10  1  1
 12 11  1  0
 12  3  1  0
 13 22  1  0
 13 11  1  0
 14 13  2  0
 15  9  1  0
 15 16  2  0
 16  6  1  0
 18 17  1  0
 19 20  1  6
 19 18  1  0
 21 19  1  0
 21 22  1  1
 23 25  1  0
 23 21  1  0
 24 23  2  0
M  END
$$$$
