GYI.pdb
     RDKit          3D

 25 25  0  0  1  0  0  0  0  0999 V2000
    6.9848  -19.2290   27.8986 N   0  0  0  0  0  0  0  0  0  0  0  0
    7.3690  -19.2566   26.5060 C   0  0  0  0  0  0  0  0  0  0  0  0
    7.3265  -17.8949   25.9328 C   0  0  0  0  0  0  0  0  0  0  0  0
    6.3252  -17.1650   26.1425 O   0  0  0  0  0  0  0  0  0  0  0  0
   10.4368  -14.8435   30.7845 O   0  0  0  0  0  0  0  0  0  0  0  0
   10.2444  -14.9842   29.4162 C   0  0  0  0  0  0  0  0  0  0  0  0
    9.5057  -14.0675   28.6994 C   0  0  0  0  0  0  0  0  0  0  0  0
    9.2884  -14.1661   27.3416 C   0  0  0  0  0  0  0  0  0  0  0  0
    9.8156  -15.2156   26.6189 C   0  0  0  0  0  0  0  0  0  0  0  0
    9.6354  -15.3671   25.1837 C   0  0  0  0  0  0  0  0  0  0  0  0
    8.3672  -16.0108   24.7041 C   0  0  2  0  0  0  0  0  0  0  0  0
    8.4123  -17.4353   25.1580 N   0  0  0  0  0  0  0  0  0  0  0  0
    8.2305  -15.9872   23.2387 C   0  0  0  0  0  0  0  0  0  0  0  0
    7.8947  -17.1098   22.6997 O   0  0  0  0  0  0  0  0  0  0  0  0
   10.5666  -16.1459   27.3547 C   0  0  0  0  0  0  0  0  0  0  0  0
   10.7770  -16.0391   28.7060 C   0  0  0  0  0  0  0  0  0  0  0  0
    7.5711  -11.3693   20.5302 C   0  0  0  0  0  0  0  0  0  0  0  0
    7.2279  -12.8067   20.7526 C   0  0  0  0  0  0  0  0  0  0  0  0
    8.3018  -13.7389   20.2280 C   0  0  2  0  0  0  0  0  0  0  0  0
    8.1074  -14.0525   18.7658 C   0  0  0  0  0  0  0  0  0  0  0  0
    8.2580  -15.0783   20.9657 C   0  0  2  0  0  0  0  0  0  0  0  0
    8.4227  -14.8648   22.3916 N   0  0  0  0  0  0  0  0  0  0  0  0
    9.4127  -15.8432   20.4569 C   0  0  0  0  0  0  0  0  0  0  0  0
   10.5111  -15.7525   21.0549 O   0  0  0  0  0  0  0  0  0  0  0  0
    9.3012  -16.6667   19.3205 O   0  0  0  0  0  0  0  0  0  0  0  0
  2  3  1  0
  2  1  1  0
  3  4  2  0
  6  7  2  0
  6  5  1  0
  8  7  1  0
  9  8  2  0
 10  9  1  0
 11 10  1  6
 12 11  1  0
 12  3  1  0
 13 22  1  0
 13 11  1  0
 14 13  2  0
 15  9  1  0
 15 16  2  0
 16  6  1  0
 18 17  1  0
 19 20  1  6
 19 18  1  0
 21 19  1  0
 21 22  1  1
 23 25  1  0
 23 21  1  0
 24 23  2  0
M  END
$$$$
