ETW.pdb
     RDKit          3D

 31 32  0  0  1  0  0  0  0  0999 V2000
   26.5985  -21.1021  -17.2194 N   0  0  0  0  0  0  0  0  0  0  0  0
   27.3443  -21.4601  -16.0311 C   0  0  1  0  0  0  0  0  0  0  0  0
   28.7990  -21.2971  -16.3025 C   0  0  0  0  0  0  0  0  0  0  0  0
   29.1806  -22.3619  -17.3386 C   0  0  0  0  0  0  0  0  0  0  0  0
   29.4838  -21.7252  -18.6437 C   0  0  0  0  0  0  0  0  0  0  0  0
   28.9565  -22.1394  -19.6878 O   0  0  0  0  0  0  0  0  0  0  0  0
   26.8298  -20.7479  -14.8645 C   0  0  0  0  0  0  0  0  0  0  0  0
   26.4831  -19.5451  -14.9869 O   0  0  0  0  0  0  0  0  0  0  0  0
   30.3577  -20.6654  -18.6987 O   0  0  0  0  0  0  0  0  0  0  0  0
   24.5204  -19.6413  -14.1500 C   0  0  0  0  0  0  0  0  0  0  0  0
   24.6178  -20.3687  -12.8431 C   0  0  1  0  0  0  0  0  0  0  0  0
   23.8201  -21.4827  -12.7691 O   0  0  0  0  0  0  0  0  0  0  0  0
   26.0667  -20.6230  -12.4489 C   0  0  2  0  0  0  0  0  0  0  0  0
   26.6887  -21.3259  -13.5718 N   0  0  0  0  0  0  0  0  0  0  0  0
   26.2185  -21.3417  -11.1900 C   0  0  0  0  0  0  0  0  0  0  0  0
   26.9926  -22.3203  -11.1090 O   0  0  0  0  0  0  0  0  0  0  0  0
   25.4920  -20.9367  -10.0508 N   0  0  0  0  0  0  0  0  0  0  0  0
   25.6765  -21.5109   -8.7149 C   0  0  1  0  0  0  0  0  0  0  0  0
   27.1104  -21.4898   -8.3426 C   0  0  0  0  0  0  0  0  0  0  0  0
   27.5254  -20.3520   -7.5387 C   0  0  0  0  0  0  0  0  0  0  0  0
   27.2767  -18.9960   -7.7218 C   0  0  0  0  0  0  0  0  0  0  0  0
   27.8602  -18.2579   -6.7692 N   0  0  0  0  0  0  0  0  0  0  0  0
   28.5017  -19.0924   -5.9412 C   0  0  0  0  0  0  0  0  0  0  0  0
   29.2443  -18.8134   -4.7912 C   0  0  0  0  0  0  0  0  0  0  0  0
   29.8171  -19.8253   -4.0589 C   0  0  0  0  0  0  0  0  0  0  0  0
   29.6280  -21.1285   -4.5070 C   0  0  0  0  0  0  0  0  0  0  0  0
   28.8988  -21.3954   -5.6367 C   0  0  0  0  0  0  0  0  0  0  0  0
   28.3134  -20.3923   -6.3898 C   0  0  0  0  0  0  0  0  0  0  0  0
   24.7011  -20.9804   -7.7913 C   0  0  0  0  0  0  0  0  0  0  0  0
   24.5214  -21.4909   -6.5379 O   0  0  0  0  0  0  0  0  0  0  0  0
   23.9706  -19.9997   -8.1515 O   0  0  0  0  0  0  0  0  0  0  0  0
  2  3  1  0
  2  1  1  6
  3  4  1  0
  4  5  1  0
  5  9  1  0
  6  5  2  0
  7  2  1  0
  8  7  2  0
 11 10  1  6
 11 13  1  0
 12 11  1  0
 13 14  1  6
 14  7  1  0
 15 13  1  0
 15 17  1  0
 16 15  2  0
 18 17  1  0
 18 29  1  0
 18 19  1  1
 20 19  1  0
 20 21  2  0
 22 21  1  0
 23 22  1  0
 24 23  2  0
 25 24  1  0
 26 25  2  0
 26 27  1  0
 27 28  2  0
 28 23  1  0
 28 20  1  0
 29 30  1  0
 31 29  2  0
M  END
$$$$
