ETW.pdb
     RDKit          3D

 31 32  0  0  1  0  0  0  0  0999 V2000
   28.2794  -20.6032  -17.1040 N   0  0  0  0  0  0  0  0  0  0  0  0
   28.2883  -19.6138  -16.0470 C   0  0  1  0  0  0  0  0  0  0  0  0
   28.3671  -18.2560  -16.6525 C   0  0  0  0  0  0  0  0  0  0  0  0
   29.6381  -18.2244  -17.5108 C   0  0  0  0  0  0  0  0  0  0  0  0
   29.7285  -16.9415  -18.2500 C   0  0  0  0  0  0  0  0  0  0  0  0
   30.7217  -16.6811  -18.9468 O   0  0  0  0  0  0  0  0  0  0  0  0
   27.1800  -19.8360  -15.1223 C   0  0  0  0  0  0  0  0  0  0  0  0
   26.0018  -19.6667  -15.5288 O   0  0  0  0  0  0  0  0  0  0  0  0
   28.7024  -16.0307  -18.1633 O   0  0  0  0  0  0  0  0  0  0  0  0
   24.8834  -21.0475  -14.9444 C   0  0  0  0  0  0  0  0  0  0  0  0
   25.3434  -21.5564  -13.6117 C   0  0  1  0  0  0  0  0  0  0  0  0
   25.8976  -22.8107  -13.6597 O   0  0  0  0  0  0  0  0  0  0  0  0
   26.2050  -20.5311  -12.8863 C   0  0  2  0  0  0  0  0  0  0  0  0
   27.3372  -20.2384  -13.7663 N   0  0  0  0  0  0  0  0  0  0  0  0
   26.6283  -20.9511  -11.5564 C   0  0  0  0  0  0  0  0  0  0  0  0
   27.8045  -21.3247  -11.3549 O   0  0  0  0  0  0  0  0  0  0  0  0
   25.7121  -20.9380  -10.4841 N   0  0  0  0  0  0  0  0  0  0  0  0
   26.1042  -20.9350   -9.0717 C   0  0  1  0  0  0  0  0  0  0  0  0
   27.2200  -19.9851   -8.8527 C   0  0  0  0  0  0  0  0  0  0  0  0
   27.4516  -19.6099   -7.4675 C   0  0  0  0  0  0  0  0  0  0  0  0
   26.6923  -18.8043   -6.6257 C   0  0  0  0  0  0  0  0  0  0  0  0
   27.2629  -18.6798   -5.4209 N   0  0  0  0  0  0  0  0  0  0  0  0
   28.3988  -19.3892   -5.4314 C   0  0  0  0  0  0  0  0  0  0  0  0
   29.3377  -19.5864   -4.4158 C   0  0  0  0  0  0  0  0  0  0  0  0
   30.4441  -20.3750   -4.6217 C   0  0  0  0  0  0  0  0  0  0  0  0
   30.5887  -20.9639   -5.8737 C   0  0  0  0  0  0  0  0  0  0  0  0
   29.6641  -20.7657   -6.8661 C   0  0  0  0  0  0  0  0  0  0  0  0
   28.5428  -19.9753   -6.6812 C   0  0  0  0  0  0  0  0  0  0  0  0
   24.9411  -20.8643   -8.2184 C   0  0  0  0  0  0  0  0  0  0  0  0
   24.8272  -21.5917   -7.0688 O   0  0  0  0  0  0  0  0  0  0  0  0
   23.9749  -20.0992   -8.5440 O   0  0  0  0  0  0  0  0  0  0  0  0
  2  3  1  0
  2  1  1  6
  3  4  1  0
  4  5  1  0
  5  9  1  0
  6  5  2  0
  7  2  1  0
  8  7  2  0
 11 10  1  6
 11 13  1  0
 12 11  1  0
 13 14  1  6
 14  7  1  0
 15 13  1  0
 15 17  1  0
 16 15  2  0
 18 17  1  0
 18 29  1  0
 18 19  1  6
 20 19  1  0
 20 21  2  0
 22 21  1  0
 23 22  1  0
 24 23  2  0
 25 24  1  0
 26 25  2  0
 26 27  1  0
 27 28  2  0
 28 23  1  0
 28 20  1  0
 29 30  1  0
 31 29  2  0
M  END
$$$$
