ETW.pdb
     RDKit          3D

 31 32  0  0  1  0  0  0  0  0999 V2000
   27.2165  -22.6723  -18.0413 N   0  0  0  0  0  0  0  0  0  0  0  0
   26.5160  -22.9078  -16.7962 C   0  0  1  0  0  0  0  0  0  0  0  0
   26.3533  -24.3745  -16.5996 C   0  0  0  0  0  0  0  0  0  0  0  0
   24.8570  -24.6796  -16.7441 C   0  0  0  0  0  0  0  0  0  0  0  0
   24.1747  -24.5424  -15.4341 C   0  0  0  0  0  0  0  0  0  0  0  0
   23.3080  -23.6716  -15.2599 O   0  0  0  0  0  0  0  0  0  0  0  0
   27.1546  -22.1847  -15.6998 C   0  0  0  0  0  0  0  0  0  0  0  0
   28.3966  -22.2969  -15.5353 O   0  0  0  0  0  0  0  0  0  0  0  0
   24.5048  -25.3877  -14.4014 O   0  0  0  0  0  0  0  0  0  0  0  0
   28.1291  -18.9019  -15.0218 C   0  0  0  0  0  0  0  0  0  0  0  0
   27.1581  -19.2201  -13.9252 C   0  0  1  0  0  0  0  0  0  0  0  0
   25.9221  -18.6501  -14.0981 O   0  0  0  0  0  0  0  0  0  0  0  0
   27.1107  -20.7142  -13.6336 C   0  0  2  0  0  0  0  0  0  0  0  0
   26.4614  -21.3446  -14.7838 N   0  0  0  0  0  0  0  0  0  0  0  0
   26.4583  -21.0492  -12.3741 C   0  0  0  0  0  0  0  0  0  0  0  0
   25.3121  -21.5491  -12.3680 O   0  0  0  0  0  0  0  0  0  0  0  0
   27.1173  -20.8123  -11.1497 N   0  0  0  0  0  0  0  0  0  0  0  0
   26.4774  -20.9390   -9.8371 C   0  0  1  0  0  0  0  0  0  0  0  0
   27.4832  -20.7831   -8.7605 C   0  0  0  0  0  0  0  0  0  0  0  0
   26.9416  -20.6928   -7.4146 C   0  0  0  0  0  0  0  0  0  0  0  0
   25.6745  -21.0179   -6.9424 C   0  0  0  0  0  0  0  0  0  0  0  0
   25.5594  -20.7635   -5.6330 N   0  0  0  0  0  0  0  0  0  0  0  0
   26.7298  -20.2704   -5.2081 C   0  0  0  0  0  0  0  0  0  0  0  0
   27.1169  -19.8674   -3.9276 C   0  0  0  0  0  0  0  0  0  0  0  0
   28.3868  -19.3997   -3.6893 C   0  0  0  0  0  0  0  0  0  0  0  0
   29.2636  -19.3447   -4.7677 C   0  0  0  0  0  0  0  0  0  0  0  0
   28.8774  -19.7411   -6.0219 C   0  0  0  0  0  0  0  0  0  0  0  0
   27.6036  -20.2149   -6.2850 C   0  0  0  0  0  0  0  0  0  0  0  0
   25.2620  -20.1608   -9.7837 C   0  0  0  0  0  0  0  0  0  0  0  0
   24.0795  -20.6737   -9.3338 O   0  0  0  0  0  0  0  0  0  0  0  0
   25.2813  -18.9472  -10.1736 O   0  0  0  0  0  0  0  0  0  0  0  0
  2  3  1  0
  2  1  1  6
  3  4  1  0
  4  5  1  0
  5  9  1  0
  6  5  2  0
  7  2  1  0
  8  7  2  0
 11 10  1  6
 11 13  1  0
 12 11  1  0
 13 14  1  6
 14  7  1  0
 15 13  1  0
 15 17  1  0
 16 15  2  0
 18 17  1  0
 18 29  1  0
 18 19  1  1
 20 19  1  0
 20 21  2  0
 22 21  1  0
 23 22  1  0
 24 23  2  0
 25 24  1  0
 26 25  2  0
 26 27  1  0
 27 28  2  0
 28 23  1  0
 28 20  1  0
 29 30  1  0
 31 29  2  0
M  END
$$$$
