ETW.pdb
     RDKit          3D

 31 32  0  0  1  0  0  0  0  0999 V2000
   21.0795  -35.5347   -5.1330 N   0  0  0  0  0  0  0  0  0  0  0  0
   20.8477  -34.6625   -4.0008 C   0  0  1  0  0  0  0  0  0  0  0  0
   22.1155  -34.5129   -3.2347 C   0  0  0  0  0  0  0  0  0  0  0  0
   22.1986  -35.7061   -2.2743 C   0  0  0  0  0  0  0  0  0  0  0  0
   23.4420  -35.6330   -1.4686 C   0  0  0  0  0  0  0  0  0  0  0  0
   23.8019  -36.5942   -0.7713 O   0  0  0  0  0  0  0  0  0  0  0  0
   20.2108  -33.4198   -4.4283 C   0  0  0  0  0  0  0  0  0  0  0  0
   20.1337  -33.1641   -5.6574 O   0  0  0  0  0  0  0  0  0  0  0  0
   24.2046  -34.4893   -1.4938 O   0  0  0  0  0  0  0  0  0  0  0  0
   18.4355  -32.3979   -6.1677 C   0  0  0  0  0  0  0  0  0  0  0  0
   17.8563  -31.7481   -4.9475 C   0  0  1  0  0  0  0  0  0  0  0  0
   16.8793  -32.4921   -4.3354 O   0  0  0  0  0  0  0  0  0  0  0  0
   18.9451  -31.2641   -3.9990 C   0  0  2  0  0  0  0  0  0  0  0  0
   19.6591  -32.4558   -3.5386 N   0  0  0  0  0  0  0  0  0  0  0  0
   18.4482  -30.4523   -2.8952 C   0  0  0  0  0  0  0  0  0  0  0  0
   18.2282  -30.9692   -1.7780 O   0  0  0  0  0  0  0  0  0  0  0  0
   18.2123  -29.0739   -3.0793 N   0  0  0  0  0  0  0  0  0  0  0  0
   17.6966  -28.1844   -2.0347 C   0  0  1  0  0  0  0  0  0  0  0  0
   18.1315  -26.7910   -2.2888 C   0  0  0  0  0  0  0  0  0  0  0  0
   17.2649  -25.7613   -1.7395 C   0  0  0  0  0  0  0  0  0  0  0  0
   17.0046  -25.4325   -0.4135 C   0  0  0  0  0  0  0  0  0  0  0  0
   16.1195  -24.4321   -0.3215 N   0  0  0  0  0  0  0  0  0  0  0  0
   15.7747  -24.0759   -1.5655 C   0  0  0  0  0  0  0  0  0  0  0  0
   14.8983  -23.0774   -1.9979 C   0  0  0  0  0  0  0  0  0  0  0  0
   14.6901  -22.8536   -3.3376 C   0  0  0  0  0  0  0  0  0  0  0  0
   15.3827  -23.6564   -4.2379 C   0  0  0  0  0  0  0  0  0  0  0  0
   16.2407  -24.6350   -3.8071 C   0  0  0  0  0  0  0  0  0  0  0  0
   16.4654  -24.8783   -2.4631 C   0  0  0  0  0  0  0  0  0  0  0  0
   16.3003  -28.4511   -1.7796 C   0  0  0  0  0  0  0  0  0  0  0  0
   15.7642  -28.4258   -0.5244 O   0  0  0  0  0  0  0  0  0  0  0  0
   15.5297  -28.7264   -2.7571 O   0  0  0  0  0  0  0  0  0  0  0  0
  2  3  1  0
  2  1  1  6
  3  4  1  0
  4  5  1  0
  5  9  1  0
  6  5  2  0
  7  2  1  0
  8  7  2  0
 11 10  1  6
 11 13  1  0
 12 11  1  0
 13 14  1  1
 14  7  1  0
 15 13  1  0
 15 17  1  0
 16 15  2  0
 18 17  1  0
 18 29  1  0
 18 19  1  6
 20 19  1  0
 20 21  2  0
 22 21  1  0
 23 22  1  0
 24 23  2  0
 25 24  1  0
 26 25  2  0
 26 27  1  0
 27 28  2  0
 28 23  1  0
 28 20  1  0
 29 30  1  0
 31 29  2  0
M  END
$$$$
