ETW.pdb
     RDKit          3D

 31 32  0  0  1  0  0  0  0  0999 V2000
   19.6719  -20.4063  -14.2583 N   0  0  0  0  0  0  0  0  0  0  0  0
   19.5987  -21.2215  -13.0639 C   0  0  1  0  0  0  0  0  0  0  0  0
   18.4853  -22.1990  -13.2100 C   0  0  0  0  0  0  0  0  0  0  0  0
   17.2936  -21.4319  -13.7968 C   0  0  0  0  0  0  0  0  0  0  0  0
   16.2020  -21.3332  -12.7972 C   0  0  0  0  0  0  0  0  0  0  0  0
   15.7923  -22.3440  -12.2054 O   0  0  0  0  0  0  0  0  0  0  0  0
   20.9062  -21.7879  -12.7443 C   0  0  0  0  0  0  0  0  0  0  0  0
   21.0075  -22.5820  -11.7741 O   0  0  0  0  0  0  0  0  0  0  0  0
   15.6375  -20.1101  -12.5224 O   0  0  0  0  0  0  0  0  0  0  0  0
   23.0742  -23.9373  -14.7655 C   0  0  0  0  0  0  0  0  0  0  0  0
   23.9201  -22.7620  -14.3784 C   0  0  1  0  0  0  0  0  0  0  0  0
   24.1671  -21.8938  -15.4117 O   0  0  0  0  0  0  0  0  0  0  0  0
   23.3973  -22.0849  -13.1183 C   0  0  2  0  0  0  0  0  0  0  0  0
   22.1002  -21.5020  -13.4641 N   0  0  0  0  0  0  0  0  0  0  0  0
   24.3144  -21.1042  -12.5515 C   0  0  0  0  0  0  0  0  0  0  0  0
   23.9305  -19.9364  -12.3227 O   0  0  0  0  0  0  0  0  0  0  0  0
   25.6449  -21.4667  -12.2550 N   0  0  0  0  0  0  0  0  0  0  0  0
   26.6351  -20.5506  -11.6817 C   0  0  1  0  0  0  0  0  0  0  0  0
   26.5575  -20.5742  -10.2023 C   0  0  0  0  0  0  0  0  0  0  0  0
   27.7858  -20.9527   -9.5232 C   0  0  0  0  0  0  0  0  0  0  0  0
   28.8685  -21.6906   -9.9894 C   0  0  0  0  0  0  0  0  0  0  0  0
   29.8002  -21.8464   -9.0406 N   0  0  0  0  0  0  0  0  0  0  0  0
   29.3668  -21.2249   -7.9364 C   0  0  0  0  0  0  0  0  0  0  0  0
   29.9808  -21.0895   -6.6887 C   0  0  0  0  0  0  0  0  0  0  0  0
   29.3720  -20.3886   -5.6755 C   0  0  0  0  0  0  0  0  0  0  0  0
   28.1289  -19.8243   -5.9421 C   0  0  0  0  0  0  0  0  0  0  0  0
   27.5315  -19.9615   -7.1683 C   0  0  0  0  0  0  0  0  0  0  0  0
   28.1259  -20.6632   -8.2029 C   0  0  0  0  0  0  0  0  0  0  0  0
   27.9184  -20.7187  -12.3225 C   0  0  0  0  0  0  0  0  0  0  0  0
   28.9330  -19.8157  -12.1850 O   0  0  0  0  0  0  0  0  0  0  0  0
   28.1215  -21.7449  -13.0511 O   0  0  0  0  0  0  0  0  0  0  0  0
  2  3  1  0
  2  1  1  6
  3  4  1  0
  4  5  1  0
  5  9  1  0
  6  5  2  0
  7  2  1  0
  8  7  2  0
 11 10  1  6
 11 13  1  0
 12 11  1  0
 13 14  1  6
 14  7  1  0
 15 13  1  0
 15 17  1  0
 16 15  2  0
 18 17  1  0
 18 29  1  0
 18 19  1  1
 20 19  1  0
 20 21  2  0
 22 21  1  0
 23 22  1  0
 24 23  2  0
 25 24  1  0
 26 25  2  0
 26 27  1  0
 27 28  2  0
 28 23  1  0
 28 20  1  0
 29 30  1  0
 31 29  2  0
M  END
$$$$
