ETW.pdb
     RDKit          3D

 31 32  0  0  1  0  0  0  0  0999 V2000
   28.2399  -20.6479  -18.0263 N   0  0  0  0  0  0  0  0  0  0  0  0
   28.6718  -21.5708  -16.9977 C   0  0  1  0  0  0  0  0  0  0  0  0
   29.9630  -22.1876  -17.4088 C   0  0  0  0  0  0  0  0  0  0  0  0
   29.7403  -22.8036  -18.7959 C   0  0  0  0  0  0  0  0  0  0  0  0
   30.5170  -24.0601  -18.9320 C   0  0  0  0  0  0  0  0  0  0  0  0
   30.0617  -25.1345  -18.5099 O   0  0  0  0  0  0  0  0  0  0  0  0
   28.6623  -20.9254  -15.6877 C   0  0  0  0  0  0  0  0  0  0  0  0
   29.5396  -20.0633  -15.4249 O   0  0  0  0  0  0  0  0  0  0  0  0
   31.7539  -24.0357  -19.5315 O   0  0  0  0  0  0  0  0  0  0  0  0
   28.4056  -18.4169  -14.6421 C   0  0  0  0  0  0  0  0  0  0  0  0
   27.3370  -19.0132  -13.7766 C   0  0  1  0  0  0  0  0  0  0  0  0
   26.0666  -18.8313  -14.2617 O   0  0  0  0  0  0  0  0  0  0  0  0
   27.6535  -20.4566  -13.4082 C   0  0  2  0  0  0  0  0  0  0  0  0
   27.7139  -21.2054  -14.6642 N   0  0  0  0  0  0  0  0  0  0  0  0
   26.7176  -21.0417  -12.4564 C   0  0  0  0  0  0  0  0  0  0  0  0
   25.7493  -21.7234  -12.8580 O   0  0  0  0  0  0  0  0  0  0  0  0
   26.8984  -20.8435  -11.0716 N   0  0  0  0  0  0  0  0  0  0  0  0
   26.0345  -21.4265  -10.0410 C   0  0  1  0  0  0  0  0  0  0  0  0
   26.8119  -21.6805   -8.8056 C   0  0  0  0  0  0  0  0  0  0  0  0
   27.1314  -20.4995   -8.0205 C   0  0  0  0  0  0  0  0  0  0  0  0
   26.6777  -19.1919   -8.1567 C   0  0  0  0  0  0  0  0  0  0  0  0
   27.2332  -18.3833   -7.2455 N   0  0  0  0  0  0  0  0  0  0  0  0
   28.0576  -19.1221   -6.4919 C   0  0  0  0  0  0  0  0  0  0  0  0
   28.8526  -18.7462   -5.4063 C   0  0  0  0  0  0  0  0  0  0  0  0
   29.6258  -19.6700   -4.7452 C   0  0  0  0  0  0  0  0  0  0  0  0
   29.5842  -20.9844   -5.1985 C   0  0  0  0  0  0  0  0  0  0  0  0
   28.8025  -21.3465   -6.2648 C   0  0  0  0  0  0  0  0  0  0  0  0
   28.0162  -20.4331   -6.9457 C   0  0  0  0  0  0  0  0  0  0  0  0
   24.7864  -20.7054   -9.9522 C   0  0  0  0  0  0  0  0  0  0  0  0
   23.6659  -21.2416   -9.3858 O   0  0  0  0  0  0  0  0  0  0  0  0
   24.7154  -19.5223  -10.4217 O   0  0  0  0  0  0  0  0  0  0  0  0
  2  3  1  0
  2  1  1  6
  3  4  1  0
  4  5  1  0
  5  9  1  0
  6  5  2  0
  7  2  1  0
  8  7  2  0
 11 10  1  6
 11 13  1  0
 12 11  1  0
 13 14  1  6
 14  7  1  0
 15 13  1  0
 15 17  1  0
 16 15  2  0
 18 17  1  0
 18 29  1  0
 18 19  1  1
 20 19  1  0
 20 21  2  0
 22 21  1  0
 23 22  1  0
 24 23  2  0
 25 24  1  0
 26 25  2  0
 26 27  1  0
 27 28  2  0
 28 23  1  0
 28 20  1  0
 29 30  1  0
 31 29  2  0
M  END
$$$$
