ETW.pdb
     RDKit          3D

 31 32  0  0  1  0  0  0  0  0999 V2000
   29.7708  -21.9278  -18.3292 N   0  0  0  0  0  0  0  0  0  0  0  0
   28.5781  -22.1582  -17.5414 C   0  0  1  0  0  0  0  0  0  0  0  0
   28.2758  -23.6159  -17.5317 C   0  0  0  0  0  0  0  0  0  0  0  0
   27.8669  -23.9953  -18.9606 C   0  0  0  0  0  0  0  0  0  0  0  0
   26.6371  -23.2657  -19.3551 C   0  0  0  0  0  0  0  0  0  0  0  0
   25.5710  -23.4464  -18.7463 O   0  0  0  0  0  0  0  0  0  0  0  0
   28.6935  -21.5224  -16.2318 C   0  0  0  0  0  0  0  0  0  0  0  0
   29.6499  -20.7340  -16.0175 O   0  0  0  0  0  0  0  0  0  0  0  0
   26.6770  -22.3799  -20.4058 O   0  0  0  0  0  0  0  0  0  0  0  0
   28.9092  -19.1208  -15.2800 C   0  0  0  0  0  0  0  0  0  0  0  0
   27.7346  -19.4573  -14.4119 C   0  0  1  0  0  0  0  0  0  0  0  0
   26.5273  -19.0806  -14.9443 O   0  0  0  0  0  0  0  0  0  0  0  0
   27.7763  -20.9074  -13.9484 C   0  0  2  0  0  0  0  0  0  0  0  0
   27.7850  -21.7329  -15.1568 N   0  0  0  0  0  0  0  0  0  0  0  0
   26.6972  -21.2669  -13.0370 C   0  0  0  0  0  0  0  0  0  0  0  0
   25.6626  -21.8213  -13.4680 O   0  0  0  0  0  0  0  0  0  0  0  0
   26.8131  -20.9925  -11.6583 N   0  0  0  0  0  0  0  0  0  0  0  0
   25.8373  -21.4226  -10.6526 C   0  0  1  0  0  0  0  0  0  0  0  0
   26.5295  -21.8103   -9.4013 C   0  0  0  0  0  0  0  0  0  0  0  0
   26.8687  -20.7099   -8.5142 C   0  0  0  0  0  0  0  0  0  0  0  0
   26.3927  -19.4033   -8.4959 C   0  0  0  0  0  0  0  0  0  0  0  0
   26.9781  -18.6819   -7.5318 N   0  0  0  0  0  0  0  0  0  0  0  0
   27.8449  -19.4792   -6.8942 C   0  0  0  0  0  0  0  0  0  0  0  0
   28.6831  -19.2018   -5.8114 C   0  0  0  0  0  0  0  0  0  0  0  0
   29.4971  -20.1744   -5.2825 C   0  0  0  0  0  0  0  0  0  0  0  0
   29.4520  -21.4364   -5.8658 C   0  0  0  0  0  0  0  0  0  0  0  0
   28.6278  -21.7019   -6.9285 C   0  0  0  0  0  0  0  0  0  0  0  0
   27.8001  -20.7377   -7.4776 C   0  0  0  0  0  0  0  0  0  0  0  0
   24.7293  -20.4986  -10.5875 C   0  0  0  0  0  0  0  0  0  0  0  0
   23.5113  -20.8458  -10.0778 O   0  0  0  0  0  0  0  0  0  0  0  0
   24.8818  -19.3107  -11.0242 O   0  0  0  0  0  0  0  0  0  0  0  0
  2  3  1  0
  2  1  1  1
  3  4  1  0
  4  5  1  0
  5  9  1  0
  6  5  2  0
  7  2  1  0
  8  7  2  0
 11 10  1  6
 11 13  1  0
 12 11  1  0
 13 14  1  6
 14  7  1  0
 15 13  1  0
 15 17  1  0
 16 15  2  0
 18 17  1  0
 18 29  1  0
 18 19  1  1
 20 19  1  0
 20 21  2  0
 22 21  1  0
 23 22  1  0
 24 23  2  0
 25 24  1  0
 26 25  2  0
 26 27  1  0
 27 28  2  0
 28 23  1  0
 28 20  1  0
 29 30  1  0
 31 29  2  0
M  END
$$$$
