ETW.pdb
     RDKit          3D

 31 32  0  0  1  0  0  0  0  0999 V2000
   27.8497  -21.2226  -15.4620 N   0  0  0  0  0  0  0  0  0  0  0  0
   27.1735  -19.9527  -15.6246 C   0  0  1  0  0  0  0  0  0  0  0  0
   26.5137  -19.9204  -16.9588 C   0  0  0  0  0  0  0  0  0  0  0  0
   26.4064  -21.3738  -17.4376 C   0  0  0  0  0  0  0  0  0  0  0  0
   27.1219  -21.5458  -18.7256 C   0  0  0  0  0  0  0  0  0  0  0  0
   27.4481  -20.5600  -19.4050 O   0  0  0  0  0  0  0  0  0  0  0  0
   26.3098  -19.6774  -14.4796 C   0  0  0  0  0  0  0  0  0  0  0  0
   25.3503  -18.8757  -14.6168 O   0  0  0  0  0  0  0  0  0  0  0  0
   27.4273  -22.8094  -19.1725 O   0  0  0  0  0  0  0  0  0  0  0  0
   23.8163  -19.5369  -13.8484 C   0  0  0  0  0  0  0  0  0  0  0  0
   24.1449  -20.3906  -12.6611 C   0  0  1  0  0  0  0  0  0  0  0  0
   23.9335  -21.7305  -12.8676 O   0  0  0  0  0  0  0  0  0  0  0  0
   25.5228  -20.0652  -12.0997 C   0  0  2  0  0  0  0  0  0  0  0  0
   26.4766  -20.2609  -13.1924 N   0  0  0  0  0  0  0  0  0  0  0  0
   25.8727  -20.8335  -10.9117 C   0  0  0  0  0  0  0  0  0  0  0  0
   26.8068  -21.6641  -10.9472 O   0  0  0  0  0  0  0  0  0  0  0  0
   25.1589  -20.6444   -9.7099 N   0  0  0  0  0  0  0  0  0  0  0  0
   25.6561  -21.0445   -8.3903 C   0  0  1  0  0  0  0  0  0  0  0  0
   26.8967  -20.3028   -8.0647 C   0  0  0  0  0  0  0  0  0  0  0  0
   27.4831  -20.6133   -6.7714 C   0  0  0  0  0  0  0  0  0  0  0  0
   27.4716  -21.8039   -6.0527 C   0  0  0  0  0  0  0  0  0  0  0  0
   28.1060  -21.6749   -4.8807 N   0  0  0  0  0  0  0  0  0  0  0  0
   28.5488  -20.4141   -4.7924 C   0  0  0  0  0  0  0  0  0  0  0  0
   29.2773  -19.7928   -3.7750 C   0  0  0  0  0  0  0  0  0  0  0  0
   29.6572  -18.4766   -3.8824 C   0  0  0  0  0  0  0  0  0  0  0  0
   29.2890  -17.7943   -5.0373 C   0  0  0  0  0  0  0  0  0  0  0  0
   28.5737  -18.4096   -6.0317 C   0  0  0  0  0  0  0  0  0  0  0  0
   28.1800  -19.7339   -5.9447 C   0  0  0  0  0  0  0  0  0  0  0  0
   24.5807  -21.0759   -7.4268 C   0  0  0  0  0  0  0  0  0  0  0  0
   23.2737  -20.8957   -7.7774 O   0  0  0  0  0  0  0  0  0  0  0  0
   24.8514  -21.2747   -6.1970 O   0  0  0  0  0  0  0  0  0  0  0  0
  2  3  1  0
  2  1  1  1
  3  4  1  0
  4  5  1  0
  5  9  1  0
  6  5  2  0
  7  2  1  0
  8  7  2  0
 11 10  1  6
 11 13  1  0
 12 11  1  0
 13 14  1  6
 14  7  1  0
 15 13  1  0
 15 17  1  0
 16 15  2  0
 18 17  1  0
 18 29  1  0
 18 19  1  1
 20 19  1  0
 20 21  2  0
 22 21  1  0
 23 22  1  0
 24 23  2  0
 25 24  1  0
 26 25  2  0
 26 27  1  0
 27 28  2  0
 28 23  1  0
 28 20  1  0
 29 30  1  0
 31 29  2  0
M  END
$$$$
