ETW.pdb
     RDKit          3D

 31 32  0  0  1  0  0  0  0  0999 V2000
   29.1564  -21.3178  -19.0362 N   0  0  0  0  0  0  0  0  0  0  0  0
   28.6876  -22.2911  -18.0723 C   0  0  1  0  0  0  0  0  0  0  0  0
   29.4562  -23.5546  -18.2437 C   0  0  0  0  0  0  0  0  0  0  0  0
   28.9583  -24.2060  -19.5402 C   0  0  0  0  0  0  0  0  0  0  0  0
   29.8151  -23.8016  -20.6817 C   0  0  0  0  0  0  0  0  0  0  0  0
   29.3533  -23.1182  -21.6087 O   0  0  0  0  0  0  0  0  0  0  0  0
   28.6844  -21.7247  -16.7262 C   0  0  0  0  0  0  0  0  0  0  0  0
   29.7624  -21.6796  -16.0798 O   0  0  0  0  0  0  0  0  0  0  0  0
   31.1342  -24.1872  -20.7143 O   0  0  0  0  0  0  0  0  0  0  0  0
   28.5709  -18.5005  -15.5915 C   0  0  0  0  0  0  0  0  0  0  0  0
   27.3851  -19.1195  -14.9154 C   0  0  1  0  0  0  0  0  0  0  0  0
   26.1827  -18.7654  -15.4736 O   0  0  0  0  0  0  0  0  0  0  0  0
   27.5614  -20.6217  -14.7373 C   0  0  2  0  0  0  0  0  0  0  0  0
   27.5275  -21.2088  -16.0775 N   0  0  0  0  0  0  0  0  0  0  0  0
   26.5862  -21.2281  -13.8397 C   0  0  0  0  0  0  0  0  0  0  0  0
   25.6562  -21.9289  -14.2953 O   0  0  0  0  0  0  0  0  0  0  0  0
   26.6855  -21.0292  -12.4468 N   0  0  0  0  0  0  0  0  0  0  0  0
   25.7392  -21.5784  -11.4715 C   0  0  1  0  0  0  0  0  0  0  0  0
   26.4576  -22.0149  -10.2515 C   0  0  0  0  0  0  0  0  0  0  0  0
   26.6129  -20.9966   -9.2258 C   0  0  0  0  0  0  0  0  0  0  0  0
   25.7497  -19.9722   -8.8521 C   0  0  0  0  0  0  0  0  0  0  0  0
   26.2735  -19.2223   -7.8744 N   0  0  0  0  0  0  0  0  0  0  0  0
   27.4800  -19.7221   -7.5779 C   0  0  0  0  0  0  0  0  0  0  0  0
   28.4098  -19.3036   -6.6228 C   0  0  0  0  0  0  0  0  0  0  0  0
   29.6005  -19.9697   -6.4585 C   0  0  0  0  0  0  0  0  0  0  0  0
   29.8393  -21.0691   -7.2765 C   0  0  0  0  0  0  0  0  0  0  0  0
   28.9231  -21.4742   -8.2122 C   0  0  0  0  0  0  0  0  0  0  0  0
   27.7179  -20.8183   -8.3954 C   0  0  0  0  0  0  0  0  0  0  0  0
   24.5848  -20.7204  -11.3402 C   0  0  0  0  0  0  0  0  0  0  0  0
   23.4005  -21.1557  -10.8190 O   0  0  0  0  0  0  0  0  0  0  0  0
   24.6621  -19.5082  -11.7270 O   0  0  0  0  0  0  0  0  0  0  0  0
  2  3  1  0
  2  1  1  6
  3  4  1  0
  4  5  1  0
  5  9  1  0
  6  5  2  0
  7  2  1  0
  8  7  2  0
 11 10  1  6
 11 13  1  0
 12 11  1  0
 13 14  1  6
 14  7  1  0
 15 13  1  0
 15 17  1  0
 16 15  2  0
 18 17  1  0
 18 29  1  0
 18 19  1  1
 20 19  1  0
 20 21  2  0
 22 21  1  0
 23 22  1  0
 24 23  2  0
 25 24  1  0
 26 25  2  0
 26 27  1  0
 27 28  2  0
 28 23  1  0
 28 20  1  0
 29 30  1  0
 31 29  2  0
M  END
$$$$
