ETW.pdb
     RDKit          3D

 31 32  0  0  1  0  0  0  0  0999 V2000
   26.5899  -18.7279  -19.7533 N   0  0  0  0  0  0  0  0  0  0  0  0
   26.7316  -18.2860  -18.3818 C   0  0  1  0  0  0  0  0  0  0  0  0
   25.8369  -17.1184  -18.1522 C   0  0  0  0  0  0  0  0  0  0  0  0
   24.7116  -17.2090  -19.1907 C   0  0  0  0  0  0  0  0  0  0  0  0
   23.7759  -16.0682  -19.0368 C   0  0  0  0  0  0  0  0  0  0  0  0
   24.0379  -15.1346  -18.2625 O   0  0  0  0  0  0  0  0  0  0  0  0
   26.5678  -19.4058  -17.4589 C   0  0  0  0  0  0  0  0  0  0  0  0
   25.6594  -20.2484  -17.6757 O   0  0  0  0  0  0  0  0  0  0  0  0
   22.6061  -16.0436  -19.7585 O   0  0  0  0  0  0  0  0  0  0  0  0
   28.2006  -22.2561  -16.9645 C   0  0  0  0  0  0  0  0  0  0  0  0
   28.2052  -21.7377  -15.5581 C   0  0  1  0  0  0  0  0  0  0  0  0
   29.4450  -21.3515  -15.1150 O   0  0  0  0  0  0  0  0  0  0  0  0
   27.1214  -20.6897  -15.3426 C   0  0  2  0  0  0  0  0  0  0  0  0
   27.3766  -19.6193  -16.3076 N   0  0  0  0  0  0  0  0  0  0  0  0
   27.0412  -20.1966  -13.9735 C   0  0  0  0  0  0  0  0  0  0  0  0
   27.3293  -19.0086  -13.7104 O   0  0  0  0  0  0  0  0  0  0  0  0
   26.6357  -21.0579  -12.9327 N   0  0  0  0  0  0  0  0  0  0  0  0
   26.4458  -20.6312  -11.5433 C   0  0  1  0  0  0  0  0  0  0  0  0
   25.6138  -19.4062  -11.4937 C   0  0  0  0  0  0  0  0  0  0  0  0
   24.2073  -19.5993  -11.8059 C   0  0  0  0  0  0  0  0  0  0  0  0
   23.1749  -20.0713  -11.0025 C   0  0  0  0  0  0  0  0  0  0  0  0
   22.0180  -20.1273  -11.6741 N   0  0  0  0  0  0  0  0  0  0  0  0
   22.2488  -19.7001  -12.9221 C   0  0  0  0  0  0  0  0  0  0  0  0
   21.3655  -19.5588  -13.9953 C   0  0  0  0  0  0  0  0  0  0  0  0
   21.7999  -19.0797  -15.2078 C   0  0  0  0  0  0  0  0  0  0  0  0
   23.1450  -18.7440  -15.3209 C   0  0  0  0  0  0  0  0  0  0  0  0
   24.0067  -18.8857  -14.2642 C   0  0  0  0  0  0  0  0  0  0  0  0
   23.5914  -19.3666  -13.0343 C   0  0  0  0  0  0  0  0  0  0  0  0
   26.0956  -21.7550  -10.7067 C   0  0  0  0  0  0  0  0  0  0  0  0
   25.9096  -23.0126  -11.2043 O   0  0  0  0  0  0  0  0  0  0  0  0
   25.9473  -21.5765   -9.4531 O   0  0  0  0  0  0  0  0  0  0  0  0
  2  3  1  0
  2  1  1  6
  3  4  1  0
  4  5  1  0
  5  9  1  0
  6  5  2  0
  7  2  1  0
  8  7  2  0
 11 10  1  6
 11 13  1  0
 12 11  1  0
 13 14  1  6
 14  7  1  0
 15 13  1  0
 15 17  1  0
 16 15  2  0
 18 17  1  0
 18 29  1  0
 18 19  1  6
 20 19  1  0
 20 21  2  0
 22 21  1  0
 23 22  1  0
 24 23  2  0
 25 24  1  0
 26 25  2  0
 26 27  1  0
 27 28  2  0
 28 23  1  0
 28 20  1  0
 29 30  1  0
 31 29  2  0
M  END
$$$$
