QWD.pdb
     RDKit          3D

 32 33  0  0  1  0  0  0  0  0999 V2000
   29.2430  -17.0051  -15.0380 N   0  0  0  0  0  0  0  0  0  0  0  0
   27.9977  -17.4916  -15.5725 C   0  0  0  0  0  0  0  0  0  0  0  0
   27.0344  -16.7054  -15.5304 O   0  0  0  0  0  0  0  0  0  0  0  0
   27.9066  -18.8564  -16.1269 C   0  0  0  0  0  0  0  0  0  0  0  0
   27.1346  -19.8123  -15.2811 C   0  0  0  0  0  0  0  0  0  0  0  0
   27.9536  -20.3317  -14.1395 C   0  0  2  0  0  0  0  0  0  0  0  0
   28.9716  -21.2357  -14.5320 N   0  0  0  0  0  0  0  0  0  0  0  0
   27.1031  -20.8621  -13.0471 C   0  0  0  0  0  0  0  0  0  0  0  0
   26.6840  -22.0502  -13.2026 O   0  0  0  0  0  0  0  0  0  0  0  0
   26.7259  -20.1904  -11.8816 N   0  0  0  0  0  0  0  0  0  0  0  0
   25.8647  -20.7845  -10.8777 C   0  0  1  0  0  0  0  0  0  0  0  0
   26.1412  -20.1104   -9.5606 C   0  0  0  0  0  0  0  0  0  0  0  0
   27.3971  -20.5586   -8.9366 C   0  0  0  0  0  0  0  0  0  0  0  0
   28.3492  -21.3817   -9.5005 C   0  0  0  0  0  0  0  0  0  0  0  0
   29.3566  -21.5679   -8.6311 N   0  0  0  0  0  0  0  0  0  0  0  0
   29.0621  -20.8653   -7.4979 C   0  0  0  0  0  0  0  0  0  0  0  0
   29.7382  -20.7060   -6.3055 C   0  0  0  0  0  0  0  0  0  0  0  0
   29.1863  -19.9232   -5.3232 C   0  0  0  0  0  0  0  0  0  0  0  0
   27.9740  -19.2853   -5.4828 C   0  0  0  0  0  0  0  0  0  0  0  0
   27.2935  -19.4396   -6.6705 C   0  0  0  0  0  0  0  0  0  0  0  0
   27.8363  -20.2234   -7.6664 C   0  0  0  0  0  0  0  0  0  0  0  0
   24.4691  -20.5859  -11.3366 C   0  0  0  0  0  0  0  0  0  0  0  0
   24.1415  -19.4106  -11.6485 O   0  0  0  0  0  0  0  0  0  0  0  0
   23.5165  -21.5980  -11.4423 N   0  0  0  0  0  0  0  0  0  0  0  0
   22.2272  -21.3246  -12.1142 C   0  0  1  0  0  0  0  0  0  0  0  0
   21.7576  -22.5993  -12.8007 C   0  0  0  0  0  0  0  0  0  0  0  0
   20.4067  -22.4136  -13.3120 C   0  0  0  0  0  0  0  0  0  0  0  0
   19.8832  -21.3562  -13.7128 O   0  0  0  0  0  0  0  0  0  0  0  0
   21.3222  -20.8874  -11.0298 C   0  0  0  0  0  0  0  0  0  0  0  0
   21.5643  -21.1034   -9.6932 O   0  0  0  0  0  0  0  0  0  0  0  0
   19.5831  -23.5559  -13.3659 O   0  0  0  0  0  0  0  0  0  0  0  0
   20.2615  -20.2808  -11.3117 O   0  0  0  0  0  0  0  0  0  0  0  0
  2  1  1  0
  3  2  2  0
  4  2  1  0
  5  4  1  0
  6  8  1  0
  6  5  1  0
  6  7  1  6
  8  9  2  0
 10 11  1  0
 10  8  1  0
 11 12  1  1
 12 13  1  0
 13 14  2  0
 15 14  1  0
 16 15  1  0
 17 16  2  0
 18 17  1  0
 19 20  1  0
 19 18  2  0
 20 21  2  0
 21 16  1  0
 21 13  1  0
 22 11  1  0
 23 22  2  0
 24 22  1  0
 25 24  1  0
 25 26  1  1
 27 26  1  0
 27 28  2  0
 29 25  1  0
 29 30  1  0
 31 27  1  0
 32 29  2  0
M  END
$$$$
