QWD.pdb
     RDKit          3D

 32 33  0  0  1  0  0  0  0  0999 V2000
   17.8092  -21.7112  -13.7015 N   0  0  0  0  0  0  0  0  0  0  0  0
   18.4639  -21.0138  -12.6254 C   0  0  0  0  0  0  0  0  0  0  0  0
   18.1777  -19.8103  -12.4929 O   0  0  0  0  0  0  0  0  0  0  0  0
   19.4203  -21.7207  -11.7514 C   0  0  0  0  0  0  0  0  0  0  0  0
   20.7255  -21.0200  -11.5764 C   0  0  0  0  0  0  0  0  0  0  0  0
   21.6016  -21.1662  -12.7826 C   0  0  2  0  0  0  0  0  0  0  0  0
   21.6352  -22.4817  -13.3078 N   0  0  0  0  0  0  0  0  0  0  0  0
   22.9539  -20.6035  -12.5533 C   0  0  0  0  0  0  0  0  0  0  0  0
   22.9898  -19.3916  -12.1768 O   0  0  0  0  0  0  0  0  0  0  0  0
   24.1724  -21.2690  -12.7083 N   0  0  0  0  0  0  0  0  0  0  0  0
   25.4529  -20.6143  -12.5235 C   0  0  1  0  0  0  0  0  0  0  0  0
   26.3269  -21.5143  -11.6919 C   0  0  0  0  0  0  0  0  0  0  0  0
   26.4877  -21.0417  -10.3069 C   0  0  0  0  0  0  0  0  0  0  0  0
   25.4875  -20.6021   -9.4652 C   0  0  0  0  0  0  0  0  0  0  0  0
   26.0161  -20.2535   -8.2801 N   0  0  0  0  0  0  0  0  0  0  0  0
   27.3632  -20.4657   -8.3479 C   0  0  0  0  0  0  0  0  0  0  0  0
   28.3770  -20.2798   -7.4303 C   0  0  0  0  0  0  0  0  0  0  0  0
   29.6660  -20.5862   -7.7865 C   0  0  0  0  0  0  0  0  0  0  0  0
   29.9895  -21.0760   -9.0345 C   0  0  0  0  0  0  0  0  0  0  0  0
   28.9827  -21.2643   -9.9557 C   0  0  0  0  0  0  0  0  0  0  0  0
   27.6827  -20.9606   -9.6112 C   0  0  0  0  0  0  0  0  0  0  0  0
   26.0102  -20.3708  -13.8756 C   0  0  0  0  0  0  0  0  0  0  0  0
   25.7840  -21.2537  -14.7445 O   0  0  0  0  0  0  0  0  0  0  0  0
   26.7535  -19.2486  -14.2375 N   0  0  0  0  0  0  0  0  0  0  0  0
   27.0467  -18.9920  -15.6647 C   0  0  1  0  0  0  0  0  0  0  0  0
   27.4001  -17.5209  -15.8308 C   0  0  0  0  0  0  0  0  0  0  0  0
   27.8842  -17.2810  -17.1833 C   0  0  0  0  0  0  0  0  0  0  0  0
   27.5672  -17.8884  -18.2241 O   0  0  0  0  0  0  0  0  0  0  0  0
   28.1726  -19.8948  -15.9864 C   0  0  0  0  0  0  0  0  0  0  0  0
   29.2011  -20.1795  -15.1188 O   0  0  0  0  0  0  0  0  0  0  0  0
   28.8220  -16.2423  -17.3495 O   0  0  0  0  0  0  0  0  0  0  0  0
   28.2231  -20.4500  -17.1096 O   0  0  0  0  0  0  0  0  0  0  0  0
  2  1  1  0
  3  2  2  0
  4  2  1  0
  5  4  1  0
  6  8  1  0
  6  5  1  0
  6  7  1  1
  8  9  2  0
 10 11  1  0
 10  8  1  0
 11 12  1  1
 12 13  1  0
 13 14  2  0
 15 14  1  0
 16 15  1  0
 17 16  2  0
 18 17  1  0
 19 20  1  0
 19 18  2  0
 20 21  2  0
 21 16  1  0
 21 13  1  0
 22 11  1  0
 23 22  2  0
 24 22  1  0
 25 24  1  0
 25 26  1  1
 27 26  1  0
 27 28  2  0
 29 25  1  0
 29 30  1  0
 31 27  1  0
 32 29  2  0
M  END
$$$$
