QWD.pdb
     RDKit          3D

 32 33  0  0  1  0  0  0  0  0999 V2000
   27.9265  -23.6953  -17.3032 N   0  0  0  0  0  0  0  0  0  0  0  0
   28.8052  -22.6496  -17.7589 C   0  0  0  0  0  0  0  0  0  0  0  0
   29.1761  -22.7182  -18.9444 O   0  0  0  0  0  0  0  0  0  0  0  0
   29.2251  -21.5748  -16.8389 C   0  0  0  0  0  0  0  0  0  0  0  0
   28.6366  -21.6723  -15.4717 C   0  0  0  0  0  0  0  0  0  0  0  0
   27.3208  -20.9622  -15.3804 C   0  0  2  0  0  0  0  0  0  0  0  0
   27.4001  -19.5751  -15.6583 N   0  0  0  0  0  0  0  0  0  0  0  0
   26.6238  -21.2546  -14.1050 C   0  0  0  0  0  0  0  0  0  0  0  0
   26.4507  -22.4842  -13.8411 O   0  0  0  0  0  0  0  0  0  0  0  0
   26.1482  -20.3214  -13.1806 N   0  0  0  0  0  0  0  0  0  0  0  0
   25.4513  -20.7036  -11.9678 C   0  0  1  0  0  0  0  0  0  0  0  0
   25.9583  -19.8433  -10.8417 C   0  0  0  0  0  0  0  0  0  0  0  0
   26.9051  -20.5468   -9.9606 C   0  0  0  0  0  0  0  0  0  0  0  0
   27.5999  -21.7016  -10.2530 C   0  0  0  0  0  0  0  0  0  0  0  0
   28.3681  -22.0435   -9.2049 N   0  0  0  0  0  0  0  0  0  0  0  0
   28.1747  -21.1106   -8.2268 C   0  0  0  0  0  0  0  0  0  0  0  0
   28.7037  -20.9747   -6.9595 C   0  0  0  0  0  0  0  0  0  0  0  0
   28.3155  -19.9122   -6.1831 C   0  0  0  0  0  0  0  0  0  0  0  0
   27.4110  -18.9688   -6.6234 C   0  0  0  0  0  0  0  0  0  0  0  0
   26.8788  -19.0980   -7.8874 C   0  0  0  0  0  0  0  0  0  0  0  0
   27.2600  -20.1608   -8.6785 C   0  0  0  0  0  0  0  0  0  0  0  0
   24.0040  -20.5101  -12.2246 C   0  0  0  0  0  0  0  0  0  0  0  0
   23.6756  -19.4521  -12.8234 O   0  0  0  0  0  0  0  0  0  0  0  0
   23.0047  -21.4077  -11.8523 N   0  0  0  0  0  0  0  0  0  0  0  0
   21.6063  -21.1623  -12.2679 C   0  0  1  0  0  0  0  0  0  0  0  0
   21.1465  -22.3253  -13.1355 C   0  0  0  0  0  0  0  0  0  0  0  0
   19.7327  -22.1748  -13.4508 C   0  0  0  0  0  0  0  0  0  0  0  0
   19.2196  -21.4358  -14.3130 O   0  0  0  0  0  0  0  0  0  0  0  0
   20.8503  -21.0540  -11.0019 C   0  0  0  0  0  0  0  0  0  0  0  0
   19.6838  -20.3388  -10.8624 O   0  0  0  0  0  0  0  0  0  0  0  0
   18.8264  -22.9505  -12.7005 O   0  0  0  0  0  0  0  0  0  0  0  0
   21.2711  -21.6370   -9.9745 O   0  0  0  0  0  0  0  0  0  0  0  0
  2  1  1  0
  3  2  2  0
  4  2  1  0
  5  4  1  0
  6  8  1  0
  6  5  1  0
  6  7  1  1
  8  9  2  0
 10 11  1  0
 10  8  1  0
 11 12  1  1
 12 13  1  0
 13 14  2  0
 15 14  1  0
 16 15  1  0
 17 16  2  0
 18 17  1  0
 19 20  1  0
 19 18  2  0
 20 21  2  0
 21 16  1  0
 21 13  1  0
 22 11  1  0
 23 22  2  0
 24 22  1  0
 25 24  1  0
 25 26  1  6
 27 26  1  0
 27 28  2  0
 29 25  1  0
 29 30  1  0
 31 27  1  0
 32 29  2  0
M  END
$$$$
