QWD.pdb
     RDKit          3D

 32 33  0  0  1  0  0  0  0  0999 V2000
   27.7144  -16.9321  -14.8742 N   0  0  0  0  0  0  0  0  0  0  0  0
   28.1312  -17.6312  -16.0619 C   0  0  0  0  0  0  0  0  0  0  0  0
   28.8525  -16.9958  -16.8518 O   0  0  0  0  0  0  0  0  0  0  0  0
   27.7014  -19.0234  -16.2972 C   0  0  0  0  0  0  0  0  0  0  0  0
   26.9156  -19.6206  -15.1787 C   0  0  0  0  0  0  0  0  0  0  0  0
   27.7943  -20.3483  -14.2081 C   0  0  2  0  0  0  0  0  0  0  0  0
   28.4775  -21.4532  -14.7738 N   0  0  0  0  0  0  0  0  0  0  0  0
   27.0697  -20.6964  -12.9623 C   0  0  0  0  0  0  0  0  0  0  0  0
   26.2779  -21.6853  -13.0436 O   0  0  0  0  0  0  0  0  0  0  0  0
   27.1744  -20.0513  -11.7276 N   0  0  0  0  0  0  0  0  0  0  0  0
   26.3600  -20.4108  -10.5831 C   0  0  1  0  0  0  0  0  0  0  0  0
   26.7889  -19.5645   -9.4147 C   0  0  0  0  0  0  0  0  0  0  0  0
   26.5530  -20.2147   -8.1150 C   0  0  0  0  0  0  0  0  0  0  0  0
   25.5566  -21.1200   -7.8157 C   0  0  0  0  0  0  0  0  0  0  0  0
   25.6595  -21.4953   -6.5296 N   0  0  0  0  0  0  0  0  0  0  0  0
   26.7246  -20.8342   -5.9884 C   0  0  0  0  0  0  0  0  0  0  0  0
   27.2742  -20.8439   -4.7226 C   0  0  0  0  0  0  0  0  0  0  0  0
   28.3687  -20.0586   -4.4626 C   0  0  0  0  0  0  0  0  0  0  0  0
   28.9444  -19.2546   -5.4239 C   0  0  0  0  0  0  0  0  0  0  0  0
   28.4013  -19.2398   -6.6898 C   0  0  0  0  0  0  0  0  0  0  0  0
   27.3014  -20.0241   -6.9651 C   0  0  0  0  0  0  0  0  0  0  0  0
   24.9482  -20.1745  -10.9690 C   0  0  0  0  0  0  0  0  0  0  0  0
   24.7220  -19.1616  -11.6821 O   0  0  0  0  0  0  0  0  0  0  0  0
   23.8776  -20.9870  -10.5995 N   0  0  0  0  0  0  0  0  0  0  0  0
   22.5755  -20.8421  -11.2866 C   0  0  1  0  0  0  0  0  0  0  0  0
   22.3549  -22.0613  -12.1708 C   0  0  0  0  0  0  0  0  0  0  0  0
   21.0081  -22.0304  -12.7242 C   0  0  0  0  0  0  0  0  0  0  0  0
   19.9866  -22.5825  -12.2720 O   0  0  0  0  0  0  0  0  0  0  0  0
   21.5834  -20.7348  -10.1956 C   0  0  0  0  0  0  0  0  0  0  0  0
   20.3026  -20.2632  -10.3655 O   0  0  0  0  0  0  0  0  0  0  0  0
   20.8235  -21.2926  -13.9106 O   0  0  0  0  0  0  0  0  0  0  0  0
   21.8968  -21.0860   -9.0333 O   0  0  0  0  0  0  0  0  0  0  0  0
  2  1  1  0
  3  2  2  0
  4  2  1  0
  5  4  1  0
  6  8  1  0
  6  5  1  0
  6  7  1  6
  8  9  2  0
 10 11  1  0
 10  8  1  0
 11 12  1  1
 12 13  1  0
 13 14  2  0
 15 14  1  0
 16 15  1  0
 17 16  2  0
 18 17  1  0
 19 20  1  0
 19 18  2  0
 20 21  2  0
 21 16  1  0
 21 13  1  0
 22 11  1  0
 23 22  2  0
 24 22  1  0
 25 24  1  0
 25 26  1  6
 27 26  1  0
 27 28  2  0
 29 25  1  0
 29 30  1  0
 31 27  1  0
 32 29  2  0
M  END
$$$$
