QWD.pdb
     RDKit          3D

 32 33  0  0  1  0  0  0  0  0999 V2000
   28.0235  -23.5790  -17.4310 N   0  0  0  0  0  0  0  0  0  0  0  0
   29.0065  -22.5340  -17.5523 C   0  0  0  0  0  0  0  0  0  0  0  0
   29.5105  -22.3785  -18.6791 O   0  0  0  0  0  0  0  0  0  0  0  0
   29.3741  -21.7162  -16.3800 C   0  0  0  0  0  0  0  0  0  0  0  0
   28.5886  -22.0204  -15.1489 C   0  0  0  0  0  0  0  0  0  0  0  0
   27.4165  -21.1003  -14.9953 C   0  0  2  0  0  0  0  0  0  0  0  0
   27.7628  -19.7265  -15.0149 N   0  0  0  0  0  0  0  0  0  0  0  0
   26.5779  -21.4657  -13.8286 C   0  0  0  0  0  0  0  0  0  0  0  0
   26.1819  -22.6713  -13.7907 O   0  0  0  0  0  0  0  0  0  0  0  0
   26.1892  -20.6240  -12.7835 N   0  0  0  0  0  0  0  0  0  0  0  0
   25.2695  -21.0395  -11.7423 C   0  0  1  0  0  0  0  0  0  0  0  0
   25.6103  -20.2867  -10.4843 C   0  0  0  0  0  0  0  0  0  0  0  0
   26.9080  -20.6803   -9.9112 C   0  0  0  0  0  0  0  0  0  0  0  0
   27.8856  -21.4339  -10.5263 C   0  0  0  0  0  0  0  0  0  0  0  0
   28.9288  -21.5862   -9.6932 N   0  0  0  0  0  0  0  0  0  0  0  0
   28.6321  -20.9311   -8.5325 C   0  0  0  0  0  0  0  0  0  0  0  0
   29.3358  -20.7656   -7.3570 C   0  0  0  0  0  0  0  0  0  0  0  0
   28.7730  -20.0408   -6.3371 C   0  0  0  0  0  0  0  0  0  0  0  0
   27.5230  -19.4677   -6.4421 C   0  0  0  0  0  0  0  0  0  0  0  0
   26.8148  -19.6286   -7.6127 C   0  0  0  0  0  0  0  0  0  0  0  0
   27.3681  -20.3545   -8.6459 C   0  0  0  0  0  0  0  0  0  0  0  0
   23.9025  -20.7402  -12.2319 C   0  0  0  0  0  0  0  0  0  0  0  0
   23.6289  -19.5270  -12.4293 O   0  0  0  0  0  0  0  0  0  0  0  0
   22.9215  -21.6982  -12.4823 N   0  0  0  0  0  0  0  0  0  0  0  0
   21.5928  -21.2756  -12.9770 C   0  0  1  0  0  0  0  0  0  0  0  0
   21.0914  -22.3147  -13.9698 C   0  0  0  0  0  0  0  0  0  0  0  0
   20.4138  -21.6519  -15.0754 C   0  0  0  0  0  0  0  0  0  0  0  0
   20.1915  -20.4333  -15.2111 O   0  0  0  0  0  0  0  0  0  0  0  0
   20.7511  -21.1837  -11.7649 C   0  0  0  0  0  0  0  0  0  0  0  0
   21.1753  -21.5399  -10.5061 O   0  0  0  0  0  0  0  0  0  0  0  0
   19.9496  -22.4729  -16.1225 O   0  0  0  0  0  0  0  0  0  0  0  0
   19.5743  -20.7599  -11.8557 O   0  0  0  0  0  0  0  0  0  0  0  0
  2  1  1  0
  3  2  2  0
  4  2  1  0
  5  4  1  0
  6  8  1  0
  6  5  1  0
  6  7  1  1
  8  9  2  0
 10 11  1  0
 10  8  1  0
 11 12  1  1
 12 13  1  0
 13 14  2  0
 15 14  1  0
 16 15  1  0
 17 16  2  0
 18 17  1  0
 19 20  1  0
 19 18  2  0
 20 21  2  0
 21 16  1  0
 21 13  1  0
 22 11  1  0
 23 22  2  0
 24 22  1  0
 25 24  1  0
 25 26  1  6
 27 26  1  0
 27 28  2  0
 29 25  1  0
 29 30  1  0
 31 27  1  0
 32 29  2  0
M  END
$$$$
