QWD.pdb
     RDKit          3D

 32 33  0  0  1  0  0  0  0  0999 V2000
   29.8925  -16.4532  -18.1846 N   0  0  0  0  0  0  0  0  0  0  0  0
   31.0367  -16.7200  -19.0169 C   0  0  0  0  0  0  0  0  0  0  0  0
   31.1138  -17.8646  -19.4985 O   0  0  0  0  0  0  0  0  0  0  0  0
   32.0446  -15.6693  -19.2582 C   0  0  0  0  0  0  0  0  0  0  0  0
   31.7635  -14.3785  -18.5656 C   0  0  0  0  0  0  0  0  0  0  0  0
   30.9125  -13.4724  -19.4014 C   0  0  2  0  0  0  0  0  0  0  0  0
   31.2724  -13.4547  -20.7717 N   0  0  0  0  0  0  0  0  0  0  0  0
   30.8122  -12.1143  -18.8152 C   0  0  0  0  0  0  0  0  0  0  0  0
   30.4777  -12.0658  -17.5916 O   0  0  0  0  0  0  0  0  0  0  0  0
   31.0480  -10.9029  -19.4699 N   0  0  0  0  0  0  0  0  0  0  0  0
   30.8567   -9.6156  -18.8307 C   0  0  1  0  0  0  0  0  0  0  0  0
   32.1322   -8.8280  -18.9656 C   0  0  0  0  0  0  0  0  0  0  0  0
   33.1371   -9.1804  -17.9489 C   0  0  0  0  0  0  0  0  0  0  0  0
   33.9318  -10.3074  -17.9322 C   0  0  0  0  0  0  0  0  0  0  0  0
   34.7266  -10.2829  -16.8490 N   0  0  0  0  0  0  0  0  0  0  0  0
   34.4504   -9.1384  -16.1574 C   0  0  0  0  0  0  0  0  0  0  0  0
   34.9644   -8.6167  -14.9878 C   0  0  0  0  0  0  0  0  0  0  0  0
   34.4829   -7.4198  -14.5210 C   0  0  0  0  0  0  0  0  0  0  0  0
   33.4986   -6.7135  -15.1800 C   0  0  0  0  0  0  0  0  0  0  0  0
   32.9808   -7.2281  -16.3483 C   0  0  0  0  0  0  0  0  0  0  0  0
   33.4554   -8.4299  -16.8290 C   0  0  0  0  0  0  0  0  0  0  0  0
   29.7113   -8.9643  -19.5103 C   0  0  0  0  0  0  0  0  0  0  0  0
   29.6668   -9.0706  -20.7642 O   0  0  0  0  0  0  0  0  0  0  0  0
   28.7013   -8.2563  -18.8611 N   0  0  0  0  0  0  0  0  0  0  0  0
   27.6160   -7.6353  -19.6518 C   0  0  1  0  0  0  0  0  0  0  0  0
   26.3197   -7.7368  -18.8607 C   0  0  0  0  0  0  0  0  0  0  0  0
   25.2329   -7.1308  -19.6173 C   0  0  0  0  0  0  0  0  0  0  0  0
   25.2838   -6.6380  -20.7607 O   0  0  0  0  0  0  0  0  0  0  0  0
   28.0545   -6.2391  -19.8624 C   0  0  0  0  0  0  0  0  0  0  0  0
   27.6404   -5.4540  -20.9130 O   0  0  0  0  0  0  0  0  0  0  0  0
   23.9688   -7.0902  -18.9956 O   0  0  0  0  0  0  0  0  0  0  0  0
   28.8520   -5.7089  -19.0528 O   0  0  0  0  0  0  0  0  0  0  0  0
  2  1  1  0
  3  2  2  0
  4  2  1  0
  5  4  1  0
  6  8  1  0
  6  5  1  0
  6  7  1  6
  8  9  2  0
 10 11  1  0
 10  8  1  0
 11 12  1  6
 12 13  1  0
 13 14  2  0
 15 14  1  0
 16 15  1  0
 17 16  2  0
 18 17  1  0
 19 20  1  0
 19 18  2  0
 20 21  2  0
 21 16  1  0
 21 13  1  0
 22 11  1  0
 23 22  2  0
 24 22  1  0
 25 24  1  0
 25 26  1  1
 27 26  1  0
 27 28  2  0
 29 25  1  0
 29 30  1  0
 31 27  1  0
 32 29  2  0
M  END
$$$$
