QWD.pdb
     RDKit          3D

 32 33  0  0  1  0  0  0  0  0999 V2000
   22.6232  -11.7586  -23.0653 N   0  0  0  0  0  0  0  0  0  0  0  0
   23.1100  -12.3902  -21.8664 C   0  0  0  0  0  0  0  0  0  0  0  0
   23.5293  -13.5552  -21.9877 O   0  0  0  0  0  0  0  0  0  0  0  0
   23.0917  -11.6648  -20.5812 C   0  0  0  0  0  0  0  0  0  0  0  0
   22.3756  -10.3570  -20.6248 C   0  0  0  0  0  0  0  0  0  0  0  0
   23.0261   -9.3369  -19.7416 C   0  0  2  0  0  0  0  0  0  0  0  0
   24.3038   -9.7241  -19.2671 N   0  0  0  0  0  0  0  0  0  0  0  0
   22.1206   -8.8895  -18.6563 C   0  0  0  0  0  0  0  0  0  0  0  0
   20.9587   -8.5307  -19.0210 O   0  0  0  0  0  0  0  0  0  0  0  0
   22.4186   -8.8273  -17.2928 N   0  0  0  0  0  0  0  0  0  0  0  0
   21.4613   -8.3789  -16.3003 C   0  0  1  0  0  0  0  0  0  0  0  0
   21.3761   -9.4249  -15.2213 C   0  0  0  0  0  0  0  0  0  0  0  0
   20.6165  -10.6169  -15.6332 C   0  0  0  0  0  0  0  0  0  0  0  0
   21.1249  -11.8773  -15.8673 C   0  0  0  0  0  0  0  0  0  0  0  0
   20.1294  -12.7062  -16.2243 N   0  0  0  0  0  0  0  0  0  0  0  0
   18.9693  -11.9860  -16.2232 C   0  0  0  0  0  0  0  0  0  0  0  0
   17.6643  -12.3325  -16.5083 C   0  0  0  0  0  0  0  0  0  0  0  0
   16.6842  -11.3764  -16.4218 C   0  0  0  0  0  0  0  0  0  0  0  0
   16.9549  -10.0738  -16.0585 C   0  0  0  0  0  0  0  0  0  0  0  0
   18.2553   -9.7205  -15.7723 C   0  0  0  0  0  0  0  0  0  0  0  0
   19.2503  -10.6713  -15.8551 C   0  0  0  0  0  0  0  0  0  0  0  0
   21.9489   -7.0747  -15.7912 C   0  0  0  0  0  0  0  0  0  0  0  0
   23.1959   -6.8991  -15.7975 O   0  0  0  0  0  0  0  0  0  0  0  0
   21.1301   -6.0517  -15.3159 N   0  0  0  0  0  0  0  0  0  0  0  0
   21.7293   -4.7621  -14.9081 C   0  0  1  0  0  0  0  0  0  0  0  0
   20.7460   -3.6461  -15.2313 C   0  0  0  0  0  0  0  0  0  0  0  0
   21.2481   -2.3821  -14.7108 C   0  0  0  0  0  0  0  0  0  0  0  0
   20.9238   -1.8129  -13.6507 O   0  0  0  0  0  0  0  0  0  0  0  0
   21.9818   -4.9054  -13.4583 C   0  0  0  0  0  0  0  0  0  0  0  0
   22.8946   -4.1507  -12.7591 O   0  0  0  0  0  0  0  0  0  0  0  0
   22.2155   -1.7127  -15.4867 O   0  0  0  0  0  0  0  0  0  0  0  0
   21.3422   -5.7576  -12.7970 O   0  0  0  0  0  0  0  0  0  0  0  0
  2  1  1  0
  3  2  2  0
  4  2  1  0
  5  4  1  0
  6  8  1  0
  6  5  1  0
  6  7  1  1
  8  9  2  0
 10 11  1  0
 10  8  1  0
 11 12  1  1
 12 13  1  0
 13 14  2  0
 15 14  1  0
 16 15  1  0
 17 16  2  0
 18 17  1  0
 19 20  1  0
 19 18  2  0
 20 21  2  0
 21 16  1  0
 21 13  1  0
 22 11  1  0
 23 22  2  0
 24 22  1  0
 25 24  1  0
 25 26  1  1
 27 26  1  0
 27 28  2  0
 29 25  1  0
 29 30  1  0
 31 27  1  0
 32 29  2  0
M  END
$$$$
