QWD.pdb
     RDKit          3D

 32 33  0  0  1  0  0  0  0  0999 V2000
   19.2532  -10.6436  -13.6160 N   0  0  0  0  0  0  0  0  0  0  0  0
   18.5255  -10.5905  -14.8573 C   0  0  0  0  0  0  0  0  0  0  0  0
   18.7826  -11.4819  -15.6863 O   0  0  0  0  0  0  0  0  0  0  0  0
   17.5401   -9.5186  -15.0988 C   0  0  0  0  0  0  0  0  0  0  0  0
   17.4026   -8.5469  -13.9754 C   0  0  0  0  0  0  0  0  0  0  0  0
   16.5772   -9.1035  -12.8562 C   0  0  2  0  0  0  0  0  0  0  0  0
   15.6875  -10.1302  -13.2588 N   0  0  0  0  0  0  0  0  0  0  0  0
   15.9068   -8.0328  -12.0802 C   0  0  0  0  0  0  0  0  0  0  0  0
   14.7301   -7.7364  -12.4533 O   0  0  0  0  0  0  0  0  0  0  0  0
   16.4372   -7.3313  -10.9948 N   0  0  0  0  0  0  0  0  0  0  0  0
   15.7114   -6.2789  -10.3105 C   0  0  1  0  0  0  0  0  0  0  0  0
   15.7899   -6.5378   -8.8299 C   0  0  0  0  0  0  0  0  0  0  0  0
   14.8057   -7.5294   -8.3655 C   0  0  0  0  0  0  0  0  0  0  0  0
   14.9576   -8.9001   -8.3588 C   0  0  0  0  0  0  0  0  0  0  0  0
   13.8490   -9.4744   -7.8623 N   0  0  0  0  0  0  0  0  0  0  0  0
   12.9720   -8.4774   -7.5442 C   0  0  0  0  0  0  0  0  0  0  0  0
   11.7007   -8.4991   -7.0079 C   0  0  0  0  0  0  0  0  0  0  0  0
   11.0450   -7.3131   -6.7933 C   0  0  0  0  0  0  0  0  0  0  0  0
   11.6114   -6.0924   -7.0949 C   0  0  0  0  0  0  0  0  0  0  0  0
   12.8803   -6.0630   -7.6305 C   0  0  0  0  0  0  0  0  0  0  0  0
   13.5508   -7.2472   -7.8515 C   0  0  0  0  0  0  0  0  0  0  0  0
   16.3463   -4.9966  -10.6984 C   0  0  0  0  0  0  0  0  0  0  0  0
   17.6025   -4.9468  -10.6269 O   0  0  0  0  0  0  0  0  0  0  0  0
   15.6537   -3.8661  -11.1286 N   0  0  0  0  0  0  0  0  0  0  0  0
   16.3979   -2.7262  -11.7078 C   0  0  1  0  0  0  0  0  0  0  0  0
   17.1002   -3.1976  -12.9732 C   0  0  0  0  0  0  0  0  0  0  0  0
   17.6593   -2.0540  -13.6806 C   0  0  0  0  0  0  0  0  0  0  0  0
   17.0641   -1.2596  -14.4338 O   0  0  0  0  0  0  0  0  0  0  0  0
   15.3684   -1.6977  -11.9694 C   0  0  0  0  0  0  0  0  0  0  0  0
   14.0167   -1.9116  -11.8328 O   0  0  0  0  0  0  0  0  0  0  0  0
   19.0346   -1.8040  -13.5012 O   0  0  0  0  0  0  0  0  0  0  0  0
   15.7151   -0.5510  -12.3400 O   0  0  0  0  0  0  0  0  0  0  0  0
  2  1  1  0
  3  2  2  0
  4  2  1  0
  5  4  1  0
  6  8  1  0
  6  5  1  0
  6  7  1  6
  8  9  2  0
 10 11  1  0
 10  8  1  0
 11 12  1  1
 12 13  1  0
 13 14  2  0
 15 14  1  0
 16 15  1  0
 17 16  2  0
 18 17  1  0
 19 20  1  0
 19 18  2  0
 20 21  2  0
 21 16  1  0
 21 13  1  0
 22 11  1  0
 23 22  2  0
 24 22  1  0
 25 24  1  0
 25 26  1  6
 27 26  1  0
 27 28  2  0
 29 25  1  0
 29 30  1  0
 31 27  1  0
 32 29  2  0
M  END
$$$$
