QWD.pdb
     RDKit          3D

 32 33  0  0  1  0  0  0  0  0999 V2000
   26.8197  -18.4612  -20.3448 N   0  0  0  0  0  0  0  0  0  0  0  0
   25.9272  -19.2934  -21.1090 C   0  0  0  0  0  0  0  0  0  0  0  0
   26.4514  -20.2228  -21.7487 O   0  0  0  0  0  0  0  0  0  0  0  0
   24.4761  -19.0239  -21.1128 C   0  0  0  0  0  0  0  0  0  0  0  0
   23.7122  -19.7616  -20.0652 C   0  0  0  0  0  0  0  0  0  0  0  0
   23.9928  -19.2292  -18.6935 C   0  0  2  0  0  0  0  0  0  0  0  0
   25.3661  -19.2449  -18.3449 N   0  0  0  0  0  0  0  0  0  0  0  0
   23.1316  -19.8657  -17.6682 C   0  0  0  0  0  0  0  0  0  0  0  0
   22.6744  -21.0117  -17.9670 O   0  0  0  0  0  0  0  0  0  0  0  0
   22.7820  -19.3339  -16.4245 N   0  0  0  0  0  0  0  0  0  0  0  0
   21.9488  -20.0442  -15.4738 C   0  0  1  0  0  0  0  0  0  0  0  0
   22.1263  -19.4059  -14.1224 C   0  0  0  0  0  0  0  0  0  0  0  0
   21.2347  -19.9717  -13.0965 C   0  0  0  0  0  0  0  0  0  0  0  0
   21.1952  -21.2833  -12.6720 C   0  0  0  0  0  0  0  0  0  0  0  0
   20.2544  -21.4222  -11.7228 N   0  0  0  0  0  0  0  0  0  0  0  0
   19.6787  -20.1996  -11.5271 C   0  0  0  0  0  0  0  0  0  0  0  0
   18.6737  -19.7742  -10.6824 C   0  0  0  0  0  0  0  0  0  0  0  0
   18.2945  -18.4559  -10.7051 C   0  0  0  0  0  0  0  0  0  0  0  0
   18.8827  -17.5336  -11.5450 C   0  0  0  0  0  0  0  0  0  0  0  0
   19.8867  -17.9511  -12.3909 C   0  0  0  0  0  0  0  0  0  0  0  0
   20.2780  -19.2730  -12.3786 C   0  0  0  0  0  0  0  0  0  0  0  0
   20.5547  -19.9494  -15.9692 C   0  0  0  0  0  0  0  0  0  0  0  0
   20.2062  -18.8433  -16.4598 O   0  0  0  0  0  0  0  0  0  0  0  0
   19.6250  -20.9870  -15.9269 N   0  0  0  0  0  0  0  0  0  0  0  0
   18.2259  -20.7354  -16.3364 C   0  0  1  0  0  0  0  0  0  0  0  0
   17.6837  -21.9890  -17.0083 C   0  0  0  0  0  0  0  0  0  0  0  0
   18.3832  -22.2149  -18.2656 C   0  0  0  0  0  0  0  0  0  0  0  0
   18.7019  -21.3678  -19.1221 O   0  0  0  0  0  0  0  0  0  0  0  0
   17.5194  -20.4036  -15.0806 C   0  0  0  0  0  0  0  0  0  0  0  0
   16.8393  -19.2269  -14.8696 O   0  0  0  0  0  0  0  0  0  0  0  0
   18.7492  -23.5432  -18.5614 O   0  0  0  0  0  0  0  0  0  0  0  0
   17.5215  -21.2224  -14.1309 O   0  0  0  0  0  0  0  0  0  0  0  0
  2  1  1  0
  3  2  2  0
  4  2  1  0
  5  4  1  0
  6  8  1  0
  6  5  1  0
  6  7  1  1
  8  9  2  0
 10 11  1  0
 10  8  1  0
 11 12  1  1
 12 13  1  0
 13 14  2  0
 15 14  1  0
 16 15  1  0
 17 16  2  0
 18 17  1  0
 19 20  1  0
 19 18  2  0
 20 21  2  0
 21 16  1  0
 21 13  1  0
 22 11  1  0
 23 22  2  0
 24 22  1  0
 25 24  1  0
 25 26  1  1
 27 26  1  0
 27 28  2  0
 29 25  1  0
 29 30  1  0
 31 27  1  0
 32 29  2  0
M  END
$$$$
