ART.pdb
     RDKit          3D

 24 23  0  0  1  0  0  0  0  0999 V2000
    8.2145  -17.7026   13.3059 C   0  0  0  0  0  0  0  0  0  0  0  0
    9.3043  -17.0924   14.1500 C   0  0  2  0  0  0  0  0  0  0  0  0
   10.5414  -17.8085   14.0323 N   0  0  0  0  0  0  0  0  0  0  0  0
    8.8663  -16.9603   15.5881 C   0  0  0  0  0  0  0  0  0  0  0  0
    7.8720  -16.2664   15.7935 O   0  0  0  0  0  0  0  0  0  0  0  0
    7.4140  -21.8361   20.6068 N   0  0  0  0  0  0  0  0  0  0  0  0
    8.2270  -22.7454   19.8621 C   0  0  0  0  0  0  0  0  0  0  0  0
    7.8161  -23.9613   19.6824 N   0  0  0  0  0  0  0  0  0  0  0  0
    9.4705  -22.3734   19.3091 N   0  0  0  0  0  0  0  0  0  0  0  0
    9.9462  -21.0412   19.3829 C   0  0  0  0  0  0  0  0  0  0  0  0
    9.1402  -20.0193   18.6090 C   0  0  0  0  0  0  0  0  0  0  0  0
    9.8599  -18.6966   18.8302 C   0  0  0  0  0  0  0  0  0  0  0  0
    9.2817  -17.5648   18.0047 C   0  0  2  0  0  0  0  0  0  0  0  0
    9.5705  -17.6026   16.6186 N   0  0  0  0  0  0  0  0  0  0  0  0
    9.4843  -16.2985   18.6939 C   0  0  0  0  0  0  0  0  0  0  0  0
   10.6396  -15.7940   18.6521 O   0  0  0  0  0  0  0  0  0  0  0  0
    8.3446  -24.6661   19.1546 C   0  0  0  0  0  0  0  0  0  0  0  0
    7.6698  -12.0210   20.3496 C   0  0  2  0  0  0  0  0  0  0  0  0
    7.5701  -13.3412   19.6403 O   0  0  0  0  0  0  0  0  0  0  0  0
    7.6999  -13.0905   18.2708 C   0  0  1  0  0  0  0  0  0  0  0  0
    8.6516  -14.3205   20.0180 N   0  0  0  0  0  0  0  0  0  0  0  0
    8.4957  -15.6077   19.3920 C   0  0  0  0  0  0  0  0  0  0  0  0
    8.6020  -14.4988   21.4815 O   0  0  0  0  0  0  0  0  0  0  0  0
    8.2959  -15.5884   22.0384 O   0  0  0  0  0  0  0  0  0  0  0  0
  2  3  1  0
  2  1  1  6
  4  2  1  0
  5  4  2  0
  6  7  1  0
  7  9  1  0
  8  7  2  0
 10  9  1  0
 10 11  1  0
 11 12  1  0
 13 12  1  1
 13 14  1  0
 14  4  1  0
 15 13  1  0
 15 21  1  0
 16 15  2  0
 18 17  1  6
 19 18  1  0
 20 18  1  0
 20 21  1  1
 20 22  1  0
 22 24  1  0
 23 22  2  0
M  END
$$$$
