ART.pdb
     RDKit          3D

 24 23  0  0  1  0  0  0  0  0999 V2000
    7.9309  -12.1386   19.2353 C   0  0  0  0  0  0  0  0  0  0  0  0
    8.2040  -13.6073   19.0336 C   0  0  2  0  0  0  0  0  0  0  0  0
    7.4401  -14.1533   17.9494 N   0  0  0  0  0  0  0  0  0  0  0  0
    7.9934  -14.3787   20.3135 C   0  0  0  0  0  0  0  0  0  0  0  0
    6.9504  -15.0251   20.3950 O   0  0  0  0  0  0  0  0  0  0  0  0
    9.8316  -21.1249   23.2837 N   0  0  0  0  0  0  0  0  0  0  0  0
   10.2757  -20.4725   24.4751 C   0  0  0  0  0  0  0  0  0  0  0  0
    9.9793  -20.9869   25.6271 N   0  0  0  0  0  0  0  0  0  0  0  0
   11.0297  -19.2803   24.4515 N   0  0  0  0  0  0  0  0  0  0  0  0
   10.8884  -18.3340   23.4069 C   0  0  0  0  0  0  0  0  0  0  0  0
    9.9420  -17.1870   23.6925 C   0  0  0  0  0  0  0  0  0  0  0  0
    9.9680  -16.3290   22.4357 C   0  0  0  0  0  0  0  0  0  0  0  0
    8.9951  -15.1684   22.4931 C   0  0  2  0  0  0  0  0  0  0  0  0
    8.9487  -14.3452   21.3414 N   0  0  0  0  0  0  0  0  0  0  0  0
    9.0965  -14.5036   23.7844 C   0  0  0  0  0  0  0  0  0  0  0  0
   10.1857  -13.9291   24.0569 O   0  0  0  0  0  0  0  0  0  0  0  0
   10.2898  -20.5900   26.5219 C   0  0  0  0  0  0  0  0  0  0  0  0
    6.5252  -12.0354   27.2176 C   0  0  2  0  0  0  0  0  0  0  0  0
    6.6031  -13.1152   26.1765 O   0  0  0  0  0  0  0  0  0  0  0  0
    6.0440  -12.6037   25.0014 C   0  0  1  0  0  0  0  0  0  0  0  0
    8.0093  -13.5473   25.8490 N   0  0  0  0  0  0  0  0  0  0  0  0
    8.0787  -14.4570   24.7351 C   0  0  0  0  0  0  0  0  0  0  0  0
    8.5597  -14.2190   27.0414 O   0  0  0  0  0  0  0  0  0  0  0  0
    8.8844  -15.4377   27.0641 O   0  0  0  0  0  0  0  0  0  0  0  0
  2  3  1  0
  2  1  1  1
  4  2  1  0
  5  4  2  0
  6  7  1  0
  7  9  1  0
  8  7  2  0
 10  9  1  0
 10 11  1  0
 11 12  1  0
 13 12  1  6
 13 14  1  0
 14  4  1  0
 15 13  1  0
 15 21  1  0
 16 15  2  0
 18 17  1  1
 19 18  1  0
 20 18  1  0
 20 21  1  1
 20 22  1  0
 22 24  1  0
 23 22  2  0
M  END
$$$$
