ART.pdb
     RDKit          3D

 24 23  0  0  1  0  0  0  0  0999 V2000
   11.5489  -18.7456   17.3426 C   0  0  0  0  0  0  0  0  0  0  0  0
   12.3250  -17.5263   16.9143 C   0  0  2  0  0  0  0  0  0  0  0  0
   13.4204  -17.8608   16.0511 N   0  0  0  0  0  0  0  0  0  0  0  0
   12.7767  -16.7236   18.1098 C   0  0  0  0  0  0  0  0  0  0  0  0
   13.9102  -16.9567   18.5261 O   0  0  0  0  0  0  0  0  0  0  0  0
    7.7999  -14.5465   18.2229 N   0  0  0  0  0  0  0  0  0  0  0  0
    7.2869  -13.3631   18.8382 C   0  0  0  0  0  0  0  0  0  0  0  0
    6.0348  -13.3129   19.1691 N   0  0  0  0  0  0  0  0  0  0  0  0
    8.0921  -12.2353   19.1030 N   0  0  0  0  0  0  0  0  0  0  0  0
    9.4447  -12.3671   19.5025 C   0  0  0  0  0  0  0  0  0  0  0  0
   10.0161  -13.7664   19.4112 C   0  0  0  0  0  0  0  0  0  0  0  0
   11.4573  -13.6379   19.8834 C   0  0  0  0  0  0  0  0  0  0  0  0
   12.2196  -14.9458   19.8148 C   0  0  2  0  0  0  0  0  0  0  0  0
   11.9326  -15.7691   18.6985 N   0  0  0  0  0  0  0  0  0  0  0  0
   12.2304  -15.5795   21.1255 C   0  0  0  0  0  0  0  0  0  0  0  0
   11.1159  -15.7866   21.6786 O   0  0  0  0  0  0  0  0  0  0  0  0
    5.5759  -12.4656   19.5240 C   0  0  0  0  0  0  0  0  0  0  0  0
   12.9461  -19.0135   22.2165 C   0  0  2  0  0  0  0  0  0  0  0  0
   13.9062  -18.1009   22.9247 O   0  0  0  0  0  0  0  0  0  0  0  0
   15.0803  -18.0602   22.1664 C   0  0  2  0  0  0  0  0  0  0  0  0
   13.4139  -16.6829   23.0597 N   0  0  0  0  0  0  0  0  0  0  0  0
   13.3802  -15.9723   21.8078 C   0  0  0  0  0  0  0  0  0  0  0  0
   14.3283  -15.9777   23.9777 O   0  0  0  0  0  0  0  0  0  0  0  0
   15.1017  -15.0511   23.6115 O   0  0  0  0  0  0  0  0  0  0  0  0
  2  3  1  0
  2  1  1  1
  4  2  1  0
  5  4  2  0
  6  7  1  0
  7  9  1  0
  8  7  2  0
 10  9  1  0
 10 11  1  0
 11 12  1  0
 13 12  1  1
 13 14  1  0
 14  4  1  0
 15 13  1  0
 15 21  1  0
 16 15  2  0
 18 17  1  1
 19 18  1  0
 20 18  1  0
 20 21  1  1
 20 22  1  0
 22 24  1  0
 23 22  2  0
M  END
$$$$
