ART.pdb
     RDKit          3D

 24 23  0  0  1  0  0  0  0  0999 V2000
    8.2900  -12.2875   19.5332 C   0  0  0  0  0  0  0  0  0  0  0  0
    8.3127  -13.7945   19.5047 C   0  0  2  0  0  0  0  0  0  0  0  0
    7.7451  -14.3190   18.2965 N   0  0  0  0  0  0  0  0  0  0  0  0
    7.6504  -14.3701   20.7326 C   0  0  0  0  0  0  0  0  0  0  0  0
    6.4210  -14.3991   20.7257 O   0  0  0  0  0  0  0  0  0  0  0  0
    9.3005  -19.1722   27.0828 N   0  0  0  0  0  0  0  0  0  0  0  0
    7.8994  -19.4233   26.9561 C   0  0  0  0  0  0  0  0  0  0  0  0
    7.1838  -19.5756   28.0258 N   0  0  0  0  0  0  0  0  0  0  0  0
    7.2548  -19.5142   25.7044 N   0  0  0  0  0  0  0  0  0  0  0  0
    7.7450  -18.8281   24.5662 C   0  0  0  0  0  0  0  0  0  0  0  0
    7.5567  -17.3257   24.5817 C   0  0  0  0  0  0  0  0  0  0  0  0
    8.1159  -16.8422   23.2514 C   0  0  0  0  0  0  0  0  0  0  0  0
    7.9351  -15.3522   23.0417 C   0  0  2  0  0  0  0  0  0  0  0  0
    8.4154  -14.8399   21.8116 N   0  0  0  0  0  0  0  0  0  0  0  0
    8.3064  -14.6353   24.2532 C   0  0  0  0  0  0  0  0  0  0  0  0
    9.5241  -14.6438   24.5818 O   0  0  0  0  0  0  0  0  0  0  0  0
    6.1955  -19.8539   28.0118 C   0  0  0  0  0  0  0  0  0  0  0  0
    6.0908  -11.2906   25.9278 C   0  0  2  0  0  0  0  0  0  0  0  0
    6.6019  -12.3979   26.8045 O   0  0  0  0  0  0  0  0  0  0  0  0
    5.5595  -13.3152   26.9693 C   0  0  2  0  0  0  0  0  0  0  0  0
    7.7691  -13.1506   26.2195 N   0  0  0  0  0  0  0  0  0  0  0  0
    7.4151  -13.9428   25.0704 C   0  0  0  0  0  0  0  0  0  0  0  0
    8.2932  -14.0473   27.2671 O   0  0  0  0  0  0  0  0  0  0  0  0
    8.2858  -15.3050   27.1722 O   0  0  0  0  0  0  0  0  0  0  0  0
  2  3  1  0
  2  1  1  6
  4  2  1  0
  5  4  2  0
  6  7  1  0
  7  9  1  0
  8  7  2  0
 10  9  1  0
 10 11  1  0
 11 12  1  0
 13 12  1  1
 13 14  1  0
 14  4  1  0
 15 13  1  0
 15 21  1  0
 16 15  2  0
 18 17  1  1
 19 18  1  0
 20 18  1  0
 20 21  1  1
 20 22  1  0
 22 24  1  0
 23 22  2  0
M  END
$$$$
