ART.pdb
     RDKit          3D

 24 23  0  0  1  0  0  0  0  0999 V2000
    7.9648  -12.0610   19.7938 C   0  0  0  0  0  0  0  0  0  0  0  0
    8.3384  -13.5037   19.5671 C   0  0  2  0  0  0  0  0  0  0  0  0
    7.7610  -14.0267   18.3629 N   0  0  0  0  0  0  0  0  0  0  0  0
    7.9926  -14.3486   20.7689 C   0  0  0  0  0  0  0  0  0  0  0  0
    6.8199  -14.7063   20.8644 O   0  0  0  0  0  0  0  0  0  0  0  0
    7.7091  -20.5310   21.4219 N   0  0  0  0  0  0  0  0  0  0  0  0
    8.8753  -20.4511   20.5998 C   0  0  0  0  0  0  0  0  0  0  0  0
    8.8574  -20.9890   19.4209 N   0  0  0  0  0  0  0  0  0  0  0  0
   10.0575  -19.8061   21.0203 N   0  0  0  0  0  0  0  0  0  0  0  0
   10.0507  -18.8567   22.0716 C   0  0  0  0  0  0  0  0  0  0  0  0
    9.2734  -17.5868   21.7958 C   0  0  0  0  0  0  0  0  0  0  0  0
    9.4462  -16.7365   23.0462 C   0  0  0  0  0  0  0  0  0  0  0  0
    8.7756  -15.3820   22.9361 C   0  0  2  0  0  0  0  0  0  0  0  0
    8.9717  -14.6945   21.7133 N   0  0  0  0  0  0  0  0  0  0  0  0
    8.9810  -14.6289   24.1650 C   0  0  0  0  0  0  0  0  0  0  0  0
   10.1507  -14.2247   24.4087 O   0  0  0  0  0  0  0  0  0  0  0  0
    9.6788  -21.0353   18.8064 C   0  0  0  0  0  0  0  0  0  0  0  0
    6.5242  -11.6567   25.7085 C   0  0  2  0  0  0  0  0  0  0  0  0
    6.8862  -12.7704   26.6491 O   0  0  0  0  0  0  0  0  0  0  0  0
    5.8369  -13.6942   26.6262 C   0  0  2  0  0  0  0  0  0  0  0  0
    8.1405  -13.5117   26.2637 N   0  0  0  0  0  0  0  0  0  0  0  0
    7.9804  -14.3240   25.0857 C   0  0  0  0  0  0  0  0  0  0  0  0
    8.5078  -14.3865   27.3933 O   0  0  0  0  0  0  0  0  0  0  0  0
    8.4990  -15.6461   27.3276 O   0  0  0  0  0  0  0  0  0  0  0  0
  2  3  1  0
  2  1  1  1
  4  2  1  0
  5  4  2  0
  6  7  1  0
  7  9  1  0
  8  7  2  0
 10  9  1  0
 10 11  1  0
 11 12  1  0
 13 12  1  1
 13 14  1  0
 14  4  1  0
 15 13  1  0
 15 21  1  0
 16 15  2  0
 18 17  1  1
 19 18  1  0
 20 18  1  0
 20 21  1  1
 20 22  1  0
 22 24  1  0
 23 22  2  0
M  END
$$$$
