ART.pdb
     RDKit          3D

 24 23  0  0  1  0  0  0  0  0999 V2000
   10.8702  -21.8494   18.5094 C   0  0  0  0  0  0  0  0  0  0  0  0
   10.5344  -20.6444   17.6682 C   0  0  2  0  0  0  0  0  0  0  0  0
   11.1798  -20.6845   16.3880 N   0  0  0  0  0  0  0  0  0  0  0  0
   10.8356  -19.3648   18.4094 C   0  0  0  0  0  0  0  0  0  0  0  0
   11.9503  -18.8784   18.2265 O   0  0  0  0  0  0  0  0  0  0  0  0
    9.0636  -12.8714   18.8537 N   0  0  0  0  0  0  0  0  0  0  0  0
    8.5555  -12.4421   20.1185 C   0  0  0  0  0  0  0  0  0  0  0  0
    8.8433  -11.2531   20.5463 N   0  0  0  0  0  0  0  0  0  0  0  0
    7.7468  -13.2650   20.9304 N   0  0  0  0  0  0  0  0  0  0  0  0
    7.6988  -14.6690   20.7484 C   0  0  0  0  0  0  0  0  0  0  0  0
    9.0411  -15.3696   20.7398 C   0  0  0  0  0  0  0  0  0  0  0  0
    8.7692  -16.7405   20.1372 C   0  0  0  0  0  0  0  0  0  0  0  0
   10.0199  -17.5861   20.0058 C   0  0  2  0  0  0  0  0  0  0  0  0
    9.8811  -18.7798   19.2561 N   0  0  0  0  0  0  0  0  0  0  0  0
   10.6875  -17.6826   21.2960 C   0  0  0  0  0  0  0  0  0  0  0  0
    9.9867  -18.0241   22.2874 O   0  0  0  0  0  0  0  0  0  0  0  0
    8.4720  -10.8594   21.4190 C   0  0  0  0  0  0  0  0  0  0  0  0
   14.1479  -19.6198   21.8727 C   0  0  2  0  0  0  0  0  0  0  0  0
   14.1436  -18.2494   22.4876 O   0  0  0  0  0  0  0  0  0  0  0  0
   14.7878  -17.3884   21.5939 C   0  0  2  0  0  0  0  0  0  0  0  0
   12.7640  -17.6919   22.7269 N   0  0  0  0  0  0  0  0  0  0  0  0
   12.0404  -17.4265   21.5107 C   0  0  0  0  0  0  0  0  0  0  0  0
   12.9157  -16.4272   23.4709 O   0  0  0  0  0  0  0  0  0  0  0  0
   12.6587  -15.2956   22.9766 O   0  0  0  0  0  0  0  0  0  0  0  0
  2  3  1  0
  2  1  1  1
  4  2  1  0
  5  4  2  0
  6  7  1  0
  7  9  1  0
  8  7  2  0
 10  9  1  0
 10 11  1  0
 11 12  1  0
 13 12  1  1
 13 14  1  0
 14  4  1  0
 15 13  1  0
 15 21  1  0
 16 15  2  0
 18 17  1  1
 19 18  1  0
 20 18  1  0
 20 21  1  1
 20 22  1  0
 22 24  1  0
 23 22  2  0
M  END
$$$$
