ART.pdb
     RDKit          3D

 24 23  0  0  1  0  0  0  0  0999 V2000
    6.8730  -22.0771   23.8806 C   0  0  0  0  0  0  0  0  0  0  0  0
    6.5848  -21.3435   22.5956 C   0  0  2  0  0  0  0  0  0  0  0  0
    6.5706  -22.2246   21.4640 N   0  0  0  0  0  0  0  0  0  0  0  0
    7.5434  -20.1943   22.4006 C   0  0  0  0  0  0  0  0  0  0  0  0
    8.7241  -20.4926   22.2287 O   0  0  0  0  0  0  0  0  0  0  0  0
    8.0661  -13.4275   18.5158 N   0  0  0  0  0  0  0  0  0  0  0  0
    8.1329  -12.5249   19.6217 C   0  0  0  0  0  0  0  0  0  0  0  0
    8.5814  -11.3237   19.4329 N   0  0  0  0  0  0  0  0  0  0  0  0
    7.7286  -12.8885   20.9235 N   0  0  0  0  0  0  0  0  0  0  0  0
    7.0979  -14.1297   21.1847 C   0  0  0  0  0  0  0  0  0  0  0  0
    8.0182  -15.2444   21.6354 C   0  0  0  0  0  0  0  0  0  0  0  0
    7.1158  -16.4574   21.8105 C   0  0  0  0  0  0  0  0  0  0  0  0
    7.8694  -17.6941   22.2569 C   0  0  2  0  0  0  0  0  0  0  0  0
    7.0903  -18.8659   22.4189 N   0  0  0  0  0  0  0  0  0  0  0  0
    8.7880  -17.3501   23.3328 C   0  0  0  0  0  0  0  0  0  0  0  0
    8.2850  -16.9788   24.4282 O   0  0  0  0  0  0  0  0  0  0  0  0
    8.6248  -10.6121   20.1720 C   0  0  0  0  0  0  0  0  0  0  0  0
   10.6837  -19.1108   25.7727 C   0  0  2  0  0  0  0  0  0  0  0  0
   11.6764  -18.3419   24.9483 O   0  0  0  0  0  0  0  0  0  0  0  0
   12.1100  -19.1863   23.9217 C   0  0  2  0  0  0  0  0  0  0  0  0
   11.1049  -17.1081   24.2985 N   0  0  0  0  0  0  0  0  0  0  0  0
   10.1772  -17.4033   23.2376 C   0  0  0  0  0  0  0  0  0  0  0  0
   12.2302  -16.3352   23.7395 O   0  0  0  0  0  0  0  0  0  0  0  0
   12.4542  -16.2305   22.5026 O   0  0  0  0  0  0  0  0  0  0  0  0
  2  3  1  0
  2  1  1  1
  4  2  1  0
  5  4  2  0
  6  7  1  0
  7  9  1  0
  8  7  2  0
 10  9  1  0
 10 11  1  0
 11 12  1  0
 13 12  1  1
 13 14  1  0
 14  4  1  0
 15 13  1  0
 15 21  1  0
 16 15  2  0
 18 17  1  1
 19 18  1  0
 20 18  1  0
 20 21  1  1
 20 22  1  0
 22 24  1  0
 23 22  2  0
M  END
$$$$
