ART.pdb
     RDKit          3D

 24 23  0  0  1  0  0  0  0  0999 V2000
    7.9108  -12.0134   19.2545 C   0  0  0  0  0  0  0  0  0  0  0  0
    8.4181  -13.4239   19.0942 C   0  0  2  0  0  0  0  0  0  0  0  0
    8.0719  -13.9790   17.8179 N   0  0  0  0  0  0  0  0  0  0  0  0
    7.9539  -14.2996   20.2323 C   0  0  0  0  0  0  0  0  0  0  0  0
    7.2411  -15.2548   19.9292 O   0  0  0  0  0  0  0  0  0  0  0  0
    8.2218  -20.1730   23.8122 N   0  0  0  0  0  0  0  0  0  0  0  0
    9.5255  -20.1398   24.3966 C   0  0  0  0  0  0  0  0  0  0  0  0
    9.7872  -20.9100   25.4056 N   0  0  0  0  0  0  0  0  0  0  0  0
   10.5502  -19.2961   23.9186 N   0  0  0  0  0  0  0  0  0  0  0  0
   10.2881  -18.2717   22.9760 C   0  0  0  0  0  0  0  0  0  0  0  0
    9.4185  -17.1367   23.4744 C   0  0  0  0  0  0  0  0  0  0  0  0
    9.3638  -16.1437   22.3223 C   0  0  0  0  0  0  0  0  0  0  0  0
    8.4807  -14.9475   22.6157 C   0  0  2  0  0  0  0  0  0  0  0  0
    8.3270  -14.0200   21.5562 N   0  0  0  0  0  0  0  0  0  0  0  0
    8.7988  -14.4107   23.9310 C   0  0  0  0  0  0  0  0  0  0  0  0
    9.9947  -14.0717   24.1453 O   0  0  0  0  0  0  0  0  0  0  0  0
   10.7140  -20.9761   25.8428 C   0  0  0  0  0  0  0  0  0  0  0  0
    6.5756  -11.5689   25.8827 C   0  0  2  0  0  0  0  0  0  0  0  0
    6.9090  -12.7881   26.6942 O   0  0  0  0  0  0  0  0  0  0  0  0
    5.8171  -13.6574   26.6100 C   0  0  2  0  0  0  0  0  0  0  0  0
    8.1166  -13.5407   26.1975 N   0  0  0  0  0  0  0  0  0  0  0  0
    7.8787  -14.2450   24.9644 C   0  0  0  0  0  0  0  0  0  0  0  0
    8.4911  -14.5199   27.2352 O   0  0  0  0  0  0  0  0  0  0  0  0
    8.4103  -15.7683   27.0736 O   0  0  0  0  0  0  0  0  0  0  0  0
  2  3  1  0
  2  1  1  1
  4  2  1  0
  5  4  2  0
  6  7  1  0
  7  9  1  0
  8  7  2  0
 10  9  1  0
 10 11  1  0
 11 12  1  0
 13 12  1  6
 13 14  1  0
 14  4  1  0
 15 13  1  0
 15 21  1  0
 16 15  2  0
 18 17  1  1
 19 18  1  0
 20 18  1  0
 20 21  1  1
 20 22  1  0
 22 24  1  0
 23 22  2  0
M  END
$$$$
