ART.pdb
     RDKit          3D

 24 23  0  0  1  0  0  0  0  0999 V2000
    8.2141  -20.0527   16.6613 C   0  0  0  0  0  0  0  0  0  0  0  0
    7.3490  -18.8523   16.9495 C   0  0  2  0  0  0  0  0  0  0  0  0
    7.9296  -17.6384   16.4532 N   0  0  0  0  0  0  0  0  0  0  0  0
    7.0236  -18.7591   18.4202 C   0  0  0  0  0  0  0  0  0  0  0  0
    7.7829  -18.0749   19.1041 O   0  0  0  0  0  0  0  0  0  0  0  0
    3.4231  -23.5216   22.4919 N   0  0  0  0  0  0  0  0  0  0  0  0
    2.3689  -22.9040   23.2332 C   0  0  0  0  0  0  0  0  0  0  0  0
    1.8778  -23.5152   24.2652 N   0  0  0  0  0  0  0  0  0  0  0  0
    1.8336  -21.6456   22.8867 N   0  0  0  0  0  0  0  0  0  0  0  0
    2.3163  -20.9156   21.7729 C   0  0  0  0  0  0  0  0  0  0  0  0
    3.8066  -20.6476   21.7677 C   0  0  0  0  0  0  0  0  0  0  0  0
    4.0436  -19.7478   20.5633 C   0  0  0  0  0  0  0  0  0  0  0  0
    5.5123  -19.4687   20.3150 C   0  0  2  0  0  0  0  0  0  0  0  0
    5.9106  -19.4254   18.9564 N   0  0  0  0  0  0  0  0  0  0  0  0
    6.3257  -20.2641   21.2234 C   0  0  0  0  0  0  0  0  0  0  0  0
    6.4715  -21.4870   20.9513 O   0  0  0  0  0  0  0  0  0  0  0  0
    1.1892  -23.0931   24.8994 C   0  0  0  0  0  0  0  0  0  0  0  0
    9.9221  -20.4013   24.6531 C   0  0  2  0  0  0  0  0  0  0  0  0
    9.0530  -19.7039   23.6459 O   0  0  0  0  0  0  0  0  0  0  0  0
    9.8309  -19.4814   22.5056 C   0  0  1  0  0  0  0  0  0  0  0  0
    7.8521  -20.5066   23.2160 N   0  0  0  0  0  0  0  0  0  0  0  0
    6.9522  -19.7709   22.3662 C   0  0  0  0  0  0  0  0  0  0  0  0
    7.1253  -20.9112   24.4343 O   0  0  0  0  0  0  0  0  0  0  0  0
    6.1786  -20.2429   24.9324 O   0  0  0  0  0  0  0  0  0  0  0  0
  2  3  1  0
  2  1  1  1
  4  2  1  0
  5  4  2  0
  6  7  1  0
  7  9  1  0
  8  7  2  0
 10  9  1  0
 10 11  1  0
 11 12  1  0
 13 12  1  6
 13 14  1  0
 14  4  1  0
 15 13  1  0
 15 21  1  0
 16 15  2  0
 18 17  1  1
 19 18  1  0
 20 18  1  0
 20 21  1  1
 20 22  1  0
 22 24  1  0
 23 22  2  0
M  END
$$$$
