ART.pdb
     RDKit          3D

 24 23  0  0  1  0  0  0  0  0999 V2000
    8.2466  -12.1307   19.4613 C   0  0  0  0  0  0  0  0  0  0  0  0
    8.0049  -13.6114   19.3150 C   0  0  2  0  0  0  0  0  0  0  0  0
    7.0211  -13.9001   18.3121 N   0  0  0  0  0  0  0  0  0  0  0  0
    7.6540  -14.2373   20.6427 C   0  0  0  0  0  0  0  0  0  0  0  0
    6.4955  -14.0868   21.0269 O   0  0  0  0  0  0  0  0  0  0  0  0
    9.0430  -20.4137   19.5019 N   0  0  0  0  0  0  0  0  0  0  0  0
   10.3548  -19.8878   19.7140 C   0  0  0  0  0  0  0  0  0  0  0  0
   11.2512  -20.0293   18.7888 N   0  0  0  0  0  0  0  0  0  0  0  0
   10.7203  -19.2153   20.8990 N   0  0  0  0  0  0  0  0  0  0  0  0
    9.8001  -19.0281   21.9595 C   0  0  0  0  0  0  0  0  0  0  0  0
    8.8056  -17.9027   21.7662 C   0  0  0  0  0  0  0  0  0  0  0  0
    9.1455  -16.8835   22.8442 C   0  0  0  0  0  0  0  0  0  0  0  0
    8.4378  -15.5579   22.6475 C   0  0  2  0  0  0  0  0  0  0  0  0
    8.6133  -14.9473   21.3815 N   0  0  0  0  0  0  0  0  0  0  0  0
    8.6243  -14.7202   23.8235 C   0  0  0  0  0  0  0  0  0  0  0  0
    9.7171  -14.0989   23.9255 O   0  0  0  0  0  0  0  0  0  0  0  0
   12.2210  -19.7055   18.8849 C   0  0  0  0  0  0  0  0  0  0  0  0
    6.5647  -11.8937   27.3098 C   0  0  2  0  0  0  0  0  0  0  0  0
    6.4603  -12.9739   26.2714 O   0  0  0  0  0  0  0  0  0  0  0  0
    5.9744  -12.3828   25.1011 C   0  0  1  0  0  0  0  0  0  0  0  0
    7.7774  -13.6215   25.9294 N   0  0  0  0  0  0  0  0  0  0  0  0
    7.6838  -14.5568   24.8387 C   0  0  0  0  0  0  0  0  0  0  0  0
    8.2465  -14.3411   27.1287 O   0  0  0  0  0  0  0  0  0  0  0  0
    8.5087  -13.7706   28.2227 O   0  0  0  0  0  0  0  0  0  0  0  0
  2  3  1  0
  2  1  1  1
  4  2  1  0
  5  4  2  0
  6  7  1  0
  7  9  1  0
  8  7  2  0
 10  9  1  0
 10 11  1  0
 11 12  1  0
 13 12  1  1
 13 14  1  0
 14  4  1  0
 15 13  1  0
 15 21  1  0
 16 15  2  0
 18 17  1  1
 19 18  1  0
 20 18  1  0
 20 21  1  1
 20 22  1  0
 22 24  1  0
 23 22  2  0
M  END
$$$$
