EGP.pdb
     RDKit          3D

 21 21  0  0  1  0  0  0  0  0999 V2000
   20.0006   -9.2685  -14.3908 N   0  0  0  0  0  0  0  0  0  0  0  0
   20.6084   -8.0437  -13.8763 C   0  0  1  0  0  0  0  0  0  0  0  0
   20.3975   -6.9115  -14.8536 C   0  0  0  0  0  0  0  0  0  0  0  0
   21.3575   -5.7768  -14.5662 C   0  0  0  0  0  0  0  0  0  0  0  0
   20.7447   -4.9009  -13.5302 C   0  0  0  0  0  0  0  0  0  0  0  0
   21.4510   -4.5576  -12.5440 O   0  0  0  0  0  0  0  0  0  0  0  0
   20.0405   -7.7373  -12.5386 C   0  0  0  0  0  0  0  0  0  0  0  0
   20.7515   -7.0205  -11.7567 O   0  0  0  0  0  0  0  0  0  0  0  0
   19.4346   -4.4601  -13.6164 O   0  0  0  0  0  0  0  0  0  0  0  0
   18.7667   -8.2095  -12.1252 N   0  0  0  0  0  0  0  0  0  0  0  0
   18.2015   -7.6820  -10.9006 C   0  0  0  0  0  0  0  0  0  0  0  0
   16.7474   -7.5124  -11.0933 C   0  0  0  0  0  0  0  0  0  0  0  0
   16.2087   -7.7690  -12.2173 O   0  0  0  0  0  0  0  0  0  0  0  0
   15.9396   -7.0642  -10.0405 N   0  0  0  0  0  0  0  0  0  0  0  0
   16.3800   -6.5789   -8.7619 C   0  0  0  0  0  0  0  0  0  0  0  0
   15.3907   -7.3466   -7.8598 C   0  0  0  0  0  0  0  0  0  0  0  0
   14.0978   -6.9974   -8.5558 C   0  0  0  0  0  0  0  0  0  0  0  0
   14.4989   -6.9886  -10.0174 C   0  0  1  0  0  0  0  0  0  0  0  0
   14.1296   -5.6733  -10.6484 C   0  0  0  0  0  0  0  0  0  0  0  0
   14.9299   -4.7081  -10.7021 O   0  0  0  0  0  0  0  0  0  0  0  0
   12.8761   -5.4686  -11.2045 O   0  0  0  0  0  0  0  0  0  0  0  0
  2  1  1  6
  3  2  1  0
  3  4  1  0
  4  5  1  0
  5  9  1  0
  5  6  2  0
  7  8  2  0
  7  2  1  0
 10  7  1  0
 11 12  1  0
 11 10  1  0
 12 14  1  0
 13 12  2  0
 14 15  1  0
 14 18  1  0
 15 16  1  0
 16 17  1  0
 18 19  1  1
 18 17  1  0
 19 21  1  0
 20 19  2  0
M  END
$$$$
