EGP.pdb
     RDKit          3D

 21 21  0  0  1  0  0  0  0  0999 V2000
   20.4848  -12.5490  -15.4001 N   0  0  0  0  0  0  0  0  0  0  0  0
   19.7018  -12.1754  -16.5754 C   0  0  1  0  0  0  0  0  0  0  0  0
   18.4262  -12.9826  -16.6251 C   0  0  0  0  0  0  0  0  0  0  0  0
   18.7246  -14.4573  -16.4577 C   0  0  0  0  0  0  0  0  0  0  0  0
   17.4446  -15.2072  -16.5811 C   0  0  0  0  0  0  0  0  0  0  0  0
   16.3742  -14.5493  -16.6856 O   0  0  0  0  0  0  0  0  0  0  0  0
   19.4351  -10.7146  -16.5446 C   0  0  0  0  0  0  0  0  0  0  0  0
   19.1381  -10.1554  -17.6535 O   0  0  0  0  0  0  0  0  0  0  0  0
   17.3963  -16.5914  -16.5812 O   0  0  0  0  0  0  0  0  0  0  0  0
   19.5022   -9.9529  -15.3480 N   0  0  0  0  0  0  0  0  0  0  0  0
   19.1445   -8.5506  -15.4041 C   0  0  0  0  0  0  0  0  0  0  0  0
   20.3857   -7.7561  -15.4953 C   0  0  0  0  0  0  0  0  0  0  0  0
   21.5089   -8.3274  -15.6731 O   0  0  0  0  0  0  0  0  0  0  0  0
   20.3445   -6.3603  -15.3853 N   0  0  0  0  0  0  0  0  0  0  0  0
   19.1715   -5.5309  -15.3675 C   0  0  0  0  0  0  0  0  0  0  0  0
   19.6383   -4.4335  -16.3470 C   0  0  0  0  0  0  0  0  0  0  0  0
   20.9781   -4.1069  -15.7337 C   0  0  0  0  0  0  0  0  0  0  0  0
   21.4664   -5.4616  -15.2607 C   0  0  1  0  0  0  0  0  0  0  0  0
   21.8098   -5.4067  -13.7966 C   0  0  0  0  0  0  0  0  0  0  0  0
   21.0207   -5.8100  -12.9080 O   0  0  0  0  0  0  0  0  0  0  0  0
   23.0262   -4.9034  -13.3610 O   0  0  0  0  0  0  0  0  0  0  0  0
  2  1  1  1
  3  2  1  0
  3  4  1  0
  4  5  1  0
  5  9  1  0
  5  6  2  0
  7  8  2  0
  7  2  1  0
 10  7  1  0
 11 12  1  0
 11 10  1  0
 12 14  1  0
 13 12  2  0
 14 15  1  0
 14 18  1  0
 15 16  1  0
 16 17  1  0
 18 19  1  1
 18 17  1  0
 19 21  1  0
 20 19  2  0
M  END
$$$$
