EGP.pdb
     RDKit          3D

 21 21  0  0  1  0  0  0  0  0999 V2000
   19.8326  -22.7473  -15.3636 N   0  0  0  0  0  0  0  0  0  0  0  0
   20.1279  -21.3460  -15.0750 C   0  0  1  0  0  0  0  0  0  0  0  0
   18.9091  -20.6697  -14.4933 C   0  0  0  0  0  0  0  0  0  0  0  0
   17.7202  -21.6065  -14.5176 C   0  0  0  0  0  0  0  0  0  0  0  0
   17.1556  -21.6763  -13.1419 C   0  0  0  0  0  0  0  0  0  0  0  0
   16.1587  -22.4219  -12.9422 O   0  0  0  0  0  0  0  0  0  0  0  0
   21.2967  -21.2677  -14.1620 C   0  0  0  0  0  0  0  0  0  0  0  0
   21.1647  -21.7901  -13.0043 O   0  0  0  0  0  0  0  0  0  0  0  0
   17.6862  -20.9513  -12.0879 O   0  0  0  0  0  0  0  0  0  0  0  0
   22.5163  -20.6445  -14.5371 N   0  0  0  0  0  0  0  0  0  0  0  0
   23.6308  -20.7020  -13.6141 C   0  0  0  0  0  0  0  0  0  0  0  0
   24.7547  -19.9384  -14.1919 C   0  0  0  0  0  0  0  0  0  0  0  0
   24.5374  -18.9491  -14.9623 O   0  0  0  0  0  0  0  0  0  0  0  0
   26.0780  -20.2939  -13.9011 N   0  0  0  0  0  0  0  0  0  0  0  0
   26.5183  -21.2655  -12.9387 C   0  0  0  0  0  0  0  0  0  0  0  0
   27.6532  -20.4536  -12.2796 C   0  0  0  0  0  0  0  0  0  0  0  0
   28.3968  -20.0157  -13.5179 C   0  0  0  0  0  0  0  0  0  0  0  0
   27.2763  -19.7669  -14.5079 C   0  0  1  0  0  0  0  0  0  0  0  0
   27.5066  -20.5648  -15.7628 C   0  0  0  0  0  0  0  0  0  0  0  0
   26.9552  -21.6744  -15.9617 O   0  0  0  0  0  0  0  0  0  0  0  0
   28.3463  -20.1034  -16.7651 O   0  0  0  0  0  0  0  0  0  0  0  0
  2  1  1  1
  3  2  1  0
  3  4  1  0
  4  5  1  0
  5  9  1  0
  5  6  2  0
  7  8  2  0
  7  2  1  0
 10  7  1  0
 11 12  1  0
 11 10  1  0
 12 14  1  0
 13 12  2  0
 14 15  1  0
 14 18  1  0
 15 16  1  0
 16 17  1  0
 18 19  1  6
 18 17  1  0
 19 21  1  0
 20 19  2  0
M  END
$$$$
