EGP.pdb
     RDKit          3D

 21 21  0  0  1  0  0  0  0  0999 V2000
   21.6903  -11.5651  -19.7861 N   0  0  0  0  0  0  0  0  0  0  0  0
   20.5323  -10.9894  -19.1066 C   0  0  1  0  0  0  0  0  0  0  0  0
   19.3831  -11.9694  -19.1227 C   0  0  0  0  0  0  0  0  0  0  0  0
   18.9416  -12.2461  -20.5441 C   0  0  0  0  0  0  0  0  0  0  0  0
   17.8448  -13.2518  -20.5025 C   0  0  0  0  0  0  0  0  0  0  0  0
   16.6539  -12.8380  -20.5115 O   0  0  0  0  0  0  0  0  0  0  0  0
   20.9150  -10.6031  -17.7245 C   0  0  0  0  0  0  0  0  0  0  0  0
   21.9748  -11.1314  -17.2467 O   0  0  0  0  0  0  0  0  0  0  0  0
   18.0927  -14.6135  -20.4514 O   0  0  0  0  0  0  0  0  0  0  0  0
   20.1520   -9.6899  -16.9496 N   0  0  0  0  0  0  0  0  0  0  0  0
   20.6153   -9.3639  -15.6168 C   0  0  0  0  0  0  0  0  0  0  0  0
   20.5604   -7.8978  -15.4497 C   0  0  0  0  0  0  0  0  0  0  0  0
   20.2038   -7.1488  -16.4147 O   0  0  0  0  0  0  0  0  0  0  0  0
   20.9025   -7.3099  -14.2252 N   0  0  0  0  0  0  0  0  0  0  0  0
   21.3307   -7.9876  -13.0329 C   0  0  0  0  0  0  0  0  0  0  0  0
   20.4606   -7.2358  -12.0036 C   0  0  0  0  0  0  0  0  0  0  0  0
   20.7859   -5.8147  -12.3944 C   0  0  0  0  0  0  0  0  0  0  0  0
   20.9038   -5.9035  -13.9029 C   0  0  1  0  0  0  0  0  0  0  0  0
   22.2347   -5.3633  -14.3516 C   0  0  0  0  0  0  0  0  0  0  0  0
   23.2075   -6.1117  -14.6136 O   0  0  0  0  0  0  0  0  0  0  0  0
   22.4463   -4.0007  -14.4974 O   0  0  0  0  0  0  0  0  0  0  0  0
  2  1  1  1
  3  2  1  0
  3  4  1  0
  4  5  1  0
  5  9  1  0
  5  6  2  0
  7  8  2  0
  7  2  1  0
 10  7  1  0
 11 12  1  0
 11 10  1  0
 12 14  1  0
 13 12  2  0
 14 15  1  0
 14 18  1  0
 15 16  1  0
 16 17  1  0
 18 19  1  1
 18 17  1  0
 19 21  1  0
 20 19  2  0
M  END
$$$$
