EGP.pdb
     RDKit          3D

 21 21  0  0  1  0  0  0  0  0999 V2000
   20.7758  -12.9150  -17.2051 N   0  0  0  0  0  0  0  0  0  0  0  0
   20.3702  -11.8620  -18.1330 C   0  0  1  0  0  0  0  0  0  0  0  0
   18.8654  -11.7329  -18.1432 C   0  0  0  0  0  0  0  0  0  0  0  0
   18.2206  -12.9989  -17.6204 C   0  0  0  0  0  0  0  0  0  0  0  0
   17.8214  -12.7666  -16.2052 C   0  0  0  0  0  0  0  0  0  0  0  0
   17.6067  -11.5818  -15.8316 O   0  0  0  0  0  0  0  0  0  0  0  0
   21.0355  -10.5895  -17.7538 C   0  0  0  0  0  0  0  0  0  0  0  0
   21.4394   -9.8398  -18.7054 O   0  0  0  0  0  0  0  0  0  0  0  0
   17.6839  -13.8030  -15.2968 O   0  0  0  0  0  0  0  0  0  0  0  0
   21.2257  -10.2027  -16.4008 N   0  0  0  0  0  0  0  0  0  0  0  0
   21.8310   -8.9148  -16.1318 C   0  0  0  0  0  0  0  0  0  0  0  0
   20.8520   -8.0822  -15.4048 C   0  0  0  0  0  0  0  0  0  0  0  0
   19.6972   -8.5369  -15.1236 O   0  0  0  0  0  0  0  0  0  0  0  0
   21.1806   -6.7774  -15.0155 N   0  0  0  0  0  0  0  0  0  0  0  0
   22.4213   -6.0931  -15.2532 C   0  0  0  0  0  0  0  0  0  0  0  0
   22.6356   -5.4894  -13.8492 C   0  0  0  0  0  0  0  0  0  0  0  0
   21.2833   -4.8511  -13.6444 C   0  0  0  0  0  0  0  0  0  0  0  0
   20.3444   -5.8436  -14.3009 C   0  0  1  0  0  0  0  0  0  0  0  0
   19.4975   -5.1508  -15.3340 C   0  0  0  0  0  0  0  0  0  0  0  0
   19.7653   -5.1955  -16.5592 O   0  0  0  0  0  0  0  0  0  0  0  0
   18.3719   -4.4257  -14.9734 O   0  0  0  0  0  0  0  0  0  0  0  0
  2  1  1  1
  3  2  1  0
  3  4  1  0
  4  5  1  0
  5  9  1  0
  5  6  2  0
  7  8  2  0
  7  2  1  0
 10  7  1  0
 11 12  1  0
 11 10  1  0
 12 14  1  0
 13 12  2  0
 14 15  1  0
 14 18  1  0
 15 16  1  0
 16 17  1  0
 18 19  1  6
 18 17  1  0
 19 21  1  0
 20 19  2  0
M  END
$$$$
