EGP.pdb
     RDKit          3D

 21 21  0  0  1  0  0  0  0  0999 V2000
   17.2648  -12.9711  -18.3232 N   0  0  0  0  0  0  0  0  0  0  0  0
   17.4726  -13.5267  -16.9881 C   0  0  1  0  0  0  0  0  0  0  0  0
   17.5249  -15.0346  -17.0578 C   0  0  0  0  0  0  0  0  0  0  0  0
   16.1287  -15.6094  -17.1681 C   0  0  0  0  0  0  0  0  0  0  0  0
   15.5989  -15.8100  -15.7915 C   0  0  0  0  0  0  0  0  0  0  0  0
   16.3901  -16.2227  -14.9009 O   0  0  0  0  0  0  0  0  0  0  0  0
   18.7119  -12.9533  -16.4042 C   0  0  0  0  0  0  0  0  0  0  0  0
   18.9943  -13.2833  -15.2034 O   0  0  0  0  0  0  0  0  0  0  0  0
   14.2757  -15.5621  -15.4657 O   0  0  0  0  0  0  0  0  0  0  0  0
   19.5601  -12.0748  -17.1291 N   0  0  0  0  0  0  0  0  0  0  0  0
   20.7812  -11.6201  -16.4971 C   0  0  0  0  0  0  0  0  0  0  0  0
   20.4631  -10.4479  -15.6574 C   0  0  0  0  0  0  0  0  0  0  0  0
   19.2667  -10.0249  -15.5622 O   0  0  0  0  0  0  0  0  0  0  0  0
   21.4757   -9.7828  -14.9545 N   0  0  0  0  0  0  0  0  0  0  0  0
   22.8729  -10.1170  -14.9324 C   0  0  0  0  0  0  0  0  0  0  0  0
   23.1256   -9.9935  -13.4150 C   0  0  0  0  0  0  0  0  0  0  0  0
   22.5247   -8.6302  -13.1734 C   0  0  0  0  0  0  0  0  0  0  0  0
   21.3336   -8.6211  -14.1106 C   0  0  1  0  0  0  0  0  0  0  0  0
   21.3975   -7.4227  -15.0185 C   0  0  0  0  0  0  0  0  0  0  0  0
   21.7823   -7.5050  -16.2102 O   0  0  0  0  0  0  0  0  0  0  0  0
   21.0294   -6.1621  -14.5735 O   0  0  0  0  0  0  0  0  0  0  0  0
  2  1  1  6
  3  2  1  0
  3  4  1  0
  4  5  1  0
  5  9  1  0
  5  6  2  0
  7  8  2  0
  7  2  1  0
 10  7  1  0
 11 12  1  0
 11 10  1  0
 12 14  1  0
 13 12  2  0
 14 15  1  0
 14 18  1  0
 15 16  1  0
 16 17  1  0
 18 19  1  6
 18 17  1  0
 19 21  1  0
 20 19  2  0
M  END
$$$$
