EGP.pdb
     RDKit          3D

 21 21  0  0  1  0  0  0  0  0999 V2000
   26.2709  -17.1043  -18.6382 N   0  0  0  0  0  0  0  0  0  0  0  0
   25.6342  -18.2435  -17.9815 C   0  0  1  0  0  0  0  0  0  0  0  0
   25.1818  -19.2491  -19.0138 C   0  0  0  0  0  0  0  0  0  0  0  0
   23.6772  -19.2039  -19.1748 C   0  0  0  0  0  0  0  0  0  0  0  0
   23.2751  -17.7863  -19.3863 C   0  0  0  0  0  0  0  0  0  0  0  0
   22.7849  -17.1526  -18.4129 O   0  0  0  0  0  0  0  0  0  0  0  0
   26.5795  -18.8380  -17.0024 C   0  0  0  0  0  0  0  0  0  0  0  0
   27.4273  -19.6804  -17.4521 O   0  0  0  0  0  0  0  0  0  0  0  0
   23.4194  -17.1519  -20.6090 O   0  0  0  0  0  0  0  0  0  0  0  0
   26.5601  -18.5008  -15.6231 N   0  0  0  0  0  0  0  0  0  0  0  0
   27.5802  -19.0635  -14.7628 C   0  0  0  0  0  0  0  0  0  0  0  0
   26.9803  -20.1693  -13.9898 C   0  0  0  0  0  0  0  0  0  0  0  0
   26.0470  -20.8764  -14.4882 O   0  0  0  0  0  0  0  0  0  0  0  0
   27.4295  -20.4547  -12.6941 N   0  0  0  0  0  0  0  0  0  0  0  0
   28.5306  -19.8378  -12.0076 C   0  0  0  0  0  0  0  0  0  0  0  0
   29.1970  -21.1060  -11.4338 C   0  0  0  0  0  0  0  0  0  0  0  0
   27.9915  -21.7536  -10.7972 C   0  0  0  0  0  0  0  0  0  0  0  0
   26.8810  -21.4211  -11.7737 C   0  0  1  0  0  0  0  0  0  0  0  0
   25.7492  -20.7349  -11.0576 C   0  0  0  0  0  0  0  0  0  0  0  0
   25.6743  -19.4855  -10.9655 O   0  0  0  0  0  0  0  0  0  0  0  0
   24.7285  -21.4608  -10.4627 O   0  0  0  0  0  0  0  0  0  0  0  0
  2  1  1  6
  3  2  1  0
  3  4  1  0
  4  5  1  0
  5  9  1  0
  5  6  2  0
  7  8  2  0
  7  2  1  0
 10  7  1  0
 11 12  1  0
 11 10  1  0
 12 14  1  0
 13 12  2  0
 14 15  1  0
 14 18  1  0
 15 16  1  0
 16 17  1  0
 18 19  1  1
 18 17  1  0
 19 21  1  0
 20 19  2  0
M  END
$$$$
