EGP.pdb
     RDKit          3D

 21 21  0  0  1  0  0  0  0  0999 V2000
   23.2091  -20.3723   -9.9143 N   0  0  0  0  0  0  0  0  0  0  0  0
   24.4551  -20.5454  -10.6572 C   0  0  1  0  0  0  0  0  0  0  0  0
   24.3943  -19.7759  -11.9555 C   0  0  0  0  0  0  0  0  0  0  0  0
   23.8178  -20.6391  -13.0574 C   0  0  0  0  0  0  0  0  0  0  0  0
   22.3951  -20.9260  -12.7265 C   0  0  0  0  0  0  0  0  0  0  0  0
   22.0995  -22.0776  -12.3070 O   0  0  0  0  0  0  0  0  0  0  0  0
   25.5967  -20.1170   -9.8093 C   0  0  0  0  0  0  0  0  0  0  0  0
   25.4890  -18.9910   -9.2166 O   0  0  0  0  0  0  0  0  0  0  0  0
   21.3976  -19.9756  -12.8679 O   0  0  0  0  0  0  0  0  0  0  0  0
   26.7661  -20.9068   -9.6500 N   0  0  0  0  0  0  0  0  0  0  0  0
   27.8296  -20.3994   -8.8080 C   0  0  0  0  0  0  0  0  0  0  0  0
   27.4627  -20.6394   -7.3981 C   0  0  0  0  0  0  0  0  0  0  0  0
   26.3809  -21.2415   -7.1037 O   0  0  0  0  0  0  0  0  0  0  0  0
   28.3007  -20.2052   -6.3630 N   0  0  0  0  0  0  0  0  0  0  0  0
   29.5616  -19.5302   -6.4999 C   0  0  0  0  0  0  0  0  0  0  0  0
   30.3782  -20.3345   -5.4665 C   0  0  0  0  0  0  0  0  0  0  0  0
   29.4385  -20.2511   -4.2883 C   0  0  0  0  0  0  0  0  0  0  0  0
   28.0747  -20.3372   -4.9441 C   0  0  1  0  0  0  0  0  0  0  0  0
   27.2276  -19.1627   -4.5350 C   0  0  0  0  0  0  0  0  0  0  0  0
   27.1388  -18.1248   -5.2350 O   0  0  0  0  0  0  0  0  0  0  0  0
   26.5001  -19.1763   -3.3547 O   0  0  0  0  0  0  0  0  0  0  0  0
  2  1  1  1
  3  2  1  0
  3  4  1  0
  4  5  1  0
  5  9  1  0
  5  6  2  0
  7  8  2  0
  7  2  1  0
 10  7  1  0
 11 12  1  0
 11 10  1  0
 12 14  1  0
 13 12  2  0
 14 15  1  0
 14 18  1  0
 15 16  1  0
 16 17  1  0
 18 19  1  1
 18 17  1  0
 19 21  1  0
 20 19  2  0
M  END
$$$$
