EGP.pdb
     RDKit          3D

 21 21  0  0  1  0  0  0  0  0999 V2000
   18.0799  -22.1526  -14.2670 N   0  0  0  0  0  0  0  0  0  0  0  0
   18.0571  -20.8906  -13.5314 C   0  0  1  0  0  0  0  0  0  0  0  0
   16.7453  -20.1793  -13.7652 C   0  0  0  0  0  0  0  0  0  0  0  0
   15.5839  -21.0606  -13.3576 C   0  0  0  0  0  0  0  0  0  0  0  0
   14.3204  -20.3463  -13.6885 C   0  0  0  0  0  0  0  0  0  0  0  0
   13.7487  -20.6173  -14.7790 O   0  0  0  0  0  0  0  0  0  0  0  0
   18.2965  -21.1572  -12.0901 C   0  0  0  0  0  0  0  0  0  0  0  0
   18.2733  -20.1523  -11.3024 O   0  0  0  0  0  0  0  0  0  0  0  0
   13.7630  -19.4010  -12.8435 O   0  0  0  0  0  0  0  0  0  0  0  0
   18.5430  -22.4621  -11.5871 N   0  0  0  0  0  0  0  0  0  0  0  0
   18.5724  -22.6521  -10.1517 C   0  0  0  0  0  0  0  0  0  0  0  0
   18.0817  -24.0119   -9.8512 C   0  0  0  0  0  0  0  0  0  0  0  0
   17.7946  -24.8195  -10.7918 O   0  0  0  0  0  0  0  0  0  0  0  0
   17.9232  -24.4320   -8.5244 N   0  0  0  0  0  0  0  0  0  0  0  0
   18.2072  -23.6712   -7.3392 C   0  0  0  0  0  0  0  0  0  0  0  0
   18.9571  -24.7529   -6.5333 C   0  0  0  0  0  0  0  0  0  0  0  0
   17.9673  -25.8856   -6.6573 C   0  0  0  0  0  0  0  0  0  0  0  0
   17.4370  -25.7110   -8.0664 C   0  0  1  0  0  0  0  0  0  0  0  0
   15.9354  -25.6156   -8.0471 C   0  0  0  0  0  0  0  0  0  0  0  0
   15.3348  -24.5152   -7.9889 O   0  0  0  0  0  0  0  0  0  0  0  0
   15.1414  -26.7514   -8.0942 O   0  0  0  0  0  0  0  0  0  0  0  0
  2  1  1  6
  3  2  1  0
  3  4  1  0
  4  5  1  0
  5  9  1  0
  5  6  2  0
  7  8  2  0
  7  2  1  0
 10  7  1  0
 11 12  1  0
 11 10  1  0
 12 14  1  0
 13 12  2  0
 14 15  1  0
 14 18  1  0
 15 16  1  0
 16 17  1  0
 18 19  1  1
 18 17  1  0
 19 21  1  0
 20 19  2  0
M  END
$$$$
