EGP.pdb
     RDKit          3D

 21 21  0  0  1  0  0  0  0  0999 V2000
   19.0805   -6.3475  -12.1385 N   0  0  0  0  0  0  0  0  0  0  0  0
   17.9708   -5.3987  -12.1893 C   0  0  1  0  0  0  0  0  0  0  0  0
   17.2282   -5.5409  -13.4968 C   0  0  0  0  0  0  0  0  0  0  0  0
   16.6656   -6.9392  -13.6381 C   0  0  0  0  0  0  0  0  0  0  0  0
   15.3305   -6.8392  -14.2889 C   0  0  0  0  0  0  0  0  0  0  0  0
   15.2810   -6.7971  -15.5480 O   0  0  0  0  0  0  0  0  0  0  0  0
   17.0833   -5.6169  -11.0186 C   0  0  0  0  0  0  0  0  0  0  0  0
   16.0909   -4.8242  -10.8870 O   0  0  0  0  0  0  0  0  0  0  0  0
   14.1546   -6.7885  -13.5588 O   0  0  0  0  0  0  0  0  0  0  0  0
   17.3085   -6.6533  -10.0743 N   0  0  0  0  0  0  0  0  0  0  0  0
   16.2892   -6.9099   -9.0781 C   0  0  0  0  0  0  0  0  0  0  0  0
   15.5088   -8.0893   -9.5024 C   0  0  0  0  0  0  0  0  0  0  0  0
   16.0246   -8.9666  -10.2664 O   0  0  0  0  0  0  0  0  0  0  0  0
   14.1870   -8.2584   -9.0708 N   0  0  0  0  0  0  0  0  0  0  0  0
   13.4150   -7.3424   -8.2776 C   0  0  0  0  0  0  0  0  0  0  0  0
   12.8082   -8.3458   -7.2742 C   0  0  0  0  0  0  0  0  0  0  0  0
   12.2686   -9.3699   -8.2429 C   0  0  0  0  0  0  0  0  0  0  0  0
   13.3200   -9.3811   -9.3346 C   0  0  1  0  0  0  0  0  0  0  0  0
   12.6810   -9.1229  -10.6723 C   0  0  0  0  0  0  0  0  0  0  0  0
   12.6342   -7.9771  -11.1822 O   0  0  0  0  0  0  0  0  0  0  0  0
   12.1108  -10.1506  -11.4080 O   0  0  0  0  0  0  0  0  0  0  0  0
  2  1  1  6
  3  2  1  0
  3  4  1  0
  4  5  1  0
  5  9  1  0
  5  6  2  0
  7  8  2  0
  7  2  1  0
 10  7  1  0
 11 12  1  0
 11 10  1  0
 12 14  1  0
 13 12  2  0
 14 15  1  0
 14 18  1  0
 15 16  1  0
 16 17  1  0
 18 19  1  6
 18 17  1  0
 19 21  1  0
 20 19  2  0
M  END
$$$$
