EGP.pdb
     RDKit          3D

 21 21  0  0  1  0  0  0  0  0999 V2000
   25.6011  -22.3205  -11.3290 N   0  0  0  0  0  0  0  0  0  0  0  0
   25.9300  -20.9659  -11.7662 C   0  0  1  0  0  0  0  0  0  0  0  0
   24.7837  -20.3862  -12.5608 C   0  0  0  0  0  0  0  0  0  0  0  0
   23.9915  -21.4886  -13.2308 C   0  0  0  0  0  0  0  0  0  0  0  0
   24.0009  -21.2411  -14.6987 C   0  0  0  0  0  0  0  0  0  0  0  0
   23.6117  -22.1652  -15.4630 O   0  0  0  0  0  0  0  0  0  0  0  0
   26.2629  -20.1341  -10.5817 C   0  0  0  0  0  0  0  0  0  0  0  0
   26.8534  -19.0231  -10.8002 O   0  0  0  0  0  0  0  0  0  0  0  0
   24.4233  -20.0395  -15.2427 O   0  0  0  0  0  0  0  0  0  0  0  0
   25.9491  -20.5355   -9.2562 N   0  0  0  0  0  0  0  0  0  0  0  0
   26.3400  -19.6685   -8.1640 C   0  0  0  0  0  0  0  0  0  0  0  0
   27.3677  -20.3626   -7.3625 C   0  0  0  0  0  0  0  0  0  0  0  0
   27.7527  -21.5340   -7.6773 O   0  0  0  0  0  0  0  0  0  0  0  0
   27.9327  -19.7411   -6.2416 N   0  0  0  0  0  0  0  0  0  0  0  0
   27.7477  -18.3783   -5.8263 C   0  0  0  0  0  0  0  0  0  0  0  0
   29.2157  -18.0218   -5.5107 C   0  0  0  0  0  0  0  0  0  0  0  0
   29.5698  -19.1905   -4.6236 C   0  0  0  0  0  0  0  0  0  0  0  0
   28.8128  -20.3362   -5.2652 C   0  0  1  0  0  0  0  0  0  0  0  0
   27.9308  -21.0088   -4.2483 C   0  0  0  0  0  0  0  0  0  0  0  0
   28.3931  -21.7452   -3.3433 O   0  0  0  0  0  0  0  0  0  0  0  0
   26.5544  -20.8419   -4.2666 O   0  0  0  0  0  0  0  0  0  0  0  0
  2  1  1  1
  3  2  1  0
  3  4  1  0
  4  5  1  0
  5  9  1  0
  5  6  2  0
  7  8  2  0
  7  2  1  0
 10  7  1  0
 11 12  1  0
 11 10  1  0
 12 14  1  0
 13 12  2  0
 14 15  1  0
 14 18  1  0
 15 16  1  0
 16 17  1  0
 18 19  1  1
 18 17  1  0
 19 21  1  0
 20 19  2  0
M  END
$$$$
