EGP.pdb
     RDKit          3D

 21 21  0  0  1  0  0  0  0  0999 V2000
   26.8281  -19.7942  -16.6751 N   0  0  0  0  0  0  0  0  0  0  0  0
   25.6505  -19.1389  -16.1112 C   0  0  1  0  0  0  0  0  0  0  0  0
   24.4111  -19.9430  -16.4251 C   0  0  0  0  0  0  0  0  0  0  0  0
   24.6094  -20.7519  -17.6892 C   0  0  0  0  0  0  0  0  0  0  0  0
   24.4895  -19.8317  -18.8532 C   0  0  0  0  0  0  0  0  0  0  0  0
   25.4630  -19.7457  -19.6497 O   0  0  0  0  0  0  0  0  0  0  0  0
   25.8411  -18.9579  -14.6495 C   0  0  0  0  0  0  0  0  0  0  0  0
   24.8618  -18.4675  -13.9929 O   0  0  0  0  0  0  0  0  0  0  0  0
   23.3532  -19.0735  -19.0817 O   0  0  0  0  0  0  0  0  0  0  0  0
   27.0492  -19.3066  -13.9896 N   0  0  0  0  0  0  0  0  0  0  0  0
   27.1562  -19.0488  -12.5685 C   0  0  0  0  0  0  0  0  0  0  0  0
   26.5583  -20.1866  -11.8419 C   0  0  0  0  0  0  0  0  0  0  0  0
   26.2255  -21.2475  -12.4608 O   0  0  0  0  0  0  0  0  0  0  0  0
   26.3469  -20.1132  -10.4592 N   0  0  0  0  0  0  0  0  0  0  0  0
   26.6032  -18.9860   -9.6061 C   0  0  0  0  0  0  0  0  0  0  0  0
   27.3058  -19.7189   -8.4439 C   0  0  0  0  0  0  0  0  0  0  0  0
   26.3012  -20.8187   -8.2006 C   0  0  0  0  0  0  0  0  0  0  0  0
   25.8229  -21.1478   -9.6007 C   0  0  1  0  0  0  0  0  0  0  0  0
   24.3234  -21.0454   -9.6737 C   0  0  0  0  0  0  0  0  0  0  0  0
   23.7441  -20.0740  -10.2178 O   0  0  0  0  0  0  0  0  0  0  0  0
   23.5077  -22.0305   -9.1382 O   0  0  0  0  0  0  0  0  0  0  0  0
  2  1  1  1
  3  2  1  0
  3  4  1  0
  4  5  1  0
  5  9  1  0
  5  6  2  0
  7  8  2  0
  7  2  1  0
 10  7  1  0
 11 12  1  0
 11 10  1  0
 12 14  1  0
 13 12  2  0
 14 15  1  0
 14 18  1  0
 15 16  1  0
 16 17  1  0
 18 19  1  1
 18 17  1  0
 19 21  1  0
 20 19  2  0
M  END
$$$$
