ALA.pdb
     RDKit          3D

 19 18  0  0  1  0  0  0  0  0999 V2000
    9.8333  -19.3359   18.6014 C   0  0  0  0  0  0  0  0  0  0  0  0
    9.7992  -18.0116   17.9044 C   0  0  2  0  0  0  0  0  0  0  0  0
   10.7343  -18.0179   16.7974 N   0  0  0  0  0  0  0  0  0  0  0  0
   10.1948  -16.8828   18.8061 C   0  0  0  0  0  0  0  0  0  0  0  0
   11.3569  -16.4260   18.8384 O   0  0  0  0  0  0  0  0  0  0  0  0
    8.9168  -12.6032   19.3817 C   0  0  0  0  0  0  0  0  0  0  0  0
    7.9055  -13.6352   19.7858 C   0  0  2  0  0  0  0  0  0  0  0  0
    6.6015  -12.9407   20.0548 C   0  0  0  0  0  0  0  0  0  0  0  0
    8.3261  -14.4492   20.9834 C   0  0  0  0  0  0  0  0  0  0  0  0
    9.5447  -15.3039   20.6482 C   0  0  2  0  0  0  0  0  0  0  0  0
    9.2215  -16.3071   19.6562 N   0  0  0  0  0  0  0  0  0  0  0  0
   10.1233  -15.9064   21.8766 C   0  0  0  0  0  0  0  0  0  0  0  0
   10.5166  -15.1710   22.8188 O   0  0  0  0  0  0  0  0  0  0  0  0
   10.3427  -19.2746   23.4578 C   0  0  0  0  0  0  0  0  0  0  0  0
   10.8849  -17.8849   23.2044 C   0  0  2  0  0  0  0  0  0  0  0  0
   10.2594  -17.3105   22.0471 N   0  0  0  0  0  0  0  0  0  0  0  0
   12.3556  -17.9725   23.0843 C   0  0  0  0  0  0  0  0  0  0  0  0
   12.9543  -17.6514   22.0352 O   0  0  0  0  0  0  0  0  0  0  0  0
   13.0984  -18.4210   24.1567 O   0  0  0  0  0  0  0  0  0  0  0  0
  2  3  1  0
  2  1  1  1
  4  5  2  0
  4  2  1  0
  7  6  1  1
  7  8  1  0
  7  9  1  0
 10  9  1  1
 10 11  1  0
 10 12  1  0
 11  4  1  0
 12 13  2  0
 15 14  1  6
 16 12  1  0
 16 15  1  0
 17 19  1  0
 17 15  1  0
 18 17  2  0
M  END
$$$$
