ALA.pdb
     RDKit          3D

 19 18  0  0  1  0  0  0  0  0999 V2000
    7.4913  -12.8994   20.3267 C   0  0  0  0  0  0  0  0  0  0  0  0
    7.7447  -14.2351   20.9529 C   0  0  2  0  0  0  0  0  0  0  0  0
    6.4925  -14.9485   21.1058 N   0  0  0  0  0  0  0  0  0  0  0  0
    8.3523  -14.1189   22.3171 C   0  0  0  0  0  0  0  0  0  0  0  0
    9.5291  -13.7406   22.4971 O   0  0  0  0  0  0  0  0  0  0  0  0
    7.6854  -11.6679   26.2081 C   0  0  0  0  0  0  0  0  0  0  0  0
    6.5738  -12.5629   25.7452 C   0  0  2  0  0  0  0  0  0  0  0  0
    5.3657  -12.2969   26.5965 C   0  0  0  0  0  0  0  0  0  0  0  0
    6.9306  -14.0276   25.7793 C   0  0  0  0  0  0  0  0  0  0  0  0
    8.0655  -14.3247   24.8039 C   0  0  2  0  0  0  0  0  0  0  0  0
    7.5706  -14.4479   23.4493 N   0  0  0  0  0  0  0  0  0  0  0  0
    8.8261  -15.5286   25.2270 C   0  0  0  0  0  0  0  0  0  0  0  0
    9.1874  -15.6618   26.4249 O   0  0  0  0  0  0  0  0  0  0  0  0
    9.7219  -18.8350   23.6793 C   0  0  0  0  0  0  0  0  0  0  0  0
    9.8194  -17.7755   24.7552 C   0  0  2  0  0  0  0  0  0  0  0  0
    9.1766  -16.5670   24.3226 N   0  0  0  0  0  0  0  0  0  0  0  0
   11.2455  -17.5837   25.0934 C   0  0  0  0  0  0  0  0  0  0  0  0
   11.9151  -18.4703   25.6661 O   0  0  0  0  0  0  0  0  0  0  0  0
   11.8651  -16.3939   24.7714 O   0  0  0  0  0  0  0  0  0  0  0  0
  2  3  1  0
  2  1  1  1
  4  5  2  0
  4  2  1  0
  7  6  1  1
  7  8  1  0
  7  9  1  0
 10  9  1  1
 10 11  1  0
 10 12  1  0
 11  4  1  0
 12 13  2  0
 15 14  1  6
 16 12  1  0
 16 15  1  0
 17 19  1  0
 17 15  1  0
 18 17  2  0
M  END
$$$$
