ALA.pdb
     RDKit          3D

 19 18  0  0  1  0  0  0  0  0999 V2000
    6.6597  -16.4090   21.5641 C   0  0  0  0  0  0  0  0  0  0  0  0
    7.2138  -15.0255   21.7033 C   0  0  2  0  0  0  0  0  0  0  0  0
    8.1638  -14.7704   20.6390 N   0  0  0  0  0  0  0  0  0  0  0  0
    7.9427  -14.8311   22.9974 C   0  0  0  0  0  0  0  0  0  0  0  0
    9.1789  -14.9779   23.0994 O   0  0  0  0  0  0  0  0  0  0  0  0
    7.7950  -11.1680   25.5342 C   0  0  0  0  0  0  0  0  0  0  0  0
    6.5973  -12.0551   25.7059 C   0  0  2  0  0  0  0  0  0  0  0  0
    5.5783  -11.3212   26.5294 C   0  0  0  0  0  0  0  0  0  0  0  0
    6.9233  -13.3864   26.3346 C   0  0  0  0  0  0  0  0  0  0  0  0
    7.8426  -14.1965   25.4256 C   0  0  2  0  0  0  0  0  0  0  0  0
    7.2106  -14.4675   24.1520 N   0  0  0  0  0  0  0  0  0  0  0  0
    8.2885  -15.4435   26.0987 C   0  0  0  0  0  0  0  0  0  0  0  0
    8.8495  -15.3910   27.2237 O   0  0  0  0  0  0  0  0  0  0  0  0
    7.9923  -19.1460   25.5220 C   0  0  0  0  0  0  0  0  0  0  0  0
    8.6493  -17.9188   26.1153 C   0  0  2  0  0  0  0  0  0  0  0  0
    8.1089  -16.7292   25.5208 N   0  0  0  0  0  0  0  0  0  0  0  0
   10.1117  -18.0413   25.9392 C   0  0  0  0  0  0  0  0  0  0  0  0
   10.7609  -17.2487   25.2231 O   0  0  0  0  0  0  0  0  0  0  0  0
   10.7896  -19.0575   26.5802 O   0  0  0  0  0  0  0  0  0  0  0  0
  2  3  1  0
  2  1  1  6
  4  5  2  0
  4  2  1  0
  7  6  1  1
  7  8  1  0
  7  9  1  0
 10  9  1  1
 10 11  1  0
 10 12  1  0
 11  4  1  0
 12 13  2  0
 15 14  1  6
 16 12  1  0
 16 15  1  0
 17 19  1  0
 17 15  1  0
 18 17  2  0
M  END
$$$$
