ALA.pdb
     RDKit          3D

 19 18  0  0  1  0  0  0  0  0999 V2000
    7.3671  -14.0334   20.7010 C   0  0  0  0  0  0  0  0  0  0  0  0
    7.5643  -15.1730   21.6512 C   0  0  2  0  0  0  0  0  0  0  0  0
    6.2781  -15.7284   22.0217 N   0  0  0  0  0  0  0  0  0  0  0  0
    8.2397  -14.7476   22.9187 C   0  0  0  0  0  0  0  0  0  0  0  0
    9.4344  -14.3847   22.9529 O   0  0  0  0  0  0  0  0  0  0  0  0
    7.5597  -11.3704   25.5339 C   0  0  0  0  0  0  0  0  0  0  0  0
    6.5126  -12.4362   25.6701 C   0  0  2  0  0  0  0  0  0  0  0  0
    5.3739  -11.8814   26.4767 C   0  0  0  0  0  0  0  0  0  0  0  0
    7.0299  -13.7079   26.2938 C   0  0  0  0  0  0  0  0  0  0  0  0
    8.0777  -14.3570   25.3947 C   0  0  2  0  0  0  0  0  0  0  0  0
    7.5036  -14.7543   24.1268 N   0  0  0  0  0  0  0  0  0  0  0  0
    8.7362  -15.4957   26.0851 C   0  0  0  0  0  0  0  0  0  0  0  0
    9.2561  -15.3343   27.2196 O   0  0  0  0  0  0  0  0  0  0  0  0
    8.9399  -19.2091   25.6060 C   0  0  0  0  0  0  0  0  0  0  0  0
    9.4114  -17.9014   26.2036 C   0  0  2  0  0  0  0  0  0  0  0  0
    8.8114  -16.7946   25.5140 N   0  0  0  0  0  0  0  0  0  0  0  0
   10.8888  -17.8762   26.1640 C   0  0  0  0  0  0  0  0  0  0  0  0
   11.5186  -17.0356   25.4864 O   0  0  0  0  0  0  0  0  0  0  0  0
   11.6031  -18.8041   26.8934 O   0  0  0  0  0  0  0  0  0  0  0  0
  2  3  1  0
  2  1  1  6
  4  5  2  0
  4  2  1  0
  7  6  1  1
  7  8  1  0
  7  9  1  0
 10  9  1  1
 10 11  1  0
 10 12  1  0
 11  4  1  0
 12 13  2  0
 15 14  1  6
 16 12  1  0
 16 15  1  0
 17 19  1  0
 17 15  1  0
 18 17  2  0
M  END
$$$$
