ALA.pdb
     RDKit          3D

 19 18  0  0  1  0  0  0  0  0999 V2000
    7.5663  -14.4345   20.3657 C   0  0  0  0  0  0  0  0  0  0  0  0
    7.9497  -15.4681   21.3783 C   0  0  2  0  0  0  0  0  0  0  0  0
    6.7915  -16.2685   21.7220 N   0  0  0  0  0  0  0  0  0  0  0  0
    8.4553  -14.8597   22.6502 C   0  0  0  0  0  0  0  0  0  0  0  0
    9.5637  -14.2888   22.7264 O   0  0  0  0  0  0  0  0  0  0  0  0
    6.1932  -11.8075   27.1436 C   0  0  0  0  0  0  0  0  0  0  0  0
    7.1673  -12.3949   26.1653 C   0  0  2  0  0  0  0  0  0  0  0  0
    7.0818  -11.6147   24.8850 C   0  0  0  0  0  0  0  0  0  0  0  0
    6.9421  -13.8629   25.9041 C   0  0  0  0  0  0  0  0  0  0  0  0
    8.1011  -14.4477   25.1026 C   0  0  2  0  0  0  0  0  0  0  0  0
    7.6532  -14.9300   23.8135 N   0  0  0  0  0  0  0  0  0  0  0  0
    8.8004  -15.5052   25.8768 C   0  0  0  0  0  0  0  0  0  0  0  0
    9.2185  -15.2680   27.0396 O   0  0  0  0  0  0  0  0  0  0  0  0
    9.0064  -19.1934   25.7611 C   0  0  0  0  0  0  0  0  0  0  0  0
    9.6049  -17.8583   26.1469 C   0  0  2  0  0  0  0  0  0  0  0  0
    9.0279  -16.8079   25.3569 N   0  0  0  0  0  0  0  0  0  0  0  0
   11.0737  -17.9477   26.0074 C   0  0  0  0  0  0  0  0  0  0  0  0
   11.7589  -18.7259   26.7055 O   0  0  0  0  0  0  0  0  0  0  0  0
   11.7170  -17.1524   25.0818 O   0  0  0  0  0  0  0  0  0  0  0  0
  2  3  1  0
  2  1  1  6
  4  5  2  0
  4  2  1  0
  7  6  1  1
  7  8  1  0
  7  9  1  0
 10  9  1  1
 10 11  1  0
 10 12  1  0
 11  4  1  0
 12 13  2  0
 15 14  1  6
 16 12  1  0
 16 15  1  0
 17 19  1  0
 17 15  1  0
 18 17  2  0
M  END
$$$$
