NDG.pdb
     RDKit          3D

 21 20  0  0  1  0  0  0  0  0999 V2000
    6.7988  -11.9716   17.6600 N   0  0  0  0  0  0  0  0  0  0  0  0
    7.3578  -13.2921   17.4838 C   0  0  0  0  0  0  0  0  0  0  0  0
    7.3519  -13.7092   16.3114 O   0  0  0  0  0  0  0  0  0  0  0  0
    7.8793  -14.0524   18.6051 C   0  0  0  0  0  0  0  0  0  0  0  0
    9.3309  -13.8014   18.9650 C   0  0  2  0  0  0  0  0  0  0  0  0
   10.0726  -14.3677   17.7970 N   0  0  0  0  0  0  0  0  0  0  0  0
    9.6807  -14.6893   20.1002 C   0  0  0  0  0  0  0  0  0  0  0  0
    9.0910  -14.4634   21.2078 O   0  0  0  0  0  0  0  0  0  0  0  0
   10.5843  -15.7538   20.0969 N   0  0  0  0  0  0  0  0  0  0  0  0
   10.9728  -16.4055   21.3545 C   0  0  1  0  0  0  0  0  0  0  0  0
   11.0155  -17.8871   21.2421 C   0  0  0  0  0  0  0  0  0  0  0  0
    9.7773  -18.4978   20.7487 C   0  0  0  0  0  0  0  0  0  0  0  0
    8.6489  -18.3962   21.2449 O   0  0  0  0  0  0  0  0  0  0  0  0
   12.2703  -15.8599   21.8220 C   0  0  0  0  0  0  0  0  0  0  0  0
   12.7977  -16.1886   22.9133 O   0  0  0  0  0  0  0  0  0  0  0  0
    9.8871  -19.2838   19.5854 O   0  0  0  0  0  0  0  0  0  0  0  0
   12.9488  -14.9219   20.9977 N   0  0  0  0  0  0  0  0  0  0  0  0
   14.1543  -14.2419   21.4019 C   0  0  0  0  0  0  0  0  0  0  0  0
   15.2699  -14.7191   20.5544 C   0  0  0  0  0  0  0  0  0  0  0  0
   15.0766  -15.6733   19.7657 O   0  0  0  0  0  0  0  0  0  0  0  0
   16.5364  -14.1444   20.6000 O   0  0  0  0  0  0  0  0  0  0  0  0
  2  1  1  0
  3  2  2  0
  4  2  1  0
  5  4  1  0
  5  6  1  6
  7  5  1  0
  7  9  1  0
  8  7  2  0
 10  9  1  0
 10 14  1  0
 10 11  1  6
 12 11  1  0
 12 13  2  0
 14 15  2  0
 14 17  1  0
 16 12  1  0
 17 18  1  0
 18 19  1  0
 19 21  1  0
 20 19  2  0
M  END
$$$$
