NDG.pdb
     RDKit          3D

 21 20  0  0  1  0  0  0  0  0999 V2000
    8.6923  -15.0441   13.4863 N   0  0  0  0  0  0  0  0  0  0  0  0
    7.5470  -15.1190   14.3638 C   0  0  0  0  0  0  0  0  0  0  0  0
    6.4803  -15.4309   13.8042 O   0  0  0  0  0  0  0  0  0  0  0  0
    7.6597  -14.8465   15.7853 C   0  0  0  0  0  0  0  0  0  0  0  0
    9.0053  -14.3357   16.2630 C   0  0  2  0  0  0  0  0  0  0  0  0
    9.9727  -15.0377   15.3650 N   0  0  0  0  0  0  0  0  0  0  0  0
    9.2589  -14.9050   17.6088 C   0  0  0  0  0  0  0  0  0  0  0  0
    8.5046  -14.5007   18.5539 O   0  0  0  0  0  0  0  0  0  0  0  0
   10.2319  -15.8414   17.9638 N   0  0  0  0  0  0  0  0  0  0  0  0
   10.3944  -16.2528   19.3643 C   0  0  1  0  0  0  0  0  0  0  0  0
   10.5341  -17.7249   19.5159 C   0  0  0  0  0  0  0  0  0  0  0  0
    9.2741  -18.4696   19.4312 C   0  0  0  0  0  0  0  0  0  0  0  0
    8.4603  -18.4509   18.5000 O   0  0  0  0  0  0  0  0  0  0  0  0
   11.5430  -15.5344   19.9680 C   0  0  0  0  0  0  0  0  0  0  0  0
   11.8812  -15.6718   21.1695 O   0  0  0  0  0  0  0  0  0  0  0  0
    8.9587  -19.2936   20.5289 O   0  0  0  0  0  0  0  0  0  0  0  0
   12.2963  -14.6497   19.1496 N   0  0  0  0  0  0  0  0  0  0  0  0
   13.4431  -13.9170   19.6257 C   0  0  0  0  0  0  0  0  0  0  0  0
   14.6557  -14.7283   19.3773 C   0  0  0  0  0  0  0  0  0  0  0  0
   14.5665  -15.9780   19.3679 O   0  0  0  0  0  0  0  0  0  0  0  0
   15.9022  -14.1522   19.1519 O   0  0  0  0  0  0  0  0  0  0  0  0
  2  1  1  0
  3  2  2  0
  4  2  1  0
  5  4  1  0
  5  6  1  6
  7  5  1  0
  7  9  1  0
  8  7  2  0
 10  9  1  0
 10 14  1  0
 10 11  1  6
 12 11  1  0
 12 13  2  0
 14 15  2  0
 14 17  1  0
 16 12  1  0
 17 18  1  0
 18 19  1  0
 19 21  1  0
 20 19  2  0
M  END
$$$$
