NDG.pdb
     RDKit          3D

 21 20  0  0  1  0  0  0  0  0999 V2000
    7.9575  -12.3408   17.1145 N   0  0  0  0  0  0  0  0  0  0  0  0
    7.7515  -13.7561   16.9100 C   0  0  0  0  0  0  0  0  0  0  0  0
    7.2366  -14.0562   15.8176 O   0  0  0  0  0  0  0  0  0  0  0  0
    8.1255  -14.7319   17.9177 C   0  0  0  0  0  0  0  0  0  0  0  0
    8.6631  -14.1736   19.2212 C   0  0  2  0  0  0  0  0  0  0  0  0
    9.8316  -13.3512   18.7815 N   0  0  0  0  0  0  0  0  0  0  0  0
    9.2584  -15.2949   19.9879 C   0  0  0  0  0  0  0  0  0  0  0  0
    8.4509  -16.1689   20.4458 O   0  0  0  0  0  0  0  0  0  0  0  0
   10.6099  -15.5087   20.2660 N   0  0  0  0  0  0  0  0  0  0  0  0
   11.0290  -16.6453   21.0966 C   0  0  1  0  0  0  0  0  0  0  0  0
   12.3178  -17.2361   20.6500 C   0  0  0  0  0  0  0  0  0  0  0  0
   12.2596  -17.9193   19.3541 C   0  0  0  0  0  0  0  0  0  0  0  0
   11.4383  -18.7736   19.0000 O   0  0  0  0  0  0  0  0  0  0  0  0
   11.0867  -16.2318   22.5198 C   0  0  0  0  0  0  0  0  0  0  0  0
   11.7812  -15.2671   22.9246 O   0  0  0  0  0  0  0  0  0  0  0  0
   13.2455  -17.5632   18.4136 O   0  0  0  0  0  0  0  0  0  0  0  0
   10.3209  -16.9603   23.4699 N   0  0  0  0  0  0  0  0  0  0  0  0
   10.1971  -16.5686   24.8519 C   0  0  0  0  0  0  0  0  0  0  0  0
   10.8520  -17.5959   25.6923 C   0  0  0  0  0  0  0  0  0  0  0  0
   11.4005  -18.5794   25.1431 O   0  0  0  0  0  0  0  0  0  0  0  0
   10.8824  -17.5114   27.0809 O   0  0  0  0  0  0  0  0  0  0  0  0
  2  1  1  0
  3  2  2  0
  4  2  1  0
  5  4  1  0
  5  6  1  6
  7  5  1  0
  7  9  1  0
  8  7  2  0
 10  9  1  0
 10 14  1  0
 10 11  1  6
 12 11  1  0
 12 13  2  0
 14 15  2  0
 14 17  1  0
 16 12  1  0
 17 18  1  0
 18 19  1  0
 19 21  1  0
 20 19  2  0
M  END
$$$$
