NDG.pdb
     RDKit          3D

 21 20  0  0  1  0  0  0  0  0999 V2000
    7.8404  -13.3333   14.5326 N   0  0  0  0  0  0  0  0  0  0  0  0
    8.3896  -14.5828   15.0061 C   0  0  0  0  0  0  0  0  0  0  0  0
    8.8038  -15.3430   14.1123 O   0  0  0  0  0  0  0  0  0  0  0  0
    8.4422  -14.9020   16.4213 C   0  0  0  0  0  0  0  0  0  0  0  0
    8.5433  -16.3742   16.7709 C   0  0  2  0  0  0  0  0  0  0  0  0
    7.1367  -16.8567   16.6166 N   0  0  0  0  0  0  0  0  0  0  0  0
    8.8214  -16.4812   18.2237 C   0  0  0  0  0  0  0  0  0  0  0  0
    7.9859  -15.9250   19.0100 O   0  0  0  0  0  0  0  0  0  0  0  0
    9.8971  -17.1276   18.8358 N   0  0  0  0  0  0  0  0  0  0  0  0
   10.0094  -17.1640   20.2998 C   0  0  1  0  0  0  0  0  0  0  0  0
    9.5505  -18.4545   20.8772 C   0  0  0  0  0  0  0  0  0  0  0  0
    9.7174  -18.5672   22.3294 C   0  0  0  0  0  0  0  0  0  0  0  0
    9.5188  -17.6834   23.1716 O   0  0  0  0  0  0  0  0  0  0  0  0
   11.4027  -16.8546   20.7035 C   0  0  0  0  0  0  0  0  0  0  0  0
   12.4033  -17.4219   20.1995 O   0  0  0  0  0  0  0  0  0  0  0  0
   10.1503  -19.8162   22.8150 O   0  0  0  0  0  0  0  0  0  0  0  0
   11.6162  -15.8709   21.7068 N   0  0  0  0  0  0  0  0  0  0  0  0
   12.9209  -15.3610   22.0480 C   0  0  0  0  0  0  0  0  0  0  0  0
   13.5821  -16.3285   22.9520 C   0  0  0  0  0  0  0  0  0  0  0  0
   12.9793  -17.3787   23.2736 O   0  0  0  0  0  0  0  0  0  0  0  0
   14.8586  -16.1152   23.4635 O   0  0  0  0  0  0  0  0  0  0  0  0
  2  1  1  0
  3  2  2  0
  4  2  1  0
  5  4  1  0
  5  6  1  1
  7  5  1  0
  7  9  1  0
  8  7  2  0
 10  9  1  0
 10 14  1  0
 10 11  1  6
 12 11  1  0
 12 13  2  0
 14 15  2  0
 14 17  1  0
 16 12  1  0
 17 18  1  0
 18 19  1  0
 19 21  1  0
 20 19  2  0
M  END
$$$$
