NDG.pdb
     RDKit          3D

 21 20  0  0  1  0  0  0  0  0999 V2000
    7.2094  -12.5730   19.3429 N   0  0  0  0  0  0  0  0  0  0  0  0
    7.6135  -13.7116   18.5506 C   0  0  0  0  0  0  0  0  0  0  0  0
    7.1485  -13.7360   17.3967 O   0  0  0  0  0  0  0  0  0  0  0  0
    8.4951  -14.7342   19.0841 C   0  0  0  0  0  0  0  0  0  0  0  0
    9.3664  -15.4575   18.0754 C   0  0  2  0  0  0  0  0  0  0  0  0
    8.3950  -16.3402   17.3595 N   0  0  0  0  0  0  0  0  0  0  0  0
   10.2473  -16.3911   18.8184 C   0  0  0  0  0  0  0  0  0  0  0  0
    9.9631  -17.6316   18.7414 O   0  0  0  0  0  0  0  0  0  0  0  0
   11.3618  -16.0683   19.5952 N   0  0  0  0  0  0  0  0  0  0  0  0
   12.1678  -17.1264   20.2180 C   0  0  1  0  0  0  0  0  0  0  0  0
   13.6241  -16.8308   20.1855 C   0  0  0  0  0  0  0  0  0  0  0  0
   14.4735  -17.8834   20.7512 C   0  0  0  0  0  0  0  0  0  0  0  0
   14.4010  -19.0978   20.5278 O   0  0  0  0  0  0  0  0  0  0  0  0
   11.6946  -17.3677   21.6029 C   0  0  0  0  0  0  0  0  0  0  0  0
   12.0552  -18.3573   22.2867 O   0  0  0  0  0  0  0  0  0  0  0  0
   15.4786  -17.4646   21.6443 O   0  0  0  0  0  0  0  0  0  0  0  0
   10.7915  -16.4365   22.1836 N   0  0  0  0  0  0  0  0  0  0  0  0
   10.1209  -16.6644   23.4394 C   0  0  0  0  0  0  0  0  0  0  0  0
   11.0821  -16.4173   24.5373 C   0  0  0  0  0  0  0  0  0  0  0  0
   12.2853  -16.2014   24.2624 O   0  0  0  0  0  0  0  0  0  0  0  0
   10.6984  -16.4155   25.8749 O   0  0  0  0  0  0  0  0  0  0  0  0
  2  1  1  0
  3  2  2  0
  4  2  1  0
  5  4  1  0
  5  6  1  6
  7  5  1  0
  7  9  1  0
  8  7  2  0
 10  9  1  0
 10 14  1  0
 10 11  1  1
 12 11  1  0
 12 13  2  0
 14 15  2  0
 14 17  1  0
 16 12  1  0
 17 18  1  0
 18 19  1  0
 19 21  1  0
 20 19  2  0
M  END
$$$$
