NDG.pdb
     RDKit          3D

 21 20  0  0  1  0  0  0  0  0999 V2000
    6.3366  -13.2911   17.7958 N   0  0  0  0  0  0  0  0  0  0  0  0
    7.6537  -13.5269   18.3406 C   0  0  0  0  0  0  0  0  0  0  0  0
    8.2313  -14.5338   17.8925 O   0  0  0  0  0  0  0  0  0  0  0  0
    8.2351  -12.6416   19.3334 C   0  0  0  0  0  0  0  0  0  0  0  0
    9.6137  -13.0194   19.8399 C   0  0  2  0  0  0  0  0  0  0  0  0
   10.2686  -13.6095   18.6324 N   0  0  0  0  0  0  0  0  0  0  0  0
    9.4599  -14.1569   20.7791 C   0  0  0  0  0  0  0  0  0  0  0  0
    8.8276  -13.9251   21.8618 O   0  0  0  0  0  0  0  0  0  0  0  0
    9.9268  -15.4623   20.6135 N   0  0  0  0  0  0  0  0  0  0  0  0
    9.6898  -16.4756   21.6500 C   0  0  1  0  0  0  0  0  0  0  0  0
    9.2623  -17.7826   21.0857 C   0  0  0  0  0  0  0  0  0  0  0  0
    7.9870  -17.7478   20.3633 C   0  0  0  0  0  0  0  0  0  0  0  0
    6.8950  -17.3652   20.8003 O   0  0  0  0  0  0  0  0  0  0  0  0
   10.8996  -16.6202   22.4957 C   0  0  0  0  0  0  0  0  0  0  0  0
   10.9196  -17.3006   23.5510 O   0  0  0  0  0  0  0  0  0  0  0  0
    8.0103  -18.1990   19.0294 O   0  0  0  0  0  0  0  0  0  0  0  0
   12.0916  -15.9586   22.0942 N   0  0  0  0  0  0  0  0  0  0  0  0
   13.3195  -16.0168   22.8477 C   0  0  0  0  0  0  0  0  0  0  0  0
   14.3795  -15.3343   22.0726 C   0  0  0  0  0  0  0  0  0  0  0  0
   14.0955  -14.8188   20.9664 O   0  0  0  0  0  0  0  0  0  0  0  0
   15.6911  -15.2419   22.5283 O   0  0  0  0  0  0  0  0  0  0  0  0
  2  1  1  0
  3  2  2  0
  4  2  1  0
  5  4  1  0
  5  6  1  6
  7  5  1  0
  7  9  1  0
  8  7  2  0
 10  9  1  0
 10 14  1  0
 10 11  1  6
 12 11  1  0
 12 13  2  0
 14 15  2  0
 14 17  1  0
 16 12  1  0
 17 18  1  0
 18 19  1  0
 19 21  1  0
 20 19  2  0
M  END
$$$$
