NDG.pdb
     RDKit          3D

 21 20  0  0  1  0  0  0  0  0999 V2000
    6.2121  -12.9057   18.8699 N   0  0  0  0  0  0  0  0  0  0  0  0
    7.0192  -13.6913   17.9651 C   0  0  0  0  0  0  0  0  0  0  0  0
    6.6093  -13.7196   16.7906 O   0  0  0  0  0  0  0  0  0  0  0  0
    8.2120  -14.3842   18.4174 C   0  0  0  0  0  0  0  0  0  0  0  0
    9.3057  -13.5156   19.0082 C   0  0  2  0  0  0  0  0  0  0  0  0
    9.6799  -12.6209   17.8704 N   0  0  0  0  0  0  0  0  0  0  0  0
   10.4995  -14.3682   19.2258 C   0  0  0  0  0  0  0  0  0  0  0  0
   10.3834  -15.3111   20.0762 O   0  0  0  0  0  0  0  0  0  0  0  0
   11.7436  -14.2606   18.6011 N   0  0  0  0  0  0  0  0  0  0  0  0
   12.8460  -15.1554   18.9769 C   0  0  1  0  0  0  0  0  0  0  0  0
   13.7603  -15.4455   17.8414 C   0  0  0  0  0  0  0  0  0  0  0  0
   13.1230  -16.1054   16.6978 C   0  0  0  0  0  0  0  0  0  0  0  0
   12.3585  -17.0771   16.7312 O   0  0  0  0  0  0  0  0  0  0  0  0
   13.5811  -14.5870   20.1330 C   0  0  0  0  0  0  0  0  0  0  0  0
   13.9796  -13.3968   20.1724 O   0  0  0  0  0  0  0  0  0  0  0  0
   13.4142  -15.5744   15.4264 O   0  0  0  0  0  0  0  0  0  0  0  0
   13.8471  -15.4272   21.2479 N   0  0  0  0  0  0  0  0  0  0  0  0
   14.5413  -14.9767   22.4286 C   0  0  0  0  0  0  0  0  0  0  0  0
   14.5266  -16.0683   23.4278 C   0  0  0  0  0  0  0  0  0  0  0  0
   13.8862  -17.1168   23.1819 O   0  0  0  0  0  0  0  0  0  0  0  0
   15.2022  -15.9749   24.6408 O   0  0  0  0  0  0  0  0  0  0  0  0
  2  1  1  0
  3  2  2  0
  4  2  1  0
  5  4  1  0
  5  6  1  6
  7  5  1  0
  7  9  1  0
  8  7  2  0
 10  9  1  0
 10 14  1  0
 10 11  1  6
 12 11  1  0
 12 13  2  0
 14 15  2  0
 14 17  1  0
 16 12  1  0
 17 18  1  0
 18 19  1  0
 19 21  1  0
 20 19  2  0
M  END
$$$$
