NDG.pdb
     RDKit          3D

 21 20  0  0  1  0  0  0  0  0999 V2000
   12.4250  -16.0806   21.6664 N   0  0  0  0  0  0  0  0  0  0  0  0
   11.0028  -16.2621   21.4883 C   0  0  0  0  0  0  0  0  0  0  0  0
   10.6067  -16.1602   20.3130 O   0  0  0  0  0  0  0  0  0  0  0  0
   10.1258  -16.5410   22.6110 C   0  0  0  0  0  0  0  0  0  0  0  0
   10.7966  -16.6823   23.9637 C   0  0  2  0  0  0  0  0  0  0  0  0
   12.0144  -17.4928   23.6552 N   0  0  0  0  0  0  0  0  0  0  0  0
    9.9546  -17.5708   24.8011 C   0  0  0  0  0  0  0  0  0  0  0  0
    8.7690  -17.1719   25.0477 O   0  0  0  0  0  0  0  0  0  0  0  0
   10.3100  -18.8036   25.3521 N   0  0  0  0  0  0  0  0  0  0  0  0
    9.3810  -19.5205   26.2354 C   0  0  1  0  0  0  0  0  0  0  0  0
    9.4076  -20.9912   26.0214 C   0  0  0  0  0  0  0  0  0  0  0  0
    8.8545  -21.4313   24.7369 C   0  0  0  0  0  0  0  0  0  0  0  0
    9.3153  -22.3009   23.9877 O   0  0  0  0  0  0  0  0  0  0  0  0
    9.6646  -19.1734   27.6493 C   0  0  0  0  0  0  0  0  0  0  0  0
    8.8365  -19.3498   28.5767 O   0  0  0  0  0  0  0  0  0  0  0  0
    7.6724  -20.7942   24.3128 O   0  0  0  0  0  0  0  0  0  0  0  0
   10.9317  -18.6156   27.9702 N   0  0  0  0  0  0  0  0  0  0  0  0
   11.2617  -18.1050   29.2776 C   0  0  0  0  0  0  0  0  0  0  0  0
   12.0519  -19.1293   29.9965 C   0  0  0  0  0  0  0  0  0  0  0  0
   12.3151  -20.2133   29.4261 O   0  0  0  0  0  0  0  0  0  0  0  0
   12.5180  -18.9337   31.2931 O   0  0  0  0  0  0  0  0  0  0  0  0
  2  1  1  0
  3  2  2  0
  4  2  1  0
  5  4  1  0
  5  6  1  6
  7  5  1  0
  7  9  1  0
  8  7  2  0
 10  9  1  0
 10 14  1  0
 10 11  1  1
 12 11  1  0
 12 13  2  0
 14 15  2  0
 14 17  1  0
 16 12  1  0
 17 18  1  0
 18 19  1  0
 19 21  1  0
 20 19  2  0
M  END
$$$$
