NDG.pdb
     RDKit          3D

 21 20  0  0  1  0  0  0  0  0999 V2000
    7.0515  -12.3900   17.9668 N   0  0  0  0  0  0  0  0  0  0  0  0
    7.8158  -13.5935   18.2008 C   0  0  0  0  0  0  0  0  0  0  0  0
    7.7929  -14.4161   17.2675 O   0  0  0  0  0  0  0  0  0  0  0  0
    8.5452  -13.8019   19.4386 C   0  0  0  0  0  0  0  0  0  0  0  0
   10.0152  -14.1467   19.2978 C   0  0  2  0  0  0  0  0  0  0  0  0
    9.9921  -15.4104   18.4992 N   0  0  0  0  0  0  0  0  0  0  0  0
   10.5194  -14.5531   20.6320 C   0  0  0  0  0  0  0  0  0  0  0  0
   10.5185  -13.6598   21.5418 O   0  0  0  0  0  0  0  0  0  0  0  0
   10.9952  -15.8096   21.0120 N   0  0  0  0  0  0  0  0  0  0  0  0
   11.6399  -15.9986   22.3181 C   0  0  1  0  0  0  0  0  0  0  0  0
   11.1230  -17.1877   23.0450 C   0  0  0  0  0  0  0  0  0  0  0  0
   11.7094  -17.3942   24.3727 C   0  0  0  0  0  0  0  0  0  0  0  0
   12.0204  -18.4745   24.8885 O   0  0  0  0  0  0  0  0  0  0  0  0
   13.1115  -16.0663   22.1457 C   0  0  0  0  0  0  0  0  0  0  0  0
   13.8936  -16.4060   23.0676 O   0  0  0  0  0  0  0  0  0  0  0  0
   11.9427  -16.2373   25.1411 O   0  0  0  0  0  0  0  0  0  0  0  0
   13.6627  -15.7316   20.8793 N   0  0  0  0  0  0  0  0  0  0  0  0
   14.4487  -14.5451   20.6486 C   0  0  0  0  0  0  0  0  0  0  0  0
   15.7940  -14.7520   21.2298 C   0  0  0  0  0  0  0  0  0  0  0  0
   15.9615  -14.5932   22.4612 O   0  0  0  0  0  0  0  0  0  0  0  0
   16.8900  -15.1193   20.4549 O   0  0  0  0  0  0  0  0  0  0  0  0
  2  1  1  0
  3  2  2  0
  4  2  1  0
  5  4  1  0
  5  6  1  6
  7  5  1  0
  7  9  1  0
  8  7  2  0
 10  9  1  0
 10 14  1  0
 10 11  1  6
 12 11  1  0
 12 13  2  0
 14 15  2  0
 14 17  1  0
 16 12  1  0
 17 18  1  0
 18 19  1  0
 19 21  1  0
 20 19  2  0
M  END
$$$$
