NDG.pdb
     RDKit          3D

 21 20  0  0  1  0  0  0  0  0999 V2000
    5.4062  -22.5718   28.3520 N   0  0  0  0  0  0  0  0  0  0  0  0
    5.6509  -23.8280   27.6815 C   0  0  0  0  0  0  0  0  0  0  0  0
    4.7718  -24.1654   26.8680 O   0  0  0  0  0  0  0  0  0  0  0  0
    6.8391  -24.6162   27.9543 C   0  0  0  0  0  0  0  0  0  0  0  0
    7.7717  -24.0720   29.0192 C   0  0  2  0  0  0  0  0  0  0  0  0
    8.0771  -22.6928   28.5298 N   0  0  0  0  0  0  0  0  0  0  0  0
    9.0586  -24.8021   28.9163 C   0  0  0  0  0  0  0  0  0  0  0  0
    9.0466  -26.0343   29.2438 O   0  0  0  0  0  0  0  0  0  0  0  0
   10.2899  -24.2950   28.4964 N   0  0  0  0  0  0  0  0  0  0  0  0
   11.4794  -25.1561   28.4669 C   0  0  1  0  0  0  0  0  0  0  0  0
   12.1376  -25.1774   27.1343 C   0  0  0  0  0  0  0  0  0  0  0  0
   11.5036  -26.0647   26.1544 C   0  0  0  0  0  0  0  0  0  0  0  0
   10.6916  -26.9686   26.3856 O   0  0  0  0  0  0  0  0  0  0  0  0
   12.4250  -24.7415   29.5318 C   0  0  0  0  0  0  0  0  0  0  0  0
   13.5010  -25.3456   29.7647 O   0  0  0  0  0  0  0  0  0  0  0  0
   11.8588  -25.8645   24.8064 O   0  0  0  0  0  0  0  0  0  0  0  0
   12.0992  -23.6086   30.3255 N   0  0  0  0  0  0  0  0  0  0  0  0
   12.9400  -23.1226   31.3911 C   0  0  0  0  0  0  0  0  0  0  0  0
   12.2587  -21.9832   32.0452 C   0  0  0  0  0  0  0  0  0  0  0  0
   11.1998  -21.5341   31.5482 O   0  0  0  0  0  0  0  0  0  0  0  0
   12.7526  -21.3857   33.2008 O   0  0  0  0  0  0  0  0  0  0  0  0
  2  1  1  0
  3  2  2  0
  4  2  1  0
  5  4  1  0
  5  6  1  6
  7  5  1  0
  7  9  1  0
  8  7  2  0
 10  9  1  0
 10 14  1  0
 10 11  1  6
 12 11  1  0
 12 13  2  0
 14 15  2  0
 14 17  1  0
 16 12  1  0
 17 18  1  0
 18 19  1  0
 19 21  1  0
 20 19  2  0
M  END
$$$$
