DLP.pdb
     RDKit          3D

 24 24  0  0  1  0  0  0  0  0999 V2000
   19.6843  -21.0588  -12.8477 N   0  0  0  0  0  0  0  0  0  0  0  0
   20.4060  -20.6402  -14.0162 C   0  0  1  0  0  0  0  0  0  0  0  0
   19.5430  -19.6295  -14.7546 C   0  0  0  0  0  0  0  0  0  0  0  0
   18.4165  -20.3719  -15.3825 C   0  0  0  0  0  0  0  0  0  0  0  0
   18.6464  -21.1821  -16.3383 O   0  0  0  0  0  0  0  0  0  0  0  0
   21.7357  -20.0772  -13.6845 C   0  0  0  0  0  0  0  0  0  0  0  0
   21.7998  -19.0026  -13.0569 O   0  0  0  0  0  0  0  0  0  0  0  0
   17.1033  -20.2232  -14.9716 O   0  0  0  0  0  0  0  0  0  0  0  0
   26.6958  -22.1646  -11.3382 C   0  0  0  0  0  0  0  0  0  0  0  0
   26.0016  -20.9771  -11.9183 C   0  0  2  0  0  0  0  0  0  0  0  0
   25.6232  -20.0540  -10.7338 C   0  0  0  0  0  0  0  0  0  0  0  0
   24.7798  -21.1778  -12.6934 C   0  0  0  0  0  0  0  0  0  0  0  0
   24.2508  -20.1651  -13.6315 C   0  0  2  0  0  0  0  0  0  0  0  0
   22.9431  -20.7192  -14.0567 N   0  0  0  0  0  0  0  0  0  0  0  0
   25.0379  -19.8786  -14.8155 C   0  0  0  0  0  0  0  0  0  0  0  0
   24.7840  -20.6388  -15.8399 O   0  0  0  0  0  0  0  0  0  0  0  0
   26.0241  -18.9257  -15.0487 N   0  0  0  0  0  0  0  0  0  0  0  0
   26.6167  -18.0050  -14.1241 C   0  0  0  0  0  0  0  0  0  0  0  0
   27.7313  -17.2667  -14.8962 C   0  0  0  0  0  0  0  0  0  0  0  0
   27.0910  -17.2600  -16.2807 C   0  0  0  0  0  0  0  0  0  0  0  0
   26.6488  -18.7033  -16.3627 C   0  0  1  0  0  0  0  0  0  0  0  0
   27.7766  -19.6239  -16.5845 C   0  0  0  0  0  0  0  0  0  0  0  0
   28.5087  -19.7189  -17.7494 O   0  0  0  0  0  0  0  0  0  0  0  0
   28.0962  -20.3836  -15.6341 O   0  0  0  0  0  0  0  0  0  0  0  0
  2  1  1  1
  2  3  1  0
  3  4  1  0
  4  8  1  0
  4  5  2  0
  6  2  1  0
  6  7  2  0
 10  9  1  1
 10 11  1  0
 10 12  1  0
 13 12  1  1
 13 14  1  0
 14  6  1  0
 15 13  1  0
 16 15  2  0
 17 15  1  0
 17 18  1  0
 19 18  1  0
 20 21  1  0
 20 19  1  0
 21 17  1  0
 21 22  1  1
 23 22  1  0
 24 22  2  0
M  END
$$$$
