DLP.pdb
     RDKit          3D

 24 24  0  0  1  0  0  0  0  0999 V2000
   22.0417  -19.5645  -14.5347 N   0  0  0  0  0  0  0  0  0  0  0  0
   22.3509  -20.4663  -13.4611 C   0  0  1  0  0  0  0  0  0  0  0  0
   22.3479  -21.8771  -14.0277 C   0  0  0  0  0  0  0  0  0  0  0  0
   20.9335  -22.2504  -14.3008 C   0  0  0  0  0  0  0  0  0  0  0  0
   20.0123  -21.3801  -14.1710 O   0  0  0  0  0  0  0  0  0  0  0  0
   23.6438  -20.1461  -12.8121 C   0  0  0  0  0  0  0  0  0  0  0  0
   24.4635  -19.4272  -13.4154 O   0  0  0  0  0  0  0  0  0  0  0  0
   20.5605  -23.5228  -14.6973 O   0  0  0  0  0  0  0  0  0  0  0  0
   27.0104  -18.9852   -8.8193 C   0  0  0  0  0  0  0  0  0  0  0  0
   25.8569  -19.8419   -8.4142 C   0  0  2  0  0  0  0  0  0  0  0  0
   26.4321  -20.9929   -7.5524 C   0  0  0  0  0  0  0  0  0  0  0  0
   25.0402  -20.4689   -9.4504 C   0  0  0  0  0  0  0  0  0  0  0  0
   25.2707  -20.2493  -10.8940 C   0  0  2  0  0  0  0  0  0  0  0  0
   23.9837  -20.6298  -11.5241 N   0  0  0  0  0  0  0  0  0  0  0  0
   26.3346  -21.0093  -11.5219 C   0  0  0  0  0  0  0  0  0  0  0  0
   26.1254  -22.2911  -11.5915 O   0  0  0  0  0  0  0  0  0  0  0  0
   27.5485  -20.6037  -12.0666 N   0  0  0  0  0  0  0  0  0  0  0  0
   28.0895  -19.2802  -12.1631 C   0  0  0  0  0  0  0  0  0  0  0  0
   29.5097  -19.4302  -12.7498 C   0  0  0  0  0  0  0  0  0  0  0  0
   29.2674  -20.6453  -13.6396 C   0  0  0  0  0  0  0  0  0  0  0  0
   28.5241  -21.5295  -12.6645 C   0  0  1  0  0  0  0  0  0  0  0  0
   29.4123  -22.1084  -11.6424 C   0  0  0  0  0  0  0  0  0  0  0  0
   30.4065  -23.0331  -11.8839 O   0  0  0  0  0  0  0  0  0  0  0  0
   29.2493  -21.7276  -10.4545 O   0  0  0  0  0  0  0  0  0  0  0  0
  2  1  1  6
  2  3  1  0
  3  4  1  0
  4  8  1  0
  4  5  2  0
  6  2  1  0
  6  7  2  0
 10  9  1  6
 10 11  1  0
 10 12  1  0
 13 12  1  1
 13 14  1  0
 14  6  1  0
 15 13  1  0
 16 15  2  0
 17 15  1  0
 17 18  1  0
 19 18  1  0
 20 21  1  0
 20 19  1  0
 21 17  1  0
 21 22  1  1
 23 22  1  0
 24 22  2  0
M  END
$$$$
