DLP.pdb
     RDKit          3D

 24 24  0  0  1  0  0  0  0  0999 V2000
   27.5504  -38.2606   -9.8084 N   0  0  0  0  0  0  0  0  0  0  0  0
   26.8613  -38.0774   -8.5622 C   0  0  1  0  0  0  0  0  0  0  0  0
   27.1533  -39.2885   -7.6907 C   0  0  0  0  0  0  0  0  0  0  0  0
   25.9219  -40.1231   -7.6514 C   0  0  0  0  0  0  0  0  0  0  0  0
   26.0173  -41.3934   -7.6529 O   0  0  0  0  0  0  0  0  0  0  0  0
   27.2480  -36.8173   -7.8855 C   0  0  0  0  0  0  0  0  0  0  0  0
   28.4448  -36.4702   -7.8879 O   0  0  0  0  0  0  0  0  0  0  0  0
   24.6509  -39.5769   -7.6124 O   0  0  0  0  0  0  0  0  0  0  0  0
   26.9834  -32.4447   -8.8173 C   0  0  0  0  0  0  0  0  0  0  0  0
   25.7603  -33.1570   -8.3425 C   0  0  2  0  0  0  0  0  0  0  0  0
   24.5978  -32.1348   -8.3892 C   0  0  0  0  0  0  0  0  0  0  0  0
   25.7509  -33.7336   -7.0004 C   0  0  0  0  0  0  0  0  0  0  0  0
   26.7351  -34.7428   -6.5552 C   0  0  2  0  0  0  0  0  0  0  0  0
   26.3020  -35.9886   -7.2324 N   0  0  0  0  0  0  0  0  0  0  0  0
   26.8279  -34.9997   -5.1309 C   0  0  0  0  0  0  0  0  0  0  0  0
   25.8168  -35.6406   -4.6223 O   0  0  0  0  0  0  0  0  0  0  0  0
   27.8166  -34.6781   -4.2068 N   0  0  0  0  0  0  0  0  0  0  0  0
   28.9751  -33.8536   -4.3849 C   0  0  0  0  0  0  0  0  0  0  0  0
   29.6558  -33.7518   -3.0029 C   0  0  0  0  0  0  0  0  0  0  0  0
   29.2935  -35.1314   -2.4621 C   0  0  0  0  0  0  0  0  0  0  0  0
   27.8247  -35.1657   -2.8181 C   0  0  1  0  0  0  0  0  0  0  0  0
   27.0145  -34.3038   -1.9409 C   0  0  0  0  0  0  0  0  0  0  0  0
   26.7223  -34.5650   -0.6187 O   0  0  0  0  0  0  0  0  0  0  0  0
   26.5529  -33.2452   -2.4396 O   0  0  0  0  0  0  0  0  0  0  0  0
  2  1  1  6
  2  3  1  0
  3  4  1  0
  4  8  1  0
  4  5  2  0
  6  2  1  0
  6  7  2  0
 10  9  1  1
 10 11  1  0
 10 12  1  0
 13 12  1  1
 13 14  1  0
 14  6  1  0
 15 13  1  0
 16 15  2  0
 17 15  1  0
 17 18  1  0
 19 18  1  0
 20 21  1  0
 20 19  1  0
 21 17  1  0
 21 22  1  1
 23 22  1  0
 24 22  2  0
M  END
$$$$
