DLP.pdb
     RDKit          3D

 24 24  0  0  1  0  0  0  0  0999 V2000
   16.5414  -11.8546  -15.5163 N   0  0  0  0  0  0  0  0  0  0  0  0
   17.0190  -10.5713  -15.9482 C   0  0  1  0  0  0  0  0  0  0  0  0
   15.9136   -9.5584  -15.6956 C   0  0  0  0  0  0  0  0  0  0  0  0
   14.8538   -9.7838  -16.7155 C   0  0  0  0  0  0  0  0  0  0  0  0
   15.1676  -10.2260  -17.8683 O   0  0  0  0  0  0  0  0  0  0  0  0
   18.2766  -10.1812  -15.2689 C   0  0  0  0  0  0  0  0  0  0  0  0
   18.3235  -10.1972  -14.0239 O   0  0  0  0  0  0  0  0  0  0  0  0
   13.5153   -9.5319  -16.4695 O   0  0  0  0  0  0  0  0  0  0  0  0
   24.1458  -10.6721  -16.3131 C   0  0  0  0  0  0  0  0  0  0  0  0
   23.1117  -10.1115  -15.3938 C   0  0  2  0  0  0  0  0  0  0  0  0
   23.3206  -10.7872  -14.0160 C   0  0  0  0  0  0  0  0  0  0  0  0
   21.6995  -10.2795  -15.7274 C   0  0  0  0  0  0  0  0  0  0  0  0
   20.6509   -9.3451  -15.2662 C   0  0  2  0  0  0  0  0  0  0  0  0
   19.4336   -9.7888  -15.9870 N   0  0  0  0  0  0  0  0  0  0  0  0
   20.8543   -7.9333  -15.5290 C   0  0  0  0  0  0  0  0  0  0  0  0
   20.6351   -7.5671  -16.7576 O   0  0  0  0  0  0  0  0  0  0  0  0
   21.2457   -6.8949  -14.6904 N   0  0  0  0  0  0  0  0  0  0  0  0
   21.5708   -6.9440  -13.2955 C   0  0  0  0  0  0  0  0  0  0  0  0
   22.0453   -5.5270  -12.9071 C   0  0  0  0  0  0  0  0  0  0  0  0
   21.1707   -4.7187  -13.8603 C   0  0  0  0  0  0  0  0  0  0  0  0
   21.3953   -5.4998  -15.1349 C   0  0  1  0  0  0  0  0  0  0  0  0
   22.7284   -5.2596  -15.7126 C   0  0  0  0  0  0  0  0  0  0  0  0
   23.0826   -4.1600  -16.4657 O   0  0  0  0  0  0  0  0  0  0  0  0
   23.6134   -6.1283  -15.5011 O   0  0  0  0  0  0  0  0  0  0  0  0
  2  1  1  1
  2  3  1  0
  3  4  1  0
  4  8  1  0
  4  5  2  0
  6  2  1  0
  6  7  2  0
 10  9  1  6
 10 11  1  0
 10 12  1  0
 13 12  1  6
 13 14  1  0
 14  6  1  0
 15 13  1  0
 16 15  2  0
 17 15  1  0
 17 18  1  0
 19 18  1  0
 20 21  1  0
 20 19  1  0
 21 17  1  0
 21 22  1  1
 23 22  1  0
 24 22  2  0
M  END
$$$$
