DLP.pdb
     RDKit          3D

 24 24  0  0  1  0  0  0  0  0999 V2000
   21.8804  -12.7076  -20.4521 N   0  0  0  0  0  0  0  0  0  0  0  0
   21.8629  -11.2842  -20.2649 C   0  0  1  0  0  0  0  0  0  0  0  0
   20.6731  -10.7319  -21.0336 C   0  0  0  0  0  0  0  0  0  0  0  0
   21.0452  -10.6937  -22.4739 C   0  0  0  0  0  0  0  0  0  0  0  0
   22.2670  -10.5612  -22.8093 O   0  0  0  0  0  0  0  0  0  0  0  0
   21.8060  -10.9057  -18.8336 C   0  0  0  0  0  0  0  0  0  0  0  0
   20.9813  -11.4702  -18.0894 O   0  0  0  0  0  0  0  0  0  0  0  0
   20.1106  -10.7972  -23.4893 O   0  0  0  0  0  0  0  0  0  0  0  0
   25.7176  -10.3720  -14.5618 C   0  0  0  0  0  0  0  0  0  0  0  0
   24.3351   -9.9520  -14.9370 C   0  0  2  0  0  0  0  0  0  0  0  0
   23.3642  -10.7092  -13.9976 C   0  0  0  0  0  0  0  0  0  0  0  0
   23.8653  -10.1926  -16.2990 C   0  0  0  0  0  0  0  0  0  0  0  0
   22.6107   -9.6160  -16.8272 C   0  0  2  0  0  0  0  0  0  0  0  0
   22.6593   -9.9203  -18.2774 N   0  0  0  0  0  0  0  0  0  0  0  0
   22.4118   -8.1890  -16.6612 C   0  0  0  0  0  0  0  0  0  0  0  0
   23.2359   -7.4389  -17.3319 O   0  0  0  0  0  0  0  0  0  0  0  0
   21.4868   -7.4772  -15.9045 N   0  0  0  0  0  0  0  0  0  0  0  0
   20.3947   -7.9770  -15.1226 C   0  0  0  0  0  0  0  0  0  0  0  0
   19.7747   -6.7571  -14.4077 C   0  0  0  0  0  0  0  0  0  0  0  0
   20.0408   -5.7007  -15.4755 C   0  0  0  0  0  0  0  0  0  0  0  0
   21.4881   -6.0103  -15.7835 C   0  0  1  0  0  0  0  0  0  0  0  0
   22.3977   -5.5597  -14.7166 C   0  0  0  0  0  0  0  0  0  0  0  0
   22.8075   -4.2580  -14.5178 O   0  0  0  0  0  0  0  0  0  0  0  0
   22.8347   -6.4337  -13.9243 O   0  0  0  0  0  0  0  0  0  0  0  0
  2  1  1  1
  2  3  1  0
  3  4  1  0
  4  8  1  0
  4  5  2  0
  6  2  1  0
  6  7  2  0
 10  9  1  6
 10 11  1  0
 10 12  1  0
 13 12  1  1
 13 14  1  0
 14  6  1  0
 15 13  1  0
 16 15  2  0
 17 15  1  0
 17 18  1  0
 19 18  1  0
 20 21  1  0
 20 19  1  0
 21 17  1  0
 21 22  1  1
 23 22  1  0
 24 22  2  0
M  END
$$$$
