DLP.pdb
     RDKit          3D

 24 24  0  0  1  0  0  0  0  0999 V2000
   19.9499  -20.2252  -13.9095 N   0  0  0  0  0  0  0  0  0  0  0  0
   21.0334  -20.8327  -14.6295 C   0  0  1  0  0  0  0  0  0  0  0  0
   20.7727  -20.6302  -16.1136 C   0  0  0  0  0  0  0  0  0  0  0  0
   19.6140  -21.4852  -16.4887 C   0  0  0  0  0  0  0  0  0  0  0  0
   18.7623  -21.0617  -17.3362 O   0  0  0  0  0  0  0  0  0  0  0  0
   22.3510  -20.2844  -14.2313 C   0  0  0  0  0  0  0  0  0  0  0  0
   22.5239  -19.0505  -14.2462 O   0  0  0  0  0  0  0  0  0  0  0  0
   19.4106  -22.7444  -15.9516 O   0  0  0  0  0  0  0  0  0  0  0  0
   25.0806  -19.3831  -10.5230 C   0  0  0  0  0  0  0  0  0  0  0  0
   24.7839  -20.7951  -10.9064 C   0  0  2  0  0  0  0  0  0  0  0  0
   25.5560  -21.7019   -9.9164 C   0  0  0  0  0  0  0  0  0  0  0  0
   25.1339  -21.2547  -12.2480 C   0  0  0  0  0  0  0  0  0  0  0  0
   24.7389  -20.5267  -13.4725 C   0  0  2  0  0  0  0  0  0  0  0  0
   23.4268  -21.1161  -13.8321 N   0  0  0  0  0  0  0  0  0  0  0  0
   25.6200  -20.6265  -14.6202 C   0  0  0  0  0  0  0  0  0  0  0  0
   25.4051  -21.6535  -15.3888 O   0  0  0  0  0  0  0  0  0  0  0  0
   26.6625  -19.8097  -15.0457 N   0  0  0  0  0  0  0  0  0  0  0  0
   27.2360  -18.6733  -14.3874 C   0  0  0  0  0  0  0  0  0  0  0  0
   28.4315  -18.2232  -15.2546 C   0  0  0  0  0  0  0  0  0  0  0  0
   27.8833  -18.6076  -16.6252 C   0  0  0  0  0  0  0  0  0  0  0  0
   27.3808  -19.9994  -16.3162 C   0  0  1  0  0  0  0  0  0  0  0  0
   28.4766  -20.9730  -16.1741 C   0  0  0  0  0  0  0  0  0  0  0  0
   29.2551  -21.4507  -17.2073 O   0  0  0  0  0  0  0  0  0  0  0  0
   28.7203  -21.4018  -15.0169 O   0  0  0  0  0  0  0  0  0  0  0  0
  2  1  1  1
  2  3  1  0
  3  4  1  0
  4  8  1  0
  4  5  2  0
  6  2  1  0
  6  7  2  0
 10  9  1  6
 10 11  1  0
 10 12  1  0
 13 12  1  1
 13 14  1  0
 14  6  1  0
 15 13  1  0
 16 15  2  0
 17 15  1  0
 17 18  1  0
 19 18  1  0
 20 21  1  0
 20 19  1  0
 21 17  1  0
 21 22  1  1
 23 22  1  0
 24 22  2  0
M  END
$$$$
