TGG.pdb
     RDKit          3D

 16 15  0  0  1  0  0  0  0  0999 V2000
   24.1724  -22.1416  -14.4315 C   0  0  0  0  0  0  0  0  0  0  0  0
   24.1867  -21.7785  -12.9624 C   0  0  1  0  0  0  0  0  0  0  0  0
   23.6573  -22.8864  -12.2875 O   0  0  0  0  0  0  0  0  0  0  0  0
   25.6247  -21.5291  -12.5512 C   0  0  2  0  0  0  0  0  0  0  0  0
   25.6885  -21.4872  -11.1071 N   0  0  0  0  0  0  0  0  0  0  0  0
   26.1453  -20.3165  -13.1875 C   0  0  0  0  0  0  0  0  0  0  0  0
   25.8308  -19.1947  -12.7192 O   0  0  0  0  0  0  0  0  0  0  0  0
   27.0036  -20.3351  -14.3281 N   0  0  0  0  0  0  0  0  0  0  0  0
   27.5440  -19.0975  -14.8549 C   0  0  0  0  0  0  0  0  0  0  0  0
   26.6241  -18.4794  -15.8381 C   0  0  0  0  0  0  0  0  0  0  0  0
   26.6501  -18.7579  -17.0616 O   0  0  0  0  0  0  0  0  0  0  0  0
   25.6779  -17.5345  -15.3677 N   0  0  0  0  0  0  0  0  0  0  0  0
   24.6903  -16.9994  -16.2854 C   0  0  0  0  0  0  0  0  0  0  0  0
   23.5402  -17.9493  -16.3872 C   0  0  0  0  0  0  0  0  0  0  0  0
   22.7555  -18.0795  -15.4234 O   0  0  0  0  0  0  0  0  0  0  0  0
   23.3120  -18.6975  -17.5240 O   0  0  0  0  0  0  0  0  0  0  0  0
  2  4  1  0
  2  1  1  6
  3  2  1  0
  4  5  1  1
  6  7  2  0
  6  4  1  0
  8  6  1  0
  9  8  1  0
 10 12  1  0
 10  9  1  0
 11 10  2  0
 13 12  1  0
 13 14  1  0
 14 16  1  0
 15 14  2  0
M  END
$$$$
