TGG.pdb
     RDKit          3D

 16 15  0  0  1  0  0  0  0  0999 V2000
   22.9766  -14.7985  -15.8581 C   0  0  0  0  0  0  0  0  0  0  0  0
   22.1186  -13.5561  -15.7556 C   0  0  1  0  0  0  0  0  0  0  0  0
   21.6679  -13.5085  -14.4297 O   0  0  0  0  0  0  0  0  0  0  0  0
   22.9861  -12.3547  -16.0770 C   0  0  2  0  0  0  0  0  0  0  0  0
   24.0841  -12.3166  -15.1368 N   0  0  0  0  0  0  0  0  0  0  0  0
   22.1898  -11.1249  -16.0851 C   0  0  0  0  0  0  0  0  0  0  0  0
   21.2648  -10.9988  -16.9246 O   0  0  0  0  0  0  0  0  0  0  0  0
   22.4073  -10.0431  -15.1795 N   0  0  0  0  0  0  0  0  0  0  0  0
   21.5229   -8.8947  -15.1888 C   0  0  0  0  0  0  0  0  0  0  0  0
   21.9397   -7.8813  -14.1918 C   0  0  0  0  0  0  0  0  0  0  0  0
   22.4970   -8.1828  -13.1084 O   0  0  0  0  0  0  0  0  0  0  0  0
   21.6947   -6.5156  -14.4825 N   0  0  0  0  0  0  0  0  0  0  0  0
   22.1708   -5.4968  -13.5663 C   0  0  0  0  0  0  0  0  0  0  0  0
   21.8520   -4.1441  -14.1180 C   0  0  0  0  0  0  0  0  0  0  0  0
   22.2141   -3.1205  -13.4993 O   0  0  0  0  0  0  0  0  0  0  0  0
   21.1626   -3.9847  -15.3026 O   0  0  0  0  0  0  0  0  0  0  0  0
  2  4  1  0
  2  1  1  1
  3  2  1  0
  4  5  1  1
  6  7  2  0
  6  4  1  0
  8  6  1  0
  9  8  1  0
 10 12  1  0
 10  9  1  0
 11 10  2  0
 13 12  1  0
 13 14  1  0
 14 16  1  0
 15 14  2  0
M  END
$$$$
