TGG.pdb
     RDKit          3D

 16 15  0  0  1  0  0  0  0  0999 V2000
   24.8627  -11.3924  -19.0988 C   0  0  0  0  0  0  0  0  0  0  0  0
   25.1034  -12.7935  -18.5799 C   0  0  1  0  0  0  0  0  0  0  0  0
   25.0671  -13.6308  -19.7029 O   0  0  0  0  0  0  0  0  0  0  0  0
   26.4697  -12.8261  -17.9231 C   0  0  2  0  0  0  0  0  0  0  0  0
   26.9229  -14.1984  -17.8741 N   0  0  0  0  0  0  0  0  0  0  0  0
   26.4300  -12.1837  -16.6070 C   0  0  0  0  0  0  0  0  0  0  0  0
   26.1655  -12.8768  -15.5940 O   0  0  0  0  0  0  0  0  0  0  0  0
   26.6784  -10.7926  -16.4047 N   0  0  0  0  0  0  0  0  0  0  0  0
   26.6593  -10.2349  -15.0668 C   0  0  0  0  0  0  0  0  0  0  0  0
   25.3170   -9.7166  -14.7147 C   0  0  0  0  0  0  0  0  0  0  0  0
   25.0784   -9.1267  -13.6328 O   0  0  0  0  0  0  0  0  0  0  0  0
   24.2633   -9.8992  -15.6453 N   0  0  0  0  0  0  0  0  0  0  0  0
   22.9333   -9.4228  -15.3166 C   0  0  0  0  0  0  0  0  0  0  0  0
   22.8678   -7.9445  -15.5311 C   0  0  0  0  0  0  0  0  0  0  0  0
   22.2197   -7.2303  -14.7365 O   0  0  0  0  0  0  0  0  0  0  0  0
   23.5068   -7.3332  -16.5904 O   0  0  0  0  0  0  0  0  0  0  0  0
  2  4  1  0
  2  1  1  6
  3  2  1  0
  4  5  1  1
  6  7  2  0
  6  4  1  0
  8  6  1  0
  9  8  1  0
 10 12  1  0
 10  9  1  0
 11 10  2  0
 13 12  1  0
 13 14  1  0
 14 16  1  0
 15 14  2  0
M  END
$$$$
