TGG.pdb
     RDKit          3D

 16 15  0  0  1  0  0  0  0  0999 V2000
   27.0255  -18.0010  -15.1135 C   0  0  0  0  0  0  0  0  0  0  0  0
   27.1835  -19.1789  -16.0505 C   0  0  1  0  0  0  0  0  0  0  0  0
   28.3129  -18.9000  -16.8315 O   0  0  0  0  0  0  0  0  0  0  0  0
   27.3976  -20.4242  -15.2124 C   0  0  2  0  0  0  0  0  0  0  0  0
   27.9904  -21.4440  -16.0488 N   0  0  0  0  0  0  0  0  0  0  0  0
   26.1450  -20.8498  -14.5830 C   0  0  0  0  0  0  0  0  0  0  0  0
   25.2821  -21.4443  -15.2748 O   0  0  0  0  0  0  0  0  0  0  0  0
   25.8422  -20.6248  -13.2063 N   0  0  0  0  0  0  0  0  0  0  0  0
   24.5755  -21.0652  -12.6562 C   0  0  0  0  0  0  0  0  0  0  0  0
   23.4390  -20.3247  -13.2519 C   0  0  0  0  0  0  0  0  0  0  0  0
   23.5374  -19.1417  -13.6594 O   0  0  0  0  0  0  0  0  0  0  0  0
   22.1914  -20.9887  -13.3622 N   0  0  0  0  0  0  0  0  0  0  0  0
   21.0410  -20.2622  -13.8652 C   0  0  0  0  0  0  0  0  0  0  0  0
   19.8488  -21.1645  -13.8750 C   0  0  0  0  0  0  0  0  0  0  0  0
   18.7255  -20.7055  -14.1735 O   0  0  0  0  0  0  0  0  0  0  0  0
   19.9471  -22.5048  -13.5616 O   0  0  0  0  0  0  0  0  0  0  0  0
  2  4  1  0
  2  1  1  1
  3  2  1  0
  4  5  1  6
  6  7  2  0
  6  4  1  0
  8  6  1  0
  9  8  1  0
 10 12  1  0
 10  9  1  0
 11 10  2  0
 13 12  1  0
 13 14  1  0
 14 16  1  0
 15 14  2  0
M  END
$$$$
