TGG.pdb
     RDKit          3D

 16 15  0  0  1  0  0  0  0  0999 V2000
   22.8857  -11.9706  -20.1031 C   0  0  0  0  0  0  0  0  0  0  0  0
   21.4949  -11.8210  -19.5255 C   0  0  1  0  0  0  0  0  0  0  0  0
   20.8754  -13.0674  -19.6872 O   0  0  0  0  0  0  0  0  0  0  0  0
   21.6284  -11.4681  -18.0569 C   0  0  2  0  0  0  0  0  0  0  0  0
   20.3564  -11.7040  -17.4106 N   0  0  0  0  0  0  0  0  0  0  0  0
   22.1134  -10.0954  -17.8934 C   0  0  0  0  0  0  0  0  0  0  0  0
   23.3457   -9.8673  -17.9688 O   0  0  0  0  0  0  0  0  0  0  0  0
   21.2530   -8.9827  -17.6493 N   0  0  0  0  0  0  0  0  0  0  0  0
   21.8126   -7.6757  -17.3667 C   0  0  0  0  0  0  0  0  0  0  0  0
   21.6286   -7.3032  -15.9447 C   0  0  0  0  0  0  0  0  0  0  0  0
   21.2297   -8.1158  -15.0753 O   0  0  0  0  0  0  0  0  0  0  0  0
   21.9179   -5.9701  -15.5589 N   0  0  0  0  0  0  0  0  0  0  0  0
   21.6506   -5.5499  -14.1965 C   0  0  0  0  0  0  0  0  0  0  0  0
   22.0356   -4.1142  -14.0346 C   0  0  0  0  0  0  0  0  0  0  0  0
   22.6805   -3.5390  -14.9374 O   0  0  0  0  0  0  0  0  0  0  0  0
   21.6989   -3.3925  -12.9077 O   0  0  0  0  0  0  0  0  0  0  0  0
  2  4  1  0
  2  1  1  1
  3  2  1  0
  4  5  1  1
  6  7  2  0
  6  4  1  0
  8  6  1  0
  9  8  1  0
 10 12  1  0
 10  9  1  0
 11 10  2  0
 13 12  1  0
 13 14  1  0
 14 16  1  0
 15 14  2  0
M  END
$$$$
