TGG.pdb
     RDKit          3D

 16 15  0  0  1  0  0  0  0  0999 V2000
   22.7098  -20.8429  -17.0954 C   0  0  0  0  0  0  0  0  0  0  0  0
   21.3488  -20.7158  -16.4460 C   0  0  1  0  0  0  0  0  0  0  0  0
   20.8197  -22.0127  -16.4053 O   0  0  0  0  0  0  0  0  0  0  0  0
   21.5423  -20.1648  -15.0468 C   0  0  2  0  0  0  0  0  0  0  0  0
   20.3115  -20.3433  -14.3088 N   0  0  0  0  0  0  0  0  0  0  0  0
   21.9904  -18.7708  -15.0936 C   0  0  0  0  0  0  0  0  0  0  0  0
   21.3204  -17.9328  -15.7458 O   0  0  0  0  0  0  0  0  0  0  0  0
   23.1639  -18.3008  -14.4304 N   0  0  0  0  0  0  0  0  0  0  0  0
   23.6019  -16.9302  -14.6060 C   0  0  0  0  0  0  0  0  0  0  0  0
   24.8873  -16.8616  -15.3393 C   0  0  0  0  0  0  0  0  0  0  0  0
   25.5818  -17.8766  -15.5901 O   0  0  0  0  0  0  0  0  0  0  0  0
   25.3443  -15.5915  -15.7723 N   0  0  0  0  0  0  0  0  0  0  0  0
   26.6338  -15.4849  -16.4280 C   0  0  0  0  0  0  0  0  0  0  0  0
   26.8562  -14.0710  -16.8604 C   0  0  0  0  0  0  0  0  0  0  0  0
   25.9556  -13.2214  -16.6915 O   0  0  0  0  0  0  0  0  0  0  0  0
   28.0376  -13.6662  -17.4474 O   0  0  0  0  0  0  0  0  0  0  0  0
  2  4  1  0
  2  1  1  1
  3  2  1  0
  4  5  1  1
  6  7  2  0
  6  4  1  0
  8  6  1  0
  9  8  1  0
 10 12  1  0
 10  9  1  0
 11 10  2  0
 13 12  1  0
 13 14  1  0
 14 16  1  0
 15 14  2  0
M  END
$$$$
