TGG.pdb
     RDKit          3D

 16 15  0  0  1  0  0  0  0  0999 V2000
   18.3651   -8.7907  -14.5979 C   0  0  0  0  0  0  0  0  0  0  0  0
   18.9787  -10.1543  -14.8312 C   0  0  1  0  0  0  0  0  0  0  0  0
   17.9028  -11.0380  -14.9889 O   0  0  0  0  0  0  0  0  0  0  0  0
   19.8147  -10.0867  -16.0944 C   0  0  2  0  0  0  0  0  0  0  0  0
   20.0053  -11.4312  -16.5913 N   0  0  0  0  0  0  0  0  0  0  0  0
   21.0732   -9.3781  -15.8484 C   0  0  0  0  0  0  0  0  0  0  0  0
   22.1442   -9.8573  -16.2954 O   0  0  0  0  0  0  0  0  0  0  0  0
   21.1552   -8.1543  -15.1181 N   0  0  0  0  0  0  0  0  0  0  0  0
   22.4329   -7.4918  -14.9456 C   0  0  0  0  0  0  0  0  0  0  0  0
   22.2722   -6.1589  -14.3193 C   0  0  0  0  0  0  0  0  0  0  0  0
   23.2401   -5.3918  -14.0958 O   0  0  0  0  0  0  0  0  0  0  0  0
   20.9661   -5.7407  -13.9606 N   0  0  0  0  0  0  0  0  0  0  0  0
   20.7807   -4.4454  -13.3345 C   0  0  0  0  0  0  0  0  0  0  0  0
   20.5221   -3.4166  -14.3882 C   0  0  0  0  0  0  0  0  0  0  0  0
   20.6664   -3.7128  -15.5936 O   0  0  0  0  0  0  0  0  0  0  0  0
   20.1242   -2.1338  -14.0715 O   0  0  0  0  0  0  0  0  0  0  0  0
  2  4  1  0
  2  1  1  6
  3  2  1  0
  4  5  1  1
  6  7  2  0
  6  4  1  0
  8  6  1  0
  9  8  1  0
 10 12  1  0
 10  9  1  0
 11 10  2  0
 13 12  1  0
 13 14  1  0
 14 16  1  0
 15 14  2  0
M  END
$$$$
