TGG.pdb
     RDKit          3D

 16 15  0  0  1  0  0  0  0  0999 V2000
   28.1623  -13.7194  -15.8895 C   0  0  0  0  0  0  0  0  0  0  0  0
   28.9044  -13.6471  -17.2065 C   0  0  1  0  0  0  0  0  0  0  0  0
   29.3271  -14.9544  -17.4818 O   0  0  0  0  0  0  0  0  0  0  0  0
   27.9388  -13.1547  -18.2668 C   0  0  2  0  0  0  0  0  0  0  0  0
   28.5529  -13.3302  -19.5641 N   0  0  0  0  0  0  0  0  0  0  0  0
   27.5352  -11.7716  -18.0013 C   0  0  0  0  0  0  0  0  0  0  0  0
   28.3236  -10.8371  -18.2869 O   0  0  0  0  0  0  0  0  0  0  0  0
   26.2771  -11.4175  -17.4273 N   0  0  0  0  0  0  0  0  0  0  0  0
   25.9803  -10.0329  -17.1172 C   0  0  0  0  0  0  0  0  0  0  0  0
   24.6267   -9.8862  -16.5334 C   0  0  0  0  0  0  0  0  0  0  0  0
   23.8737  -10.8649  -16.3085 O   0  0  0  0  0  0  0  0  0  0  0  0
   24.1710   -8.5813  -16.2187 N   0  0  0  0  0  0  0  0  0  0  0  0
   22.8475   -8.4075  -15.6510 C   0  0  0  0  0  0  0  0  0  0  0  0
   22.5756   -6.9497  -15.4609 C   0  0  0  0  0  0  0  0  0  0  0  0
   23.4370   -6.1088  -15.7966 O   0  0  0  0  0  0  0  0  0  0  0  0
   21.3905   -6.4942  -14.9203 O   0  0  0  0  0  0  0  0  0  0  0  0
  2  4  1  0
  2  1  1  1
  3  2  1  0
  4  5  1  6
  6  7  2  0
  6  4  1  0
  8  6  1  0
  9  8  1  0
 10 12  1  0
 10  9  1  0
 11 10  2  0
 13 12  1  0
 13 14  1  0
 14 16  1  0
 15 14  2  0
M  END
$$$$
