TGG.pdb
     RDKit          3D

 16 15  0  0  1  0  0  0  0  0999 V2000
   17.8927  -13.1852  -16.5369 C   0  0  0  0  0  0  0  0  0  0  0  0
   17.3127  -11.8022  -16.7395 C   0  0  1  0  0  0  0  0  0  0  0  0
   16.0068  -11.9978  -17.2084 O   0  0  0  0  0  0  0  0  0  0  0  0
   17.3073  -11.0910  -15.4004 C   0  0  2  0  0  0  0  0  0  0  0  0
   16.2330  -10.1232  -15.3989 N   0  0  0  0  0  0  0  0  0  0  0  0
   18.6179  -10.4993  -15.1200 C   0  0  0  0  0  0  0  0  0  0  0  0
   19.5873  -11.2526  -14.8569 O   0  0  0  0  0  0  0  0  0  0  0  0
   18.8622   -9.0929  -15.1283 N   0  0  0  0  0  0  0  0  0  0  0  0
   20.2148   -8.5864  -15.0053 C   0  0  0  0  0  0  0  0  0  0  0  0
   20.2480   -7.1069  -15.0729 C   0  0  0  0  0  0  0  0  0  0  0  0
   19.4987   -6.4442  -15.8310 O   0  0  0  0  0  0  0  0  0  0  0  0
   21.1682   -6.4190  -14.2425 N   0  0  0  0  0  0  0  0  0  0  0  0
   21.0756   -4.9766  -14.1202 C   0  0  0  0  0  0  0  0  0  0  0  0
   22.0766   -4.4974  -13.1183 C   0  0  0  0  0  0  0  0  0  0  0  0
   22.7936   -5.3232  -12.5136 O   0  0  0  0  0  0  0  0  0  0  0  0
   22.2384   -3.1568  -12.8342 O   0  0  0  0  0  0  0  0  0  0  0  0
  2  4  1  0
  2  1  1  1
  3  2  1  0
  4  5  1  6
  6  7  2  0
  6  4  1  0
  8  6  1  0
  9  8  1  0
 10 12  1  0
 10  9  1  0
 11 10  2  0
 13 12  1  0
 13 14  1  0
 14 16  1  0
 15 14  2  0
M  END
$$$$
