TGG.pdb
     RDKit          3D

 16 15  0  0  1  0  0  0  0  0999 V2000
   15.3817  -11.7889  -15.5883 C   0  0  0  0  0  0  0  0  0  0  0  0
   16.7212  -11.4682  -16.2152 C   0  0  1  0  0  0  0  0  0  0  0  0
   16.5401  -10.2687  -16.9166 O   0  0  0  0  0  0  0  0  0  0  0  0
   17.7356  -11.2973  -15.1012 C   0  0  2  0  0  0  0  0  0  0  0  0
   17.2657  -10.2624  -14.2072 N   0  0  0  0  0  0  0  0  0  0  0  0
   19.0680  -11.0273  -15.6474 C   0  0  0  0  0  0  0  0  0  0  0  0
   19.6537  -11.9217  -16.3057 O   0  0  0  0  0  0  0  0  0  0  0  0
   19.7513   -9.7862  -15.4724 N   0  0  0  0  0  0  0  0  0  0  0  0
   21.1085   -9.6260  -15.9557 C   0  0  0  0  0  0  0  0  0  0  0  0
   21.6148   -8.2564  -15.7059 C   0  0  0  0  0  0  0  0  0  0  0  0
   22.7939   -7.9104  -15.9617 O   0  0  0  0  0  0  0  0  0  0  0  0
   20.7225   -7.3029  -15.1544 N   0  0  0  0  0  0  0  0  0  0  0  0
   21.1921   -5.9548  -14.8967 C   0  0  0  0  0  0  0  0  0  0  0  0
   21.6298   -5.8449  -13.4713 C   0  0  0  0  0  0  0  0  0  0  0  0
   21.7063   -6.8726  -12.7645 O   0  0  0  0  0  0  0  0  0  0  0  0
   21.9567   -4.6314  -12.9013 O   0  0  0  0  0  0  0  0  0  0  0  0
  2  4  1  0
  2  1  1  1
  3  2  1  0
  4  5  1  1
  6  7  2  0
  6  4  1  0
  8  6  1  0
  9  8  1  0
 10 12  1  0
 10  9  1  0
 11 10  2  0
 13 12  1  0
 13 14  1  0
 14 16  1  0
 15 14  2  0
M  END
$$$$
