TGG.pdb
     RDKit          3D

 16 15  0  0  1  0  0  0  0  0999 V2000
   24.7200  -35.8815  -11.5235 C   0  0  0  0  0  0  0  0  0  0  0  0
   24.5613  -35.1090  -10.2318 C   0  0  1  0  0  0  0  0  0  0  0  0
   25.5446  -35.6036   -9.3648 O   0  0  0  0  0  0  0  0  0  0  0  0
   24.7893  -33.6397  -10.5288 C   0  0  2  0  0  0  0  0  0  0  0  0
   26.0727  -33.4966  -11.1797 N   0  0  0  0  0  0  0  0  0  0  0  0
   24.6678  -32.8371   -9.3091 C   0  0  0  0  0  0  0  0  0  0  0  0
   24.1617  -31.6902   -9.3776 O   0  0  0  0  0  0  0  0  0  0  0  0
   25.0982  -33.2898   -8.0255 N   0  0  0  0  0  0  0  0  0  0  0  0
   24.9043  -32.4568   -6.8552 C   0  0  0  0  0  0  0  0  0  0  0  0
   25.4755  -33.0855   -5.6415 C   0  0  0  0  0  0  0  0  0  0  0  0
   25.3913  -32.5650   -4.5025 O   0  0  0  0  0  0  0  0  0  0  0  0
   26.1437  -34.3278   -5.7823 N   0  0  0  0  0  0  0  0  0  0  0  0
   26.8697  -34.8770   -4.6529 C   0  0  0  0  0  0  0  0  0  0  0  0
   25.9246  -35.6318   -3.7740 C   0  0  0  0  0  0  0  0  0  0  0  0
   24.6929  -35.5395   -3.9635 O   0  0  0  0  0  0  0  0  0  0  0  0
   26.3713  -36.4378   -2.7468 O   0  0  0  0  0  0  0  0  0  0  0  0
  2  4  1  0
  2  1  1  6
  3  2  1  0
  4  5  1  1
  6  7  2  0
  6  4  1  0
  8  6  1  0
  9  8  1  0
 10 12  1  0
 10  9  1  0
 11 10  2  0
 13 12  1  0
 13 14  1  0
 14 16  1  0
 15 14  2  0
M  END
$$$$
