TGG.pdb
     RDKit          3D

 16 15  0  0  1  0  0  0  0  0999 V2000
   23.3926  -12.0114  -17.9276 C   0  0  0  0  0  0  0  0  0  0  0  0
   22.4478  -10.9029  -18.3385 C   0  0  1  0  0  0  0  0  0  0  0  0
   22.0116  -11.2286  -19.6297 O   0  0  0  0  0  0  0  0  0  0  0  0
   21.2876  -10.8846  -17.3626 C   0  0  2  0  0  0  0  0  0  0  0  0
   20.2486  -10.0346  -17.9003 N   0  0  0  0  0  0  0  0  0  0  0  0
   21.7356  -10.4756  -16.0290 C   0  0  0  0  0  0  0  0  0  0  0  0
   22.3924  -11.2841  -15.3280 O   0  0  0  0  0  0  0  0  0  0  0  0
   21.4649   -9.1904  -15.4699 N   0  0  0  0  0  0  0  0  0  0  0  0
   21.9813   -8.8403  -14.1614 C   0  0  0  0  0  0  0  0  0  0  0  0
   21.6738   -7.4329  -13.8161 C   0  0  0  0  0  0  0  0  0  0  0  0
   21.9281   -6.9380  -12.6910 O   0  0  0  0  0  0  0  0  0  0  0  0
   21.0668   -6.6181  -14.8045 N   0  0  0  0  0  0  0  0  0  0  0  0
   20.8347   -5.2138  -14.5248 C   0  0  0  0  0  0  0  0  0  0  0  0
   22.1141   -4.4570  -14.6856 C   0  0  0  0  0  0  0  0  0  0  0  0
   22.1079   -3.2086  -14.6291 O   0  0  0  0  0  0  0  0  0  0  0  0
   23.3178   -5.0977  -14.8971 O   0  0  0  0  0  0  0  0  0  0  0  0
  2  4  1  0
  2  1  1  1
  3  2  1  0
  4  5  1  6
  6  7  2  0
  6  4  1  0
  8  6  1  0
  9  8  1  0
 10 12  1  0
 10  9  1  0
 11 10  2  0
 13 12  1  0
 13 14  1  0
 14 16  1  0
 15 14  2  0
M  END
$$$$
