MNK.pdb
     RDKit          3D

 26 25  0  0  1  0  0  0  0  0999 V2000
   28.1398  -18.9201   -5.1623 C   0  0  0  0  0  0  0  0  0  0  0  0
   27.2711  -19.7740   -6.4750 S   0  0  0  0  0  0  0  0  0  0  0  0
   28.4614  -20.3248   -7.7502 C   0  0  0  0  0  0  0  0  0  0  0  0
   27.6995  -20.9928   -8.8703 C   0  0  0  0  0  0  0  0  0  0  0  0
   26.4388  -20.3084   -9.2673 C   0  0  2  0  0  0  0  0  0  0  0  0
   25.3489  -20.7186   -8.3937 N   0  0  0  0  0  0  0  0  0  0  0  0
   26.1306  -20.6517  -10.6888 C   0  0  0  0  0  0  0  0  0  0  0  0
   26.9513  -20.3396  -11.5880 O   0  0  0  0  0  0  0  0  0  0  0  0
   25.1503  -24.6735  -14.3495 N   0  0  0  0  0  0  0  0  0  0  0  0
   24.5730  -23.3855  -14.0422 C   0  0  0  0  0  0  0  0  0  0  0  0
   24.3957  -22.5649  -14.9696 O   0  0  0  0  0  0  0  0  0  0  0  0
   24.2071  -23.0671  -12.6599 C   0  0  0  0  0  0  0  0  0  0  0  0
   24.4520  -21.5985  -12.3516 C   0  0  2  0  0  0  0  0  0  0  0  0
   24.9303  -21.3238  -11.0421 N   0  0  0  0  0  0  0  0  0  0  0  0
   23.3759  -20.7024  -12.8112 C   0  0  0  0  0  0  0  0  0  0  0  0
   22.3795  -20.4386  -12.0752 O   0  0  0  0  0  0  0  0  0  0  0  0
   23.3722  -20.0794  -14.0887 N   0  0  0  0  0  0  0  0  0  0  0  0
   22.3043  -19.1660  -14.5118 C   0  0  1  0  0  0  0  0  0  0  0  0
   22.7245  -18.3737  -15.6985 C   0  0  0  0  0  0  0  0  0  0  0  0
   21.8064  -17.2659  -16.1052 C   0  0  0  0  0  0  0  0  0  0  0  0
   22.3153  -16.5031  -17.3159 C   0  0  0  0  0  0  0  0  0  0  0  0
   21.4527  -15.3148  -17.6488 C   0  0  0  0  0  0  0  0  0  0  0  0
   22.0371  -14.6344  -18.8073 N   0  0  0  0  0  0  0  0  0  0  0  0
   21.0618  -19.9255  -14.7664 C   0  0  0  0  0  0  0  0  0  0  0  0
   21.0991  -21.0530  -15.2940 O   0  0  0  0  0  0  0  0  0  0  0  0
   19.8356  -19.3441  -14.3995 O   0  0  0  0  0  0  0  0  0  0  0  0
  2  1  1  0
  3  2  1  0
  4  3  1  0
  4  5  1  0
  5  7  1  0
  5  6  1  1
  7  8  2  0
 10  9  1  0
 11 10  2  0
 13 12  1  1
 12 10  1  0
 14 13  1  0
 14  7  1  0
 15 17  1  0
 15 13  1  0
 16 15  2  0
 18 17  1  0
 18 19  1  6
 19 20  1  0
 21 20  1  0
 22 21  1  0
 23 22  1  0
 24 26  1  0
 24 18  1  0
 25 24  2  0
M  END
$$$$
