MNK.pdb
     RDKit          3D

 26 25  0  0  1  0  0  0  0  0999 V2000
   29.3259  -20.2198  -13.6917 C   0  0  0  0  0  0  0  0  0  0  0  0
   29.5274  -20.5528  -11.9437 S   0  0  0  0  0  0  0  0  0  0  0  0
   27.9778  -21.2458  -11.2620 C   0  0  0  0  0  0  0  0  0  0  0  0
   26.8121  -20.6998  -12.0522 C   0  0  0  0  0  0  0  0  0  0  0  0
   25.4737  -21.1734  -11.6050 C   0  0  2  0  0  0  0  0  0  0  0  0
   25.5297  -22.5881  -11.2663 N   0  0  0  0  0  0  0  0  0  0  0  0
   24.4864  -20.9341  -12.7010 C   0  0  0  0  0  0  0  0  0  0  0  0
   24.6640  -19.9706  -13.4883 O   0  0  0  0  0  0  0  0  0  0  0  0
   23.4074  -24.0169  -16.3750 N   0  0  0  0  0  0  0  0  0  0  0  0
   23.8114  -22.9474  -15.4921 C   0  0  0  0  0  0  0  0  0  0  0  0
   24.9034  -23.0404  -14.8890 O   0  0  0  0  0  0  0  0  0  0  0  0
   22.9414  -21.7812  -15.3218 C   0  0  0  0  0  0  0  0  0  0  0  0
   22.3852  -21.7130  -13.9083 C   0  0  2  0  0  0  0  0  0  0  0  0
   23.3537  -21.7740  -12.8703 N   0  0  0  0  0  0  0  0  0  0  0  0
   21.1989  -22.5600  -13.6898 C   0  0  0  0  0  0  0  0  0  0  0  0
   21.1265  -23.7288  -14.1723 O   0  0  0  0  0  0  0  0  0  0  0  0
   20.0682  -22.1396  -12.9382 N   0  0  0  0  0  0  0  0  0  0  0  0
   19.1669  -23.0922  -12.2797 C   0  0  1  0  0  0  0  0  0  0  0  0
   19.4050  -23.1184  -10.8116 C   0  0  0  0  0  0  0  0  0  0  0  0
   18.5171  -24.0241  -10.0200 C   0  0  0  0  0  0  0  0  0  0  0  0
   18.8172  -23.9784   -8.5319 C   0  0  0  0  0  0  0  0  0  0  0  0
   17.8855  -24.8498   -7.7322 C   0  0  0  0  0  0  0  0  0  0  0  0
   18.2378  -24.7188   -6.3161 N   0  0  0  0  0  0  0  0  0  0  0  0
   17.7623  -22.7664  -12.6059 C   0  0  0  0  0  0  0  0  0  0  0  0
   16.8368  -23.5349  -12.2832 O   0  0  0  0  0  0  0  0  0  0  0  0
   17.4954  -21.5682  -13.2908 O   0  0  0  0  0  0  0  0  0  0  0  0
  2  1  1  0
  3  2  1  0
  4  3  1  0
  4  5  1  0
  5  7  1  0
  5  6  1  6
  7  8  2  0
 10  9  1  0
 11 10  2  0
 13 12  1  6
 12 10  1  0
 14 13  1  0
 14  7  1  0
 15 17  1  0
 15 13  1  0
 16 15  2  0
 18 17  1  0
 18 19  1  1
 19 20  1  0
 21 20  1  0
 22 21  1  0
 23 22  1  0
 24 26  1  0
 24 18  1  0
 25 24  2  0
M  END
$$$$
