MNK.pdb
     RDKit          3D

 26 25  0  0  1  0  0  0  0  0999 V2000
   28.7528  -19.1922   -4.1871 C   0  0  0  0  0  0  0  0  0  0  0  0
   28.6056  -19.9319   -5.8114 S   0  0  0  0  0  0  0  0  0  0  0  0
   27.3898  -18.9983   -6.8097 C   0  0  0  0  0  0  0  0  0  0  0  0
   27.2865  -19.6389   -8.1737 C   0  0  0  0  0  0  0  0  0  0  0  0
   25.9415  -20.1784   -8.5136 C   0  0  2  0  0  0  0  0  0  0  0  0
   25.5972  -21.2702   -7.6144 N   0  0  0  0  0  0  0  0  0  0  0  0
   25.9552  -20.6497   -9.9316 C   0  0  0  0  0  0  0  0  0  0  0  0
   26.3023  -21.8311  -10.1831 O   0  0  0  0  0  0  0  0  0  0  0  0
   25.7295  -23.7404  -12.1559 N   0  0  0  0  0  0  0  0  0  0  0  0
   25.8767  -22.4973  -12.8767 C   0  0  0  0  0  0  0  0  0  0  0  0
   26.8640  -22.3477  -13.6300 O   0  0  0  0  0  0  0  0  0  0  0  0
   24.8729  -21.4428  -12.7141 C   0  0  0  0  0  0  0  0  0  0  0  0
   25.5254  -20.1103  -12.3819 C   0  0  2  0  0  0  0  0  0  0  0  0
   25.5829  -19.7896  -10.9988 N   0  0  0  0  0  0  0  0  0  0  0  0
   25.0962  -18.9998  -13.2509 C   0  0  0  0  0  0  0  0  0  0  0  0
   23.9645  -18.4500  -13.1059 O   0  0  0  0  0  0  0  0  0  0  0  0
   25.9009  -18.4723  -14.2970 N   0  0  0  0  0  0  0  0  0  0  0  0
   25.4318  -17.3990  -15.1810 C   0  0  1  0  0  0  0  0  0  0  0  0
   26.5645  -16.8063  -15.9415 C   0  0  0  0  0  0  0  0  0  0  0  0
   26.2315  -15.6299  -16.8020 C   0  0  0  0  0  0  0  0  0  0  0  0
   27.4511  -15.0584  -17.5038 C   0  0  0  0  0  0  0  0  0  0  0  0
   27.1117  -13.8748  -18.3704 C   0  0  0  0  0  0  0  0  0  0  0  0
   28.3512  -13.3774  -18.9728 N   0  0  0  0  0  0  0  0  0  0  0  0
   24.3720  -17.9093  -16.0764 C   0  0  0  0  0  0  0  0  0  0  0  0
   24.4768  -19.0255  -16.6188 O   0  0  0  0  0  0  0  0  0  0  0  0
   23.2424  -17.1038  -16.3026 O   0  0  0  0  0  0  0  0  0  0  0  0
  2  1  1  0
  3  2  1  0
  4  3  1  0
  4  5  1  0
  5  7  1  0
  5  6  1  1
  7  8  2  0
 10  9  1  0
 11 10  2  0
 13 12  1  1
 12 10  1  0
 14 13  1  0
 14  7  1  0
 15 17  1  0
 15 13  1  0
 16 15  2  0
 18 17  1  0
 18 19  1  6
 19 20  1  0
 21 20  1  0
 22 21  1  0
 23 22  1  0
 24 26  1  0
 24 18  1  0
 25 24  2  0
M  END
$$$$
