MNK.pdb
     RDKit          3D

 26 25  0  0  1  0  0  0  0  0999 V2000
   29.6438  -21.1854   -8.7772 C   0  0  0  0  0  0  0  0  0  0  0  0
   30.7014  -22.2530   -9.7513 S   0  0  0  0  0  0  0  0  0  0  0  0
   30.5332  -21.8405  -11.5256 C   0  0  0  0  0  0  0  0  0  0  0  0
   29.2384  -21.0901  -11.7297 C   0  0  0  0  0  0  0  0  0  0  0  0
   28.3706  -21.6196  -12.8169 C   0  0  2  0  0  0  0  0  0  0  0  0
   29.1443  -21.7897  -14.0382 N   0  0  0  0  0  0  0  0  0  0  0  0
   27.2405  -20.6673  -13.0390 C   0  0  0  0  0  0  0  0  0  0  0  0
   26.5474  -20.2970  -12.0582 O   0  0  0  0  0  0  0  0  0  0  0  0
   28.6300  -17.6935  -16.0790 N   0  0  0  0  0  0  0  0  0  0  0  0
   27.3907  -17.4939  -15.3641 C   0  0  0  0  0  0  0  0  0  0  0  0
   27.3582  -16.6635  -14.4292 O   0  0  0  0  0  0  0  0  0  0  0  0
   26.2029  -18.2617  -15.7458 C   0  0  0  0  0  0  0  0  0  0  0  0
   25.8666  -19.3100  -14.6971 C   0  0  2  0  0  0  0  0  0  0  0  0
   26.9360  -20.1728  -14.3351 N   0  0  0  0  0  0  0  0  0  0  0  0
   24.5793  -19.9915  -14.9227 C   0  0  0  0  0  0  0  0  0  0  0  0
   24.5181  -21.0953  -15.5409 O   0  0  0  0  0  0  0  0  0  0  0  0
   23.3337  -19.4736  -14.4749 N   0  0  0  0  0  0  0  0  0  0  0  0
   22.0651  -20.1739  -14.7070 C   0  0  1  0  0  0  0  0  0  0  0  0
   20.9422  -19.4745  -14.0270 C   0  0  0  0  0  0  0  0  0  0  0  0
   20.1191  -18.5683  -14.8853 C   0  0  0  0  0  0  0  0  0  0  0  0
   18.9194  -17.9993  -14.1479 C   0  0  0  0  0  0  0  0  0  0  0  0
   18.1049  -17.0707  -15.0090 C   0  0  0  0  0  0  0  0  0  0  0  0
   17.0146  -16.5285  -14.1942 N   0  0  0  0  0  0  0  0  0  0  0  0
   21.8271  -20.3197  -16.1587 C   0  0  0  0  0  0  0  0  0  0  0  0
   22.3159  -19.5115  -16.9705 O   0  0  0  0  0  0  0  0  0  0  0  0
   21.0343  -21.3927  -16.6019 O   0  0  0  0  0  0  0  0  0  0  0  0
  2  1  1  0
  3  2  1  0
  4  3  1  0
  4  5  1  0
  5  7  1  0
  5  6  1  6
  7  8  2  0
 10  9  1  0
 11 10  2  0
 13 12  1  6
 12 10  1  0
 14 13  1  0
 14  7  1  0
 15 17  1  0
 15 13  1  0
 16 15  2  0
 18 17  1  0
 18 19  1  6
 19 20  1  0
 21 20  1  0
 22 21  1  0
 23 22  1  0
 24 26  1  0
 24 18  1  0
 25 24  2  0
M  END
$$$$
