MNK.pdb
     RDKit          3D

 26 25  0  0  1  0  0  0  0  0999 V2000
   27.1084  -20.0874   -6.1103 C   0  0  0  0  0  0  0  0  0  0  0  0
   28.7731  -19.7058   -6.6488 S   0  0  0  0  0  0  0  0  0  0  0  0
   28.8939  -19.8867   -8.4652 C   0  0  0  0  0  0  0  0  0  0  0  0
   27.7693  -20.7758   -8.9410 C   0  0  0  0  0  0  0  0  0  0  0  0
   27.7373  -21.0157  -10.4097 C   0  0  2  0  0  0  0  0  0  0  0  0
   27.6297  -19.7509  -11.1223 N   0  0  0  0  0  0  0  0  0  0  0  0
   26.5751  -21.8993  -10.7288 C   0  0  0  0  0  0  0  0  0  0  0  0
   26.3805  -22.9316  -10.0388 O   0  0  0  0  0  0  0  0  0  0  0  0
   22.1962  -20.5755   -9.2325 N   0  0  0  0  0  0  0  0  0  0  0  0
   23.5915  -20.8506   -9.4856 C   0  0  0  0  0  0  0  0  0  0  0  0
   24.1386  -21.8034   -8.8876 O   0  0  0  0  0  0  0  0  0  0  0  0
   24.3342  -20.0153  -10.4325 C   0  0  0  0  0  0  0  0  0  0  0  0
   24.5521  -20.7407  -11.7508 C   0  0  2  0  0  0  0  0  0  0  0  0
   25.6871  -21.5945  -11.7946 N   0  0  0  0  0  0  0  0  0  0  0  0
   24.3821  -19.8865  -12.9399 C   0  0  0  0  0  0  0  0  0  0  0  0
   23.3339  -19.1963  -13.1102 O   0  0  0  0  0  0  0  0  0  0  0  0
   25.3592  -19.7746  -13.9660 N   0  0  0  0  0  0  0  0  0  0  0  0
   25.2236  -18.8253  -15.0768 C   0  0  1  0  0  0  0  0  0  0  0  0
   26.5513  -18.2903  -15.4812 C   0  0  0  0  0  0  0  0  0  0  0  0
   26.5555  -17.3696  -16.6592 C   0  0  0  0  0  0  0  0  0  0  0  0
   27.9554  -16.9248  -17.0453 C   0  0  0  0  0  0  0  0  0  0  0  0
   27.9491  -15.9244  -18.1705 C   0  0  0  0  0  0  0  0  0  0  0  0
   29.3191  -15.4418  -18.3624 N   0  0  0  0  0  0  0  0  0  0  0  0
   24.5193  -19.4677  -16.2068 C   0  0  0  0  0  0  0  0  0  0  0  0
   23.9469  -18.7826  -17.0752 O   0  0  0  0  0  0  0  0  0  0  0  0
   24.5098  -20.8716  -16.2776 O   0  0  0  0  0  0  0  0  0  0  0  0
  2  1  1  0
  3  2  1  0
  4  3  1  0
  4  5  1  0
  5  7  1  0
  5  6  1  6
  7  8  2  0
 10  9  1  0
 11 10  2  0
 13 12  1  1
 12 10  1  0
 14 13  1  0
 14  7  1  0
 15 17  1  0
 15 13  1  0
 16 15  2  0
 18 17  1  0
 18 19  1  6
 19 20  1  0
 21 20  1  0
 22 21  1  0
 23 22  1  0
 24 26  1  0
 24 18  1  0
 25 24  2  0
M  END
$$$$
