FAQ.pdb
     RDKit          3D

 26 26  0  0  1  0  0  0  0  0999 V2000
    6.8891  -17.2058   25.8229 N   0  0  0  0  0  0  0  0  0  0  0  0
    7.1228  -15.9634   25.1155 C   0  0  1  0  0  0  0  0  0  0  0  0
    8.1852  -15.1408   25.8333 C   0  0  0  0  0  0  0  0  0  0  0  0
    7.6002  -13.8231   26.1986 C   0  0  0  0  0  0  0  0  0  0  0  0
    7.5630  -13.3736   27.5051 C   0  0  0  0  0  0  0  0  0  0  0  0
    7.0252  -12.1558   27.8640 C   0  0  0  0  0  0  0  0  0  0  0  0
    6.4929  -11.3265   26.8990 C   0  0  0  0  0  0  0  0  0  0  0  0
    6.5286  -11.7720   25.5943 C   0  0  0  0  0  0  0  0  0  0  0  0
    7.0669  -12.9908   25.2363 C   0  0  0  0  0  0  0  0  0  0  0  0
    7.4742  -16.2199   23.7159 C   0  0  0  0  0  0  0  0  0  0  0  0
    7.7873  -17.3910   23.3698 O   0  0  0  0  0  0  0  0  0  0  0  0
    7.4540  -14.3999   20.4060 C   0  0  0  0  0  0  0  0  0  0  0  0
    7.7724  -15.5504   21.3327 C   0  0  2  0  0  0  0  0  0  0  0  0
    7.4842  -15.2201   22.7139 N   0  0  0  0  0  0  0  0  0  0  0  0
    9.1941  -15.9370   21.1466 C   0  0  0  0  0  0  0  0  0  0  0  0
    9.6395  -16.3701   20.0534 O   0  0  0  0  0  0  0  0  0  0  0  0
   13.6519  -13.7791   18.5361 N   0  0  0  0  0  0  0  0  0  0  0  0
   13.6061  -14.6812   19.6314 C   0  0  0  0  0  0  0  0  0  0  0  0
   14.6844  -15.2135   19.9921 O   0  0  0  0  0  0  0  0  0  0  0  0
   12.3073  -14.9339   20.2708 C   0  0  0  0  0  0  0  0  0  0  0  0
   12.3938  -15.1692   21.7391 C   0  0  0  0  0  0  0  0  0  0  0  0
   11.4356  -16.2852   22.1083 C   0  0  2  0  0  0  0  0  0  0  0  0
   10.0767  -15.8133   22.2378 N   0  0  0  0  0  0  0  0  0  0  0  0
   11.8164  -16.9053   23.4141 C   0  0  0  0  0  0  0  0  0  0  0  0
   13.0519  -17.5575   23.5861 O   0  0  0  0  0  0  0  0  0  0  0  0
   11.0665  -16.8759   24.4050 O   0  0  0  0  0  0  0  0  0  0  0  0
  2  1  1  1
  2  3  1  0
  2 10  1  0
  3  4  1  0
  4  5  2  0
  4  9  1  0
  5  6  1  0
  6  7  2  0
  8  7  1  0
  9  8  2  0
 10 11  2  0
 13 12  1  6
 14 13  1  0
 14 10  1  0
 15 16  2  0
 15 13  1  0
 17 18  1  0
 18 20  1  0
 19 18  2  0
 20 21  1  0
 22 21  1  1
 22 24  1  0
 22 23  1  0
 23 15  1  0
 24 25  1  0
 26 24  2  0
M  END
$$$$
