FAQ.pdb
     RDKit          3D

 26 26  0  0  1  0  0  0  0  0999 V2000
   10.6501  -17.0721   21.8355 N   0  0  0  0  0  0  0  0  0  0  0  0
    9.6818  -16.0083   22.0067 C   0  0  1  0  0  0  0  0  0  0  0  0
    8.4001  -16.3366   21.2516 C   0  0  0  0  0  0  0  0  0  0  0  0
    7.9435  -15.1155   20.5358 C   0  0  0  0  0  0  0  0  0  0  0  0
    6.9333  -14.3110   21.0281 C   0  0  0  0  0  0  0  0  0  0  0  0
    6.4959  -13.1754   20.3798 C   0  0  0  0  0  0  0  0  0  0  0  0
    7.0725  -12.7991   19.1847 C   0  0  0  0  0  0  0  0  0  0  0  0
    8.0809  -13.5998   18.6907 C   0  0  0  0  0  0  0  0  0  0  0  0
    8.5178  -14.7359   19.3403 C   0  0  0  0  0  0  0  0  0  0  0  0
    9.4357  -15.7527   23.4288 C   0  0  0  0  0  0  0  0  0  0  0  0
   10.1212  -16.3706   24.2876 O   0  0  0  0  0  0  0  0  0  0  0  0
    7.2944  -13.5016   25.5899 C   0  0  0  0  0  0  0  0  0  0  0  0
    8.2967  -14.6009   25.3242 C   0  0  2  0  0  0  0  0  0  0  0  0
    8.4622  -14.8421   23.9049 N   0  0  0  0  0  0  0  0  0  0  0  0
    7.8654  -15.8272   26.0420 C   0  0  0  0  0  0  0  0  0  0  0  0
    7.7144  -15.8625   27.2899 O   0  0  0  0  0  0  0  0  0  0  0  0
    7.4155  -22.0597   23.4338 N   0  0  0  0  0  0  0  0  0  0  0  0
    6.6337  -20.8749   23.4088 C   0  0  0  0  0  0  0  0  0  0  0  0
    5.5122  -20.9298   22.8471 O   0  0  0  0  0  0  0  0  0  0  0  0
    7.1826  -19.6656   24.0380 C   0  0  0  0  0  0  0  0  0  0  0  0
    6.2630  -19.0268   25.0203 C   0  0  0  0  0  0  0  0  0  0  0  0
    7.0818  -18.1616   25.9589 C   0  0  2  0  0  0  0  0  0  0  0  0
    7.6160  -16.9955   25.2950 N   0  0  0  0  0  0  0  0  0  0  0  0
    8.2403  -18.9256   26.5147 C   0  0  0  0  0  0  0  0  0  0  0  0
    9.5638  -18.6351   26.1337 O   0  0  0  0  0  0  0  0  0  0  0  0
    8.0931  -19.8483   27.3346 O   0  0  0  0  0  0  0  0  0  0  0  0
  2  1  1  1
  2  3  1  0
  2 10  1  0
  3  4  1  0
  4  5  2  0
  4  9  1  0
  5  6  1  0
  6  7  2  0
  8  7  1  0
  9  8  2  0
 10 11  2  0
 13 12  1  6
 14 13  1  0
 14 10  1  0
 15 16  2  0
 15 13  1  0
 17 18  1  0
 18 20  1  0
 19 18  2  0
 20 21  1  0
 22 21  1  6
 22 24  1  0
 22 23  1  0
 23 15  1  0
 24 25  1  0
 26 24  2  0
M  END
$$$$
