FAQ.pdb
     RDKit          3D

 26 26  0  0  1  0  0  0  0  0999 V2000
    6.5038  -16.5209   25.4423 N   0  0  0  0  0  0  0  0  0  0  0  0
    7.1327  -15.3689   24.8291 C   0  0  1  0  0  0  0  0  0  0  0  0
    8.2964  -14.8863   25.6856 C   0  0  0  0  0  0  0  0  0  0  0  0
    7.8968  -13.6243   26.3637 C   0  0  0  0  0  0  0  0  0  0  0  0
    8.6301  -13.0865   27.4044 C   0  0  0  0  0  0  0  0  0  0  0  0
    8.2765  -11.9182   28.0456 C   0  0  0  0  0  0  0  0  0  0  0  0
    7.1457  -11.2326   27.6540 C   0  0  0  0  0  0  0  0  0  0  0  0
    6.4116  -11.7666   26.6157 C   0  0  0  0  0  0  0  0  0  0  0  0
    6.7665  -12.9357   25.9748 C   0  0  0  0  0  0  0  0  0  0  0  0
    7.5451  -15.6710   23.4555 C   0  0  0  0  0  0  0  0  0  0  0  0
    7.8516  -16.8568   23.1569 O   0  0  0  0  0  0  0  0  0  0  0  0
    7.9044  -13.9088   20.1274 C   0  0  0  0  0  0  0  0  0  0  0  0
    8.0707  -15.0559   21.0971 C   0  0  2  0  0  0  0  0  0  0  0  0
    7.6220  -14.7001   22.4282 N   0  0  0  0  0  0  0  0  0  0  0  0
    9.4926  -15.4844   21.0941 C   0  0  0  0  0  0  0  0  0  0  0  0
   10.3698  -14.9216   21.7975 O   0  0  0  0  0  0  0  0  0  0  0  0
   13.5595  -13.9777   17.6522 N   0  0  0  0  0  0  0  0  0  0  0  0
   14.1656  -14.7208   18.6991 C   0  0  0  0  0  0  0  0  0  0  0  0
   15.3229  -14.3878   19.0542 O   0  0  0  0  0  0  0  0  0  0  0  0
   13.4052  -15.8265   19.2981 C   0  0  0  0  0  0  0  0  0  0  0  0
   11.9477  -15.5514   19.4347 C   0  0  0  0  0  0  0  0  0  0  0  0
   11.2718  -16.7876   19.9957 C   0  0  2  0  0  0  0  0  0  0  0  0
    9.8718  -16.5631   20.2710 N   0  0  0  0  0  0  0  0  0  0  0  0
   11.9137  -17.2115   21.2775 C   0  0  0  0  0  0  0  0  0  0  0  0
   11.1501  -17.6837   22.3616 O   0  0  0  0  0  0  0  0  0  0  0  0
   13.1443  -17.1683   21.4479 O   0  0  0  0  0  0  0  0  0  0  0  0
  2  1  1  1
  2  3  1  0
  2 10  1  0
  3  4  1  0
  4  5  2  0
  4  9  1  0
  5  6  1  0
  6  7  2  0
  8  7  1  0
  9  8  2  0
 10 11  2  0
 13 12  1  6
 14 13  1  0
 14 10  1  0
 15 16  2  0
 15 13  1  0
 17 18  1  0
 18 20  1  0
 19 18  2  0
 20 21  1  0
 22 21  1  1
 22 24  1  0
 22 23  1  0
 23 15  1  0
 24 25  1  0
 26 24  2  0
M  END
$$$$
