FAQ.pdb
     RDKit          3D

 26 26  0  0  1  0  0  0  0  0999 V2000
    8.6344  -14.7683   23.2613 N   0  0  0  0  0  0  0  0  0  0  0  0
    8.0458  -15.4144   24.4166 C   0  0  1  0  0  0  0  0  0  0  0  0
    6.5974  -14.9732   24.5855 C   0  0  0  0  0  0  0  0  0  0  0  0
    6.5787  -13.6559   25.2756 C   0  0  0  0  0  0  0  0  0  0  0  0
    5.9382  -13.4708   26.4862 C   0  0  0  0  0  0  0  0  0  0  0  0
    5.9095  -12.2580   27.1416 C   0  0  0  0  0  0  0  0  0  0  0  0
    6.5389  -11.1618   26.5899 C   0  0  0  0  0  0  0  0  0  0  0  0
    7.1790  -11.3432   25.3819 C   0  0  0  0  0  0  0  0  0  0  0  0
    7.2072  -12.5572   24.7269 C   0  0  0  0  0  0  0  0  0  0  0  0
    8.1722  -16.8713   24.3185 C   0  0  0  0  0  0  0  0  0  0  0  0
    7.6679  -17.5901   25.2231 O   0  0  0  0  0  0  0  0  0  0  0  0
    8.7798  -19.5225   21.8306 C   0  0  0  0  0  0  0  0  0  0  0  0
    8.9481  -18.9756   23.2293 C   0  0  2  0  0  0  0  0  0  0  0  0
    8.8349  -17.5312   23.2559 N   0  0  0  0  0  0  0  0  0  0  0  0
   10.2536  -19.4332   23.7695 C   0  0  0  0  0  0  0  0  0  0  0  0
   10.5655  -20.6491   23.8446 O   0  0  0  0  0  0  0  0  0  0  0  0
   14.6524  -15.9717   22.1192 N   0  0  0  0  0  0  0  0  0  0  0  0
   14.5313  -15.9713   23.5338 C   0  0  0  0  0  0  0  0  0  0  0  0
   15.3714  -15.3076   24.1894 O   0  0  0  0  0  0  0  0  0  0  0  0
   13.4367  -16.7432   24.1386 C   0  0  0  0  0  0  0  0  0  0  0  0
   13.6147  -18.2189   24.0421 C   0  0  0  0  0  0  0  0  0  0  0  0
   12.4517  -18.8941   24.7431 C   0  0  2  0  0  0  0  0  0  0  0  0
   11.1773  -18.4669   24.2144 N   0  0  0  0  0  0  0  0  0  0  0  0
   12.4540  -18.5794   26.2045 C   0  0  0  0  0  0  0  0  0  0  0  0
   13.5037  -18.9953   27.0448 O   0  0  0  0  0  0  0  0  0  0  0  0
   11.5358  -17.9396   26.7456 O   0  0  0  0  0  0  0  0  0  0  0  0
  2  1  1  6
  2  3  1  0
  2 10  1  0
  3  4  1  0
  4  5  2  0
  4  9  1  0
  5  6  1  0
  6  7  2  0
  8  7  1  0
  9  8  2  0
 10 11  2  0
 13 12  1  6
 14 13  1  0
 14 10  1  0
 15 16  2  0
 15 13  1  0
 17 18  1  0
 18 20  1  0
 19 18  2  0
 20 21  1  0
 22 21  1  6
 22 24  1  0
 22 23  1  0
 23 15  1  0
 24 25  1  0
 26 24  2  0
M  END
$$$$
