FAQ.pdb
     RDKit          3D

 26 26  0  0  1  0  0  0  0  0999 V2000
    6.3979  -16.3933   25.8165 N   0  0  0  0  0  0  0  0  0  0  0  0
    7.3356  -15.9894   24.7888 C   0  0  1  0  0  0  0  0  0  0  0  0
    8.4060  -15.0810   25.3804 C   0  0  0  0  0  0  0  0  0  0  0  0
    7.7805  -13.7805   25.7402 C   0  0  0  0  0  0  0  0  0  0  0  0
    7.5280  -13.4256   27.0518 C   0  0  0  0  0  0  0  0  0  0  0  0
    6.9492  -12.2252   27.4057 C   0  0  0  0  0  0  0  0  0  0  0  0
    6.5952  -11.3170   26.4300 C   0  0  0  0  0  0  0  0  0  0  0  0
    6.8460  -11.6680   25.1201 C   0  0  0  0  0  0  0  0  0  0  0  0
    7.4252  -12.8694   24.7671 C   0  0  0  0  0  0  0  0  0  0  0  0
    7.9114  -17.1600   24.1208 C   0  0  0  0  0  0  0  0  0  0  0  0
    8.1364  -18.1997   24.7973 O   0  0  0  0  0  0  0  0  0  0  0  0
    8.4967  -18.5384   20.7108 C   0  0  0  0  0  0  0  0  0  0  0  0
    8.8846  -18.3531   22.1596 C   0  0  2  0  0  0  0  0  0  0  0  0
    8.2352  -17.1966   22.7432 N   0  0  0  0  0  0  0  0  0  0  0  0
   10.3636  -18.2560   22.2517 C   0  0  0  0  0  0  0  0  0  0  0  0
   11.1297  -19.1299   21.7717 O   0  0  0  0  0  0  0  0  0  0  0  0
   11.8400  -13.6857   19.3851 N   0  0  0  0  0  0  0  0  0  0  0  0
   12.7535  -14.2189   20.3320 C   0  0  0  0  0  0  0  0  0  0  0  0
   13.7769  -13.5421   20.5980 O   0  0  0  0  0  0  0  0  0  0  0  0
   12.4459  -15.5219   20.9382 C   0  0  0  0  0  0  0  0  0  0  0  0
   12.7748  -15.6048   22.3885 C   0  0  0  0  0  0  0  0  0  0  0  0
   12.3630  -16.9713   22.9014 C   0  0  2  0  0  0  0  0  0  0  0  0
   10.9287  -17.1413   22.9021 N   0  0  0  0  0  0  0  0  0  0  0  0
   12.8352  -17.1792   24.3044 C   0  0  0  0  0  0  0  0  0  0  0  0
   11.9293  -17.3051   25.3744 O   0  0  0  0  0  0  0  0  0  0  0  0
   14.0421  -17.2505   24.5933 O   0  0  0  0  0  0  0  0  0  0  0  0
  2  1  1  1
  2  3  1  0
  2 10  1  0
  3  4  1  0
  4  5  2  0
  4  9  1  0
  5  6  1  0
  6  7  2  0
  8  7  1  0
  9  8  2  0
 10 11  2  0
 13 12  1  6
 14 13  1  0
 14 10  1  0
 15 16  2  0
 15 13  1  0
 17 18  1  0
 18 20  1  0
 19 18  2  0
 20 21  1  0
 22 21  1  1
 22 24  1  0
 22 23  1  0
 23 15  1  0
 24 25  1  0
 26 24  2  0
M  END
$$$$
