FAQ.pdb
     RDKit          3D

 26 26  0  0  1  0  0  0  0  0999 V2000
    6.1934  -17.3211   25.5544 N   0  0  0  0  0  0  0  0  0  0  0  0
    6.6705  -16.0695   25.0024 C   0  0  1  0  0  0  0  0  0  0  0  0
    7.8188  -15.5269   25.8436 C   0  0  0  0  0  0  0  0  0  0  0  0
    7.4391  -14.1838   26.3572 C   0  0  0  0  0  0  0  0  0  0  0  0
    8.2769  -13.4458   27.1717 C   0  0  0  0  0  0  0  0  0  0  0  0
    7.9434  -12.1994   27.6579 C   0  0  0  0  0  0  0  0  0  0  0  0
    6.7262  -11.6370   27.3347 C   0  0  0  0  0  0  0  0  0  0  0  0
    5.8877  -12.3709   26.5221 C   0  0  0  0  0  0  0  0  0  0  0  0
    6.2225  -13.6180   26.0361 C   0  0  0  0  0  0  0  0  0  0  0  0
    7.0447  -16.2310   23.5945 C   0  0  0  0  0  0  0  0  0  0  0  0
    7.0724  -17.3899   23.0992 O   0  0  0  0  0  0  0  0  0  0  0  0
    7.6516  -14.0617   20.5665 C   0  0  0  0  0  0  0  0  0  0  0  0
    7.6387  -15.3637   21.3336 C   0  0  2  0  0  0  0  0  0  0  0  0
    7.3818  -15.1510   22.7438 N   0  0  0  0  0  0  0  0  0  0  0  0
    8.9289  -16.0645   21.1111 C   0  0  0  0  0  0  0  0  0  0  0  0
    9.3487  -16.3598   19.9632 O   0  0  0  0  0  0  0  0  0  0  0  0
   14.1012  -14.9604   24.0052 N   0  0  0  0  0  0  0  0  0  0  0  0
   13.9298  -14.9199   22.5964 C   0  0  0  0  0  0  0  0  0  0  0  0
   14.8601  -14.4288   21.9111 O   0  0  0  0  0  0  0  0  0  0  0  0
   12.6818  -15.4521   22.0318 C   0  0  0  0  0  0  0  0  0  0  0  0
   12.0903  -16.5678   22.8217 C   0  0  0  0  0  0  0  0  0  0  0  0
   10.9337  -17.1568   22.0374 C   0  0  2  0  0  0  0  0  0  0  0  0
    9.7117  -16.4113   22.2299 N   0  0  0  0  0  0  0  0  0  0  0  0
   10.6652  -18.5655   22.4594 C   0  0  0  0  0  0  0  0  0  0  0  0
    9.4561  -18.9293   23.0816 O   0  0  0  0  0  0  0  0  0  0  0  0
   11.4903  -19.4784   22.2831 O   0  0  0  0  0  0  0  0  0  0  0  0
  2  1  1  1
  2  3  1  0
  2 10  1  0
  3  4  1  0
  4  5  2  0
  4  9  1  0
  5  6  1  0
  6  7  2  0
  8  7  1  0
  9  8  2  0
 10 11  2  0
 13 12  1  6
 14 13  1  0
 14 10  1  0
 15 16  2  0
 15 13  1  0
 17 18  1  0
 18 20  1  0
 19 18  2  0
 20 21  1  0
 22 21  1  1
 22 24  1  0
 22 23  1  0
 23 15  1  0
 24 25  1  0
 26 24  2  0
M  END
$$$$
