FAQ.pdb
     RDKit          3D

 26 26  0  0  1  0  0  0  0  0999 V2000
    5.9065  -16.8863   24.7651 N   0  0  0  0  0  0  0  0  0  0  0  0
    7.1258  -16.1156   24.6317 C   0  0  1  0  0  0  0  0  0  0  0  0
    7.4964  -15.4814   25.9664 C   0  0  0  0  0  0  0  0  0  0  0  0
    7.0532  -14.0618   25.9580 C   0  0  0  0  0  0  0  0  0  0  0  0
    5.8165  -13.6763   26.4396 C   0  0  0  0  0  0  0  0  0  0  0  0
    5.3873  -12.3659   26.4405 C   0  0  0  0  0  0  0  0  0  0  0  0
    6.2059  -11.3726   25.9453 C   0  0  0  0  0  0  0  0  0  0  0  0
    7.4408  -11.7539   25.4639 C   0  0  0  0  0  0  0  0  0  0  0  0
    7.8692  -13.0654   25.4635 C   0  0  0  0  0  0  0  0  0  0  0  0
    8.2085  -16.9439   24.0935 C   0  0  0  0  0  0  0  0  0  0  0  0
    8.1170  -18.1984   24.1777 O   0  0  0  0  0  0  0  0  0  0  0  0
   10.9654  -16.5854   21.6274 C   0  0  0  0  0  0  0  0  0  0  0  0
   10.3136  -17.2804   22.8004 C   0  0  2  0  0  0  0  0  0  0  0  0
    9.3676  -16.4154   23.4761 N   0  0  0  0  0  0  0  0  0  0  0  0
   11.3735  -17.7604   23.7232 C   0  0  0  0  0  0  0  0  0  0  0  0
   12.3384  -18.4673   23.3353 O   0  0  0  0  0  0  0  0  0  0  0  0
    8.1840  -19.2687   27.5917 N   0  0  0  0  0  0  0  0  0  0  0  0
    9.1748  -20.2593   27.8213 C   0  0  0  0  0  0  0  0  0  0  0  0
    9.1789  -20.8296   28.9397 O   0  0  0  0  0  0  0  0  0  0  0  0
   10.1278  -20.5535   26.7420 C   0  0  0  0  0  0  0  0  0  0  0  0
   10.1725  -19.5131   25.6770 C   0  0  0  0  0  0  0  0  0  0  0  0
   11.1758  -18.4498   26.0803 C   0  0  2  0  0  0  0  0  0  0  0  0
   11.2937  -17.4095   25.0853 N   0  0  0  0  0  0  0  0  0  0  0  0
   12.5356  -19.0423   26.2662 C   0  0  0  0  0  0  0  0  0  0  0  0
   13.3679  -19.3325   25.1687 O   0  0  0  0  0  0  0  0  0  0  0  0
   12.9951  -19.3060   27.3907 O   0  0  0  0  0  0  0  0  0  0  0  0
  2  1  1  1
  2  3  1  0
  2 10  1  0
  3  4  1  0
  4  5  2  0
  4  9  1  0
  5  6  1  0
  6  7  2  0
  8  7  1  0
  9  8  2  0
 10 11  2  0
 13 12  1  6
 14 13  1  0
 14 10  1  0
 15 16  2  0
 15 13  1  0
 17 18  1  0
 18 20  1  0
 19 18  2  0
 20 21  1  0
 22 21  1  6
 22 24  1  0
 22 23  1  0
 23 15  1  0
 24 25  1  0
 26 24  2  0
M  END
$$$$
