FAQ.pdb
     RDKit          3D

 26 26  0  0  1  0  0  0  0  0999 V2000
    6.1156  -16.5303   25.2241 N   0  0  0  0  0  0  0  0  0  0  0  0
    7.3031  -15.9507   24.6305 C   0  0  1  0  0  0  0  0  0  0  0  0
    8.0634  -15.1320   25.6661 C   0  0  0  0  0  0  0  0  0  0  0  0
    7.3824  -13.8198   25.8285 C   0  0  0  0  0  0  0  0  0  0  0  0
    6.2378  -13.6764   26.5898 C   0  0  0  0  0  0  0  0  0  0  0  0
    5.5920  -12.4691   26.7526 C   0  0  0  0  0  0  0  0  0  0  0  0
    6.0858  -11.3357   26.1412 C   0  0  0  0  0  0  0  0  0  0  0  0
    7.2279  -11.4754   25.3809 C   0  0  0  0  0  0  0  0  0  0  0  0
    7.8733  -12.6839   25.2186 C   0  0  0  0  0  0  0  0  0  0  0  0
    8.1406  -16.9887   24.0229 C   0  0  0  0  0  0  0  0  0  0  0  0
    7.6822  -18.1582   23.9165 O   0  0  0  0  0  0  0  0  0  0  0  0
    8.9370  -17.2706   21.2020 C   0  0  0  0  0  0  0  0  0  0  0  0
    9.9284  -17.4026   22.3349 C   0  0  2  0  0  0  0  0  0  0  0  0
    9.4513  -16.7566   23.5410 N   0  0  0  0  0  0  0  0  0  0  0  0
   11.2346  -16.8488   21.8963 C   0  0  0  0  0  0  0  0  0  0  0  0
   11.7871  -17.1912   20.8200 O   0  0  0  0  0  0  0  0  0  0  0  0
   13.3699  -19.9419   26.9319 N   0  0  0  0  0  0  0  0  0  0  0  0
   12.5248  -18.8440   26.6222 C   0  0  0  0  0  0  0  0  0  0  0  0
   11.3791  -18.8289   27.1354 O   0  0  0  0  0  0  0  0  0  0  0  0
   13.0407  -17.8001   25.7257 C   0  0  0  0  0  0  0  0  0  0  0  0
   12.0754  -17.3789   24.6724 C   0  0  0  0  0  0  0  0  0  0  0  0
   12.7510  -16.3595   23.7756 C   0  0  2  0  0  0  0  0  0  0  0  0
   11.8785  -15.9033   22.7189 N   0  0  0  0  0  0  0  0  0  0  0  0
   13.9662  -16.9410   23.1278 C   0  0  0  0  0  0  0  0  0  0  0  0
   13.8793  -18.0432   22.2567 O   0  0  0  0  0  0  0  0  0  0  0  0
   15.1050  -16.4833   23.3249 O   0  0  0  0  0  0  0  0  0  0  0  0
  2  1  1  1
  2  3  1  0
  2 10  1  0
  3  4  1  0
  4  5  2  0
  4  9  1  0
  5  6  1  0
  6  7  2  0
  8  7  1  0
  9  8  2  0
 10 11  2  0
 13 12  1  6
 14 13  1  0
 14 10  1  0
 15 16  2  0
 15 13  1  0
 17 18  1  0
 18 20  1  0
 19 18  2  0
 20 21  1  0
 22 21  1  6
 22 24  1  0
 22 23  1  0
 23 15  1  0
 24 25  1  0
 26 24  2  0
M  END
$$$$
