FAQ.pdb
     RDKit          3D

 26 26  0  0  1  0  0  0  0  0999 V2000
    5.8250  -18.0196   24.5425 N   0  0  0  0  0  0  0  0  0  0  0  0
    6.5734  -16.7792   24.5481 C   0  0  1  0  0  0  0  0  0  0  0  0
    6.5422  -16.1518   25.9360 C   0  0  0  0  0  0  0  0  0  0  0  0
    6.6651  -14.6765   25.7940 C   0  0  0  0  0  0  0  0  0  0  0  0
    6.5749  -13.8249   26.8788 C   0  0  0  0  0  0  0  0  0  0  0  0
    6.6860  -12.4550   26.7680 C   0  0  0  0  0  0  0  0  0  0  0  0
    6.8969  -11.8787   25.5329 C   0  0  0  0  0  0  0  0  0  0  0  0
    6.9875  -12.7257   24.4483 C   0  0  0  0  0  0  0  0  0  0  0  0
    6.8761  -14.0963   24.5603 C   0  0  0  0  0  0  0  0  0  0  0  0
    7.9418  -16.9952   24.0695 C   0  0  0  0  0  0  0  0  0  0  0  0
    8.6745  -17.8269   24.6701 O   0  0  0  0  0  0  0  0  0  0  0  0
   10.0371  -16.2786   21.0519 C   0  0  0  0  0  0  0  0  0  0  0  0
    9.8522  -16.5963   22.5178 C   0  0  2  0  0  0  0  0  0  0  0  0
    8.5002  -16.3182   22.9588 N   0  0  0  0  0  0  0  0  0  0  0  0
   10.8535  -15.8320   23.3044 C   0  0  0  0  0  0  0  0  0  0  0  0
   11.1255  -14.6280   23.0647 O   0  0  0  0  0  0  0  0  0  0  0  0
   10.9023  -14.1848   28.7218 N   0  0  0  0  0  0  0  0  0  0  0  0
   10.7382  -15.5690   28.4525 C   0  0  0  0  0  0  0  0  0  0  0  0
   10.1260  -16.2588   29.3043 O   0  0  0  0  0  0  0  0  0  0  0  0
   11.2919  -16.1048   27.2010 C   0  0  0  0  0  0  0  0  0  0  0  0
   11.9238  -15.0738   26.3313 C   0  0  0  0  0  0  0  0  0  0  0  0
   12.5193  -15.7621   25.1183 C   0  0  2  0  0  0  0  0  0  0  0  0
   11.5236  -16.4822   24.3594 N   0  0  0  0  0  0  0  0  0  0  0  0
   13.5665  -16.7483   25.5249 C   0  0  0  0  0  0  0  0  0  0  0  0
   13.4022  -18.1287   25.3040 O   0  0  0  0  0  0  0  0  0  0  0  0
   14.6262  -16.4007   26.0739 O   0  0  0  0  0  0  0  0  0  0  0  0
  2  1  1  1
  2  3  1  0
  2 10  1  0
  3  4  1  0
  4  5  2  0
  4  9  1  0
  5  6  1  0
  6  7  2  0
  8  7  1  0
  9  8  2  0
 10 11  2  0
 13 12  1  6
 14 13  1  0
 14 10  1  0
 15 16  2  0
 15 13  1  0
 17 18  1  0
 18 20  1  0
 19 18  2  0
 20 21  1  0
 22 21  1  1
 22 24  1  0
 22 23  1  0
 23 15  1  0
 24 25  1  0
 26 24  2  0
M  END
$$$$
