GNK.pdb
     RDKit          3D

 22 21  0  0  1  0  0  0  0  0999 V2000
   28.4960  -20.8940  -14.8692 N   0  0  0  0  0  0  0  0  0  0  0  0
   27.3051  -21.2326  -15.6282 C   0  0  0  0  0  0  0  0  0  0  0  0
   26.1932  -21.6417  -14.7023 C   0  0  0  0  0  0  0  0  0  0  0  0
   25.5951  -22.7250  -14.8326 O   0  0  0  0  0  0  0  0  0  0  0  0
   26.0207  -20.9455   -9.1993 N   0  0  0  0  0  0  0  0  0  0  0  0
   26.1788  -20.6945  -10.5981 C   0  0  0  0  0  0  0  0  0  0  0  0
   27.2939  -20.9162  -11.1153 O   0  0  0  0  0  0  0  0  0  0  0  0
   25.0472  -20.1913  -11.3829 C   0  0  0  0  0  0  0  0  0  0  0  0
   24.8254  -20.9868  -12.6688 C   0  0  2  0  0  0  0  0  0  0  0  0
   25.8389  -20.7482  -13.6606 N   0  0  0  0  0  0  0  0  0  0  0  0
   23.4743  -20.6967  -13.1798 C   0  0  0  0  0  0  0  0  0  0  0  0
   23.3019  -19.5943  -13.7466 O   0  0  0  0  0  0  0  0  0  0  0  0
   22.3957  -21.6041  -13.0521 N   0  0  0  0  0  0  0  0  0  0  0  0
   21.0656  -21.3724  -13.5712 C   0  0  1  0  0  0  0  0  0  0  0  0
   20.3645  -22.6796  -13.5984 C   0  0  0  0  0  0  0  0  0  0  0  0
   18.9854  -22.6850  -14.1585 C   0  0  0  0  0  0  0  0  0  0  0  0
   18.5133  -24.1485  -14.1401 C   0  0  0  0  0  0  0  0  0  0  0  0
   17.0694  -24.2376  -14.5837 C   0  0  0  0  0  0  0  0  0  0  0  0
   16.5881  -25.6000  -14.5151 N   0  0  0  0  0  0  0  0  0  0  0  0
   20.3768  -20.3015  -12.8453 C   0  0  0  0  0  0  0  0  0  0  0  0
   19.4742  -19.4631  -13.4206 O   0  0  0  0  0  0  0  0  0  0  0  0
   20.6237  -20.1389  -11.6186 O   0  0  0  0  0  0  0  0  0  0  0  0
  2  3  1  0
  2  1  1  0
  3  4  2  0
  6  5  1  0
  7  6  2  0
  8  6  1  0
  9  8  1  1
  9 11  1  0
 10  9  1  0
 10  3  1  0
 11 12  2  0
 11 13  1  0
 13 14  1  0
 14 15  1  1
 15 16  1  0
 16 17  1  0
 17 18  1  0
 19 18  1  0
 20 21  1  0
 20 14  1  0
 22 20  2  0
M  END
$$$$
