GNK.pdb
     RDKit          3D

 22 21  0  0  1  0  0  0  0  0999 V2000
   23.3652  -17.3072  -22.0593 N   0  0  0  0  0  0  0  0  0  0  0  0
   22.5847  -16.5760  -21.0768 C   0  0  0  0  0  0  0  0  0  0  0  0
   22.7112  -17.2198  -19.7238 C   0  0  0  0  0  0  0  0  0  0  0  0
   22.5774  -18.4466  -19.5652 O   0  0  0  0  0  0  0  0  0  0  0  0
   24.7982  -17.9679  -15.3356 N   0  0  0  0  0  0  0  0  0  0  0  0
   24.8359  -16.5418  -15.4335 C   0  0  0  0  0  0  0  0  0  0  0  0
   25.6004  -15.9175  -14.6681 O   0  0  0  0  0  0  0  0  0  0  0  0
   23.9909  -15.8539  -16.4145 C   0  0  0  0  0  0  0  0  0  0  0  0
   23.1656  -16.8235  -17.2599 C   0  0  2  0  0  0  0  0  0  0  0  0
   22.9921  -16.3804  -18.6168 N   0  0  0  0  0  0  0  0  0  0  0  0
   21.8762  -17.0607  -16.5877 C   0  0  0  0  0  0  0  0  0  0  0  0
   21.0152  -16.1560  -16.6668 O   0  0  0  0  0  0  0  0  0  0  0  0
   21.5909  -18.2500  -15.8752 N   0  0  0  0  0  0  0  0  0  0  0  0
   20.3357  -18.5250  -15.2112 C   0  0  1  0  0  0  0  0  0  0  0  0
   20.4943  -19.8003  -14.4700 C   0  0  0  0  0  0  0  0  0  0  0  0
   19.2580  -20.3928  -13.8902 C   0  0  0  0  0  0  0  0  0  0  0  0
   19.6408  -21.7950  -13.3882 C   0  0  0  0  0  0  0  0  0  0  0  0
   18.4067  -22.5409  -12.9293 C   0  0  0  0  0  0  0  0  0  0  0  0
   18.7111  -23.9275  -12.6518 N   0  0  0  0  0  0  0  0  0  0  0  0
   19.8805  -17.3832  -14.4129 C   0  0  0  0  0  0  0  0  0  0  0  0
   18.6086  -16.9035  -14.4439 O   0  0  0  0  0  0  0  0  0  0  0  0
   20.7025  -16.8058  -13.6494 O   0  0  0  0  0  0  0  0  0  0  0  0
  2  3  1  0
  2  1  1  0
  3  4  2  0
  6  5  1  0
  7  6  2  0
  8  6  1  0
  9  8  1  1
  9 11  1  0
 10  9  1  0
 10  3  1  0
 11 12  2  0
 11 13  1  0
 13 14  1  0
 14 15  1  1
 15 16  1  0
 16 17  1  0
 17 18  1  0
 19 18  1  0
 20 21  1  0
 20 14  1  0
 22 20  2  0
M  END
$$$$
