GNK.pdb
     RDKit          3D

 22 21  0  0  1  0  0  0  0  0999 V2000
   22.6874   -7.8403  -14.9826 N   0  0  0  0  0  0  0  0  0  0  0  0
   22.0266   -9.0838  -15.3375 C   0  0  0  0  0  0  0  0  0  0  0  0
   20.6043   -8.8217  -15.7490 C   0  0  0  0  0  0  0  0  0  0  0  0
   20.3167   -7.9788  -16.6178 O   0  0  0  0  0  0  0  0  0  0  0  0
   15.2599  -11.9413  -15.2918 N   0  0  0  0  0  0  0  0  0  0  0  0
   16.2828  -11.1803  -15.9394 C   0  0  0  0  0  0  0  0  0  0  0  0
   16.0197  -10.6551  -17.0416 O   0  0  0  0  0  0  0  0  0  0  0  0
   17.5970  -11.0345  -15.3059 C   0  0  0  0  0  0  0  0  0  0  0  0
   18.2183   -9.6603  -15.5538 C   0  0  2  0  0  0  0  0  0  0  0  0
   19.5839   -9.5717  -15.1123 N   0  0  0  0  0  0  0  0  0  0  0  0
   17.3677   -8.6342  -14.9257 C   0  0  0  0  0  0  0  0  0  0  0  0
   17.4151   -8.5371  -13.6789 O   0  0  0  0  0  0  0  0  0  0  0  0
   16.5223   -7.7784  -15.6715 N   0  0  0  0  0  0  0  0  0  0  0  0
   15.6704   -6.7626  -15.0930 C   0  0  1  0  0  0  0  0  0  0  0  0
   15.4120   -5.7473  -16.1434 C   0  0  0  0  0  0  0  0  0  0  0  0
   14.5995   -4.5660  -15.7435 C   0  0  0  0  0  0  0  0  0  0  0  0
   14.5154   -3.6560  -16.9804 C   0  0  0  0  0  0  0  0  0  0  0  0
   13.7553   -2.3906  -16.6477 C   0  0  0  0  0  0  0  0  0  0  0  0
   13.8242   -1.4417  -17.7374 N   0  0  0  0  0  0  0  0  0  0  0  0
   14.4780   -7.3429  -14.4689 C   0  0  0  0  0  0  0  0  0  0  0  0
   13.9556   -6.9037  -13.2929 O   0  0  0  0  0  0  0  0  0  0  0  0
   13.8930   -8.3014  -15.0444 O   0  0  0  0  0  0  0  0  0  0  0  0
  2  3  1  0
  2  1  1  0
  3  4  2  0
  6  5  1  0
  7  6  2  0
  8  6  1  0
  9  8  1  1
  9 11  1  0
 10  9  1  0
 10  3  1  0
 11 12  2  0
 11 13  1  0
 13 14  1  0
 14 15  1  6
 15 16  1  0
 16 17  1  0
 17 18  1  0
 19 18  1  0
 20 21  1  0
 20 14  1  0
 22 20  2  0
M  END
$$$$
