GNK.pdb
     RDKit          3D

 22 21  0  0  1  0  0  0  0  0999 V2000
   25.4324  -14.9331  -18.2506 N   0  0  0  0  0  0  0  0  0  0  0  0
   24.5152  -13.8682  -18.6162 C   0  0  0  0  0  0  0  0  0  0  0  0
   24.3840  -12.8809  -17.4897 C   0  0  0  0  0  0  0  0  0  0  0  0
   23.5540  -13.0339  -16.5755 O   0  0  0  0  0  0  0  0  0  0  0  0
   28.7460  -11.3801  -16.5868 N   0  0  0  0  0  0  0  0  0  0  0  0
   27.6155  -11.0117  -15.7925 C   0  0  0  0  0  0  0  0  0  0  0  0
   27.5058  -11.5126  -14.6536 O   0  0  0  0  0  0  0  0  0  0  0  0
   26.6258  -10.0689  -16.3227 C   0  0  0  0  0  0  0  0  0  0  0  0
   25.2497  -10.7069  -16.5104 C   0  0  2  0  0  0  0  0  0  0  0  0
   25.2442  -11.7543  -17.4955 N   0  0  0  0  0  0  0  0  0  0  0  0
   24.2743   -9.6484  -16.8250 C   0  0  0  0  0  0  0  0  0  0  0  0
   24.4574   -8.9967  -17.8776 O   0  0  0  0  0  0  0  0  0  0  0  0
   23.1664   -9.3560  -15.9942 N   0  0  0  0  0  0  0  0  0  0  0  0
   22.1788   -8.3374  -16.2757 C   0  0  1  0  0  0  0  0  0  0  0  0
   20.8960   -9.0271  -16.5579 C   0  0  0  0  0  0  0  0  0  0  0  0
   19.7156   -8.1588  -16.8199 C   0  0  0  0  0  0  0  0  0  0  0  0
   18.5258   -9.1025  -17.0623 C   0  0  0  0  0  0  0  0  0  0  0  0
   17.2580   -8.3027  -17.2691 C   0  0  0  0  0  0  0  0  0  0  0  0
   16.1132   -9.1739  -17.4203 N   0  0  0  0  0  0  0  0  0  0  0  0
   22.1301   -7.3201  -15.2217 C   0  0  0  0  0  0  0  0  0  0  0  0
   21.6084   -6.0772  -15.3998 O   0  0  0  0  0  0  0  0  0  0  0  0
   22.5921   -7.6002  -14.0814 O   0  0  0  0  0  0  0  0  0  0  0  0
  2  3  1  0
  2  1  1  0
  3  4  2  0
  6  5  1  0
  7  6  2  0
  8  6  1  0
  9  8  1  6
  9 11  1  0
 10  9  1  0
 10  3  1  0
 11 12  2  0
 11 13  1  0
 13 14  1  0
 14 15  1  1
 15 16  1  0
 16 17  1  0
 17 18  1  0
 19 18  1  0
 20 21  1  0
 20 14  1  0
 22 20  2  0
M  END
$$$$
