GNK.pdb
     RDKit          3D

 22 21  0  0  1  0  0  0  0  0999 V2000
   13.0848  -11.2016  -10.5401 N   0  0  0  0  0  0  0  0  0  0  0  0
   13.6205  -10.3565  -11.5926 C   0  0  0  0  0  0  0  0  0  0  0  0
   14.6178   -9.3841  -11.0261 C   0  0  0  0  0  0  0  0  0  0  0  0
   14.8314   -9.3000   -9.8033 O   0  0  0  0  0  0  0  0  0  0  0  0
   18.3517   -9.3427  -11.6252 N   0  0  0  0  0  0  0  0  0  0  0  0
   18.3841   -8.3057  -12.6094 C   0  0  0  0  0  0  0  0  0  0  0  0
   19.3255   -8.3000  -13.4301 O   0  0  0  0  0  0  0  0  0  0  0  0
   17.3287   -7.2884  -12.6342 C   0  0  0  0  0  0  0  0  0  0  0  0
   16.2586   -7.5274  -11.5695 C   0  0  2  0  0  0  0  0  0  0  0  0
   15.3197   -8.5534  -11.9351 N   0  0  0  0  0  0  0  0  0  0  0  0
   15.5903   -6.2485  -11.2722 C   0  0  0  0  0  0  0  0  0  0  0  0
   14.9201   -5.7264  -12.1911 O   0  0  0  0  0  0  0  0  0  0  0  0
   15.6815   -5.6112  -10.0117 N   0  0  0  0  0  0  0  0  0  0  0  0
   14.9763   -4.4000   -9.6541 C   0  0  1  0  0  0  0  0  0  0  0  0
   14.3333   -4.6315   -8.3374 C   0  0  0  0  0  0  0  0  0  0  0  0
   13.5689   -3.4927   -7.7591 C   0  0  0  0  0  0  0  0  0  0  0  0
   13.0994   -3.9454   -6.3664 C   0  0  0  0  0  0  0  0  0  0  0  0
   12.2325   -2.8781   -5.7346 C   0  0  0  0  0  0  0  0  0  0  0  0
   11.7792   -3.2865   -4.4230 N   0  0  0  0  0  0  0  0  0  0  0  0
   15.8434   -3.2211   -9.7348 C   0  0  0  0  0  0  0  0  0  0  0  0
   15.3775   -1.9555   -9.9075 O   0  0  0  0  0  0  0  0  0  0  0  0
   17.0921   -3.3742   -9.6382 O   0  0  0  0  0  0  0  0  0  0  0  0
  2  3  1  0
  2  1  1  0
  3  4  2  0
  6  5  1  0
  7  6  2  0
  8  6  1  0
  9  8  1  6
  9 11  1  0
 10  9  1  0
 10  3  1  0
 11 12  2  0
 11 13  1  0
 13 14  1  0
 14 15  1  1
 15 16  1  0
 16 17  1  0
 17 18  1  0
 19 18  1  0
 20 21  1  0
 20 14  1  0
 22 20  2  0
M  END
$$$$
