GNK.pdb
     RDKit          3D

 22 21  0  0  1  0  0  0  0  0999 V2000
   23.6266  -12.3713  -17.8004 N   0  0  0  0  0  0  0  0  0  0  0  0
   22.2734  -12.3146  -18.3245 C   0  0  0  0  0  0  0  0  0  0  0  0
   21.4985  -11.2139  -17.6546 C   0  0  0  0  0  0  0  0  0  0  0  0
   20.3346  -10.9311  -17.9915 O   0  0  0  0  0  0  0  0  0  0  0  0
   20.2485   -7.6969  -14.1226 N   0  0  0  0  0  0  0  0  0  0  0  0
   21.4577   -8.2890  -13.6411 C   0  0  0  0  0  0  0  0  0  0  0  0
   21.8498   -7.9825  -12.4956 O   0  0  0  0  0  0  0  0  0  0  0  0
   22.1992   -9.2285  -14.4880 C   0  0  0  0  0  0  0  0  0  0  0  0
   21.5463   -9.4261  -15.8557 C   0  0  2  0  0  0  0  0  0  0  0  0
   22.1375  -10.4961  -16.6127 N   0  0  0  0  0  0  0  0  0  0  0  0
   21.5808   -8.1478  -16.5876 C   0  0  0  0  0  0  0  0  0  0  0  0
   22.7008   -7.7324  -16.9604 O   0  0  0  0  0  0  0  0  0  0  0  0
   20.4154   -7.3972  -16.8738 N   0  0  0  0  0  0  0  0  0  0  0  0
   20.4021   -6.1616  -17.6256 C   0  0  1  0  0  0  0  0  0  0  0  0
   19.3984   -6.3100  -18.7080 C   0  0  0  0  0  0  0  0  0  0  0  0
   19.1962   -5.1325  -19.5959 C   0  0  0  0  0  0  0  0  0  0  0  0
   18.1483   -5.5498  -20.6412 C   0  0  0  0  0  0  0  0  0  0  0  0
   17.8858   -4.4105  -21.6019 C   0  0  0  0  0  0  0  0  0  0  0  0
   16.9139   -4.7896  -22.6040 N   0  0  0  0  0  0  0  0  0  0  0  0
   20.2240   -4.9963  -16.7548 C   0  0  0  0  0  0  0  0  0  0  0  0
   20.7961   -3.7858  -16.9920 O   0  0  0  0  0  0  0  0  0  0  0  0
   19.5011   -5.1075  -15.7265 O   0  0  0  0  0  0  0  0  0  0  0  0
  2  3  1  0
  2  1  1  0
  3  4  2  0
  6  5  1  0
  7  6  2  0
  8  6  1  0
  9  8  1  1
  9 11  1  0
 10  9  1  0
 10  3  1  0
 11 12  2  0
 11 13  1  0
 13 14  1  0
 14 15  1  6
 15 16  1  0
 16 17  1  0
 17 18  1  0
 19 18  1  0
 20 21  1  0
 20 14  1  0
 22 20  2  0
M  END
$$$$
