KIW.pdb
     RDKit          3D

 32 33  0  0  1  0  0  0  0  0999 V2000
    8.3170  -19.1392   20.0803 N   0  0  0  0  0  0  0  0  0  0  0  0
    9.6369  -18.6359   19.7500 C   0  0  1  0  0  0  0  0  0  0  0  0
    9.8654  -18.6772   18.2421 C   0  0  0  0  0  0  0  0  0  0  0  0
    8.6635  -18.2273   17.4890 C   0  0  0  0  0  0  0  0  0  0  0  0
    8.8284  -18.1903   16.0029 C   0  0  0  0  0  0  0  0  0  0  0  0
    7.6660  -17.6985   15.2155 C   0  0  0  0  0  0  0  0  0  0  0  0
    7.8460  -17.6359   13.7951 N   0  0  0  0  0  0  0  0  0  0  0  0
    9.8579  -17.2760   20.3038 C   0  0  0  0  0  0  0  0  0  0  0  0
   10.9482  -16.7426   20.0339 O   0  0  0  0  0  0  0  0  0  0  0  0
    6.5350  -13.0568   19.6360 C   0  0  0  0  0  0  0  0  0  0  0  0
    7.7578  -13.8825   19.9381 C   0  0  0  0  0  0  0  0  0  0  0  0
    7.8648  -14.4259   21.2981 C   0  0  2  0  0  0  0  0  0  0  0  0
    7.8328  -13.2521   22.2800 C   0  0  0  0  0  0  0  0  0  0  0  0
    9.0083  -15.2812   21.6594 C   0  0  2  0  0  0  0  0  0  0  0  0
    8.9115  -16.6074   21.0882 N   0  0  0  0  0  0  0  0  0  0  0  0
    9.4495  -15.2498   23.0752 C   0  0  0  0  0  0  0  0  0  0  0  0
   10.0133  -14.3006   23.6487 O   0  0  0  0  0  0  0  0  0  0  0  0
    9.2084  -16.4048   23.8727 N   0  0  0  0  0  0  0  0  0  0  0  0
    9.8317  -16.4190   25.2143 C   0  0  1  0  0  0  0  0  0  0  0  0
    8.6486  -16.6811   26.1438 C   0  0  0  0  0  0  0  0  0  0  0  0
    7.5447  -15.7417   26.0356 C   0  0  0  0  0  0  0  0  0  0  0  0
    6.2844  -16.0965   25.5485 C   0  0  0  0  0  0  0  0  0  0  0  0
    5.4866  -14.9963   25.5337 N   0  0  0  0  0  0  0  0  0  0  0  0
    6.1918  -13.9535   25.9942 C   0  0  0  0  0  0  0  0  0  0  0  0
    5.8559  -12.6243   26.1944 C   0  0  0  0  0  0  0  0  0  0  0  0
    6.7574  -11.7011   26.7086 C   0  0  0  0  0  0  0  0  0  0  0  0
    8.0292  -12.1553   27.0233 C   0  0  0  0  0  0  0  0  0  0  0  0
    8.3411  -13.4693   26.8178 C   0  0  0  0  0  0  0  0  0  0  0  0
    7.4541  -14.4055   26.3035 C   0  0  0  0  0  0  0  0  0  0  0  0
   10.7534  -17.5425   25.2654 C   0  0  0  0  0  0  0  0  0  0  0  0
   10.8189  -18.3497   24.3145 O   0  0  0  0  0  0  0  0  0  0  0  0
   11.6134  -17.7920   26.3482 O   0  0  0  0  0  0  0  0  0  0  0  0
  2  1  1  6
  2  3  1  0
  3  4  1  0
  5  4  1  0
  6  5  1  0
  7  6  1  0
  8  2  1  0
  9  8  2  0
 10 11  1  0
 11 12  1  0
 12 13  1  1
 12 14  1  0
 14 16  1  0
 14 15  1  1
 15  8  1  0
 16 17  2  0
 18 16  1  0
 18 19  1  0
 19 20  1  1
 20 21  1  0
 21 29  1  0
 22 21  2  0
 22 23  1  0
 23 24  1  0
 24 25  1  0
 25 26  2  0
 27 26  1  0
 28 27  2  0
 29 24  2  0
 29 28  1  0
 30 32  1  0
 30 19  1  0
 31 30  2  0
M  END
$$$$
