KIW.pdb
     RDKit          3D

 32 33  0  0  1  0  0  0  0  0999 V2000
    7.5195  -16.5045   18.7882 N   0  0  0  0  0  0  0  0  0  0  0  0
    7.9797  -15.3507   19.5375 C   0  0  1  0  0  0  0  0  0  0  0  0
    7.2138  -14.0989   19.1198 C   0  0  0  0  0  0  0  0  0  0  0  0
    7.8329  -13.4419   17.9368 C   0  0  0  0  0  0  0  0  0  0  0  0
    7.9900  -14.3219   16.7377 C   0  0  0  0  0  0  0  0  0  0  0  0
    8.5055  -13.6765   15.5004 C   0  0  0  0  0  0  0  0  0  0  0  0
    7.8384  -12.4769   15.0884 N   0  0  0  0  0  0  0  0  0  0  0  0
    7.8998  -15.5824   21.0020 C   0  0  0  0  0  0  0  0  0  0  0  0
    7.3784  -14.6760   21.6748 O   0  0  0  0  0  0  0  0  0  0  0  0
    6.2406  -20.2375   24.4086 C   0  0  0  0  0  0  0  0  0  0  0  0
    7.0758  -18.9842   24.3977 C   0  0  0  0  0  0  0  0  0  0  0  0
    7.3841  -18.4110   23.0814 C   0  0  2  0  0  0  0  0  0  0  0  0
    8.0994  -19.4826   22.2549 C   0  0  0  0  0  0  0  0  0  0  0  0
    8.1737  -17.1711   22.9869 C   0  0  2  0  0  0  0  0  0  0  0  0
    8.3756  -16.7449   21.6187 N   0  0  0  0  0  0  0  0  0  0  0  0
    9.3780  -17.0748   23.8473 C   0  0  0  0  0  0  0  0  0  0  0  0
   10.5268  -17.4477   23.5486 O   0  0  0  0  0  0  0  0  0  0  0  0
    9.2270  -16.4979   25.1407 N   0  0  0  0  0  0  0  0  0  0  0  0
   10.4272  -16.5002   26.0056 C   0  0  1  0  0  0  0  0  0  0  0  0
   10.4763  -15.0684   26.5347 C   0  0  0  0  0  0  0  0  0  0  0  0
    9.1864  -14.4402   26.7676 C   0  0  0  0  0  0  0  0  0  0  0  0
    8.3904  -14.7196   27.8811 C   0  0  0  0  0  0  0  0  0  0  0  0
    7.2355  -14.0084   27.7929 N   0  0  0  0  0  0  0  0  0  0  0  0
    7.2665  -13.2856   26.6644 C   0  0  0  0  0  0  0  0  0  0  0  0
    6.3622  -12.3937   26.1109 C   0  0  0  0  0  0  0  0  0  0  0  0
    6.6117  -11.7306   24.9161 C   0  0  0  0  0  0  0  0  0  0  0  0
    7.8157  -11.9905   24.2791 C   0  0  0  0  0  0  0  0  0  0  0  0
    8.6935  -12.8738   24.8406 C   0  0  0  0  0  0  0  0  0  0  0  0
    8.4606  -13.5468   26.0325 C   0  0  0  0  0  0  0  0  0  0  0  0
   10.1826  -17.4206   27.1044 C   0  0  0  0  0  0  0  0  0  0  0  0
    9.0397  -17.8869   27.2955 O   0  0  0  0  0  0  0  0  0  0  0  0
   11.1802  -17.8440   27.9987 O   0  0  0  0  0  0  0  0  0  0  0  0
  2  1  1  6
  2  3  1  0
  3  4  1  0
  5  4  1  0
  6  5  1  0
  7  6  1  0
  8  2  1  0
  9  8  2  0
 10 11  1  0
 11 12  1  0
 12 13  1  6
 12 14  1  0
 14 16  1  0
 14 15  1  6
 15  8  1  0
 16 17  2  0
 18 16  1  0
 18 19  1  0
 19 20  1  1
 20 21  1  0
 21 29  1  0
 22 21  2  0
 22 23  1  0
 23 24  1  0
 24 25  1  0
 25 26  2  0
 27 26  1  0
 28 27  2  0
 29 24  2  0
 29 28  1  0
 30 32  1  0
 30 19  1  0
 31 30  2  0
M  END
$$$$
