KIW.pdb
     RDKit          3D

 32 33  0  0  1  0  0  0  0  0999 V2000
    8.0006  -19.0509   19.9406 N   0  0  0  0  0  0  0  0  0  0  0  0
    9.3210  -18.5420   19.6214 C   0  0  1  0  0  0  0  0  0  0  0  0
    9.5514  -18.5549   18.1132 C   0  0  0  0  0  0  0  0  0  0  0  0
    9.4932  -19.9341   17.5576 C   0  0  0  0  0  0  0  0  0  0  0  0
   10.2444  -20.1307   16.2793 C   0  0  0  0  0  0  0  0  0  0  0  0
   10.1599  -21.4794   15.6573 C   0  0  0  0  0  0  0  0  0  0  0  0
   10.8591  -21.6485   14.4178 N   0  0  0  0  0  0  0  0  0  0  0  0
    9.5418  -17.1928   20.2010 C   0  0  0  0  0  0  0  0  0  0  0  0
   10.6194  -16.6415   19.9166 O   0  0  0  0  0  0  0  0  0  0  0  0
    6.9128  -12.9733   19.0910 C   0  0  0  0  0  0  0  0  0  0  0  0
    7.8304  -14.0457   19.6167 C   0  0  0  0  0  0  0  0  0  0  0  0
    7.8379  -14.2499   21.0708 C   0  0  2  0  0  0  0  0  0  0  0  0
    8.1494  -12.9066   21.7353 C   0  0  0  0  0  0  0  0  0  0  0  0
    8.7283  -15.2612   21.6659 C   0  0  2  0  0  0  0  0  0  0  0  0
    8.6084  -16.5527   21.0238 N   0  0  0  0  0  0  0  0  0  0  0  0
    8.7918  -15.3120   23.1469 C   0  0  0  0  0  0  0  0  0  0  0  0
    8.0935  -14.6502   23.9359 O   0  0  0  0  0  0  0  0  0  0  0  0
    9.7315  -16.2012   23.7423 N   0  0  0  0  0  0  0  0  0  0  0  0
   10.2577  -15.8100   25.0685 C   0  0  1  0  0  0  0  0  0  0  0  0
    9.1089  -16.1558   26.0134 C   0  0  0  0  0  0  0  0  0  0  0  0
    7.9682  -15.2558   25.9712 C   0  0  0  0  0  0  0  0  0  0  0  0
    6.6756  -15.6752   25.6476 C   0  0  0  0  0  0  0  0  0  0  0  0
    5.8436  -14.6004   25.6548 N   0  0  0  0  0  0  0  0  0  0  0  0
    6.5584  -13.5117   25.9717 C   0  0  0  0  0  0  0  0  0  0  0  0
    6.2008  -12.1822   26.1276 C   0  0  0  0  0  0  0  0  0  0  0  0
    7.1204  -11.2038   26.4835 C   0  0  0  0  0  0  0  0  0  0  0  0
    8.4336  -11.6021   26.6831 C   0  0  0  0  0  0  0  0  0  0  0  0
    8.7663  -12.9175   26.5237 C   0  0  0  0  0  0  0  0  0  0  0  0
    7.8615  -13.9083   26.1669 C   0  0  0  0  0  0  0  0  0  0  0  0
   11.4038  -16.6560   25.3602 C   0  0  0  0  0  0  0  0  0  0  0  0
   11.9898  -16.5689   26.4599 O   0  0  0  0  0  0  0  0  0  0  0  0
   11.9165  -17.6055   24.4603 O   0  0  0  0  0  0  0  0  0  0  0  0
  2  1  1  6
  2  3  1  0
  3  4  1  0
  5  4  1  0
  6  5  1  0
  7  6  1  0
  8  2  1  0
  9  8  2  0
 10 11  1  0
 11 12  1  0
 12 13  1  1
 12 14  1  0
 14 16  1  0
 14 15  1  1
 15  8  1  0
 16 17  2  0
 18 16  1  0
 18 19  1  0
 19 20  1  1
 20 21  1  0
 21 29  1  0
 22 21  2  0
 22 23  1  0
 23 24  1  0
 24 25  1  0
 25 26  2  0
 27 26  1  0
 28 27  2  0
 29 24  2  0
 29 28  1  0
 30 32  1  0
 30 19  1  0
 31 30  2  0
M  END
$$$$
