KIW.pdb
     RDKit          3D

 32 33  0  0  1  0  0  0  0  0999 V2000
   11.1675  -18.0771   17.8846 N   0  0  0  0  0  0  0  0  0  0  0  0
   10.1636  -18.2775   18.9124 C   0  0  1  0  0  0  0  0  0  0  0  0
   10.3523  -19.6311   19.5906 C   0  0  0  0  0  0  0  0  0  0  0  0
   10.0613  -20.7583   18.6638 C   0  0  0  0  0  0  0  0  0  0  0  0
    9.6912  -22.0442   19.3321 C   0  0  0  0  0  0  0  0  0  0  0  0
    8.3852  -22.6435   18.9472 C   0  0  0  0  0  0  0  0  0  0  0  0
    8.4386  -23.7259   18.0094 N   0  0  0  0  0  0  0  0  0  0  0  0
   10.1580  -17.1647   19.8955 C   0  0  0  0  0  0  0  0  0  0  0  0
   11.2687  -16.7016   20.2087 O   0  0  0  0  0  0  0  0  0  0  0  0
    6.6497  -12.9974   19.7870 C   0  0  0  0  0  0  0  0  0  0  0  0
    7.8404  -13.8829   20.0448 C   0  0  0  0  0  0  0  0  0  0  0  0
    7.8096  -14.6846   21.2747 C   0  0  2  0  0  0  0  0  0  0  0  0
    7.7827  -13.7230   22.4653 C   0  0  0  0  0  0  0  0  0  0  0  0
    8.8638  -15.6818   21.5279 C   0  0  2  0  0  0  0  0  0  0  0  0
    8.9852  -16.6453   20.4550 N   0  0  0  0  0  0  0  0  0  0  0  0
    8.9233  -16.2647   22.8905 C   0  0  0  0  0  0  0  0  0  0  0  0
    8.4763  -17.3732   23.2362 O   0  0  0  0  0  0  0  0  0  0  0  0
    9.5533  -15.5006   23.9140 N   0  0  0  0  0  0  0  0  0  0  0  0
    9.9983  -16.2464   25.1116 C   0  0  1  0  0  0  0  0  0  0  0  0
    9.6995  -15.2782   26.2541 C   0  0  0  0  0  0  0  0  0  0  0  0
    8.3716  -14.6870   26.2456 C   0  0  0  0  0  0  0  0  0  0  0  0
    7.2040  -15.4337   26.0705 C   0  0  0  0  0  0  0  0  0  0  0  0
    6.1346  -14.5948   26.0704 N   0  0  0  0  0  0  0  0  0  0  0  0
    6.5777  -13.3411   26.2397 C   0  0  0  0  0  0  0  0  0  0  0  0
    5.9139  -12.1280   26.3260 C   0  0  0  0  0  0  0  0  0  0  0  0
    6.5850  -10.9281   26.5240 C   0  0  0  0  0  0  0  0  0  0  0  0
    7.9663  -10.9781   26.6357 C   0  0  0  0  0  0  0  0  0  0  0  0
    8.6022  -12.1839   26.5471 C   0  0  0  0  0  0  0  0  0  0  0  0
    7.9485  -13.3925   26.3478 C   0  0  0  0  0  0  0  0  0  0  0  0
    9.1595  -17.4274   25.2380 C   0  0  0  0  0  0  0  0  0  0  0  0
    7.9157  -17.3282   25.1796 O   0  0  0  0  0  0  0  0  0  0  0  0
    9.6679  -18.7241   25.4232 O   0  0  0  0  0  0  0  0  0  0  0  0
  2  1  1  6
  2  3  1  0
  3  4  1  0
  5  4  1  0
  6  5  1  0
  7  6  1  0
  8  2  1  0
  9  8  2  0
 10 11  1  0
 11 12  1  0
 12 13  1  1
 12 14  1  0
 14 16  1  0
 14 15  1  6
 15  8  1  0
 16 17  2  0
 18 16  1  0
 18 19  1  0
 19 20  1  1
 20 21  1  0
 21 29  1  0
 22 21  2  0
 22 23  1  0
 23 24  1  0
 24 25  1  0
 25 26  2  0
 27 26  1  0
 28 27  2  0
 29 24  2  0
 29 28  1  0
 30 32  1  0
 30 19  1  0
 31 30  2  0
M  END
$$$$
