KIW.pdb
     RDKit          3D

 32 33  0  0  1  0  0  0  0  0999 V2000
    8.5517  -19.4162   20.2856 N   0  0  0  0  0  0  0  0  0  0  0  0
    9.9641  -19.1152   20.1482 C   0  0  1  0  0  0  0  0  0  0  0  0
   10.4244  -19.3427   18.7115 C   0  0  0  0  0  0  0  0  0  0  0  0
    9.4171  -20.1027   17.9228 C   0  0  0  0  0  0  0  0  0  0  0  0
    9.8633  -21.4558   17.4677 C   0  0  0  0  0  0  0  0  0  0  0  0
    8.9380  -22.1949   16.5675 C   0  0  0  0  0  0  0  0  0  0  0  0
    8.5147  -21.4998   15.3879 N   0  0  0  0  0  0  0  0  0  0  0  0
   10.2786  -17.7416   20.6166 C   0  0  0  0  0  0  0  0  0  0  0  0
   11.4527  -17.3628   20.4616 O   0  0  0  0  0  0  0  0  0  0  0  0
    6.5483  -13.0862   21.8433 C   0  0  0  0  0  0  0  0  0  0  0  0
    7.2880  -14.3771   22.0779 C   0  0  0  0  0  0  0  0  0  0  0  0
    8.4521  -14.6331   21.2202 C   0  0  2  0  0  0  0  0  0  0  0  0
    7.9421  -15.1522   19.8736 C   0  0  0  0  0  0  0  0  0  0  0  0
    9.5154  -15.5439   21.6779 C   0  0  2  0  0  0  0  0  0  0  0  0
    9.3284  -16.8981   21.2028 N   0  0  0  0  0  0  0  0  0  0  0  0
    9.9227  -15.4396   23.1003 C   0  0  0  0  0  0  0  0  0  0  0  0
   10.4671  -14.4593   23.6393 O   0  0  0  0  0  0  0  0  0  0  0  0
    9.6699  -16.5557   23.9481 N   0  0  0  0  0  0  0  0  0  0  0  0
   10.1108  -16.4262   25.3543 C   0  0  1  0  0  0  0  0  0  0  0  0
    8.8452  -16.7489   26.1457 C   0  0  0  0  0  0  0  0  0  0  0  0
    7.7893  -15.7524   26.0759 C   0  0  0  0  0  0  0  0  0  0  0  0
    6.4879  -16.0457   25.6614 C   0  0  0  0  0  0  0  0  0  0  0  0
    5.7509  -14.9037   25.6659 N   0  0  0  0  0  0  0  0  0  0  0  0
    6.5345  -13.8936   26.0687 C   0  0  0  0  0  0  0  0  0  0  0  0
    6.2818  -12.5447   26.2594 C   0  0  0  0  0  0  0  0  0  0  0  0
    7.2575  -11.6637   26.7081 C   0  0  0  0  0  0  0  0  0  0  0  0
    8.5178  -12.1817   26.9659 C   0  0  0  0  0  0  0  0  0  0  0  0
    8.7471  -13.5141   26.7708 C   0  0  0  0  0  0  0  0  0  0  0  0
    7.7852  -14.4089   26.3215 C   0  0  0  0  0  0  0  0  0  0  0  0
   11.1169  -17.4464   25.6015 C   0  0  0  0  0  0  0  0  0  0  0  0
   11.3969  -18.2846   24.7188 O   0  0  0  0  0  0  0  0  0  0  0  0
   11.8287  -17.5581   26.8078 O   0  0  0  0  0  0  0  0  0  0  0  0
  2  1  1  6
  2  3  1  0
  3  4  1  0
  5  4  1  0
  6  5  1  0
  7  6  1  0
  8  2  1  0
  9  8  2  0
 10 11  1  0
 11 12  1  0
 12 13  1  6
 12 14  1  0
 14 16  1  0
 14 15  1  1
 15  8  1  0
 16 17  2  0
 18 16  1  0
 18 19  1  0
 19 20  1  1
 20 21  1  0
 21 29  1  0
 22 21  2  0
 22 23  1  0
 23 24  1  0
 24 25  1  0
 25 26  2  0
 27 26  1  0
 28 27  2  0
 29 24  2  0
 29 28  1  0
 30 32  1  0
 30 19  1  0
 31 30  2  0
M  END
$$$$
