KIW.pdb
     RDKit          3D

 32 33  0  0  1  0  0  0  0  0999 V2000
    8.5671  -19.3112   18.7274 N   0  0  0  0  0  0  0  0  0  0  0  0
    7.9609  -18.6989   19.8945 C   0  0  1  0  0  0  0  0  0  0  0  0
    7.8712  -19.7014   21.0412 C   0  0  0  0  0  0  0  0  0  0  0  0
    7.6025  -21.0799   20.5497 C   0  0  0  0  0  0  0  0  0  0  0  0
    6.4059  -21.7427   21.1548 C   0  0  0  0  0  0  0  0  0  0  0  0
    6.6559  -22.9814   21.9397 C   0  0  0  0  0  0  0  0  0  0  0  0
    5.7298  -23.2563   22.9983 N   0  0  0  0  0  0  0  0  0  0  0  0
    8.6778  -17.4628   20.2981 C   0  0  0  0  0  0  0  0  0  0  0  0
    9.9170  -17.5417   20.3625 O   0  0  0  0  0  0  0  0  0  0  0  0
    7.3395  -12.3048   18.8349 C   0  0  0  0  0  0  0  0  0  0  0  0
    8.0125  -13.5719   19.2929 C   0  0  0  0  0  0  0  0  0  0  0  0
    8.0004  -13.8379   20.7370 C   0  0  2  0  0  0  0  0  0  0  0  0
    8.7176  -12.6808   21.4368 C   0  0  0  0  0  0  0  0  0  0  0  0
    8.5651  -15.0950   21.2570 C   0  0  2  0  0  0  0  0  0  0  0  0
    8.0231  -16.2623   20.5951 N   0  0  0  0  0  0  0  0  0  0  0  0
    8.6822  -15.2198   22.7304 C   0  0  0  0  0  0  0  0  0  0  0  0
    7.9118  -14.7262   23.5736 O   0  0  0  0  0  0  0  0  0  0  0  0
    9.7703  -15.9779   23.2494 N   0  0  0  0  0  0  0  0  0  0  0  0
   10.1498  -15.7069   24.6534 C   0  0  1  0  0  0  0  0  0  0  0  0
    9.0315  -16.3753   25.4502 C   0  0  0  0  0  0  0  0  0  0  0  0
    7.8536  -15.5573   25.6871 C   0  0  0  0  0  0  0  0  0  0  0  0
    6.5492  -16.0396   25.5548 C   0  0  0  0  0  0  0  0  0  0  0  0
    5.6737  -15.0300   25.8027 N   0  0  0  0  0  0  0  0  0  0  0  0
    6.3721  -13.9223   26.0889 C   0  0  0  0  0  0  0  0  0  0  0  0
    5.9750  -12.6379   26.4240 C   0  0  0  0  0  0  0  0  0  0  0  0
    6.8877  -11.6287   26.7030 C   0  0  0  0  0  0  0  0  0  0  0  0
    8.2355  -11.9482   26.6362 C   0  0  0  0  0  0  0  0  0  0  0  0
    8.6066  -13.2200   26.3032 C   0  0  0  0  0  0  0  0  0  0  0  0
    7.7090  -14.2406   26.0197 C   0  0  0  0  0  0  0  0  0  0  0  0
   11.4096  -16.3851   24.9132 C   0  0  0  0  0  0  0  0  0  0  0  0
   11.9457  -16.3125   26.0390 O   0  0  0  0  0  0  0  0  0  0  0  0
   12.0913  -17.1507   23.9523 O   0  0  0  0  0  0  0  0  0  0  0  0
  2  1  1  6
  2  3  1  0
  3  4  1  0
  5  4  1  0
  6  5  1  0
  7  6  1  0
  8  2  1  0
  9  8  2  0
 10 11  1  0
 11 12  1  0
 12 13  1  1
 12 14  1  0
 14 16  1  0
 14 15  1  1
 15  8  1  0
 16 17  2  0
 18 16  1  0
 18 19  1  0
 19 20  1  1
 20 21  1  0
 21 29  1  0
 22 21  2  0
 22 23  1  0
 23 24  1  0
 24 25  1  0
 25 26  2  0
 27 26  1  0
 28 27  2  0
 29 24  2  0
 29 28  1  0
 30 32  1  0
 30 19  1  0
 31 30  2  0
M  END
$$$$
