KIW.pdb
     RDKit          3D

 32 33  0  0  1  0  0  0  0  0999 V2000
    7.9615  -19.4309   18.9782 N   0  0  0  0  0  0  0  0  0  0  0  0
    7.7295  -18.9566   20.3294 C   0  0  1  0  0  0  0  0  0  0  0  0
    7.9628  -20.0765   21.3390 C   0  0  0  0  0  0  0  0  0  0  0  0
    7.9908  -21.4127   20.6848 C   0  0  0  0  0  0  0  0  0  0  0  0
    7.2235  -22.4799   21.3985 C   0  0  0  0  0  0  0  0  0  0  0  0
    7.2379  -23.8349   20.7845 C   0  0  0  0  0  0  0  0  0  0  0  0
    8.4486  -24.5859   20.9395 N   0  0  0  0  0  0  0  0  0  0  0  0
    8.5503  -17.7579   20.6366 C   0  0  0  0  0  0  0  0  0  0  0  0
    9.7697  -17.8542   20.4134 O   0  0  0  0  0  0  0  0  0  0  0  0
    6.8542  -12.6010   19.4599 C   0  0  0  0  0  0  0  0  0  0  0  0
    7.7332  -13.7931   19.7336 C   0  0  0  0  0  0  0  0  0  0  0  0
    7.9433  -14.1452   21.1436 C   0  0  2  0  0  0  0  0  0  0  0  0
    8.6124  -12.9540   21.8337 C   0  0  0  0  0  0  0  0  0  0  0  0
    8.7099  -15.3537   21.4925 C   0  0  2  0  0  0  0  0  0  0  0  0
    8.0103  -16.5730   21.1488 N   0  0  0  0  0  0  0  0  0  0  0  0
    9.3652  -15.3723   22.8230 C   0  0  0  0  0  0  0  0  0  0  0  0
   10.1693  -14.5287   23.2585 O   0  0  0  0  0  0  0  0  0  0  0  0
    9.0528  -16.4474   23.7033 N   0  0  0  0  0  0  0  0  0  0  0  0
    9.7256  -16.4350   25.0208 C   0  0  1  0  0  0  0  0  0  0  0  0
    8.5642  -16.5601   26.0046 C   0  0  0  0  0  0  0  0  0  0  0  0
    7.6171  -15.4574   26.0019 C   0  0  0  0  0  0  0  0  0  0  0  0
    6.2620  -15.6149   25.7012 C   0  0  0  0  0  0  0  0  0  0  0  0
    5.6523  -14.4009   25.7436 N   0  0  0  0  0  0  0  0  0  0  0  0
    6.5689  -13.4757   26.0609 C   0  0  0  0  0  0  0  0  0  0  0  0
    6.4763  -12.1056   26.2452 C   0  0  0  0  0  0  0  0  0  0  0  0
    7.5735  -11.3288   26.5950 C   0  0  0  0  0  0  0  0  0  0  0  0
    8.7893  -11.9753   26.7588 C   0  0  0  0  0  0  0  0  0  0  0  0
    8.8599  -13.3267   26.5718 C   0  0  0  0  0  0  0  0  0  0  0  0
    7.7750  -14.1186   26.2205 C   0  0  0  0  0  0  0  0  0  0  0  0
   10.5668  -17.6181   25.1026 C   0  0  0  0  0  0  0  0  0  0  0  0
   10.4886  -18.5104   24.2320 O   0  0  0  0  0  0  0  0  0  0  0  0
   11.5021  -17.8358   26.1282 O   0  0  0  0  0  0  0  0  0  0  0  0
  2  1  1  6
  2  3  1  0
  3  4  1  0
  5  4  1  0
  6  5  1  0
  7  6  1  0
  8  2  1  0
  9  8  2  0
 10 11  1  0
 11 12  1  0
 12 13  1  1
 12 14  1  0
 14 16  1  0
 14 15  1  1
 15  8  1  0
 16 17  2  0
 18 16  1  0
 18 19  1  0
 19 20  1  1
 20 21  1  0
 21 29  1  0
 22 21  2  0
 22 23  1  0
 23 24  1  0
 24 25  1  0
 25 26  2  0
 27 26  1  0
 28 27  2  0
 29 24  2  0
 29 28  1  0
 30 32  1  0
 30 19  1  0
 31 30  2  0
M  END
$$$$
