KIW.pdb
     RDKit          3D

 32 33  0  0  1  0  0  0  0  0999 V2000
    9.9762  -17.5035   17.7073 N   0  0  0  0  0  0  0  0  0  0  0  0
   11.0323  -17.5034   18.7019 C   0  0  1  0  0  0  0  0  0  0  0  0
   12.3659  -17.1179   18.0689 C   0  0  0  0  0  0  0  0  0  0  0  0
   12.6642  -17.9407   16.8654 C   0  0  0  0  0  0  0  0  0  0  0  0
   14.0468  -17.7791   16.3185 C   0  0  0  0  0  0  0  0  0  0  0  0
   14.7372  -19.0199   15.8749 C   0  0  0  0  0  0  0  0  0  0  0  0
   13.8981  -20.1534   15.6205 N   0  0  0  0  0  0  0  0  0  0  0  0
   10.6970  -16.6305   19.8553 C   0  0  0  0  0  0  0  0  0  0  0  0
   11.6508  -16.2656   20.5646 O   0  0  0  0  0  0  0  0  0  0  0  0
    7.0228  -12.5607   19.4970 C   0  0  0  0  0  0  0  0  0  0  0  0
    8.1865  -13.4054   19.9448 C   0  0  0  0  0  0  0  0  0  0  0  0
    7.8920  -14.4712   20.9111 C   0  0  2  0  0  0  0  0  0  0  0  0
    7.3890  -13.8154   22.1995 C   0  0  0  0  0  0  0  0  0  0  0  0
    8.9401  -15.4381   21.2802 C   0  0  2  0  0  0  0  0  0  0  0  0
    9.3911  -16.2249   20.1523 N   0  0  0  0  0  0  0  0  0  0  0  0
    8.7303  -16.2121   22.5280 C   0  0  0  0  0  0  0  0  0  0  0  0
    8.1950  -17.3316   22.6176 O   0  0  0  0  0  0  0  0  0  0  0  0
    9.1832  -15.6386   23.7504 N   0  0  0  0  0  0  0  0  0  0  0  0
    9.3863  -16.5730   24.8793 C   0  0  1  0  0  0  0  0  0  0  0  0
    9.8812  -15.6609   25.9998 C   0  0  0  0  0  0  0  0  0  0  0  0
    8.8483  -14.9396   26.7249 C   0  0  0  0  0  0  0  0  0  0  0  0
    8.3361  -15.3671   27.9522 C   0  0  0  0  0  0  0  0  0  0  0  0
    7.3623  -14.5075   28.3523 N   0  0  0  0  0  0  0  0  0  0  0  0
    7.2356  -13.5475   27.4254 C   0  0  0  0  0  0  0  0  0  0  0  0
    6.4110  -12.4367   27.3494 C   0  0  0  0  0  0  0  0  0  0  0  0
    6.4613  -11.5475   26.2834 C   0  0  0  0  0  0  0  0  0  0  0  0
    7.3786  -11.8068   25.2763 C   0  0  0  0  0  0  0  0  0  0  0  0
    8.1821  -12.9078   25.3694 C   0  0  0  0  0  0  0  0  0  0  0  0
    8.1447  -13.8079   26.4258 C   0  0  0  0  0  0  0  0  0  0  0  0
    8.0910  -17.1291   25.2359 C   0  0  0  0  0  0  0  0  0  0  0  0
    7.9998  -17.9935   26.1329 O   0  0  0  0  0  0  0  0  0  0  0  0
    6.8863  -16.7448   24.6233 O   0  0  0  0  0  0  0  0  0  0  0  0
  2  1  1  6
  2  3  1  0
  3  4  1  0
  5  4  1  0
  6  5  1  0
  7  6  1  0
  8  2  1  0
  9  8  2  0
 10 11  1  0
 11 12  1  0
 12 13  1  1
 12 14  1  0
 14 16  1  0
 14 15  1  6
 15  8  1  0
 16 17  2  0
 18 16  1  0
 18 19  1  0
 19 20  1  1
 20 21  1  0
 21 29  1  0
 22 21  2  0
 22 23  1  0
 23 24  1  0
 24 25  1  0
 25 26  2  0
 27 26  1  0
 28 27  2  0
 29 24  2  0
 29 28  1  0
 30 32  1  0
 30 19  1  0
 31 30  2  0
M  END
$$$$
