KIW.pdb
     RDKit          3D

 32 33  0  0  1  0  0  0  0  0999 V2000
    6.7300  -17.0560   20.2900 N   0  0  0  0  0  0  0  0  0  0  0  0
    7.8931  -16.3117   20.7348 C   0  0  1  0  0  0  0  0  0  0  0  0
    7.5524  -14.8342   20.9047 C   0  0  0  0  0  0  0  0  0  0  0  0
    7.4951  -14.1268   19.5969 C   0  0  0  0  0  0  0  0  0  0  0  0
    8.7818  -13.5002   19.1624 C   0  0  0  0  0  0  0  0  0  0  0  0
    8.7529  -12.7340   17.8877 C   0  0  0  0  0  0  0  0  0  0  0  0
    8.3322  -11.3672   17.9814 N   0  0  0  0  0  0  0  0  0  0  0  0
    8.4711  -16.8900   21.9743 C   0  0  0  0  0  0  0  0  0  0  0  0
    7.6657  -17.4090   22.7668 O   0  0  0  0  0  0  0  0  0  0  0  0
   12.9376  -19.9434   21.5554 C   0  0  0  0  0  0  0  0  0  0  0  0
   11.6473  -19.2724   21.9469 C   0  0  0  0  0  0  0  0  0  0  0  0
   11.7381  -18.2127   22.9595 C   0  0  2  0  0  0  0  0  0  0  0  0
   12.3758  -18.8122   24.2153 C   0  0  0  0  0  0  0  0  0  0  0  0
   10.5248  -17.4884   23.3753 C   0  0  2  0  0  0  0  0  0  0  0  0
    9.8404  -16.8673   22.2617 N   0  0  0  0  0  0  0  0  0  0  0  0
   10.6323  -16.6376   24.5856 C   0  0  0  0  0  0  0  0  0  0  0  0
   11.1895  -15.5275   24.6568 O   0  0  0  0  0  0  0  0  0  0  0  0
   10.0429  -17.1170   25.7902 N   0  0  0  0  0  0  0  0  0  0  0  0
   10.2407  -16.2832   26.9960 C   0  0  1  0  0  0  0  0  0  0  0  0
    8.8584  -16.2787   27.6453 C   0  0  0  0  0  0  0  0  0  0  0  0
    7.8323  -15.5350   26.9331 C   0  0  0  0  0  0  0  0  0  0  0  0
    6.8075  -16.1489   26.2091 C   0  0  0  0  0  0  0  0  0  0  0  0
    6.0370  -15.1916   25.6284 N   0  0  0  0  0  0  0  0  0  0  0  0
    6.5328  -13.9902   25.9563 C   0  0  0  0  0  0  0  0  0  0  0  0
    6.1242  -12.7034   25.6448 C   0  0  0  0  0  0  0  0  0  0  0  0
    6.7902  -11.5795   26.1166 C   0  0  0  0  0  0  0  0  0  0  0  0
    7.8981  -11.7843   26.9252 C   0  0  0  0  0  0  0  0  0  0  0  0
    8.2854  -13.0607   27.2200 C   0  0  0  0  0  0  0  0  0  0  0  0
    7.6334  -14.1955   26.7563 C   0  0  0  0  0  0  0  0  0  0  0  0
   11.1865  -16.9690   27.8617 C   0  0  0  0  0  0  0  0  0  0  0  0
   11.5667  -18.1274   27.5897 O   0  0  0  0  0  0  0  0  0  0  0  0
   11.7289  -16.3978   29.0251 O   0  0  0  0  0  0  0  0  0  0  0  0
  2  1  1  1
  2  3  1  0
  3  4  1  0
  5  4  1  0
  6  5  1  0
  7  6  1  0
  8  2  1  0
  9  8  2  0
 10 11  1  0
 11 12  1  0
 12 13  1  1
 12 14  1  0
 14 16  1  0
 14 15  1  6
 15  8  1  0
 16 17  2  0
 18 16  1  0
 18 19  1  0
 19 20  1  1
 20 21  1  0
 21 29  1  0
 22 21  2  0
 22 23  1  0
 23 24  1  0
 24 25  1  0
 25 26  2  0
 27 26  1  0
 28 27  2  0
 29 24  2  0
 29 28  1  0
 30 32  1  0
 30 19  1  0
 31 30  2  0
M  END
$$$$
