KIW.pdb
     RDKit          3D

 32 33  0  0  1  0  0  0  0  0999 V2000
    5.7459  -17.3810   20.6882 N   0  0  0  0  0  0  0  0  0  0  0  0
    7.0143  -17.5765   21.3644 C   0  0  1  0  0  0  0  0  0  0  0  0
    8.0062  -18.2891   20.4498 C   0  0  0  0  0  0  0  0  0  0  0  0
    7.4008  -19.4852   19.8042 C   0  0  0  0  0  0  0  0  0  0  0  0
    8.3270  -20.2630   18.9244 C   0  0  0  0  0  0  0  0  0  0  0  0
    9.7027  -20.4919   19.4421 C   0  0  0  0  0  0  0  0  0  0  0  0
    9.8757  -21.6309   20.2944 N   0  0  0  0  0  0  0  0  0  0  0  0
    7.5620  -16.2962   21.8801 C   0  0  0  0  0  0  0  0  0  0  0  0
    8.1531  -15.5785   21.0546 O   0  0  0  0  0  0  0  0  0  0  0  0
    6.2496  -12.1871   26.2782 C   0  0  0  0  0  0  0  0  0  0  0  0
    7.2889  -12.7587   25.3500 C   0  0  0  0  0  0  0  0  0  0  0  0
    6.9792  -14.0556   24.7349 C   0  0  2  0  0  0  0  0  0  0  0  0
    6.6669  -15.0485   25.8572 C   0  0  0  0  0  0  0  0  0  0  0  0
    7.9539  -14.6918   23.8322 C   0  0  2  0  0  0  0  0  0  0  0  0
    7.4356  -15.8934   23.2142 N   0  0  0  0  0  0  0  0  0  0  0  0
    9.3497  -14.8025   24.3217 C   0  0  0  0  0  0  0  0  0  0  0  0
   10.0322  -13.8846   24.8112 O   0  0  0  0  0  0  0  0  0  0  0  0
    9.9853  -16.0742   24.2373 N   0  0  0  0  0  0  0  0  0  0  0  0
   11.4103  -16.1243   24.6313 C   0  0  1  0  0  0  0  0  0  0  0  0
   11.4548  -17.2824   25.6259 C   0  0  0  0  0  0  0  0  0  0  0  0
   10.6801  -17.0963   26.8417 C   0  0  0  0  0  0  0  0  0  0  0  0
    9.8165  -18.0678   27.3536 C   0  0  0  0  0  0  0  0  0  0  0  0
    9.2118  -17.5826   28.4699 N   0  0  0  0  0  0  0  0  0  0  0  0
    9.6589  -16.3380   28.6887 C   0  0  0  0  0  0  0  0  0  0  0  0
    9.3791  -15.4150   29.6835 C   0  0  0  0  0  0  0  0  0  0  0  0
    9.9828  -14.1647   29.7259 C   0  0  0  0  0  0  0  0  0  0  0  0
   10.8926  -13.8590   28.7250 C   0  0  0  0  0  0  0  0  0  0  0  0
   11.1542  -14.7822   27.7527 C   0  0  0  0  0  0  0  0  0  0  0  0
   10.5595  -16.0354   27.6933 C   0  0  0  0  0  0  0  0  0  0  0  0
   12.1876  -16.4628   23.4499 C   0  0  0  0  0  0  0  0  0  0  0  0
   11.6149  -16.7423   22.3756 O   0  0  0  0  0  0  0  0  0  0  0  0
   13.5921  -16.4940   23.4278 O   0  0  0  0  0  0  0  0  0  0  0  0
  2  1  1  6
  2  3  1  0
  3  4  1  0
  5  4  1  0
  6  5  1  0
  7  6  1  0
  8  2  1  0
  9  8  2  0
 10 11  1  0
 11 12  1  0
 12 13  1  1
 12 14  1  0
 14 16  1  0
 14 15  1  1
 15  8  1  0
 16 17  2  0
 18 16  1  0
 18 19  1  0
 19 20  1  1
 20 21  1  0
 21 29  1  0
 22 21  2  0
 22 23  1  0
 23 24  1  0
 24 25  1  0
 25 26  2  0
 27 26  1  0
 28 27  2  0
 29 24  2  0
 29 28  1  0
 30 32  1  0
 30 19  1  0
 31 30  2  0
M  END
$$$$
