WLP.pdb
     RDKit          3D

 30 32  0  0  1  0  0  0  0  0999 V2000
   26.9007  -19.3558  -16.8580 N   0  0  0  0  0  0  0  0  0  0  0  0
   26.7790  -18.7750  -15.5146 C   0  0  1  0  0  0  0  0  0  0  0  0
   25.7656  -17.6962  -15.4740 C   0  0  0  0  0  0  0  0  0  0  0  0
   25.9453  -16.6067  -16.4425 C   0  0  0  0  0  0  0  0  0  0  0  0
   24.9158  -16.0779  -17.2357 C   0  0  0  0  0  0  0  0  0  0  0  0
   25.4079  -15.0943  -17.9939 N   0  0  0  0  0  0  0  0  0  0  0  0
   26.7357  -14.9401  -17.7403 C   0  0  0  0  0  0  0  0  0  0  0  0
   27.6468  -14.0620  -18.2834 C   0  0  0  0  0  0  0  0  0  0  0  0
   28.9499  -14.1070  -17.8622 C   0  0  0  0  0  0  0  0  0  0  0  0
   29.2898  -15.0372  -16.9065 C   0  0  0  0  0  0  0  0  0  0  0  0
   28.3827  -15.9061  -16.3705 C   0  0  0  0  0  0  0  0  0  0  0  0
   27.0491  -15.8866  -16.7765 C   0  0  0  0  0  0  0  0  0  0  0  0
   26.6795  -19.8543  -14.5281 C   0  0  0  0  0  0  0  0  0  0  0  0
   26.4641  -21.0328  -14.9190 O   0  0  0  0  0  0  0  0  0  0  0  0
   26.9348  -21.8733   -9.3558 C   0  0  0  0  0  0  0  0  0  0  0  0
   26.0192  -20.6143   -9.5693 C   0  0  1  0  0  0  0  0  0  0  0  0
   26.2334  -19.8388   -8.2797 C   0  0  0  0  0  0  0  0  0  0  0  0
   26.5667  -19.9823  -10.7770 C   0  0  0  0  0  0  0  0  0  0  0  0
   26.1636  -20.4890  -12.1417 C   0  0  2  0  0  0  0  0  0  0  0  0
   26.8262  -19.6279  -13.1164 N   0  0  0  0  0  0  0  0  0  0  0  0
   24.7450  -20.6554  -12.2439 C   0  0  0  0  0  0  0  0  0  0  0  0
   24.0691  -19.6390  -11.7890 O   0  0  0  0  0  0  0  0  0  0  0  0
   23.9574  -21.7120  -12.7451 N   0  0  0  0  0  0  0  0  0  0  0  0
   24.4453  -22.9100  -13.4005 C   0  0  0  0  0  0  0  0  0  0  0  0
   23.2207  -23.6532  -13.9322 C   0  0  0  0  0  0  0  0  0  0  0  0
   22.1278  -23.2046  -13.0251 C   0  0  0  0  0  0  0  0  0  0  0  0
   22.5197  -21.7774  -12.6886 C   0  0  1  0  0  0  0  0  0  0  0  0
   21.9007  -21.3385  -11.4382 C   0  0  0  0  0  0  0  0  0  0  0  0
   22.4541  -21.2406  -10.3247 O   0  0  0  0  0  0  0  0  0  0  0  0
   20.5489  -20.9924  -11.4953 O   0  0  0  0  0  0  0  0  0  0  0  0
  2  1  1  6
  2 13  1  0
  2  3  1  0
  4  3  1  0
  4  5  2  0
  6  5  1  0
  7  6  1  0
  8  7  2  0
  9  8  1  0
 10  9  2  0
 10 11  1  0
 11 12  2  0
 12  7  1  0
 12  4  1  0
 13 14  2  0
 16 15  1  1
 16 18  1  0
 17 16  1  0
 19 18  1  1
 20 19  1  0
 20 13  1  0
 21 22  2  0
 21 19  1  0
 23 21  1  0
 24 23  1  0
 25 24  1  0
 26 25  1  0
 26 27  1  0
 27 28  1  1
 27 23  1  0
 28 30  1  0
 29 28  2  0
M  END
$$$$
