WLP.pdb
     RDKit          3D

 30 32  0  0  1  0  0  0  0  0999 V2000
   26.1739  -20.9331  -11.9767 N   0  0  0  0  0  0  0  0  0  0  0  0
   25.4505  -20.6805  -10.7238 C   0  0  1  0  0  0  0  0  0  0  0  0
   24.1179  -21.3258  -10.7210 C   0  0  0  0  0  0  0  0  0  0  0  0
   23.1112  -20.7290  -11.6085 C   0  0  0  0  0  0  0  0  0  0  0  0
   22.9025  -21.1185  -12.9401 C   0  0  0  0  0  0  0  0  0  0  0  0
   21.9090  -20.3917  -13.4588 N   0  0  0  0  0  0  0  0  0  0  0  0
   21.4388  -19.5234  -12.5229 C   0  0  0  0  0  0  0  0  0  0  0  0
   20.4339  -18.5858  -12.6074 C   0  0  0  0  0  0  0  0  0  0  0  0
   20.1467  -17.8145  -11.5119 C   0  0  0  0  0  0  0  0  0  0  0  0
   20.8839  -18.0155  -10.3672 C   0  0  0  0  0  0  0  0  0  0  0  0
   21.8796  -18.9467  -10.2878 C   0  0  0  0  0  0  0  0  0  0  0  0
   22.1969  -19.7481  -11.3836 C   0  0  0  0  0  0  0  0  0  0  0  0
   26.3438  -20.9344   -9.5899 C   0  0  0  0  0  0  0  0  0  0  0  0
   26.8037  -22.0939   -9.4111 O   0  0  0  0  0  0  0  0  0  0  0  0
   30.3972  -19.4545   -6.2574 C   0  0  0  0  0  0  0  0  0  0  0  0
   29.0011  -18.8624   -5.8457 C   0  0  1  0  0  0  0  0  0  0  0  0
   29.3702  -17.4636   -5.3794 C   0  0  0  0  0  0  0  0  0  0  0  0
   28.2152  -18.9210   -7.0853 C   0  0  0  0  0  0  0  0  0  0  0  0
   27.5446  -20.2119   -7.4923 C   0  0  2  0  0  0  0  0  0  0  0  0
   26.7307  -19.9050   -8.6644 N   0  0  0  0  0  0  0  0  0  0  0  0
   26.9090  -20.8492   -6.3786 C   0  0  0  0  0  0  0  0  0  0  0  0
   25.7084  -20.4030   -6.1411 O   0  0  0  0  0  0  0  0  0  0  0  0
   27.3460  -21.8641   -5.5028 N   0  0  0  0  0  0  0  0  0  0  0  0
   28.5577  -22.6495   -5.6360 C   0  0  0  0  0  0  0  0  0  0  0  0
   28.4975  -23.7401   -4.5675 C   0  0  0  0  0  0  0  0  0  0  0  0
   27.6258  -23.1428   -3.5178 C   0  0  0  0  0  0  0  0  0  0  0  0
   26.6527  -22.2944   -4.3160 C   0  0  1  0  0  0  0  0  0  0  0  0
   26.0684  -21.2386   -3.4893 C   0  0  0  0  0  0  0  0  0  0  0  0
   26.5237  -20.0912   -3.3110 O   0  0  0  0  0  0  0  0  0  0  0  0
   24.8761  -21.5458   -2.8303 O   0  0  0  0  0  0  0  0  0  0  0  0
  2  1  1  6
  2 13  1  0
  2  3  1  0
  4  3  1  0
  4  5  2  0
  6  5  1  0
  7  6  1  0
  8  7  2  0
  9  8  1  0
 10  9  2  0
 10 11  1  0
 11 12  2  0
 12  7  1  0
 12  4  1  0
 13 14  2  0
 16 15  1  6
 16 18  1  0
 17 16  1  0
 19 18  1  1
 20 19  1  0
 20 13  1  0
 21 22  2  0
 21 19  1  0
 23 21  1  0
 24 23  1  0
 25 24  1  0
 26 25  1  0
 26 27  1  0
 27 28  1  1
 27 23  1  0
 28 30  1  0
 29 28  2  0
M  END
$$$$
