WLP.pdb
     RDKit          3D

 30 32  0  0  1  0  0  0  0  0999 V2000
   26.7787  -18.0133  -16.8278 N   0  0  0  0  0  0  0  0  0  0  0  0
   26.3525  -17.7026  -15.4571 C   0  0  1  0  0  0  0  0  0  0  0  0
   25.1564  -16.8299  -15.4400 C   0  0  0  0  0  0  0  0  0  0  0  0
   25.2827  -15.5497  -16.1485 C   0  0  0  0  0  0  0  0  0  0  0  0
   24.3620  -15.0777  -17.0962 C   0  0  0  0  0  0  0  0  0  0  0  0
   24.7615  -13.8820  -17.5378 N   0  0  0  0  0  0  0  0  0  0  0  0
   25.9216  -13.5293  -16.9208 C   0  0  0  0  0  0  0  0  0  0  0  0
   26.6939  -12.3981  -17.0626 C   0  0  0  0  0  0  0  0  0  0  0  0
   27.8408  -12.2759  -16.3228 C   0  0  0  0  0  0  0  0  0  0  0  0
   28.1700  -13.3001  -15.4645 C   0  0  0  0  0  0  0  0  0  0  0  0
   27.4009  -14.4202  -15.3270 C   0  0  0  0  0  0  0  0  0  0  0  0
   26.2279  -14.5759  -16.0642 C   0  0  0  0  0  0  0  0  0  0  0  0
   26.3182  -18.9381  -14.6695 C   0  0  0  0  0  0  0  0  0  0  0  0
   26.0647  -20.0313  -15.2428 O   0  0  0  0  0  0  0  0  0  0  0  0
   27.5197  -21.8872  -10.0971 C   0  0  0  0  0  0  0  0  0  0  0  0
   26.4114  -20.7819   -9.9593 C   0  0  1  0  0  0  0  0  0  0  0  0
   26.6626  -20.2477   -8.5586 C   0  0  0  0  0  0  0  0  0  0  0  0
   26.7127  -19.8442  -11.0492 C   0  0  0  0  0  0  0  0  0  0  0  0
   26.1677  -20.0988  -12.4348 C   0  0  2  0  0  0  0  0  0  0  0  0
   26.5716  -18.9609  -13.2549 N   0  0  0  0  0  0  0  0  0  0  0  0
   24.7787  -20.4446  -12.3991 C   0  0  0  0  0  0  0  0  0  0  0  0
   24.0358  -19.5492  -11.8131 O   0  0  0  0  0  0  0  0  0  0  0  0
   24.0785  -21.5694  -12.8813 N   0  0  0  0  0  0  0  0  0  0  0  0
   24.6411  -22.6708  -13.6385 C   0  0  0  0  0  0  0  0  0  0  0  0
   23.4688  -23.5376  -14.0958 C   0  0  0  0  0  0  0  0  0  0  0  0
   22.4216  -23.2640  -13.0725 C   0  0  0  0  0  0  0  0  0  0  0  0
   22.6708  -21.8140  -12.6996 C   0  0  1  0  0  0  0  0  0  0  0  0
   22.1258  -21.5054  -11.3778 C   0  0  0  0  0  0  0  0  0  0  0  0
   22.7702  -21.3549  -10.3205 O   0  0  0  0  0  0  0  0  0  0  0  0
   20.7393  -21.3641  -11.2885 O   0  0  0  0  0  0  0  0  0  0  0  0
  2  1  1  6
  2 13  1  0
  2  3  1  0
  4  3  1  0
  4  5  2  0
  6  5  1  0
  7  6  1  0
  8  7  2  0
  9  8  1  0
 10  9  2  0
 10 11  1  0
 11 12  2  0
 12  7  1  0
 12  4  1  0
 13 14  2  0
 16 15  1  6
 16 18  1  0
 17 16  1  0
 19 18  1  1
 20 19  1  0
 20 13  1  0
 21 22  2  0
 21 19  1  0
 23 21  1  0
 24 23  1  0
 25 24  1  0
 26 25  1  0
 26 27  1  0
 27 28  1  1
 27 23  1  0
 28 30  1  0
 29 28  2  0
M  END
$$$$
