WLP.pdb
     RDKit          3D

 30 32  0  0  1  0  0  0  0  0999 V2000
   22.5072  -18.4212  -19.1867 N   0  0  0  0  0  0  0  0  0  0  0  0
   22.2663  -18.1610  -17.7615 C   0  0  1  0  0  0  0  0  0  0  0  0
   20.8635  -18.4453  -17.3824 C   0  0  0  0  0  0  0  0  0  0  0  0
   20.4159  -17.8836  -16.1012 C   0  0  0  0  0  0  0  0  0  0  0  0
   19.9814  -16.5608  -15.9279 C   0  0  0  0  0  0  0  0  0  0  0  0
   19.6325  -16.3777  -14.6516 N   0  0  0  0  0  0  0  0  0  0  0  0
   19.8165  -17.5321  -13.9555 C   0  0  0  0  0  0  0  0  0  0  0  0
   19.5981  -17.8106  -12.6248 C   0  0  0  0  0  0  0  0  0  0  0  0
   19.8706  -19.0677  -12.1525 C   0  0  0  0  0  0  0  0  0  0  0  0
   20.3548  -20.0019  -13.0395 C   0  0  0  0  0  0  0  0  0  0  0  0
   20.5697  -19.7213  -14.3586 C   0  0  0  0  0  0  0  0  0  0  0  0
   20.3025  -18.4528  -14.8716 C   0  0  0  0  0  0  0  0  0  0  0  0
   23.3348  -18.7771  -16.9699 C   0  0  0  0  0  0  0  0  0  0  0  0
   23.7170  -19.9452  -17.2483 O   0  0  0  0  0  0  0  0  0  0  0  0
   27.8883  -16.1312  -15.2267 C   0  0  0  0  0  0  0  0  0  0  0  0
   26.9180  -17.1393  -15.9418 C   0  0  1  0  0  0  0  0  0  0  0  0
   27.8860  -18.1445  -16.5443 C   0  0  0  0  0  0  0  0  0  0  0  0
   26.0803  -17.6547  -14.8507 C   0  0  0  0  0  0  0  0  0  0  0  0
   25.0590  -18.7322  -15.1290 C   0  0  2  0  0  0  0  0  0  0  0  0
   23.9806  -18.0975  -15.8806 N   0  0  0  0  0  0  0  0  0  0  0  0
   24.7179  -19.4543  -13.9405 C   0  0  0  0  0  0  0  0  0  0  0  0
   24.0232  -18.7545  -13.0893 O   0  0  0  0  0  0  0  0  0  0  0  0
   24.9960  -20.7748  -13.5319 N   0  0  0  0  0  0  0  0  0  0  0  0
   25.6432  -21.8007  -14.3264 C   0  0  0  0  0  0  0  0  0  0  0  0
   25.5456  -23.1025  -13.5324 C   0  0  0  0  0  0  0  0  0  0  0  0
   25.4447  -22.6357  -12.1215 C   0  0  0  0  0  0  0  0  0  0  0  0
   24.6794  -21.3306  -12.2414 C   0  0  1  0  0  0  0  0  0  0  0  0
   24.9222  -20.4656  -11.0872 C   0  0  0  0  0  0  0  0  0  0  0  0
   25.7594  -19.5447  -11.0068 O   0  0  0  0  0  0  0  0  0  0  0  0
   24.1353  -20.6935   -9.9562 O   0  0  0  0  0  0  0  0  0  0  0  0
  2  1  1  6
  2 13  1  0
  2  3  1  0
  4  3  1  0
  4  5  2  0
  6  5  1  0
  7  6  1  0
  8  7  2  0
  9  8  1  0
 10  9  2  0
 10 11  1  0
 11 12  2  0
 12  7  1  0
 12  4  1  0
 13 14  2  0
 16 15  1  1
 16 18  1  0
 17 16  1  0
 19 18  1  1
 20 19  1  0
 20 13  1  0
 21 22  2  0
 21 19  1  0
 23 21  1  0
 24 23  1  0
 25 24  1  0
 26 25  1  0
 26 27  1  0
 27 28  1  1
 27 23  1  0
 28 30  1  0
 29 28  2  0
M  END
$$$$
