WLP.pdb
     RDKit          3D

 30 32  0  0  1  0  0  0  0  0999 V2000
   25.9600  -19.1588  -11.7812 N   0  0  0  0  0  0  0  0  0  0  0  0
   25.6844  -19.9111  -10.5504 C   0  0  1  0  0  0  0  0  0  0  0  0
   25.0135  -21.2001  -10.8350 C   0  0  0  0  0  0  0  0  0  0  0  0
   23.5980  -21.1189  -11.2183 C   0  0  0  0  0  0  0  0  0  0  0  0
   23.1088  -21.4160  -12.4993 C   0  0  0  0  0  0  0  0  0  0  0  0
   21.7826  -21.2568  -12.5098 N   0  0  0  0  0  0  0  0  0  0  0  0
   21.3582  -20.8616  -11.2789 C   0  0  0  0  0  0  0  0  0  0  0  0
   20.0893  -20.5754  -10.8273 C   0  0  0  0  0  0  0  0  0  0  0  0
   19.9166  -20.1850   -9.5252 C   0  0  0  0  0  0  0  0  0  0  0  0
   21.0309  -20.0966   -8.7224 C   0  0  0  0  0  0  0  0  0  0  0  0
   22.2876  -20.3817   -9.1746 C   0  0  0  0  0  0  0  0  0  0  0  0
   22.4982  -20.7819  -10.4934 C   0  0  0  0  0  0  0  0  0  0  0  0
   26.8878  -19.9280   -9.7141 C   0  0  0  0  0  0  0  0  0  0  0  0
   28.0105  -20.1336  -10.2483 O   0  0  0  0  0  0  0  0  0  0  0  0
   29.3717  -17.4478   -5.4122 C   0  0  0  0  0  0  0  0  0  0  0  0
   28.7537  -18.8692   -5.1539 C   0  0  1  0  0  0  0  0  0  0  0  0
   28.2155  -18.7333   -3.7389 C   0  0  0  0  0  0  0  0  0  0  0  0
   27.7322  -19.0038   -6.2009 C   0  0  0  0  0  0  0  0  0  0  0  0
   28.0680  -19.7057   -7.4956 C   0  0  2  0  0  0  0  0  0  0  0  0
   26.8461  -19.7101   -8.2941 N   0  0  0  0  0  0  0  0  0  0  0  0
   28.7248  -20.9564   -7.2619 C   0  0  0  0  0  0  0  0  0  0  0  0
   27.9783  -21.8272   -6.6442 O   0  0  0  0  0  0  0  0  0  0  0  0
   30.0218  -21.4094   -7.5788 N   0  0  0  0  0  0  0  0  0  0  0  0
   30.9510  -20.7783   -8.4960 C   0  0  0  0  0  0  0  0  0  0  0  0
   32.1334  -21.7330   -8.6544 C   0  0  0  0  0  0  0  0  0  0  0  0
   32.1229  -22.5047   -7.3805 C   0  0  0  0  0  0  0  0  0  0  0  0
   30.6467  -22.5887   -7.0375 C   0  0  1  0  0  0  0  0  0  0  0  0
   30.4473  -22.8286   -5.6085 C   0  0  0  0  0  0  0  0  0  0  0  0
   29.9186  -22.0528   -4.7874 O   0  0  0  0  0  0  0  0  0  0  0  0
   30.8951  -24.0538   -5.1099 O   0  0  0  0  0  0  0  0  0  0  0  0
  2  1  1  6
  2 13  1  0
  2  3  1  0
  4  3  1  0
  4  5  2  0
  6  5  1  0
  7  6  1  0
  8  7  2  0
  9  8  1  0
 10  9  2  0
 10 11  1  0
 11 12  2  0
 12  7  1  0
 12  4  1  0
 13 14  2  0
 16 15  1  6
 16 18  1  0
 17 16  1  0
 19 18  1  1
 20 19  1  0
 20 13  1  0
 21 22  2  0
 21 19  1  0
 23 21  1  0
 24 23  1  0
 25 24  1  0
 26 25  1  0
 26 27  1  0
 27 28  1  1
 27 23  1  0
 28 30  1  0
 29 28  2  0
M  END
$$$$
