WLP.pdb
     RDKit          3D

 30 32  0  0  1  0  0  0  0  0999 V2000
   26.9260  -18.2231  -16.1098 N   0  0  0  0  0  0  0  0  0  0  0  0
   26.2365  -18.0786  -14.8212 C   0  0  1  0  0  0  0  0  0  0  0  0
   24.7649  -18.0742  -14.9849 C   0  0  0  0  0  0  0  0  0  0  0  0
   24.2214  -17.0622  -15.9001 C   0  0  0  0  0  0  0  0  0  0  0  0
   23.3709  -17.3485  -16.9786 C   0  0  0  0  0  0  0  0  0  0  0  0
   23.0492  -16.2094  -17.5975 N   0  0  0  0  0  0  0  0  0  0  0  0
   23.6537  -15.1620  -16.9742 C   0  0  0  0  0  0  0  0  0  0  0  0
   23.6151  -13.8159  -17.2614 C   0  0  0  0  0  0  0  0  0  0  0  0
   24.3258  -12.9454  -16.4773 C   0  0  0  0  0  0  0  0  0  0  0  0
   25.0520  -13.4631  -15.4291 C   0  0  0  0  0  0  0  0  0  0  0  0
   25.0872  -14.7990  -15.1478 C   0  0  0  0  0  0  0  0  0  0  0  0
   24.3755  -15.7115  -15.9252 C   0  0  0  0  0  0  0  0  0  0  0  0
   26.8215  -19.0099  -13.8524 C   0  0  0  0  0  0  0  0  0  0  0  0
   27.1427  -20.1701  -14.2247 O   0  0  0  0  0  0  0  0  0  0  0  0
   29.1480  -20.5437   -9.0927 C   0  0  0  0  0  0  0  0  0  0  0  0
   27.8118  -19.7293   -8.9499 C   0  0  1  0  0  0  0  0  0  0  0  0
   28.0871  -18.8723   -7.7252 C   0  0  0  0  0  0  0  0  0  0  0  0
   27.7113  -18.9940  -10.2176 C   0  0  0  0  0  0  0  0  0  0  0  0
   27.1352  -19.6717  -11.4385 C   0  0  2  0  0  0  0  0  0  0  0  0
   27.0560  -18.6525  -12.4802 N   0  0  0  0  0  0  0  0  0  0  0  0
   25.9471  -20.4058  -11.1221 C   0  0  0  0  0  0  0  0  0  0  0  0
   24.9900  -19.6629  -10.6435 O   0  0  0  0  0  0  0  0  0  0  0  0
   25.6312  -21.7751  -11.2362 N   0  0  0  0  0  0  0  0  0  0  0  0
   26.4652  -22.8016  -11.8311 C   0  0  0  0  0  0  0  0  0  0  0  0
   25.6218  -24.0741  -11.8960 C   0  0  0  0  0  0  0  0  0  0  0  0
   24.6394  -23.8899  -10.7916 C   0  0  0  0  0  0  0  0  0  0  0  0
   24.4128  -22.3892  -10.7751 C   0  0  1  0  0  0  0  0  0  0  0  0
   23.9151  -21.9426   -9.4743 C   0  0  0  0  0  0  0  0  0  0  0  0
   24.5728  -21.3808   -8.5756 O   0  0  0  0  0  0  0  0  0  0  0  0
   22.5626  -22.1678   -9.2092 O   0  0  0  0  0  0  0  0  0  0  0  0
  2  1  1  6
  2 13  1  0
  2  3  1  0
  4  3  1  0
  4  5  2  0
  6  5  1  0
  7  6  1  0
  8  7  2  0
  9  8  1  0
 10  9  2  0
 10 11  1  0
 11 12  2  0
 12  7  1  0
 12  4  1  0
 13 14  2  0
 16 15  1  6
 16 18  1  0
 17 16  1  0
 19 18  1  1
 20 19  1  0
 20 13  1  0
 21 22  2  0
 21 19  1  0
 23 21  1  0
 24 23  1  0
 25 24  1  0
 26 25  1  0
 26 27  1  0
 27 28  1  1
 27 23  1  0
 28 30  1  0
 29 28  2  0
M  END
$$$$
