DNK.pdb
     RDKit          3D

 26 25  0  0  1  0  0  0  0  0999 V2000
   10.7451  -19.3113   16.5941 N   0  0  0  0  0  0  0  0  0  0  0  0
   11.3559  -18.0612   16.8761 C   0  0  1  0  0  0  0  0  0  0  0  0
   11.1862  -17.1960   15.6289 C   0  0  0  0  0  0  0  0  0  0  0  0
   11.7401  -17.9243   14.4551 C   0  0  0  0  0  0  0  0  0  0  0  0
   12.8962  -18.4191   14.5240 O   0  0  0  0  0  0  0  0  0  0  0  0
   10.8996  -17.3490   18.0693 C   0  0  0  0  0  0  0  0  0  0  0  0
   11.4473  -16.2300   18.3888 O   0  0  0  0  0  0  0  0  0  0  0  0
   11.0398  -18.0874   13.2767 O   0  0  0  0  0  0  0  0  0  0  0  0
    7.5389  -19.2136   19.2914 N   0  0  0  0  0  0  0  0  0  0  0  0
    7.3526  -18.3629   20.4119 C   0  0  0  0  0  0  0  0  0  0  0  0
    6.6259  -18.8002   21.3357 O   0  0  0  0  0  0  0  0  0  0  0  0
    8.0195  -17.0467   20.4014 C   0  0  0  0  0  0  0  0  0  0  0  0
    9.5010  -17.1171   20.1789 C   0  0  2  0  0  0  0  0  0  0  0  0
    9.8827  -17.7748   18.9447 N   0  0  0  0  0  0  0  0  0  0  0  0
   10.2578  -17.6172   21.3230 C   0  0  0  0  0  0  0  0  0  0  0  0
   10.6278  -18.8405   21.3069 O   0  0  0  0  0  0  0  0  0  0  0  0
   10.6114  -16.8458   22.4547 N   0  0  0  0  0  0  0  0  0  0  0  0
   11.7206  -17.1910   23.3516 C   0  0  1  0  0  0  0  0  0  0  0  0
   13.0227  -16.7005   22.8260 C   0  0  0  0  0  0  0  0  0  0  0  0
   14.1466  -17.1527   23.7007 C   0  0  0  0  0  0  0  0  0  0  0  0
   15.4988  -16.6799   23.2197 C   0  0  0  0  0  0  0  0  0  0  0  0
   16.6091  -17.1670   24.1354 C   0  0  0  0  0  0  0  0  0  0  0  0
   17.9202  -16.7576   23.6840 N   0  0  0  0  0  0  0  0  0  0  0  0
   11.3783  -16.7188   24.7139 C   0  0  0  0  0  0  0  0  0  0  0  0
   10.3301  -15.8995   25.0316 O   0  0  0  0  0  0  0  0  0  0  0  0
   12.1052  -17.0902   25.7026 O   0  0  0  0  0  0  0  0  0  0  0  0
  2  3  1  0
  2  1  1  6
  4  3  1  0
  4  8  1  0
  5  4  2  0
  6  2  1  0
  7  6  2  0
  9 10  1  0
 10 12  1  0
 11 10  2  0
 13 12  1  1
 13 14  1  0
 14  6  1  0
 15 13  1  0
 15 17  1  0
 16 15  2  0
 18 19  1  6
 18 17  1  0
 20 21  1  0
 20 19  1  0
 22 21  1  0
 23 22  1  0
 24 18  1  0
 25 24  1  0
 26 24  2  0
M  END
$$$$
