DNK.pdb
     RDKit          3D

 26 25  0  0  1  0  0  0  0  0999 V2000
    9.6135  -15.8914   17.1890 N   0  0  0  0  0  0  0  0  0  0  0  0
    9.0250  -14.8516   17.9555 C   0  0  1  0  0  0  0  0  0  0  0  0
    8.0226  -14.1453   17.0448 C   0  0  0  0  0  0  0  0  0  0  0  0
    8.5434  -14.1565   15.6507 C   0  0  0  0  0  0  0  0  0  0  0  0
    9.6839  -14.6387   15.4207 O   0  0  0  0  0  0  0  0  0  0  0  0
    8.4005  -15.2279   19.2235 C   0  0  0  0  0  0  0  0  0  0  0  0
    7.8773  -14.3188   19.9678 O   0  0  0  0  0  0  0  0  0  0  0  0
    7.8284  -13.6573   14.5805 O   0  0  0  0  0  0  0  0  0  0  0  0
    6.2112  -17.7791   19.0541 N   0  0  0  0  0  0  0  0  0  0  0  0
    6.5451  -18.7366   20.0469 C   0  0  0  0  0  0  0  0  0  0  0  0
    6.1252  -19.9043   19.8663 O   0  0  0  0  0  0  0  0  0  0  0  0
    7.3494  -18.2880   21.1998 C   0  0  0  0  0  0  0  0  0  0  0  0
    7.8617  -16.8840   21.0748 C   0  0  2  0  0  0  0  0  0  0  0  0
    8.3070  -16.5340   19.7404 N   0  0  0  0  0  0  0  0  0  0  0  0
    8.8363  -16.5065   22.0943 C   0  0  0  0  0  0  0  0  0  0  0  0
   10.0704  -16.4831   21.7626 O   0  0  0  0  0  0  0  0  0  0  0  0
    8.5153  -16.1655   23.4291 N   0  0  0  0  0  0  0  0  0  0  0  0
    9.5231  -15.8154   24.4368 C   0  0  1  0  0  0  0  0  0  0  0  0
    8.9046  -15.1851   25.6337 C   0  0  0  0  0  0  0  0  0  0  0  0
    9.9289  -14.9618   26.6986 C   0  0  0  0  0  0  0  0  0  0  0  0
    9.3386  -14.4407   27.9883 C   0  0  0  0  0  0  0  0  0  0  0  0
   10.4138  -14.2383   29.0426 C   0  0  0  0  0  0  0  0  0  0  0  0
    9.9032  -13.6157   30.2434 N   0  0  0  0  0  0  0  0  0  0  0  0
   10.3374  -17.0217   24.7156 C   0  0  0  0  0  0  0  0  0  0  0  0
   11.6889  -17.0376   24.9257 O   0  0  0  0  0  0  0  0  0  0  0  0
    9.7587  -18.1643   24.7716 O   0  0  0  0  0  0  0  0  0  0  0  0
  2  3  1  0
  2  1  1  6
  4  3  1  0
  4  8  1  0
  5  4  2  0
  6  2  1  0
  7  6  2  0
  9 10  1  0
 10 12  1  0
 11 10  2  0
 13 12  1  6
 13 14  1  0
 14  6  1  0
 15 13  1  0
 15 17  1  0
 16 15  2  0
 18 19  1  1
 18 17  1  0
 20 21  1  0
 20 19  1  0
 22 21  1  0
 23 22  1  0
 24 18  1  0
 25 24  1  0
 26 24  2  0
M  END
$$$$
