DNK.pdb
     RDKit          3D

 26 25  0  0  1  0  0  0  0  0999 V2000
   11.1202  -19.1128   18.9604 N   0  0  0  0  0  0  0  0  0  0  0  0
   11.6538  -17.8001   19.0471 C   0  0  1  0  0  0  0  0  0  0  0  0
   12.2620  -17.4801   17.6831 C   0  0  0  0  0  0  0  0  0  0  0  0
   13.3322  -18.4706   17.3856 C   0  0  0  0  0  0  0  0  0  0  0  0
   13.4846  -18.8798   16.2043 O   0  0  0  0  0  0  0  0  0  0  0  0
   10.7449  -16.7366   19.4739 C   0  0  0  0  0  0  0  0  0  0  0  0
   10.0434  -16.1110   18.5960 O   0  0  0  0  0  0  0  0  0  0  0  0
   14.1794  -18.9708   18.3540 O   0  0  0  0  0  0  0  0  0  0  0  0
    7.1772  -13.5152   20.8563 N   0  0  0  0  0  0  0  0  0  0  0  0
    7.0794  -14.8578   21.3057 C   0  0  0  0  0  0  0  0  0  0  0  0
    6.1014  -15.1356   22.0399 O   0  0  0  0  0  0  0  0  0  0  0  0
    8.1238  -15.8091   20.8797 C   0  0  0  0  0  0  0  0  0  0  0  0
    9.5163  -15.3863   21.2423 C   0  0  2  0  0  0  0  0  0  0  0  0
   10.5470  -16.3041   20.7988 N   0  0  0  0  0  0  0  0  0  0  0  0
    9.6846  -15.0085   22.6426 C   0  0  0  0  0  0  0  0  0  0  0  0
   10.0504  -13.8111   22.8993 O   0  0  0  0  0  0  0  0  0  0  0  0
    9.4745  -15.8739   23.7416 N   0  0  0  0  0  0  0  0  0  0  0  0
    8.8649  -15.4407   25.0043 C   0  0  1  0  0  0  0  0  0  0  0  0
    7.5459  -14.7906   24.7810 C   0  0  0  0  0  0  0  0  0  0  0  0
    7.5908  -13.3550   25.1936 C   0  0  0  0  0  0  0  0  0  0  0  0
    6.4601  -12.9688   26.1185 C   0  0  0  0  0  0  0  0  0  0  0  0
    6.4984  -11.4852   26.4438 C   0  0  0  0  0  0  0  0  0  0  0  0
    5.4032  -11.0750   27.2939 N   0  0  0  0  0  0  0  0  0  0  0  0
    8.8427  -16.5987   25.9288 C   0  0  0  0  0  0  0  0  0  0  0  0
    9.6620  -16.7681   27.0109 O   0  0  0  0  0  0  0  0  0  0  0  0
    7.9966  -17.5405   25.7269 O   0  0  0  0  0  0  0  0  0  0  0  0
  2  3  1  0
  2  1  1  6
  4  3  1  0
  4  8  1  0
  5  4  2  0
  6  2  1  0
  7  6  2  0
  9 10  1  0
 10 12  1  0
 11 10  2  0
 13 12  1  1
 13 14  1  0
 14  6  1  0
 15 13  1  0
 15 17  1  0
 16 15  2  0
 18 19  1  6
 18 17  1  0
 20 21  1  0
 20 19  1  0
 22 21  1  0
 23 22  1  0
 24 18  1  0
 25 24  1  0
 26 24  2  0
M  END
$$$$
