DNK.pdb
     RDKit          3D

 26 25  0  0  1  0  0  0  0  0999 V2000
   12.4270  -17.6647   16.4773 N   0  0  0  0  0  0  0  0  0  0  0  0
   12.5230  -18.6249   17.5185 C   0  0  1  0  0  0  0  0  0  0  0  0
   12.5744  -19.9972   16.8497 C   0  0  0  0  0  0  0  0  0  0  0  0
   11.2454  -20.2932   16.2488 C   0  0  0  0  0  0  0  0  0  0  0  0
   10.3746  -19.3849   16.1966 O   0  0  0  0  0  0  0  0  0  0  0  0
   13.6217  -18.4691   18.4713 C   0  0  0  0  0  0  0  0  0  0  0  0
   13.7209  -19.2811   19.4639 O   0  0  0  0  0  0  0  0  0  0  0  0
   10.9142  -21.5320   15.7378 O   0  0  0  0  0  0  0  0  0  0  0  0
   18.2119  -18.8365   18.0761 N   0  0  0  0  0  0  0  0  0  0  0  0
   17.5055  -17.6594   17.7165 C   0  0  0  0  0  0  0  0  0  0  0  0
   17.3854  -17.4278   16.4898 O   0  0  0  0  0  0  0  0  0  0  0  0
   16.9755  -16.8105   18.8008 C   0  0  0  0  0  0  0  0  0  0  0  0
   15.6880  -17.3071   19.3880 C   0  0  2  0  0  0  0  0  0  0  0  0
   14.6251  -17.4831   18.4181 N   0  0  0  0  0  0  0  0  0  0  0  0
   15.2392  -16.5682   20.5646 C   0  0  0  0  0  0  0  0  0  0  0  0
   15.8118  -15.4560   20.8269 O   0  0  0  0  0  0  0  0  0  0  0  0
   14.2147  -16.9947   21.4418 N   0  0  0  0  0  0  0  0  0  0  0  0
   13.8958  -16.3129   22.7017 C   0  0  1  0  0  0  0  0  0  0  0  0
   12.6413  -16.8364   23.3052 C   0  0  0  0  0  0  0  0  0  0  0  0
   12.4055  -16.2194   24.6457 C   0  0  0  0  0  0  0  0  0  0  0  0
   11.2416  -16.8368   25.3855 C   0  0  0  0  0  0  0  0  0  0  0  0
   11.0433  -16.1824   26.7424 C   0  0  0  0  0  0  0  0  0  0  0  0
    9.8572  -16.6568   27.4192 N   0  0  0  0  0  0  0  0  0  0  0  0
   15.0879  -16.3810   23.5794 C   0  0  0  0  0  0  0  0  0  0  0  0
   15.8164  -17.5078   23.8451 O   0  0  0  0  0  0  0  0  0  0  0  0
   15.4992  -15.3119   24.1550 O   0  0  0  0  0  0  0  0  0  0  0  0
  2  3  1  0
  2  1  1  6
  4  3  1  0
  4  8  1  0
  5  4  2  0
  6  2  1  0
  7  6  2  0
  9 10  1  0
 10 12  1  0
 11 10  2  0
 13 12  1  6
 13 14  1  0
 14  6  1  0
 15 13  1  0
 15 17  1  0
 16 15  2  0
 18 19  1  1
 18 17  1  0
 20 21  1  0
 20 19  1  0
 22 21  1  0
 23 22  1  0
 24 18  1  0
 25 24  1  0
 26 24  2  0
M  END
$$$$
