DNK.pdb
     RDKit          3D

 26 25  0  0  1  0  0  0  0  0999 V2000
   12.7731  -16.1931   17.6341 N   0  0  0  0  0  0  0  0  0  0  0  0
   13.2818  -15.4161   18.7077 C   0  0  1  0  0  0  0  0  0  0  0  0
   14.0970  -14.2842   18.0855 C   0  0  0  0  0  0  0  0  0  0  0  0
   15.2200  -14.8693   17.3035 C   0  0  0  0  0  0  0  0  0  0  0  0
   14.9964  -15.3360   16.1553 O   0  0  0  0  0  0  0  0  0  0  0  0
   12.3133  -14.8915   19.6701 C   0  0  0  0  0  0  0  0  0  0  0  0
   12.7232  -14.1763   20.6573 O   0  0  0  0  0  0  0  0  0  0  0  0
   16.5142  -14.9270   17.7804 O   0  0  0  0  0  0  0  0  0  0  0  0
    8.8298  -12.2069   18.5198 N   0  0  0  0  0  0  0  0  0  0  0  0
    8.7638  -13.6176   18.6597 C   0  0  0  0  0  0  0  0  0  0  0  0
    8.8011  -14.2902   17.6019 O   0  0  0  0  0  0  0  0  0  0  0  0
    8.6568  -14.1748   20.0217 C   0  0  0  0  0  0  0  0  0  0  0  0
    9.9689  -14.6033   20.6085 C   0  0  2  0  0  0  0  0  0  0  0  0
   10.9208  -15.0946   19.6318 N   0  0  0  0  0  0  0  0  0  0  0  0
    9.8507  -15.4978   21.7564 C   0  0  0  0  0  0  0  0  0  0  0  0
    9.0311  -15.1768   22.6831 O   0  0  0  0  0  0  0  0  0  0  0  0
   10.5813  -16.6978   21.9217 N   0  0  0  0  0  0  0  0  0  0  0  0
   10.4959  -17.5351   23.1239 C   0  0  1  0  0  0  0  0  0  0  0  0
   11.0031  -18.9102   22.8706 C   0  0  0  0  0  0  0  0  0  0  0  0
    9.9303  -19.9202   23.1193 C   0  0  0  0  0  0  0  0  0  0  0  0
   10.4023  -21.3436   22.9339 C   0  0  0  0  0  0  0  0  0  0  0  0
    9.3171  -22.3366   23.3145 C   0  0  0  0  0  0  0  0  0  0  0  0
    9.7385  -23.7097   23.1487 N   0  0  0  0  0  0  0  0  0  0  0  0
   11.1627  -16.8175   24.2359 C   0  0  0  0  0  0  0  0  0  0  0  0
   10.8009  -16.8809   25.5535 O   0  0  0  0  0  0  0  0  0  0  0  0
   12.1674  -16.0643   23.9772 O   0  0  0  0  0  0  0  0  0  0  0  0
  2  3  1  0
  2  1  1  6
  4  3  1  0
  4  8  1  0
  5  4  2  0
  6  2  1  0
  7  6  2  0
  9 10  1  0
 10 12  1  0
 11 10  2  0
 13 12  1  6
 13 14  1  0
 14  6  1  0
 15 13  1  0
 15 17  1  0
 16 15  2  0
 18 19  1  6
 18 17  1  0
 20 21  1  0
 20 19  1  0
 22 21  1  0
 23 22  1  0
 24 18  1  0
 25 24  1  0
 26 24  2  0
M  END
$$$$
