GVW.pdb
     RDKit          3D

 26 27  0  0  1  0  0  0  0  0999 V2000
   28.0639  -19.7818  -17.0991 N   0  0  0  0  0  0  0  0  0  0  0  0
   27.5089  -20.7704  -16.2216 C   0  0  0  0  0  0  0  0  0  0  0  0
   26.7907  -20.0837  -15.0992 C   0  0  0  0  0  0  0  0  0  0  0  0
   26.8527  -18.8490  -15.0039 O   0  0  0  0  0  0  0  0  0  0  0  0
   23.4247  -19.5873  -14.5084 C   0  0  0  0  0  0  0  0  0  0  0  0
   23.8225  -20.3761  -13.2613 C   0  0  1  0  0  0  0  0  0  0  0  0
   23.3614  -21.7960  -13.3305 C   0  0  0  0  0  0  0  0  0  0  0  0
   25.3345  -20.2528  -13.0663 C   0  0  2  0  0  0  0  0  0  0  0  0
   26.0507  -20.8523  -14.1611 N   0  0  0  0  0  0  0  0  0  0  0  0
   25.6678  -20.9431  -11.7696 C   0  0  0  0  0  0  0  0  0  0  0  0
   25.9154  -22.1723  -11.7769 O   0  0  0  0  0  0  0  0  0  0  0  0
   25.6975  -20.1997  -10.5643 N   0  0  0  0  0  0  0  0  0  0  0  0
   26.0394  -20.8313   -9.3062 C   0  0  1  0  0  0  0  0  0  0  0  0
   27.1354  -19.9879   -8.6763 C   0  0  0  0  0  0  0  0  0  0  0  0
   27.5155  -20.5123   -7.3575 C   0  0  0  0  0  0  0  0  0  0  0  0
   27.4664  -21.8572   -6.9750 C   0  0  0  0  0  0  0  0  0  0  0  0
   27.8911  -21.9252   -5.7106 N   0  0  0  0  0  0  0  0  0  0  0  0
   28.2061  -20.6822   -5.2782 C   0  0  0  0  0  0  0  0  0  0  0  0
   28.6835  -20.2046   -4.0702 C   0  0  0  0  0  0  0  0  0  0  0  0
   28.9154  -18.8572   -3.9172 C   0  0  0  0  0  0  0  0  0  0  0  0
   28.6893  -17.9548   -4.9286 C   0  0  0  0  0  0  0  0  0  0  0  0
   28.2136  -18.4179   -6.1375 C   0  0  0  0  0  0  0  0  0  0  0  0
   27.9792  -19.7809   -6.2914 C   0  0  0  0  0  0  0  0  0  0  0  0
   24.8219  -20.7784   -8.4293 C   0  0  0  0  0  0  0  0  0  0  0  0
   24.6841  -21.7014   -7.4222 O   0  0  0  0  0  0  0  0  0  0  0  0
   23.9272  -19.9159   -8.5897 O   0  0  0  0  0  0  0  0  0  0  0  0
  2  1  1  0
  3  4  2  0
  3  2  1  0
  6  5  1  6
  6  8  1  0
  7  6  1  0
  8  9  1  6
  9  3  1  0
 10 11  2  0
 10  8  1  0
 12 10  1  0
 13 12  1  0
 13 14  1  1
 15 23  1  0
 15 14  1  0
 16 15  2  0
 17 16  1  0
 17 18  1  0
 18 19  1  0
 18 23  2  0
 19 20  2  0
 20 21  1  0
 22 21  2  0
 23 22  1  0
 24 13  1  0
 25 24  1  0
 26 24  2  0
M  END
$$$$
