GVW.pdb
     RDKit          3D

 26 27  0  0  1  0  0  0  0  0999 V2000
   26.1942  -15.9951  -14.7470 N   0  0  0  0  0  0  0  0  0  0  0  0
   27.0136  -17.0129  -14.1572 C   0  0  0  0  0  0  0  0  0  0  0  0
   26.1340  -18.0256  -13.4879 C   0  0  0  0  0  0  0  0  0  0  0  0
   24.9053  -17.8593  -13.4910 O   0  0  0  0  0  0  0  0  0  0  0  0
   27.6435  -21.8495  -13.0279 C   0  0  0  0  0  0  0  0  0  0  0  0
   26.1476  -21.5364  -13.0286 C   0  0  1  0  0  0  0  0  0  0  0  0
   25.3433  -22.6613  -12.4619 C   0  0  0  0  0  0  0  0  0  0  0  0
   25.9239  -20.2164  -12.2888 C   0  0  2  0  0  0  0  0  0  0  0  0
   26.7159  -19.1595  -12.8599 N   0  0  0  0  0  0  0  0  0  0  0  0
   26.3040  -20.4495  -10.8500 C   0  0  0  0  0  0  0  0  0  0  0  0
   27.5173  -20.5153  -10.5406 O   0  0  0  0  0  0  0  0  0  0  0  0
   25.2920  -20.5908   -9.8690 N   0  0  0  0  0  0  0  0  0  0  0  0
   25.6232  -20.9150   -8.4965 C   0  0  1  0  0  0  0  0  0  0  0  0
   25.4059  -19.6499   -7.6830 C   0  0  0  0  0  0  0  0  0  0  0  0
   26.6815  -19.1092   -7.1937 C   0  0  0  0  0  0  0  0  0  0  0  0
   27.3729  -18.0299   -7.7547 C   0  0  0  0  0  0  0  0  0  0  0  0
   28.4781  -17.8465   -7.0277 N   0  0  0  0  0  0  0  0  0  0  0  0
   28.5146  -18.7627   -6.0325 C   0  0  0  0  0  0  0  0  0  0  0  0
   29.4246  -19.0076   -5.0188 C   0  0  0  0  0  0  0  0  0  0  0  0
   29.1931  -20.0341   -4.1326 C   0  0  0  0  0  0  0  0  0  0  0  0
   28.0805  -20.8364   -4.2143 C   0  0  0  0  0  0  0  0  0  0  0  0
   27.1659  -20.6028   -5.2199 C   0  0  0  0  0  0  0  0  0  0  0  0
   27.4008  -19.5644   -6.1158 C   0  0  0  0  0  0  0  0  0  0  0  0
   24.6522  -21.9623   -8.0334 C   0  0  0  0  0  0  0  0  0  0  0  0
   25.0921  -22.9558   -7.1941 O   0  0  0  0  0  0  0  0  0  0  0  0
   23.4513  -21.9563   -8.3908 O   0  0  0  0  0  0  0  0  0  0  0  0
  2  1  1  0
  3  4  2  0
  3  2  1  0
  6  5  1  1
  6  8  1  0
  7  6  1  0
  8  9  1  6
  9  3  1  0
 10 11  2  0
 10  8  1  0
 12 10  1  0
 13 12  1  0
 13 14  1  1
 15 23  1  0
 15 14  1  0
 16 15  2  0
 17 16  1  0
 17 18  1  0
 18 19  1  0
 18 23  2  0
 19 20  2  0
 20 21  1  0
 22 21  2  0
 23 22  1  0
 24 13  1  0
 25 24  1  0
 26 24  2  0
M  END
$$$$
