GVW.pdb
     RDKit          3D

 26 27  0  0  1  0  0  0  0  0999 V2000
   28.8428  -23.2577  -17.8971 N   0  0  0  0  0  0  0  0  0  0  0  0
   27.6974  -22.9713  -17.0840 C   0  0  0  0  0  0  0  0  0  0  0  0
   28.0857  -21.9957  -16.0141 C   0  0  0  0  0  0  0  0  0  0  0  0
   29.2364  -21.5338  -16.0020 O   0  0  0  0  0  0  0  0  0  0  0  0
   25.3292  -19.3891  -14.9541 C   0  0  0  0  0  0  0  0  0  0  0  0
   26.8185  -19.2124  -14.6596 C   0  0  1  0  0  0  0  0  0  0  0  0
   27.0721  -18.0555  -13.7483 C   0  0  0  0  0  0  0  0  0  0  0  0
   27.3683  -20.5303  -14.1115 C   0  0  2  0  0  0  0  0  0  0  0  0
   27.1350  -21.6132  -15.0300 N   0  0  0  0  0  0  0  0  0  0  0  0
   26.6727  -20.7847  -12.7999 C   0  0  0  0  0  0  0  0  0  0  0  0
   25.5174  -21.2720  -12.8044 O   0  0  0  0  0  0  0  0  0  0  0  0
   27.3282  -20.4722  -11.5838 N   0  0  0  0  0  0  0  0  0  0  0  0
   26.7220  -20.7882  -10.3065 C   0  0  1  0  0  0  0  0  0  0  0  0
   27.6362  -20.2182   -9.2348 C   0  0  0  0  0  0  0  0  0  0  0  0
   27.0919  -20.4588   -7.8915 C   0  0  0  0  0  0  0  0  0  0  0  0
   25.9162  -21.1618   -7.6072 C   0  0  0  0  0  0  0  0  0  0  0  0
   25.7665  -21.1633   -6.2800 N   0  0  0  0  0  0  0  0  0  0  0  0
   26.7962  -20.4919   -5.7142 C   0  0  0  0  0  0  0  0  0  0  0  0
   27.1158  -20.2046   -4.3986 C   0  0  0  0  0  0  0  0  0  0  0  0
   28.2542  -19.4846   -4.1185 C   0  0  0  0  0  0  0  0  0  0  0  0
   29.0976  -19.0335   -5.1051 C   0  0  0  0  0  0  0  0  0  0  0  0
   28.7905  -19.3131   -6.4203 C   0  0  0  0  0  0  0  0  0  0  0  0
   27.6389  -20.0414   -6.7027 C   0  0  0  0  0  0  0  0  0  0  0  0
   25.4011  -20.0771  -10.2459 C   0  0  0  0  0  0  0  0  0  0  0  0
   24.2987  -20.7548   -9.7872 O   0  0  0  0  0  0  0  0  0  0  0  0
   25.2752  -18.8824  -10.6020 O   0  0  0  0  0  0  0  0  0  0  0  0
  2  1  1  0
  3  4  2  0
  3  2  1  0
  6  5  1  1
  6  8  1  0
  7  6  1  0
  8  9  1  6
  9  3  1  0
 10 11  2  0
 10  8  1  0
 12 10  1  0
 13 12  1  0
 13 14  1  1
 15 23  1  0
 15 14  1  0
 16 15  2  0
 17 16  1  0
 17 18  1  0
 18 19  1  0
 18 23  2  0
 19 20  2  0
 20 21  1  0
 22 21  2  0
 23 22  1  0
 24 13  1  0
 25 24  1  0
 26 24  2  0
M  END
$$$$
