GVW.pdb
     RDKit          3D

 26 27  0  0  1  0  0  0  0  0999 V2000
   28.0576  -20.2849  -18.8229 N   0  0  0  0  0  0  0  0  0  0  0  0
   29.0557  -20.8488  -17.9620 C   0  0  0  0  0  0  0  0  0  0  0  0
   28.7741  -20.4380  -16.5480 C   0  0  0  0  0  0  0  0  0  0  0  0
   29.4852  -20.8809  -15.6339 O   0  0  0  0  0  0  0  0  0  0  0  0
   25.4073  -17.8987  -15.8260 C   0  0  0  0  0  0  0  0  0  0  0  0
   26.6632  -17.7550  -14.9670 C   0  0  1  0  0  0  0  0  0  0  0  0
   26.3464  -17.2415  -13.5997 C   0  0  0  0  0  0  0  0  0  0  0  0
   27.3942  -19.0983  -14.9409 C   0  0  2  0  0  0  0  0  0  0  0  0
   27.6998  -19.5500  -16.2725 N   0  0  0  0  0  0  0  0  0  0  0  0
   26.4888  -20.0775  -14.2405 C   0  0  0  0  0  0  0  0  0  0  0  0
   25.5918  -20.6584  -14.8964 O   0  0  0  0  0  0  0  0  0  0  0  0
   26.6605  -20.3290  -12.8572 N   0  0  0  0  0  0  0  0  0  0  0  0
   25.9980  -21.4451  -12.2137 C   0  0  1  0  0  0  0  0  0  0  0  0
   26.8829  -21.8700  -11.0536 C   0  0  0  0  0  0  0  0  0  0  0  0
   26.6450  -21.0311   -9.8711 C   0  0  0  0  0  0  0  0  0  0  0  0
   25.4324  -20.4137   -9.5457 C   0  0  0  0  0  0  0  0  0  0  0  0
   25.6210  -19.7472   -8.4038 N   0  0  0  0  0  0  0  0  0  0  0  0
   26.8996  -19.9167   -7.9943 C   0  0  0  0  0  0  0  0  0  0  0  0
   27.6001  -19.4494   -6.8959 C   0  0  0  0  0  0  0  0  0  0  0  0
   28.9228  -19.7934   -6.7382 C   0  0  0  0  0  0  0  0  0  0  0  0
   29.5849  -20.5926   -7.6389 C   0  0  0  0  0  0  0  0  0  0  0  0
   28.8981  -21.0649   -8.7377 C   0  0  0  0  0  0  0  0  0  0  0  0
   27.5603  -20.7165   -8.8965 C   0  0  0  0  0  0  0  0  0  0  0  0
   24.6925  -20.9417  -11.6692 C   0  0  0  0  0  0  0  0  0  0  0  0
   23.7151  -21.8465  -11.3357 O   0  0  0  0  0  0  0  0  0  0  0  0
   24.4686  -19.7192  -11.5101 O   0  0  0  0  0  0  0  0  0  0  0  0
  2  1  1  0
  3  4  2  0
  3  2  1  0
  6  5  1  6
  6  8  1  0
  7  6  1  0
  8  9  1  6
  9  3  1  0
 10 11  2  0
 10  8  1  0
 12 10  1  0
 13 12  1  0
 13 14  1  1
 15 23  1  0
 15 14  1  0
 16 15  2  0
 17 16  1  0
 17 18  1  0
 18 19  1  0
 18 23  2  0
 19 20  2  0
 20 21  1  0
 22 21  2  0
 23 22  1  0
 24 13  1  0
 25 24  1  0
 26 24  2  0
M  END
$$$$
