GVW.pdb
     RDKit          3D

 26 27  0  0  1  0  0  0  0  0999 V2000
   29.4614  -22.8293  -16.5322 N   0  0  0  0  0  0  0  0  0  0  0  0
   28.0650  -22.9378  -16.2264 C   0  0  0  0  0  0  0  0  0  0  0  0
   27.6816  -21.8380  -15.2826 C   0  0  0  0  0  0  0  0  0  0  0  0
   28.4800  -20.9131  -15.0716 O   0  0  0  0  0  0  0  0  0  0  0  0
   24.0223  -19.2285  -13.4167 C   0  0  0  0  0  0  0  0  0  0  0  0
   24.5900  -20.2498  -14.4018 C   0  0  1  0  0  0  0  0  0  0  0  0
   24.7116  -19.6854  -15.7803 C   0  0  0  0  0  0  0  0  0  0  0  0
   25.9204  -20.7697  -13.8548 C   0  0  2  0  0  0  0  0  0  0  0  0
   26.4133  -21.8680  -14.6432 N   0  0  0  0  0  0  0  0  0  0  0  0
   25.6717  -21.2030  -12.4337 C   0  0  0  0  0  0  0  0  0  0  0  0
   24.9785  -22.2254  -12.2182 O   0  0  0  0  0  0  0  0  0  0  0  0
   26.2207  -20.4546  -11.3638 N   0  0  0  0  0  0  0  0  0  0  0  0
   26.0816  -20.9005   -9.9925 C   0  0  1  0  0  0  0  0  0  0  0  0
   27.0249  -20.0504   -9.1577 C   0  0  0  0  0  0  0  0  0  0  0  0
   26.9104  -20.3785   -7.7301 C   0  0  0  0  0  0  0  0  0  0  0  0
   26.0033  -21.2893   -7.1778 C   0  0  0  0  0  0  0  0  0  0  0  0
   26.2138  -21.3080   -5.8591 N   0  0  0  0  0  0  0  0  0  0  0  0
   27.2139  -20.4488   -5.5547 C   0  0  0  0  0  0  0  0  0  0  0  0
   27.8120  -20.0950   -4.3578 C   0  0  0  0  0  0  0  0  0  0  0  0
   28.8302  -19.1699   -4.3554 C   0  0  0  0  0  0  0  0  0  0  0  0
   29.2833  -18.5753   -5.5084 C   0  0  0  0  0  0  0  0  0  0  0  0
   28.6958  -18.9192   -6.7080 C   0  0  0  0  0  0  0  0  0  0  0  0
   27.6660  -19.8550   -6.7095 C   0  0  0  0  0  0  0  0  0  0  0  0
   24.6695  -20.6183   -9.5675 C   0  0  0  0  0  0  0  0  0  0  0  0
   24.0439  -21.4893   -8.7101 O   0  0  0  0  0  0  0  0  0  0  0  0
   24.0448  -19.6106   -9.9727 O   0  0  0  0  0  0  0  0  0  0  0  0
  2  1  1  0
  3  4  2  0
  3  2  1  0
  6  5  1  1
  6  8  1  0
  7  6  1  0
  8  9  1  6
  9  3  1  0
 10 11  2  0
 10  8  1  0
 12 10  1  0
 13 12  1  0
 13 14  1  1
 15 23  1  0
 15 14  1  0
 16 15  2  0
 17 16  1  0
 17 18  1  0
 18 19  1  0
 18 23  2  0
 19 20  2  0
 20 21  1  0
 22 21  2  0
 23 22  1  0
 24 13  1  0
 25 24  1  0
 26 24  2  0
M  END
$$$$
