GVW.pdb
     RDKit          3D

 26 27  0  0  1  0  0  0  0  0999 V2000
   29.6393  -26.6564  -17.0789 N   0  0  0  0  0  0  0  0  0  0  0  0
   28.5253  -26.0058  -17.7043 C   0  0  0  0  0  0  0  0  0  0  0  0
   28.1406  -24.8037  -16.8954 C   0  0  0  0  0  0  0  0  0  0  0  0
   28.8814  -24.4293  -15.9743 O   0  0  0  0  0  0  0  0  0  0  0  0
   27.0778  -21.4250  -18.4241 C   0  0  0  0  0  0  0  0  0  0  0  0
   25.9699  -21.8772  -17.4733 C   0  0  1  0  0  0  0  0  0  0  0  0
   24.7748  -22.3852  -18.2131 C   0  0  0  0  0  0  0  0  0  0  0  0
   26.5488  -22.9081  -16.5030 C   0  0  2  0  0  0  0  0  0  0  0  0
   26.9365  -24.1104  -17.1919 N   0  0  0  0  0  0  0  0  0  0  0  0
   25.4796  -23.1996  -15.4827 C   0  0  0  0  0  0  0  0  0  0  0  0
   24.6208  -24.0789  -15.7306 O   0  0  0  0  0  0  0  0  0  0  0  0
   25.4574  -22.4812  -14.2621 N   0  0  0  0  0  0  0  0  0  0  0  0
   24.5082  -22.8117  -13.2188 C   0  0  1  0  0  0  0  0  0  0  0  0
   25.2445  -22.6725  -11.8968 C   0  0  0  0  0  0  0  0  0  0  0  0
   25.5772  -21.2682  -11.6211 C   0  0  0  0  0  0  0  0  0  0  0  0
   25.0235  -20.4895  -10.5991 C   0  0  0  0  0  0  0  0  0  0  0  0
   25.5815  -19.2786  -10.6771 N   0  0  0  0  0  0  0  0  0  0  0  0
   26.4630  -19.2588  -11.7036 C   0  0  0  0  0  0  0  0  0  0  0  0
   27.2911  -18.2707  -12.2072 C   0  0  0  0  0  0  0  0  0  0  0  0
   28.0970  -18.5463  -13.2876 C   0  0  0  0  0  0  0  0  0  0  0  0
   28.1131  -19.7789  -13.8947 C   0  0  0  0  0  0  0  0  0  0  0  0
   27.2926  -20.7723  -13.4026 C   0  0  0  0  0  0  0  0  0  0  0  0
   26.4778  -20.4927  -12.3098 C   0  0  0  0  0  0  0  0  0  0  0  0
   23.4074  -21.7921  -13.2709 C   0  0  0  0  0  0  0  0  0  0  0  0
   23.4993  -20.7558  -14.1669 O   0  0  0  0  0  0  0  0  0  0  0  0
   22.4064  -21.8593  -12.5202 O   0  0  0  0  0  0  0  0  0  0  0  0
  2  1  1  0
  3  4  2  0
  3  2  1  0
  6  5  1  6
  6  8  1  0
  7  6  1  0
  8  9  1  6
  9  3  1  0
 10 11  2  0
 10  8  1  0
 12 10  1  0
 13 12  1  0
 13 14  1  1
 15 23  1  0
 15 14  1  0
 16 15  2  0
 17 16  1  0
 17 18  1  0
 18 19  1  0
 18 23  2  0
 19 20  2  0
 20 21  1  0
 22 21  2  0
 23 22  1  0
 24 13  1  0
 25 24  1  0
 26 24  2  0
M  END
$$$$
