GVW.pdb
     RDKit          3D

 26 27  0  0  1  0  0  0  0  0999 V2000
   26.3546  -10.9966  -20.9025 N   0  0  0  0  0  0  0  0  0  0  0  0
   25.5282  -10.7336  -19.7609 C   0  0  0  0  0  0  0  0  0  0  0  0
   24.3964   -9.8392  -20.1690 C   0  0  0  0  0  0  0  0  0  0  0  0
   24.6380   -8.8148  -20.8245 O   0  0  0  0  0  0  0  0  0  0  0  0
   19.4987   -9.3262  -20.6500 C   0  0  0  0  0  0  0  0  0  0  0  0
   20.7257  -10.2288  -20.5248 C   0  0  1  0  0  0  0  0  0  0  0  0
   20.9410  -11.0491  -21.7554 C   0  0  0  0  0  0  0  0  0  0  0  0
   21.9358   -9.3629  -20.1706 C   0  0  2  0  0  0  0  0  0  0  0  0
   23.0655  -10.1740  -19.8013 N   0  0  0  0  0  0  0  0  0  0  0  0
   21.5206   -8.4748  -19.0269 C   0  0  0  0  0  0  0  0  0  0  0  0
   20.6235   -7.6184  -19.2117 O   0  0  0  0  0  0  0  0  0  0  0  0
   22.1448   -8.6170  -17.7634 N   0  0  0  0  0  0  0  0  0  0  0  0
   21.7418   -7.8015  -16.6359 C   0  0  1  0  0  0  0  0  0  0  0  0
   22.5114   -8.3117  -15.4290 C   0  0  0  0  0  0  0  0  0  0  0  0
   23.9327   -8.5021  -15.7489 C   0  0  0  0  0  0  0  0  0  0  0  0
   24.8250   -7.4873  -16.1118 C   0  0  0  0  0  0  0  0  0  0  0  0
   26.0137   -8.0601  -16.3181 N   0  0  0  0  0  0  0  0  0  0  0  0
   25.9109   -9.3919  -16.1015 C   0  0  0  0  0  0  0  0  0  0  0  0
   26.8279  -10.4258  -16.1766 C   0  0  0  0  0  0  0  0  0  0  0  0
   26.4259  -11.7111  -15.8953 C   0  0  0  0  0  0  0  0  0  0  0  0
   25.1339  -12.0136  -15.5380 C   0  0  0  0  0  0  0  0  0  0  0  0
   24.2103  -10.9923  -15.4595 C   0  0  0  0  0  0  0  0  0  0  0  0
   24.6177   -9.6926  -15.7442 C   0  0  0  0  0  0  0  0  0  0  0  0
   22.1694   -6.3913  -16.9234 C   0  0  0  0  0  0  0  0  0  0  0  0
   21.6900   -5.3746  -16.1350 O   0  0  0  0  0  0  0  0  0  0  0  0
   22.9515   -6.1148  -17.8625 O   0  0  0  0  0  0  0  0  0  0  0  0
  2  1  1  0
  3  4  2  0
  3  2  1  0
  6  5  1  6
  6  8  1  0
  7  6  1  0
  8  9  1  1
  9  3  1  0
 10 11  2  0
 10  8  1  0
 12 10  1  0
 13 12  1  0
 13 14  1  1
 15 23  1  0
 15 14  1  0
 16 15  2  0
 17 16  1  0
 17 18  1  0
 18 19  1  0
 18 23  2  0
 19 20  2  0
 20 21  1  0
 22 21  2  0
 23 22  1  0
 24 13  1  0
 25 24  1  0
 26 24  2  0
M  END
$$$$
