GVW.pdb
     RDKit          3D

 26 27  0  0  1  0  0  0  0  0999 V2000
   23.2927  -18.9390  -19.2183 N   0  0  0  0  0  0  0  0  0  0  0  0
   23.5655  -18.2284  -18.0034 C   0  0  0  0  0  0  0  0  0  0  0  0
   24.5712  -18.9966  -17.1998 C   0  0  0  0  0  0  0  0  0  0  0  0
   24.5471  -20.2361  -17.2218 O   0  0  0  0  0  0  0  0  0  0  0  0
   28.8573  -18.9092  -14.7523 C   0  0  0  0  0  0  0  0  0  0  0  0
   27.8795  -18.2348  -15.7141 C   0  0  1  0  0  0  0  0  0  0  0  0
   28.4321  -18.1492  -17.1000 C   0  0  0  0  0  0  0  0  0  0  0  0
   26.5435  -18.9771  -15.6535 C   0  0  2  0  0  0  0  0  0  0  0  0
   25.5361  -18.2986  -16.4252 N   0  0  0  0  0  0  0  0  0  0  0  0
   26.1458  -19.0478  -14.2024 C   0  0  0  0  0  0  0  0  0  0  0  0
   25.7593  -18.0054  -13.6225 O   0  0  0  0  0  0  0  0  0  0  0  0
   26.2128  -20.2839  -13.5140 N   0  0  0  0  0  0  0  0  0  0  0  0
   25.7912  -20.3924  -12.1323 C   0  0  1  0  0  0  0  0  0  0  0  0
   24.7189  -21.4682  -12.0848 C   0  0  0  0  0  0  0  0  0  0  0  0
   23.4195  -20.9040  -11.6951 C   0  0  0  0  0  0  0  0  0  0  0  0
   22.3996  -20.5324  -12.5778 C   0  0  0  0  0  0  0  0  0  0  0  0
   21.3869  -20.0690  -11.8406 N   0  0  0  0  0  0  0  0  0  0  0  0
   21.7230  -20.1317  -10.5312 C   0  0  0  0  0  0  0  0  0  0  0  0
   21.0485  -19.7828   -9.3742 C   0  0  0  0  0  0  0  0  0  0  0  0
   21.6571  -19.9625   -8.1535 C   0  0  0  0  0  0  0  0  0  0  0  0
   22.9241  -20.4812   -8.0353 C   0  0  0  0  0  0  0  0  0  0  0  0
   23.6071  -20.8329   -9.1808 C   0  0  0  0  0  0  0  0  0  0  0  0
   22.9908  -20.6508  -10.4150 C   0  0  0  0  0  0  0  0  0  0  0  0
   26.9763  -20.8530  -11.3339 C   0  0  0  0  0  0  0  0  0  0  0  0
   27.0152  -20.5928   -9.9863 O   0  0  0  0  0  0  0  0  0  0  0  0
   27.9318  -21.4682  -11.8617 O   0  0  0  0  0  0  0  0  0  0  0  0
  2  1  1  0
  3  4  2  0
  3  2  1  0
  6  5  1  1
  6  8  1  0
  7  6  1  0
  8  9  1  6
  9  3  1  0
 10 11  2  0
 10  8  1  0
 12 10  1  0
 13 12  1  0
 13 14  1  6
 15 23  1  0
 15 14  1  0
 16 15  2  0
 17 16  1  0
 17 18  1  0
 18 19  1  0
 18 23  2  0
 19 20  2  0
 20 21  1  0
 22 21  2  0
 23 22  1  0
 24 13  1  0
 25 24  1  0
 26 24  2  0
M  END
$$$$
