MSS.pdb
     RDKit          3D

 21 20  0  0  1  0  0  0  0  0999 V2000
    7.5027  -10.8756   26.8203 C   0  0  0  0  0  0  0  0  0  0  0  0
    6.4813  -12.3193   27.0935 S   0  0  0  0  0  0  0  0  0  0  0  0
    6.1318  -13.2524   25.6159 C   0  0  0  0  0  0  0  0  0  0  0  0
    7.2189  -14.1336   25.1055 C   0  0  0  0  0  0  0  0  0  0  0  0
    6.7295  -15.4519   24.6489 C   0  0  2  0  0  0  0  0  0  0  0  0
    5.9633  -16.0437   25.7352 N   0  0  0  0  0  0  0  0  0  0  0  0
    7.8414  -16.3657   24.2388 C   0  0  0  0  0  0  0  0  0  0  0  0
    8.1148  -17.3132   24.9899 O   0  0  0  0  0  0  0  0  0  0  0  0
   10.5643  -15.4172   21.1072 O   0  0  0  0  0  0  0  0  0  0  0  0
   10.1463  -16.7279   21.2156 C   0  0  0  0  0  0  0  0  0  0  0  0
    9.6261  -17.0616   22.5896 C   0  0  2  0  0  0  0  0  0  0  0  0
    8.5808  -16.1866   23.0384 N   0  0  0  0  0  0  0  0  0  0  0  0
   10.7637  -17.1171   23.5514 C   0  0  0  0  0  0  0  0  0  0  0  0
   11.4272  -16.0869   23.8255 O   0  0  0  0  0  0  0  0  0  0  0  0
   11.0009  -20.2334   25.9605 O   0  0  0  0  0  0  0  0  0  0  0  0
   11.7781  -19.1254   26.3465 C   0  0  0  0  0  0  0  0  0  0  0  0
   12.2728  -18.4000   25.1057 C   0  0  2  0  0  0  0  0  0  0  0  0
   11.1376  -18.3289   24.1896 N   0  0  0  0  0  0  0  0  0  0  0  0
   13.3871  -19.1830   24.5437 C   0  0  0  0  0  0  0  0  0  0  0  0
   13.2843  -19.7108   23.4206 O   0  0  0  0  0  0  0  0  0  0  0  0
   14.5470  -19.3297   25.2671 O   0  0  0  0  0  0  0  0  0  0  0  0
  2  3  1  0
  2  1  1  0
  3  4  1  0
  4  5  1  0
  5  7  1  0
  5  6  1  1
  7  8  2  0
 10  9  1  0
 11 10  1  6
 12 11  1  0
 12  7  1  0
 13 14  2  0
 13 11  1  0
 16 15  1  0
 17 16  1  1
 17 18  1  0
 18 13  1  0
 19 17  1  0
 19 21  1  0
 20 19  2  0
M  END
$$$$
