MSS.pdb
     RDKit          3D

 21 20  0  0  1  0  0  0  0  0999 V2000
    7.3123  -11.3671   26.3965 C   0  0  0  0  0  0  0  0  0  0  0  0
    6.1484  -12.4778   27.1801 S   0  0  0  0  0  0  0  0  0  0  0  0
    5.9605  -14.0409   26.3449 C   0  0  0  0  0  0  0  0  0  0  0  0
    7.1771  -14.6070   25.6981 C   0  0  0  0  0  0  0  0  0  0  0  0
    6.9285  -15.9026   25.0304 C   0  0  2  0  0  0  0  0  0  0  0  0
    6.5350  -16.8619   26.0513 N   0  0  0  0  0  0  0  0  0  0  0  0
    8.1248  -16.4008   24.2821 C   0  0  0  0  0  0  0  0  0  0  0  0
    8.9062  -17.1541   24.8809 O   0  0  0  0  0  0  0  0  0  0  0  0
    9.2816  -14.9176   20.3816 O   0  0  0  0  0  0  0  0  0  0  0  0
    9.4118  -16.2539   20.7004 C   0  0  0  0  0  0  0  0  0  0  0  0
    9.5313  -16.4898   22.1837 C   0  0  2  0  0  0  0  0  0  0  0  0
    8.3899  -16.0456   22.9318 N   0  0  0  0  0  0  0  0  0  0  0  0
   10.7995  -15.8852   22.6821 C   0  0  0  0  0  0  0  0  0  0  0  0
   10.7953  -14.7844   23.2862 O   0  0  0  0  0  0  0  0  0  0  0  0
   12.8206  -17.5969   24.8492 O   0  0  0  0  0  0  0  0  0  0  0  0
   13.1276  -16.2452   24.6060 C   0  0  0  0  0  0  0  0  0  0  0  0
   13.2768  -16.0236   23.1096 C   0  0  2  0  0  0  0  0  0  0  0  0
   12.0518  -16.5269   22.4941 N   0  0  0  0  0  0  0  0  0  0  0  0
   14.4659  -16.7701   22.6628 C   0  0  0  0  0  0  0  0  0  0  0  0
   14.4636  -18.0153   22.6561 O   0  0  0  0  0  0  0  0  0  0  0  0
   15.5837  -16.0838   22.2511 O   0  0  0  0  0  0  0  0  0  0  0  0
  2  3  1  0
  2  1  1  0
  3  4  1  0
  4  5  1  0
  5  7  1  0
  5  6  1  1
  7  8  2  0
 10  9  1  0
 11 10  1  6
 12 11  1  0
 12  7  1  0
 13 14  2  0
 13 11  1  0
 16 15  1  0
 17 16  1  1
 17 18  1  0
 18 13  1  0
 19 17  1  0
 19 21  1  0
 20 19  2  0
M  END
$$$$
