MSS.pdb
     RDKit          3D

 21 20  0  0  1  0  0  0  0  0999 V2000
    7.6669  -11.7095   18.2950 C   0  0  0  0  0  0  0  0  0  0  0  0
    7.7245  -12.3592   19.9613 S   0  0  0  0  0  0  0  0  0  0  0  0
    8.1473  -14.0881   20.0529 C   0  0  0  0  0  0  0  0  0  0  0  0
    8.2225  -14.6898   21.4135 C   0  0  0  0  0  0  0  0  0  0  0  0
    8.6334  -16.1099   21.3969 C   0  0  2  0  0  0  0  0  0  0  0  0
    7.6269  -16.8567   20.6576 N   0  0  0  0  0  0  0  0  0  0  0  0
    8.7948  -16.6762   22.7727 C   0  0  0  0  0  0  0  0  0  0  0  0
    7.7878  -17.1417   23.3257 O   0  0  0  0  0  0  0  0  0  0  0  0
   12.4015  -18.0901   24.4195 O   0  0  0  0  0  0  0  0  0  0  0  0
   11.1422  -18.3359   24.9278 C   0  0  0  0  0  0  0  0  0  0  0  0
   10.2225  -17.1490   24.8043 C   0  0  2  0  0  0  0  0  0  0  0  0
   10.0419  -16.6978   23.4539 N   0  0  0  0  0  0  0  0  0  0  0  0
   10.6965  -16.0578   25.7025 C   0  0  0  0  0  0  0  0  0  0  0  0
   11.5758  -15.2460   25.3224 O   0  0  0  0  0  0  0  0  0  0  0  0
    8.6425  -14.0818   28.0709 O   0  0  0  0  0  0  0  0  0  0  0  0
   10.0133  -13.7633   28.0725 C   0  0  0  0  0  0  0  0  0  0  0  0
   10.8284  -15.0445   28.0036 C   0  0  2  0  0  0  0  0  0  0  0  0
   10.1752  -15.8960   27.0131 N   0  0  0  0  0  0  0  0  0  0  0  0
   10.8204  -15.6530   29.3454 C   0  0  0  0  0  0  0  0  0  0  0  0
   10.3497  -16.7927   29.5188 O   0  0  0  0  0  0  0  0  0  0  0  0
   11.3372  -14.9547   30.4109 O   0  0  0  0  0  0  0  0  0  0  0  0
  2  3  1  0
  2  1  1  0
  3  4  1  0
  4  5  1  0
  5  7  1  0
  5  6  1  6
  7  8  2  0
 10  9  1  0
 11 10  1  6
 12 11  1  0
 12  7  1  0
 13 14  2  0
 13 11  1  0
 16 15  1  0
 17 16  1  1
 17 18  1  0
 18 13  1  0
 19 17  1  0
 19 21  1  0
 20 19  2  0
M  END
$$$$
