MSS.pdb
     RDKit          3D

 21 20  0  0  1  0  0  0  0  0999 V2000
    6.0166  -11.6006   26.5845 C   0  0  0  0  0  0  0  0  0  0  0  0
    7.2441  -12.6618   27.3393 S   0  0  0  0  0  0  0  0  0  0  0  0
    7.2018  -14.3471   26.7613 C   0  0  0  0  0  0  0  0  0  0  0  0
    6.5368  -14.5911   25.4509 C   0  0  0  0  0  0  0  0  0  0  0  0
    6.5575  -16.0131   25.0467 C   0  0  2  0  0  0  0  0  0  0  0  0
    6.4954  -16.8210   26.2553 N   0  0  0  0  0  0  0  0  0  0  0  0
    7.7734  -16.3646   24.2482 C   0  0  0  0  0  0  0  0  0  0  0  0
    8.5620  -17.1893   24.7326 O   0  0  0  0  0  0  0  0  0  0  0  0
    9.1575  -14.0694   20.8938 O   0  0  0  0  0  0  0  0  0  0  0  0
    9.1957  -15.4472   20.8239 C   0  0  0  0  0  0  0  0  0  0  0  0
    9.2052  -16.0992   22.1822 C   0  0  2  0  0  0  0  0  0  0  0  0
    8.0489  -15.7947   22.9758 N   0  0  0  0  0  0  0  0  0  0  0  0
   10.4748  -15.7610   22.8865 C   0  0  0  0  0  0  0  0  0  0  0  0
   10.4593  -15.2279   24.0232 O   0  0  0  0  0  0  0  0  0  0  0  0
   12.1908  -16.7804   25.2522 O   0  0  0  0  0  0  0  0  0  0  0  0
   12.7916  -17.2439   24.0670 C   0  0  0  0  0  0  0  0  0  0  0  0
   12.9627  -16.0827   23.1012 C   0  0  2  0  0  0  0  0  0  0  0  0
   11.7412  -16.0273   22.3026 N   0  0  0  0  0  0  0  0  0  0  0  0
   14.1504  -16.3593   22.2744 C   0  0  0  0  0  0  0  0  0  0  0  0
   14.0251  -16.6903   21.0805 O   0  0  0  0  0  0  0  0  0  0  0  0
   15.4039  -16.2500   22.8281 O   0  0  0  0  0  0  0  0  0  0  0  0
  2  3  1  0
  2  1  1  0
  3  4  1  0
  4  5  1  0
  5  7  1  0
  5  6  1  1
  7  8  2  0
 10  9  1  0
 11 10  1  6
 12 11  1  0
 12  7  1  0
 13 14  2  0
 13 11  1  0
 16 15  1  0
 17 16  1  1
 17 18  1  0
 18 13  1  0
 19 17  1  0
 19 21  1  0
 20 19  2  0
M  END
$$$$
