MSS.pdb
     RDKit          3D

 21 20  0  0  1  0  0  0  0  0999 V2000
    5.4696  -10.7663   26.4174 C   0  0  0  0  0  0  0  0  0  0  0  0
    6.5442  -12.0379   25.7613 S   0  0  0  0  0  0  0  0  0  0  0  0
    7.0884  -13.2260   26.9733 C   0  0  0  0  0  0  0  0  0  0  0  0
    7.7676  -14.4475   26.4582 C   0  0  0  0  0  0  0  0  0  0  0  0
    7.0598  -15.0661   25.3169 C   0  0  2  0  0  0  0  0  0  0  0  0
    5.8316  -15.6600   25.8231 N   0  0  0  0  0  0  0  0  0  0  0  0
    7.8884  -16.0993   24.6202 C   0  0  0  0  0  0  0  0  0  0  0  0
    8.0331  -17.1954   25.1808 O   0  0  0  0  0  0  0  0  0  0  0  0
   10.2922  -15.1535   21.2065 O   0  0  0  0  0  0  0  0  0  0  0  0
    9.7195  -16.4066   21.2862 C   0  0  0  0  0  0  0  0  0  0  0  0
    9.3739  -16.8001   22.6990 C   0  0  2  0  0  0  0  0  0  0  0  0
    8.5038  -15.8697   23.3600 N   0  0  0  0  0  0  0  0  0  0  0  0
   10.6279  -17.0405   23.4684 C   0  0  0  0  0  0  0  0  0  0  0  0
   11.3352  -16.0817   23.8645 O   0  0  0  0  0  0  0  0  0  0  0  0
   11.3604  -20.7823   24.4989 O   0  0  0  0  0  0  0  0  0  0  0  0
   12.1649  -19.8940   25.2366 C   0  0  0  0  0  0  0  0  0  0  0  0
   12.3390  -18.6029   24.4533 C   0  0  2  0  0  0  0  0  0  0  0  0
   11.0669  -18.3541   23.7805 N   0  0  0  0  0  0  0  0  0  0  0  0
   13.4396  -18.8056   23.4950 C   0  0  0  0  0  0  0  0  0  0  0  0
   13.2394  -18.6933   22.2711 O   0  0  0  0  0  0  0  0  0  0  0  0
   14.6948  -19.1206   23.9589 O   0  0  0  0  0  0  0  0  0  0  0  0
  2  3  1  0
  2  1  1  0
  3  4  1  0
  4  5  1  0
  5  7  1  0
  5  6  1  1
  7  8  2  0
 10  9  1  0
 11 10  1  6
 12 11  1  0
 12  7  1  0
 13 14  2  0
 13 11  1  0
 16 15  1  0
 17 16  1  6
 17 18  1  0
 18 13  1  0
 19 17  1  0
 19 21  1  0
 20 19  2  0
M  END
$$$$
