MSS.pdb
     RDKit          3D

 21 20  0  0  1  0  0  0  0  0999 V2000
    8.1091  -11.7923   27.2715 C   0  0  0  0  0  0  0  0  0  0  0  0
    6.3908  -11.9123   26.7867 S   0  0  0  0  0  0  0  0  0  0  0  0
    5.9842  -13.4142   25.9176 C   0  0  0  0  0  0  0  0  0  0  0  0
    7.1221  -14.2911   25.5239 C   0  0  0  0  0  0  0  0  0  0  0  0
    6.7036  -15.4530   24.7110 C   0  0  2  0  0  0  0  0  0  0  0  0
    5.8031  -16.2613   25.5191 N   0  0  0  0  0  0  0  0  0  0  0  0
    7.8642  -16.2751   24.2457 C   0  0  0  0  0  0  0  0  0  0  0  0
    8.2234  -17.2214   24.9613 O   0  0  0  0  0  0  0  0  0  0  0  0
   10.6527  -15.0376   21.2009 O   0  0  0  0  0  0  0  0  0  0  0  0
   10.1720  -16.3312   21.2014 C   0  0  0  0  0  0  0  0  0  0  0  0
    9.6783  -16.7686   22.5561 C   0  0  2  0  0  0  0  0  0  0  0  0
    8.5557  -16.0118   23.0323 N   0  0  0  0  0  0  0  0  0  0  0  0
   10.8120  -16.7611   23.5240 C   0  0  0  0  0  0  0  0  0  0  0  0
   11.0657  -15.7420   24.2122 O   0  0  0  0  0  0  0  0  0  0  0  0
   11.2491  -19.2710   26.0261 O   0  0  0  0  0  0  0  0  0  0  0  0
   12.0348  -18.1037   26.0487 C   0  0  0  0  0  0  0  0  0  0  0  0
   12.7106  -17.9249   24.6989 C   0  0  2  0  0  0  0  0  0  0  0  0
   11.6424  -17.8986   23.7033 N   0  0  0  0  0  0  0  0  0  0  0  0
   13.6223  -19.0650   24.5001 C   0  0  0  0  0  0  0  0  0  0  0  0
   13.4780  -19.8258   23.5248 O   0  0  0  0  0  0  0  0  0  0  0  0
   14.6380  -19.2874   25.3993 O   0  0  0  0  0  0  0  0  0  0  0  0
  2  3  1  0
  2  1  1  0
  3  4  1  0
  4  5  1  0
  5  7  1  0
  5  6  1  1
  7  8  2  0
 10  9  1  0
 11 10  1  6
 12 11  1  0
 12  7  1  0
 13 14  2  0
 13 11  1  0
 16 15  1  0
 17 16  1  1
 17 18  1  0
 18 13  1  0
 19 17  1  0
 19 21  1  0
 20 19  2  0
M  END
$$$$
