MSS.pdb
     RDKit          3D

 21 20  0  0  1  0  0  0  0  0999 V2000
    7.3601  -11.9367   22.1406 C   0  0  0  0  0  0  0  0  0  0  0  0
    7.4249  -11.8699   20.3536 S   0  0  0  0  0  0  0  0  0  0  0  0
    8.1193  -13.3264   19.5967 C   0  0  0  0  0  0  0  0  0  0  0  0
    8.6257  -14.3839   20.5155 C   0  0  0  0  0  0  0  0  0  0  0  0
    9.0496  -15.6112   19.8082 C   0  0  2  0  0  0  0  0  0  0  0  0
    7.8597  -16.2409   19.2560 N   0  0  0  0  0  0  0  0  0  0  0  0
    9.7761  -16.5662   20.7023 C   0  0  0  0  0  0  0  0  0  0  0  0
    9.0998  -17.3875   21.3386 O   0  0  0  0  0  0  0  0  0  0  0  0
   13.9644  -16.1855   21.8397 O   0  0  0  0  0  0  0  0  0  0  0  0
   13.4139  -17.4019   21.4905 C   0  0  0  0  0  0  0  0  0  0  0  0
   11.9230  -17.4488   21.7029 C   0  0  2  0  0  0  0  0  0  0  0  0
   11.1902  -16.5631   20.8436 N   0  0  0  0  0  0  0  0  0  0  0  0
   11.6189  -17.2132   23.1431 C   0  0  0  0  0  0  0  0  0  0  0  0
   11.1277  -16.1238   23.5287 O   0  0  0  0  0  0  0  0  0  0  0  0
   10.0010  -18.6572   27.2042 O   0  0  0  0  0  0  0  0  0  0  0  0
   10.2620  -18.6901   25.8216 C   0  0  0  0  0  0  0  0  0  0  0  0
   11.5775  -17.9826   25.5401 C   0  0  2  0  0  0  0  0  0  0  0  0
   11.8713  -18.2052   24.1269 N   0  0  0  0  0  0  0  0  0  0  0  0
   12.6019  -18.5765   26.4168 C   0  0  0  0  0  0  0  0  0  0  0  0
   13.4207  -19.3982   25.9640 O   0  0  0  0  0  0  0  0  0  0  0  0
   12.6511  -18.2188   27.7433 O   0  0  0  0  0  0  0  0  0  0  0  0
  2  3  1  0
  2  1  1  0
  3  4  1  0
  4  5  1  0
  5  7  1  0
  5  6  1  1
  7  8  2  0
 10  9  1  0
 11 10  1  1
 12 11  1  0
 12  7  1  0
 13 14  2  0
 13 11  1  0
 16 15  1  0
 17 16  1  1
 17 18  1  0
 18 13  1  0
 19 17  1  0
 19 21  1  0
 20 19  2  0
M  END
$$$$
