VPH.pdb
     RDKit          3D

 25 26  0  0  1  0  0  0  0  0999 V2000
    5.7005  -11.9107   27.0555 C   0  0  0  0  0  0  0  0  0  0  0  0
    6.5953  -12.9505   26.4549 C   0  0  2  0  0  0  0  0  0  0  0  0
    7.7800  -12.2579   25.8176 C   0  0  0  0  0  0  0  0  0  0  0  0
    5.8931  -13.7878   25.4045 C   0  0  2  0  0  0  0  0  0  0  0  0
    4.7990  -14.5376   26.0866 N   0  0  0  0  0  0  0  0  0  0  0  0
    6.8657  -14.7984   24.9156 C   0  0  0  0  0  0  0  0  0  0  0  0
    6.8126  -15.9199   25.5637 O   0  0  0  0  0  0  0  0  0  0  0  0
    7.7776  -14.6311   23.8616 N   0  0  0  0  0  0  0  0  0  0  0  0
    7.9625  -13.4963   23.0391 C   0  0  0  0  0  0  0  0  0  0  0  0
    8.3451  -14.1063   21.6935 C   0  0  0  0  0  0  0  0  0  0  0  0
    8.3467  -15.5824   21.9112 C   0  0  0  0  0  0  0  0  0  0  0  0
    8.6978  -15.6224   23.4088 C   0  0  1  0  0  0  0  0  0  0  0  0
   10.0769  -15.2196   23.6666 C   0  0  0  0  0  0  0  0  0  0  0  0
   10.4232  -14.0513   23.8633 O   0  0  0  0  0  0  0  0  0  0  0  0
   11.1047  -16.2178   23.6983 N   0  0  0  0  0  0  0  0  0  0  0  0
   11.8938  -16.4908   24.8920 C   0  0  1  0  0  0  0  0  0  0  0  0
   10.8405  -16.8271   25.9573 C   0  0  0  0  0  0  0  0  0  0  0  0
   10.6891  -15.7200   26.8988 C   0  0  0  0  0  0  0  0  0  0  0  0
   11.1847  -14.4510   26.7324 C   0  0  0  0  0  0  0  0  0  0  0  0
   10.8199  -13.7640   27.8390 N   0  0  0  0  0  0  0  0  0  0  0  0
   10.1316  -14.5830   28.6431 C   0  0  0  0  0  0  0  0  0  0  0  0
   10.0450  -15.7871   28.0758 N   0  0  0  0  0  0  0  0  0  0  0  0
   12.7489  -17.6483   24.6052 C   0  0  0  0  0  0  0  0  0  0  0  0
   13.7927  -17.8283   25.2612 O   0  0  0  0  0  0  0  0  0  0  0  0
   12.4107  -18.5389   23.6183 O   0  0  0  0  0  0  0  0  0  0  0  0
  2  1  1  6
  2  3  1  0
  4  2  1  0
  4  5  1  1
  6  4  1  0
  6  7  2  0
  8  6  1  0
  9  8  1  0
 10  9  1  0
 10 11  1  0
 11 12  1  0
 12  8  1  0
 12 13  1  6
 14 13  2  0
 15 13  1  0
 16 17  1  1
 16 15  1  0
 18 17  1  0
 19 18  2  0
 20 21  1  0
 20 19  1  0
 21 22  2  0
 22 18  1  0
 23 25  1  0
 23 16  1  0
 24 23  2  0
M  END
$$$$
