VPH.pdb
     RDKit          3D

 25 26  0  0  1  0  0  0  0  0999 V2000
    6.0140  -18.5463   17.0407 C   0  0  0  0  0  0  0  0  0  0  0  0
    6.9434  -17.9076   18.0262 C   0  0  2  0  0  0  0  0  0  0  0  0
    6.2168  -17.7529   19.3443 C   0  0  0  0  0  0  0  0  0  0  0  0
    7.4297  -16.5461   17.5712 C   0  0  2  0  0  0  0  0  0  0  0  0
    8.0978  -16.7271   16.2501 N   0  0  0  0  0  0  0  0  0  0  0  0
    8.4788  -16.1048   18.5256 C   0  0  0  0  0  0  0  0  0  0  0  0
    9.6783  -16.4350   18.1612 O   0  0  0  0  0  0  0  0  0  0  0  0
    8.2704  -15.3946   19.7183 N   0  0  0  0  0  0  0  0  0  0  0  0
    7.0414  -15.0591   20.3313 C   0  0  0  0  0  0  0  0  0  0  0  0
    7.3360  -13.7062   20.9732 C   0  0  0  0  0  0  0  0  0  0  0  0
    8.7632  -13.4144   20.6506 C   0  0  0  0  0  0  0  0  0  0  0  0
    9.3022  -14.8515   20.5398 C   0  0  1  0  0  0  0  0  0  0  0  0
    9.3567  -15.5252   21.8335 C   0  0  0  0  0  0  0  0  0  0  0  0
    8.3568  -15.8175   22.4956 O   0  0  0  0  0  0  0  0  0  0  0  0
   10.6305  -15.8775   22.3876 N   0  0  0  0  0  0  0  0  0  0  0  0
   10.7635  -16.7020   23.5813 C   0  0  1  0  0  0  0  0  0  0  0  0
   11.9756  -17.5937   23.2762 C   0  0  0  0  0  0  0  0  0  0  0  0
   11.6390  -18.5905   22.2624 C   0  0  0  0  0  0  0  0  0  0  0  0
   10.3995  -18.7819   21.7049 C   0  0  0  0  0  0  0  0  0  0  0  0
   10.5422  -19.8026   20.8288 N   0  0  0  0  0  0  0  0  0  0  0  0
   11.8158  -20.2131   20.8544 C   0  0  0  0  0  0  0  0  0  0  0  0
   12.4987  -19.4758   21.7314 N   0  0  0  0  0  0  0  0  0  0  0  0
   11.0326  -15.8071   24.7126 C   0  0  0  0  0  0  0  0  0  0  0  0
   11.2948  -14.6065   24.5072 O   0  0  0  0  0  0  0  0  0  0  0  0
   10.9987  -16.2791   26.0000 O   0  0  0  0  0  0  0  0  0  0  0  0
  2  1  1  6
  2  3  1  0
  4  2  1  0
  4  5  1  6
  6  4  1  0
  6  7  2  0
  8  6  1  0
  9  8  1  0
 10  9  1  0
 10 11  1  0
 11 12  1  0
 12  8  1  0
 12 13  1  1
 14 13  2  0
 15 13  1  0
 16 17  1  6
 16 15  1  0
 18 17  1  0
 19 18  2  0
 20 21  1  0
 20 19  1  0
 21 22  2  0
 22 18  1  0
 23 25  1  0
 23 16  1  0
 24 23  2  0
M  END
$$$$
