VPH.pdb
     RDKit          3D

 25 26  0  0  1  0  0  0  0  0999 V2000
    6.3130  -15.3826   20.6384 C   0  0  0  0  0  0  0  0  0  0  0  0
    7.0088  -15.4205   21.9640 C   0  0  2  0  0  0  0  0  0  0  0  0
    6.0035  -15.8099   23.0256 C   0  0  0  0  0  0  0  0  0  0  0  0
    7.6251  -14.0870   22.3374 C   0  0  2  0  0  0  0  0  0  0  0  0
    8.5546  -13.6990   21.2374 N   0  0  0  0  0  0  0  0  0  0  0  0
    8.4588  -14.3036   23.5473 C   0  0  0  0  0  0  0  0  0  0  0  0
    9.7070  -14.5286   23.2791 O   0  0  0  0  0  0  0  0  0  0  0  0
    8.0132  -14.2775   24.8782 N   0  0  0  0  0  0  0  0  0  0  0  0
    6.6845  -14.1863   25.3523 C   0  0  0  0  0  0  0  0  0  0  0  0
    6.8334  -13.3767   26.6374 C   0  0  0  0  0  0  0  0  0  0  0  0
    8.2930  -13.0946   26.7638 C   0  0  0  0  0  0  0  0  0  0  0  0
    8.8582  -14.3213   26.0265 C   0  0  1  0  0  0  0  0  0  0  0  0
    8.6649  -15.5580   26.7773 C   0  0  0  0  0  0  0  0  0  0  0  0
    7.5628  -15.9609   27.1604 O   0  0  0  0  0  0  0  0  0  0  0  0
    9.8025  -16.3674   27.1004 N   0  0  0  0  0  0  0  0  0  0  0  0
    9.6883  -17.6202   27.8350 C   0  0  1  0  0  0  0  0  0  0  0  0
   10.3692  -18.6455   26.9172 C   0  0  0  0  0  0  0  0  0  0  0  0
    9.6498  -18.7601   25.6506 C   0  0  0  0  0  0  0  0  0  0  0  0
    8.5062  -19.4892   25.4398 C   0  0  0  0  0  0  0  0  0  0  0  0
    8.1952  -19.3191   24.1344 N   0  0  0  0  0  0  0  0  0  0  0  0
    9.1126  -18.5200   23.5769 C   0  0  0  0  0  0  0  0  0  0  0  0
   10.0110  -18.1705   24.4988 N   0  0  0  0  0  0  0  0  0  0  0  0
   10.4221  -17.4650   29.0962 C   0  0  0  0  0  0  0  0  0  0  0  0
   11.0523  -16.4146   29.3239 O   0  0  0  0  0  0  0  0  0  0  0  0
   10.4226  -18.4679   30.0320 O   0  0  0  0  0  0  0  0  0  0  0  0
  2  1  1  6
  2  3  1  0
  4  2  1  0
  4  5  1  6
  6  4  1  0
  6  7  2  0
  8  6  1  0
  9  8  1  0
 10  9  1  0
 10 11  1  0
 11 12  1  0
 12  8  1  0
 12 13  1  1
 14 13  2  0
 15 13  1  0
 16 17  1  6
 16 15  1  0
 18 17  1  0
 19 18  2  0
 20 21  1  0
 20 19  1  0
 21 22  2  0
 22 18  1  0
 23 25  1  0
 23 16  1  0
 24 23  2  0
M  END
$$$$
