VPH.pdb
     RDKit          3D

 25 26  0  0  1  0  0  0  0  0999 V2000
    8.8932  -18.2896   18.1557 C   0  0  0  0  0  0  0  0  0  0  0  0
    7.8777  -17.3565   17.5719 C   0  0  2  0  0  0  0  0  0  0  0  0
    7.0902  -18.1002   16.5154 C   0  0  0  0  0  0  0  0  0  0  0  0
    8.5071  -16.1299   16.9419 C   0  0  2  0  0  0  0  0  0  0  0  0
    9.5400  -16.6023   15.9753 N   0  0  0  0  0  0  0  0  0  0  0  0
    9.2267  -15.3966   18.0145 C   0  0  0  0  0  0  0  0  0  0  0  0
   10.5161  -15.4267   17.8832 O   0  0  0  0  0  0  0  0  0  0  0  0
    8.6395  -14.7123   19.0903 N   0  0  0  0  0  0  0  0  0  0  0  0
    7.2711  -14.4260   19.3004 C   0  0  0  0  0  0  0  0  0  0  0  0
    7.3079  -13.0747   20.0087 C   0  0  0  0  0  0  0  0  0  0  0  0
    8.7543  -12.7324   20.1390 C   0  0  0  0  0  0  0  0  0  0  0  0
    9.3516  -14.1495   20.1906 C   0  0  1  0  0  0  0  0  0  0  0  0
    9.0326  -14.8415   21.4355 C   0  0  0  0  0  0  0  0  0  0  0  0
    7.8941  -15.2051   21.7440 O   0  0  0  0  0  0  0  0  0  0  0  0
   10.0824  -15.1263   22.3685 N   0  0  0  0  0  0  0  0  0  0  0  0
    9.8634  -15.9077   23.5783 C   0  0  1  0  0  0  0  0  0  0  0  0
    9.4096  -17.2768   23.0519 C   0  0  0  0  0  0  0  0  0  0  0  0
   10.4846  -17.9215   22.3012 C   0  0  0  0  0  0  0  0  0  0  0  0
   11.6553  -17.3258   21.9031 C   0  0  0  0  0  0  0  0  0  0  0  0
   12.3466  -18.2786   21.2368 N   0  0  0  0  0  0  0  0  0  0  0  0
   11.6245  -19.4054   21.2311 C   0  0  0  0  0  0  0  0  0  0  0  0
   10.4788  -19.1978   21.8820 N   0  0  0  0  0  0  0  0  0  0  0  0
   11.1470  -16.0071   24.2824 C   0  0  0  0  0  0  0  0  0  0  0  0
   12.1772  -15.5319   23.7674 O   0  0  0  0  0  0  0  0  0  0  0  0
   11.2263  -16.6200   25.5069 O   0  0  0  0  0  0  0  0  0  0  0  0
  2  1  1  6
  2  3  1  0
  4  2  1  0
  4  5  1  6
  6  4  1  0
  6  7  2  0
  8  6  1  0
  9  8  1  0
 10  9  1  0
 10 11  1  0
 11 12  1  0
 12  8  1  0
 12 13  1  1
 14 13  2  0
 15 13  1  0
 16 17  1  6
 16 15  1  0
 18 17  1  0
 19 18  2  0
 20 21  1  0
 20 19  1  0
 21 22  2  0
 22 18  1  0
 23 25  1  0
 23 16  1  0
 24 23  2  0
M  END
$$$$
