VPH.pdb
     RDKit          3D

 25 26  0  0  1  0  0  0  0  0999 V2000
    8.6055  -19.4193   20.0876 C   0  0  0  0  0  0  0  0  0  0  0  0
    7.6092  -18.3086   19.9590 C   0  0  2  0  0  0  0  0  0  0  0  0
    6.2599  -18.9069   19.6263 C   0  0  0  0  0  0  0  0  0  0  0  0
    7.9833  -17.3118   18.8802 C   0  0  2  0  0  0  0  0  0  0  0  0
    8.9443  -17.9862   17.9603 N   0  0  0  0  0  0  0  0  0  0  0  0
    8.7226  -16.2021   19.5345 C   0  0  0  0  0  0  0  0  0  0  0  0
    9.9704  -16.1399   19.1882 O   0  0  0  0  0  0  0  0  0  0  0  0
    8.1916  -15.2723   20.4422 N   0  0  0  0  0  0  0  0  0  0  0  0
    6.8809  -15.2175   20.9693 C   0  0  0  0  0  0  0  0  0  0  0  0
    6.6363  -13.7192   21.1259 C   0  0  0  0  0  0  0  0  0  0  0  0
    7.8918  -13.0599   20.6618 C   0  0  0  0  0  0  0  0  0  0  0  0
    8.9049  -14.1686   20.9966 C   0  0  1  0  0  0  0  0  0  0  0  0
    9.0949  -14.3313   22.4346 C   0  0  0  0  0  0  0  0  0  0  0  0
    8.6847  -13.5252   23.2746 O   0  0  0  0  0  0  0  0  0  0  0  0
    9.7936  -15.4829   22.9239 N   0  0  0  0  0  0  0  0  0  0  0  0
   10.0936  -15.6744   24.3365 C   0  0  1  0  0  0  0  0  0  0  0  0
    8.7097  -15.7497   24.9971 C   0  0  0  0  0  0  0  0  0  0  0  0
    7.9830  -16.9305   24.5363 C   0  0  0  0  0  0  0  0  0  0  0  0
    8.3380  -17.7297   23.4784 C   0  0  0  0  0  0  0  0  0  0  0  0
    7.3884  -18.6902   23.4061 N   0  0  0  0  0  0  0  0  0  0  0  0
    6.4944  -18.4817   24.3800 C   0  0  0  0  0  0  0  0  0  0  0  0
    6.8495  -17.4035   25.0805 N   0  0  0  0  0  0  0  0  0  0  0  0
   10.8166  -16.9443   24.4697 C   0  0  0  0  0  0  0  0  0  0  0  0
   10.9942  -17.6667   23.4702 O   0  0  0  0  0  0  0  0  0  0  0  0
   11.3016  -17.3476   25.6878 O   0  0  0  0  0  0  0  0  0  0  0  0
  2  1  1  6
  2  3  1  0
  4  2  1  0
  4  5  1  6
  6  4  1  0
  6  7  2  0
  8  6  1  0
  9  8  1  0
 10  9  1  0
 10 11  1  0
 11 12  1  0
 12  8  1  0
 12 13  1  1
 14 13  2  0
 15 13  1  0
 16 17  1  1
 16 15  1  0
 18 17  1  0
 19 18  2  0
 20 21  1  0
 20 19  1  0
 21 22  2  0
 22 18  1  0
 23 25  1  0
 23 16  1  0
 24 23  2  0
M  END
$$$$
