VPH.pdb
     RDKit          3D

 25 26  0  0  1  0  0  0  0  0999 V2000
    6.9968  -13.1343   21.6264 C   0  0  0  0  0  0  0  0  0  0  0  0
    8.0170  -13.3813   20.5583 C   0  0  2  0  0  0  0  0  0  0  0  0
    7.7969  -12.3848   19.4412 C   0  0  0  0  0  0  0  0  0  0  0  0
    7.9365  -14.7833   19.9880 C   0  0  2  0  0  0  0  0  0  0  0  0
    6.6156  -14.9156   19.3081 N   0  0  0  0  0  0  0  0  0  0  0  0
    7.9270  -15.7308   21.1319 C   0  0  0  0  0  0  0  0  0  0  0  0
    6.7363  -16.1111   21.4757 O   0  0  0  0  0  0  0  0  0  0  0  0
    9.0517  -16.2145   21.8186 N   0  0  0  0  0  0  0  0  0  0  0  0
   10.4139  -15.9235   21.5770 C   0  0  0  0  0  0  0  0  0  0  0  0
   11.1131  -17.2320   21.9349 C   0  0  0  0  0  0  0  0  0  0  0  0
   10.0271  -18.1582   22.3697 C   0  0  0  0  0  0  0  0  0  0  0  0
    9.0138  -17.1332   22.9089 C   0  0  1  0  0  0  0  0  0  0  0  0
    9.4658  -16.5037   24.1458 C   0  0  0  0  0  0  0  0  0  0  0  0
    9.9377  -15.3645   24.2011 O   0  0  0  0  0  0  0  0  0  0  0  0
    9.3666  -17.2281   25.3783 N   0  0  0  0  0  0  0  0  0  0  0  0
    8.8939  -16.6132   26.6115 C   0  0  1  0  0  0  0  0  0  0  0  0
    7.4497  -16.2059   26.2864 C   0  0  0  0  0  0  0  0  0  0  0  0
    7.3056  -14.7523   26.3175 C   0  0  0  0  0  0  0  0  0  0  0  0
    8.2829  -13.8559   26.6711 C   0  0  0  0  0  0  0  0  0  0  0  0
    7.7168  -12.6318   26.5665 N   0  0  0  0  0  0  0  0  0  0  0  0
    6.4484  -12.7803   26.1662 C   0  0  0  0  0  0  0  0  0  0  0  0
    6.1847  -14.0785   26.0101 N   0  0  0  0  0  0  0  0  0  0  0  0
    8.9344  -17.6361   27.6628 C   0  0  0  0  0  0  0  0  0  0  0  0
    8.6085  -18.8099   27.4014 O   0  0  0  0  0  0  0  0  0  0  0  0
    9.3289  -17.3136   28.9363 O   0  0  0  0  0  0  0  0  0  0  0  0
  2  1  1  1
  2  3  1  0
  4  2  1  0
  4  5  1  1
  6  4  1  0
  6  7  2  0
  8  6  1  0
  9  8  1  0
 10  9  1  0
 10 11  1  0
 11 12  1  0
 12  8  1  0
 12 13  1  1
 14 13  2  0
 15 13  1  0
 16 17  1  6
 16 15  1  0
 18 17  1  0
 19 18  2  0
 20 21  1  0
 20 19  1  0
 21 22  2  0
 22 18  1  0
 23 25  1  0
 23 16  1  0
 24 23  2  0
M  END
$$$$
