VPH.pdb
     RDKit          3D

 25 26  0  0  1  0  0  0  0  0999 V2000
    7.8624  -15.6168   15.8157 C   0  0  0  0  0  0  0  0  0  0  0  0
    8.3618  -15.6747   17.2263 C   0  0  2  0  0  0  0  0  0  0  0  0
    7.4659  -16.6025   18.0175 C   0  0  0  0  0  0  0  0  0  0  0  0
    8.3746  -14.3154   17.8967 C   0  0  2  0  0  0  0  0  0  0  0  0
    9.1990  -13.4057   17.0497 N   0  0  0  0  0  0  0  0  0  0  0  0
    9.0895  -14.4622   19.1903 C   0  0  0  0  0  0  0  0  0  0  0  0
   10.3744  -14.3243   19.0872 O   0  0  0  0  0  0  0  0  0  0  0  0
    8.5020  -14.7194   20.4390 N   0  0  0  0  0  0  0  0  0  0  0  0
    7.1375  -14.9452   20.7319 C   0  0  0  0  0  0  0  0  0  0  0  0
    6.9768  -14.3257   22.1174 C   0  0  0  0  0  0  0  0  0  0  0  0
    8.3269  -13.8040   22.4797 C   0  0  0  0  0  0  0  0  0  0  0  0
    9.2051  -14.7811   21.6785 C   0  0  1  0  0  0  0  0  0  0  0  0
    9.1810  -16.1313   22.2324 C   0  0  0  0  0  0  0  0  0  0  0  0
    8.4262  -17.0220   21.8318 O   0  0  0  0  0  0  0  0  0  0  0  0
   10.0739  -16.4665   23.3021 N   0  0  0  0  0  0  0  0  0  0  0  0
   10.9828  -17.6031   23.2355 C   0  0  1  0  0  0  0  0  0  0  0  0
   11.7952  -17.3470   21.9580 C   0  0  0  0  0  0  0  0  0  0  0  0
   11.4025  -18.2784   20.9031 C   0  0  0  0  0  0  0  0  0  0  0  0
   10.4397  -19.2509   21.0080 C   0  0  0  0  0  0  0  0  0  0  0  0
   10.4136  -19.8758   19.8086 N   0  0  0  0  0  0  0  0  0  0  0  0
   11.3234  -19.3056   19.0097 C   0  0  0  0  0  0  0  0  0  0  0  0
   11.9369  -18.3233   19.6713 N   0  0  0  0  0  0  0  0  0  0  0  0
   11.8376  -17.5597   24.4274 C   0  0  0  0  0  0  0  0  0  0  0  0
   11.9352  -18.5630   25.1596 O   0  0  0  0  0  0  0  0  0  0  0  0
   12.5340  -16.4218   24.7464 O   0  0  0  0  0  0  0  0  0  0  0  0
  2  1  1  6
  2  3  1  0
  4  2  1  0
  4  5  1  6
  6  4  1  0
  6  7  2  0
  8  6  1  0
  9  8  1  0
 10  9  1  0
 10 11  1  0
 11 12  1  0
 12  8  1  0
 12 13  1  1
 14 13  2  0
 15 13  1  0
 16 17  1  6
 16 15  1  0
 18 17  1  0
 19 18  2  0
 20 21  1  0
 20 19  1  0
 21 22  2  0
 22 18  1  0
 23 25  1  0
 23 16  1  0
 24 23  2  0
M  END
$$$$
