VPH.pdb
     RDKit          3D

 25 26  0  0  1  0  0  0  0  0999 V2000
    3.3677  -18.7408   20.4762 C   0  0  0  0  0  0  0  0  0  0  0  0
    4.6026  -18.0602   20.9806 C   0  0  2  0  0  0  0  0  0  0  0  0
    4.1929  -16.8137   21.7341 C   0  0  0  0  0  0  0  0  0  0  0  0
    5.5503  -17.6694   19.8641 C   0  0  2  0  0  0  0  0  0  0  0  0
    5.8961  -18.9114   19.1143 N   0  0  0  0  0  0  0  0  0  0  0  0
    6.8054  -17.1845   20.4931 C   0  0  0  0  0  0  0  0  0  0  0  0
    7.7038  -18.1092   20.6294 O   0  0  0  0  0  0  0  0  0  0  0  0
    7.0680  -15.8727   20.9184 N   0  0  0  0  0  0  0  0  0  0  0  0
    6.2160  -14.7465   20.8522 C   0  0  0  0  0  0  0  0  0  0  0  0
    7.1880  -13.5943   20.6136 C   0  0  0  0  0  0  0  0  0  0  0  0
    8.5436  -14.2170   20.5804 C   0  0  0  0  0  0  0  0  0  0  0  0
    8.2941  -15.4283   21.4960 C   0  0  1  0  0  0  0  0  0  0  0  0
    8.1107  -15.0411   22.8913 C   0  0  0  0  0  0  0  0  0  0  0  0
    7.0660  -14.5563   23.3353 O   0  0  0  0  0  0  0  0  0  0  0  0
    9.1889  -15.2239   23.8174 N   0  0  0  0  0  0  0  0  0  0  0  0
    9.0491  -16.0099   25.0359 C   0  0  1  0  0  0  0  0  0  0  0  0
    8.6137  -17.3929   24.5306 C   0  0  0  0  0  0  0  0  0  0  0  0
    8.1394  -18.2195   25.6381 C   0  0  0  0  0  0  0  0  0  0  0  0
    8.0706  -17.8361   26.9542 C   0  0  0  0  0  0  0  0  0  0  0  0
    7.5860  -18.9057   27.6256 N   0  0  0  0  0  0  0  0  0  0  0  0
    7.3700  -19.8966   26.7524 C   0  0  0  0  0  0  0  0  0  0  0  0
    7.7065  -19.4865   25.5285 N   0  0  0  0  0  0  0  0  0  0  0  0
   10.3658  -16.0693   25.6808 C   0  0  0  0  0  0  0  0  0  0  0  0
   10.5044  -15.6632   26.8505 O   0  0  0  0  0  0  0  0  0  0  0  0
   11.4514  -16.5692   25.0076 O   0  0  0  0  0  0  0  0  0  0  0  0
  2  1  1  6
  2  3  1  0
  4  2  1  0
  4  5  1  6
  6  4  1  0
  6  7  2  0
  8  6  1  0
  9  8  1  0
 10  9  1  0
 10 11  1  0
 11 12  1  0
 12  8  1  0
 12 13  1  1
 14 13  2  0
 15 13  1  0
 16 17  1  6
 16 15  1  0
 18 17  1  0
 19 18  2  0
 20 21  1  0
 20 19  1  0
 21 22  2  0
 22 18  1  0
 23 25  1  0
 23 16  1  0
 24 23  2  0
M  END
$$$$
