VPH.pdb
     RDKit          3D

 25 26  0  0  1  0  0  0  0  0999 V2000
    7.4016  -18.9796   17.1504 C   0  0  0  0  0  0  0  0  0  0  0  0
    7.9602  -18.0522   18.1851 C   0  0  2  0  0  0  0  0  0  0  0  0
    6.8940  -17.7934   19.2270 C   0  0  0  0  0  0  0  0  0  0  0  0
    8.4066  -16.7270   17.6002 C   0  0  2  0  0  0  0  0  0  0  0  0
    9.4182  -17.0210   16.5445 N   0  0  0  0  0  0  0  0  0  0  0  0
    9.1110  -15.9799   18.6734 C   0  0  0  0  0  0  0  0  0  0  0  0
   10.3916  -16.1814   18.6858 O   0  0  0  0  0  0  0  0  0  0  0  0
    8.5193  -15.1207   19.6127 N   0  0  0  0  0  0  0  0  0  0  0  0
    7.1497  -14.8059   19.7666 C   0  0  0  0  0  0  0  0  0  0  0  0
    7.1817  -13.3520   20.2296 C   0  0  0  0  0  0  0  0  0  0  0  0
    8.6270  -12.9885   20.3019 C   0  0  0  0  0  0  0  0  0  0  0  0
    9.2273  -14.3736   20.6002 C   0  0  1  0  0  0  0  0  0  0  0  0
    8.9063  -14.8397   21.9456 C   0  0  0  0  0  0  0  0  0  0  0  0
    7.7599  -14.8767   22.4017 O   0  0  0  0  0  0  0  0  0  0  0  0
    9.9636  -15.2845   22.8046 N   0  0  0  0  0  0  0  0  0  0  0  0
    9.7265  -16.1434   23.9571 C   0  0  1  0  0  0  0  0  0  0  0  0
    9.1723  -17.4362   23.3415 C   0  0  0  0  0  0  0  0  0  0  0  0
   10.2480  -18.2242   22.7443 C   0  0  0  0  0  0  0  0  0  0  0  0
   11.3669  -17.7199   22.1298 C   0  0  0  0  0  0  0  0  0  0  0  0
   12.0801  -18.7943   21.7216 N   0  0  0  0  0  0  0  0  0  0  0  0
   11.4205  -19.9042   22.0742 C   0  0  0  0  0  0  0  0  0  0  0  0
   10.2938  -19.5662   22.7029 N   0  0  0  0  0  0  0  0  0  0  0  0
   11.0190  -16.3771   24.6114 C   0  0  0  0  0  0  0  0  0  0  0  0
   11.0750  -17.0605   25.6516 O   0  0  0  0  0  0  0  0  0  0  0  0
   12.1721  -15.8494   24.0885 O   0  0  0  0  0  0  0  0  0  0  0  0
  2  1  1  6
  2  3  1  0
  4  2  1  0
  4  5  1  6
  6  4  1  0
  6  7  2  0
  8  6  1  0
  9  8  1  0
 10  9  1  0
 10 11  1  0
 11 12  1  0
 12  8  1  0
 12 13  1  1
 14 13  2  0
 15 13  1  0
 16 17  1  6
 16 15  1  0
 18 17  1  0
 19 18  2  0
 20 21  1  0
 20 19  1  0
 21 22  2  0
 22 18  1  0
 23 25  1  0
 23 16  1  0
 24 23  2  0
M  END
$$$$
