VPH.pdb
     RDKit          3D

 25 26  0  0  1  0  0  0  0  0999 V2000
    7.7093  -13.0965   27.4497 C   0  0  0  0  0  0  0  0  0  0  0  0
    7.0537  -12.4208   26.2851 C   0  0  2  0  0  0  0  0  0  0  0  0
    6.3673  -11.1661   26.7790 C   0  0  0  0  0  0  0  0  0  0  0  0
    6.0292  -13.3032   25.6001 C   0  0  2  0  0  0  0  0  0  0  0  0
    5.1274  -13.8464   26.6565 N   0  0  0  0  0  0  0  0  0  0  0  0
    6.7550  -14.4612   25.0184 C   0  0  0  0  0  0  0  0  0  0  0  0
    6.4690  -15.5886   25.5910 O   0  0  0  0  0  0  0  0  0  0  0  0
    7.6688  -14.4186   23.9537 N   0  0  0  0  0  0  0  0  0  0  0  0
    8.0961  -13.2917   23.2146 C   0  0  0  0  0  0  0  0  0  0  0  0
    8.3152  -13.8616   21.8159 C   0  0  0  0  0  0  0  0  0  0  0  0
    7.9854  -15.3129   21.9208 C   0  0  0  0  0  0  0  0  0  0  0  0
    8.3357  -15.5513   23.4001 C   0  0  1  0  0  0  0  0  0  0  0  0
    9.7730  -15.4907   23.6470 C   0  0  0  0  0  0  0  0  0  0  0  0
   10.4967  -14.5712   23.2540 O   0  0  0  0  0  0  0  0  0  0  0  0
   10.4030  -16.5456   24.3846 N   0  0  0  0  0  0  0  0  0  0  0  0
   11.8261  -16.5407   24.6962 C   0  0  1  0  0  0  0  0  0  0  0  0
   11.8846  -17.0463   26.1448 C   0  0  0  0  0  0  0  0  0  0  0  0
   11.4271  -16.0119   27.0697 C   0  0  0  0  0  0  0  0  0  0  0  0
   11.3087  -14.6747   26.7841 C   0  0  0  0  0  0  0  0  0  0  0  0
   10.8632  -14.0922   27.9208 N   0  0  0  0  0  0  0  0  0  0  0  0
   10.7179  -15.0376   28.8569 C   0  0  0  0  0  0  0  0  0  0  0  0
   11.0613  -16.2206   28.3454 N   0  0  0  0  0  0  0  0  0  0  0  0
   12.4857  -17.4770   23.7789 C   0  0  0  0  0  0  0  0  0  0  0  0
   13.7264  -17.5904   23.7919 O   0  0  0  0  0  0  0  0  0  0  0  0
   11.7488  -18.2325   22.9027 O   0  0  0  0  0  0  0  0  0  0  0  0
  2  1  1  1
  2  3  1  0
  4  2  1  0
  4  5  1  1
  6  4  1  0
  6  7  2  0
  8  6  1  0
  9  8  1  0
 10  9  1  0
 10 11  1  0
 11 12  1  0
 12  8  1  0
 12 13  1  6
 14 13  2  0
 15 13  1  0
 16 17  1  1
 16 15  1  0
 18 17  1  0
 19 18  2  0
 20 21  1  0
 20 19  1  0
 21 22  2  0
 22 18  1  0
 23 25  1  0
 23 16  1  0
 24 23  2  0
M  END
$$$$
