VPH.pdb
     RDKit          3D

 25 26  0  0  1  0  0  0  0  0999 V2000
    6.0127  -11.4751   27.0194 C   0  0  0  0  0  0  0  0  0  0  0  0
    6.7773  -12.6466   26.4848 C   0  0  2  0  0  0  0  0  0  0  0  0
    7.9490  -12.1306   25.6784 C   0  0  0  0  0  0  0  0  0  0  0  0
    5.9305  -13.5418   25.6022 C   0  0  2  0  0  0  0  0  0  0  0  0
    4.8645  -14.1371   26.4587 N   0  0  0  0  0  0  0  0  0  0  0  0
    6.7913  -14.6633   25.1470 C   0  0  0  0  0  0  0  0  0  0  0  0
    6.6112  -15.7567   25.8198 O   0  0  0  0  0  0  0  0  0  0  0  0
    7.7247  -14.6212   24.0993 N   0  0  0  0  0  0  0  0  0  0  0  0
    8.1474  -13.4985   23.3513 C   0  0  0  0  0  0  0  0  0  0  0  0
    8.4028  -14.0855   21.9659 C   0  0  0  0  0  0  0  0  0  0  0  0
    8.0952  -15.5405   22.0867 C   0  0  0  0  0  0  0  0  0  0  0  0
    8.4209  -15.7507   23.5759 C   0  0  1  0  0  0  0  0  0  0  0  0
    9.8519  -15.6621   23.8491 C   0  0  0  0  0  0  0  0  0  0  0  0
   10.5714  -14.7464   23.4397 O   0  0  0  0  0  0  0  0  0  0  0  0
   10.4806  -16.6829   24.6343 N   0  0  0  0  0  0  0  0  0  0  0  0
   11.8872  -16.6268   25.0092 C   0  0  1  0  0  0  0  0  0  0  0  0
   11.8801  -16.9665   26.5065 C   0  0  0  0  0  0  0  0  0  0  0  0
   11.2433  -15.8984   27.2735 C   0  0  0  0  0  0  0  0  0  0  0  0
   11.4223  -14.5519   27.0767 C   0  0  0  0  0  0  0  0  0  0  0  0
   10.6551  -13.9376   28.0061 N   0  0  0  0  0  0  0  0  0  0  0  0
   10.0366  -14.8733   28.7362 C   0  0  0  0  0  0  0  0  0  0  0  0
   10.3904  -16.0814   28.2953 N   0  0  0  0  0  0  0  0  0  0  0  0
   12.5955  -17.6520   24.2343 C   0  0  0  0  0  0  0  0  0  0  0  0
   11.9522  -18.4590   23.5363 O   0  0  0  0  0  0  0  0  0  0  0  0
   13.9643  -17.7326   24.2695 O   0  0  0  0  0  0  0  0  0  0  0  0
  2  1  1  6
  2  3  1  0
  4  2  1  0
  4  5  1  1
  6  4  1  0
  6  7  2  0
  8  6  1  0
  9  8  1  0
 10  9  1  0
 10 11  1  0
 11 12  1  0
 12  8  1  0
 12 13  1  6
 14 13  2  0
 15 13  1  0
 16 17  1  1
 16 15  1  0
 18 17  1  0
 19 18  2  0
 20 21  1  0
 20 19  1  0
 21 22  2  0
 22 18  1  0
 23 25  1  0
 23 16  1  0
 24 23  2  0
M  END
$$$$
