VPH.pdb
     RDKit          3D

 25 26  0  0  1  0  0  0  0  0999 V2000
    6.6065  -14.5741   19.9094 C   0  0  0  0  0  0  0  0  0  0  0  0
    7.2949  -14.6568   21.2369 C   0  0  2  0  0  0  0  0  0  0  0  0
    6.4441  -15.4899   22.1704 C   0  0  0  0  0  0  0  0  0  0  0  0
    7.5204  -13.2948   21.8626 C   0  0  2  0  0  0  0  0  0  0  0  0
    8.3238  -12.4868   20.9003 N   0  0  0  0  0  0  0  0  0  0  0  0
    8.3656  -13.4916   23.0680 C   0  0  0  0  0  0  0  0  0  0  0  0
    9.6365  -13.4847   22.8125 O   0  0  0  0  0  0  0  0  0  0  0  0
    7.9077  -13.6686   24.3831 N   0  0  0  0  0  0  0  0  0  0  0  0
    6.5723  -13.7639   24.8372 C   0  0  0  0  0  0  0  0  0  0  0  0
    6.6293  -13.1038   26.2120 C   0  0  0  0  0  0  0  0  0  0  0  0
    8.0529  -12.6991   26.4010 C   0  0  0  0  0  0  0  0  0  0  0  0
    8.7426  -13.7680   25.5353 C   0  0  1  0  0  0  0  0  0  0  0  0
    8.6654  -15.0987   26.1301 C   0  0  0  0  0  0  0  0  0  0  0  0
    7.6201  -15.7494   26.2181 O   0  0  0  0  0  0  0  0  0  0  0  0
    9.8558  -15.7056   26.6481 N   0  0  0  0  0  0  0  0  0  0  0  0
    9.9377  -17.1261   26.9606 C   0  0  1  0  0  0  0  0  0  0  0  0
   11.1905  -17.5945   26.2067 C   0  0  0  0  0  0  0  0  0  0  0  0
   10.9067  -17.7463   24.7815 C   0  0  0  0  0  0  0  0  0  0  0  0
    9.6732  -17.6277   24.1912 C   0  0  0  0  0  0  0  0  0  0  0  0
    9.8720  -17.8516   22.8721 N   0  0  0  0  0  0  0  0  0  0  0  0
   11.1724  -18.0960   22.6711 C   0  0  0  0  0  0  0  0  0  0  0  0
   11.8176  -18.0339   23.8369 N   0  0  0  0  0  0  0  0  0  0  0  0
   10.1116  -17.2531   28.4121 C   0  0  0  0  0  0  0  0  0  0  0  0
   10.0817  -18.3785   28.9460 O   0  0  0  0  0  0  0  0  0  0  0  0
   10.3077  -16.1418   29.1920 O   0  0  0  0  0  0  0  0  0  0  0  0
  2  1  1  6
  2  3  1  0
  4  2  1  0
  4  5  1  6
  6  4  1  0
  6  7  2  0
  8  6  1  0
  9  8  1  0
 10  9  1  0
 10 11  1  0
 11 12  1  0
 12  8  1  0
 12 13  1  1
 14 13  2  0
 15 13  1  0
 16 17  1  6
 16 15  1  0
 18 17  1  0
 19 18  2  0
 20 21  1  0
 20 19  1  0
 21 22  2  0
 22 18  1  0
 23 25  1  0
 23 16  1  0
 24 23  2  0
M  END
$$$$
