VPH.pdb
     RDKit          3D

 25 26  0  0  1  0  0  0  0  0999 V2000
    9.6290  -15.2501   17.0018 C   0  0  0  0  0  0  0  0  0  0  0  0
    8.2017  -15.0932   17.4273 C   0  0  2  0  0  0  0  0  0  0  0  0
    7.3149  -15.2627   16.2132 C   0  0  0  0  0  0  0  0  0  0  0  0
    7.9249  -13.7403   18.0521 C   0  0  2  0  0  0  0  0  0  0  0  0
    8.3749  -12.6988   17.0839 N   0  0  0  0  0  0  0  0  0  0  0  0
    8.7933  -13.6158   19.2506 C   0  0  0  0  0  0  0  0  0  0  0  0
    9.7563  -12.7606   19.1022 O   0  0  0  0  0  0  0  0  0  0  0  0
    8.6463  -14.3154   20.4587 N   0  0  0  0  0  0  0  0  0  0  0  0
    7.6454  -15.2500   20.8100 C   0  0  0  0  0  0  0  0  0  0  0  0
    7.4603  -15.0087   22.3055 C   0  0  0  0  0  0  0  0  0  0  0  0
    8.4248  -13.9259   22.6569 C   0  0  0  0  0  0  0  0  0  0  0  0
    9.5039  -14.1851   21.5909 C   0  0  1  0  0  0  0  0  0  0  0  0
   10.2433  -15.4190   21.8380 C   0  0  0  0  0  0  0  0  0  0  0  0
    9.7854  -16.5455   21.6256 O   0  0  0  0  0  0  0  0  0  0  0  0
   11.5774  -15.3454   22.3562 N   0  0  0  0  0  0  0  0  0  0  0  0
   12.4722  -16.4948   22.3799 C   0  0  1  0  0  0  0  0  0  0  0  0
   13.8550  -15.8872   22.1041 C   0  0  0  0  0  0  0  0  0  0  0  0
   13.9581  -15.4531   20.7128 C   0  0  0  0  0  0  0  0  0  0  0  0
   13.0147  -15.6550   19.7366 C   0  0  0  0  0  0  0  0  0  0  0  0
   13.5229  -15.1017   18.6117 N   0  0  0  0  0  0  0  0  0  0  0  0
   14.7250  -14.5858   18.8945 C   0  0  0  0  0  0  0  0  0  0  0  0
   15.0027  -14.7958   20.1822 N   0  0  0  0  0  0  0  0  0  0  0  0
   12.4072  -17.0817   23.7232 C   0  0  0  0  0  0  0  0  0  0  0  0
   13.0867  -18.0901   23.9949 O   0  0  0  0  0  0  0  0  0  0  0  0
   11.6030  -16.5305   24.6881 O   0  0  0  0  0  0  0  0  0  0  0  0
  2  1  1  6
  2  3  1  0
  4  2  1  0
  4  5  1  6
  6  4  1  0
  6  7  2  0
  8  6  1  0
  9  8  1  0
 10  9  1  0
 10 11  1  0
 11 12  1  0
 12  8  1  0
 12 13  1  1
 14 13  2  0
 15 13  1  0
 16 17  1  1
 16 15  1  0
 18 17  1  0
 19 18  2  0
 20 21  1  0
 20 19  1  0
 21 22  2  0
 22 18  1  0
 23 25  1  0
 23 16  1  0
 24 23  2  0
M  END
$$$$
