DIY.pdb
     RDKit          3D

 29 29  0  0  1  0  0  0  0  0999 V2000
   24.2380  -13.2873  -19.5825 N   0  0  0  0  0  0  0  0  0  0  0  0
   23.1759  -13.5913  -18.6038 C   0  0  1  0  0  0  0  0  0  0  0  0
   23.2510  -15.0618  -18.3701 C   0  0  0  0  0  0  0  0  0  0  0  0
   22.8647  -15.9116  -19.5063 C   0  0  0  0  0  0  0  0  0  0  0  0
   22.4870  -15.5074  -20.6340 O   0  0  0  0  0  0  0  0  0  0  0  0
   23.5082  -12.7876  -17.3609 C   0  0  0  0  0  0  0  0  0  0  0  0
   22.9114  -13.0459  -16.2830 O   0  0  0  0  0  0  0  0  0  0  0  0
   22.9374  -17.3020  -19.2712 O   0  0  0  0  0  0  0  0  0  0  0  0
   28.4783  -11.8915  -15.8985 C   0  0  0  0  0  0  0  0  0  0  0  0
   26.9468  -12.0639  -15.9715 C   0  0  0  0  0  0  0  0  0  0  0  0
   26.2682  -10.7576  -16.1294 C   0  0  2  0  0  0  0  0  0  0  0  0
   26.7554   -9.7214  -15.1417 C   0  0  0  0  0  0  0  0  0  0  0  0
   24.8098  -10.8531  -16.3075 C   0  0  2  0  0  0  0  0  0  0  0  0
   24.4670  -11.7652  -17.3965 N   0  0  0  0  0  0  0  0  0  0  0  0
   24.0492   -9.6033  -16.3874 C   0  0  0  0  0  0  0  0  0  0  0  0
   24.1930   -8.8288  -17.4151 O   0  0  0  0  0  0  0  0  0  0  0  0
   17.6259  -12.2384  -15.4977 O   0  0  0  0  0  0  0  0  0  0  0  0
   18.5522  -11.2582  -15.8227 C   0  0  0  0  0  0  0  0  0  0  0  0
   18.3841   -9.9512  -15.4211 C   0  0  0  0  0  0  0  0  0  0  0  0
   19.3107   -8.9750  -15.7471 C   0  0  0  0  0  0  0  0  0  0  0  0
   20.4428   -9.2510  -16.4847 C   0  0  0  0  0  0  0  0  0  0  0  0
   21.4290   -8.2089  -16.8402 C   0  0  0  0  0  0  0  0  0  0  0  0
   22.3707   -7.8456  -15.7183 C   0  0  2  0  0  0  0  0  0  0  0  0
   23.1297   -9.0942  -15.4638 N   0  0  0  0  0  0  0  0  0  0  0  0
   21.5675   -7.4878  -14.5313 C   0  0  0  0  0  0  0  0  0  0  0  0
   21.6306   -8.3021  -13.3840 O   0  0  0  0  0  0  0  0  0  0  0  0
   20.6066  -10.5788  -16.8884 C   0  0  0  0  0  0  0  0  0  0  0  0
   19.6849  -11.5513  -16.5642 C   0  0  0  0  0  0  0  0  0  0  0  0
   20.8194   -6.5032  -14.4532 O   0  0  0  0  0  0  0  0  0  0  0  0
  2  1  1  6
  2  3  1  0
  3  4  1  0
  4  8  1  0
  5  4  2  0
  6  2  1  0
  7  6  2  0
 10  9  1  0
 11 12  1  1
 11 10  1  0
 13 11  1  0
 13 14  1  6
 14  6  1  0
 15 24  1  0
 15 13  1  0
 16 15  2  0
 18 28  2  0
 18 17  1  0
 19 18  1  0
 20 21  1  0
 20 19  2  0
 21 27  2  0
 22 21  1  0
 23 22  1  6
 23 24  1  0
 25 23  1  0
 25 26  1  0
 27 28  1  0
 29 25  2  0
M  END
$$$$
