DIY.pdb
     RDKit          3D

 29 29  0  0  1  0  0  0  0  0999 V2000
   23.2176  -37.8367  -10.1014 N   0  0  0  0  0  0  0  0  0  0  0  0
   22.6682  -37.2516   -8.8628 C   0  0  1  0  0  0  0  0  0  0  0  0
   22.0928  -38.3941   -8.0971 C   0  0  0  0  0  0  0  0  0  0  0  0
   20.8195  -38.9281   -8.6032 C   0  0  0  0  0  0  0  0  0  0  0  0
   20.2367  -38.5694   -9.6564 O   0  0  0  0  0  0  0  0  0  0  0  0
   23.8398  -36.6047   -8.1488 C   0  0  0  0  0  0  0  0  0  0  0  0
   24.9605  -37.1780   -8.1605 O   0  0  0  0  0  0  0  0  0  0  0  0
   20.2283  -39.9329   -7.8067 O   0  0  0  0  0  0  0  0  0  0  0  0
   24.5958  -31.3737   -8.7683 C   0  0  0  0  0  0  0  0  0  0  0  0
   24.6706  -32.8954   -8.5248 C   0  0  0  0  0  0  0  0  0  0  0  0
   24.6763  -33.2061   -7.0772 C   0  0  2  0  0  0  0  0  0  0  0  0
   25.6108  -32.3147   -6.2907 C   0  0  0  0  0  0  0  0  0  0  0  0
   24.7351  -34.6448   -6.7694 C   0  0  2  0  0  0  0  0  0  0  0  0
   23.6918  -35.3820   -7.4787 N   0  0  0  0  0  0  0  0  0  0  0  0
   24.8140  -35.0378   -5.3600 C   0  0  0  0  0  0  0  0  0  0  0  0
   23.8762  -34.6825   -4.5409 O   0  0  0  0  0  0  0  0  0  0  0  0
   27.0542  -39.1028    2.2812 O   0  0  0  0  0  0  0  0  0  0  0  0
   26.9563  -38.6623    0.9695 C   0  0  0  0  0  0  0  0  0  0  0  0
   28.0029  -38.0151    0.3503 C   0  0  0  0  0  0  0  0  0  0  0  0
   27.9020  -37.5767   -0.9595 C   0  0  0  0  0  0  0  0  0  0  0  0
   26.7609  -37.7599   -1.7118 C   0  0  0  0  0  0  0  0  0  0  0  0
   26.6486  -37.2859   -3.1073 C   0  0  0  0  0  0  0  0  0  0  0  0
   25.7932  -36.0533   -3.2709 C   0  0  2  0  0  0  0  0  0  0  0  0
   25.8108  -35.7914   -4.7307 N   0  0  0  0  0  0  0  0  0  0  0  0
   26.4368  -34.9383   -2.5463 C   0  0  0  0  0  0  0  0  0  0  0  0
   25.9335  -34.5498   -1.2897 O   0  0  0  0  0  0  0  0  0  0  0  0
   25.7035  -38.4172   -1.0771 C   0  0  0  0  0  0  0  0  0  0  0  0
   25.8030  -38.8542    0.2266 C   0  0  0  0  0  0  0  0  0  0  0  0
   27.4112  -34.2943   -2.9595 O   0  0  0  0  0  0  0  0  0  0  0  0
  2  1  1  6
  2  3  1  0
  3  4  1  0
  4  8  1  0
  5  4  2  0
  6  2  1  0
  7  6  2  0
 10  9  1  0
 11 12  1  1
 11 10  1  0
 13 11  1  0
 13 14  1  1
 14  6  1  0
 15 24  1  0
 15 13  1  0
 16 15  2  0
 18 28  2  0
 18 17  1  0
 19 18  1  0
 20 21  1  0
 20 19  2  0
 21 27  2  0
 22 21  1  0
 23 22  1  6
 23 24  1  0
 25 23  1  0
 25 26  1  0
 27 28  1  0
 29 25  2  0
M  END
$$$$
