DIY.pdb
     RDKit          3D

 29 29  0  0  1  0  0  0  0  0999 V2000
   19.9182  -13.8268  -16.2899 N   0  0  0  0  0  0  0  0  0  0  0  0
   20.1616  -12.5242  -16.9398 C   0  0  1  0  0  0  0  0  0  0  0  0
   18.8218  -11.8853  -17.0783 C   0  0  0  0  0  0  0  0  0  0  0  0
   17.9822  -12.3890  -18.1755 C   0  0  0  0  0  0  0  0  0  0  0  0
   17.4783  -13.5370  -18.2506 O   0  0  0  0  0  0  0  0  0  0  0  0
   21.0786  -11.7552  -16.0078 C   0  0  0  0  0  0  0  0  0  0  0  0
   20.8723  -11.7990  -14.7667 O   0  0  0  0  0  0  0  0  0  0  0  0
   17.7425  -11.4710  -19.2212 O   0  0  0  0  0  0  0  0  0  0  0  0
   26.8136  -10.5881  -15.0258 C   0  0  0  0  0  0  0  0  0  0  0  0
   25.3971   -9.9883  -14.9063 C   0  0  0  0  0  0  0  0  0  0  0  0
   24.4409  -10.6941  -15.7892 C   0  0  2  0  0  0  0  0  0  0  0  0
   25.0011  -10.9551  -17.1693 C   0  0  0  0  0  0  0  0  0  0  0  0
   23.0667  -10.1685  -15.7323 C   0  0  2  0  0  0  0  0  0  0  0  0
   22.1485  -10.9994  -16.5079 N   0  0  0  0  0  0  0  0  0  0  0  0
   22.8701   -8.7425  -16.0059 C   0  0  0  0  0  0  0  0  0  0  0  0
   22.9151   -8.3106  -17.2258 O   0  0  0  0  0  0  0  0  0  0  0  0
   20.7673   -0.0788  -15.0350 O   0  0  0  0  0  0  0  0  0  0  0  0
   21.0613   -1.4219  -14.8511 C   0  0  0  0  0  0  0  0  0  0  0  0
   20.1058   -2.3970  -15.0352 C   0  0  0  0  0  0  0  0  0  0  0  0
   20.4026   -3.7371  -14.8509 C   0  0  0  0  0  0  0  0  0  0  0  0
   21.6576   -4.1688  -14.4762 C   0  0  0  0  0  0  0  0  0  0  0  0
   21.9742   -5.5980  -14.2716 C   0  0  0  0  0  0  0  0  0  0  0  0
   22.4570   -6.3048  -15.5146 C   0  0  2  0  0  0  0  0  0  0  0  0
   22.6199   -7.7161  -15.0885 N   0  0  0  0  0  0  0  0  0  0  0  0
   23.7649   -5.7350  -15.8980 C   0  0  0  0  0  0  0  0  0  0  0  0
   23.8560   -4.9287  -17.0491 O   0  0  0  0  0  0  0  0  0  0  0  0
   22.6216   -3.1741  -14.2915 C   0  0  0  0  0  0  0  0  0  0  0  0
   22.3272   -1.8399  -14.4749 C   0  0  0  0  0  0  0  0  0  0  0  0
   24.8226   -5.9092  -15.2766 O   0  0  0  0  0  0  0  0  0  0  0  0
  2  1  1  1
  2  3  1  0
  3  4  1  0
  4  8  1  0
  5  4  2  0
  6  2  1  0
  7  6  2  0
 10  9  1  0
 11 12  1  6
 11 10  1  0
 13 11  1  0
 13 14  1  6
 14  6  1  0
 15 24  1  0
 15 13  1  0
 16 15  2  0
 18 28  2  0
 18 17  1  0
 19 18  1  0
 20 21  1  0
 20 19  2  0
 21 27  2  0
 22 21  1  0
 23 22  1  1
 23 24  1  0
 25 23  1  0
 25 26  1  0
 27 28  1  0
 29 25  2  0
M  END
$$$$
