DIY.pdb
     RDKit          3D

 29 29  0  0  1  0  0  0  0  0999 V2000
   22.1365  -15.5848  -19.0766 N   0  0  0  0  0  0  0  0  0  0  0  0
   22.8093  -15.6028  -17.7631 C   0  0  1  0  0  0  0  0  0  0  0  0
   21.7240  -15.7760  -16.7557 C   0  0  0  0  0  0  0  0  0  0  0  0
   20.8810  -14.5958  -16.5129 C   0  0  0  0  0  0  0  0  0  0  0  0
   21.0164  -13.4699  -17.0528 O   0  0  0  0  0  0  0  0  0  0  0  0
   23.7642  -16.7810  -17.7970 C   0  0  0  0  0  0  0  0  0  0  0  0
   23.4376  -17.8202  -18.4280 O   0  0  0  0  0  0  0  0  0  0  0  0
   19.8354  -14.7832  -15.5827 O   0  0  0  0  0  0  0  0  0  0  0  0
   28.9379  -16.4038  -18.9834 C   0  0  0  0  0  0  0  0  0  0  0  0
   27.4799  -16.8252  -18.7058 C   0  0  0  0  0  0  0  0  0  0  0  0
   27.3298  -17.3613  -17.3339 C   0  0  2  0  0  0  0  0  0  0  0  0
   28.4567  -18.2902  -16.9417 C   0  0  0  0  0  0  0  0  0  0  0  0
   25.9675  -17.8162  -17.0099 C   0  0  2  0  0  0  0  0  0  0  0  0
   25.0005  -16.7283  -17.1376 N   0  0  0  0  0  0  0  0  0  0  0  0
   25.7772  -18.5676  -15.7664 C   0  0  0  0  0  0  0  0  0  0  0  0
   25.6342  -17.9317  -14.6475 O   0  0  0  0  0  0  0  0  0  0  0  0
   22.2491  -21.8648   -8.8075 O   0  0  0  0  0  0  0  0  0  0  0  0
   22.7035  -21.4179  -10.0396 C   0  0  0  0  0  0  0  0  0  0  0  0
   23.8308  -20.6335  -10.1468 C   0  0  0  0  0  0  0  0  0  0  0  0
   24.2820  -20.1890  -11.3784 C   0  0  0  0  0  0  0  0  0  0  0  0
   23.6363  -20.5019  -12.5560 C   0  0  0  0  0  0  0  0  0  0  0  0
   24.1119  -20.0221  -13.8707 C   0  0  0  0  0  0  0  0  0  0  0  0
   25.4551  -20.5766  -14.2783 C   0  0  2  0  0  0  0  0  0  0  0  0
   25.7176  -19.9554  -15.5993 N   0  0  0  0  0  0  0  0  0  0  0  0
   25.3321  -22.0418  -14.4207 C   0  0  0  0  0  0  0  0  0  0  0  0
   25.2582  -22.6064  -15.7088 O   0  0  0  0  0  0  0  0  0  0  0  0
   22.4937  -21.2979  -12.4395 C   0  0  0  0  0  0  0  0  0  0  0  0
   22.0439  -21.7410  -11.2140 C   0  0  0  0  0  0  0  0  0  0  0  0
   25.2868  -22.8435  -13.4771 O   0  0  0  0  0  0  0  0  0  0  0  0
  2  1  1  6
  2  3  1  0
  3  4  1  0
  4  8  1  0
  5  4  2  0
  6  2  1  0
  7  6  2  0
 10  9  1  0
 11 12  1  6
 11 10  1  0
 13 11  1  0
 13 14  1  1
 14  6  1  0
 15 24  1  0
 15 13  1  0
 16 15  2  0
 18 28  2  0
 18 17  1  0
 19 18  1  0
 20 21  1  0
 20 19  2  0
 21 27  2  0
 22 21  1  0
 23 22  1  6
 23 24  1  0
 25 23  1  0
 25 26  1  0
 27 28  1  0
 29 25  2  0
M  END
$$$$
