DIY.pdb
     RDKit          3D

 29 29  0  0  1  0  0  0  0  0999 V2000
   18.0103  -12.6243  -16.6298 N   0  0  0  0  0  0  0  0  0  0  0  0
   18.4278  -11.3160  -17.1706 C   0  0  1  0  0  0  0  0  0  0  0  0
   17.1720  -10.5320  -17.3457 C   0  0  0  0  0  0  0  0  0  0  0  0
   16.2731  -10.9923  -18.4146 C   0  0  0  0  0  0  0  0  0  0  0  0
   16.6182  -11.3235  -19.5760 O   0  0  0  0  0  0  0  0  0  0  0  0
   19.3522  -10.7086  -16.1326 C   0  0  0  0  0  0  0  0  0  0  0  0
   19.0370  -10.7717  -14.9154 O   0  0  0  0  0  0  0  0  0  0  0  0
   14.9059  -11.0549  -18.0672 O   0  0  0  0  0  0  0  0  0  0  0  0
   23.9882  -12.4622  -15.5235 C   0  0  0  0  0  0  0  0  0  0  0  0
   22.6338  -11.7266  -15.4546 C   0  0  0  0  0  0  0  0  0  0  0  0
   22.8054  -10.2696  -15.6531 C   0  0  2  0  0  0  0  0  0  0  0  0
   23.9599   -9.7023  -14.8581 C   0  0  0  0  0  0  0  0  0  0  0  0
   21.5487   -9.5034  -15.6143 C   0  0  2  0  0  0  0  0  0  0  0  0
   20.5479  -10.0804  -16.5090 N   0  0  0  0  0  0  0  0  0  0  0  0
   21.6325   -8.0479  -15.7613 C   0  0  0  0  0  0  0  0  0  0  0  0
   22.0720   -7.5387  -16.8677 O   0  0  0  0  0  0  0  0  0  0  0  0
   17.2593   -5.7976  -19.8576 O   0  0  0  0  0  0  0  0  0  0  0  0
   17.9822   -5.5972  -18.6907 C   0  0  0  0  0  0  0  0  0  0  0  0
   17.7534   -6.3584  -17.5656 C   0  0  0  0  0  0  0  0  0  0  0  0
   18.4769   -6.1559  -16.4022 C   0  0  0  0  0  0  0  0  0  0  0  0
   19.4573   -5.1911  -16.3031 C   0  0  0  0  0  0  0  0  0  0  0  0
   20.2253   -4.9683  -15.0600 C   0  0  0  0  0  0  0  0  0  0  0  0
   21.5813   -5.6307  -15.0481 C   0  0  2  0  0  0  0  0  0  0  0  0
   21.2812   -7.0665  -14.8281 N   0  0  0  0  0  0  0  0  0  0  0  0
   22.3543   -5.0926  -13.9099 C   0  0  0  0  0  0  0  0  0  0  0  0
   22.8153   -3.7626  -13.9558 O   0  0  0  0  0  0  0  0  0  0  0  0
   19.6839   -4.4231  -17.4483 C   0  0  0  0  0  0  0  0  0  0  0  0
   18.9644   -4.6240  -18.6069 C   0  0  0  0  0  0  0  0  0  0  0  0
   22.6419   -5.7279  -12.8859 O   0  0  0  0  0  0  0  0  0  0  0  0
  2  1  1  1
  2  3  1  0
  3  4  1  0
  4  8  1  0
  5  4  2  0
  6  2  1  0
  7  6  2  0
 10  9  1  0
 11 12  1  1
 11 10  1  0
 13 11  1  0
 13 14  1  6
 14  6  1  0
 15 24  1  0
 15 13  1  0
 16 15  2  0
 18 28  2  0
 18 17  1  0
 19 18  1  0
 20 21  1  0
 20 19  2  0
 21 27  2  0
 22 21  1  0
 23 22  1  1
 23 24  1  0
 25 23  1  0
 25 26  1  0
 27 28  1  0
 29 25  2  0
M  END
$$$$
