DIY.pdb
     RDKit          3D

 29 29  0  0  1  0  0  0  0  0999 V2000
   28.0636  -21.8891  -16.8182 N   0  0  0  0  0  0  0  0  0  0  0  0
   27.5421  -20.7242  -16.0771 C   0  0  1  0  0  0  0  0  0  0  0  0
   26.8243  -19.8927  -17.0850 C   0  0  0  0  0  0  0  0  0  0  0  0
   27.6749  -19.0869  -17.9736 C   0  0  0  0  0  0  0  0  0  0  0  0
   28.7867  -19.4341  -18.4438 O   0  0  0  0  0  0  0  0  0  0  0  0
   26.6125  -21.2834  -15.0168 C   0  0  0  0  0  0  0  0  0  0  0  0
   25.9453  -22.3209  -15.2683 O   0  0  0  0  0  0  0  0  0  0  0  0
   27.1631  -17.8138  -18.3065 O   0  0  0  0  0  0  0  0  0  0  0  0
   28.2493  -21.0328   -9.9370 C   0  0  0  0  0  0  0  0  0  0  0  0
   27.5684  -21.4516  -11.2566 C   0  0  0  0  0  0  0  0  0  0  0  0
   26.2127  -20.8672  -11.3683 C   0  0  2  0  0  0  0  0  0  0  0  0
   25.3464  -21.1633  -10.1648 C   0  0  0  0  0  0  0  0  0  0  0  0
   25.5828  -21.0524  -12.6862 C   0  0  2  0  0  0  0  0  0  0  0  0
   26.4870  -20.6628  -13.7658 N   0  0  0  0  0  0  0  0  0  0  0  0
   24.2375  -20.5058  -12.8818 C   0  0  0  0  0  0  0  0  0  0  0  0
   24.0844  -19.2376  -13.0936 O   0  0  0  0  0  0  0  0  0  0  0  0
   17.2828  -17.9846  -17.1850 O   0  0  0  0  0  0  0  0  0  0  0  0
   18.4081  -18.5304  -16.5848 C   0  0  0  0  0  0  0  0  0  0  0  0
   19.3789  -17.7320  -16.0213 C   0  0  0  0  0  0  0  0  0  0  0  0
   20.5012  -18.2800  -15.4228 C   0  0  0  0  0  0  0  0  0  0  0  0
   20.7102  -19.6416  -15.3571 C   0  0  0  0  0  0  0  0  0  0  0  0
   21.9109  -20.2281  -14.7255 C   0  0  0  0  0  0  0  0  0  0  0  0
   21.7450  -20.5363  -13.2575 C   0  0  2  0  0  0  0  0  0  0  0  0
   23.0194  -21.1941  -12.8792 N   0  0  0  0  0  0  0  0  0  0  0  0
   20.6196  -21.4806  -13.1025 C   0  0  0  0  0  0  0  0  0  0  0  0
   19.3518  -20.9894  -12.7354 O   0  0  0  0  0  0  0  0  0  0  0  0
   19.7212  -20.4450  -15.9307 C   0  0  0  0  0  0  0  0  0  0  0  0
   18.6036  -19.9005  -16.5265 C   0  0  0  0  0  0  0  0  0  0  0  0
   20.6948  -22.7056  -13.2724 O   0  0  0  0  0  0  0  0  0  0  0  0
  2  1  1  6
  2  3  1  0
  3  4  1  0
  4  8  1  0
  5  4  2  0
  6  2  1  0
  7  6  2  0
 10  9  1  0
 11 12  1  1
 11 10  1  0
 13 11  1  0
 13 14  1  6
 14  6  1  0
 15 24  1  0
 15 13  1  0
 16 15  2  0
 18 28  2  0
 18 17  1  0
 19 18  1  0
 20 21  1  0
 20 19  2  0
 21 27  2  0
 22 21  1  0
 23 22  1  6
 23 24  1  0
 25 23  1  0
 25 26  1  0
 27 28  1  0
 29 25  2  0
M  END
$$$$
