DIY.pdb
     RDKit          3D

 29 29  0  0  1  0  0  0  0  0999 V2000
   27.6145  -22.0216  -16.1423 N   0  0  0  0  0  0  0  0  0  0  0  0
   27.1387  -20.8306  -15.4120 C   0  0  1  0  0  0  0  0  0  0  0  0
   26.4661  -19.9744  -16.4304 C   0  0  0  0  0  0  0  0  0  0  0  0
   27.3583  -19.2127  -17.3172 C   0  0  0  0  0  0  0  0  0  0  0  0
   28.6138  -19.2468  -17.3053 O   0  0  0  0  0  0  0  0  0  0  0  0
   26.1772  -21.3421  -14.3562 C   0  0  0  0  0  0  0  0  0  0  0  0
   25.4017  -22.2928  -14.6386 O   0  0  0  0  0  0  0  0  0  0  0  0
   26.7091  -18.3785  -18.2533 O   0  0  0  0  0  0  0  0  0  0  0  0
   27.4524  -20.3020   -9.1087 C   0  0  0  0  0  0  0  0  0  0  0  0
   26.9353  -21.0021  -10.3827 C   0  0  0  0  0  0  0  0  0  0  0  0
   25.5735  -20.5387  -10.7327 C   0  0  2  0  0  0  0  0  0  0  0  0
   24.5904  -20.6971   -9.5946 C   0  0  0  0  0  0  0  0  0  0  0  0
   25.1100  -20.9763  -12.0599 C   0  0  2  0  0  0  0  0  0  0  0  0
   26.1407  -20.7727  -13.0754 N   0  0  0  0  0  0  0  0  0  0  0  0
   23.7998  -20.5036  -12.5148 C   0  0  0  0  0  0  0  0  0  0  0  0
   23.6536  -19.2698  -12.8796 O   0  0  0  0  0  0  0  0  0  0  0  0
   17.3782  -17.8477  -17.4049 O   0  0  0  0  0  0  0  0  0  0  0  0
   18.4294  -18.4368  -16.7177 C   0  0  0  0  0  0  0  0  0  0  0  0
   18.5371  -19.8057  -16.6081 C   0  0  0  0  0  0  0  0  0  0  0  0
   19.5878  -20.3907  -15.9214 C   0  0  0  0  0  0  0  0  0  0  0  0
   20.5764  -19.6455  -15.3138 C   0  0  0  0  0  0  0  0  0  0  0  0
   21.6945  -20.2678  -14.5739 C   0  0  0  0  0  0  0  0  0  0  0  0
   21.3625  -20.6269  -13.1462 C   0  0  2  0  0  0  0  0  0  0  0  0
   22.6116  -21.2340  -12.6256 N   0  0  0  0  0  0  0  0  0  0  0  0
   20.2763  -21.6281  -13.1566 C   0  0  0  0  0  0  0  0  0  0  0  0
   18.9564  -21.2177  -12.8868 O   0  0  0  0  0  0  0  0  0  0  0  0
   20.4606  -18.2577  -15.4293 C   0  0  0  0  0  0  0  0  0  0  0  0
   19.4151  -17.6744  -16.1128 C   0  0  0  0  0  0  0  0  0  0  0  0
   20.4286  -22.8355  -13.3893 O   0  0  0  0  0  0  0  0  0  0  0  0
  2  1  1  6
  2  3  1  0
  3  4  1  0
  4  8  1  0
  5  4  2  0
  6  2  1  0
  7  6  2  0
 10  9  1  0
 11 12  1  1
 11 10  1  0
 13 11  1  0
 13 14  1  6
 14  6  1  0
 15 24  1  0
 15 13  1  0
 16 15  2  0
 18 28  2  0
 18 17  1  0
 19 18  1  0
 20 21  1  0
 20 19  2  0
 21 27  2  0
 22 21  1  0
 23 22  1  6
 23 24  1  0
 25 23  1  0
 25 26  1  0
 27 28  1  0
 29 25  2  0
M  END
$$$$
