DIY.pdb
     RDKit          3D

 29 29  0  0  1  0  0  0  0  0999 V2000
   21.8941  -15.2034  -17.5159 N   0  0  0  0  0  0  0  0  0  0  0  0
   22.4315  -13.9609  -18.1039 C   0  0  1  0  0  0  0  0  0  0  0  0
   21.3611  -13.4439  -19.0036 C   0  0  0  0  0  0  0  0  0  0  0  0
   21.0978  -14.2417  -20.2105 C   0  0  0  0  0  0  0  0  0  0  0  0
   21.6590  -15.3231  -20.5158 O   0  0  0  0  0  0  0  0  0  0  0  0
   22.7099  -13.0313  -16.9380 C   0  0  0  0  0  0  0  0  0  0  0  0
   21.8938  -12.9829  -15.9807 O   0  0  0  0  0  0  0  0  0  0  0  0
   20.1200  -13.7131  -21.0810 O   0  0  0  0  0  0  0  0  0  0  0  0
   27.5619  -12.9210  -14.8835 C   0  0  0  0  0  0  0  0  0  0  0  0
   26.0484  -12.8231  -15.1667 C   0  0  0  0  0  0  0  0  0  0  0  0
   25.6539  -11.4341  -15.4936 C   0  0  2  0  0  0  0  0  0  0  0  0
   26.2001  -10.4234  -14.5103 C   0  0  0  0  0  0  0  0  0  0  0  0
   24.2378  -11.2811  -15.8664 C   0  0  2  0  0  0  0  0  0  0  0  0
   23.8593  -12.2287  -16.9123 N   0  0  0  0  0  0  0  0  0  0  0  0
   23.7512   -9.9299  -16.1569 C   0  0  0  0  0  0  0  0  0  0  0  0
   24.0522   -9.3676  -17.2838 O   0  0  0  0  0  0  0  0  0  0  0  0
   18.7205   -3.8257  -19.3274 O   0  0  0  0  0  0  0  0  0  0  0  0
   19.3894   -4.8960  -18.7517 C   0  0  0  0  0  0  0  0  0  0  0  0
   18.7454   -5.7743  -17.9082 C   0  0  0  0  0  0  0  0  0  0  0  0
   19.4160   -6.8419  -17.3351 C   0  0  0  0  0  0  0  0  0  0  0  0
   20.7525   -7.0852  -17.5723 C   0  0  0  0  0  0  0  0  0  0  0  0
   21.4718   -8.2196  -16.9556 C   0  0  0  0  0  0  0  0  0  0  0  0
   22.4070   -7.8211  -15.8401 C   0  0  2  0  0  0  0  0  0  0  0  0
   22.9558   -9.1090  -15.3501 N   0  0  0  0  0  0  0  0  0  0  0  0
   21.6152   -7.1685  -14.7773 C   0  0  0  0  0  0  0  0  0  0  0  0
   21.4675   -5.7680  -14.7878 O   0  0  0  0  0  0  0  0  0  0  0  0
   21.3990   -6.1902  -18.4290 C   0  0  0  0  0  0  0  0  0  0  0  0
   20.7324   -5.1273  -19.0001 C   0  0  0  0  0  0  0  0  0  0  0  0
   21.0517   -7.7631  -13.8478 O   0  0  0  0  0  0  0  0  0  0  0  0
  2  1  1  1
  2  3  1  0
  3  4  1  0
  4  8  1  0
  5  4  2  0
  6  2  1  0
  7  6  2  0
 10  9  1  0
 11 12  1  1
 11 10  1  0
 13 11  1  0
 13 14  1  6
 14  6  1  0
 15 24  1  0
 15 13  1  0
 16 15  2  0
 18 28  2  0
 18 17  1  0
 19 18  1  0
 20 21  1  0
 20 19  2  0
 21 27  2  0
 22 21  1  0
 23 22  1  6
 23 24  1  0
 25 23  1  0
 25 26  1  0
 27 28  1  0
 29 25  2  0
M  END
$$$$
