DIY.pdb
     RDKit          3D

 29 29  0  0  1  0  0  0  0  0999 V2000
   21.7246  -14.7219  -16.0957 N   0  0  0  0  0  0  0  0  0  0  0  0
   21.4257  -13.3944  -16.6673 C   0  0  1  0  0  0  0  0  0  0  0  0
   19.9443  -13.2456  -16.5896 C   0  0  0  0  0  0  0  0  0  0  0  0
   19.1655  -14.1110  -17.4879 C   0  0  0  0  0  0  0  0  0  0  0  0
   19.6351  -14.9771  -18.2670 O   0  0  0  0  0  0  0  0  0  0  0  0
   22.1571  -12.3891  -15.7982 C   0  0  0  0  0  0  0  0  0  0  0  0
   21.8706  -12.3092  -14.5750 O   0  0  0  0  0  0  0  0  0  0  0  0
   17.7668  -13.9229  -17.4431 O   0  0  0  0  0  0  0  0  0  0  0  0
   27.3404  -12.2257  -15.6521 C   0  0  0  0  0  0  0  0  0  0  0  0
   25.8298  -12.0665  -15.3812 C   0  0  0  0  0  0  0  0  0  0  0  0
   25.3522  -10.7245  -15.7848 C   0  0  2  0  0  0  0  0  0  0  0  0
   26.2406   -9.6103  -15.2789 C   0  0  0  0  0  0  0  0  0  0  0  0
   23.9023  -10.5264  -15.6229 C   0  0  2  0  0  0  0  0  0  0  0  0
   23.1439  -11.5512  -16.3369 N   0  0  0  0  0  0  0  0  0  0  0  0
   23.3657   -9.1853  -15.8683 C   0  0  0  0  0  0  0  0  0  0  0  0
   23.1555   -8.7903  -17.0834 O   0  0  0  0  0  0  0  0  0  0  0  0
   19.0464   -1.4332  -14.7216 O   0  0  0  0  0  0  0  0  0  0  0  0
   19.7163   -2.6377  -14.5641 C   0  0  0  0  0  0  0  0  0  0  0  0
   19.0551   -3.8429  -14.6522 C   0  0  0  0  0  0  0  0  0  0  0  0
   19.7268   -5.0437  -14.4946 C   0  0  0  0  0  0  0  0  0  0  0  0
   21.0814   -5.1024  -14.2427 C   0  0  0  0  0  0  0  0  0  0  0  0
   21.7987   -6.3827  -14.0666 C   0  0  0  0  0  0  0  0  0  0  0  0
   22.4519   -6.8996  -15.3250 C   0  0  2  0  0  0  0  0  0  0  0  0
   23.0200   -8.2104  -14.9262 N   0  0  0  0  0  0  0  0  0  0  0  0
   23.5355   -5.9700  -15.7047 C   0  0  0  0  0  0  0  0  0  0  0  0
   23.3512   -5.1061  -16.8015 O   0  0  0  0  0  0  0  0  0  0  0  0
   21.7454   -3.8759  -14.1548 C   0  0  0  0  0  0  0  0  0  0  0  0
   21.0777   -2.6801  -14.3118 C   0  0  0  0  0  0  0  0  0  0  0  0
   24.6269   -5.8803  -15.1250 O   0  0  0  0  0  0  0  0  0  0  0  0
  2  1  1  1
  2  3  1  0
  3  4  1  0
  4  8  1  0
  5  4  2  0
  6  2  1  0
  7  6  2  0
 10  9  1  0
 11 12  1  1
 11 10  1  0
 13 11  1  0
 13 14  1  6
 14  6  1  0
 15 24  1  0
 15 13  1  0
 16 15  2  0
 18 28  2  0
 18 17  1  0
 19 18  1  0
 20 21  1  0
 20 19  2  0
 21 27  2  0
 22 21  1  0
 23 22  1  1
 23 24  1  0
 25 23  1  0
 25 26  1  0
 27 28  1  0
 29 25  2  0
M  END
$$$$
