DIY.pdb
     RDKit          3D

 29 29  0  0  1  0  0  0  0  0999 V2000
   17.4685  -15.5203  -16.7756 N   0  0  0  0  0  0  0  0  0  0  0  0
   16.4476  -14.4855  -16.5205 C   0  0  1  0  0  0  0  0  0  0  0  0
   16.1940  -14.5218  -15.0519 C   0  0  0  0  0  0  0  0  0  0  0  0
   15.4868  -15.7107  -14.5531 C   0  0  0  0  0  0  0  0  0  0  0  0
   14.3499  -16.0995  -14.9192 O   0  0  0  0  0  0  0  0  0  0  0  0
   17.0588  -13.1728  -16.9724 C   0  0  0  0  0  0  0  0  0  0  0  0
   18.3104  -13.0773  -17.0686 O   0  0  0  0  0  0  0  0  0  0  0  0
   16.1792  -16.4578  -13.5753 O   0  0  0  0  0  0  0  0  0  0  0  0
   14.0343  -10.3047  -20.4436 C   0  0  0  0  0  0  0  0  0  0  0  0
   15.2694  -10.9216  -19.7549 C   0  0  0  0  0  0  0  0  0  0  0  0
   15.6955  -10.1093  -18.5926 C   0  0  2  0  0  0  0  0  0  0  0  0
   15.9511   -8.6627  -18.9514 C   0  0  0  0  0  0  0  0  0  0  0  0
   16.7066  -10.7582  -17.7415 C   0  0  2  0  0  0  0  0  0  0  0  0
   16.2519  -12.0690  -17.2831 N   0  0  0  0  0  0  0  0  0  0  0  0
   17.2840   -9.9718  -16.6483 C   0  0  0  0  0  0  0  0  0  0  0  0
   16.5625   -9.6873  -15.6114 O   0  0  0  0  0  0  0  0  0  0  0  0
   23.0978   -5.3390  -11.6149 O   0  0  0  0  0  0  0  0  0  0  0  0
   22.4648   -6.1665  -12.5307 C   0  0  0  0  0  0  0  0  0  0  0  0
   22.0196   -7.4209  -12.1759 C   0  0  0  0  0  0  0  0  0  0  0  0
   21.3878   -8.2447  -13.0926 C   0  0  0  0  0  0  0  0  0  0  0  0
   21.1704   -7.8618  -14.3995 C   0  0  0  0  0  0  0  0  0  0  0  0
   20.5033   -8.7425  -15.3813 C   0  0  0  0  0  0  0  0  0  0  0  0
   19.0012   -8.5997  -15.4142 C   0  0  2  0  0  0  0  0  0  0  0  0
   18.5808   -9.4559  -16.5500 N   0  0  0  0  0  0  0  0  0  0  0  0
   18.6721   -7.1869  -15.6932 C   0  0  0  0  0  0  0  0  0  0  0  0
   18.3222   -6.3360  -14.6269 O   0  0  0  0  0  0  0  0  0  0  0  0
   21.6247   -6.5882  -14.7520 C   0  0  0  0  0  0  0  0  0  0  0  0
   22.2534   -5.7674  -13.8402 C   0  0  0  0  0  0  0  0  0  0  0  0
   18.6768   -6.6677  -16.8182 O   0  0  0  0  0  0  0  0  0  0  0  0
  2  1  1  1
  2  3  1  0
  3  4  1  0
  4  8  1  0
  5  4  2  0
  6  2  1  0
  7  6  2  0
 10  9  1  0
 11 12  1  6
 11 10  1  0
 13 11  1  0
 13 14  1  1
 14  6  1  0
 15 24  1  0
 15 13  1  0
 16 15  2  0
 18 28  2  0
 18 17  1  0
 19 18  1  0
 20 21  1  0
 20 19  2  0
 21 27  2  0
 22 21  1  0
 23 22  1  6
 23 24  1  0
 25 23  1  0
 25 26  1  0
 27 28  1  0
 29 25  2  0
M  END
$$$$
