DIY.pdb
     RDKit          3D

 29 29  0  0  1  0  0  0  0  0999 V2000
   21.2583  -14.5307  -19.0257 N   0  0  0  0  0  0  0  0  0  0  0  0
   22.0207  -13.5510  -18.2275 C   0  0  1  0  0  0  0  0  0  0  0  0
   23.1788  -13.1517  -19.0771 C   0  0  0  0  0  0  0  0  0  0  0  0
   24.1706  -14.2041  -19.3442 C   0  0  0  0  0  0  0  0  0  0  0  0
   24.5313  -14.6060  -20.4782 O   0  0  0  0  0  0  0  0  0  0  0  0
   21.0716  -12.3985  -17.9597 C   0  0  0  0  0  0  0  0  0  0  0  0
   20.3583  -11.9575  -18.8986 O   0  0  0  0  0  0  0  0  0  0  0  0
   24.7480  -14.7929  -18.1981 O   0  0  0  0  0  0  0  0  0  0  0  0
   17.1986  -12.7166  -14.8778 C   0  0  0  0  0  0  0  0  0  0  0  0
   18.1478  -12.1509  -15.9546 C   0  0  0  0  0  0  0  0  0  0  0  0
   19.0562  -11.1302  -15.3845 C   0  0  2  0  0  0  0  0  0  0  0  0
   18.3176  -10.0326  -14.6520 C   0  0  0  0  0  0  0  0  0  0  0  0
   20.1269  -10.6979  -16.2980 C   0  0  2  0  0  0  0  0  0  0  0  0
   20.9785  -11.8201  -16.6858 N   0  0  0  0  0  0  0  0  0  0  0  0
   20.9168   -9.5245  -15.9159 C   0  0  0  0  0  0  0  0  0  0  0  0
   21.7519   -9.6062  -14.9296 O   0  0  0  0  0  0  0  0  0  0  0  0
   25.4482   -1.8600  -16.3066 O   0  0  0  0  0  0  0  0  0  0  0  0
   24.7319   -3.0278  -16.5245 C   0  0  0  0  0  0  0  0  0  0  0  0
   23.3861   -2.9997  -16.8170 C   0  0  0  0  0  0  0  0  0  0  0  0
   22.6739   -4.1674  -17.0341 C   0  0  0  0  0  0  0  0  0  0  0  0
   23.2635   -5.4124  -16.9705 C   0  0  0  0  0  0  0  0  0  0  0  0
   22.5034   -6.6601  -17.1943 C   0  0  0  0  0  0  0  0  0  0  0  0
   21.7475   -7.1454  -15.9816 C   0  0  2  0  0  0  0  0  0  0  0  0
   20.9062   -8.2524  -16.4981 N   0  0  0  0  0  0  0  0  0  0  0  0
   20.8938   -6.0439  -15.4914 C   0  0  0  0  0  0  0  0  0  0  0  0
   21.3507   -5.2350  -14.4329 O   0  0  0  0  0  0  0  0  0  0  0  0
   24.6288   -5.4330  -16.6735 C   0  0  0  0  0  0  0  0  0  0  0  0
   25.3388   -4.2712  -16.4574 C   0  0  0  0  0  0  0  0  0  0  0  0
   19.7759   -5.7596  -15.9435 O   0  0  0  0  0  0  0  0  0  0  0  0
  2  1  1  6
  2  3  1  0
  3  4  1  0
  4  8  1  0
  5  4  2  0
  6  2  1  0
  7  6  2  0
 10  9  1  0
 11 12  1  6
 11 10  1  0
 13 11  1  0
 13 14  1  1
 14  6  1  0
 15 24  1  0
 15 13  1  0
 16 15  2  0
 18 28  2  0
 18 17  1  0
 19 18  1  0
 20 21  1  0
 20 19  2  0
 21 27  2  0
 22 21  1  0
 23 22  1  6
 23 24  1  0
 25 23  1  0
 25 26  1  0
 27 28  1  0
 29 25  2  0
M  END
$$$$
