GGR.pdb
     RDKit          3D

 20 19  0  0  1  0  0  0  0  0999 V2000
    8.7375  -17.6231   16.9507 N   0  0  0  0  0  0  0  0  0  0  0  0
   10.0232  -17.9252   17.5656 C   0  0  0  0  0  0  0  0  0  0  0  0
    9.8288  -18.2237   19.0026 C   0  0  0  0  0  0  0  0  0  0  0  0
    8.7394  -18.0212   19.5952 O   0  0  0  0  0  0  0  0  0  0  0  0
   10.9062  -18.7610   19.7551 N   0  0  0  0  0  0  0  0  0  0  0  0
   10.8172  -19.1529   21.1368 C   0  0  0  0  0  0  0  0  0  0  0  0
   10.9956  -17.9624   21.9967 C   0  0  0  0  0  0  0  0  0  0  0  0
   11.8970  -17.1430   21.7231 O   0  0  0  0  0  0  0  0  0  0  0  0
    7.6388  -11.8109   20.1665 N   0  0  0  0  0  0  0  0  0  0  0  0
    7.7894  -13.1988   19.9108 C   0  0  0  0  0  0  0  0  0  0  0  0
    8.0249  -13.5798   18.7008 N   0  0  0  0  0  0  0  0  0  0  0  0
    7.6953  -14.1801   20.9176 N   0  0  0  0  0  0  0  0  0  0  0  0
    8.7641  -14.3869   21.9396 C   0  0  0  0  0  0  0  0  0  0  0  0
    8.2381  -15.4222   22.8541 C   0  0  0  0  0  0  0  0  0  0  0  0
    8.9961  -15.9299   23.9869 C   0  0  0  0  0  0  0  0  0  0  0  0
   10.3535  -16.5015   23.8953 C   0  0  2  0  0  0  0  0  0  0  0  0
   10.1646  -17.7583   23.1061 N   0  0  0  0  0  0  0  0  0  0  0  0
   11.0499  -16.9268   25.0937 C   0  0  0  0  0  0  0  0  0  0  0  0
   11.3442  -16.2021   26.0531 O   0  0  0  0  0  0  0  0  0  0  0  0
   11.4471  -18.2768   25.2236 O   0  0  0  0  0  0  0  0  0  0  0  0
  2  1  1  0
  3  2  1  0
  4  3  2  0
  5  3  1  0
  6  5  1  0
  7  6  1  0
  7 17  1  0
  8  7  2  0
  9 10  1  0
 10 12  1  0
 11 10  2  0
 12 13  1  0
 13 14  1  0
 14 15  1  0
 16 15  1  1
 16 17  1  0
 18 20  1  0
 18 16  1  0
 19 18  2  0
M  END
$$$$
