GGR.pdb
     RDKit          3D

 20 19  0  0  1  0  0  0  0  0999 V2000
    8.5195  -12.5868   17.2103 N   0  0  0  0  0  0  0  0  0  0  0  0
    8.4269  -13.9600   17.6880 C   0  0  0  0  0  0  0  0  0  0  0  0
    7.9656  -13.9666   19.0948 C   0  0  0  0  0  0  0  0  0  0  0  0
    8.3627  -13.1277   19.9419 O   0  0  0  0  0  0  0  0  0  0  0  0
    7.0374  -14.9533   19.5196 N   0  0  0  0  0  0  0  0  0  0  0  0
    6.4595  -15.0129   20.8360 C   0  0  0  0  0  0  0  0  0  0  0  0
    7.4631  -15.5352   21.7891 C   0  0  0  0  0  0  0  0  0  0  0  0
    8.6033  -15.8282   21.3732 O   0  0  0  0  0  0  0  0  0  0  0  0
    9.9260  -13.3312   30.0188 N   0  0  0  0  0  0  0  0  0  0  0  0
   10.1816  -14.7063   29.7780 C   0  0  0  0  0  0  0  0  0  0  0  0
   10.9083  -15.3547   30.6243 N   0  0  0  0  0  0  0  0  0  0  0  0
    9.6772  -15.3968   28.6581 N   0  0  0  0  0  0  0  0  0  0  0  0
    8.9566  -14.7070   27.5471 C   0  0  0  0  0  0  0  0  0  0  0  0
    8.5481  -15.7809   26.6172 C   0  0  0  0  0  0  0  0  0  0  0  0
    7.8702  -15.5155   25.3581 C   0  0  0  0  0  0  0  0  0  0  0  0
    8.2239  -16.1431   24.0702 C   0  0  2  0  0  0  0  0  0  0  0  0
    7.1373  -15.7011   23.1416 N   0  0  0  0  0  0  0  0  0  0  0  0
    8.2455  -17.5870   23.9422 C   0  0  0  0  0  0  0  0  0  0  0  0
    7.2856  -18.2972   23.6160 O   0  0  0  0  0  0  0  0  0  0  0  0
    9.4443  -18.2891   24.2017 O   0  0  0  0  0  0  0  0  0  0  0  0
  2  1  1  0
  3  2  1  0
  4  3  2  0
  5  3  1  0
  6  5  1  0
  7  6  1  0
  7 17  1  0
  8  7  2  0
  9 10  1  0
 10 12  1  0
 11 10  2  0
 12 13  1  0
 13 14  1  0
 14 15  1  0
 16 15  1  1
 16 17  1  0
 18 20  1  0
 18 16  1  0
 19 18  2  0
M  END
$$$$
