GGR.pdb
     RDKit          3D

 20 19  0  0  1  0  0  0  0  0999 V2000
    8.0840  -17.1781   15.8012 N   0  0  0  0  0  0  0  0  0  0  0  0
    8.8073  -15.9405   16.0608 C   0  0  0  0  0  0  0  0  0  0  0  0
    8.1400  -15.1944   17.1517 C   0  0  0  0  0  0  0  0  0  0  0  0
    7.2068  -15.6847   17.8355 O   0  0  0  0  0  0  0  0  0  0  0  0
    8.5598  -13.8713   17.4497 N   0  0  0  0  0  0  0  0  0  0  0  0
    8.0622  -13.0889   18.5502 C   0  0  0  0  0  0  0  0  0  0  0  0
    8.7936  -13.4555   19.7828 C   0  0  0  0  0  0  0  0  0  0  0  0
    9.6062  -12.6441   20.2729 O   0  0  0  0  0  0  0  0  0  0  0  0
    5.0449  -12.9513   27.0694 N   0  0  0  0  0  0  0  0  0  0  0  0
    6.2207  -12.2472   26.7006 C   0  0  0  0  0  0  0  0  0  0  0  0
    6.4709  -11.1213   27.2790 N   0  0  0  0  0  0  0  0  0  0  0  0
    7.1285  -12.7215   25.7330 N   0  0  0  0  0  0  0  0  0  0  0  0
    6.7424  -13.7177   24.6898 C   0  0  0  0  0  0  0  0  0  0  0  0
    7.9385  -13.8761   23.8359 C   0  0  0  0  0  0  0  0  0  0  0  0
    7.9512  -14.7145   22.6475 C   0  0  0  0  0  0  0  0  0  0  0  0
    9.1226  -14.9025   21.7700 C   0  0  2  0  0  0  0  0  0  0  0  0
    8.5786  -14.6990   20.3913 N   0  0  0  0  0  0  0  0  0  0  0  0
    9.7922  -16.1870   21.7099 C   0  0  0  0  0  0  0  0  0  0  0  0
    9.4832  -17.1281   20.9675 O   0  0  0  0  0  0  0  0  0  0  0  0
   10.8995  -16.4328   22.5529 O   0  0  0  0  0  0  0  0  0  0  0  0
  2  1  1  0
  3  2  1  0
  4  3  2  0
  5  3  1  0
  6  5  1  0
  7  6  1  0
  7 17  1  0
  8  7  2  0
  9 10  1  0
 10 12  1  0
 11 10  2  0
 12 13  1  0
 13 14  1  0
 14 15  1  0
 16 15  1  1
 16 17  1  0
 18 20  1  0
 18 16  1  0
 19 18  2  0
M  END
$$$$
