GGR.pdb
     RDKit          3D

 20 19  0  0  1  0  0  0  0  0999 V2000
   10.6818  -19.5386   16.8019 N   0  0  0  0  0  0  0  0  0  0  0  0
   10.4884  -19.0829   18.1720 C   0  0  0  0  0  0  0  0  0  0  0  0
   11.7733  -18.5901   18.7179 C   0  0  0  0  0  0  0  0  0  0  0  0
   12.8367  -18.5864   18.0485 O   0  0  0  0  0  0  0  0  0  0  0  0
   11.8227  -18.0984   20.0489 N   0  0  0  0  0  0  0  0  0  0  0  0
   13.0023  -17.5613   20.6740 C   0  0  0  0  0  0  0  0  0  0  0  0
   12.6662  -17.0969   22.0378 C   0  0  0  0  0  0  0  0  0  0  0  0
   13.5615  -16.5936   22.7477 O   0  0  0  0  0  0  0  0  0  0  0  0
    7.1551  -12.0747   20.6234 N   0  0  0  0  0  0  0  0  0  0  0  0
    7.6658  -13.2193   19.9575 C   0  0  0  0  0  0  0  0  0  0  0  0
    7.4956  -13.3166   18.6822 N   0  0  0  0  0  0  0  0  0  0  0  0
    8.3515  -14.2540   20.6244 N   0  0  0  0  0  0  0  0  0  0  0  0
    8.7095  -14.1770   22.0720 C   0  0  0  0  0  0  0  0  0  0  0  0
    9.3401  -15.4754   22.3903 C   0  0  0  0  0  0  0  0  0  0  0  0
    9.9396  -15.7627   23.6840 C   0  0  0  0  0  0  0  0  0  0  0  0
   11.0735  -16.6835   23.8935 C   0  0  2  0  0  0  0  0  0  0  0  0
   11.3596  -17.2224   22.5275 N   0  0  0  0  0  0  0  0  0  0  0  0
   10.9143  -17.8623   24.7225 C   0  0  0  0  0  0  0  0  0  0  0  0
   10.7961  -19.0236   24.3108 O   0  0  0  0  0  0  0  0  0  0  0  0
   10.8861  -17.7235   26.1286 O   0  0  0  0  0  0  0  0  0  0  0  0
  2  1  1  0
  3  2  1  0
  4  3  2  0
  5  3  1  0
  6  5  1  0
  7  6  1  0
  7 17  1  0
  8  7  2  0
  9 10  1  0
 10 12  1  0
 11 10  2  0
 12 13  1  0
 13 14  1  0
 14 15  1  0
 16 15  1  6
 16 17  1  0
 18 20  1  0
 18 16  1  0
 19 18  2  0
M  END
$$$$
