GGR.pdb
     RDKit          3D

 20 19  0  0  1  0  0  0  0  0999 V2000
    9.3354  -19.0922   17.9172 N   0  0  0  0  0  0  0  0  0  0  0  0
   10.3848  -18.1673   18.3243 C   0  0  0  0  0  0  0  0  0  0  0  0
   10.8131  -18.4791   19.7068 C   0  0  0  0  0  0  0  0  0  0  0  0
   10.0534  -19.0279   20.5438 O   0  0  0  0  0  0  0  0  0  0  0  0
   12.1316  -18.1515   20.1189 N   0  0  0  0  0  0  0  0  0  0  0  0
   12.6488  -18.3750   21.4430 C   0  0  0  0  0  0  0  0  0  0  0  0
   12.1945  -17.2873   22.3369 C   0  0  0  0  0  0  0  0  0  0  0  0
   12.7727  -16.1815   22.2932 O   0  0  0  0  0  0  0  0  0  0  0  0
    6.9617  -14.6265   19.0640 N   0  0  0  0  0  0  0  0  0  0  0  0
    7.6695  -13.5426   19.6458 C   0  0  0  0  0  0  0  0  0  0  0  0
    7.9727  -12.5342   18.9001 N   0  0  0  0  0  0  0  0  0  0  0  0
    8.0553  -13.5159   21.0008 N   0  0  0  0  0  0  0  0  0  0  0  0
    7.8389  -14.6725   21.9201 C   0  0  0  0  0  0  0  0  0  0  0  0
    9.1336  -14.8796   22.6024 C   0  0  0  0  0  0  0  0  0  0  0  0
    9.3703  -15.9802   23.5233 C   0  0  0  0  0  0  0  0  0  0  0  0
   10.6922  -16.3429   24.0698 C   0  0  2  0  0  0  0  0  0  0  0  0
   11.1299  -17.4963   23.2233 N   0  0  0  0  0  0  0  0  0  0  0  0
   10.8128  -16.8259   25.4314 C   0  0  0  0  0  0  0  0  0  0  0  0
   10.9301  -18.0109   25.7692 O   0  0  0  0  0  0  0  0  0  0  0  0
   10.8008  -15.9008   26.4998 O   0  0  0  0  0  0  0  0  0  0  0  0
  2  1  1  0
  3  2  1  0
  4  3  2  0
  5  3  1  0
  6  5  1  0
  7  6  1  0
  7 17  1  0
  8  7  2  0
  9 10  1  0
 10 12  1  0
 11 10  2  0
 12 13  1  0
 13 14  1  0
 14 15  1  0
 16 15  1  6
 16 17  1  0
 18 20  1  0
 18 16  1  0
 19 18  2  0
M  END
$$$$
