GGR.pdb
     RDKit          3D

 20 19  0  0  1  0  0  0  0  0999 V2000
    9.4491  -22.0423   20.6126 N   0  0  0  0  0  0  0  0  0  0  0  0
    9.3660  -20.5969   20.7747 C   0  0  0  0  0  0  0  0  0  0  0  0
   10.7140  -20.0494   21.0490 C   0  0  0  0  0  0  0  0  0  0  0  0
   11.6561  -20.7564   21.4865 O   0  0  0  0  0  0  0  0  0  0  0  0
   10.9686  -18.6728   20.8131 N   0  0  0  0  0  0  0  0  0  0  0  0
   12.1722  -17.9894   21.2068 C   0  0  0  0  0  0  0  0  0  0  0  0
   11.8694  -17.0663   22.3225 C   0  0  0  0  0  0  0  0  0  0  0  0
   12.6851  -16.1643   22.6052 O   0  0  0  0  0  0  0  0  0  0  0  0
    6.8012  -13.3981   19.2094 N   0  0  0  0  0  0  0  0  0  0  0  0
    8.1396  -13.0462   19.5239 C   0  0  0  0  0  0  0  0  0  0  0  0
    8.8340  -12.4137   18.6392 N   0  0  0  0  0  0  0  0  0  0  0  0
    8.7452  -13.3541   20.7584 N   0  0  0  0  0  0  0  0  0  0  0  0
    8.4392  -14.6060   21.5126 C   0  0  0  0  0  0  0  0  0  0  0  0
    9.1434  -14.4682   22.8048 C   0  0  0  0  0  0  0  0  0  0  0  0
    9.2053  -15.5407   23.7853 C   0  0  0  0  0  0  0  0  0  0  0  0
   10.4417  -16.2447   24.1767 C   0  0  2  0  0  0  0  0  0  0  0  0
   10.6828  -17.2043   23.0545 N   0  0  0  0  0  0  0  0  0  0  0  0
   10.4677  -17.0680   25.3698 C   0  0  0  0  0  0  0  0  0  0  0  0
   10.1099  -16.7123   26.5002 O   0  0  0  0  0  0  0  0  0  0  0  0
   10.9335  -18.3995   25.2845 O   0  0  0  0  0  0  0  0  0  0  0  0
  2  1  1  0
  3  2  1  0
  4  3  2  0
  5  3  1  0
  6  5  1  0
  7  6  1  0
  7 17  1  0
  8  7  2  0
  9 10  1  0
 10 12  1  0
 11 10  2  0
 12 13  1  0
 13 14  1  0
 14 15  1  0
 16 15  1  6
 16 17  1  0
 18 20  1  0
 18 16  1  0
 19 18  2  0
M  END
$$$$
