GGR.pdb
     RDKit          3D

 20 19  0  0  1  0  0  0  0  0999 V2000
   11.9810  -21.1769   18.0966 N   0  0  0  0  0  0  0  0  0  0  0  0
   11.5749  -20.4496   19.2918 C   0  0  0  0  0  0  0  0  0  0  0  0
   12.4644  -19.2827   19.4896 C   0  0  0  0  0  0  0  0  0  0  0  0
   13.4434  -19.0423   18.7396 O   0  0  0  0  0  0  0  0  0  0  0  0
   12.2144  -18.3899   20.5648 N   0  0  0  0  0  0  0  0  0  0  0  0
   12.9845  -17.2042   20.8330 C   0  0  0  0  0  0  0  0  0  0  0  0
   12.4369  -16.5233   22.0266 C   0  0  0  0  0  0  0  0  0  0  0  0
   12.9537  -15.4526   22.4079 O   0  0  0  0  0  0  0  0  0  0  0  0
    7.4464  -11.9309   20.5877 N   0  0  0  0  0  0  0  0  0  0  0  0
    7.7612  -13.1321   19.9004 C   0  0  0  0  0  0  0  0  0  0  0  0
    7.6750  -13.1454   18.6131 N   0  0  0  0  0  0  0  0  0  0  0  0
    8.1651  -14.3107   20.5586 N   0  0  0  0  0  0  0  0  0  0  0  0
    8.5290  -14.3371   22.0066 C   0  0  0  0  0  0  0  0  0  0  0  0
    8.8204  -15.7535   22.3126 C   0  0  0  0  0  0  0  0  0  0  0  0
    9.3668  -16.1863   23.5892 C   0  0  0  0  0  0  0  0  0  0  0  0
   10.8077  -16.3056   23.8841 C   0  0  2  0  0  0  0  0  0  0  0  0
   11.3527  -17.0744   22.7221 N   0  0  0  0  0  0  0  0  0  0  0  0
   11.2568  -17.0422   25.0493 C   0  0  0  0  0  0  0  0  0  0  0  0
   10.9244  -16.8144   26.2196 O   0  0  0  0  0  0  0  0  0  0  0  0
   12.1523  -18.1231   24.8846 O   0  0  0  0  0  0  0  0  0  0  0  0
  2  1  1  0
  3  2  1  0
  4  3  2  0
  5  3  1  0
  6  5  1  0
  7  6  1  0
  7 17  1  0
  8  7  2  0
  9 10  1  0
 10 12  1  0
 11 10  2  0
 12 13  1  0
 13 14  1  0
 14 15  1  0
 16 15  1  6
 16 17  1  0
 18 20  1  0
 18 16  1  0
 19 18  2  0
M  END
$$$$
