GGR.pdb
     RDKit          3D

 20 19  0  0  1  0  0  0  0  0999 V2000
    9.6365  -16.5757   17.6771 N   0  0  0  0  0  0  0  0  0  0  0  0
    8.4186  -15.7867   17.8059 C   0  0  0  0  0  0  0  0  0  0  0  0
    8.4208  -15.0780   19.1058 C   0  0  0  0  0  0  0  0  0  0  0  0
    9.0231  -15.5189   20.1166 O   0  0  0  0  0  0  0  0  0  0  0  0
    7.7196  -13.8500   19.2315 N   0  0  0  0  0  0  0  0  0  0  0  0
    7.7229  -13.0291   20.4134 C   0  0  0  0  0  0  0  0  0  0  0  0
    7.1367  -13.7885   21.5396 C   0  0  0  0  0  0  0  0  0  0  0  0
    5.9289  -14.1024   21.4994 O   0  0  0  0  0  0  0  0  0  0  0  0
    9.5054  -20.3879   26.8493 N   0  0  0  0  0  0  0  0  0  0  0  0
    8.1053  -20.1566   26.8280 C   0  0  0  0  0  0  0  0  0  0  0  0
    7.3464  -20.9064   27.5536 N   0  0  0  0  0  0  0  0  0  0  0  0
    7.5055  -19.1449   26.0520 N   0  0  0  0  0  0  0  0  0  0  0  0
    8.3017  -18.1815   25.2348 C   0  0  0  0  0  0  0  0  0  0  0  0
    7.3075  -17.2975   24.5905 C   0  0  0  0  0  0  0  0  0  0  0  0
    7.6789  -16.2405   23.6631 C   0  0  0  0  0  0  0  0  0  0  0  0
    7.2528  -14.8330   23.7861 C   0  0  2  0  0  0  0  0  0  0  0  0
    7.9268  -14.1490   22.6389 N   0  0  0  0  0  0  0  0  0  0  0  0
    7.6329  -14.0531   24.9476 C   0  0  0  0  0  0  0  0  0  0  0  0
    7.0487  -14.0516   26.0389 O   0  0  0  0  0  0  0  0  0  0  0  0
    8.7622  -13.2064   24.8760 O   0  0  0  0  0  0  0  0  0  0  0  0
  2  1  1  0
  3  2  1  0
  4  3  2  0
  5  3  1  0
  6  5  1  0
  7  6  1  0
  7 17  1  0
  8  7  2  0
  9 10  1  0
 10 12  1  0
 11 10  2  0
 12 13  1  0
 13 14  1  0
 14 15  1  0
 16 15  1  1
 16 17  1  0
 18 20  1  0
 18 16  1  0
 19 18  2  0
M  END
$$$$
