GGR.pdb
     RDKit          3D

 20 19  0  0  1  0  0  0  0  0999 V2000
    8.1463  -17.3717   18.5822 N   0  0  0  0  0  0  0  0  0  0  0  0
    7.1686  -17.0346   19.6083 C   0  0  0  0  0  0  0  0  0  0  0  0
    7.7312  -16.0052   20.5115 C   0  0  0  0  0  0  0  0  0  0  0  0
    8.9354  -16.0037   20.8703 O   0  0  0  0  0  0  0  0  0  0  0  0
    6.8896  -14.9714   21.0003 N   0  0  0  0  0  0  0  0  0  0  0  0
    7.2708  -14.0234   22.0134 C   0  0  0  0  0  0  0  0  0  0  0  0
    7.3430  -14.7076   23.3231 C   0  0  0  0  0  0  0  0  0  0  0  0
    6.3316  -14.7308   24.0547 O   0  0  0  0  0  0  0  0  0  0  0  0
    6.7745  -20.9928   22.5535 N   0  0  0  0  0  0  0  0  0  0  0  0
    5.6093  -20.5605   23.2387 C   0  0  0  0  0  0  0  0  0  0  0  0
    4.4569  -20.8375   22.7289 N   0  0  0  0  0  0  0  0  0  0  0  0
    5.6525  -19.8440   24.4513 N   0  0  0  0  0  0  0  0  0  0  0  0
    6.9350  -19.4237   25.0902 C   0  0  0  0  0  0  0  0  0  0  0  0
    7.3531  -18.2043   24.3670 C   0  0  0  0  0  0  0  0  0  0  0  0
    8.5375  -17.4419   24.7295 C   0  0  0  0  0  0  0  0  0  0  0  0
    8.5355  -16.0056   25.0680 C   0  0  2  0  0  0  0  0  0  0  0  0
    8.5327  -15.3201   23.7381 N   0  0  0  0  0  0  0  0  0  0  0  0
    9.6571  -15.4198   25.7757 C   0  0  0  0  0  0  0  0  0  0  0  0
   10.6188  -14.8424   25.2523 O   0  0  0  0  0  0  0  0  0  0  0  0
    9.7002  -15.4887   27.1866 O   0  0  0  0  0  0  0  0  0  0  0  0
  2  1  1  0
  3  2  1  0
  4  3  2  0
  5  3  1  0
  6  5  1  0
  7  6  1  0
  7 17  1  0
  8  7  2  0
  9 10  1  0
 10 12  1  0
 11 10  2  0
 12 13  1  0
 13 14  1  0
 14 15  1  0
 16 15  1  6
 16 17  1  0
 18 20  1  0
 18 16  1  0
 19 18  2  0
M  END
$$$$
