GGR.pdb
     RDKit          3D

 20 19  0  0  1  0  0  0  0  0999 V2000
   10.9052  -17.9061   20.5021 N   0  0  0  0  0  0  0  0  0  0  0  0
    9.6560  -17.2911   20.0736 C   0  0  0  0  0  0  0  0  0  0  0  0
    9.1324  -16.4248   21.1540 C   0  0  0  0  0  0  0  0  0  0  0  0
    9.4838  -16.5510   22.3537 O   0  0  0  0  0  0  0  0  0  0  0  0
    8.1955  -15.4059   20.8383 N   0  0  0  0  0  0  0  0  0  0  0  0
    6.7865  -15.4809   21.1210 C   0  0  0  0  0  0  0  0  0  0  0  0
    6.5561  -15.1743   22.5498 C   0  0  0  0  0  0  0  0  0  0  0  0
    5.3888  -15.1768   22.9927 O   0  0  0  0  0  0  0  0  0  0  0  0
   12.4200  -19.0072   26.3002 N   0  0  0  0  0  0  0  0  0  0  0  0
   11.1739  -19.5359   25.8735 C   0  0  0  0  0  0  0  0  0  0  0  0
   11.1151  -20.7810   25.5403 N   0  0  0  0  0  0  0  0  0  0  0  0
    9.9973  -18.7642   25.7981 N   0  0  0  0  0  0  0  0  0  0  0  0
    9.9469  -17.3336   26.2229 C   0  0  0  0  0  0  0  0  0  0  0  0
    8.8596  -16.7256   25.4272 C   0  0  0  0  0  0  0  0  0  0  0  0
    8.5058  -15.3182   25.5247 C   0  0  0  0  0  0  0  0  0  0  0  0
    7.3475  -14.6993   24.8518 C   0  0  2  0  0  0  0  0  0  0  0  0
    7.6346  -14.8823   23.3950 N   0  0  0  0  0  0  0  0  0  0  0  0
    7.0914  -13.2795   24.9955 C   0  0  0  0  0  0  0  0  0  0  0  0
    6.4838  -12.7469   25.9333 O   0  0  0  0  0  0  0  0  0  0  0  0
    7.5569  -12.3863   24.0042 O   0  0  0  0  0  0  0  0  0  0  0  0
  2  1  1  0
  3  2  1  0
  4  3  2  0
  5  3  1  0
  6  5  1  0
  7  6  1  0
  7 17  1  0
  8  7  2  0
  9 10  1  0
 10 12  1  0
 11 10  2  0
 12 13  1  0
 13 14  1  0
 14 15  1  0
 16 15  1  1
 16 17  1  0
 18 20  1  0
 18 16  1  0
 19 18  2  0
M  END
$$$$
