GGR.pdb
     RDKit          3D

 20 19  0  0  1  0  0  0  0  0999 V2000
    8.5176  -20.1429   19.1492 N   0  0  0  0  0  0  0  0  0  0  0  0
    9.4224  -20.1822   20.2903 C   0  0  0  0  0  0  0  0  0  0  0  0
   10.4064  -19.0812   20.1824 C   0  0  0  0  0  0  0  0  0  0  0  0
   10.3746  -18.2326   19.2563 O   0  0  0  0  0  0  0  0  0  0  0  0
   11.4329  -18.9656   21.1564 N   0  0  0  0  0  0  0  0  0  0  0  0
   12.3560  -17.8648   21.2380 C   0  0  0  0  0  0  0  0  0  0  0  0
   11.9167  -16.9341   22.3006 C   0  0  0  0  0  0  0  0  0  0  0  0
   12.6306  -15.9489   22.5809 O   0  0  0  0  0  0  0  0  0  0  0  0
    7.8555  -14.3601   18.8975 N   0  0  0  0  0  0  0  0  0  0  0  0
    8.0478  -13.1575   19.6260 C   0  0  0  0  0  0  0  0  0  0  0  0
    8.5409  -12.1366   19.0099 N   0  0  0  0  0  0  0  0  0  0  0  0
    7.7236  -13.0259   20.9910 N   0  0  0  0  0  0  0  0  0  0  0  0
    7.4606  -14.2034   21.8708 C   0  0  0  0  0  0  0  0  0  0  0  0
    8.7705  -14.5550   22.4584 C   0  0  0  0  0  0  0  0  0  0  0  0
    8.9476  -15.6705   23.3749 C   0  0  0  0  0  0  0  0  0  0  0  0
   10.2461  -16.0967   23.9315 C   0  0  2  0  0  0  0  0  0  0  0  0
   10.7150  -17.1568   22.9857 N   0  0  0  0  0  0  0  0  0  0  0  0
   10.3117  -16.7213   25.2381 C   0  0  0  0  0  0  0  0  0  0  0  0
   10.0100  -16.1834   26.3113 O   0  0  0  0  0  0  0  0  0  0  0  0
   10.7520  -18.0599   25.3464 O   0  0  0  0  0  0  0  0  0  0  0  0
  2  1  1  0
  3  2  1  0
  4  3  2  0
  5  3  1  0
  6  5  1  0
  7  6  1  0
  7 17  1  0
  8  7  2  0
  9 10  1  0
 10 12  1  0
 11 10  2  0
 12 13  1  0
 13 14  1  0
 14 15  1  0
 16 15  1  6
 16 17  1  0
 18 20  1  0
 18 16  1  0
 19 18  2  0
M  END
$$$$
