EHL.pdb
     RDKit          3D

 28 28  0  0  1  0  0  0  0  0999 V2000
   10.2990  -14.5037   18.6451 N   0  0  0  0  0  0  0  0  0  0  0  0
    8.9964  -14.0535   19.1258 C   0  0  1  0  0  0  0  0  0  0  0  0
    8.0181  -14.3630   18.0191 C   0  0  0  0  0  0  0  0  0  0  0  0
    8.5527  -14.1997   16.6360 C   0  0  0  0  0  0  0  0  0  0  0  0
    7.5844  -14.4880   15.5643 C   0  0  0  0  0  0  0  0  0  0  0  0
    6.5215  -15.1004   15.8734 O   0  0  0  0  0  0  0  0  0  0  0  0
    8.5807  -14.8180   20.3278 C   0  0  0  0  0  0  0  0  0  0  0  0
    7.4600  -14.5271   20.8403 O   0  0  0  0  0  0  0  0  0  0  0  0
    7.8593  -14.0896   14.2744 O   0  0  0  0  0  0  0  0  0  0  0  0
    9.3627  -15.8399   20.9195 N   0  0  0  0  0  0  0  0  0  0  0  0
    8.9036  -16.4901   22.1301 C   0  0  1  0  0  0  0  0  0  0  0  0
    9.7739  -17.7391   22.3350 C   0  0  0  0  0  0  0  0  0  0  0  0
    9.2012  -18.8183   21.5080 C   0  0  0  0  0  0  0  0  0  0  0  0
    8.0126  -18.7531   20.8288 C   0  0  0  0  0  0  0  0  0  0  0  0
    7.8692  -19.9357   20.2084 N   0  0  0  0  0  0  0  0  0  0  0  0
    8.9144  -20.7219   20.4759 C   0  0  0  0  0  0  0  0  0  0  0  0
    9.7379  -20.0178   21.2856 N   0  0  0  0  0  0  0  0  0  0  0  0
    9.0814  -15.6481   23.3346 C   0  0  0  0  0  0  0  0  0  0  0  0
   10.2300  -15.0890   23.4226 O   0  0  0  0  0  0  0  0  0  0  0  0
    5.6190  -12.1747   26.9745 C   0  0  0  0  0  0  0  0  0  0  0  0
    6.9370  -12.7526   26.6680 C   0  0  2  0  0  0  0  0  0  0  0  0
    7.9010  -11.5659   26.4611 C   0  0  0  0  0  0  0  0  0  0  0  0
    7.1321  -13.7369   25.6272 C   0  0  0  0  0  0  0  0  0  0  0  0
    8.3228  -14.5572   25.4414 C   0  0  2  0  0  0  0  0  0  0  0  0
    8.0815  -15.4647   24.3134 N   0  0  0  0  0  0  0  0  0  0  0  0
    8.8733  -15.3565   26.5159 C   0  0  0  0  0  0  0  0  0  0  0  0
    9.5650  -14.8711   27.4485 O   0  0  0  0  0  0  0  0  0  0  0  0
    8.7043  -16.7269   26.6424 O   0  0  0  0  0  0  0  0  0  0  0  0
  2  1  1  6
  2  7  1  0
  2  3  1  0
  3  4  1  0
  4  5  1  0
  5  9  1  0
  5  6  2  0
  7  8  2  0
 10  7  1  0
 11 10  1  0
 12 13  1  0
 11 12  1  1
 13 17  1  0
 14 13  2  0
 14 15  1  0
 15 16  1  0
 17 16  2  0
 18 11  1  0
 19 18  2  0
 21 20  1  6
 22 21  1  0
 23 21  1  0
 24 23  1  1
 24 25  1  0
 25 18  1  0
 26 24  1  0
 27 26  2  0
 28 26  1  0
M  END
$$$$
