EHL.pdb
     RDKit          3D

 28 28  0  0  1  0  0  0  0  0999 V2000
   12.8357  -16.6351   19.2006 N   0  0  0  0  0  0  0  0  0  0  0  0
   12.5955  -17.3397   20.4561 C   0  0  1  0  0  0  0  0  0  0  0  0
   13.9524  -17.5317   21.0884 C   0  0  0  0  0  0  0  0  0  0  0  0
   15.0454  -17.9038   20.1436 C   0  0  0  0  0  0  0  0  0  0  0  0
   16.3439  -18.1776   20.7825 C   0  0  0  0  0  0  0  0  0  0  0  0
   16.4183  -18.0807   22.0416 O   0  0  0  0  0  0  0  0  0  0  0  0
   11.7759  -16.5159   21.3790 C   0  0  0  0  0  0  0  0  0  0  0  0
   12.2065  -15.3587   21.6598 O   0  0  0  0  0  0  0  0  0  0  0  0
   17.4252  -18.5256   20.0028 O   0  0  0  0  0  0  0  0  0  0  0  0
   10.5562  -16.9530   21.9510 N   0  0  0  0  0  0  0  0  0  0  0  0
    9.7826  -16.0495   22.7782 C   0  0  1  0  0  0  0  0  0  0  0  0
    8.3002  -16.3858   22.5577 C   0  0  0  0  0  0  0  0  0  0  0  0
    7.9301  -15.8968   21.2159 C   0  0  0  0  0  0  0  0  0  0  0  0
    8.1436  -14.6271   20.7462 C   0  0  0  0  0  0  0  0  0  0  0  0
    7.6642  -14.6051   19.4918 N   0  0  0  0  0  0  0  0  0  0  0  0
    7.1673  -15.8020   19.1713 C   0  0  0  0  0  0  0  0  0  0  0  0
    7.3372  -16.5992   20.2507 N   0  0  0  0  0  0  0  0  0  0  0  0
   10.0469  -16.2289   24.2236 C   0  0  0  0  0  0  0  0  0  0  0  0
   10.7348  -17.2706   24.5087 O   0  0  0  0  0  0  0  0  0  0  0  0
    9.2263  -13.0377   29.5315 C   0  0  0  0  0  0  0  0  0  0  0  0
    9.7449  -14.2115   28.8117 C   0  0  2  0  0  0  0  0  0  0  0  0
   11.2316  -14.3460   29.2018 C   0  0  0  0  0  0  0  0  0  0  0  0
    9.5898  -14.3801   27.3843 C   0  0  0  0  0  0  0  0  0  0  0  0
    9.9305  -15.5768   26.6247 C   0  0  2  0  0  0  0  0  0  0  0  0
    9.5884  -15.3382   25.2175 N   0  0  0  0  0  0  0  0  0  0  0  0
    9.3994  -16.8780   26.9733 C   0  0  0  0  0  0  0  0  0  0  0  0
   10.0138  -17.6974   27.7046 O   0  0  0  0  0  0  0  0  0  0  0  0
    8.1717  -17.3649   26.5510 O   0  0  0  0  0  0  0  0  0  0  0  0
  2  1  1  6
  2  7  1  0
  2  3  1  0
  3  4  1  0
  4  5  1  0
  5  9  1  0
  5  6  2  0
  7  8  2  0
 10  7  1  0
 11 10  1  0
 12 13  1  0
 11 12  1  1
 13 17  1  0
 14 13  2  0
 14 15  1  0
 15 16  1  0
 17 16  2  0
 18 11  1  0
 19 18  2  0
 21 20  1  6
 22 21  1  0
 23 21  1  0
 24 23  1  1
 24 25  1  0
 25 18  1  0
 26 24  1  0
 27 26  2  0
 28 26  1  0
M  END
$$$$
