EHL.pdb
     RDKit          3D

 28 28  0  0  1  0  0  0  0  0999 V2000
    9.7818  -16.4173   19.0141 N   0  0  0  0  0  0  0  0  0  0  0  0
    8.4250  -15.9487   19.2782 C   0  0  1  0  0  0  0  0  0  0  0  0
    7.5256  -16.7568   18.3752 C   0  0  0  0  0  0  0  0  0  0  0  0
    8.2078  -17.4101   17.2205 C   0  0  0  0  0  0  0  0  0  0  0  0
    7.3155  -18.1707   16.3289 C   0  0  0  0  0  0  0  0  0  0  0  0
    6.9577  -17.6283   15.2435 O   0  0  0  0  0  0  0  0  0  0  0  0
    8.0306  -16.2278   20.6814 C   0  0  0  0  0  0  0  0  0  0  0  0
    6.8588  -15.8985   21.0301 O   0  0  0  0  0  0  0  0  0  0  0  0
    6.9010  -19.4320   16.6968 O   0  0  0  0  0  0  0  0  0  0  0  0
    8.8862  -16.8344   21.6332 N   0  0  0  0  0  0  0  0  0  0  0  0
    8.4160  -17.0612   22.9847 C   0  0  1  0  0  0  0  0  0  0  0  0
    9.2028  -18.2546   23.5470 C   0  0  0  0  0  0  0  0  0  0  0  0
    8.5290  -19.4845   23.0889 C   0  0  0  0  0  0  0  0  0  0  0  0
    7.3746  -19.5304   22.3517 C   0  0  0  0  0  0  0  0  0  0  0  0
    7.1093  -20.8315   22.1499 N   0  0  0  0  0  0  0  0  0  0  0  0
    8.0474  -21.5845   22.7289 C   0  0  0  0  0  0  0  0  0  0  0  0
    8.9265  -20.7371   23.3109 N   0  0  0  0  0  0  0  0  0  0  0  0
    8.6842  -15.9160   23.8836 C   0  0  0  0  0  0  0  0  0  0  0  0
    9.8075  -15.3365   23.6789 O   0  0  0  0  0  0  0  0  0  0  0  0
    5.5289  -11.6313   26.8837 C   0  0  0  0  0  0  0  0  0  0  0  0
    6.8249  -12.2555   26.5746 C   0  0  2  0  0  0  0  0  0  0  0  0
    7.7082  -11.1529   25.9544 C   0  0  0  0  0  0  0  0  0  0  0  0
    6.9380  -13.4732   25.8035 C   0  0  0  0  0  0  0  0  0  0  0  0
    8.1243  -14.3152   25.7078 C   0  0  2  0  0  0  0  0  0  0  0  0
    7.7899  -15.4847   24.8865 N   0  0  0  0  0  0  0  0  0  0  0  0
    8.8064  -14.8080   26.8861 C   0  0  0  0  0  0  0  0  0  0  0  0
    9.6437  -14.1250   27.5314 O   0  0  0  0  0  0  0  0  0  0  0  0
    8.6194  -16.0681   27.4334 O   0  0  0  0  0  0  0  0  0  0  0  0
  2  1  1  1
  2  7  1  0
  2  3  1  0
  3  4  1  0
  4  5  1  0
  5  9  1  0
  5  6  2  0
  7  8  2  0
 10  7  1  0
 11 10  1  0
 12 13  1  0
 11 12  1  1
 13 17  1  0
 14 13  2  0
 14 15  1  0
 15 16  1  0
 17 16  2  0
 18 11  1  0
 19 18  2  0
 21 20  1  6
 22 21  1  0
 23 21  1  0
 24 23  1  1
 24 25  1  0
 25 18  1  0
 26 24  1  0
 27 26  2  0
 28 26  1  0
M  END
$$$$
