EHL.pdb
     RDKit          3D

 28 28  0  0  1  0  0  0  0  0999 V2000
    9.1860  -19.3750   19.3908 N   0  0  0  0  0  0  0  0  0  0  0  0
    9.8595  -19.1208   20.6605 C   0  0  1  0  0  0  0  0  0  0  0  0
   10.8725  -18.0374   20.3812 C   0  0  0  0  0  0  0  0  0  0  0  0
   12.2119  -18.5210   19.9365 C   0  0  0  0  0  0  0  0  0  0  0  0
   13.1948  -17.4556   19.6753 C   0  0  0  0  0  0  0  0  0  0  0  0
   13.9868  -17.1366   20.6087 O   0  0  0  0  0  0  0  0  0  0  0  0
    8.9063  -18.6025   21.6728 C   0  0  0  0  0  0  0  0  0  0  0  0
    7.9946  -17.8241   21.2649 O   0  0  0  0  0  0  0  0  0  0  0  0
   13.2232  -16.8447   18.4407 O   0  0  0  0  0  0  0  0  0  0  0  0
    8.9651  -18.9304   23.0493 N   0  0  0  0  0  0  0  0  0  0  0  0
    7.9701  -18.4017   23.9601 C   0  0  1  0  0  0  0  0  0  0  0  0
    7.7619  -19.4478   25.0654 C   0  0  0  0  0  0  0  0  0  0  0  0
    6.7562  -20.4115   24.5792 C   0  0  0  0  0  0  0  0  0  0  0  0
    6.1124  -20.3463   23.3711 C   0  0  0  0  0  0  0  0  0  0  0  0
    5.2897  -21.4070   23.3262 N   0  0  0  0  0  0  0  0  0  0  0  0
    5.3996  -22.1186   24.4503 C   0  0  0  0  0  0  0  0  0  0  0  0
    6.3146  -21.4911   25.2240 N   0  0  0  0  0  0  0  0  0  0  0  0
    8.4120  -17.1586   24.6315 C   0  0  0  0  0  0  0  0  0  0  0  0
    9.6830  -17.0263   24.7129 O   0  0  0  0  0  0  0  0  0  0  0  0
    6.3063  -12.1169   27.2918 C   0  0  0  0  0  0  0  0  0  0  0  0
    7.1511  -12.5855   26.1821 C   0  0  2  0  0  0  0  0  0  0  0  0
    7.0127  -11.5435   25.0527 C   0  0  0  0  0  0  0  0  0  0  0  0
    7.0514  -13.9215   25.6387 C   0  0  0  0  0  0  0  0  0  0  0  0
    8.0528  -14.9728   25.7704 C   0  0  2  0  0  0  0  0  0  0  0  0
    7.5230  -16.1900   25.1444 N   0  0  0  0  0  0  0  0  0  0  0  0
    8.5873  -15.3594   27.0593 C   0  0  0  0  0  0  0  0  0  0  0  0
    8.0779  -16.2634   27.7713 O   0  0  0  0  0  0  0  0  0  0  0  0
    9.7052  -14.7898   27.6497 O   0  0  0  0  0  0  0  0  0  0  0  0
  2  1  1  6
  2  7  1  0
  2  3  1  0
  3  4  1  0
  4  5  1  0
  5  9  1  0
  5  6  2  0
  7  8  2  0
 10  7  1  0
 11 10  1  0
 12 13  1  0
 11 12  1  1
 13 17  1  0
 14 13  2  0
 14 15  1  0
 15 16  1  0
 17 16  2  0
 18 11  1  0
 19 18  2  0
 21 20  1  1
 22 21  1  0
 23 21  1  0
 24 23  1  1
 24 25  1  0
 25 18  1  0
 26 24  1  0
 27 26  2  0
 28 26  1  0
M  END
$$$$
