EHL.pdb
     RDKit          3D

 28 28  0  0  1  0  0  0  0  0999 V2000
    9.8277  -17.2173   19.1901 N   0  0  0  0  0  0  0  0  0  0  0  0
    8.8093  -16.1749   19.2730 C   0  0  1  0  0  0  0  0  0  0  0  0
    7.7671  -16.5326   18.2417 C   0  0  0  0  0  0  0  0  0  0  0  0
    8.0688  -17.7474   17.4300 C   0  0  0  0  0  0  0  0  0  0  0  0
    7.0357  -18.0981   16.4404 C   0  0  0  0  0  0  0  0  0  0  0  0
    6.0141  -18.7246   16.8454 O   0  0  0  0  0  0  0  0  0  0  0  0
    8.1528  -16.1787   20.6038 C   0  0  0  0  0  0  0  0  0  0  0  0
    7.2647  -15.3009   20.8140 O   0  0  0  0  0  0  0  0  0  0  0  0
    7.2087  -17.7404   15.1212 O   0  0  0  0  0  0  0  0  0  0  0  0
    8.4654  -17.1005   21.6326 N   0  0  0  0  0  0  0  0  0  0  0  0
    7.9000  -16.9248   22.9550 C   0  0  1  0  0  0  0  0  0  0  0  0
    7.7344  -18.3228   23.5695 C   0  0  0  0  0  0  0  0  0  0  0  0
    6.7716  -19.0633   22.7320 C   0  0  0  0  0  0  0  0  0  0  0  0
    5.6082  -18.5526   22.2184 C   0  0  0  0  0  0  0  0  0  0  0  0
    5.0365  -19.5482   21.5213 N   0  0  0  0  0  0  0  0  0  0  0  0
    5.7955  -20.6446   21.5840 C   0  0  0  0  0  0  0  0  0  0  0  0
    6.8731  -20.3331   22.3398 N   0  0  0  0  0  0  0  0  0  0  0  0
    8.7906  -16.1665   23.8621 C   0  0  0  0  0  0  0  0  0  0  0  0
    9.6191  -15.3946   23.2642 O   0  0  0  0  0  0  0  0  0  0  0  0
    8.2373  -12.1999   27.1594 C   0  0  0  0  0  0  0  0  0  0  0  0
    7.4960  -12.8033   26.0409 C   0  0  2  0  0  0  0  0  0  0  0  0
    5.9978  -12.5792   26.3336 C   0  0  0  0  0  0  0  0  0  0  0  0
    7.7176  -14.1635   25.6041 C   0  0  0  0  0  0  0  0  0  0  0  0
    8.7615  -15.0566   26.0917 C   0  0  2  0  0  0  0  0  0  0  0  0
    8.7452  -16.2717   25.2686 N   0  0  0  0  0  0  0  0  0  0  0  0
    8.8147  -15.4840   27.4741 C   0  0  0  0  0  0  0  0  0  0  0  0
    8.1077  -16.4190   27.9320 O   0  0  0  0  0  0  0  0  0  0  0  0
    9.6382  -14.9240   28.4390 O   0  0  0  0  0  0  0  0  0  0  0  0
  2  1  1  1
  2  7  1  0
  2  3  1  0
  3  4  1  0
  4  5  1  0
  5  9  1  0
  5  6  2  0
  7  8  2  0
 10  7  1  0
 11 10  1  0
 12 13  1  0
 11 12  1  1
 13 17  1  0
 14 13  2  0
 14 15  1  0
 15 16  1  0
 17 16  2  0
 18 11  1  0
 19 18  2  0
 21 20  1  1
 22 21  1  0
 23 21  1  0
 24 23  1  1
 24 25  1  0
 25 18  1  0
 26 24  1  0
 27 26  2  0
 28 26  1  0
M  END
$$$$
