EHL.pdb
     RDKit          3D

 28 28  0  0  1  0  0  0  0  0999 V2000
    9.7341  -18.9655   21.4832 N   0  0  0  0  0  0  0  0  0  0  0  0
   10.9192  -18.1185   21.5762 C   0  0  1  0  0  0  0  0  0  0  0  0
   11.5316  -18.1119   20.1969 C   0  0  0  0  0  0  0  0  0  0  0  0
   10.5607  -18.2385   19.0713 C   0  0  0  0  0  0  0  0  0  0  0  0
   11.1760  -18.4301   17.7469 C   0  0  0  0  0  0  0  0  0  0  0  0
   12.4381  -18.4861   17.6810 O   0  0  0  0  0  0  0  0  0  0  0  0
   10.5485  -16.7224   21.9163 C   0  0  0  0  0  0  0  0  0  0  0  0
   11.4927  -15.8907   22.0585 O   0  0  0  0  0  0  0  0  0  0  0  0
   10.3722  -18.5403   16.6334 O   0  0  0  0  0  0  0  0  0  0  0  0
    9.2132  -16.2821   22.0864 N   0  0  0  0  0  0  0  0  0  0  0  0
    8.9425  -14.8825   22.3452 C   0  0  1  0  0  0  0  0  0  0  0  0
    7.5573  -14.5702   21.7595 C   0  0  0  0  0  0  0  0  0  0  0  0
    7.7513  -14.1721   20.3522 C   0  0  0  0  0  0  0  0  0  0  0  0
    8.9601  -14.0704   19.7146 C   0  0  0  0  0  0  0  0  0  0  0  0
    8.6901  -13.6857   18.4565 N   0  0  0  0  0  0  0  0  0  0  0  0
    7.3723  -13.5471   18.2937 C   0  0  0  0  0  0  0  0  0  0  0  0
    6.7964  -13.8518   19.4791 N   0  0  0  0  0  0  0  0  0  0  0  0
    8.8709  -14.5713   23.7906 C   0  0  0  0  0  0  0  0  0  0  0  0
    8.6788  -13.3331   24.0547 O   0  0  0  0  0  0  0  0  0  0  0  0
    7.8575  -12.1054   27.0625 C   0  0  0  0  0  0  0  0  0  0  0  0
    7.2231  -13.1518   26.2457 C   0  0  2  0  0  0  0  0  0  0  0  0
    5.6993  -12.9425   26.3676 C   0  0  0  0  0  0  0  0  0  0  0  0
    7.5439  -14.5539   26.3910 C   0  0  0  0  0  0  0  0  0  0  0  0
    8.8623  -15.1502   26.2132 C   0  0  2  0  0  0  0  0  0  0  0  0
    9.0005  -15.5429   24.8058 N   0  0  0  0  0  0  0  0  0  0  0  0
    9.3041  -16.2750   27.0107 C   0  0  0  0  0  0  0  0  0  0  0  0
    9.3528  -16.2490   28.2680 O   0  0  0  0  0  0  0  0  0  0  0  0
    9.7168  -17.4928   26.4917 O   0  0  0  0  0  0  0  0  0  0  0  0
  2  1  1  6
  2  7  1  0
  2  3  1  0
  3  4  1  0
  4  5  1  0
  5  9  1  0
  5  6  2  0
  7  8  2  0
 10  7  1  0
 11 10  1  0
 12 13  1  0
 11 12  1  6
 13 17  1  0
 14 13  2  0
 14 15  1  0
 15 16  1  0
 17 16  2  0
 18 11  1  0
 19 18  2  0
 21 20  1  1
 22 21  1  0
 23 21  1  0
 24 23  1  1
 24 25  1  0
 25 18  1  0
 26 24  1  0
 27 26  2  0
 28 26  1  0
M  END
$$$$
