EHL.pdb
     RDKit          3D

 28 28  0  0  1  0  0  0  0  0999 V2000
    8.9677  -16.4048   18.3972 N   0  0  0  0  0  0  0  0  0  0  0  0
    9.9762  -16.8319   19.3620 C   0  0  1  0  0  0  0  0  0  0  0  0
   11.0383  -15.7598   19.3515 C   0  0  0  0  0  0  0  0  0  0  0  0
   10.5254  -14.3589   19.3597 C   0  0  0  0  0  0  0  0  0  0  0  0
   11.5637  -13.3230   19.2252 C   0  0  0  0  0  0  0  0  0  0  0  0
   11.1927  -12.1152   19.1612 O   0  0  0  0  0  0  0  0  0  0  0  0
    9.4076  -16.8958   20.7312 C   0  0  0  0  0  0  0  0  0  0  0  0
    8.3032  -16.3084   20.9278 O   0  0  0  0  0  0  0  0  0  0  0  0
   12.8899  -13.6925   19.1726 O   0  0  0  0  0  0  0  0  0  0  0  0
   10.0290  -17.5704   21.8104 N   0  0  0  0  0  0  0  0  0  0  0  0
    9.3241  -17.7244   23.0669 C   0  0  1  0  0  0  0  0  0  0  0  0
   10.0201  -18.8511   23.8450 C   0  0  0  0  0  0  0  0  0  0  0  0
    9.6303  -20.1284   23.2180 C   0  0  0  0  0  0  0  0  0  0  0  0
    8.3453  -20.5811   23.0694 C   0  0  0  0  0  0  0  0  0  0  0  0
    8.4352  -21.7713   22.4535 N   0  0  0  0  0  0  0  0  0  0  0  0
    9.7152  -22.0686   22.2179 C   0  0  0  0  0  0  0  0  0  0  0  0
   10.4514  -21.0402   22.6973 N   0  0  0  0  0  0  0  0  0  0  0  0
    9.3983  -16.5146   23.9166 C   0  0  0  0  0  0  0  0  0  0  0  0
   10.5099  -15.8835   23.8400 O   0  0  0  0  0  0  0  0  0  0  0  0
    5.4706  -12.7211   26.7961 C   0  0  0  0  0  0  0  0  0  0  0  0
    6.8455  -13.0283   26.3718 C   0  0  2  0  0  0  0  0  0  0  0  0
    7.3889  -11.7578   25.6856 C   0  0  0  0  0  0  0  0  0  0  0  0
    7.1746  -14.1958   25.5852 C   0  0  0  0  0  0  0  0  0  0  0  0
    8.4844  -14.8314   25.5089 C   0  0  2  0  0  0  0  0  0  0  0  0
    8.3441  -16.0779   24.7469 N   0  0  0  0  0  0  0  0  0  0  0  0
    9.2490  -15.1470   26.6973 C   0  0  0  0  0  0  0  0  0  0  0  0
    9.8819  -14.2821   27.3570 O   0  0  0  0  0  0  0  0  0  0  0  0
    9.3701  -16.4173   27.2399 O   0  0  0  0  0  0  0  0  0  0  0  0
  2  1  1  6
  2  7  1  0
  2  3  1  0
  3  4  1  0
  4  5  1  0
  5  9  1  0
  5  6  2  0
  7  8  2  0
 10  7  1  0
 11 10  1  0
 12 13  1  0
 11 12  1  1
 13 17  1  0
 14 13  2  0
 14 15  1  0
 15 16  1  0
 17 16  2  0
 18 11  1  0
 19 18  2  0
 21 20  1  6
 22 21  1  0
 23 21  1  0
 24 23  1  1
 24 25  1  0
 25 18  1  0
 26 24  1  0
 27 26  2  0
 28 26  1  0
M  END
$$$$
