EHL.pdb
     RDKit          3D

 28 28  0  0  1  0  0  0  0  0999 V2000
    8.4105  -19.1043   14.7855 N   0  0  0  0  0  0  0  0  0  0  0  0
    9.6360  -18.5781   15.3786 C   0  0  1  0  0  0  0  0  0  0  0  0
    9.8165  -17.1971   14.7974 C   0  0  0  0  0  0  0  0  0  0  0  0
    8.6597  -16.2739   14.9849 C   0  0  0  0  0  0  0  0  0  0  0  0
    8.8923  -14.8947   14.5233 C   0  0  0  0  0  0  0  0  0  0  0  0
    9.9745  -14.6461   13.9172 O   0  0  0  0  0  0  0  0  0  0  0  0
    9.4965  -18.4382   16.8494 C   0  0  0  0  0  0  0  0  0  0  0  0
    8.3424  -18.1756   17.2993 O   0  0  0  0  0  0  0  0  0  0  0  0
    7.9398  -13.9283   14.7618 O   0  0  0  0  0  0  0  0  0  0  0  0
   10.5726  -18.5818   17.7589 N   0  0  0  0  0  0  0  0  0  0  0  0
   10.3151  -18.5969   19.1846 C   0  0  1  0  0  0  0  0  0  0  0  0
   11.4671  -19.3666   19.8479 C   0  0  0  0  0  0  0  0  0  0  0  0
   11.1306  -19.5230   21.2758 C   0  0  0  0  0  0  0  0  0  0  0  0
   11.9648  -19.2361   22.3246 C   0  0  0  0  0  0  0  0  0  0  0  0
   11.2733  -19.5153   23.4417 N   0  0  0  0  0  0  0  0  0  0  0  0
   10.0547  -19.9597   23.1259 C   0  0  0  0  0  0  0  0  0  0  0  0
    9.9753  -19.9611   21.7757 N   0  0  0  0  0  0  0  0  0  0  0  0
   10.3134  -17.2417   19.7801 C   0  0  0  0  0  0  0  0  0  0  0  0
   11.2019  -16.4538   19.3011 O   0  0  0  0  0  0  0  0  0  0  0  0
    8.4175  -13.2134   19.1587 C   0  0  0  0  0  0  0  0  0  0  0  0
    7.7039  -14.2757   19.8847 C   0  0  2  0  0  0  0  0  0  0  0  0
    6.2500  -13.7899   20.0593 C   0  0  0  0  0  0  0  0  0  0  0  0
    8.1925  -14.8335   21.1258 C   0  0  0  0  0  0  0  0  0  0  0  0
    9.4898  -15.4686   21.3234 C   0  0  2  0  0  0  0  0  0  0  0  0
    9.4163  -16.8341   20.7904 N   0  0  0  0  0  0  0  0  0  0  0  0
   10.1031  -15.5586   22.6319 C   0  0  0  0  0  0  0  0  0  0  0  0
   10.5488  -14.5583   23.2521 O   0  0  0  0  0  0  0  0  0  0  0  0
   10.2672  -16.7370   23.3438 O   0  0  0  0  0  0  0  0  0  0  0  0
  2  1  1  6
  2  7  1  0
  2  3  1  0
  3  4  1  0
  4  5  1  0
  5  9  1  0
  5  6  2  0
  7  8  2  0
 10  7  1  0
 11 10  1  0
 12 13  1  0
 11 12  1  1
 13 17  1  0
 14 13  2  0
 14 15  1  0
 15 16  1  0
 17 16  2  0
 18 11  1  0
 19 18  2  0
 21 20  1  1
 22 21  1  0
 23 21  1  0
 24 23  1  1
 24 25  1  0
 25 18  1  0
 26 24  1  0
 27 26  2  0
 28 26  1  0
M  END
$$$$
