EHL.pdb
     RDKit          3D

 28 28  0  0  1  0  0  0  0  0999 V2000
    9.8589  -18.9233   20.5020 N   0  0  0  0  0  0  0  0  0  0  0  0
   10.9814  -18.0616   20.8593 C   0  0  1  0  0  0  0  0  0  0  0  0
   11.6850  -17.7408   19.5633 C   0  0  0  0  0  0  0  0  0  0  0  0
   11.6750  -18.8345   18.5487 C   0  0  0  0  0  0  0  0  0  0  0  0
   12.5484  -18.6025   17.3856 C   0  0  0  0  0  0  0  0  0  0  0  0
   13.2808  -17.5710   17.3894 O   0  0  0  0  0  0  0  0  0  0  0  0
   10.5048  -16.7848   21.4465 C   0  0  0  0  0  0  0  0  0  0  0  0
   11.3848  -15.9688   21.8504 O   0  0  0  0  0  0  0  0  0  0  0  0
   12.5428  -19.5011   16.3413 O   0  0  0  0  0  0  0  0  0  0  0  0
    9.1371  -16.4400   21.5749 N   0  0  0  0  0  0  0  0  0  0  0  0
    8.7647  -15.1839   22.1934 C   0  0  1  0  0  0  0  0  0  0  0  0
    7.4707  -14.7082   21.5162 C   0  0  0  0  0  0  0  0  0  0  0  0
    7.8307  -14.2075   20.1759 C   0  0  0  0  0  0  0  0  0  0  0  0
    9.0979  -14.1708   19.6555 C   0  0  0  0  0  0  0  0  0  0  0  0
    8.9827  -13.6503   18.4227 N   0  0  0  0  0  0  0  0  0  0  0  0
    7.7042  -13.3666   18.1639 C   0  0  0  0  0  0  0  0  0  0  0  0
    6.9948  -13.7167   19.2611 N   0  0  0  0  0  0  0  0  0  0  0  0
    8.4611  -15.3239   23.6354 C   0  0  0  0  0  0  0  0  0  0  0  0
    7.7121  -16.3221   23.9223 O   0  0  0  0  0  0  0  0  0  0  0  0
    7.5240  -11.7634   27.2236 C   0  0  0  0  0  0  0  0  0  0  0  0
    6.8951  -12.7010   26.2800 C   0  0  2  0  0  0  0  0  0  0  0  0
    5.3700  -12.5358   26.4456 C   0  0  0  0  0  0  0  0  0  0  0  0
    7.2392  -14.1044   26.2316 C   0  0  0  0  0  0  0  0  0  0  0  0
    8.5767  -14.6481   26.0300 C   0  0  2  0  0  0  0  0  0  0  0  0
    8.9469  -14.4426   24.6247 N   0  0  0  0  0  0  0  0  0  0  0  0
    8.8979  -16.0222   26.3544 C   0  0  0  0  0  0  0  0  0  0  0  0
    8.4765  -17.0024   25.6869 O   0  0  0  0  0  0  0  0  0  0  0  0
    9.6954  -16.4128   27.4194 O   0  0  0  0  0  0  0  0  0  0  0  0
  2  1  1  6
  2  7  1  0
  2  3  1  0
  3  4  1  0
  4  5  1  0
  5  9  1  0
  5  6  2  0
  7  8  2  0
 10  7  1  0
 11 10  1  0
 12 13  1  0
 11 12  1  6
 13 17  1  0
 14 13  2  0
 14 15  1  0
 15 16  1  0
 17 16  2  0
 18 11  1  0
 19 18  2  0
 21 20  1  1
 22 21  1  0
 23 21  1  0
 24 23  1  6
 24 25  1  0
 25 18  1  0
 26 24  1  0
 27 26  2  0
 28 26  1  0
M  END
$$$$
