EHL.pdb
     RDKit          3D

 28 28  0  0  1  0  0  0  0  0999 V2000
   10.7730  -17.1597   19.5600 N   0  0  0  0  0  0  0  0  0  0  0  0
    9.5849  -16.3260   19.4052 C   0  0  1  0  0  0  0  0  0  0  0  0
    8.7899  -16.9442   18.2812 C   0  0  0  0  0  0  0  0  0  0  0  0
    9.2687  -16.6114   16.9080 C   0  0  0  0  0  0  0  0  0  0  0  0
    8.5530  -17.3035   15.8225 C   0  0  0  0  0  0  0  0  0  0  0  0
    7.3892  -16.9036   15.5294 O   0  0  0  0  0  0  0  0  0  0  0  0
    8.7470  -16.3633   20.6294 C   0  0  0  0  0  0  0  0  0  0  0  0
    7.7054  -15.6433   20.6406 O   0  0  0  0  0  0  0  0  0  0  0  0
    9.1613  -18.3517   15.1672 O   0  0  0  0  0  0  0  0  0  0  0  0
    9.0500  -17.1516   21.7664 N   0  0  0  0  0  0  0  0  0  0  0  0
    8.1772  -17.1160   22.9223 C   0  0  1  0  0  0  0  0  0  0  0  0
    8.0233  -18.5602   23.4222 C   0  0  0  0  0  0  0  0  0  0  0  0
    7.0050  -19.2145   22.5786 C   0  0  0  0  0  0  0  0  0  0  0  0
    7.2517  -19.8737   21.4027 C   0  0  0  0  0  0  0  0  0  0  0  0
    6.0622  -20.3168   20.9638 N   0  0  0  0  0  0  0  0  0  0  0  0
    5.0986  -19.9597   21.8160 C   0  0  0  0  0  0  0  0  0  0  0  0
    5.6951  -19.2740   22.8177 N   0  0  0  0  0  0  0  0  0  0  0  0
    8.7466  -16.3377   24.0454 C   0  0  0  0  0  0  0  0  0  0  0  0
   10.0244  -16.2559   24.0362 O   0  0  0  0  0  0  0  0  0  0  0  0
    7.8604  -11.8378   25.1919 C   0  0  0  0  0  0  0  0  0  0  0  0
    7.0679  -12.9111   25.8124 C   0  0  2  0  0  0  0  0  0  0  0  0
    5.9455  -12.2217   26.6157 C   0  0  0  0  0  0  0  0  0  0  0  0
    7.6670  -13.9641   26.6013 C   0  0  0  0  0  0  0  0  0  0  0  0
    8.6152  -14.9594   26.1159 C   0  0  2  0  0  0  0  0  0  0  0  0
    7.9638  -15.7301   25.0502 N   0  0  0  0  0  0  0  0  0  0  0  0
    9.2400  -15.9150   27.0063 C   0  0  0  0  0  0  0  0  0  0  0  0
   10.1013  -15.5925   27.8655 O   0  0  0  0  0  0  0  0  0  0  0  0
    8.9663  -17.2743   27.0180 O   0  0  0  0  0  0  0  0  0  0  0  0
  2  1  1  1
  2  7  1  0
  2  3  1  0
  3  4  1  0
  4  5  1  0
  5  9  1  0
  5  6  2  0
  7  8  2  0
 10  7  1  0
 11 10  1  0
 12 13  1  0
 11 12  1  1
 13 17  1  0
 14 13  2  0
 14 15  1  0
 15 16  1  0
 17 16  2  0
 18 11  1  0
 19 18  2  0
 21 20  1  1
 22 21  1  0
 23 21  1  0
 24 23  1  1
 24 25  1  0
 25 18  1  0
 26 24  1  0
 27 26  2  0
 28 26  1  0
M  END
$$$$
