EHL.pdb
     RDKit          3D

 28 28  0  0  1  0  0  0  0  0999 V2000
   14.7096  -18.8845   16.9062 N   0  0  0  0  0  0  0  0  0  0  0  0
   15.0288  -20.0493   17.7258 C   0  0  1  0  0  0  0  0  0  0  0  0
   16.3940  -19.7814   18.3107 C   0  0  0  0  0  0  0  0  0  0  0  0
   17.5281  -19.8840   17.3470 C   0  0  0  0  0  0  0  0  0  0  0  0
   18.8632  -19.7302   17.9498 C   0  0  0  0  0  0  0  0  0  0  0  0
   19.7265  -20.6251   17.7169 O   0  0  0  0  0  0  0  0  0  0  0  0
   14.0705  -20.1858   18.8506 C   0  0  0  0  0  0  0  0  0  0  0  0
   13.3218  -19.1948   19.0971 O   0  0  0  0  0  0  0  0  0  0  0  0
   19.1304  -18.6331   18.7392 O   0  0  0  0  0  0  0  0  0  0  0  0
   13.9542  -21.3504   19.6481 N   0  0  0  0  0  0  0  0  0  0  0  0
   12.9266  -21.4278   20.6665 C   0  0  1  0  0  0  0  0  0  0  0  0
   12.8537  -22.8902   21.1305 C   0  0  0  0  0  0  0  0  0  0  0  0
   11.6485  -23.0287   21.9701 C   0  0  0  0  0  0  0  0  0  0  0  0
   10.7692  -22.0212   22.2702 C   0  0  0  0  0  0  0  0  0  0  0  0
    9.8229  -22.5685   23.0504 N   0  0  0  0  0  0  0  0  0  0  0  0
   10.0815  -23.8641   23.2421 C   0  0  0  0  0  0  0  0  0  0  0  0
   11.2197  -24.1412   22.5659 N   0  0  0  0  0  0  0  0  0  0  0  0
   13.2461  -20.6190   21.8644 C   0  0  0  0  0  0  0  0  0  0  0  0
   14.4959  -20.5444   22.1325 O   0  0  0  0  0  0  0  0  0  0  0  0
   12.5420  -16.2721   21.9460 C   0  0  0  0  0  0  0  0  0  0  0  0
   11.4992  -17.0653   22.6155 C   0  0  2  0  0  0  0  0  0  0  0  0
   10.3614  -16.0859   22.9715 C   0  0  0  0  0  0  0  0  0  0  0  0
   11.7803  -17.9285   23.7406 C   0  0  0  0  0  0  0  0  0  0  0  0
   12.6852  -19.0714   23.7337 C   0  0  2  0  0  0  0  0  0  0  0  0
   12.2700  -19.9770   22.6559 N   0  0  0  0  0  0  0  0  0  0  0  0
   12.8937  -19.8859   24.9125 C   0  0  0  0  0  0  0  0  0  0  0  0
   13.5430  -19.4900   25.9153 O   0  0  0  0  0  0  0  0  0  0  0  0
   12.4092  -21.1751   25.0731 O   0  0  0  0  0  0  0  0  0  0  0  0
  2  1  1  6
  2  7  1  0
  2  3  1  0
  3  4  1  0
  4  5  1  0
  5  9  1  0
  5  6  2  0
  7  8  2  0
 10  7  1  0
 11 10  1  0
 12 13  1  0
 11 12  1  1
 13 17  1  0
 14 13  2  0
 14 15  1  0
 15 16  1  0
 17 16  2  0
 18 11  1  0
 19 18  2  0
 21 20  1  1
 22 21  1  0
 23 21  1  0
 24 23  1  1
 24 25  1  0
 25 18  1  0
 26 24  1  0
 27 26  2  0
 28 26  1  0
M  END
$$$$
