TRT.pdb
     RDKit          3D

 26 25  0  0  1  0  0  0  0  0999 V2000
    8.4217  -12.2413   20.5749 C   0  0  0  0  0  0  0  0  0  0  0  0
    7.8033  -13.2225   19.5907 C   0  0  1  0  0  0  0  0  0  0  0  0
    7.8897  -12.6806   18.3317 O   0  0  0  0  0  0  0  0  0  0  0  0
    8.4446  -14.5903   19.7161 C   0  0  2  0  0  0  0  0  0  0  0  0
    7.8085  -15.4618   18.7431 N   0  0  0  0  0  0  0  0  0  0  0  0
    8.2868  -15.1602   21.0722 C   0  0  0  0  0  0  0  0  0  0  0  0
    7.1449  -15.5228   21.4613 O   0  0  0  0  0  0  0  0  0  0  0  0
   11.9710  -19.0818   20.1529 N   0  0  0  0  0  0  0  0  0  0  0  0
   11.4854  -20.2440   20.8536 C   0  0  0  0  0  0  0  0  0  0  0  0
   11.3230  -21.3479   20.2413 N   0  0  0  0  0  0  0  0  0  0  0  0
   11.1720  -20.2035   22.2369 N   0  0  0  0  0  0  0  0  0  0  0  0
   11.2799  -18.9874   22.9547 C   0  0  0  0  0  0  0  0  0  0  0  0
   10.2321  -17.9701   22.6768 C   0  0  0  0  0  0  0  0  0  0  0  0
   10.2455  -16.8250   23.6710 C   0  0  0  0  0  0  0  0  0  0  0  0
    9.1965  -15.7739   23.2813 C   0  0  2  0  0  0  0  0  0  0  0  0
    9.3992  -15.3072   21.9457 N   0  0  0  0  0  0  0  0  0  0  0  0
    9.2275  -14.6761   24.2953 C   0  0  0  0  0  0  0  0  0  0  0  0
   10.1764  -13.8617   24.2189 O   0  0  0  0  0  0  0  0  0  0  0  0
   11.0096  -22.2467   20.6124 C   0  0  0  0  0  0  0  0  0  0  0  0
    6.6778  -11.8981   25.2158 C   0  0  2  0  0  0  0  0  0  0  0  0
    6.9202  -12.8057   26.4104 O   0  0  0  0  0  0  0  0  0  0  0  0
    5.9006  -13.7508   26.4520 C   0  0  2  0  0  0  0  0  0  0  0  0
    8.2619  -13.4954   26.2939 N   0  0  0  0  0  0  0  0  0  0  0  0
    8.2490  -14.5393   25.3002 C   0  0  0  0  0  0  0  0  0  0  0  0
    8.5881  -14.0797   27.6172 O   0  0  0  0  0  0  0  0  0  0  0  0
    8.7328  -13.3301   28.7679 O   0  0  0  0  0  0  0  0  0  0  0  0
  2  4  1  0
  2  1  1  1
  3  2  1  0
  4  6  1  0
  4  5  1  6
  6  7  2  0
  9 11  1  0
  9  8  1  0
 10  9  2  0
 12 13  1  0
 12 11  1  0
 13 14  1  0
 15 14  1  1
 16 15  1  0
 16  6  1  0
 17 15  1  0
 17 18  2  0
 20 19  1  1
 20 22  1  0
 21 20  1  0
 22 23  1  1
 22 24  1  0
 23 17  1  0
 24 26  2  0
 24 25  1  0
M  END
$$$$
