TRT.pdb
     RDKit          3D

 26 25  0  0  1  0  0  0  0  0999 V2000
    8.3850  -12.5180   19.1761 C   0  0  0  0  0  0  0  0  0  0  0  0
    7.7501  -13.3924   18.1056 C   0  0  1  0  0  0  0  0  0  0  0  0
    7.1176  -12.5744   17.2017 O   0  0  0  0  0  0  0  0  0  0  0  0
    8.7776  -14.3169   17.4832 C   0  0  2  0  0  0  0  0  0  0  0  0
    8.1264  -15.0231   16.3933 N   0  0  0  0  0  0  0  0  0  0  0  0
    9.3152  -15.2924   18.4570 C   0  0  0  0  0  0  0  0  0  0  0  0
    8.6623  -16.3402   18.7069 O   0  0  0  0  0  0  0  0  0  0  0  0
   15.3937  -15.8501   17.2350 N   0  0  0  0  0  0  0  0  0  0  0  0
   15.8100  -14.6959   17.9913 C   0  0  0  0  0  0  0  0  0  0  0  0
   16.5776  -13.8240   17.4714 N   0  0  0  0  0  0  0  0  0  0  0  0
   15.3865  -14.4894   19.3298 N   0  0  0  0  0  0  0  0  0  0  0  0
   14.0059  -14.4024   19.6330 C   0  0  0  0  0  0  0  0  0  0  0  0
   13.1292  -15.4097   18.9797 C   0  0  0  0  0  0  0  0  0  0  0  0
   12.4644  -16.3433   19.9727 C   0  0  0  0  0  0  0  0  0  0  0  0
   10.9850  -15.9693   20.1417 C   0  0  2  0  0  0  0  0  0  0  0  0
   10.5554  -15.0708   19.1165 N   0  0  0  0  0  0  0  0  0  0  0  0
   10.7897  -15.4216   21.5186 C   0  0  0  0  0  0  0  0  0  0  0  0
   11.5030  -14.4450   21.8456 O   0  0  0  0  0  0  0  0  0  0  0  0
   16.9965  -12.9989   17.9045 C   0  0  0  0  0  0  0  0  0  0  0  0
    7.5992  -14.0844   23.1537 C   0  0  2  0  0  0  0  0  0  0  0  0
    8.1467  -15.2100   24.0157 O   0  0  0  0  0  0  0  0  0  0  0  0
    7.4353  -16.3684   23.7209 C   0  0  2  0  0  0  0  0  0  0  0  0
    9.6198  -15.4230   23.7440 N   0  0  0  0  0  0  0  0  0  0  0  0
    9.8550  -15.9583   22.4265 C   0  0  0  0  0  0  0  0  0  0  0  0
   10.1360  -16.3718   24.7600 O   0  0  0  0  0  0  0  0  0  0  0  0
   10.1250  -16.1175   26.1172 O   0  0  0  0  0  0  0  0  0  0  0  0
  2  4  1  0
  2  1  1  1
  3  2  1  0
  4  6  1  0
  4  5  1  6
  6  7  2  0
  9 11  1  0
  9  8  1  0
 10  9  2  0
 12 13  1  0
 12 11  1  0
 13 14  1  0
 15 14  1  6
 16 15  1  0
 16  6  1  0
 17 15  1  0
 17 18  2  0
 20 19  1  1
 20 22  1  0
 21 20  1  0
 22 23  1  1
 22 24  1  0
 23 17  1  0
 24 26  2  0
 24 25  1  0
M  END
$$$$
