TRT.pdb
     RDKit          3D

 26 25  0  0  1  0  0  0  0  0999 V2000
    9.0066  -12.3769   18.3583 C   0  0  0  0  0  0  0  0  0  0  0  0
    8.6888  -12.8717   19.7610 C   0  0  1  0  0  0  0  0  0  0  0  0
    7.7949  -11.9994   20.3324 O   0  0  0  0  0  0  0  0  0  0  0  0
    8.2104  -14.3097   19.7315 C   0  0  2  0  0  0  0  0  0  0  0  0
    6.9731  -14.3429   18.9707 N   0  0  0  0  0  0  0  0  0  0  0  0
    7.9742  -14.8489   21.0888 C   0  0  0  0  0  0  0  0  0  0  0  0
    6.8406  -14.7104   21.6203 O   0  0  0  0  0  0  0  0  0  0  0  0
   11.5241  -21.2524   26.0079 N   0  0  0  0  0  0  0  0  0  0  0  0
   11.2731  -20.8684   24.6415 C   0  0  0  0  0  0  0  0  0  0  0  0
   11.7085  -21.5786   23.6793 N   0  0  0  0  0  0  0  0  0  0  0  0
   10.5403  -19.6968   24.3191 N   0  0  0  0  0  0  0  0  0  0  0  0
   10.1844  -18.7785   25.3369 C   0  0  0  0  0  0  0  0  0  0  0  0
    9.3390  -17.6310   24.9144 C   0  0  0  0  0  0  0  0  0  0  0  0
    9.6652  -17.1434   23.5160 C   0  0  0  0  0  0  0  0  0  0  0  0
    8.7648  -15.9561   23.1464 C   0  0  2  0  0  0  0  0  0  0  0  0
    9.0019  -15.5212   21.8057 N   0  0  0  0  0  0  0  0  0  0  0  0
    8.9699  -14.8741   24.1570 C   0  0  0  0  0  0  0  0  0  0  0  0
   10.0189  -14.1967   24.0558 O   0  0  0  0  0  0  0  0  0  0  0  0
   11.6262  -21.4157   22.6741 C   0  0  0  0  0  0  0  0  0  0  0  0
    6.6423  -11.8831   25.1729 C   0  0  2  0  0  0  0  0  0  0  0  0
    6.9319  -12.7729   26.3705 O   0  0  0  0  0  0  0  0  0  0  0  0
    5.8602  -13.6444   26.5336 C   0  0  2  0  0  0  0  0  0  0  0  0
    8.2091  -13.5558   26.1580 N   0  0  0  0  0  0  0  0  0  0  0  0
    8.0440  -14.6064   25.1851 C   0  0  0  0  0  0  0  0  0  0  0  0
    8.6002  -14.1479   27.4601 O   0  0  0  0  0  0  0  0  0  0  0  0
    8.8954  -13.3984   28.5817 O   0  0  0  0  0  0  0  0  0  0  0  0
  2  4  1  0
  2  1  1  6
  3  2  1  0
  4  6  1  0
  4  5  1  6
  6  7  2  0
  9 11  1  0
  9  8  1  0
 10  9  2  0
 12 13  1  0
 12 11  1  0
 13 14  1  0
 15 14  1  1
 16 15  1  0
 16  6  1  0
 17 15  1  0
 17 18  2  0
 20 19  1  1
 20 22  1  0
 21 20  1  0
 22 23  1  1
 22 24  1  0
 23 17  1  0
 24 26  2  0
 24 25  1  0
M  END
$$$$
