TRT.pdb
     RDKit          3D

 26 25  0  0  1  0  0  0  0  0999 V2000
    8.1646  -11.7256   20.3091 C   0  0  0  0  0  0  0  0  0  0  0  0
    9.0499  -12.6225   19.4573 C   0  0  1  0  0  0  0  0  0  0  0  0
   10.2776  -12.7175   20.0656 O   0  0  0  0  0  0  0  0  0  0  0  0
    8.3828  -13.9607   19.2079 C   0  0  2  0  0  0  0  0  0  0  0  0
    7.1982  -13.7150   18.4033 N   0  0  0  0  0  0  0  0  0  0  0  0
    7.9980  -14.6373   20.4660 C   0  0  0  0  0  0  0  0  0  0  0  0
    6.8714  -14.3987   20.9765 O   0  0  0  0  0  0  0  0  0  0  0  0
    7.0547  -21.3065   21.5642 N   0  0  0  0  0  0  0  0  0  0  0  0
    7.9449  -21.3251   20.4307 C   0  0  0  0  0  0  0  0  0  0  0  0
    7.6320  -21.9591   19.3724 N   0  0  0  0  0  0  0  0  0  0  0  0
    9.1910  -20.6465   20.4504 N   0  0  0  0  0  0  0  0  0  0  0  0
    9.4856  -19.7315   21.4903 C   0  0  0  0  0  0  0  0  0  0  0  0
    8.7724  -18.4282   21.4347 C   0  0  0  0  0  0  0  0  0  0  0  0
    9.1561  -17.4988   22.5699 C   0  0  0  0  0  0  0  0  0  0  0  0
    8.5069  -16.1221   22.3688 C   0  0  2  0  0  0  0  0  0  0  0  0
    8.8748  -15.5524   21.1108 N   0  0  0  0  0  0  0  0  0  0  0  0
    8.8674  -15.2546   23.5314 C   0  0  0  0  0  0  0  0  0  0  0  0
   10.0497  -14.8437   23.5857 O   0  0  0  0  0  0  0  0  0  0  0  0
    8.1863  -22.1088   18.5274 C   0  0  0  0  0  0  0  0  0  0  0  0
    6.8823  -12.1272   25.2991 C   0  0  2  0  0  0  0  0  0  0  0  0
    7.1279  -13.3147   26.2151 O   0  0  0  0  0  0  0  0  0  0  0  0
    5.9694  -14.0838   26.2495 C   0  0  2  0  0  0  0  0  0  0  0  0
    8.2876  -14.1464   25.7124 N   0  0  0  0  0  0  0  0  0  0  0  0
    7.9419  -14.8997   24.5331 C   0  0  0  0  0  0  0  0  0  0  0  0
    8.6792  -15.0804   26.7955 O   0  0  0  0  0  0  0  0  0  0  0  0
    9.1036  -14.6676   28.0431 O   0  0  0  0  0  0  0  0  0  0  0  0
  2  4  1  0
  2  1  1  1
  3  2  1  0
  4  6  1  0
  4  5  1  6
  6  7  2  0
  9 11  1  0
  9  8  1  0
 10  9  2  0
 12 13  1  0
 12 11  1  0
 13 14  1  0
 15 14  1  1
 16 15  1  0
 16  6  1  0
 17 15  1  0
 17 18  2  0
 20 19  1  1
 20 22  1  0
 21 20  1  0
 22 23  1  1
 22 24  1  0
 23 17  1  0
 24 26  2  0
 24 25  1  0
M  END
$$$$
