TRT.pdb
     RDKit          3D

 26 25  0  0  1  0  0  0  0  0999 V2000
    8.2889  -11.7645   18.7410 C   0  0  0  0  0  0  0  0  0  0  0  0
    8.4184  -12.7288   19.9102 C   0  0  1  0  0  0  0  0  0  0  0  0
    7.6625  -12.2469   20.9507 O   0  0  0  0  0  0  0  0  0  0  0  0
    8.0567  -14.1396   19.4899 C   0  0  2  0  0  0  0  0  0  0  0  0
    6.7080  -14.1025   18.9508 N   0  0  0  0  0  0  0  0  0  0  0  0
    8.1144  -15.0923   20.6203 C   0  0  0  0  0  0  0  0  0  0  0  0
    7.0477  -15.4305   21.1987 O   0  0  0  0  0  0  0  0  0  0  0  0
   13.5387  -19.2263   25.5173 N   0  0  0  0  0  0  0  0  0  0  0  0
   12.5809  -20.3004   25.4371 C   0  0  0  0  0  0  0  0  0  0  0  0
   12.6088  -21.2564   26.2768 N   0  0  0  0  0  0  0  0  0  0  0  0
   11.5818  -20.3344   24.4301 N   0  0  0  0  0  0  0  0  0  0  0  0
   11.6007  -19.3868   23.3778 C   0  0  0  0  0  0  0  0  0  0  0  0
   10.4734  -18.4180   23.3514 C   0  0  0  0  0  0  0  0  0  0  0  0
   10.5210  -17.4925   22.1509 C   0  0  0  0  0  0  0  0  0  0  0  0
    9.3832  -16.4648   22.2299 C   0  0  2  0  0  0  0  0  0  0  0  0
    9.3507  -15.6346   21.0669 N   0  0  0  0  0  0  0  0  0  0  0  0
    9.5340  -15.6886   23.4983 C   0  0  0  0  0  0  0  0  0  0  0  0
   10.5955  -15.0387   23.6413 O   0  0  0  0  0  0  0  0  0  0  0  0
   11.9756  -22.0535   26.3617 C   0  0  0  0  0  0  0  0  0  0  0  0
    7.3607  -12.9191   25.0698 C   0  0  2  0  0  0  0  0  0  0  0  0
    7.4432  -14.0984   26.0249 O   0  0  0  0  0  0  0  0  0  0  0  0
    6.2943  -14.8665   25.8670 C   0  0  2  0  0  0  0  0  0  0  0  0
    8.6701  -14.9353   25.7360 N   0  0  0  0  0  0  0  0  0  0  0  0
    8.5453  -15.6703   24.5024 C   0  0  0  0  0  0  0  0  0  0  0  0
    8.8455  -15.8865   26.8599 O   0  0  0  0  0  0  0  0  0  0  0  0
    9.0336  -15.4935   28.1703 O   0  0  0  0  0  0  0  0  0  0  0  0
  2  4  1  0
  2  1  1  6
  3  2  1  0
  4  6  1  0
  4  5  1  1
  6  7  2  0
  9 11  1  0
  9  8  1  0
 10  9  2  0
 12 13  1  0
 12 11  1  0
 13 14  1  0
 15 14  1  6
 16 15  1  0
 16  6  1  0
 17 15  1  0
 17 18  2  0
 20 19  1  1
 20 22  1  0
 21 20  1  0
 22 23  1  1
 22 24  1  0
 23 17  1  0
 24 26  2  0
 24 25  1  0
M  END
$$$$
