WSD.pdb
     RDKit          3D

 29 30  0  0  1  0  0  0  0  0999 V2000
    7.0676  -17.5050   25.7344 N   0  0  0  0  0  0  0  0  0  0  0  0
    7.2368  -16.4434   24.8069 C   0  0  1  0  0  0  0  0  0  0  0  0
    8.3823  -15.5485   25.2183 C   0  0  0  0  0  0  0  0  0  0  0  0
    8.1105  -14.6796   26.3585 C   0  0  0  0  0  0  0  0  0  0  0  0
    8.5927  -14.9012   27.6331 C   0  0  0  0  0  0  0  0  0  0  0  0
    8.1690  -13.8916   28.4092 N   0  0  0  0  0  0  0  0  0  0  0  0
    7.4305  -13.0401   27.6514 C   0  0  0  0  0  0  0  0  0  0  0  0
    6.7717  -11.8737   27.9471 C   0  0  0  0  0  0  0  0  0  0  0  0
    6.0727  -11.1971   26.9595 C   0  0  0  0  0  0  0  0  0  0  0  0
    6.0141  -11.6626   25.6658 C   0  0  0  0  0  0  0  0  0  0  0  0
    6.6779  -12.8358   25.3721 C   0  0  0  0  0  0  0  0  0  0  0  0
    7.3777  -13.5161   26.3500 C   0  0  0  0  0  0  0  0  0  0  0  0
    7.5915  -16.9311   23.4342 C   0  0  0  0  0  0  0  0  0  0  0  0
    7.8122  -18.1615   23.3252 O   0  0  0  0  0  0  0  0  0  0  0  0
    8.2851  -14.3489   20.1653 O   0  0  0  0  0  0  0  0  0  0  0  0
    7.6138  -15.5254   19.9132 C   0  0  0  0  0  0  0  0  0  0  0  0
    7.8794  -16.5908   20.9550 C   0  0  2  0  0  0  0  0  0  0  0  0
    7.6852  -16.0987   22.2995 N   0  0  0  0  0  0  0  0  0  0  0  0
    9.2546  -17.1311   20.8419 C   0  0  0  0  0  0  0  0  0  0  0  0
    9.7055  -17.6118   19.7590 O   0  0  0  0  0  0  0  0  0  0  0  0
   10.1647  -17.1487   21.9375 N   0  0  0  0  0  0  0  0  0  0  0  0
   11.5358  -17.7062   21.7685 C   0  0  1  0  0  0  0  0  0  0  0  0
   12.1713  -16.7925   20.7482 C   0  0  0  0  0  0  0  0  0  0  0  0
   13.5805  -17.0144   20.4828 C   0  0  0  0  0  0  0  0  0  0  0  0
   14.0886  -18.1394   20.3843 O   0  0  0  0  0  0  0  0  0  0  0  0
   12.2272  -17.6608   23.0791 C   0  0  0  0  0  0  0  0  0  0  0  0
   13.4109  -18.1501   23.1578 O   0  0  0  0  0  0  0  0  0  0  0  0
   14.4051  -15.9041   20.3310 O   0  0  0  0  0  0  0  0  0  0  0  0
   11.6251  -17.1094   24.1894 O   0  0  0  0  0  0  0  0  0  0  0  0
  2  1  1  1
  2  3  1  0
  2 13  1  0
  3  4  1  0
  4 12  1  0
  5  6  1  0
  5  4  2  0
  6  7  1  0
  7 12  2  0
  7  8  1  0
  8  9  2  0
  9 10  1  0
 11 10  2  0
 12 11  1  0
 13 18  1  0
 14 13  2  0
 16 15  1  0
 17 16  1  6
 18 17  1  0
 19 17  1  0
 19 21  1  0
 20 19  2  0
 22 21  1  0
 22 26  1  0
 22 23  1  6
 23 24  1  0
 24 25  2  0
 26 29  1  0
 27 26  2  0
 28 24  1  0
M  END
$$$$
