WSD.pdb
     RDKit          3D

 29 30  0  0  1  0  0  0  0  0999 V2000
    6.3995  -17.7087   24.1952 N   0  0  0  0  0  0  0  0  0  0  0  0
    7.1723  -16.6571   23.6359 C   0  0  1  0  0  0  0  0  0  0  0  0
    7.9452  -15.9286   24.7102 C   0  0  0  0  0  0  0  0  0  0  0  0
    7.1455  -15.0590   25.5665 C   0  0  0  0  0  0  0  0  0  0  0  0
    6.3269  -15.5125   26.5818 C   0  0  0  0  0  0  0  0  0  0  0  0
    5.7758  -14.4392   27.1694 N   0  0  0  0  0  0  0  0  0  0  0  0
    6.2289  -13.3207   26.5462 C   0  0  0  0  0  0  0  0  0  0  0  0
    5.9788  -11.9864   26.7442 C   0  0  0  0  0  0  0  0  0  0  0  0
    6.5851  -11.0355   25.9380 C   0  0  0  0  0  0  0  0  0  0  0  0
    7.4466  -11.3884   24.9246 C   0  0  0  0  0  0  0  0  0  0  0  0
    7.6958  -12.7310   24.7285 C   0  0  0  0  0  0  0  0  0  0  0  0
    7.0966  -13.6854   25.5279 C   0  0  0  0  0  0  0  0  0  0  0  0
    8.2091  -17.1552   22.6741 C   0  0  0  0  0  0  0  0  0  0  0  0
    8.7368  -18.2589   22.9536 O   0  0  0  0  0  0  0  0  0  0  0  0
    9.0928  -14.9405   19.3575 O   0  0  0  0  0  0  0  0  0  0  0  0
    9.6035  -16.2179   19.2809 C   0  0  0  0  0  0  0  0  0  0  0  0
    9.6522  -16.9150   20.6235 C   0  0  2  0  0  0  0  0  0  0  0  0
    8.6045  -16.4637   21.5103 N   0  0  0  0  0  0  0  0  0  0  0  0
   10.9589  -16.7150   21.2930 C   0  0  0  0  0  0  0  0  0  0  0  0
   11.0659  -16.1042   22.3988 O   0  0  0  0  0  0  0  0  0  0  0  0
   12.1835  -17.1929   20.7443 N   0  0  0  0  0  0  0  0  0  0  0  0
   13.4669  -16.9830   21.4710 C   0  0  1  0  0  0  0  0  0  0  0  0
   13.2242  -17.6191   22.8186 C   0  0  0  0  0  0  0  0  0  0  0  0
   14.3655  -17.6747   23.7130 C   0  0  0  0  0  0  0  0  0  0  0  0
   15.4833  -17.2271   23.4234 O   0  0  0  0  0  0  0  0  0  0  0  0
   14.5513  -17.6534   20.7144 C   0  0  0  0  0  0  0  0  0  0  0  0
   15.5359  -16.9398   20.3045 O   0  0  0  0  0  0  0  0  0  0  0  0
   14.1954  -18.2625   24.9625 O   0  0  0  0  0  0  0  0  0  0  0  0
   14.5140  -19.0061   20.4536 O   0  0  0  0  0  0  0  0  0  0  0  0
  2  1  1  1
  2  3  1  0
  2 13  1  0
  3  4  1  0
  4 12  1  0
  5  6  1  0
  5  4  2  0
  6  7  1  0
  7 12  2  0
  7  8  1  0
  8  9  2  0
  9 10  1  0
 11 10  2  0
 12 11  1  0
 13 18  1  0
 14 13  2  0
 16 15  1  0
 17 16  1  6
 18 17  1  0
 19 17  1  0
 19 21  1  0
 20 19  2  0
 22 21  1  0
 22 26  1  0
 22 23  1  1
 23 24  1  0
 24 25  2  0
 26 29  1  0
 27 26  2  0
 28 24  1  0
M  END
$$$$
