WSD.pdb
     RDKit          3D

 29 30  0  0  1  0  0  0  0  0999 V2000
    6.7867  -17.7878   24.6957 N   0  0  0  0  0  0  0  0  0  0  0  0
    7.5696  -16.7979   24.0452 C   0  0  1  0  0  0  0  0  0  0  0  0
    8.1677  -15.8408   25.0495 C   0  0  0  0  0  0  0  0  0  0  0  0
    7.2164  -14.9334   25.6825 C   0  0  0  0  0  0  0  0  0  0  0  0
    6.2047  -15.3399   26.5295 C   0  0  0  0  0  0  0  0  0  0  0  0
    5.5531  -14.2411   26.9410 N   0  0  0  0  0  0  0  0  0  0  0  0
    6.1319  -13.1525   26.3712 C   0  0  0  0  0  0  0  0  0  0  0  0
    5.8565  -11.8110   26.4508 C   0  0  0  0  0  0  0  0  0  0  0  0
    6.6213  -10.8981   25.7413 C   0  0  0  0  0  0  0  0  0  0  0  0
    7.6689  -11.2968   24.9430 C   0  0  0  0  0  0  0  0  0  0  0  0
    7.9431  -12.6466   24.8655 C   0  0  0  0  0  0  0  0  0  0  0  0
    7.1865  -13.5633   25.5699 C   0  0  0  0  0  0  0  0  0  0  0  0
    8.7401  -17.3815   23.3121 C   0  0  0  0  0  0  0  0  0  0  0  0
    9.2231  -18.4353   23.7927 O   0  0  0  0  0  0  0  0  0  0  0  0
   10.6077  -15.4703   19.9849 O   0  0  0  0  0  0  0  0  0  0  0  0
   10.5787  -16.8463   20.0498 C   0  0  0  0  0  0  0  0  0  0  0  0
   10.4530  -17.3674   21.4652 C   0  0  2  0  0  0  0  0  0  0  0  0
    9.3034  -16.8195   22.1477 N   0  0  0  0  0  0  0  0  0  0  0  0
   11.6651  -17.0695   22.2640 C   0  0  0  0  0  0  0  0  0  0  0  0
   11.7361  -16.0673   23.0372 O   0  0  0  0  0  0  0  0  0  0  0  0
   12.8323  -17.8847   22.2205 N   0  0  0  0  0  0  0  0  0  0  0  0
   14.0259  -17.5350   23.0405 C   0  0  1  0  0  0  0  0  0  0  0  0
   14.6983  -18.8654   23.2807 C   0  0  0  0  0  0  0  0  0  0  0  0
   14.1859  -19.6483   24.3898 C   0  0  0  0  0  0  0  0  0  0  0  0
   13.5811  -19.1564   25.3520 O   0  0  0  0  0  0  0  0  0  0  0  0
   14.8754  -16.6027   22.2615 C   0  0  0  0  0  0  0  0  0  0  0  0
   14.5946  -16.4168   21.0232 O   0  0  0  0  0  0  0  0  0  0  0  0
   14.3849  -21.0252   24.3717 O   0  0  0  0  0  0  0  0  0  0  0  0
   15.9399  -15.9470   22.8414 O   0  0  0  0  0  0  0  0  0  0  0  0
  2  1  1  1
  2  3  1  0
  2 13  1  0
  3  4  1  0
  4 12  1  0
  5  6  1  0
  5  4  2  0
  6  7  1  0
  7 12  2  0
  7  8  1  0
  8  9  2  0
  9 10  1  0
 11 10  2  0
 12 11  1  0
 13 18  1  0
 14 13  2  0
 16 15  1  0
 17 16  1  6
 18 17  1  0
 19 17  1  0
 19 21  1  0
 20 19  2  0
 22 21  1  0
 22 26  1  0
 22 23  1  6
 23 24  1  0
 24 25  2  0
 26 29  1  0
 27 26  2  0
 28 24  1  0
M  END
$$$$
