WSD.pdb
     RDKit          3D

 29 30  0  0  1  0  0  0  0  0999 V2000
    6.7407  -16.9467   23.0571 N   0  0  0  0  0  0  0  0  0  0  0  0
    7.9496  -16.2312   23.2634 C   0  0  1  0  0  0  0  0  0  0  0  0
    8.1936  -16.0027   24.7367 C   0  0  0  0  0  0  0  0  0  0  0  0
    7.2540  -15.0949   25.3863 C   0  0  0  0  0  0  0  0  0  0  0  0
    6.1429  -15.5074   26.0946 C   0  0  0  0  0  0  0  0  0  0  0  0
    5.5346  -14.4103   26.5716 N   0  0  0  0  0  0  0  0  0  0  0  0
    6.2379  -13.3168   26.1787 C   0  0  0  0  0  0  0  0  0  0  0  0
    6.0507  -11.9737   26.3859 C   0  0  0  0  0  0  0  0  0  0  0  0
    6.9394  -11.0543   25.8505 C   0  0  0  0  0  0  0  0  0  0  0  0
    8.0254  -11.4478   25.1025 C   0  0  0  0  0  0  0  0  0  0  0  0
    8.2105  -12.7993   24.8963 C   0  0  0  0  0  0  0  0  0  0  0  0
    7.3303  -13.7226   25.4271 C   0  0  0  0  0  0  0  0  0  0  0  0
    9.1522  -16.9832   22.7771 C   0  0  0  0  0  0  0  0  0  0  0  0
    9.2957  -18.1457   23.2271 O   0  0  0  0  0  0  0  0  0  0  0  0
   12.1645  -14.9837   20.7008 O   0  0  0  0  0  0  0  0  0  0  0  0
   12.1385  -16.3481   20.5103 C   0  0  0  0  0  0  0  0  0  0  0  0
   11.3723  -17.0800   21.5910 C   0  0  2  0  0  0  0  0  0  0  0  0
   10.0964  -16.4614   21.8688 N   0  0  0  0  0  0  0  0  0  0  0  0
   12.1475  -17.1545   22.8517 C   0  0  0  0  0  0  0  0  0  0  0  0
   11.7196  -16.6627   23.9390 O   0  0  0  0  0  0  0  0  0  0  0  0
   13.4240  -17.7816   22.9318 N   0  0  0  0  0  0  0  0  0  0  0  0
   14.0509  -18.0466   24.2569 C   0  0  1  0  0  0  0  0  0  0  0  0
   13.0961  -19.0108   24.9190 C   0  0  0  0  0  0  0  0  0  0  0  0
   12.6097  -18.6273   26.2313 C   0  0  0  0  0  0  0  0  0  0  0  0
   13.0367  -17.6494   26.8598 O   0  0  0  0  0  0  0  0  0  0  0  0
   15.3913  -18.6392   24.0334 C   0  0  0  0  0  0  0  0  0  0  0  0
   15.5739  -19.3458   22.9779 O   0  0  0  0  0  0  0  0  0  0  0  0
   11.6103  -19.3996   26.8150 O   0  0  0  0  0  0  0  0  0  0  0  0
   16.4212  -18.4423   24.9278 O   0  0  0  0  0  0  0  0  0  0  0  0
  2  1  1  1
  2  3  1  0
  2 13  1  0
  3  4  1  0
  4 12  1  0
  5  6  1  0
  5  4  2  0
  6  7  1  0
  7 12  2  0
  7  8  1  0
  8  9  2  0
  9 10  1  0
 11 10  2  0
 12 11  1  0
 13 18  1  0
 14 13  2  0
 16 15  1  0
 17 16  1  6
 18 17  1  0
 19 17  1  0
 19 21  1  0
 20 19  2  0
 22 21  1  0
 22 26  1  0
 22 23  1  1
 23 24  1  0
 24 25  2  0
 26 29  1  0
 27 26  2  0
 28 24  1  0
M  END
$$$$
