WSD.pdb
     RDKit          3D

 29 30  0  0  1  0  0  0  0  0999 V2000
    6.7452  -17.7366   25.0570 N   0  0  0  0  0  0  0  0  0  0  0  0
    7.3697  -16.8343   24.1560 C   0  0  1  0  0  0  0  0  0  0  0  0
    7.9196  -15.6350   24.8920 C   0  0  0  0  0  0  0  0  0  0  0  0
    6.9143  -14.7353   25.4477 C   0  0  0  0  0  0  0  0  0  0  0  0
    5.7413  -15.1571   26.0413 C   0  0  0  0  0  0  0  0  0  0  0  0
    5.0816  -14.0654   26.4586 N   0  0  0  0  0  0  0  0  0  0  0  0
    5.8131  -12.9662   26.1402 C   0  0  0  0  0  0  0  0  0  0  0  0
    5.5975  -11.6250   26.3314 C   0  0  0  0  0  0  0  0  0  0  0  0
    6.5287  -10.6983   25.8890 C   0  0  0  0  0  0  0  0  0  0  0  0
    7.6860  -11.0825   25.2513 C   0  0  0  0  0  0  0  0  0  0  0  0
    7.8996  -12.4321   25.0609 C   0  0  0  0  0  0  0  0  0  0  0  0
    6.9772  -13.3627   25.4994 C   0  0  0  0  0  0  0  0  0  0  0  0
    8.5491  -17.4432   23.4587 C   0  0  0  0  0  0  0  0  0  0  0  0
    9.1279  -18.3768   24.0655 O   0  0  0  0  0  0  0  0  0  0  0  0
   10.2828  -15.8659   19.8878 O   0  0  0  0  0  0  0  0  0  0  0  0
   10.2154  -17.2312   20.0603 C   0  0  0  0  0  0  0  0  0  0  0  0
   10.1407  -17.6387   21.5161 C   0  0  2  0  0  0  0  0  0  0  0  0
    9.0212  -17.0287   22.1960 N   0  0  0  0  0  0  0  0  0  0  0  0
   11.3841  -17.2899   22.2429 C   0  0  0  0  0  0  0  0  0  0  0  0
   11.4926  -16.2280   22.9267 O   0  0  0  0  0  0  0  0  0  0  0  0
   12.5417  -18.1198   22.2253 N   0  0  0  0  0  0  0  0  0  0  0  0
   13.8086  -17.6584   22.8588 C   0  0  1  0  0  0  0  0  0  0  0  0
   14.4147  -18.9255   23.4128 C   0  0  0  0  0  0  0  0  0  0  0  0
   13.8684  -19.3969   24.6718 C   0  0  0  0  0  0  0  0  0  0  0  0
   13.8835  -18.7308   25.7157 O   0  0  0  0  0  0  0  0  0  0  0  0
   14.6562  -17.0333   21.8155 C   0  0  0  0  0  0  0  0  0  0  0  0
   14.2479  -17.0704   20.5995 O   0  0  0  0  0  0  0  0  0  0  0  0
   13.2973  -20.6651   24.7084 O   0  0  0  0  0  0  0  0  0  0  0  0
   15.8517  -16.4249   22.1316 O   0  0  0  0  0  0  0  0  0  0  0  0
  2  1  1  1
  2  3  1  0
  2 13  1  0
  3  4  1  0
  4 12  1  0
  5  6  1  0
  5  4  2  0
  6  7  1  0
  7 12  2  0
  7  8  1  0
  8  9  2  0
  9 10  1  0
 11 10  2  0
 12 11  1  0
 13 18  1  0
 14 13  2  0
 16 15  1  0
 17 16  1  6
 18 17  1  0
 19 17  1  0
 19 21  1  0
 20 19  2  0
 22 21  1  0
 22 26  1  0
 22 23  1  6
 23 24  1  0
 24 25  2  0
 26 29  1  0
 27 26  2  0
 28 24  1  0
M  END
$$$$
