WSD.pdb
     RDKit          3D

 29 30  0  0  1  0  0  0  0  0999 V2000
    7.1098  -17.5921   25.6939 N   0  0  0  0  0  0  0  0  0  0  0  0
    7.4033  -16.5639   24.7598 C   0  0  1  0  0  0  0  0  0  0  0  0
    8.4823  -15.6489   25.2898 C   0  0  0  0  0  0  0  0  0  0  0  0
    8.0412  -14.6905   26.2978 C   0  0  0  0  0  0  0  0  0  0  0  0
    8.1093  -14.9119   27.6589 C   0  0  0  0  0  0  0  0  0  0  0  0
    7.6473  -13.8118   28.2732 N   0  0  0  0  0  0  0  0  0  0  0  0
    7.2895  -12.9035   27.3290 C   0  0  0  0  0  0  0  0  0  0  0  0
    6.7625  -11.6398   27.4146 C   0  0  0  0  0  0  0  0  0  0  0  0
    6.4793  -10.9222   26.2628 C   0  0  0  0  0  0  0  0  0  0  0  0
    6.7120  -11.4421   25.0101 C   0  0  0  0  0  0  0  0  0  0  0  0
    7.2421  -12.7131   24.9280 C   0  0  0  0  0  0  0  0  0  0  0  0
    7.5283  -13.4351   26.0707 C   0  0  0  0  0  0  0  0  0  0  0  0
    7.9412  -17.0991   23.4667 C   0  0  0  0  0  0  0  0  0  0  0  0
    8.5900  -18.1707   23.5398 O   0  0  0  0  0  0  0  0  0  0  0  0
    7.8001  -14.8623   19.9248 O   0  0  0  0  0  0  0  0  0  0  0  0
    7.7837  -16.2316   19.7725 C   0  0  0  0  0  0  0  0  0  0  0  0
    8.3242  -16.9659   20.9806 C   0  0  2  0  0  0  0  0  0  0  0  0
    7.7575  -16.4746   22.2155 N   0  0  0  0  0  0  0  0  0  0  0  0
    9.8003  -16.8646   21.0630 C   0  0  0  0  0  0  0  0  0  0  0  0
   10.3823  -15.8537   21.5594 O   0  0  0  0  0  0  0  0  0  0  0  0
   10.6675  -17.8920   20.5922 N   0  0  0  0  0  0  0  0  0  0  0  0
   12.1455  -17.7302   20.6833 C   0  0  1  0  0  0  0  0  0  0  0  0
   12.6321  -19.1008   21.0888 C   0  0  0  0  0  0  0  0  0  0  0  0
   12.7356  -19.3450   22.5154 C   0  0  0  0  0  0  0  0  0  0  0  0
   12.7329  -18.4442   23.3652 O   0  0  0  0  0  0  0  0  0  0  0  0
   12.6566  -17.3171   19.3545 C   0  0  0  0  0  0  0  0  0  0  0  0
   11.8896  -17.4657   18.3365 O   0  0  0  0  0  0  0  0  0  0  0  0
   12.8440  -20.6616   22.9523 O   0  0  0  0  0  0  0  0  0  0  0  0
   13.9194  -16.7857   19.2048 O   0  0  0  0  0  0  0  0  0  0  0  0
  2  1  1  1
  2  3  1  0
  2 13  1  0
  3  4  1  0
  4 12  1  0
  5  6  1  0
  5  4  2  0
  6  7  1  0
  7 12  2  0
  7  8  1  0
  8  9  2  0
  9 10  1  0
 11 10  2  0
 12 11  1  0
 13 18  1  0
 14 13  2  0
 16 15  1  0
 17 16  1  6
 18 17  1  0
 19 17  1  0
 19 21  1  0
 20 19  2  0
 22 21  1  0
 22 26  1  0
 22 23  1  6
 23 24  1  0
 24 25  2  0
 26 29  1  0
 27 26  2  0
 28 24  1  0
M  END
$$$$
