WSD.pdb
     RDKit          3D

 29 30  0  0  1  0  0  0  0  0999 V2000
    9.9891  -15.6906   22.1241 N   0  0  0  0  0  0  0  0  0  0  0  0
    9.7210  -15.1937   23.4268 C   0  0  1  0  0  0  0  0  0  0  0  0
    8.3673  -15.6582   23.9107 C   0  0  0  0  0  0  0  0  0  0  0  0
    7.3828  -14.5991   24.1057 C   0  0  0  0  0  0  0  0  0  0  0  0
    6.4669  -14.2078   23.1495 C   0  0  0  0  0  0  0  0  0  0  0  0
    5.7101  -13.2373   23.6848 N   0  0  0  0  0  0  0  0  0  0  0  0
    6.1298  -13.0089   24.9561 C   0  0  0  0  0  0  0  0  0  0  0  0
    5.7098  -12.1333   25.9251 C   0  0  0  0  0  0  0  0  0  0  0  0
    6.3370  -12.1068   27.1611 C   0  0  0  0  0  0  0  0  0  0  0  0
    7.3878  -12.9442   27.4580 C   0  0  0  0  0  0  0  0  0  0  0  0
    7.8074  -13.8234   26.4812 C   0  0  0  0  0  0  0  0  0  0  0  0
    7.1875  -13.8573   25.2469 C   0  0  0  0  0  0  0  0  0  0  0  0
   10.6979  -15.6982   24.4463 C   0  0  0  0  0  0  0  0  0  0  0  0
   11.5358  -16.5390   24.0394 O   0  0  0  0  0  0  0  0  0  0  0  0
   10.3727  -14.9835   28.6624 O   0  0  0  0  0  0  0  0  0  0  0  0
   11.6129  -14.9954   28.0622 C   0  0  0  0  0  0  0  0  0  0  0  0
   11.6399  -15.7996   26.7802 C   0  0  2  0  0  0  0  0  0  0  0  0
   10.7170  -15.2853   25.7946 N   0  0  0  0  0  0  0  0  0  0  0  0
   11.3240  -17.2263   27.0266 C   0  0  0  0  0  0  0  0  0  0  0  0
   10.1536  -17.6935   26.8888 O   0  0  0  0  0  0  0  0  0  0  0  0
   12.3091  -18.1711   27.4340 N   0  0  0  0  0  0  0  0  0  0  0  0
   11.9104  -19.5500   27.8326 C   0  0  1  0  0  0  0  0  0  0  0  0
   13.1731  -20.3566   27.6455 C   0  0  0  0  0  0  0  0  0  0  0  0
   13.0808  -21.7695   27.9632 C   0  0  0  0  0  0  0  0  0  0  0  0
   12.0418  -22.3145   28.3597 O   0  0  0  0  0  0  0  0  0  0  0  0
   11.4605  -19.5203   29.2448 C   0  0  0  0  0  0  0  0  0  0  0  0
   11.0662  -20.6183   29.7792 O   0  0  0  0  0  0  0  0  0  0  0  0
   14.2203  -22.5539   27.8148 O   0  0  0  0  0  0  0  0  0  0  0  0
   11.4624  -18.3509   29.9741 O   0  0  0  0  0  0  0  0  0  0  0  0
  2  1  1  6
  2  3  1  0
  2 13  1  0
  3  4  1  0
  4 12  1  0
  5  6  1  0
  5  4  2  0
  6  7  1  0
  7 12  2  0
  7  8  1  0
  8  9  2  0
  9 10  1  0
 11 10  2  0
 12 11  1  0
 13 18  1  0
 14 13  2  0
 16 15  1  0
 17 16  1  1
 18 17  1  0
 19 17  1  0
 19 21  1  0
 20 19  2  0
 22 21  1  0
 22 26  1  0
 22 23  1  1
 23 24  1  0
 24 25  2  0
 26 29  1  0
 27 26  2  0
 28 24  1  0
M  END
$$$$
