WSD.pdb
     RDKit          3D

 29 30  0  0  1  0  0  0  0  0999 V2000
    6.5736  -17.7107   23.8348 N   0  0  0  0  0  0  0  0  0  0  0  0
    7.4274  -16.6722   23.3782 C   0  0  1  0  0  0  0  0  0  0  0  0
    8.0894  -15.9711   24.5412 C   0  0  0  0  0  0  0  0  0  0  0  0
    7.2038  -15.1369   25.3466 C   0  0  0  0  0  0  0  0  0  0  0  0
    6.1906  -15.6292   26.1450 C   0  0  0  0  0  0  0  0  0  0  0  0
    5.6096  -14.5844   26.7548 N   0  0  0  0  0  0  0  0  0  0  0  0
    6.2342  -13.4457   26.3574 C   0  0  0  0  0  0  0  0  0  0  0  0
    6.0345  -12.1247   26.6690 C   0  0  0  0  0  0  0  0  0  0  0  0
    6.8321  -11.1447   26.0986 C   0  0  0  0  0  0  0  0  0  0  0  0
    7.8380  -11.4550   25.2123 C   0  0  0  0  0  0  0  0  0  0  0  0
    8.0360  -12.7844   24.9015 C   0  0  0  0  0  0  0  0  0  0  0  0
    7.2464  -13.7677   25.4659 C   0  0  0  0  0  0  0  0  0  0  0  0
    8.5553  -17.1854   22.5341 C   0  0  0  0  0  0  0  0  0  0  0  0
    9.1196  -18.2293   22.9419 O   0  0  0  0  0  0  0  0  0  0  0  0
   10.2067  -14.7430   19.6191 O   0  0  0  0  0  0  0  0  0  0  0  0
   10.4405  -16.0860   19.4189 C   0  0  0  0  0  0  0  0  0  0  0  0
   10.2242  -16.9147   20.6668 C   0  0  2  0  0  0  0  0  0  0  0  0
    8.9955  -16.5696   21.3441 N   0  0  0  0  0  0  0  0  0  0  0  0
   11.3490  -16.7660   21.6201 C   0  0  0  0  0  0  0  0  0  0  0  0
   11.1654  -16.5114   22.8484 O   0  0  0  0  0  0  0  0  0  0  0  0
   12.7114  -16.8981   21.2261 N   0  0  0  0  0  0  0  0  0  0  0  0
   13.7912  -16.9389   22.2515 C   0  0  1  0  0  0  0  0  0  0  0  0
   13.4638  -18.1657   23.0686 C   0  0  0  0  0  0  0  0  0  0  0  0
   13.6383  -18.0419   24.5038 C   0  0  0  0  0  0  0  0  0  0  0  0
   14.1016  -17.0324   25.0515 O   0  0  0  0  0  0  0  0  0  0  0  0
   15.0960  -17.0518   21.5569 C   0  0  0  0  0  0  0  0  0  0  0  0
   15.1817  -17.8451   20.5520 O   0  0  0  0  0  0  0  0  0  0  0  0
   13.2657  -19.1145   25.3077 O   0  0  0  0  0  0  0  0  0  0  0  0
   16.1938  -16.3281   21.9698 O   0  0  0  0  0  0  0  0  0  0  0  0
  2  1  1  1
  2  3  1  0
  2 13  1  0
  3  4  1  0
  4 12  1  0
  5  6  1  0
  5  4  2  0
  6  7  1  0
  7 12  2  0
  7  8  1  0
  8  9  2  0
  9 10  1  0
 11 10  2  0
 12 11  1  0
 13 18  1  0
 14 13  2  0
 16 15  1  0
 17 16  1  6
 18 17  1  0
 19 17  1  0
 19 21  1  0
 20 19  2  0
 22 21  1  0
 22 26  1  0
 22 23  1  1
 23 24  1  0
 24 25  2  0
 26 29  1  0
 27 26  2  0
 28 24  1  0
M  END
$$$$
