WSD.pdb
     RDKit          3D

 29 30  0  0  1  0  0  0  0  0999 V2000
    6.3006  -17.8239   24.7715 N   0  0  0  0  0  0  0  0  0  0  0  0
    7.1098  -16.8514   24.1270 C   0  0  1  0  0  0  0  0  0  0  0  0
    8.1160  -16.2663   25.0902 C   0  0  0  0  0  0  0  0  0  0  0  0
    7.5918  -15.2404   25.9856 C   0  0  0  0  0  0  0  0  0  0  0  0
    7.2295  -15.4697   27.2980 C   0  0  0  0  0  0  0  0  0  0  0  0
    6.8233  -14.3010   27.8177 N   0  0  0  0  0  0  0  0  0  0  0  0
    6.9213  -13.3416   26.8614 C   0  0  0  0  0  0  0  0  0  0  0  0
    6.6338  -12.0002   26.8646 C   0  0  0  0  0  0  0  0  0  0  0  0
    6.8257  -11.2424   25.7197 C   0  0  0  0  0  0  0  0  0  0  0  0
    7.3038  -11.7983   24.5552 C   0  0  0  0  0  0  0  0  0  0  0  0
    7.5920  -13.1475   24.5557 C   0  0  0  0  0  0  0  0  0  0  0  0
    7.4046  -13.9101   25.6925 C   0  0  0  0  0  0  0  0  0  0  0  0
    7.9250  -17.4313   23.0102 C   0  0  0  0  0  0  0  0  0  0  0  0
    8.2246  -18.6451   23.1178 O   0  0  0  0  0  0  0  0  0  0  0  0
    9.5639  -15.1177   19.8110 O   0  0  0  0  0  0  0  0  0  0  0  0
    9.0990  -16.3911   19.5642 C   0  0  0  0  0  0  0  0  0  0  0  0
    9.1127  -17.2726   20.7945 C   0  0  2  0  0  0  0  0  0  0  0  0
    8.3555  -16.7000   21.8837 N   0  0  0  0  0  0  0  0  0  0  0  0
   10.4947  -17.5316   21.2625 C   0  0  0  0  0  0  0  0  0  0  0  0
   11.2316  -18.4193   20.7370 O   0  0  0  0  0  0  0  0  0  0  0  0
   11.0917  -16.8043   22.3320 N   0  0  0  0  0  0  0  0  0  0  0  0
   12.4120  -17.2215   22.8815 C   0  0  1  0  0  0  0  0  0  0  0  0
   13.3165  -16.0542   22.5668 C   0  0  0  0  0  0  0  0  0  0  0  0
   13.8041  -15.9744   21.2024 C   0  0  0  0  0  0  0  0  0  0  0  0
   14.4037  -16.8979   20.6356 O   0  0  0  0  0  0  0  0  0  0  0  0
   12.2648  -17.4480   24.3392 C   0  0  0  0  0  0  0  0  0  0  0  0
   11.1483  -17.1396   24.8914 O   0  0  0  0  0  0  0  0  0  0  0  0
   13.5867  -14.7975   20.4929 O   0  0  0  0  0  0  0  0  0  0  0  0
   13.2923  -17.9762   25.0906 O   0  0  0  0  0  0  0  0  0  0  0  0
  2  1  1  1
  2  3  1  0
  2 13  1  0
  3  4  1  0
  4 12  1  0
  5  6  1  0
  5  4  2  0
  6  7  1  0
  7 12  2  0
  7  8  1  0
  8  9  2  0
  9 10  1  0
 11 10  2  0
 12 11  1  0
 13 18  1  0
 14 13  2  0
 16 15  1  0
 17 16  1  6
 18 17  1  0
 19 17  1  0
 19 21  1  0
 20 19  2  0
 22 21  1  0
 22 26  1  0
 22 23  1  1
 23 24  1  0
 24 25  2  0
 26 29  1  0
 27 26  2  0
 28 24  1  0
M  END
$$$$
