WSD.pdb
     RDKit          3D

 29 30  0  0  1  0  0  0  0  0999 V2000
    7.2602  -17.6795   24.2948 N   0  0  0  0  0  0  0  0  0  0  0  0
    8.1028  -16.6366   23.8276 C   0  0  1  0  0  0  0  0  0  0  0  0
    8.4737  -15.7007   24.9541 C   0  0  0  0  0  0  0  0  0  0  0  0
    7.3559  -14.9787   25.5526 C   0  0  0  0  0  0  0  0  0  0  0  0
    6.2670  -15.5891   26.1426 C   0  0  0  0  0  0  0  0  0  0  0  0
    5.4606  -14.6217   26.6061 N   0  0  0  0  0  0  0  0  0  0  0  0
    6.0175  -13.4164   26.3203 C   0  0  0  0  0  0  0  0  0  0  0  0
    5.6100  -12.1290   26.5624 C   0  0  0  0  0  0  0  0  0  0  0  0
    6.3878  -11.0604   26.1443 C   0  0  0  0  0  0  0  0  0  0  0  0
    7.5789  -11.2476   25.4811 C   0  0  0  0  0  0  0  0  0  0  0  0
    7.9856  -12.5435   25.2395 C   0  0  0  0  0  0  0  0  0  0  0  0
    7.2170  -13.6145   25.6535 C   0  0  0  0  0  0  0  0  0  0  0  0
    9.4077  -17.1477   23.2946 C   0  0  0  0  0  0  0  0  0  0  0  0
    9.9636  -18.0497   23.9670 O   0  0  0  0  0  0  0  0  0  0  0  0
   11.5628  -15.3666   20.0593 O   0  0  0  0  0  0  0  0  0  0  0  0
   11.4996  -16.7395   20.1567 C   0  0  0  0  0  0  0  0  0  0  0  0
   11.2411  -17.2193   21.5688 C   0  0  2  0  0  0  0  0  0  0  0  0
   10.0175  -16.6771   22.1132 N   0  0  0  0  0  0  0  0  0  0  0  0
   12.3597  -16.8688   22.4754 C   0  0  0  0  0  0  0  0  0  0  0  0
   12.3249  -15.8510   23.2303 O   0  0  0  0  0  0  0  0  0  0  0  0
   13.5491  -17.6476   22.5633 N   0  0  0  0  0  0  0  0  0  0  0  0
   14.6726  -17.2102   23.4383 C   0  0  1  0  0  0  0  0  0  0  0  0
   15.2669  -18.5066   23.9341 C   0  0  0  0  0  0  0  0  0  0  0  0
   14.5614  -19.1569   25.0226 C   0  0  0  0  0  0  0  0  0  0  0  0
   14.1448  -18.5567   26.0225 O   0  0  0  0  0  0  0  0  0  0  0  0
   15.6276  -16.4246   22.6207 C   0  0  0  0  0  0  0  0  0  0  0  0
   16.6503  -15.9151   23.2047 O   0  0  0  0  0  0  0  0  0  0  0  0
   14.3414  -20.5282   24.9391 O   0  0  0  0  0  0  0  0  0  0  0  0
   15.4330  -16.2409   21.2687 O   0  0  0  0  0  0  0  0  0  0  0  0
  2  1  1  1
  2  3  1  0
  2 13  1  0
  3  4  1  0
  4 12  1  0
  5  6  1  0
  5  4  2  0
  6  7  1  0
  7 12  2  0
  7  8  1  0
  8  9  2  0
  9 10  1  0
 11 10  2  0
 12 11  1  0
 13 18  1  0
 14 13  2  0
 16 15  1  0
 17 16  1  6
 18 17  1  0
 19 17  1  0
 19 21  1  0
 20 19  2  0
 22 21  1  0
 22 26  1  0
 22 23  1  6
 23 24  1  0
 24 25  2  0
 26 29  1  0
 27 26  2  0
 28 24  1  0
M  END
$$$$
