QSK.pdb
     RDKit          3D

 25 24  0  0  1  0  0  0  0  0999 V2000
   22.9252  -21.7513  -20.2443 N   0  0  0  0  0  0  0  0  0  0  0  0
   22.3905  -21.2541  -19.0439 C   0  0  0  0  0  0  0  0  0  0  0  0
   21.1786  -21.1329  -18.8741 O   0  0  0  0  0  0  0  0  0  0  0  0
   23.3378  -20.8642  -17.9470 C   0  0  0  0  0  0  0  0  0  0  0  0
   22.9753  -19.5021  -17.4306 C   0  0  0  0  0  0  0  0  0  0  0  0
   23.3731  -18.4063  -18.4010 C   0  0  2  0  0  0  0  0  0  0  0  0
   24.8397  -18.5366  -18.6012 N   0  0  0  0  0  0  0  0  0  0  0  0
   23.0846  -17.0769  -17.8282 C   0  0  0  0  0  0  0  0  0  0  0  0
   21.9147  -16.8645  -17.3812 O   0  0  0  0  0  0  0  0  0  0  0  0
   25.6694  -13.7556  -18.1498 O   0  0  0  0  0  0  0  0  0  0  0  0
   24.8619  -13.8271  -17.0416 C   0  0  0  0  0  0  0  0  0  0  0  0
   23.6237  -14.6941  -17.3250 C   0  0  2  0  0  0  0  0  0  0  0  0
   24.0334  -16.0189  -17.7413 N   0  0  0  0  0  0  0  0  0  0  0  0
   22.7272  -14.0316  -18.2843 C   0  0  0  0  0  0  0  0  0  0  0  0
   22.8335  -14.2967  -19.5031 O   0  0  0  0  0  0  0  0  0  0  0  0
   21.7433  -13.0988  -17.8666 N   0  0  0  0  0  0  0  0  0  0  0  0
   20.9184  -12.3649  -18.8312 C   0  0  1  0  0  0  0  0  0  0  0  0
   19.8160  -11.6825  -17.9916 C   0  0  0  0  0  0  0  0  0  0  0  0
   18.8746  -10.9349  -18.8615 C   0  0  0  0  0  0  0  0  0  0  0  0
   17.7543  -10.3236  -18.0834 C   0  0  0  0  0  0  0  0  0  0  0  0
   16.7012   -9.6288  -18.8572 C   0  0  0  0  0  0  0  0  0  0  0  0
   15.6267   -9.0479  -18.0981 N   0  0  0  0  0  0  0  0  0  0  0  0
   21.7109  -11.2810  -19.4421 C   0  0  0  0  0  0  0  0  0  0  0  0
   22.8497  -10.8191  -18.8208 O   0  0  0  0  0  0  0  0  0  0  0  0
   21.3425  -10.7853  -20.5255 O   0  0  0  0  0  0  0  0  0  0  0  0
  1  2  1  0
  2  4  1  0
  2  3  2  0
  4  5  1  0
  6  5  1  0
  6  8  1  0
  6  7  1  1
  8  9  2  0
 11 10  1  0
 12 11  1  6
 13  8  1  0
 13 12  1  0
 14 15  2  0
 14 12  1  0
 16 14  1  0
 17 16  1  0
 17 18  1  1
 19 18  1  0
 20 19  1  0
 21 22  1  0
 21 20  1  0
 23 17  1  0
 23 24  1  0
 25 23  2  0
M  END
$$$$
