QSK.pdb
     RDKit          3D

 25 24  0  0  1  0  0  0  0  0999 V2000
   16.1907  -13.6080  -16.3393 N   0  0  0  0  0  0  0  0  0  0  0  0
   15.7359  -12.7963  -17.3922 C   0  0  0  0  0  0  0  0  0  0  0  0
   15.3592  -13.2715  -18.4621 O   0  0  0  0  0  0  0  0  0  0  0  0
   15.7150  -11.3093  -17.1906 C   0  0  0  0  0  0  0  0  0  0  0  0
   16.0714  -10.9900  -15.7677 C   0  0  0  0  0  0  0  0  0  0  0  0
   17.5662  -10.8054  -15.5882 C   0  0  2  0  0  0  0  0  0  0  0  0
   18.0747  -12.0660  -14.9880 N   0  0  0  0  0  0  0  0  0  0  0  0
   17.8430   -9.6892  -14.6628 C   0  0  0  0  0  0  0  0  0  0  0  0
   17.3146   -9.7306  -13.5083 O   0  0  0  0  0  0  0  0  0  0  0  0
   20.4261   -5.7475  -13.4761 O   0  0  0  0  0  0  0  0  0  0  0  0
   20.1208   -6.6828  -14.4339 C   0  0  0  0  0  0  0  0  0  0  0  0
   18.9266   -7.5451  -13.9917 C   0  0  2  0  0  0  0  0  0  0  0  0
   18.6663   -8.5715  -14.9792 N   0  0  0  0  0  0  0  0  0  0  0  0
   17.7543   -6.7073  -13.6973 C   0  0  0  0  0  0  0  0  0  0  0  0
   16.9936   -6.3707  -14.6328 O   0  0  0  0  0  0  0  0  0  0  0  0
   17.4606   -6.2689  -12.3804 N   0  0  0  0  0  0  0  0  0  0  0  0
   16.3100   -5.4067  -12.0939 C   0  0  1  0  0  0  0  0  0  0  0  0
   16.0651   -5.5420  -10.5748 C   0  0  0  0  0  0  0  0  0  0  0  0
   14.9196   -4.7018  -10.1463 C   0  0  0  0  0  0  0  0  0  0  0  0
   14.7194   -4.7362   -8.6654 C   0  0  0  0  0  0  0  0  0  0  0  0
   13.4872   -4.1065   -8.1404 C   0  0  0  0  0  0  0  0  0  0  0  0
   13.3160   -4.1270   -6.7126 N   0  0  0  0  0  0  0  0  0  0  0  0
   16.6707   -3.9969  -12.3359 C   0  0  0  0  0  0  0  0  0  0  0  0
   15.6952   -3.0730  -12.6373 O   0  0  0  0  0  0  0  0  0  0  0  0
   17.8657   -3.6472  -12.2659 O   0  0  0  0  0  0  0  0  0  0  0  0
  1  2  1  0
  2  4  1  0
  2  3  2  0
  4  5  1  0
  6  5  1  0
  6  8  1  0
  6  7  1  1
  8  9  2  0
 11 10  1  0
 12 11  1  6
 13  8  1  0
 13 12  1  0
 14 15  2  0
 14 12  1  0
 16 14  1  0
 17 16  1  0
 17 18  1  1
 19 18  1  0
 20 19  1  0
 21 22  1  0
 21 20  1  0
 23 17  1  0
 23 24  1  0
 25 23  2  0
M  END
$$$$
