QSK.pdb
     RDKit          3D

 25 24  0  0  1  0  0  0  0  0999 V2000
   18.8553  -15.8002  -18.5552 N   0  0  0  0  0  0  0  0  0  0  0  0
   19.4974  -15.3138  -19.7064 C   0  0  0  0  0  0  0  0  0  0  0  0
   19.4500  -15.9139  -20.7787 O   0  0  0  0  0  0  0  0  0  0  0  0
   20.2587  -14.0241  -19.6091 C   0  0  0  0  0  0  0  0  0  0  0  0
   20.0236  -13.4021  -18.2633 C   0  0  0  0  0  0  0  0  0  0  0  0
   21.2842  -12.7685  -17.7064 C   0  0  2  0  0  0  0  0  0  0  0  0
   21.9685  -13.8236  -16.9148 N   0  0  0  0  0  0  0  0  0  0  0  0
   20.9473  -11.6429  -16.8129 C   0  0  0  0  0  0  0  0  0  0  0  0
   20.0541  -11.8330  -15.9299 O   0  0  0  0  0  0  0  0  0  0  0  0
   22.1320   -7.8887  -14.2473 O   0  0  0  0  0  0  0  0  0  0  0  0
   22.4422   -8.9037  -15.1185 C   0  0  0  0  0  0  0  0  0  0  0  0
   21.2033   -9.3256  -15.9263 C   0  0  2  0  0  0  0  0  0  0  0  0
   21.5609  -10.3596  -16.8746 N   0  0  0  0  0  0  0  0  0  0  0  0
   20.5604   -8.1588  -16.5493 C   0  0  0  0  0  0  0  0  0  0  0  0
   21.0506   -7.6775  -17.5958 O   0  0  0  0  0  0  0  0  0  0  0  0
   19.3979   -7.5623  -15.9968 N   0  0  0  0  0  0  0  0  0  0  0  0
   18.8023   -6.3541  -16.5757 C   0  0  1  0  0  0  0  0  0  0  0  0
   17.3993   -6.2437  -15.9389 C   0  0  0  0  0  0  0  0  0  0  0  0
   16.6652   -5.0712  -16.4757 C   0  0  0  0  0  0  0  0  0  0  0  0
   15.3306   -4.8971  -15.8254 C   0  0  0  0  0  0  0  0  0  0  0  0
   14.4979   -3.7673  -16.2952 C   0  0  0  0  0  0  0  0  0  0  0  0
   13.2318   -3.5879  -15.6371 N   0  0  0  0  0  0  0  0  0  0  0  0
   19.5569   -5.1657  -16.1349 C   0  0  0  0  0  0  0  0  0  0  0  0
   19.6450   -4.0584  -16.9487 O   0  0  0  0  0  0  0  0  0  0  0  0
   20.1151   -5.1704  -15.0197 O   0  0  0  0  0  0  0  0  0  0  0  0
  1  2  1  0
  2  4  1  0
  2  3  2  0
  4  5  1  0
  6  5  1  0
  6  8  1  0
  6  7  1  1
  8  9  2  0
 11 10  1  0
 12 11  1  6
 13  8  1  0
 13 12  1  0
 14 15  2  0
 14 12  1  0
 16 14  1  0
 17 16  1  0
 17 18  1  1
 19 18  1  0
 20 19  1  0
 21 22  1  0
 21 20  1  0
 23 17  1  0
 23 24  1  0
 25 23  2  0
M  END
$$$$
