QSK.pdb
     RDKit          3D

 25 24  0  0  1  0  0  0  0  0999 V2000
   25.6642  -18.2469  -15.7216 N   0  0  0  0  0  0  0  0  0  0  0  0
   24.3496  -18.0421  -16.1734 C   0  0  0  0  0  0  0  0  0  0  0  0
   23.7818  -16.9584  -16.0489 O   0  0  0  0  0  0  0  0  0  0  0  0
   23.6309  -19.1877  -16.8242 C   0  0  0  0  0  0  0  0  0  0  0  0
   22.3646  -19.4788  -16.0724 C   0  0  0  0  0  0  0  0  0  0  0  0
   22.6431  -19.9310  -14.6516 C   0  0  2  0  0  0  0  0  0  0  0  0
   23.4504  -21.1739  -14.7585 N   0  0  0  0  0  0  0  0  0  0  0  0
   21.3819  -20.2386  -13.9491 C   0  0  0  0  0  0  0  0  0  0  0  0
   20.4596  -19.3655  -13.9757 O   0  0  0  0  0  0  0  0  0  0  0  0
   17.5229  -21.9879  -13.4109 O   0  0  0  0  0  0  0  0  0  0  0  0
   18.7895  -21.7500  -13.8848 C   0  0  0  0  0  0  0  0  0  0  0  0
   19.8097  -21.7464  -12.7340 C   0  0  2  0  0  0  0  0  0  0  0  0
   21.1312  -21.4515  -13.2468 N   0  0  0  0  0  0  0  0  0  0  0  0
   19.7460  -23.0025  -11.9718 C   0  0  0  0  0  0  0  0  0  0  0  0
   20.2734  -24.0333  -12.4477 O   0  0  0  0  0  0  0  0  0  0  0  0
   19.1024  -23.0791  -10.7098 N   0  0  0  0  0  0  0  0  0  0  0  0
   19.0636  -24.3257   -9.9390 C   0  0  1  0  0  0  0  0  0  0  0  0
   18.4913  -23.9358   -8.5583 C   0  0  0  0  0  0  0  0  0  0  0  0
   18.4410  -25.1118   -7.6549 C   0  0  0  0  0  0  0  0  0  0  0  0
   17.8131  -24.7837   -6.3387 C   0  0  0  0  0  0  0  0  0  0  0  0
   17.7054  -25.8836   -5.3542 C   0  0  0  0  0  0  0  0  0  0  0  0
   17.0917  -25.5581   -4.0950 N   0  0  0  0  0  0  0  0  0  0  0  0
   18.0943  -25.2574  -10.5462 C   0  0  0  0  0  0  0  0  0  0  0  0
   18.2767  -26.6178  -10.4358 O   0  0  0  0  0  0  0  0  0  0  0  0
   17.1079  -24.8046  -11.1605 O   0  0  0  0  0  0  0  0  0  0  0  0
  1  2  1  0
  2  4  1  0
  2  3  2  0
  4  5  1  0
  6  5  1  0
  6  8  1  0
  6  7  1  6
  8  9  2  0
 11 10  1  0
 12 11  1  6
 13  8  1  0
 13 12  1  0
 14 15  2  0
 14 12  1  0
 16 14  1  0
 17 16  1  0
 17 18  1  1
 19 18  1  0
 20 19  1  0
 21 22  1  0
 21 20  1  0
 23 17  1  0
 23 24  1  0
 25 23  2  0
M  END
$$$$
