QSK.pdb
     RDKit          3D

 25 24  0  0  1  0  0  0  0  0999 V2000
   21.9339  -21.8892  -12.6547 N   0  0  0  0  0  0  0  0  0  0  0  0
   21.1543  -22.1426  -11.5136 C   0  0  0  0  0  0  0  0  0  0  0  0
   20.2638  -22.9907  -11.5110 O   0  0  0  0  0  0  0  0  0  0  0  0
   21.4279  -21.3479  -10.2702 C   0  0  0  0  0  0  0  0  0  0  0  0
   22.5349  -20.3687  -10.5330 C   0  0  0  0  0  0  0  0  0  0  0  0
   23.8800  -21.0583  -10.6598 C   0  0  2  0  0  0  0  0  0  0  0  0
   24.5529  -20.9085   -9.3434 N   0  0  0  0  0  0  0  0  0  0  0  0
   24.7029  -20.4027  -11.6951 C   0  0  0  0  0  0  0  0  0  0  0  0
   24.7489  -19.1332  -11.7007 O   0  0  0  0  0  0  0  0  0  0  0  0
   26.9930  -22.4466  -14.5981 O   0  0  0  0  0  0  0  0  0  0  0  0
   27.3833  -21.1982  -14.1803 C   0  0  0  0  0  0  0  0  0  0  0  0
   26.1704  -20.3769  -13.7118 C   0  0  2  0  0  0  0  0  0  0  0  0
   25.4506  -21.1010  -12.6852 N   0  0  0  0  0  0  0  0  0  0  0  0
   25.3273  -19.9881  -14.8523 C   0  0  0  0  0  0  0  0  0  0  0  0
   24.3045  -20.6610  -15.1133 O   0  0  0  0  0  0  0  0  0  0  0  0
   25.6410  -18.8696  -15.6667 N   0  0  0  0  0  0  0  0  0  0  0  0
   24.8572  -18.5425  -16.8618 C   0  0  1  0  0  0  0  0  0  0  0  0
   25.0721  -17.0301  -17.0910 C   0  0  0  0  0  0  0  0  0  0  0  0
   24.2829  -16.5537  -18.2538 C   0  0  0  0  0  0  0  0  0  0  0  0
   24.5143  -15.1039  -18.5347 C   0  0  0  0  0  0  0  0  0  0  0  0
   23.8159  -14.5278  -19.7057 C   0  0  0  0  0  0  0  0  0  0  0  0
   24.0934  -13.1481  -20.0018 N   0  0  0  0  0  0  0  0  0  0  0  0
   25.4280  -19.2292  -18.0360 C   0  0  0  0  0  0  0  0  0  0  0  0
   26.7464  -19.6268  -18.0342 O   0  0  0  0  0  0  0  0  0  0  0  0
   24.7084  -19.4475  -19.0308 O   0  0  0  0  0  0  0  0  0  0  0  0
  1  2  1  0
  2  4  1  0
  2  3  2  0
  4  5  1  0
  6  5  1  0
  6  8  1  0
  6  7  1  1
  8  9  2  0
 11 10  1  0
 12 11  1  6
 13  8  1  0
 13 12  1  0
 14 15  2  0
 14 12  1  0
 16 14  1  0
 17 16  1  0
 17 18  1  6
 19 18  1  0
 20 19  1  0
 21 22  1  0
 21 20  1  0
 23 17  1  0
 23 24  1  0
 25 23  2  0
M  END
$$$$
