QSK.pdb
     RDKit          3D

 25 24  0  0  1  0  0  0  0  0999 V2000
   16.5013  -28.7286  -12.6240 N   0  0  0  0  0  0  0  0  0  0  0  0
   17.1275  -29.0538  -13.8391 C   0  0  0  0  0  0  0  0  0  0  0  0
   16.4845  -29.4003  -14.8284 O   0  0  0  0  0  0  0  0  0  0  0  0
   18.6241  -28.9711  -13.9164 C   0  0  0  0  0  0  0  0  0  0  0  0
   19.1675  -28.4651  -12.6117 C   0  0  0  0  0  0  0  0  0  0  0  0
   19.6896  -27.0459  -12.7301 C   0  0  2  0  0  0  0  0  0  0  0  0
   21.1233  -27.1572  -13.1045 N   0  0  0  0  0  0  0  0  0  0  0  0
   19.5863  -26.3460  -11.4347 C   0  0  0  0  0  0  0  0  0  0  0  0
   19.9790  -26.9610  -10.3949 O   0  0  0  0  0  0  0  0  0  0  0  0
   19.6304  -22.1734  -10.5120 O   0  0  0  0  0  0  0  0  0  0  0  0
   18.5767  -22.9462  -10.0904 C   0  0  0  0  0  0  0  0  0  0  0  0
   18.9986  -24.4196   -9.9632 C   0  0  2  0  0  0  0  0  0  0  0  0
   19.0783  -25.0254  -11.2758 N   0  0  0  0  0  0  0  0  0  0  0  0
   18.1111  -25.1421   -9.0395 C   0  0  0  0  0  0  0  0  0  0  0  0
   17.0076  -25.5619   -9.4555 O   0  0  0  0  0  0  0  0  0  0  0  0
   18.4711  -25.3771   -7.6875 N   0  0  0  0  0  0  0  0  0  0  0  0
   17.5041  -25.8860   -6.7099 C   0  0  1  0  0  0  0  0  0  0  0  0
   18.3255  -26.1760   -5.4344 C   0  0  0  0  0  0  0  0  0  0  0  0
   17.4647  -26.7468   -4.3689 C   0  0  0  0  0  0  0  0  0  0  0  0
   18.2279  -27.0130   -3.1115 C   0  0  0  0  0  0  0  0  0  0  0  0
   17.4496  -27.4713   -1.9390 C   0  0  0  0  0  0  0  0  0  0  0  0
   18.1853  -27.6666   -0.7187 N   0  0  0  0  0  0  0  0  0  0  0  0
   16.5447  -24.8223   -6.3573 C   0  0  0  0  0  0  0  0  0  0  0  0
   15.2737  -25.1454   -5.9377 O   0  0  0  0  0  0  0  0  0  0  0  0
   16.8926  -23.6276   -6.4419 O   0  0  0  0  0  0  0  0  0  0  0  0
  1  2  1  0
  2  4  1  0
  2  3  2  0
  4  5  1  0
  6  5  1  0
  6  8  1  0
  6  7  1  1
  8  9  2  0
 11 10  1  0
 12 11  1  6
 13  8  1  0
 13 12  1  0
 14 15  2  0
 14 12  1  0
 16 14  1  0
 17 16  1  0
 17 18  1  1
 19 18  1  0
 20 19  1  0
 21 22  1  0
 21 20  1  0
 23 17  1  0
 23 24  1  0
 25 23  2  0
M  END
$$$$
