QSK.pdb
     RDKit          3D

 25 24  0  0  1  0  0  0  0  0999 V2000
   25.1024  -24.0904  -13.9903 N   0  0  0  0  0  0  0  0  0  0  0  0
   25.1396  -23.1512  -15.0347 C   0  0  0  0  0  0  0  0  0  0  0  0
   25.8789  -23.2910  -16.0073 O   0  0  0  0  0  0  0  0  0  0  0  0
   24.2460  -21.9487  -14.9466 C   0  0  0  0  0  0  0  0  0  0  0  0
   23.3705  -22.0610  -13.7324 C   0  0  0  0  0  0  0  0  0  0  0  0
   21.9034  -21.8880  -14.0765 C   0  0  2  0  0  0  0  0  0  0  0  0
   21.5854  -20.4549  -13.8455 N   0  0  0  0  0  0  0  0  0  0  0  0
   21.0619  -22.7139  -13.1885 C   0  0  0  0  0  0  0  0  0  0  0  0
   21.2084  -23.9748  -13.2362 O   0  0  0  0  0  0  0  0  0  0  0  0
   19.2419  -23.8812   -9.1605 O   0  0  0  0  0  0  0  0  0  0  0  0
   19.9034  -23.0024   -9.9824 C   0  0  0  0  0  0  0  0  0  0  0  0
   19.3457  -23.0707  -11.4140 C   0  0  2  0  0  0  0  0  0  0  0  0
   20.0996  -22.1887  -12.2802 N   0  0  0  0  0  0  0  0  0  0  0  0
   17.8992  -22.8059  -11.4273 C   0  0  0  0  0  0  0  0  0  0  0  0
   17.4951  -21.6255  -11.5296 O   0  0  0  0  0  0  0  0  0  0  0  0
   16.9467  -23.8526  -11.3273 N   0  0  0  0  0  0  0  0  0  0  0  0
   15.5062  -23.5826  -11.2892 C   0  0  1  0  0  0  0  0  0  0  0  0
   14.8756  -24.5833  -12.2826 C   0  0  0  0  0  0  0  0  0  0  0  0
   13.4378  -24.2840  -12.4945 C   0  0  0  0  0  0  0  0  0  0  0  0
   12.8187  -25.1885  -13.5108 C   0  0  0  0  0  0  0  0  0  0  0  0
   11.4256  -24.8916  -13.9128 C   0  0  0  0  0  0  0  0  0  0  0  0
   10.8667  -25.7210  -14.9463 N   0  0  0  0  0  0  0  0  0  0  0  0
   14.9705  -23.9211   -9.9571 C   0  0  0  0  0  0  0  0  0  0  0  0
   13.7426  -23.4405   -9.5603 O   0  0  0  0  0  0  0  0  0  0  0  0
   15.6374  -24.6459   -9.1920 O   0  0  0  0  0  0  0  0  0  0  0  0
  1  2  1  0
  2  4  1  0
  2  3  2  0
  4  5  1  0
  6  5  1  0
  6  8  1  0
  6  7  1  1
  8  9  2  0
 11 10  1  0
 12 11  1  1
 13  8  1  0
 13 12  1  0
 14 15  2  0
 14 12  1  0
 16 14  1  0
 17 16  1  0
 17 18  1  6
 19 18  1  0
 20 19  1  0
 21 22  1  0
 21 20  1  0
 23 17  1  0
 23 24  1  0
 25 23  2  0
M  END
$$$$
