QSK.pdb
     RDKit          3D

 25 24  0  0  1  0  0  0  0  0999 V2000
   29.4786  -27.6378  -16.9227 N   0  0  0  0  0  0  0  0  0  0  0  0
   29.9598  -27.4026  -18.2216 C   0  0  0  0  0  0  0  0  0  0  0  0
   30.6056  -28.2486  -18.8377 O   0  0  0  0  0  0  0  0  0  0  0  0
   29.6694  -26.0768  -18.8623 C   0  0  0  0  0  0  0  0  0  0  0  0
   28.8253  -25.2469  -17.9392 C   0  0  0  0  0  0  0  0  0  0  0  0
   29.6562  -24.2403  -17.1666 C   0  0  2  0  0  0  0  0  0  0  0  0
   30.2259  -24.9713  -16.0050 N   0  0  0  0  0  0  0  0  0  0  0  0
   28.8072  -23.1398  -16.6697 C   0  0  0  0  0  0  0  0  0  0  0  0
   27.9379  -23.4141  -15.7849 O   0  0  0  0  0  0  0  0  0  0  0  0
   28.8415  -19.1561  -18.1235 O   0  0  0  0  0  0  0  0  0  0  0  0
   28.7385  -19.3752  -16.7720 C   0  0  0  0  0  0  0  0  0  0  0  0
   28.1121  -20.7511  -16.4896 C   0  0  2  0  0  0  0  0  0  0  0  0
   28.9018  -21.7909  -17.1153 N   0  0  0  0  0  0  0  0  0  0  0  0
   26.6961  -20.7748  -16.8860 C   0  0  0  0  0  0  0  0  0  0  0  0
   26.3785  -21.2767  -17.9880 O   0  0  0  0  0  0  0  0  0  0  0  0
   25.6777  -20.2438  -16.0531 N   0  0  0  0  0  0  0  0  0  0  0  0
   24.2802  -20.1777  -16.4914 C   0  0  1  0  0  0  0  0  0  0  0  0
   23.4607  -19.9155  -15.2086 C   0  0  0  0  0  0  0  0  0  0  0  0
   22.0073  -19.8843  -15.5060 C   0  0  0  0  0  0  0  0  0  0  0  0
   21.1882  -19.6246  -14.2829 C   0  0  0  0  0  0  0  0  0  0  0  0
   19.7194  -19.5736  -14.4578 C   0  0  0  0  0  0  0  0  0  0  0  0
   18.9447  -19.2754  -13.2834 N   0  0  0  0  0  0  0  0  0  0  0  0
   24.0852  -19.0019  -17.3606 C   0  0  0  0  0  0  0  0  0  0  0  0
   23.0681  -18.9860  -18.2887 O   0  0  0  0  0  0  0  0  0  0  0  0
   24.8480  -18.0216  -17.2492 O   0  0  0  0  0  0  0  0  0  0  0  0
  1  2  1  0
  2  4  1  0
  2  3  2  0
  4  5  1  0
  6  5  1  0
  6  8  1  0
  6  7  1  1
  8  9  2  0
 11 10  1  0
 12 11  1  6
 13  8  1  0
 13 12  1  0
 14 15  2  0
 14 12  1  0
 16 14  1  0
 17 16  1  0
 17 18  1  1
 19 18  1  0
 20 19  1  0
 21 22  1  0
 21 20  1  0
 23 17  1  0
 23 24  1  0
 25 23  2  0
M  END
$$$$
