QSK.pdb
     RDKit          3D

 25 24  0  0  1  0  0  0  0  0999 V2000
   27.3162  -23.3428  -15.6510 N   0  0  0  0  0  0  0  0  0  0  0  0
   26.1343  -24.0961  -15.5521 C   0  0  0  0  0  0  0  0  0  0  0  0
   26.1369  -25.2582  -15.1500 O   0  0  0  0  0  0  0  0  0  0  0  0
   24.8398  -23.4506  -15.9521 C   0  0  0  0  0  0  0  0  0  0  0  0
   24.0996  -23.0057  -14.7242 C   0  0  0  0  0  0  0  0  0  0  0  0
   24.8112  -21.8677  -14.0176 C   0  0  2  0  0  0  0  0  0  0  0  0
   24.0280  -21.5841  -12.7870 N   0  0  0  0  0  0  0  0  0  0  0  0
   24.8248  -20.6593  -14.8651 C   0  0  0  0  0  0  0  0  0  0  0  0
   23.7768  -19.9419  -14.8926 O   0  0  0  0  0  0  0  0  0  0  0  0
   27.8637  -19.6525  -17.5911 O   0  0  0  0  0  0  0  0  0  0  0  0
   27.3056  -18.6255  -16.8706 C   0  0  0  0  0  0  0  0  0  0  0  0
   25.8932  -19.0010  -16.3917 C   0  0  2  0  0  0  0  0  0  0  0  0
   25.9373  -20.2442  -15.6507 N   0  0  0  0  0  0  0  0  0  0  0  0
   24.9464  -19.0251  -17.5168 C   0  0  0  0  0  0  0  0  0  0  0  0
   24.7270  -20.1067  -18.1076 O   0  0  0  0  0  0  0  0  0  0  0  0
   24.2731  -17.8547  -17.9523 N   0  0  0  0  0  0  0  0  0  0  0  0
   23.3584  -17.8730  -19.0979 C   0  0  1  0  0  0  0  0  0  0  0  0
   21.9436  -17.7314  -18.4945 C   0  0  0  0  0  0  0  0  0  0  0  0
   21.3846  -19.0592  -18.1387 C   0  0  0  0  0  0  0  0  0  0  0  0
   20.0438  -18.9488  -17.4873 C   0  0  0  0  0  0  0  0  0  0  0  0
   19.3586  -20.2151  -17.1443 C   0  0  0  0  0  0  0  0  0  0  0  0
   18.1331  -20.0989  -16.4007 N   0  0  0  0  0  0  0  0  0  0  0  0
   23.5797  -16.6765  -19.9319 C   0  0  0  0  0  0  0  0  0  0  0  0
   23.1805  -16.6657  -21.2497 O   0  0  0  0  0  0  0  0  0  0  0  0
   24.1310  -15.6741  -19.4353 O   0  0  0  0  0  0  0  0  0  0  0  0
  1  2  1  0
  2  4  1  0
  2  3  2  0
  4  5  1  0
  6  5  1  0
  6  8  1  0
  6  7  1  1
  8  9  2  0
 11 10  1  0
 12 11  1  6
 13  8  1  0
 13 12  1  0
 14 15  2  0
 14 12  1  0
 16 14  1  0
 17 16  1  0
 17 18  1  1
 19 18  1  0
 20 19  1  0
 21 22  1  0
 21 20  1  0
 23 17  1  0
 23 24  1  0
 25 23  2  0
M  END
$$$$
