RGS.pdb
     RDKit          3D

 22 21  0  0  1  0  0  0  0  0999 V2000
    5.5795  -20.1400   13.2308 N   0  0  0  0  0  0  0  0  0  0  0  0
    4.6710  -19.0623   13.0310 C   0  0  0  0  0  0  0  0  0  0  0  0
    3.6124  -19.2840   12.3597 N   0  0  0  0  0  0  0  0  0  0  0  0
    4.9562  -17.7649   13.5791 N   0  0  0  0  0  0  0  0  0  0  0  0
    6.2408  -17.4614   14.0960 C   0  0  0  0  0  0  0  0  0  0  0  0
    6.5241  -17.5660   15.5308 C   0  0  0  0  0  0  0  0  0  0  0  0
    7.7993  -17.1544   16.1339 C   0  0  0  0  0  0  0  0  0  0  0  0
    9.0096  -17.9673   15.8192 C   0  0  2  0  0  0  0  0  0  0  0  0
    8.7802  -19.3853   15.7573 N   0  0  0  0  0  0  0  0  0  0  0  0
   10.0393  -17.7049   16.9211 C   0  0  0  0  0  0  0  0  0  0  0  0
   10.3662  -16.5237   17.1862 O   0  0  0  0  0  0  0  0  0  0  0  0
    2.8361  -18.6344   12.1763 N   0  0  0  0  0  0  0  0  0  0  0  0
   10.6305  -18.7514   17.6460 C   0  0  0  0  0  0  0  0  0  0  0  0
   11.6445  -18.5141   18.6785 C   0  0  0  0  0  0  0  0  0  0  0  0
   11.0904  -18.7371   20.0284 O   0  0  0  0  0  0  0  0  0  0  0  0
   10.0654  -18.1246   20.3813 O   0  0  0  0  0  0  0  0  0  0  0  0
    9.9813  -21.7439   21.3302 C   0  0  0  0  0  0  0  0  0  0  0  0
   10.9521  -21.4269   22.2650 C   0  0  2  0  0  0  0  0  0  0  0  0
   11.1844  -19.9252   22.1896 N   0  0  0  0  0  0  0  0  0  0  0  0
   11.7342  -19.6423   20.8955 C   0  0  0  0  0  0  0  0  0  0  0  0
   12.1154  -19.5349   23.2805 O   0  0  0  0  0  0  0  0  0  0  0  0
   11.7167  -19.7847   24.5949 O   0  0  0  0  0  0  0  0  0  0  0  0
  1  2  1  0
  2  3  2  0
  4  2  1  0
  4  5  1  0
  6  7  1  0
  6  5  1  0
  7  8  1  0
  8 10  1  0
  8  9  1  1
 10 12  1  0
 10 11  2  0
 12 13  1  0
 13 14  1  0
 14 19  1  0
 14 15  2  0
 16 17  1  0
 18 20  1  0
 18 17  1  6
 19 18  1  0
 20 21  1  0
 22 20  2  0
M  END
$$$$
