RGS.pdb
     RDKit          3D

 22 21  0  0  1  0  0  0  0  0999 V2000
    9.8926  -13.0536   20.5747 N   0  0  0  0  0  0  0  0  0  0  0  0
    8.7614  -12.5432   19.8769 C   0  0  0  0  0  0  0  0  0  0  0  0
    8.5878  -11.2824   19.8525 N   0  0  0  0  0  0  0  0  0  0  0  0
    7.8496  -13.4409   19.2229 N   0  0  0  0  0  0  0  0  0  0  0  0
    7.9836  -14.8447   19.3671 C   0  0  0  0  0  0  0  0  0  0  0  0
    7.9599  -15.4760   20.6902 C   0  0  0  0  0  0  0  0  0  0  0  0
    8.1329  -16.9203   20.8986 C   0  0  0  0  0  0  0  0  0  0  0  0
    9.3861  -17.5492   20.3903 C   0  0  2  0  0  0  0  0  0  0  0  0
    9.2090  -18.8495   19.8030 N   0  0  0  0  0  0  0  0  0  0  0  0
   10.3417  -17.6952   21.5772 C   0  0  0  0  0  0  0  0  0  0  0  0
   11.3346  -18.4543   21.4753 O   0  0  0  0  0  0  0  0  0  0  0  0
    7.8313  -10.7603   19.3905 N   0  0  0  0  0  0  0  0  0  0  0  0
   10.1383  -17.0021   22.7808 C   0  0  0  0  0  0  0  0  0  0  0  0
   11.0657  -17.1076   23.9119 C   0  0  0  0  0  0  0  0  0  0  0  0
   11.2060  -18.5087   24.3549 O   0  0  0  0  0  0  0  0  0  0  0  0
   10.7122  -19.4230   23.6690 O   0  0  0  0  0  0  0  0  0  0  0  0
   13.2625  -19.1416   27.7480 C   0  0  0  0  0  0  0  0  0  0  0  0
   13.3474  -20.1759   26.8318 C   0  0  1  0  0  0  0  0  0  0  0  0
   12.0835  -20.1402   25.9856 N   0  0  0  0  0  0  0  0  0  0  0  0
   11.8991  -18.7862   25.5501 C   0  0  0  0  0  0  0  0  0  0  0  0
   10.9444  -20.6113   26.8161 O   0  0  0  0  0  0  0  0  0  0  0  0
   10.9696  -21.9338   27.2628 O   0  0  0  0  0  0  0  0  0  0  0  0
  1  2  1  0
  2  3  2  0
  4  2  1  0
  4  5  1  0
  6  7  1  0
  6  5  1  0
  7  8  1  0
  8 10  1  0
  8  9  1  1
 10 12  1  0
 10 11  2  0
 12 13  1  0
 13 14  1  0
 14 19  1  0
 14 15  2  0
 16 17  1  0
 18 20  1  0
 18 17  1  6
 19 18  1  0
 20 21  1  0
 22 20  2  0
M  END
$$$$
