RGS.pdb
     RDKit          3D

 22 21  0  0  1  0  0  0  0  0999 V2000
    9.0368  -12.8180   18.1381 N   0  0  0  0  0  0  0  0  0  0  0  0
    8.5724  -13.7643   17.1812 C   0  0  0  0  0  0  0  0  0  0  0  0
    8.7093  -13.4883   15.9461 N   0  0  0  0  0  0  0  0  0  0  0  0
    7.9673  -14.9936   17.6147 N   0  0  0  0  0  0  0  0  0  0  0  0
    7.9233  -15.3361   18.9895 C   0  0  0  0  0  0  0  0  0  0  0  0
    7.2630  -14.4647   19.9665 C   0  0  0  0  0  0  0  0  0  0  0  0
    7.0929  -14.8222   21.3817 C   0  0  0  0  0  0  0  0  0  0  0  0
    7.0919  -16.2709   21.7358 C   0  0  2  0  0  0  0  0  0  0  0  0
    5.9090  -16.9847   21.3380 N   0  0  0  0  0  0  0  0  0  0  0  0
    7.2130  -16.3724   23.2584 C   0  0  0  0  0  0  0  0  0  0  0  0
    6.3235  -15.8615   23.9797 O   0  0  0  0  0  0  0  0  0  0  0  0
    8.4716  -14.0802   15.1390 N   0  0  0  0  0  0  0  0  0  0  0  0
    8.2944  -17.0227   23.8732 C   0  0  0  0  0  0  0  0  0  0  0  0
    8.3999  -17.1618   25.3292 C   0  0  0  0  0  0  0  0  0  0  0  0
    9.2898  -16.1307   25.8983 O   0  0  0  0  0  0  0  0  0  0  0  0
   10.0738  -15.5152   25.1522 O   0  0  0  0  0  0  0  0  0  0  0  0
    8.4635  -14.0268   28.9061 C   0  0  0  0  0  0  0  0  0  0  0  0
    9.7039  -13.7816   28.3422 C   0  0  1  0  0  0  0  0  0  0  0  0
   10.2853  -15.1225   27.9191 N   0  0  0  0  0  0  0  0  0  0  0  0
    9.2349  -15.8612   27.2804 C   0  0  0  0  0  0  0  0  0  0  0  0
   10.7928  -15.8213   29.1287 O   0  0  0  0  0  0  0  0  0  0  0  0
   11.8197  -15.2089   29.8496 O   0  0  0  0  0  0  0  0  0  0  0  0
  1  2  1  0
  2  3  2  0
  4  2  1  0
  4  5  1  0
  6  7  1  0
  6  5  1  0
  7  8  1  0
  8 10  1  0
  8  9  1  1
 10 12  1  0
 10 11  2  0
 12 13  1  0
 13 14  1  0
 14 19  1  0
 14 15  2  0
 16 17  1  0
 18 20  1  0
 18 17  1  6
 19 18  1  0
 20 21  1  0
 22 20  2  0
M  END
$$$$
