RGS.pdb
     RDKit          3D

 22 21  0  0  1  0  0  0  0  0999 V2000
    6.9723  -15.6102   17.1063 N   0  0  0  0  0  0  0  0  0  0  0  0
    7.4528  -14.3119   17.4389 C   0  0  0  0  0  0  0  0  0  0  0  0
    8.1229  -13.6756   16.5635 N   0  0  0  0  0  0  0  0  0  0  0  0
    7.1800  -13.7494   18.7328 N   0  0  0  0  0  0  0  0  0  0  0  0
    7.7012  -14.3457   19.9085 C   0  0  0  0  0  0  0  0  0  0  0  0
    8.7090  -15.4083   19.8363 C   0  0  0  0  0  0  0  0  0  0  0  0
    9.3125  -16.0304   21.0229 C   0  0  0  0  0  0  0  0  0  0  0  0
    8.9845  -15.4456   22.3551 C   0  0  2  0  0  0  0  0  0  0  0  0
    8.9220  -14.0094   22.3807 N   0  0  0  0  0  0  0  0  0  0  0  0
   10.0771  -15.8864   23.3325 C   0  0  0  0  0  0  0  0  0  0  0  0
   10.2327  -17.1082   23.5679 O   0  0  0  0  0  0  0  0  0  0  0  0
    8.5061  -12.7235   16.6341 N   0  0  0  0  0  0  0  0  0  0  0  0
   10.9126  -14.9597   23.9755 C   0  0  0  0  0  0  0  0  0  0  0  0
   11.9223  -15.3657   24.9585 C   0  0  0  0  0  0  0  0  0  0  0  0
   11.2920  -15.9665   26.1505 O   0  0  0  0  0  0  0  0  0  0  0  0
   10.9697  -17.1690   26.1354 O   0  0  0  0  0  0  0  0  0  0  0  0
    9.5670  -13.7884   28.9287 C   0  0  0  0  0  0  0  0  0  0  0  0
   10.4745  -14.6410   29.5338 C   0  0  1  0  0  0  0  0  0  0  0  0
   10.7652  -15.7675   28.5533 N   0  0  0  0  0  0  0  0  0  0  0  0
   11.0664  -15.1649   27.2872 C   0  0  0  0  0  0  0  0  0  0  0  0
    9.5692  -16.6464   28.4740 O   0  0  0  0  0  0  0  0  0  0  0  0
    9.2516  -17.4137   29.5963 O   0  0  0  0  0  0  0  0  0  0  0  0
  1  2  1  0
  2  3  2  0
  4  2  1  0
  4  5  1  0
  6  7  1  0
  6  5  1  0
  7  8  1  0
  8 10  1  0
  8  9  1  6
 10 12  1  0
 10 11  2  0
 12 13  1  0
 13 14  1  0
 14 19  1  0
 14 15  2  0
 16 17  1  0
 18 20  1  0
 18 17  1  1
 19 18  1  0
 20 21  1  0
 22 20  2  0
M  END
$$$$
