RGS.pdb
     RDKit          3D

 22 21  0  0  1  0  0  0  0  0999 V2000
    7.9495  -13.2172   20.4203 N   0  0  0  0  0  0  0  0  0  0  0  0
    8.7811  -12.5147   19.5028 C   0  0  0  0  0  0  0  0  0  0  0  0
    9.2820  -11.4045   19.8726 N   0  0  0  0  0  0  0  0  0  0  0  0
    9.0381  -13.0582   18.1975 N   0  0  0  0  0  0  0  0  0  0  0  0
    8.8007  -14.4282   17.9217 C   0  0  0  0  0  0  0  0  0  0  0  0
    7.8223  -15.1984   18.6959 C   0  0  0  0  0  0  0  0  0  0  0  0
    8.1924  -16.0989   19.7966 C   0  0  0  0  0  0  0  0  0  0  0  0
    9.4678  -16.8615   19.6698 C   0  0  2  0  0  0  0  0  0  0  0  0
    9.4495  -17.8996   18.6753 N   0  0  0  0  0  0  0  0  0  0  0  0
    9.7507  -17.5136   21.0255 C   0  0  0  0  0  0  0  0  0  0  0  0
    9.7538  -16.8033   22.0589 O   0  0  0  0  0  0  0  0  0  0  0  0
    9.8238  -10.7387   19.3057 N   0  0  0  0  0  0  0  0  0  0  0  0
   10.0079  -18.8882   21.1463 C   0  0  0  0  0  0  0  0  0  0  0  0
   10.1163  -19.5534   22.4487 C   0  0  0  0  0  0  0  0  0  0  0  0
   11.3588  -19.1624   23.1432 O   0  0  0  0  0  0  0  0  0  0  0  0
   12.2553  -18.5711   22.5133 O   0  0  0  0  0  0  0  0  0  0  0  0
   11.4639  -18.5728   27.0713 C   0  0  0  0  0  0  0  0  0  0  0  0
   12.4961  -19.4068   26.6769 C   0  0  2  0  0  0  0  0  0  0  0  0
   12.7332  -19.1682   25.1931 N   0  0  0  0  0  0  0  0  0  0  0  0
   11.5073  -19.4668   24.5111 C   0  0  0  0  0  0  0  0  0  0  0  0
   13.8422  -20.0496   24.7432 O   0  0  0  0  0  0  0  0  0  0  0  0
   15.1055  -19.8388   25.2988 O   0  0  0  0  0  0  0  0  0  0  0  0
  1  2  1  0
  2  3  2  0
  4  2  1  0
  4  5  1  0
  6  7  1  0
  6  5  1  0
  7  8  1  0
  8 10  1  0
  8  9  1  6
 10 12  1  0
 10 11  2  0
 12 13  1  0
 13 14  1  0
 14 19  1  0
 14 15  2  0
 16 17  1  0
 18 20  1  0
 18 17  1  1
 19 18  1  0
 20 21  1  0
 22 20  2  0
M  END
$$$$
