RGS.pdb
     RDKit          3D

 22 21  0  0  1  0  0  0  0  0999 V2000
    6.3375  -13.1864   17.9036 N   0  0  0  0  0  0  0  0  0  0  0  0
    7.4097  -13.2752   18.8361 C   0  0  0  0  0  0  0  0  0  0  0  0
    7.1324  -13.2349   20.0778 N   0  0  0  0  0  0  0  0  0  0  0  0
    8.7632  -13.4063   18.3715 N   0  0  0  0  0  0  0  0  0  0  0  0
    9.0411  -13.9200   17.0799 C   0  0  0  0  0  0  0  0  0  0  0  0
    8.3412  -15.1024   16.5681 C   0  0  0  0  0  0  0  0  0  0  0  0
    8.9281  -16.4496   16.5654 C   0  0  0  0  0  0  0  0  0  0  0  0
   10.3883  -16.5705   16.8439 C   0  0  2  0  0  0  0  0  0  0  0  0
   11.1287  -17.3054   15.8546 N   0  0  0  0  0  0  0  0  0  0  0  0
   10.5427  -17.2966   18.1826 C   0  0  0  0  0  0  0  0  0  0  0  0
   10.6991  -18.5407   18.1910 O   0  0  0  0  0  0  0  0  0  0  0  0
    7.7890  -13.2426   20.8697 N   0  0  0  0  0  0  0  0  0  0  0  0
   10.5140  -16.6082   19.4056 C   0  0  0  0  0  0  0  0  0  0  0  0
   10.5818  -17.3010   20.6963 C   0  0  0  0  0  0  0  0  0  0  0  0
   11.6630  -16.7518   21.5380 O   0  0  0  0  0  0  0  0  0  0  0  0
   12.4449  -15.9081   21.0615 O   0  0  0  0  0  0  0  0  0  0  0  0
   10.9894  -17.3586   25.1196 C   0  0  0  0  0  0  0  0  0  0  0  0
   12.2942  -16.8995   25.1787 C   0  0  2  0  0  0  0  0  0  0  0  0
   12.7250  -16.5663   23.7580 N   0  0  0  0  0  0  0  0  0  0  0  0
   11.7902  -17.1943   22.8698 C   0  0  0  0  0  0  0  0  0  0  0  0
   14.1067  -17.0733   23.5512 O   0  0  0  0  0  0  0  0  0  0  0  0
   14.2865  -18.1149   22.6390 O   0  0  0  0  0  0  0  0  0  0  0  0
  1  2  1  0
  2  3  2  0
  4  2  1  0
  4  5  1  0
  6  7  1  0
  6  5  1  0
  7  8  1  0
  8 10  1  0
  8  9  1  6
 10 12  1  0
 10 11  2  0
 12 13  1  0
 13 14  1  0
 14 19  1  0
 14 15  2  0
 16 17  1  0
 18 20  1  0
 18 17  1  1
 19 18  1  0
 20 21  1  0
 22 20  2  0
M  END
$$$$
