RGS.pdb
     RDKit          3D

 22 21  0  0  1  0  0  0  0  0999 V2000
    7.5308  -11.7305   20.2025 N   0  0  0  0  0  0  0  0  0  0  0  0
    7.1966  -12.6548   19.1725 C   0  0  0  0  0  0  0  0  0  0  0  0
    6.1298  -13.3376   19.2994 N   0  0  0  0  0  0  0  0  0  0  0  0
    8.0516  -12.8010   18.0268 N   0  0  0  0  0  0  0  0  0  0  0  0
    9.4192  -13.1409   18.1799 C   0  0  0  0  0  0  0  0  0  0  0  0
    9.8946  -13.8509   19.3714 C   0  0  0  0  0  0  0  0  0  0  0  0
   11.2939  -14.2556   19.5653 C   0  0  0  0  0  0  0  0  0  0  0  0
   11.8039  -15.3986   18.7543 C   0  0  2  0  0  0  0  0  0  0  0  0
   10.9372  -16.5454   18.7226 N   0  0  0  0  0  0  0  0  0  0  0  0
   13.1392  -15.8348   19.3628 C   0  0  0  0  0  0  0  0  0  0  0  0
   13.1391  -16.5677   20.3803 O   0  0  0  0  0  0  0  0  0  0  0  0
    5.7758  -14.0736   18.6738 N   0  0  0  0  0  0  0  0  0  0  0  0
   14.3680  -15.4367   18.8135 C   0  0  0  0  0  0  0  0  0  0  0  0
   15.6512  -15.9267   19.3271 C   0  0  0  0  0  0  0  0  0  0  0  0
   15.8367  -15.5479   20.7417 O   0  0  0  0  0  0  0  0  0  0  0  0
   16.2268  -14.3999   21.0249 O   0  0  0  0  0  0  0  0  0  0  0  0
   14.5870  -15.9539   25.1497 C   0  0  0  0  0  0  0  0  0  0  0  0
   14.4060  -16.2809   23.8166 C   0  0  2  0  0  0  0  0  0  0  0  0
   15.7589  -16.1628   23.1306 N   0  0  0  0  0  0  0  0  0  0  0  0
   15.5678  -16.4962   21.7488 C   0  0  0  0  0  0  0  0  0  0  0  0
   16.7091  -17.0929   23.7949 O   0  0  0  0  0  0  0  0  0  0  0  0
   17.1644  -16.7545   25.0706 O   0  0  0  0  0  0  0  0  0  0  0  0
  1  2  1  0
  2  3  2  0
  4  2  1  0
  4  5  1  0
  6  7  1  0
  6  5  1  0
  7  8  1  0
  8 10  1  0
  8  9  1  1
 10 12  1  0
 10 11  2  0
 12 13  1  0
 13 14  1  0
 14 19  1  0
 14 15  2  0
 16 17  1  0
 18 20  1  0
 18 17  1  6
 19 18  1  0
 20 21  1  0
 22 20  2  0
M  END
$$$$
