RGS.pdb
     RDKit          3D

 22 21  0  0  1  0  0  0  0  0999 V2000
   11.1308  -14.1072   20.2840 N   0  0  0  0  0  0  0  0  0  0  0  0
   10.8427  -14.0130   18.8929 C   0  0  0  0  0  0  0  0  0  0  0  0
   11.6955  -14.4758   18.0690 N   0  0  0  0  0  0  0  0  0  0  0  0
    9.6175  -13.4085   18.4475 N   0  0  0  0  0  0  0  0  0  0  0  0
    8.7534  -12.7583   19.3639 C   0  0  0  0  0  0  0  0  0  0  0  0
    7.5428  -13.4183   19.8626 C   0  0  0  0  0  0  0  0  0  0  0  0
    7.4427  -14.0166   21.2011 C   0  0  0  0  0  0  0  0  0  0  0  0
    7.5938  -15.4961   21.3124 C   0  0  2  0  0  0  0  0  0  0  0  0
    6.4939  -16.2532   20.7794 N   0  0  0  0  0  0  0  0  0  0  0  0
    7.7212  -15.8349   22.7998 C   0  0  0  0  0  0  0  0  0  0  0  0
    6.7169  -15.7236   23.5423 O   0  0  0  0  0  0  0  0  0  0  0  0
   11.7069  -14.3645   17.0463 N   0  0  0  0  0  0  0  0  0  0  0  0
    8.9337  -16.2678   23.3591 C   0  0  0  0  0  0  0  0  0  0  0  0
    9.0519  -16.6565   24.7681 C   0  0  0  0  0  0  0  0  0  0  0  0
    9.6796  -15.5837   25.5644 O   0  0  0  0  0  0  0  0  0  0  0  0
   10.2322  -14.6305   24.9845 O   0  0  0  0  0  0  0  0  0  0  0  0
    8.7132  -13.7066   28.2702 C   0  0  0  0  0  0  0  0  0  0  0  0
   10.0744  -13.5806   28.0508 C   0  0  1  0  0  0  0  0  0  0  0  0
   10.6201  -14.9712   27.7624 N   0  0  0  0  0  0  0  0  0  0  0  0
    9.6413  -15.6587   26.9711 C   0  0  0  0  0  0  0  0  0  0  0  0
   10.8654  -15.6611   29.0559 O   0  0  0  0  0  0  0  0  0  0  0  0
   11.7523  -15.0629   29.9530 O   0  0  0  0  0  0  0  0  0  0  0  0
  1  2  1  0
  2  3  2  0
  4  2  1  0
  4  5  1  0
  6  7  1  0
  6  5  1  0
  7  8  1  0
  8 10  1  0
  8  9  1  1
 10 12  1  0
 10 11  2  0
 12 13  1  0
 13 14  1  0
 14 19  1  0
 14 15  2  0
 16 17  1  0
 18 20  1  0
 18 17  1  6
 19 18  1  0
 20 21  1  0
 22 20  2  0
M  END
$$$$
