RGS.pdb
     RDKit          3D

 22 21  0  0  1  0  0  0  0  0999 V2000
    7.8627  -13.3619   15.1015 N   0  0  0  0  0  0  0  0  0  0  0  0
    8.4419  -13.7645   16.3382 C   0  0  0  0  0  0  0  0  0  0  0  0
    8.9398  -14.9333   16.4174 N   0  0  0  0  0  0  0  0  0  0  0  0
    8.4559  -12.8635   17.4576 N   0  0  0  0  0  0  0  0  0  0  0  0
    8.5679  -13.3535   18.7830 C   0  0  0  0  0  0  0  0  0  0  0  0
    7.6440  -14.3703   19.2953 C   0  0  0  0  0  0  0  0  0  0  0  0
    7.7127  -14.9085   20.6609 C   0  0  0  0  0  0  0  0  0  0  0  0
    9.0632  -15.0968   21.2650 C   0  0  2  0  0  0  0  0  0  0  0  0
   10.0882  -15.4833   20.3338 N   0  0  0  0  0  0  0  0  0  0  0  0
    8.9456  -16.2000   22.3198 C   0  0  0  0  0  0  0  0  0  0  0  0
    8.0570  -16.1142   23.2004 O   0  0  0  0  0  0  0  0  0  0  0  0
    9.3918  -15.3708   17.2315 N   0  0  0  0  0  0  0  0  0  0  0  0
    9.8065  -17.3086   22.3304 C   0  0  0  0  0  0  0  0  0  0  0  0
    9.6884  -18.3827   23.3218 C   0  0  0  0  0  0  0  0  0  0  0  0
   10.8898  -18.4511   24.1768 O   0  0  0  0  0  0  0  0  0  0  0  0
   11.7659  -17.5720   24.0777 O   0  0  0  0  0  0  0  0  0  0  0  0
   11.5607  -18.2139   28.3854 C   0  0  0  0  0  0  0  0  0  0  0  0
   10.8826  -18.3995   27.1927 C   0  0  2  0  0  0  0  0  0  0  0  0
   11.7262  -19.3246   26.3281 N   0  0  0  0  0  0  0  0  0  0  0  0
   11.0229  -19.5138   25.0925 C   0  0  0  0  0  0  0  0  0  0  0  0
   11.9178  -20.6072   27.0544 O   0  0  0  0  0  0  0  0  0  0  0  0
   12.9448  -20.6721   27.9979 O   0  0  0  0  0  0  0  0  0  0  0  0
  1  2  1  0
  2  3  2  0
  4  2  1  0
  4  5  1  0
  6  7  1  0
  6  5  1  0
  7  8  1  0
  8 10  1  0
  8  9  1  6
 10 12  1  0
 10 11  2  0
 12 13  1  0
 13 14  1  0
 14 19  1  0
 14 15  2  0
 16 17  1  0
 18 20  1  0
 18 17  1  6
 19 18  1  0
 20 21  1  0
 22 20  2  0
M  END
$$$$
