RGS.pdb
     RDKit          3D

 22 21  0  0  1  0  0  0  0  0999 V2000
    6.9465  -12.3619   16.6507 N   0  0  0  0  0  0  0  0  0  0  0  0
    7.7925  -13.4304   16.2391 C   0  0  0  0  0  0  0  0  0  0  0  0
    7.5208  -14.0273   15.1481 N   0  0  0  0  0  0  0  0  0  0  0  0
    8.9191  -13.8125   17.0453 N   0  0  0  0  0  0  0  0  0  0  0  0
    8.7660  -14.0727   18.4303 C   0  0  0  0  0  0  0  0  0  0  0  0
    7.4546  -14.3986   18.9995 C   0  0  0  0  0  0  0  0  0  0  0  0
    7.2652  -14.8452   20.3866 C   0  0  0  0  0  0  0  0  0  0  0  0
    8.2023  -15.8771   20.9171 C   0  0  2  0  0  0  0  0  0  0  0  0
    7.5923  -17.1441   21.2164 N   0  0  0  0  0  0  0  0  0  0  0  0
    8.8060  -15.3279   22.2122 C   0  0  0  0  0  0  0  0  0  0  0  0
    8.9818  -14.0920   22.3311 O   0  0  0  0  0  0  0  0  0  0  0  0
    8.0431  -14.7939   14.7034 N   0  0  0  0  0  0  0  0  0  0  0  0
    9.1699  -16.1702   23.2745 C   0  0  0  0  0  0  0  0  0  0  0  0
    9.8523  -15.6701   24.4724 C   0  0  0  0  0  0  0  0  0  0  0  0
   10.1917  -16.7749   25.3906 O   0  0  0  0  0  0  0  0  0  0  0  0
    9.5848  -16.8840   26.4722 O   0  0  0  0  0  0  0  0  0  0  0  0
   11.7231  -19.9507   23.9164 C   0  0  0  0  0  0  0  0  0  0  0  0
   11.2849  -20.0603   25.2251 C   0  0  1  0  0  0  0  0  0  0  0  0
   11.5873  -18.7406   25.9191 N   0  0  0  0  0  0  0  0  0  0  0  0
   11.1999  -17.6887   25.0244 C   0  0  0  0  0  0  0  0  0  0  0  0
   13.0399  -18.6914   26.2304 O   0  0  0  0  0  0  0  0  0  0  0  0
   13.8005  -17.6902   25.6236 O   0  0  0  0  0  0  0  0  0  0  0  0
  1  2  1  0
  2  3  2  0
  4  2  1  0
  4  5  1  0
  6  7  1  0
  6  5  1  0
  7  8  1  0
  8 10  1  0
  8  9  1  1
 10 12  1  0
 10 11  2  0
 12 13  1  0
 13 14  1  0
 14 19  1  0
 14 15  2  0
 16 17  1  0
 18 20  1  0
 18 17  1  1
 19 18  1  0
 20 21  1  0
 22 20  2  0
M  END
$$$$
