CVE.pdb
     RDKit          3D

 23 22  0  0  1  0  0  0  0  0999 V2000
   27.7712  -12.4183  -18.1928 N   0  0  0  0  0  0  0  0  0  0  0  0
   26.6799  -12.2661  -17.2807 C   0  0  1  0  0  0  0  0  0  0  0  0
   27.2458  -12.0239  -15.8963 C   0  0  0  0  0  0  0  0  0  0  0  0
   28.0926  -13.4844  -15.2575 S   0  0  0  0  0  0  0  0  0  0  0  0
   25.8494  -11.0538  -17.6102 C   0  0  0  0  0  0  0  0  0  0  0  0
   26.4042  -10.0172  -18.0556 O   0  0  0  0  0  0  0  0  0  0  0  0
   21.3709   -9.5957  -18.9727 C   0  0  0  0  0  0  0  0  0  0  0  0
   22.5181  -10.5160  -18.7310 C   0  0  1  0  0  0  0  0  0  0  0  0
   23.1203  -10.9182  -20.0612 C   0  0  0  0  0  0  0  0  0  0  0  0
   23.5964   -9.9439  -17.8628 C   0  0  2  0  0  0  0  0  0  0  0  0
   24.4500  -11.0354  -17.4359 N   0  0  0  0  0  0  0  0  0  0  0  0
   23.0095   -9.2602  -16.6764 C   0  0  0  0  0  0  0  0  0  0  0  0
   22.5397   -9.8892  -15.6962 O   0  0  0  0  0  0  0  0  0  0  0  0
   22.9584   -7.8446  -16.6079 N   0  0  0  0  0  0  0  0  0  0  0  0
   22.3262   -7.1948  -15.4768 C   0  0  1  0  0  0  0  0  0  0  0  0
   22.6542   -5.7205  -15.4191 C   0  0  0  0  0  0  0  0  0  0  0  0
   21.9104   -5.0490  -14.2698 C   0  0  0  0  0  0  0  0  0  0  0  0
   22.0758   -3.5771  -14.3180 C   0  0  0  0  0  0  0  0  0  0  0  0
   22.9036   -3.0965  -15.1111 O   0  0  0  0  0  0  0  0  0  0  0  0
   20.8760   -7.4413  -15.5582 C   0  0  0  0  0  0  0  0  0  0  0  0
   20.0947   -7.6862  -14.4188 O   0  0  0  0  0  0  0  0  0  0  0  0
   21.3451   -2.7160  -13.5151 O   0  0  0  0  0  0  0  0  0  0  0  0
   20.2657   -7.4444  -16.6550 O   0  0  0  0  0  0  0  0  0  0  0  0
  2  1  1  6
  3  2  1  0
  4  3  1  0
  5  2  1  0
  6  5  2  0
  8  9  1  6
  8  7  1  0
 10  8  1  0
 10 11  1  1
 11  5  1  0
 12 10  1  0
 13 12  2  0
 14 12  1  0
 15 14  1  0
 15 16  1  6
 17 16  1  0
 18 17  1  0
 19 18  2  0
 20 15  1  0
 20 21  1  0
 22 18  1  0
 23 20  2  0
M  END
$$$$
