CVE.pdb
     RDKit          3D

 23 22  0  0  1  0  0  0  0  0999 V2000
   20.2519  -13.7039  -17.1024 N   0  0  0  0  0  0  0  0  0  0  0  0
   20.3574  -12.3252  -17.4690 C   0  0  1  0  0  0  0  0  0  0  0  0
   18.9778  -11.8253  -17.8463 C   0  0  0  0  0  0  0  0  0  0  0  0
   18.3800  -12.5996  -19.3633 S   0  0  0  0  0  0  0  0  0  0  0  0
   20.8057  -11.4775  -16.3080 C   0  0  0  0  0  0  0  0  0  0  0  0
   20.2539  -11.6103  -15.1861 O   0  0  0  0  0  0  0  0  0  0  0  0
   24.1674  -11.2440  -14.8150 C   0  0  0  0  0  0  0  0  0  0  0  0
   23.7619   -9.8604  -15.1924 C   0  0  1  0  0  0  0  0  0  0  0  0
   24.4453   -9.4794  -16.4892 C   0  0  0  0  0  0  0  0  0  0  0  0
   22.2842   -9.6707  -15.3481 C   0  0  2  0  0  0  0  0  0  0  0  0
   21.8377  -10.5242  -16.4317 N   0  0  0  0  0  0  0  0  0  0  0  0
   21.9655   -8.2480  -15.6538 C   0  0  0  0  0  0  0  0  0  0  0  0
   22.0956   -7.7567  -16.8022 O   0  0  0  0  0  0  0  0  0  0  0  0
   21.4936   -7.3771  -14.6388 N   0  0  0  0  0  0  0  0  0  0  0  0
   21.1511   -6.0058  -14.9602 C   0  0  1  0  0  0  0  0  0  0  0  0
   19.6680   -5.7491  -14.8230 C   0  0  0  0  0  0  0  0  0  0  0  0
   19.3337   -4.3113  -15.2051 C   0  0  0  0  0  0  0  0  0  0  0  0
   17.8921   -4.0303  -15.0066 C   0  0  0  0  0  0  0  0  0  0  0  0
   17.4970   -2.8550  -15.0943 O   0  0  0  0  0  0  0  0  0  0  0  0
   21.9531   -5.1190  -14.0995 C   0  0  0  0  0  0  0  0  0  0  0  0
   22.6045   -5.5850  -12.9474 O   0  0  0  0  0  0  0  0  0  0  0  0
   16.9681   -5.0246  -14.7276 O   0  0  0  0  0  0  0  0  0  0  0  0
   22.0936   -3.8982  -14.3554 O   0  0  0  0  0  0  0  0  0  0  0  0
  2  1  1  1
  3  2  1  0
  4  3  1  0
  5  2  1  0
  6  5  2  0
  8  9  1  6
  8  7  1  0
 10  8  1  0
 10 11  1  6
 11  5  1  0
 12 10  1  0
 13 12  2  0
 14 12  1  0
 15 14  1  0
 15 16  1  1
 17 16  1  0
 18 17  1  0
 19 18  2  0
 20 15  1  0
 20 21  1  0
 22 18  1  0
 23 20  2  0
M  END
$$$$
