CVE.pdb
     RDKit          3D

 23 22  0  0  1  0  0  0  0  0999 V2000
   20.0541  -15.9990  -16.9196 N   0  0  0  0  0  0  0  0  0  0  0  0
   19.4847  -14.7100  -17.1651 C   0  0  1  0  0  0  0  0  0  0  0  0
   18.2175  -14.5843  -16.3442 C   0  0  0  0  0  0  0  0  0  0  0  0
   16.9400  -15.7267  -16.9109 S   0  0  0  0  0  0  0  0  0  0  0  0
   20.3958  -13.6056  -16.6984 C   0  0  0  0  0  0  0  0  0  0  0  0
   20.9881  -13.7073  -15.5941 O   0  0  0  0  0  0  0  0  0  0  0  0
   23.4330  -12.1623  -18.2633 C   0  0  0  0  0  0  0  0  0  0  0  0
   22.4552  -11.0543  -18.0696 C   0  0  1  0  0  0  0  0  0  0  0  0
   21.7597  -10.7706  -19.3848 C   0  0  0  0  0  0  0  0  0  0  0  0
   21.4198  -11.3209  -17.0204 C   0  0  2  0  0  0  0  0  0  0  0  0
   20.6144  -12.4418  -17.4645 N   0  0  0  0  0  0  0  0  0  0  0  0
   20.5587  -10.1229  -16.8143 C   0  0  0  0  0  0  0  0  0  0  0  0
   19.4646   -9.9650  -17.4103 O   0  0  0  0  0  0  0  0  0  0  0  0
   20.9499   -9.0947  -15.9193 N   0  0  0  0  0  0  0  0  0  0  0  0
   20.0486   -7.9949  -15.6382 C   0  0  1  0  0  0  0  0  0  0  0  0
   18.7404   -8.4748  -15.0527 C   0  0  0  0  0  0  0  0  0  0  0  0
   17.8267   -7.2950  -14.7396 C   0  0  0  0  0  0  0  0  0  0  0  0
   16.5333   -7.7576  -14.1834 C   0  0  0  0  0  0  0  0  0  0  0  0
   16.5458   -8.5139  -13.1969 O   0  0  0  0  0  0  0  0  0  0  0  0
   20.7440   -7.0479  -14.7494 C   0  0  0  0  0  0  0  0  0  0  0  0
   20.2556   -5.7553  -14.5061 O   0  0  0  0  0  0  0  0  0  0  0  0
   15.3118   -7.3811  -14.7186 O   0  0  0  0  0  0  0  0  0  0  0  0
   21.8119   -7.3520  -14.1639 O   0  0  0  0  0  0  0  0  0  0  0  0
  2  1  1  1
  3  2  1  0
  4  3  1  0
  5  2  1  0
  6  5  2  0
  8  9  1  6
  8  7  1  0
 10  8  1  0
 10 11  1  6
 11  5  1  0
 12 10  1  0
 13 12  2  0
 14 12  1  0
 15 14  1  0
 15 16  1  1
 17 16  1  0
 18 17  1  0
 19 18  2  0
 20 15  1  0
 20 21  1  0
 22 18  1  0
 23 20  2  0
M  END
$$$$
