CVE.pdb
     RDKit          3D

 23 22  0  0  1  0  0  0  0  0999 V2000
   28.7231  -21.1590  -15.9427 N   0  0  0  0  0  0  0  0  0  0  0  0
   28.1796  -20.2800  -14.9537 C   0  0  1  0  0  0  0  0  0  0  0  0
   27.6825  -19.0291  -15.6492 C   0  0  0  0  0  0  0  0  0  0  0  0
   29.0340  -17.8925  -16.0231 S   0  0  0  0  0  0  0  0  0  0  0  0
   26.9792  -20.8859  -14.2758 C   0  0  0  0  0  0  0  0  0  0  0  0
   26.1497  -21.5501  -14.9478 O   0  0  0  0  0  0  0  0  0  0  0  0
   26.1608  -19.7321  -10.2852 C   0  0  0  0  0  0  0  0  0  0  0  0
   25.7877  -21.1009  -10.7417 C   0  0  1  0  0  0  0  0  0  0  0  0
   24.5365  -21.5435  -10.0121 C   0  0  0  0  0  0  0  0  0  0  0  0
   25.5568  -21.2182  -12.2171 C   0  0  2  0  0  0  0  0  0  0  0  0
   26.7448  -20.7348  -12.8933 N   0  0  0  0  0  0  0  0  0  0  0  0
   24.3717  -20.4153  -12.6298 C   0  0  0  0  0  0  0  0  0  0  0  0
   24.3952  -19.1618  -12.7022 O   0  0  0  0  0  0  0  0  0  0  0  0
   23.1477  -21.0492  -12.9632 N   0  0  0  0  0  0  0  0  0  0  0  0
   22.0425  -20.2672  -13.4807 C   0  0  1  0  0  0  0  0  0  0  0  0
   22.0205  -20.2549  -14.9919 C   0  0  0  0  0  0  0  0  0  0  0  0
   20.8750  -19.3897  -15.5058 C   0  0  0  0  0  0  0  0  0  0  0  0
   20.7805  -19.4562  -16.9833 C   0  0  0  0  0  0  0  0  0  0  0  0
   21.5310  -20.2370  -17.5935 O   0  0  0  0  0  0  0  0  0  0  0  0
   20.7947  -20.8022  -12.9086 C   0  0  0  0  0  0  0  0  0  0  0  0
   20.6394  -22.1606  -12.5934 O   0  0  0  0  0  0  0  0  0  0  0  0
   19.8897  -18.6835  -17.7110 O   0  0  0  0  0  0  0  0  0  0  0  0
   19.8053  -20.0663  -12.6741 O   0  0  0  0  0  0  0  0  0  0  0  0
  2  1  1  6
  3  2  1  0
  4  3  1  0
  5  2  1  0
  6  5  2  0
  8  9  1  1
  8  7  1  0
 10  8  1  0
 10 11  1  6
 11  5  1  0
 12 10  1  0
 13 12  2  0
 14 12  1  0
 15 14  1  0
 15 16  1  6
 17 16  1  0
 18 17  1  0
 19 18  2  0
 20 15  1  0
 20 21  1  0
 22 18  1  0
 23 20  2  0
M  END
$$$$
