CVE.pdb
     RDKit          3D

 23 22  0  0  1  0  0  0  0  0999 V2000
   25.5869  -14.1051  -17.3430 N   0  0  0  0  0  0  0  0  0  0  0  0
   25.3725  -13.0094  -16.4488 C   0  0  1  0  0  0  0  0  0  0  0  0
   26.7038  -12.3309  -16.1983 C   0  0  0  0  0  0  0  0  0  0  0  0
   27.8571  -13.4223  -15.3397 S   0  0  0  0  0  0  0  0  0  0  0  0
   24.4794  -11.9631  -17.0614 C   0  0  0  0  0  0  0  0  0  0  0  0
   24.1783  -12.0326  -18.2801 O   0  0  0  0  0  0  0  0  0  0  0  0
   22.0289  -11.8488  -18.1943 C   0  0  0  0  0  0  0  0  0  0  0  0
   21.7487  -10.7800  -17.1941 C   0  0  1  0  0  0  0  0  0  0  0  0
   21.1488  -11.4071  -15.9528 C   0  0  0  0  0  0  0  0  0  0  0  0
   22.9479   -9.9736  -16.7998 C   0  0  2  0  0  0  0  0  0  0  0  0
   23.9586  -10.8899  -16.3089 N   0  0  0  0  0  0  0  0  0  0  0  0
   22.5940   -8.9879  -15.7403 C   0  0  0  0  0  0  0  0  0  0  0  0
   22.6508   -9.2605  -14.5158 O   0  0  0  0  0  0  0  0  0  0  0  0
   22.1711   -7.6780  -16.0817 N   0  0  0  0  0  0  0  0  0  0  0  0
   21.9806   -6.6832  -15.0448 C   0  0  1  0  0  0  0  0  0  0  0  0
   22.0751   -5.2767  -15.5899 C   0  0  0  0  0  0  0  0  0  0  0  0
   21.7058   -4.2584  -14.5168 C   0  0  0  0  0  0  0  0  0  0  0  0
   21.6081   -2.8949  -15.0894 C   0  0  0  0  0  0  0  0  0  0  0  0
   21.9342   -2.7229  -16.2766 O   0  0  0  0  0  0  0  0  0  0  0  0
   20.6855   -6.9432  -14.3923 C   0  0  0  0  0  0  0  0  0  0  0  0
   20.4622   -6.6614  -13.0361 O   0  0  0  0  0  0  0  0  0  0  0  0
   21.1683   -1.8053  -14.3549 O   0  0  0  0  0  0  0  0  0  0  0  0
   19.7144   -7.4314  -15.0201 O   0  0  0  0  0  0  0  0  0  0  0  0
  2  1  1  6
  3  2  1  0
  4  3  1  0
  5  2  1  0
  6  5  2  0
  8  9  1  1
  8  7  1  0
 10  8  1  0
 10 11  1  1
 11  5  1  0
 12 10  1  0
 13 12  2  0
 14 12  1  0
 15 14  1  0
 15 16  1  6
 17 16  1  0
 18 17  1  0
 19 18  2  0
 20 15  1  0
 20 21  1  0
 22 18  1  0
 23 20  2  0
M  END
$$$$
