CVE.pdb
     RDKit          3D

 23 22  0  0  1  0  0  0  0  0999 V2000
   14.4198  -10.1452   -8.4570 N   0  0  0  0  0  0  0  0  0  0  0  0
   14.2421   -9.3250   -9.6153 C   0  0  1  0  0  0  0  0  0  0  0  0
   13.7283   -7.9720   -9.1673 C   0  0  0  0  0  0  0  0  0  0  0  0
   12.1362   -8.1081   -8.3278 S   0  0  0  0  0  0  0  0  0  0  0  0
   15.5506   -9.0644  -10.3137 C   0  0  0  0  0  0  0  0  0  0  0  0
   16.5621   -8.7328   -9.6446 O   0  0  0  0  0  0  0  0  0  0  0  0
   17.5788  -11.4121  -12.2934 C   0  0  0  0  0  0  0  0  0  0  0  0
   17.2449  -10.2503  -13.1653 C   0  0  1  0  0  0  0  0  0  0  0  0
   16.0573  -10.6077  -14.0347 C   0  0  0  0  0  0  0  0  0  0  0  0
   16.9389   -8.9872  -12.4205 C   0  0  2  0  0  0  0  0  0  0  0  0
   15.6883   -9.1797  -11.7126 N   0  0  0  0  0  0  0  0  0  0  0  0
   16.8222   -7.8372  -13.3604 C   0  0  0  0  0  0  0  0  0  0  0  0
   15.7151   -7.3583  -13.7100 O   0  0  0  0  0  0  0  0  0  0  0  0
   17.9802   -7.2276  -13.9067 N   0  0  0  0  0  0  0  0  0  0  0  0
   17.8523   -6.0771  -14.7790 C   0  0  1  0  0  0  0  0  0  0  0  0
   17.1823   -4.9148  -14.0830 C   0  0  0  0  0  0  0  0  0  0  0  0
   17.1808   -3.6806  -14.9783 C   0  0  0  0  0  0  0  0  0  0  0  0
   16.5368   -2.5319  -14.2985 C   0  0  0  0  0  0  0  0  0  0  0  0
   16.1461   -2.6758  -13.1272 O   0  0  0  0  0  0  0  0  0  0  0  0
   19.1936   -5.7300  -15.2798 C   0  0  0  0  0  0  0  0  0  0  0  0
   19.3827   -4.9424  -16.4255 O   0  0  0  0  0  0  0  0  0  0  0  0
   16.3529   -1.3050  -14.9159 O   0  0  0  0  0  0  0  0  0  0  0  0
   20.2373   -6.1232  -14.7038 O   0  0  0  0  0  0  0  0  0  0  0  0
  2  1  1  1
  3  2  1  0
  4  3  1  0
  5  2  1  0
  6  5  2  0
  8  9  1  1
  8  7  1  0
 10  8  1  0
 10 11  1  6
 11  5  1  0
 12 10  1  0
 13 12  2  0
 14 12  1  0
 15 14  1  0
 15 16  1  1
 17 16  1  0
 18 17  1  0
 19 18  2  0
 20 15  1  0
 20 21  1  0
 22 18  1  0
 23 20  2  0
M  END
$$$$
