CVE.pdb
     RDKit          3D

 23 22  0  0  1  0  0  0  0  0999 V2000
   22.6664  -13.7229  -18.5119 N   0  0  0  0  0  0  0  0  0  0  0  0
   22.8702  -12.3071  -18.5151 C   0  0  1  0  0  0  0  0  0  0  0  0
   22.3570  -11.7545  -19.8291 C   0  0  0  0  0  0  0  0  0  0  0  0
   23.3325  -12.3464  -21.2277 S   0  0  0  0  0  0  0  0  0  0  0  0
   22.0672  -11.6308  -17.4355 C   0  0  0  0  0  0  0  0  0  0  0  0
   20.8921  -12.0101  -17.1989 O   0  0  0  0  0  0  0  0  0  0  0  0
   21.9594  -12.0684  -14.2286 C   0  0  0  0  0  0  0  0  0  0  0  0
   22.3108  -10.6218  -14.3002 C   0  0  1  0  0  0  0  0  0  0  0  0
   23.8091  -10.4667  -14.1417 C   0  0  0  0  0  0  0  0  0  0  0  0
   21.8836   -9.9445  -15.5661 C   0  0  2  0  0  0  0  0  0  0  0  0
   22.5904  -10.5708  -16.6663 N   0  0  0  0  0  0  0  0  0  0  0  0
   22.2004   -8.4896  -15.5175 C   0  0  0  0  0  0  0  0  0  0  0  0
   23.3146   -8.0274  -15.8669 O   0  0  0  0  0  0  0  0  0  0  0  0
   21.2363   -7.5530  -15.0656 N   0  0  0  0  0  0  0  0  0  0  0  0
   21.5200   -6.1328  -15.1254 C   0  0  1  0  0  0  0  0  0  0  0  0
   20.3301   -5.3413  -15.6175 C   0  0  0  0  0  0  0  0  0  0  0  0
   20.6564   -3.8526  -15.6631 C   0  0  0  0  0  0  0  0  0  0  0  0
   19.5045   -3.0715  -16.1723 C   0  0  0  0  0  0  0  0  0  0  0  0
   18.4761   -3.6808  -16.5135 O   0  0  0  0  0  0  0  0  0  0  0  0
   21.9664   -5.6977  -13.7906 C   0  0  0  0  0  0  0  0  0  0  0  0
   22.7675   -4.5610  -13.6043 O   0  0  0  0  0  0  0  0  0  0  0  0
   19.5280   -1.6904  -16.2832 O   0  0  0  0  0  0  0  0  0  0  0  0
   21.6508   -6.3251  -12.7502 O   0  0  0  0  0  0  0  0  0  0  0  0
  2  1  1  6
  3  2  1  0
  4  3  1  0
  5  2  1  0
  6  5  2  0
  8  9  1  6
  8  7  1  0
 10  8  1  0
 10 11  1  6
 11  5  1  0
 12 10  1  0
 13 12  2  0
 14 12  1  0
 15 14  1  0
 15 16  1  1
 17 16  1  0
 18 17  1  0
 19 18  2  0
 20 15  1  0
 20 21  1  0
 22 18  1  0
 23 20  2  0
M  END
$$$$
