CVE.pdb
     RDKit          3D

 23 22  0  0  1  0  0  0  0  0999 V2000
   17.7646  -14.1070  -17.0954 N   0  0  0  0  0  0  0  0  0  0  0  0
   17.3448  -13.0353  -16.2462 C   0  0  1  0  0  0  0  0  0  0  0  0
   18.0883  -13.1498  -14.9311 C   0  0  0  0  0  0  0  0  0  0  0  0
   17.4143  -14.4665  -13.8966 S   0  0  0  0  0  0  0  0  0  0  0  0
   17.7188  -11.6951  -16.8220 C   0  0  0  0  0  0  0  0  0  0  0  0
   18.7705  -11.5769  -17.5007 O   0  0  0  0  0  0  0  0  0  0  0  0
   14.7448   -8.8955  -17.2640 C   0  0  0  0  0  0  0  0  0  0  0  0
   16.0463   -8.7953  -17.9834 C   0  0  1  0  0  0  0  0  0  0  0  0
   16.2636   -7.3608  -18.4183 C   0  0  0  0  0  0  0  0  0  0  0  0
   17.2302   -9.2451  -17.1835 C   0  0  2  0  0  0  0  0  0  0  0  0
   16.9221  -10.5478  -16.6266 N   0  0  0  0  0  0  0  0  0  0  0  0
   17.5240   -8.2780  -16.0891 C   0  0  0  0  0  0  0  0  0  0  0  0
   16.7644   -8.1223  -15.1013 O   0  0  0  0  0  0  0  0  0  0  0  0
   18.6964   -7.4808  -16.1222 N   0  0  0  0  0  0  0  0  0  0  0  0
   18.9946   -6.5822  -15.0246 C   0  0  1  0  0  0  0  0  0  0  0  0
   20.4597   -6.2131  -14.9814 C   0  0  0  0  0  0  0  0  0  0  0  0
   20.7242   -5.1906  -13.8817 C   0  0  0  0  0  0  0  0  0  0  0  0
   22.1520   -4.7940  -13.8573 C   0  0  0  0  0  0  0  0  0  0  0  0
   22.4411   -3.6300  -13.5305 O   0  0  0  0  0  0  0  0  0  0  0  0
   18.1246   -5.4000  -15.1505 C   0  0  0  0  0  0  0  0  0  0  0  0
   17.7672   -4.8647  -16.3972 O   0  0  0  0  0  0  0  0  0  0  0  0
   23.1764   -5.6680  -14.1840 O   0  0  0  0  0  0  0  0  0  0  0  0
   17.6585   -4.8112  -14.1447 O   0  0  0  0  0  0  0  0  0  0  0  0
  2  1  1  6
  3  2  1  0
  4  3  1  0
  5  2  1  0
  6  5  2  0
  8  9  1  1
  8  7  1  0
 10  8  1  0
 10 11  1  1
 11  5  1  0
 12 10  1  0
 13 12  2  0
 14 12  1  0
 15 14  1  0
 15 16  1  6
 17 16  1  0
 18 17  1  0
 19 18  2  0
 20 15  1  0
 20 21  1  0
 22 18  1  0
 23 20  2  0
M  END
$$$$
