SGF.pdb
     RDKit          3D

 22 22  0  0  1  0  0  0  0  0999 V2000
   29.4054  -20.0382  -17.9958 O   0  0  0  0  0  0  0  0  0  0  0  0
   28.1142  -20.2567  -18.4018 C   0  0  0  0  0  0  0  0  0  0  0  0
   27.0868  -19.6100  -17.5120 C   0  0  2  0  0  0  0  0  0  0  0  0
   26.5437  -18.4042  -18.0620 N   0  0  0  0  0  0  0  0  0  0  0  0
   27.5711  -19.3724  -16.1452 C   0  0  0  0  0  0  0  0  0  0  0  0
   28.2735  -18.3695  -15.8246 O   0  0  0  0  0  0  0  0  0  0  0  0
   27.2319  -20.3166  -15.1390 N   0  0  0  0  0  0  0  0  0  0  0  0
   27.6069  -20.1214  -13.7655 C   0  0  0  0  0  0  0  0  0  0  0  0
   26.5308  -20.7279  -12.9189 C   0  0  0  0  0  0  0  0  0  0  0  0
   25.4420  -21.1375  -13.4004 O   0  0  0  0  0  0  0  0  0  0  0  0
   26.7338  -20.8492  -11.5332 N   0  0  0  0  0  0  0  0  0  0  0  0
   25.7142  -21.4363  -10.6580 C   0  0  1  0  0  0  0  0  0  0  0  0
   26.4375  -22.0523   -9.5090 C   0  0  0  0  0  0  0  0  0  0  0  0
   27.0156  -21.0037   -8.6497 C   0  0  0  0  0  0  0  0  0  0  0  0
   26.2585  -20.0090   -8.0504 C   0  0  0  0  0  0  0  0  0  0  0  0
   26.8217  -19.0396   -7.2454 C   0  0  0  0  0  0  0  0  0  0  0  0
   28.1802  -19.0594   -7.0293 C   0  0  0  0  0  0  0  0  0  0  0  0
   28.9598  -20.0330   -7.6096 C   0  0  0  0  0  0  0  0  0  0  0  0
   28.3805  -20.9932   -8.4105 C   0  0  0  0  0  0  0  0  0  0  0  0
   24.7106  -20.4349  -10.2668 C   0  0  0  0  0  0  0  0  0  0  0  0
   23.4501  -20.8670   -9.8095 O   0  0  0  0  0  0  0  0  0  0  0  0
   24.8747  -19.2049  -10.3026 O   0  0  0  0  0  0  0  0  0  0  0  0
  1  2  1  0
  2  3  1  0
  3  5  1  0
  3  4  1  6
  5  7  1  0
  6  5  2  0
  7  8  1  0
  8  9  1  0
  9 11  1  0
  9 10  2  0
 11 12  1  0
 12 13  1  1
 13 14  1  0
 14 19  2  0
 15 16  2  0
 15 14  1  0
 16 17  1  0
 17 18  2  0
 19 18  1  0
 20 12  1  0
 20 21  1  0
 22 20  2  0
M  END
$$$$
