SGF.pdb
     RDKit          3D

 22 22  0  0  1  0  0  0  0  0999 V2000
   26.5169  -17.0866  -15.3672 O   0  0  0  0  0  0  0  0  0  0  0  0
   26.4501  -18.1671  -16.2086 C   0  0  0  0  0  0  0  0  0  0  0  0
   26.2432  -19.4747  -15.4924 C   0  0  2  0  0  0  0  0  0  0  0  0
   24.8969  -19.6636  -15.0417 N   0  0  0  0  0  0  0  0  0  0  0  0
   27.1846  -19.6834  -14.3836 C   0  0  0  0  0  0  0  0  0  0  0  0
   28.4411  -19.6923  -14.5352 O   0  0  0  0  0  0  0  0  0  0  0  0
   26.6539  -19.8844  -13.0810 N   0  0  0  0  0  0  0  0  0  0  0  0
   27.4968  -19.8939  -11.9172 C   0  0  0  0  0  0  0  0  0  0  0  0
   26.7135  -20.5186  -10.8042 C   0  0  0  0  0  0  0  0  0  0  0  0
   25.4997  -20.8307  -10.9240 O   0  0  0  0  0  0  0  0  0  0  0  0
   27.3476  -20.7702   -9.5752 N   0  0  0  0  0  0  0  0  0  0  0  0
   26.6162  -21.3362   -8.4373 C   0  0  1  0  0  0  0  0  0  0  0  0
   27.6392  -21.8406   -7.4771 C   0  0  0  0  0  0  0  0  0  0  0  0
   27.9252  -20.8190   -6.4541 C   0  0  0  0  0  0  0  0  0  0  0  0
   28.7524  -19.7293   -6.6784 C   0  0  0  0  0  0  0  0  0  0  0  0
   29.0020  -18.7822   -5.7061 C   0  0  0  0  0  0  0  0  0  0  0  0
   28.4109  -18.9225   -4.4717 C   0  0  0  0  0  0  0  0  0  0  0  0
   27.5849  -19.9926   -4.2169 C   0  0  0  0  0  0  0  0  0  0  0  0
   27.3468  -20.9288   -5.1996 C   0  0  0  0  0  0  0  0  0  0  0  0
   25.6876  -20.3520   -7.8611 C   0  0  0  0  0  0  0  0  0  0  0  0
   24.6010  -20.8034   -7.0862 O   0  0  0  0  0  0  0  0  0  0  0  0
   25.7735  -19.1212   -7.9975 O   0  0  0  0  0  0  0  0  0  0  0  0
  1  2  1  0
  2  3  1  0
  3  5  1  0
  3  4  1  1
  5  7  1  0
  6  5  2  0
  7  8  1  0
  8  9  1  0
  9 11  1  0
  9 10  2  0
 11 12  1  0
 12 13  1  1
 13 14  1  0
 14 19  2  0
 15 16  2  0
 15 14  1  0
 16 17  1  0
 17 18  2  0
 19 18  1  0
 20 12  1  0
 20 21  1  0
 22 20  2  0
M  END
$$$$
