SGF.pdb
     RDKit          3D

 22 22  0  0  1  0  0  0  0  0999 V2000
   27.9674  -20.8216  -16.5716 O   0  0  0  0  0  0  0  0  0  0  0  0
   27.1058  -21.5176  -15.7636 C   0  0  0  0  0  0  0  0  0  0  0  0
   26.3659  -20.6475  -14.7832 C   0  0  2  0  0  0  0  0  0  0  0  0
   25.6875  -19.5496  -15.4043 N   0  0  0  0  0  0  0  0  0  0  0  0
   27.2121  -20.1654  -13.6828 C   0  0  0  0  0  0  0  0  0  0  0  0
   28.1291  -19.3073  -13.8400 O   0  0  0  0  0  0  0  0  0  0  0  0
   26.9860  -20.6907  -12.3822 N   0  0  0  0  0  0  0  0  0  0  0  0
   27.8107  -20.3188  -11.2655 C   0  0  0  0  0  0  0  0  0  0  0  0
   27.2176  -20.9492  -10.0435 C   0  0  0  0  0  0  0  0  0  0  0  0
   27.1980  -22.1958   -9.8677 O   0  0  0  0  0  0  0  0  0  0  0  0
   26.6593  -20.1276   -9.0491 N   0  0  0  0  0  0  0  0  0  0  0  0
   25.8366  -20.6824   -7.9695 C   0  0  1  0  0  0  0  0  0  0  0  0
   25.9150  -19.7213   -6.8324 C   0  0  0  0  0  0  0  0  0  0  0  0
   27.2447  -19.7872   -6.2002 C   0  0  0  0  0  0  0  0  0  0  0  0
   28.2448  -18.8561   -6.4345 C   0  0  0  0  0  0  0  0  0  0  0  0
   29.4815  -18.9358   -5.8270 C   0  0  0  0  0  0  0  0  0  0  0  0
   29.7323  -19.9737   -4.9596 C   0  0  0  0  0  0  0  0  0  0  0  0
   28.7612  -20.9144   -4.7058 C   0  0  0  0  0  0  0  0  0  0  0  0
   27.5319  -20.8192   -5.3211 C   0  0  0  0  0  0  0  0  0  0  0  0
   24.4669  -20.9529   -8.4319 C   0  0  0  0  0  0  0  0  0  0  0  0
   23.5881  -21.6698   -7.5961 O   0  0  0  0  0  0  0  0  0  0  0  0
   23.9968  -20.5977   -9.5245 O   0  0  0  0  0  0  0  0  0  0  0  0
  1  2  1  0
  2  3  1  0
  3  5  1  0
  3  4  1  6
  5  7  1  0
  6  5  2  0
  7  8  1  0
  8  9  1  0
  9 11  1  0
  9 10  2  0
 11 12  1  0
 12 13  1  1
 13 14  1  0
 14 19  2  0
 15 16  2  0
 15 14  1  0
 16 17  1  0
 17 18  2  0
 19 18  1  0
 20 12  1  0
 20 21  1  0
 22 20  2  0
M  END
$$$$
