SGF.pdb
     RDKit          3D

 22 22  0  0  1  0  0  0  0  0999 V2000
   30.1855  -26.6167  -19.0942 O   0  0  0  0  0  0  0  0  0  0  0  0
   29.6978  -26.7309  -17.8179 C   0  0  0  0  0  0  0  0  0  0  0  0
   28.4594  -25.9116  -17.5721 C   0  0  2  0  0  0  0  0  0  0  0  0
   28.0781  -25.8665  -16.1922 N   0  0  0  0  0  0  0  0  0  0  0  0
   27.3183  -26.3229  -18.4016 C   0  0  0  0  0  0  0  0  0  0  0  0
   27.2460  -26.0894  -19.6434 O   0  0  0  0  0  0  0  0  0  0  0  0
   26.2476  -27.0154  -17.7748 N   0  0  0  0  0  0  0  0  0  0  0  0
   25.1079  -27.4740  -18.5204 C   0  0  0  0  0  0  0  0  0  0  0  0
   23.8854  -27.1065  -17.7376 C   0  0  0  0  0  0  0  0  0  0  0  0
   22.7222  -27.3883  -18.1286 O   0  0  0  0  0  0  0  0  0  0  0  0
   24.0305  -26.4210  -16.5191 N   0  0  0  0  0  0  0  0  0  0  0  0
   22.8701  -26.0709  -15.6939 C   0  0  1  0  0  0  0  0  0  0  0  0
   23.3808  -25.8320  -14.3137 C   0  0  0  0  0  0  0  0  0  0  0  0
   22.3012  -25.3161  -13.4532 C   0  0  0  0  0  0  0  0  0  0  0  0
   22.0149  -23.9663  -13.3196 C   0  0  0  0  0  0  0  0  0  0  0  0
   20.9953  -23.5067  -12.5109 C   0  0  0  0  0  0  0  0  0  0  0  0
   20.2363  -24.4173  -11.8129 C   0  0  0  0  0  0  0  0  0  0  0  0
   20.4947  -25.7639  -11.9235 C   0  0  0  0  0  0  0  0  0  0  0  0
   21.5168  -26.2051  -12.7357 C   0  0  0  0  0  0  0  0  0  0  0  0
   22.1363  -24.9322  -16.2666 C   0  0  0  0  0  0  0  0  0  0  0  0
   22.8499  -23.9281  -16.9503 O   0  0  0  0  0  0  0  0  0  0  0  0
   20.9076  -24.7669  -16.2024 O   0  0  0  0  0  0  0  0  0  0  0  0
  1  2  1  0
  2  3  1  0
  3  5  1  0
  3  4  1  1
  5  7  1  0
  6  5  2  0
  7  8  1  0
  8  9  1  0
  9 11  1  0
  9 10  2  0
 11 12  1  0
 12 13  1  1
 13 14  1  0
 14 19  2  0
 15 16  2  0
 15 14  1  0
 16 17  1  0
 17 18  2  0
 19 18  1  0
 20 12  1  0
 20 21  1  0
 22 20  2  0
M  END
$$$$
