SGF.pdb
     RDKit          3D

 22 22  0  0  1  0  0  0  0  0999 V2000
   29.0290  -22.3726  -16.0056 O   0  0  0  0  0  0  0  0  0  0  0  0
   28.8245  -21.3639  -15.0997 C   0  0  0  0  0  0  0  0  0  0  0  0
   27.3890  -20.9210  -15.0072 C   0  0  2  0  0  0  0  0  0  0  0  0
   26.8808  -20.3955  -16.2388 N   0  0  0  0  0  0  0  0  0  0  0  0
   27.1444  -19.9737  -13.9108 C   0  0  0  0  0  0  0  0  0  0  0  0
   27.0709  -18.7218  -14.0817 O   0  0  0  0  0  0  0  0  0  0  0  0
   26.9833  -20.4930  -12.5981 N   0  0  0  0  0  0  0  0  0  0  0  0
   26.6824  -19.6394  -11.4818 C   0  0  0  0  0  0  0  0  0  0  0  0
   26.5546  -20.5142  -10.2731 C   0  0  0  0  0  0  0  0  0  0  0  0
   26.6172  -21.7700  -10.3377 O   0  0  0  0  0  0  0  0  0  0  0  0
   26.3571  -19.9212   -9.0140 N   0  0  0  0  0  0  0  0  0  0  0  0
   25.9985  -20.7206   -7.8383 C   0  0  1  0  0  0  0  0  0  0  0  0
   26.0880  -19.8136   -6.6584 C   0  0  0  0  0  0  0  0  0  0  0  0
   27.4271  -19.9009   -6.0491 C   0  0  0  0  0  0  0  0  0  0  0  0
   27.8434  -20.9763   -5.2796 C   0  0  0  0  0  0  0  0  0  0  0  0
   29.1047  -21.0382   -4.7227 C   0  0  0  0  0  0  0  0  0  0  0  0
   29.9798  -19.9986   -4.9372 C   0  0  0  0  0  0  0  0  0  0  0  0
   29.5975  -18.9168   -5.6960 C   0  0  0  0  0  0  0  0  0  0  0  0
   28.3341  -18.8716   -6.2445 C   0  0  0  0  0  0  0  0  0  0  0  0
   24.6818  -21.3535   -8.0089 C   0  0  0  0  0  0  0  0  0  0  0  0
   23.8623  -20.9568   -9.0840 O   0  0  0  0  0  0  0  0  0  0  0  0
   24.2091  -22.2328   -7.2711 O   0  0  0  0  0  0  0  0  0  0  0  0
  1  2  1  0
  2  3  1  0
  3  5  1  0
  3  4  1  6
  5  7  1  0
  6  5  2  0
  7  8  1  0
  8  9  1  0
  9 11  1  0
  9 10  2  0
 11 12  1  0
 12 13  1  1
 13 14  1  0
 14 19  2  0
 15 16  2  0
 15 14  1  0
 16 17  1  0
 17 18  2  0
 19 18  1  0
 20 12  1  0
 20 21  1  0
 22 20  2  0
M  END
$$$$
