SGF.pdb
     RDKit          3D

 22 22  0  0  1  0  0  0  0  0999 V2000
   23.2078  -20.0857  -13.8430 O   0  0  0  0  0  0  0  0  0  0  0  0
   24.4565  -20.3673  -14.3341 C   0  0  0  0  0  0  0  0  0  0  0  0
   25.3596  -21.0358  -13.3326 C   0  0  2  0  0  0  0  0  0  0  0  0
   24.6454  -21.6748  -12.2681 N   0  0  0  0  0  0  0  0  0  0  0  0
   26.3868  -20.1372  -12.7880 C   0  0  0  0  0  0  0  0  0  0  0  0
   26.2223  -18.8876  -12.6730 O   0  0  0  0  0  0  0  0  0  0  0  0
   27.6220  -20.7031  -12.3722 N   0  0  0  0  0  0  0  0  0  0  0  0
   27.6732  -21.9019  -11.5814 C   0  0  0  0  0  0  0  0  0  0  0  0
   27.7838  -21.4859  -10.1471 C   0  0  0  0  0  0  0  0  0  0  0  0
   28.6128  -22.0053   -9.3545 O   0  0  0  0  0  0  0  0  0  0  0  0
   26.9348  -20.4784   -9.6570 N   0  0  0  0  0  0  0  0  0  0  0  0
   26.3091  -20.5800   -8.3348 C   0  0  1  0  0  0  0  0  0  0  0  0
   26.5752  -19.2915   -7.6334 C   0  0  0  0  0  0  0  0  0  0  0  0
   27.5146  -19.5034   -6.5177 C   0  0  0  0  0  0  0  0  0  0  0  0
   27.2359  -20.3225   -5.4344 C   0  0  0  0  0  0  0  0  0  0  0  0
   28.1336  -20.5094   -4.4029 C   0  0  0  0  0  0  0  0  0  0  0  0
   29.3464  -19.8618   -4.4493 C   0  0  0  0  0  0  0  0  0  0  0  0
   29.6537  -19.0419   -5.5103 C   0  0  0  0  0  0  0  0  0  0  0  0
   28.7454  -18.8668   -6.5317 C   0  0  0  0  0  0  0  0  0  0  0  0
   24.8818  -20.9167   -8.4480 C   0  0  0  0  0  0  0  0  0  0  0  0
   24.2509  -20.8234   -9.7042 O   0  0  0  0  0  0  0  0  0  0  0  0
   24.1571  -21.2874   -7.5108 O   0  0  0  0  0  0  0  0  0  0  0  0
  1  2  1  0
  2  3  1  0
  3  5  1  0
  3  4  1  1
  5  7  1  0
  6  5  2  0
  7  8  1  0
  8  9  1  0
  9 11  1  0
  9 10  2  0
 11 12  1  0
 12 13  1  6
 13 14  1  0
 14 19  2  0
 15 16  2  0
 15 14  1  0
 16 17  1  0
 17 18  2  0
 19 18  1  0
 20 12  1  0
 20 21  1  0
 22 20  2  0
M  END
$$$$
