SGF.pdb
     RDKit          3D

 22 22  0  0  1  0  0  0  0  0999 V2000
   24.5814  -19.4213  -14.2891 O   0  0  0  0  0  0  0  0  0  0  0  0
   25.5282  -18.6163  -13.7101 C   0  0  0  0  0  0  0  0  0  0  0  0
   26.9351  -19.1220  -13.8844 C   0  0  2  0  0  0  0  0  0  0  0  0
   27.3341  -19.2165  -15.2567 N   0  0  0  0  0  0  0  0  0  0  0  0
   27.1829  -20.3953  -13.1940 C   0  0  0  0  0  0  0  0  0  0  0  0
   26.7575  -21.5081  -13.6212 O   0  0  0  0  0  0  0  0  0  0  0  0
   27.9366  -20.3705  -11.9898 N   0  0  0  0  0  0  0  0  0  0  0  0
   28.2359  -21.5738  -11.2633 C   0  0  0  0  0  0  0  0  0  0  0  0
   27.8636  -21.3354   -9.8326 C   0  0  0  0  0  0  0  0  0  0  0  0
   28.7125  -21.0264   -8.9556 O   0  0  0  0  0  0  0  0  0  0  0  0
   26.5186  -21.4586   -9.4433 N   0  0  0  0  0  0  0  0  0  0  0  0
   26.0792  -21.1170   -8.0866 C   0  0  1  0  0  0  0  0  0  0  0  0
   26.5962  -19.7484   -7.7994 C   0  0  0  0  0  0  0  0  0  0  0  0
   27.3931  -19.7546   -6.5596 C   0  0  0  0  0  0  0  0  0  0  0  0
   27.0778  -20.5340   -5.4572 C   0  0  0  0  0  0  0  0  0  0  0  0
   27.8421  -20.5267   -4.3081 C   0  0  0  0  0  0  0  0  0  0  0  0
   28.9546  -19.7195   -4.2526 C   0  0  0  0  0  0  0  0  0  0  0  0
   29.2948  -18.9339   -5.3294 C   0  0  0  0  0  0  0  0  0  0  0  0
   28.5202  -18.9536   -6.4690 C   0  0  0  0  0  0  0  0  0  0  0  0
   24.6202  -21.2465   -7.9534 C   0  0  0  0  0  0  0  0  0  0  0  0
   23.8240  -21.2808   -9.1152 O   0  0  0  0  0  0  0  0  0  0  0  0
   24.0041  -21.3311   -6.8791 O   0  0  0  0  0  0  0  0  0  0  0  0
  1  2  1  0
  2  3  1  0
  3  5  1  0
  3  4  1  6
  5  7  1  0
  6  5  2  0
  7  8  1  0
  8  9  1  0
  9 11  1  0
  9 10  2  0
 11 12  1  0
 12 13  1  6
 13 14  1  0
 14 19  2  0
 15 16  2  0
 15 14  1  0
 16 17  1  0
 17 18  2  0
 19 18  1  0
 20 12  1  0
 20 21  1  0
 22 20  2  0
M  END
$$$$
