LIL.pdb
     RDKit          3D

 25 24  0  0  1  0  0  0  0  0999 V2000
    9.5652  -12.5791   19.8551 C   0  0  0  0  0  0  0  0  0  0  0  0
    8.4693  -13.1317   18.9711 C   0  0  2  0  0  0  0  0  0  0  0  0
    7.5292  -11.9813   18.6660 C   0  0  0  0  0  0  0  0  0  0  0  0
    7.7040  -14.2358   19.6121 C   0  0  0  0  0  0  0  0  0  0  0  0
    8.5749  -15.3040   20.2148 C   0  0  2  0  0  0  0  0  0  0  0  0
    8.8997  -16.2676   19.1798 N   0  0  0  0  0  0  0  0  0  0  0  0
    7.9136  -16.0429   21.3171 C   0  0  0  0  0  0  0  0  0  0  0  0
    7.0438  -16.9233   21.0964 O   0  0  0  0  0  0  0  0  0  0  0  0
    9.6007  -19.8069   25.0995 C   0  0  0  0  0  0  0  0  0  0  0  0
    8.3989  -19.1193   24.5507 C   0  0  0  0  0  0  0  0  0  0  0  0
    8.6136  -18.0779   23.5335 C   0  0  2  0  0  0  0  0  0  0  0  0
   10.1002  -17.9786   23.2626 C   0  0  0  0  0  0  0  0  0  0  0  0
    8.0475  -16.7297   23.7399 C   0  0  2  0  0  0  0  0  0  0  0  0
    8.2561  -15.7666   22.6953 N   0  0  0  0  0  0  0  0  0  0  0  0
    8.3598  -16.1614   25.0895 C   0  0  0  0  0  0  0  0  0  0  0  0
    8.1653  -16.8409   26.1298 O   0  0  0  0  0  0  0  0  0  0  0  0
    7.8697  -11.7125   25.5385 C   0  0  0  0  0  0  0  0  0  0  0  0
    6.9967  -12.8743   26.0799 C   0  0  2  0  0  0  0  0  0  0  0  0
    5.7181  -12.2754   26.6363 C   0  0  0  0  0  0  0  0  0  0  0  0
    7.8515  -13.5641   27.0924 C   0  0  0  0  0  0  0  0  0  0  0  0
    9.0568  -14.2655   26.6119 C   0  0  2  0  0  0  0  0  0  0  0  0
    8.8806  -14.8548   25.2753 N   0  0  0  0  0  0  0  0  0  0  0  0
    9.5654  -15.2700   27.5518 C   0  0  0  0  0  0  0  0  0  0  0  0
    9.9717  -14.9428   28.6752 O   0  0  0  0  0  0  0  0  0  0  0  0
    9.5917  -16.5985   27.1727 O   0  0  0  0  0  0  0  0  0  0  0  0
  2  1  1  1
  3  2  1  0
  4  2  1  0
  4  5  1  0
  5  6  1  6
  7  5  1  0
  7  8  2  0
  9 10  1  0
 11 13  1  0
 11 10  1  0
 11 12  1  1
 13 14  1  6
 14  7  1  0
 15 13  1  0
 16 15  2  0
 18 17  1  1
 18 20  1  0
 19 18  1  0
 21 20  1  1
 21 23  1  0
 21 22  1  0
 22 15  1  0
 23 25  1  0
 24 23  2  0
M  END
$$$$
