LIL.pdb
     RDKit          3D

 25 24  0  0  1  0  0  0  0  0999 V2000
   11.4157  -20.5397   20.1312 C   0  0  0  0  0  0  0  0  0  0  0  0
   12.2612  -20.1294   21.3164 C   0  0  2  0  0  0  0  0  0  0  0  0
   12.1972  -21.2678   22.3166 C   0  0  0  0  0  0  0  0  0  0  0  0
   11.7866  -18.8768   21.9656 C   0  0  0  0  0  0  0  0  0  0  0  0
   11.6457  -17.7196   21.0149 C   0  0  2  0  0  0  0  0  0  0  0  0
   12.9735  -17.2832   20.6252 N   0  0  0  0  0  0  0  0  0  0  0  0
   10.9533  -16.5534   21.6139 C   0  0  0  0  0  0  0  0  0  0  0  0
   11.5590  -15.7235   22.3383 O   0  0  0  0  0  0  0  0  0  0  0  0
    7.1147  -13.3455   19.0552 C   0  0  0  0  0  0  0  0  0  0  0  0
    8.1956  -13.9278   19.8982 C   0  0  0  0  0  0  0  0  0  0  0  0
    7.8028  -14.5762   21.1595 C   0  0  2  0  0  0  0  0  0  0  0  0
    7.0468  -13.5659   21.9968 C   0  0  0  0  0  0  0  0  0  0  0  0
    8.8274  -15.2484   21.9835 C   0  0  2  0  0  0  0  0  0  0  0  0
    9.5425  -16.3363   21.3777 N   0  0  0  0  0  0  0  0  0  0  0  0
    8.3408  -15.5992   23.3554 C   0  0  0  0  0  0  0  0  0  0  0  0
    8.2558  -16.8013   23.7155 O   0  0  0  0  0  0  0  0  0  0  0  0
    8.1755  -12.4756   27.2744 C   0  0  0  0  0  0  0  0  0  0  0  0
    7.0673  -12.5366   26.1912 C   0  0  2  0  0  0  0  0  0  0  0  0
    6.0221  -11.4915   26.5354 C   0  0  0  0  0  0  0  0  0  0  0  0
    6.5707  -13.9452   26.2214 C   0  0  0  0  0  0  0  0  0  0  0  0
    7.4310  -14.9905   25.6357 C   0  0  2  0  0  0  0  0  0  0  0  0
    7.9546  -14.6238   24.3106 N   0  0  0  0  0  0  0  0  0  0  0  0
    6.7986  -16.3130   25.5887 C   0  0  0  0  0  0  0  0  0  0  0  0
    6.0498  -16.6278   24.6536 O   0  0  0  0  0  0  0  0  0  0  0  0
    7.0432  -17.2158   26.6057 O   0  0  0  0  0  0  0  0  0  0  0  0
  2  1  1  6
  3  2  1  0
  4  2  1  0
  4  5  1  0
  5  6  1  1
  7  5  1  0
  7  8  2  0
  9 10  1  0
 11 13  1  0
 11 10  1  0
 11 12  1  1
 13 14  1  6
 14  7  1  0
 15 13  1  0
 16 15  2  0
 18 17  1  1
 18 20  1  0
 19 18  1  0
 21 20  1  6
 21 23  1  0
 21 22  1  0
 22 15  1  0
 23 25  1  0
 24 23  2  0
M  END
$$$$
