LIL.pdb
     RDKit          3D

 25 24  0  0  1  0  0  0  0  0999 V2000
    8.4419  -19.3962   19.6081 C   0  0  0  0  0  0  0  0  0  0  0  0
    9.8418  -19.5551   20.1583 C   0  0  2  0  0  0  0  0  0  0  0  0
    9.9649  -20.9884   20.6389 C   0  0  0  0  0  0  0  0  0  0  0  0
   10.1328  -18.6307   21.2881 C   0  0  0  0  0  0  0  0  0  0  0  0
    9.8139  -17.1915   20.9886 C   0  0  2  0  0  0  0  0  0  0  0  0
   10.7656  -16.7066   20.0066 N   0  0  0  0  0  0  0  0  0  0  0  0
    9.9161  -16.3116   22.1777 C   0  0  0  0  0  0  0  0  0  0  0  0
   10.9978  -15.7595   22.5024 O   0  0  0  0  0  0  0  0  0  0  0  0
    6.5173  -12.6440   25.9008 C   0  0  0  0  0  0  0  0  0  0  0  0
    7.6958  -13.5270   25.6780 C   0  0  0  0  0  0  0  0  0  0  0  0
    7.6325  -14.4799   24.5584 C   0  0  2  0  0  0  0  0  0  0  0  0
    6.4600  -15.4092   24.7921 C   0  0  0  0  0  0  0  0  0  0  0  0
    8.8321  -15.2622   24.1983 C   0  0  2  0  0  0  0  0  0  0  0  0
    8.7577  -16.0614   23.0076 N   0  0  0  0  0  0  0  0  0  0  0  0
    9.3984  -16.0333   25.3500 C   0  0  0  0  0  0  0  0  0  0  0  0
    9.1051  -17.2453   25.5139 O   0  0  0  0  0  0  0  0  0  0  0  0
   10.2201  -13.3963   28.0079 C   0  0  0  0  0  0  0  0  0  0  0  0
   10.0847  -14.5750   29.0065 C   0  0  2  0  0  0  0  0  0  0  0  0
   10.2453  -14.0177   30.4089 C   0  0  0  0  0  0  0  0  0  0  0  0
   11.1402  -15.5514   28.6014 C   0  0  0  0  0  0  0  0  0  0  0  0
   10.9589  -16.2710   27.3266 C   0  0  2  0  0  0  0  0  0  0  0  0
   10.2782  -15.4606   26.3045 N   0  0  0  0  0  0  0  0  0  0  0  0
   10.2957  -17.5707   27.4753 C   0  0  0  0  0  0  0  0  0  0  0  0
   10.7858  -18.4579   28.1871 O   0  0  0  0  0  0  0  0  0  0  0  0
    9.1086  -17.8042   26.8078 O   0  0  0  0  0  0  0  0  0  0  0  0
  2  1  1  1
  3  2  1  0
  4  2  1  0
  4  5  1  0
  5  6  1  6
  7  5  1  0
  7  8  2  0
  9 10  1  0
 11 13  1  0
 11 10  1  0
 11 12  1  1
 13 14  1  6
 14  7  1  0
 15 13  1  0
 16 15  2  0
 18 17  1  6
 18 20  1  0
 19 18  1  0
 21 20  1  1
 21 23  1  0
 21 22  1  0
 22 15  1  0
 23 25  1  0
 24 23  2  0
M  END
$$$$
