LIL.pdb
     RDKit          3D

 25 24  0  0  1  0  0  0  0  0999 V2000
   10.8611  -20.2720   19.1413 C   0  0  0  0  0  0  0  0  0  0  0  0
   11.6776  -20.2753   20.4145 C   0  0  2  0  0  0  0  0  0  0  0  0
   11.3786  -21.5819   21.1246 C   0  0  0  0  0  0  0  0  0  0  0  0
   11.3527  -19.1385   21.3187 C   0  0  0  0  0  0  0  0  0  0  0  0
   11.4379  -17.7928   20.6519 C   0  0  2  0  0  0  0  0  0  0  0  0
   12.8373  -17.4792   20.4314 N   0  0  0  0  0  0  0  0  0  0  0  0
   10.8616  -16.6987   21.4700 C   0  0  0  0  0  0  0  0  0  0  0  0
   11.5588  -16.0430   22.2850 O   0  0  0  0  0  0  0  0  0  0  0  0
    6.8250  -13.0906   19.7977 C   0  0  0  0  0  0  0  0  0  0  0  0
    7.9977  -13.7328   20.4540 C   0  0  0  0  0  0  0  0  0  0  0  0
    7.7422  -14.5807   21.6293 C   0  0  2  0  0  0  0  0  0  0  0  0
    7.1071  -13.7233   22.7038 C   0  0  0  0  0  0  0  0  0  0  0  0
    8.8431  -15.3784   22.2058 C   0  0  2  0  0  0  0  0  0  0  0  0
    9.4622  -16.3517   21.3506 N   0  0  0  0  0  0  0  0  0  0  0  0
    8.5134  -15.9499   23.5499 C   0  0  0  0  0  0  0  0  0  0  0  0
    8.0337  -17.1081   23.6519 O   0  0  0  0  0  0  0  0  0  0  0  0
   10.7272  -15.0005   27.9621 C   0  0  0  0  0  0  0  0  0  0  0  0
    9.7228  -14.0411   27.2723 C   0  0  2  0  0  0  0  0  0  0  0  0
    9.6244  -12.7843   28.1172 C   0  0  0  0  0  0  0  0  0  0  0  0
    8.4520  -14.8192   27.1658 C   0  0  0  0  0  0  0  0  0  0  0  0
    8.3346  -15.7979   26.0684 C   0  0  2  0  0  0  0  0  0  0  0  0
    8.7154  -15.2397   24.7615 N   0  0  0  0  0  0  0  0  0  0  0  0
    7.0160  -16.4352   25.9889 C   0  0  0  0  0  0  0  0  0  0  0  0
    6.7768  -17.4826   26.6052 O   0  0  0  0  0  0  0  0  0  0  0  0
    6.0309  -15.8559   25.2121 O   0  0  0  0  0  0  0  0  0  0  0  0
  2  1  1  6
  3  2  1  0
  4  2  1  0
  4  5  1  0
  5  6  1  1
  7  5  1  0
  7  8  2  0
  9 10  1  0
 11 13  1  0
 11 10  1  0
 11 12  1  1
 13 14  1  6
 14  7  1  0
 15 13  1  0
 16 15  2  0
 18 17  1  1
 18 20  1  0
 19 18  1  0
 21 20  1  1
 21 23  1  0
 21 22  1  0
 22 15  1  0
 23 25  1  0
 24 23  2  0
M  END
$$$$
