LIL.pdb
     RDKit          3D

 25 24  0  0  1  0  0  0  0  0999 V2000
   14.3689  -19.1446   19.9893 C   0  0  0  0  0  0  0  0  0  0  0  0
   13.5598  -18.2244   19.1026 C   0  0  2  0  0  0  0  0  0  0  0  0
   14.5413  -17.5319   18.1765 C   0  0  0  0  0  0  0  0  0  0  0  0
   12.7976  -17.1994   19.8669 C   0  0  0  0  0  0  0  0  0  0  0  0
   11.9069  -17.7786   20.9319 C   0  0  2  0  0  0  0  0  0  0  0  0
   10.8761  -18.5694   20.2860 N   0  0  0  0  0  0  0  0  0  0  0  0
   11.2267  -16.7452   21.7491 C   0  0  0  0  0  0  0  0  0  0  0  0
   11.8707  -15.8642   22.3732 O   0  0  0  0  0  0  0  0  0  0  0  0
    6.7799  -13.8802   20.1504 C   0  0  0  0  0  0  0  0  0  0  0  0
    8.0309  -14.3284   20.8229 C   0  0  0  0  0  0  0  0  0  0  0  0
    7.8968  -15.1198   22.0563 C   0  0  2  0  0  0  0  0  0  0  0  0
    7.1921  -14.2687   23.0917 C   0  0  0  0  0  0  0  0  0  0  0  0
    9.0920  -15.7510   22.6510 C   0  0  2  0  0  0  0  0  0  0  0  0
    9.7838  -16.7228   21.8517 N   0  0  0  0  0  0  0  0  0  0  0  0
    8.8643  -16.2411   24.0474 C   0  0  0  0  0  0  0  0  0  0  0  0
    8.5720  -17.4454   24.2625 O   0  0  0  0  0  0  0  0  0  0  0  0
   11.2577  -15.1921   28.1242 C   0  0  0  0  0  0  0  0  0  0  0  0
   10.2388  -14.1568   27.5813 C   0  0  2  0  0  0  0  0  0  0  0  0
   10.2957  -12.9336   28.4779 C   0  0  0  0  0  0  0  0  0  0  0  0
    8.9245  -14.8669   27.5822 C   0  0  0  0  0  0  0  0  0  0  0  0
    8.6962  -15.8927   26.5471 C   0  0  2  0  0  0  0  0  0  0  0  0
    8.9610  -15.4004   25.1861 N   0  0  0  0  0  0  0  0  0  0  0  0
    7.3693  -16.5135   26.6182 C   0  0  0  0  0  0  0  0  0  0  0  0
    6.4155  -16.0528   25.9762 O   0  0  0  0  0  0  0  0  0  0  0  0
    7.1855  -17.6264   27.4163 O   0  0  0  0  0  0  0  0  0  0  0  0
  2  1  1  1
  3  2  1  0
  4  2  1  0
  4  5  1  0
  5  6  1  6
  7  5  1  0
  7  8  2  0
  9 10  1  0
 11 13  1  0
 11 10  1  0
 11 12  1  1
 13 14  1  6
 14  7  1  0
 15 13  1  0
 16 15  2  0
 18 17  1  1
 18 20  1  0
 19 18  1  0
 21 20  1  1
 21 23  1  0
 21 22  1  0
 22 15  1  0
 23 25  1  0
 24 23  2  0
M  END
$$$$
