SCH.pdb
     RDKit          3D

 23 23  0  0  1  0  0  0  0  0999 V2000
    8.4691  -17.8613   21.5957 O   0  0  0  0  0  0  0  0  0  0  0  0
    7.4638  -16.9069   21.4077 C   0  0  0  0  0  0  0  0  0  0  0  0
    8.1453  -15.5704   21.2638 C   0  0  2  0  0  0  0  0  0  0  0  0
    9.1593  -15.6531   20.2444 N   0  0  0  0  0  0  0  0  0  0  0  0
    8.7805  -15.1605   22.5379 C   0  0  0  0  0  0  0  0  0  0  0  0
   10.0160  -15.3234   22.7277 O   0  0  0  0  0  0  0  0  0  0  0  0
    8.0002  -14.5743   23.5695 N   0  0  0  0  0  0  0  0  0  0  0  0
    8.6408  -14.1758   24.8286 C   0  0  1  0  0  0  0  0  0  0  0  0
    7.6510  -13.3241   25.5954 C   0  0  0  0  0  0  0  0  0  0  0  0
    8.4700  -12.7760   27.1306 S   0  0  0  0  0  0  0  0  0  0  0  0
    8.8936  -15.3957   25.6694 C   0  0  0  0  0  0  0  0  0  0  0  0
    7.9835  -16.2542   25.7955 O   0  0  0  0  0  0  0  0  0  0  0  0
   10.1073  -15.6226   26.3251 N   0  0  0  0  0  0  0  0  0  0  0  0
   10.3357  -16.8326   27.1411 C   0  0  1  0  0  0  0  0  0  0  0  0
   11.5629  -17.5308   26.6978 C   0  0  0  0  0  0  0  0  0  0  0  0
   11.4704  -18.0173   25.3153 C   0  0  0  0  0  0  0  0  0  0  0  0
   10.4662  -18.9371   24.9655 C   0  0  0  0  0  0  0  0  0  0  0  0
   10.5852  -19.2222   23.6828 N   0  0  0  0  0  0  0  0  0  0  0  0
   11.6139  -18.5262   23.2139 C   0  0  0  0  0  0  0  0  0  0  0  0
   12.1539  -17.7939   24.2008 N   0  0  0  0  0  0  0  0  0  0  0  0
   10.4098  -16.3982   28.5678 C   0  0  0  0  0  0  0  0  0  0  0  0
   10.5991  -17.2772   29.6008 O   0  0  0  0  0  0  0  0  0  0  0  0
   10.2923  -15.1684   28.8367 O   0  0  0  0  0  0  0  0  0  0  0  0
  2  3  1  0
  2  1  1  0
  3  4  1  6
  3  5  1  0
  5  7  1  0
  6  5  2  0
  7  8  1  0
  8 11  1  0
  8  9  1  1
  9 10  1  0
 11 12  2  0
 13 14  1  0
 13 11  1  0
 14 15  1  6
 15 16  1  0
 16 17  2  0
 16 20  1  0
 17 18  1  0
 18 19  1  0
 20 19  2  0
 21 22  1  0
 21 14  1  0
 23 21  2  0
M  END
$$$$
