SCH.pdb
     RDKit          3D

 23 23  0  0  1  0  0  0  0  0999 V2000
    7.2431  -17.6788   21.0594 O   0  0  0  0  0  0  0  0  0  0  0  0
    6.2667  -16.6799   20.9850 C   0  0  0  0  0  0  0  0  0  0  0  0
    6.9878  -15.3720   20.7832 C   0  0  2  0  0  0  0  0  0  0  0  0
    7.7187  -15.4102   19.5428 N   0  0  0  0  0  0  0  0  0  0  0  0
    7.9381  -15.1154   21.8904 C   0  0  0  0  0  0  0  0  0  0  0  0
    9.1831  -15.1780   21.7032 O   0  0  0  0  0  0  0  0  0  0  0  0
    7.4554  -14.7930   23.1864 N   0  0  0  0  0  0  0  0  0  0  0  0
    8.4072  -14.5496   24.2771 C   0  0  1  0  0  0  0  0  0  0  0  0
    7.6690  -13.8062   25.3705 C   0  0  0  0  0  0  0  0  0  0  0  0
    6.0859  -14.6687   25.6501 S   0  0  0  0  0  0  0  0  0  0  0  0
    8.8358  -15.8626   24.8696 C   0  0  0  0  0  0  0  0  0  0  0  0
    8.0181  -16.8174   24.9034 O   0  0  0  0  0  0  0  0  0  0  0  0
   10.1157  -16.0741   25.3908 N   0  0  0  0  0  0  0  0  0  0  0  0
   10.5083  -17.3671   25.9875 C   0  0  1  0  0  0  0  0  0  0  0  0
   11.9175  -17.6801   25.6613 C   0  0  0  0  0  0  0  0  0  0  0  0
   12.1382  -17.8670   24.2216 C   0  0  0  0  0  0  0  0  0  0  0  0
   11.2986  -18.7283   23.4935 C   0  0  0  0  0  0  0  0  0  0  0  0
   11.6903  -18.7318   22.2336 N   0  0  0  0  0  0  0  0  0  0  0  0
   12.7328  -17.9154   22.1384 C   0  0  0  0  0  0  0  0  0  0  0  0
   13.0080  -17.3885   23.3421 N   0  0  0  0  0  0  0  0  0  0  0  0
   10.2714  -17.2672   27.4584 C   0  0  0  0  0  0  0  0  0  0  0  0
   10.4389  -18.3271   28.3093 O   0  0  0  0  0  0  0  0  0  0  0  0
    9.8997  -16.1594   27.9414 O   0  0  0  0  0  0  0  0  0  0  0  0
  2  3  1  0
  2  1  1  0
  3  4  1  6
  3  5  1  0
  5  7  1  0
  6  5  2  0
  7  8  1  0
  8 11  1  0
  8  9  1  1
  9 10  1  0
 11 12  2  0
 13 14  1  0
 13 11  1  0
 14 15  1  1
 15 16  1  0
 16 17  2  0
 16 20  1  0
 17 18  1  0
 18 19  1  0
 20 19  2  0
 21 22  1  0
 21 14  1  0
 23 21  2  0
M  END
$$$$
