SCH.pdb
     RDKit          3D

 23 23  0  0  1  0  0  0  0  0999 V2000
    6.2226  -20.9156   23.9837 O   0  0  0  0  0  0  0  0  0  0  0  0
    6.2789  -20.3482   22.7062 C   0  0  0  0  0  0  0  0  0  0  0  0
    5.9827  -21.4494   21.7208 C   0  0  2  0  0  0  0  0  0  0  0  0
    4.6829  -22.0059   21.9953 N   0  0  0  0  0  0  0  0  0  0  0  0
    6.9938  -22.5282   21.8130 C   0  0  0  0  0  0  0  0  0  0  0  0
    6.6995  -23.6520   22.3022 O   0  0  0  0  0  0  0  0  0  0  0  0
    8.3176  -22.3087   21.3479 N   0  0  0  0  0  0  0  0  0  0  0  0
    9.3135  -23.3816   21.4561 C   0  0  1  0  0  0  0  0  0  0  0  0
   10.2191  -23.2882   20.2460 C   0  0  0  0  0  0  0  0  0  0  0  0
   10.5642  -21.5211   19.9521 S   0  0  0  0  0  0  0  0  0  0  0  0
   10.1825  -23.1384   22.6580 C   0  0  0  0  0  0  0  0  0  0  0  0
   11.0869  -23.9656   22.9396 O   0  0  0  0  0  0  0  0  0  0  0  0
   10.0303  -22.0229   23.4866 N   0  0  0  0  0  0  0  0  0  0  0  0
   10.9136  -21.7905   24.6476 C   0  0  1  0  0  0  0  0  0  0  0  0
   11.6433  -20.5121   24.4941 C   0  0  0  0  0  0  0  0  0  0  0  0
   12.5617  -20.5175   23.3482 C   0  0  0  0  0  0  0  0  0  0  0  0
   13.6459  -21.4126   23.3278 C   0  0  0  0  0  0  0  0  0  0  0  0
   14.3201  -21.2310   22.2084 N   0  0  0  0  0  0  0  0  0  0  0  0
   13.7112  -20.2670   21.5285 C   0  0  0  0  0  0  0  0  0  0  0  0
   12.6439  -19.8313   22.2163 N   0  0  0  0  0  0  0  0  0  0  0  0
   10.0560  -21.8151   25.8697 C   0  0  0  0  0  0  0  0  0  0  0  0
   10.5696  -21.7353   27.1367 O   0  0  0  0  0  0  0  0  0  0  0  0
    8.8031  -21.9147   25.7324 O   0  0  0  0  0  0  0  0  0  0  0  0
  2  3  1  0
  2  1  1  0
  3  4  1  1
  3  5  1  0
  5  7  1  0
  6  5  2  0
  7  8  1  0
  8 11  1  0
  8  9  1  6
  9 10  1  0
 11 12  2  0
 13 14  1  0
 13 11  1  0
 14 15  1  6
 15 16  1  0
 16 17  2  0
 16 20  1  0
 17 18  1  0
 18 19  1  0
 20 19  2  0
 21 22  1  0
 21 14  1  0
 23 21  2  0
M  END
$$$$
