SCH.pdb
     RDKit          3D

 23 23  0  0  1  0  0  0  0  0999 V2000
    8.1447  -19.5666   20.8909 O   0  0  0  0  0  0  0  0  0  0  0  0
    7.5212  -18.7950   19.9045 C   0  0  0  0  0  0  0  0  0  0  0  0
    8.5736  -17.8847   19.3254 C   0  0  2  0  0  0  0  0  0  0  0  0
    9.7408  -18.6547   18.9803 N   0  0  0  0  0  0  0  0  0  0  0  0
    8.9620  -16.8380   20.2992 C   0  0  0  0  0  0  0  0  0  0  0  0
   10.1323  -16.7887   20.7651 O   0  0  0  0  0  0  0  0  0  0  0  0
    8.0141  -15.8695   20.7237 N   0  0  0  0  0  0  0  0  0  0  0  0
    8.4330  -14.7875   21.6228 C   0  0  1  0  0  0  0  0  0  0  0  0
    7.4589  -13.6419   21.4440 C   0  0  0  0  0  0  0  0  0  0  0  0
    8.0274  -12.2665   22.4990 S   0  0  0  0  0  0  0  0  0  0  0  0
    8.2986  -15.2417   23.0492 C   0  0  0  0  0  0  0  0  0  0  0  0
    7.3364  -15.9856   23.3688 O   0  0  0  0  0  0  0  0  0  0  0  0
    9.2038  -14.8715   24.0481 N   0  0  0  0  0  0  0  0  0  0  0  0
    9.0203  -15.2830   25.4549 C   0  0  1  0  0  0  0  0  0  0  0  0
    7.5835  -15.2850   25.8095 C   0  0  0  0  0  0  0  0  0  0  0  0
    7.0476  -13.9329   26.0120 C   0  0  0  0  0  0  0  0  0  0  0  0
    7.9177  -12.8285   25.9972 C   0  0  0  0  0  0  0  0  0  0  0  0
    7.2105  -11.7331   26.1989 N   0  0  0  0  0  0  0  0  0  0  0  0
    5.9418  -12.0983   26.3390 C   0  0  0  0  0  0  0  0  0  0  0  0
    5.8384  -13.4319   26.2263 N   0  0  0  0  0  0  0  0  0  0  0  0
    9.6482  -16.6290   25.6090 C   0  0  0  0  0  0  0  0  0  0  0  0
   10.2348  -17.2964   24.5668 O   0  0  0  0  0  0  0  0  0  0  0  0
    9.6387  -17.1785   26.7476 O   0  0  0  0  0  0  0  0  0  0  0  0
  2  3  1  0
  2  1  1  0
  3  4  1  1
  3  5  1  0
  5  7  1  0
  6  5  2  0
  7  8  1  0
  8 11  1  0
  8  9  1  1
  9 10  1  0
 11 12  2  0
 13 14  1  0
 13 11  1  0
 14 15  1  6
 15 16  1  0
 16 17  2  0
 16 20  1  0
 17 18  1  0
 18 19  1  0
 20 19  2  0
 21 22  1  0
 21 14  1  0
 23 21  2  0
M  END
$$$$
