SCH.pdb
     RDKit          3D

 23 23  0  0  1  0  0  0  0  0999 V2000
    7.3238  -17.1069   21.5259 O   0  0  0  0  0  0  0  0  0  0  0  0
    6.3657  -16.0878   21.5046 C   0  0  0  0  0  0  0  0  0  0  0  0
    7.1102  -14.7850   21.3632 C   0  0  2  0  0  0  0  0  0  0  0  0
    7.9228  -14.8201   20.1745 N   0  0  0  0  0  0  0  0  0  0  0  0
    7.9859  -14.5462   22.5340 C   0  0  0  0  0  0  0  0  0  0  0  0
    9.2342  -14.7012   22.4518 O   0  0  0  0  0  0  0  0  0  0  0  0
    7.4265  -14.1365   23.7734 N   0  0  0  0  0  0  0  0  0  0  0  0
    8.3050  -13.9032   24.9260 C   0  0  1  0  0  0  0  0  0  0  0  0
    7.5294  -13.0792   25.9323 C   0  0  0  0  0  0  0  0  0  0  0  0
    8.6618  -12.6789   27.3054 S   0  0  0  0  0  0  0  0  0  0  0  0
    8.6117  -15.2137   25.5948 C   0  0  0  0  0  0  0  0  0  0  0  0
    7.6728  -16.0147   25.8362 O   0  0  0  0  0  0  0  0  0  0  0  0
    9.9068  -15.5875   25.9653 N   0  0  0  0  0  0  0  0  0  0  0  0
   10.1840  -16.8788   26.6270 C   0  0  1  0  0  0  0  0  0  0  0  0
   11.4603  -17.4465   26.1383 C   0  0  0  0  0  0  0  0  0  0  0  0
   11.3579  -17.9808   24.7743 C   0  0  0  0  0  0  0  0  0  0  0  0
   10.1146  -17.9825   24.1176 C   0  0  0  0  0  0  0  0  0  0  0  0
   10.2737  -18.5061   22.9171 N   0  0  0  0  0  0  0  0  0  0  0  0
   11.5545  -18.8315   22.7911 C   0  0  0  0  0  0  0  0  0  0  0  0
   12.2160  -18.5146   23.9154 N   0  0  0  0  0  0  0  0  0  0  0  0
   10.1967  -16.6294   28.0992 C   0  0  0  0  0  0  0  0  0  0  0  0
   10.0240  -17.6273   29.0210 O   0  0  0  0  0  0  0  0  0  0  0  0
   10.3730  -15.4485   28.5151 O   0  0  0  0  0  0  0  0  0  0  0  0
  2  3  1  0
  2  1  1  0
  3  4  1  6
  3  5  1  0
  5  7  1  0
  6  5  2  0
  7  8  1  0
  8 11  1  0
  8  9  1  1
  9 10  1  0
 11 12  2  0
 13 14  1  0
 13 11  1  0
 14 15  1  6
 15 16  1  0
 16 17  2  0
 16 20  1  0
 17 18  1  0
 18 19  1  0
 20 19  2  0
 21 22  1  0
 21 14  1  0
 23 21  2  0
M  END
$$$$
