SCH.pdb
     RDKit          3D

 23 23  0  0  1  0  0  0  0  0999 V2000
   11.5723  -17.6854   16.6068 O   0  0  0  0  0  0  0  0  0  0  0  0
   12.2954  -18.8120   17.0127 C   0  0  0  0  0  0  0  0  0  0  0  0
   11.3056  -19.9368   17.1754 C   0  0  2  0  0  0  0  0  0  0  0  0
   10.6365  -20.1758   15.9226 N   0  0  0  0  0  0  0  0  0  0  0  0
   10.2916  -19.6048   18.2032 C   0  0  0  0  0  0  0  0  0  0  0  0
    9.0856  -19.4185   17.8872 O   0  0  0  0  0  0  0  0  0  0  0  0
   10.6677  -19.4914   19.5679 N   0  0  0  0  0  0  0  0  0  0  0  0
    9.6573  -19.1430   20.5741 C   0  0  1  0  0  0  0  0  0  0  0  0
    9.6103  -20.2704   21.5839 C   0  0  0  0  0  0  0  0  0  0  0  0
   11.3197  -20.5838   22.1387 S   0  0  0  0  0  0  0  0  0  0  0  0
   10.0996  -17.9179   21.3241 C   0  0  0  0  0  0  0  0  0  0  0  0
   11.3217  -17.6232   21.3528 O   0  0  0  0  0  0  0  0  0  0  0  0
    9.2053  -17.0816   21.9987 N   0  0  0  0  0  0  0  0  0  0  0  0
    9.6587  -15.8638   22.7011 C   0  0  1  0  0  0  0  0  0  0  0  0
    8.5658  -14.8682   22.7672 C   0  0  0  0  0  0  0  0  0  0  0  0
    8.2374  -14.2986   21.4541 C   0  0  0  0  0  0  0  0  0  0  0  0
    9.0210  -14.6299   20.3346 C   0  0  0  0  0  0  0  0  0  0  0  0
    8.5354  -14.0022   19.2807 N   0  0  0  0  0  0  0  0  0  0  0  0
    7.4874  -13.2952   19.6860 C   0  0  0  0  0  0  0  0  0  0  0  0
    7.3030  -13.4720   21.0038 N   0  0  0  0  0  0  0  0  0  0  0  0
   10.1324  -16.2821   24.0540 C   0  0  0  0  0  0  0  0  0  0  0  0
   10.8411  -15.4511   24.8803 O   0  0  0  0  0  0  0  0  0  0  0  0
    9.8708  -17.4520   24.4558 O   0  0  0  0  0  0  0  0  0  0  0  0
  2  3  1  0
  2  1  1  0
  3  4  1  6
  3  5  1  0
  5  7  1  0
  6  5  2  0
  7  8  1  0
  8 11  1  0
  8  9  1  1
  9 10  1  0
 11 12  2  0
 13 14  1  0
 13 11  1  0
 14 15  1  1
 15 16  1  0
 16 17  2  0
 16 20  1  0
 17 18  1  0
 18 19  1  0
 20 19  2  0
 21 22  1  0
 21 14  1  0
 23 21  2  0
M  END
$$$$
