SCH.pdb
     RDKit          3D

 23 23  0  0  1  0  0  0  0  0999 V2000
   10.1746  -17.9013   16.7268 O   0  0  0  0  0  0  0  0  0  0  0  0
   10.6270  -19.2158   16.8824 C   0  0  0  0  0  0  0  0  0  0  0  0
    9.4066  -20.0976   16.9500 C   0  0  2  0  0  0  0  0  0  0  0  0
    8.6201  -19.9253   15.7558 N   0  0  0  0  0  0  0  0  0  0  0  0
    8.5719  -19.7567   18.1255 C   0  0  0  0  0  0  0  0  0  0  0  0
    7.3564  -20.0868   18.1747 O   0  0  0  0  0  0  0  0  0  0  0  0
    9.1344  -19.0484   19.2204 N   0  0  0  0  0  0  0  0  0  0  0  0
    8.3178  -18.7816   20.4106 C   0  0  1  0  0  0  0  0  0  0  0  0
    8.1986  -20.0787   21.1830 C   0  0  0  0  0  0  0  0  0  0  0  0
    9.8769  -20.5605   21.7115 S   0  0  0  0  0  0  0  0  0  0  0  0
    9.0410  -17.8168   21.3078 C   0  0  0  0  0  0  0  0  0  0  0  0
   10.2868  -17.9205   21.4440 O   0  0  0  0  0  0  0  0  0  0  0  0
    8.3856  -16.7981   22.0056 N   0  0  0  0  0  0  0  0  0  0  0  0
    9.1299  -15.7711   22.7628 C   0  0  1  0  0  0  0  0  0  0  0  0
    8.3535  -14.5128   22.8273 C   0  0  0  0  0  0  0  0  0  0  0  0
    8.0773  -13.9482   21.5001 C   0  0  0  0  0  0  0  0  0  0  0  0
    9.1320  -13.7585   20.5898 C   0  0  0  0  0  0  0  0  0  0  0  0
    8.6409  -13.2445   19.4784 N   0  0  0  0  0  0  0  0  0  0  0  0
    7.3319  -13.1036   19.6490 C   0  0  0  0  0  0  0  0  0  0  0  0
    6.9856  -13.5293   20.8741 N   0  0  0  0  0  0  0  0  0  0  0  0
    9.4145  -16.3362   24.1152 C   0  0  0  0  0  0  0  0  0  0  0  0
   10.2286  -15.7119   25.0225 O   0  0  0  0  0  0  0  0  0  0  0  0
    8.8843  -17.4373   24.4389 O   0  0  0  0  0  0  0  0  0  0  0  0
  2  3  1  0
  2  1  1  0
  3  4  1  6
  3  5  1  0
  5  7  1  0
  6  5  2  0
  7  8  1  0
  8 11  1  0
  8  9  1  1
  9 10  1  0
 11 12  2  0
 13 14  1  0
 13 11  1  0
 14 15  1  1
 15 16  1  0
 16 17  2  0
 16 20  1  0
 17 18  1  0
 18 19  1  0
 20 19  2  0
 21 22  1  0
 21 14  1  0
 23 21  2  0
M  END
$$$$
