SCH.pdb
     RDKit          3D

 23 23  0  0  1  0  0  0  0  0999 V2000
    9.7375  -18.9084   18.9451 O   0  0  0  0  0  0  0  0  0  0  0  0
    8.4663  -18.4752   18.5535 C   0  0  0  0  0  0  0  0  0  0  0  0
    8.5450  -16.9808   18.3746 C   0  0  2  0  0  0  0  0  0  0  0  0
    9.3425  -16.6750   17.2150 N   0  0  0  0  0  0  0  0  0  0  0  0
    9.1584  -16.3376   19.5599 C   0  0  0  0  0  0  0  0  0  0  0  0
   10.0423  -15.4483   19.4297 O   0  0  0  0  0  0  0  0  0  0  0  0
    8.7556  -16.7170   20.8677 N   0  0  0  0  0  0  0  0  0  0  0  0
    9.3233  -16.0270   22.0323 C   0  0  1  0  0  0  0  0  0  0  0  0
    8.6614  -14.6683   22.1259 C   0  0  0  0  0  0  0  0  0  0  0  0
    6.8676  -14.9135   21.9022 S   0  0  0  0  0  0  0  0  0  0  0  0
    8.9503  -16.7694   23.2847 C   0  0  0  0  0  0  0  0  0  0  0  0
    8.0349  -17.6303   23.2389 O   0  0  0  0  0  0  0  0  0  0  0  0
    9.5809  -16.5446   24.5120 N   0  0  0  0  0  0  0  0  0  0  0  0
   10.8604  -17.1961   24.8594 C   0  0  1  0  0  0  0  0  0  0  0  0
   11.8666  -16.9560   23.8011 C   0  0  0  0  0  0  0  0  0  0  0  0
   12.5795  -18.1785   23.4087 C   0  0  0  0  0  0  0  0  0  0  0  0
   11.8541  -19.2914   22.9481 C   0  0  0  0  0  0  0  0  0  0  0  0
   12.7046  -20.2578   22.6595 N   0  0  0  0  0  0  0  0  0  0  0  0
   13.9254  -19.8040   22.9169 C   0  0  0  0  0  0  0  0  0  0  0  0
   13.8542  -18.5430   23.3716 N   0  0  0  0  0  0  0  0  0  0  0  0
   11.2869  -16.6576   26.1853 C   0  0  0  0  0  0  0  0  0  0  0  0
   12.0265  -17.3870   27.0777 O   0  0  0  0  0  0  0  0  0  0  0  0
   10.9519  -15.4800   26.5004 O   0  0  0  0  0  0  0  0  0  0  0  0
  2  3  1  0
  2  1  1  0
  3  4  1  6
  3  5  1  0
  5  7  1  0
  6  5  2  0
  7  8  1  0
  8 11  1  0
  8  9  1  1
  9 10  1  0
 11 12  2  0
 13 14  1  0
 13 11  1  0
 14 15  1  6
 15 16  1  0
 16 17  2  0
 16 20  1  0
 17 18  1  0
 18 19  1  0
 20 19  2  0
 21 22  1  0
 21 14  1  0
 23 21  2  0
M  END
$$$$
