EWP.pdb
     RDKit          3D

 31 33  0  0  1  0  0  0  0  0999 V2000
    9.9420  -18.2694   21.5966 N   0  0  0  0  0  0  0  0  0  0  0  0
   11.0687  -17.4594   21.9256 C   0  0  1  0  0  0  0  0  0  0  0  0
   11.4615  -16.6155   20.7647 C   0  0  0  0  0  0  0  0  0  0  0  0
   10.4423  -16.5359   19.6671 C   0  0  0  0  0  0  0  0  0  0  0  0
   10.9531  -16.7608   18.3170 C   0  0  0  0  0  0  0  0  0  0  0  0
   11.1303  -17.9398   17.8991 O   0  0  0  0  0  0  0  0  0  0  0  0
   10.8548  -16.6583   23.1658 C   0  0  0  0  0  0  0  0  0  0  0  0
   11.6898  -15.7944   23.5379 O   0  0  0  0  0  0  0  0  0  0  0  0
   11.2708  -15.7423   17.4246 O   0  0  0  0  0  0  0  0  0  0  0  0
    9.7109  -16.8248   23.9845 N   0  0  0  0  0  0  0  0  0  0  0  0
    9.6327  -16.2803   25.3573 C   0  0  1  0  0  0  0  0  0  0  0  0
    8.2093  -16.4783   25.7282 C   0  0  0  0  0  0  0  0  0  0  0  0
    7.2095  -15.5701   25.1906 C   0  0  0  0  0  0  0  0  0  0  0  0
    6.0959  -15.8947   24.4183 C   0  0  0  0  0  0  0  0  0  0  0  0
    5.4580  -14.7413   24.1681 N   0  0  0  0  0  0  0  0  0  0  0  0
    6.1056  -13.7143   24.7378 C   0  0  0  0  0  0  0  0  0  0  0  0
    5.8589  -12.3483   24.8096 C   0  0  0  0  0  0  0  0  0  0  0  0
    6.7205  -11.5251   25.5229 C   0  0  0  0  0  0  0  0  0  0  0  0
    7.8332  -12.0437   26.1702 C   0  0  0  0  0  0  0  0  0  0  0  0
    8.0765  -13.3922   26.0984 C   0  0  0  0  0  0  0  0  0  0  0  0
    7.2144  -14.2018   25.3887 C   0  0  0  0  0  0  0  0  0  0  0  0
   10.5834  -16.8937   26.2483 C   0  0  0  0  0  0  0  0  0  0  0  0
   11.3951  -17.7449   25.7315 O   0  0  0  0  0  0  0  0  0  0  0  0
   10.6410  -16.5729   27.6171 N   0  0  0  0  0  0  0  0  0  0  0  0
    9.7351  -15.7235   28.3228 C   0  0  0  0  0  0  0  0  0  0  0  0
   10.6739  -14.7922   29.0716 C   0  0  0  0  0  0  0  0  0  0  0  0
   11.9720  -15.5154   29.1281 C   0  0  0  0  0  0  0  0  0  0  0  0
   11.6495  -16.9464   28.5723 C   0  0  1  0  0  0  0  0  0  0  0  0
   11.2249  -17.7717   29.6971 C   0  0  0  0  0  0  0  0  0  0  0  0
    9.9975  -18.0480   29.7989 O   0  0  0  0  0  0  0  0  0  0  0  0
   12.0624  -18.2772   30.6591 O   0  0  0  0  0  0  0  0  0  0  0  0
  2  1  1  6
  3  2  1  0
  3  4  1  0
  4  5  1  0
  5  9  1  0
  6  5  2  0
  7  8  2  0
  7  2  1  0
 10  7  1  0
 11 10  1  0
 11 12  1  1
 12 13  1  0
 13 21  1  0
 13 14  2  0
 14 15  1  0
 16 15  1  0
 16 17  2  0
 18 17  1  0
 19 18  2  0
 20 21  2  0
 20 19  1  0
 21 16  1  0
 22 23  2  0
 22 11  1  0
 24 22  1  0
 25 24  1  0
 26 27  1  0
 26 25  1  0
 27 28  1  0
 28 24  1  0
 28 29  1  1
 30 29  2  0
 31 29  1  0
M  END
$$$$
