EWP.pdb
     RDKit          3D

 31 33  0  0  1  0  0  0  0  0999 V2000
    9.5589  -15.8469   20.4028 N   0  0  0  0  0  0  0  0  0  0  0  0
    9.5959  -16.7755   21.4846 C   0  0  1  0  0  0  0  0  0  0  0  0
   10.5938  -17.8468   21.2188 C   0  0  0  0  0  0  0  0  0  0  0  0
   11.9280  -17.3621   20.7342 C   0  0  0  0  0  0  0  0  0  0  0  0
   12.9170  -18.4040   20.4684 C   0  0  0  0  0  0  0  0  0  0  0  0
   12.5454  -19.5249   20.0194 O   0  0  0  0  0  0  0  0  0  0  0  0
    9.8111  -16.1104   22.8025 C   0  0  0  0  0  0  0  0  0  0  0  0
   10.6187  -15.1543   22.9277 O   0  0  0  0  0  0  0  0  0  0  0  0
   14.2835  -18.2529   20.6787 O   0  0  0  0  0  0  0  0  0  0  0  0
    9.1248  -16.5150   23.9736 N   0  0  0  0  0  0  0  0  0  0  0  0
    9.3643  -15.8854   25.2902 C   0  0  1  0  0  0  0  0  0  0  0  0
    8.0559  -16.0132   25.9789 C   0  0  0  0  0  0  0  0  0  0  0  0
    6.9781  -15.1081   25.6148 C   0  0  0  0  0  0  0  0  0  0  0  0
    5.6951  -15.4447   25.1875 C   0  0  0  0  0  0  0  0  0  0  0  0
    5.0475  -14.2879   24.9821 N   0  0  0  0  0  0  0  0  0  0  0  0
    5.8484  -13.2473   25.2555 C   0  0  0  0  0  0  0  0  0  0  0  0
    5.6673  -11.8694   25.2382 C   0  0  0  0  0  0  0  0  0  0  0  0
    6.7060  -11.0292   25.6179 C   0  0  0  0  0  0  0  0  0  0  0  0
    7.9320  -11.5426   26.0167 C   0  0  0  0  0  0  0  0  0  0  0  0
    8.1103  -12.9031   26.0330 C   0  0  0  0  0  0  0  0  0  0  0  0
    7.0725  -13.7294   25.6554 C   0  0  0  0  0  0  0  0  0  0  0  0
   10.4780  -16.4743   25.9881 C   0  0  0  0  0  0  0  0  0  0  0  0
   11.3079  -17.1558   25.2828 O   0  0  0  0  0  0  0  0  0  0  0  0
   10.6677  -16.3056   27.3720 N   0  0  0  0  0  0  0  0  0  0  0  0
    9.8691  -15.5004   28.2404 C   0  0  0  0  0  0  0  0  0  0  0  0
   10.9139  -14.6948   28.9944 C   0  0  0  0  0  0  0  0  0  0  0  0
   12.1739  -15.4728   28.8590 C   0  0  0  0  0  0  0  0  0  0  0  0
   11.7334  -16.8210   28.1890 C   0  0  1  0  0  0  0  0  0  0  0  0
   11.3646  -17.7444   29.2556 C   0  0  0  0  0  0  0  0  0  0  0  0
   10.1387  -17.9894   29.4294 O   0  0  0  0  0  0  0  0  0  0  0  0
   12.2534  -18.3745   30.0897 O   0  0  0  0  0  0  0  0  0  0  0  0
  2  1  1  6
  3  2  1  0
  3  4  1  0
  4  5  1  0
  5  9  1  0
  6  5  2  0
  7  8  2  0
  7  2  1  0
 10  7  1  0
 11 10  1  0
 11 12  1  1
 12 13  1  0
 13 21  1  0
 13 14  2  0
 14 15  1  0
 16 15  1  0
 16 17  2  0
 18 17  1  0
 19 18  2  0
 20 21  2  0
 20 19  1  0
 21 16  1  0
 22 23  2  0
 22 11  1  0
 24 22  1  0
 25 24  1  0
 26 27  1  0
 26 25  1  0
 27 28  1  0
 28 24  1  0
 28 29  1  1
 30 29  2  0
 31 29  1  0
M  END
$$$$
