EWP.pdb
     RDKit          3D

 31 33  0  0  1  0  0  0  0  0999 V2000
    9.8755  -16.5160   20.4810 N   0  0  0  0  0  0  0  0  0  0  0  0
   10.8106  -16.9184   21.4797 C   0  0  1  0  0  0  0  0  0  0  0  0
   12.2033  -16.7944   20.9708 C   0  0  0  0  0  0  0  0  0  0  0  0
   12.5395  -17.6977   19.8215 C   0  0  0  0  0  0  0  0  0  0  0  0
   13.9132  -18.1943   19.7928 C   0  0  0  0  0  0  0  0  0  0  0  0
   14.7059  -17.9079   20.7339 O   0  0  0  0  0  0  0  0  0  0  0  0
   10.6106  -16.2017   22.7728 C   0  0  0  0  0  0  0  0  0  0  0  0
   11.1266  -15.0739   22.9815 O   0  0  0  0  0  0  0  0  0  0  0  0
   14.4345  -18.9853   18.7745 O   0  0  0  0  0  0  0  0  0  0  0  0
    9.8360  -16.7466   23.8262 N   0  0  0  0  0  0  0  0  0  0  0  0
    9.7411  -16.1038   25.1547 C   0  0  1  0  0  0  0  0  0  0  0  0
    8.2984  -16.2066   25.4874 C   0  0  0  0  0  0  0  0  0  0  0  0
    7.3741  -15.2412   24.9153 C   0  0  0  0  0  0  0  0  0  0  0  0
    6.6212  -15.3746   23.7502 C   0  0  0  0  0  0  0  0  0  0  0  0
    5.9071  -14.2454   23.6282 N   0  0  0  0  0  0  0  0  0  0  0  0
    6.1680  -13.4134   24.6473 C   0  0  0  0  0  0  0  0  0  0  0  0
    5.6865  -12.1603   25.0075 C   0  0  0  0  0  0  0  0  0  0  0  0
    6.1380  -11.5528   26.1720 C   0  0  0  0  0  0  0  0  0  0  0  0
    7.0693  -12.1773   26.9897 C   0  0  0  0  0  0  0  0  0  0  0  0
    7.5447  -13.4142   26.6332 C   0  0  0  0  0  0  0  0  0  0  0  0
    7.0894  -14.0098   25.4756 C   0  0  0  0  0  0  0  0  0  0  0  0
   10.6305  -16.6979   26.1191 C   0  0  0  0  0  0  0  0  0  0  0  0
   11.5055  -17.5232   25.6677 O   0  0  0  0  0  0  0  0  0  0  0  0
   10.5648  -16.3857   27.4894 N   0  0  0  0  0  0  0  0  0  0  0  0
    9.6919  -15.4315   28.0958 C   0  0  0  0  0  0  0  0  0  0  0  0
   10.6419  -14.6213   28.9622 C   0  0  0  0  0  0  0  0  0  0  0  0
   11.8268  -15.4976   29.1604 C   0  0  0  0  0  0  0  0  0  0  0  0
   11.4008  -16.8788   28.5510 C   0  0  1  0  0  0  0  0  0  0  0  0
   10.7496  -17.6454   29.6068 C   0  0  0  0  0  0  0  0  0  0  0  0
   11.4727  -18.1214   30.5253 O   0  0  0  0  0  0  0  0  0  0  0  0
    9.4014  -17.8891   29.6816 O   0  0  0  0  0  0  0  0  0  0  0  0
  2  1  1  6
  3  2  1  0
  3  4  1  0
  4  5  1  0
  5  9  1  0
  6  5  2  0
  7  8  2  0
  7  2  1  0
 10  7  1  0
 11 10  1  0
 11 12  1  1
 12 13  1  0
 13 21  1  0
 13 14  2  0
 14 15  1  0
 16 15  1  0
 16 17  2  0
 18 17  1  0
 19 18  2  0
 20 21  2  0
 20 19  1  0
 21 16  1  0
 22 23  2  0
 22 11  1  0
 24 22  1  0
 25 24  1  0
 26 27  1  0
 26 25  1  0
 27 28  1  0
 28 24  1  0
 28 29  1  1
 30 29  2  0
 31 29  1  0
M  END
$$$$
