EWP.pdb
     RDKit          3D

 31 33  0  0  1  0  0  0  0  0999 V2000
    8.1964  -17.5818   19.3213 N   0  0  0  0  0  0  0  0  0  0  0  0
    8.5430  -18.4134   20.4268 C   0  0  1  0  0  0  0  0  0  0  0  0
    9.5005  -19.4710   20.0041 C   0  0  0  0  0  0  0  0  0  0  0  0
   10.6643  -18.9832   19.1933 C   0  0  0  0  0  0  0  0  0  0  0  0
   11.5826  -20.0184   18.7250 C   0  0  0  0  0  0  0  0  0  0  0  0
   11.4121  -20.5443   17.5890 O   0  0  0  0  0  0  0  0  0  0  0  0
    9.0374  -17.6321   21.5976 C   0  0  0  0  0  0  0  0  0  0  0  0
   10.0349  -16.8720   21.5019 O   0  0  0  0  0  0  0  0  0  0  0  0
   12.6678  -20.4868   19.4582 O   0  0  0  0  0  0  0  0  0  0  0  0
    8.4168  -17.7025   22.8690 N   0  0  0  0  0  0  0  0  0  0  0  0
    8.9059  -16.9333   24.0335 C   0  0  1  0  0  0  0  0  0  0  0  0
    7.6587  -16.4970   24.7095 C   0  0  0  0  0  0  0  0  0  0  0  0
    7.5396  -15.1138   25.1411 C   0  0  0  0  0  0  0  0  0  0  0  0
    6.8395  -14.0859   24.5123 C   0  0  0  0  0  0  0  0  0  0  0  0
    6.9997  -12.9948   25.2761 N   0  0  0  0  0  0  0  0  0  0  0  0
    7.7579  -13.2782   26.3455 C   0  0  0  0  0  0  0  0  0  0  0  0
    8.1902  -12.5342   27.4370 C   0  0  0  0  0  0  0  0  0  0  0  0
    8.9577  -13.1361   28.4257 C   0  0  0  0  0  0  0  0  0  0  0  0
    9.3055  -14.4771   28.3443 C   0  0  0  0  0  0  0  0  0  0  0  0
    8.8788  -15.2109   27.2661 C   0  0  0  0  0  0  0  0  0  0  0  0
    8.1160  -14.6047   26.2899 C   0  0  0  0  0  0  0  0  0  0  0  0
    9.8085  -17.6952   24.8574 C   0  0  0  0  0  0  0  0  0  0  0  0
    9.5926  -18.9593   24.9363 O   0  0  0  0  0  0  0  0  0  0  0  0
   10.8874  -17.0986   25.5352 N   0  0  0  0  0  0  0  0  0  0  0  0
   11.1903  -15.7032   25.5748 C   0  0  0  0  0  0  0  0  0  0  0  0
   12.6701  -15.6785   25.2300 C   0  0  0  0  0  0  0  0  0  0  0  0
   13.1614  -17.0482   25.5362 C   0  0  0  0  0  0  0  0  0  0  0  0
   11.9529  -17.7490   26.2498 C   0  0  1  0  0  0  0  0  0  0  0  0
   12.0612  -17.4710   27.6771 C   0  0  0  0  0  0  0  0  0  0  0  0
   11.3023  -16.5901   28.1682 O   0  0  0  0  0  0  0  0  0  0  0  0
   12.9288  -18.0988   28.5349 O   0  0  0  0  0  0  0  0  0  0  0  0
  2  1  1  6
  3  2  1  0
  3  4  1  0
  4  5  1  0
  5  9  1  0
  6  5  2  0
  7  8  2  0
  7  2  1  0
 10  7  1  0
 11 10  1  0
 11 12  1  1
 12 13  1  0
 13 21  1  0
 13 14  2  0
 14 15  1  0
 16 15  1  0
 16 17  2  0
 18 17  1  0
 19 18  2  0
 20 21  2  0
 20 19  1  0
 21 16  1  0
 22 23  2  0
 22 11  1  0
 24 22  1  0
 25 24  1  0
 26 27  1  0
 26 25  1  0
 27 28  1  0
 28 24  1  0
 28 29  1  1
 30 29  2  0
 31 29  1  0
M  END
$$$$
