EWP.pdb
     RDKit          3D

 31 33  0  0  1  0  0  0  0  0999 V2000
    8.9585  -17.4773   20.9232 N   0  0  0  0  0  0  0  0  0  0  0  0
   10.3326  -17.7248   21.2135 C   0  0  1  0  0  0  0  0  0  0  0  0
   11.1591  -17.5851   19.9841 C   0  0  0  0  0  0  0  0  0  0  0  0
   10.7797  -18.5023   18.8594 C   0  0  0  0  0  0  0  0  0  0  0  0
   11.5810  -18.3728   17.6447 C   0  0  0  0  0  0  0  0  0  0  0  0
   12.5860  -17.6073   17.6321 O   0  0  0  0  0  0  0  0  0  0  0  0
   10.8396  -16.8871   22.3391 C   0  0  0  0  0  0  0  0  0  0  0  0
   12.0723  -16.7420   22.5419 O   0  0  0  0  0  0  0  0  0  0  0  0
   11.3143  -19.0502   16.4596 O   0  0  0  0  0  0  0  0  0  0  0  0
    9.9692  -16.2157   23.2323 N   0  0  0  0  0  0  0  0  0  0  0  0
   10.4339  -15.6514   24.5179 C   0  0  1  0  0  0  0  0  0  0  0  0
    9.6555  -14.3943   24.6464 C   0  0  0  0  0  0  0  0  0  0  0  0
    8.2439  -14.4726   24.9853 C   0  0  0  0  0  0  0  0  0  0  0  0
    7.4380  -15.6094   25.0060 C   0  0  0  0  0  0  0  0  0  0  0  0
    6.2183  -15.2032   25.3897 N   0  0  0  0  0  0  0  0  0  0  0  0
    6.2127  -13.8803   25.6106 C   0  0  0  0  0  0  0  0  0  0  0  0
    5.2405  -12.9859   26.0427 C   0  0  0  0  0  0  0  0  0  0  0  0
    5.5588  -11.6446   26.2117 C   0  0  0  0  0  0  0  0  0  0  0  0
    6.8392  -11.1754   25.9543 C   0  0  0  0  0  0  0  0  0  0  0  0
    7.7984  -12.0588   25.5271 C   0  0  0  0  0  0  0  0  0  0  0  0
    7.4730  -13.3891   25.3635 C   0  0  0  0  0  0  0  0  0  0  0  0
   10.2809  -16.5749   25.6124 C   0  0  0  0  0  0  0  0  0  0  0  0
   10.1312  -17.8139   25.3074 O   0  0  0  0  0  0  0  0  0  0  0  0
   10.3083  -16.1551   26.9550 N   0  0  0  0  0  0  0  0  0  0  0  0
    9.7826  -14.9293   27.4660 C   0  0  0  0  0  0  0  0  0  0  0  0
   10.9355  -14.4013   28.3035 C   0  0  0  0  0  0  0  0  0  0  0  0
   11.7756  -15.5921   28.5992 C   0  0  0  0  0  0  0  0  0  0  0  0
   10.9341  -16.8073   28.0740 C   0  0  1  0  0  0  0  0  0  0  0  0
   10.0636  -17.2437   29.1594 C   0  0  0  0  0  0  0  0  0  0  0  0
   10.6002  -17.7666   30.1752 O   0  0  0  0  0  0  0  0  0  0  0  0
    8.6966  -17.1270   29.1637 O   0  0  0  0  0  0  0  0  0  0  0  0
  2  1  1  6
  3  2  1  0
  3  4  1  0
  4  5  1  0
  5  9  1  0
  6  5  2  0
  7  8  2  0
  7  2  1  0
 10  7  1  0
 11 10  1  0
 11 12  1  1
 12 13  1  0
 13 21  1  0
 13 14  2  0
 14 15  1  0
 16 15  1  0
 16 17  2  0
 18 17  1  0
 19 18  2  0
 20 21  2  0
 20 19  1  0
 21 16  1  0
 22 23  2  0
 22 11  1  0
 24 22  1  0
 25 24  1  0
 26 27  1  0
 26 25  1  0
 27 28  1  0
 28 24  1  0
 28 29  1  1
 30 29  2  0
 31 29  1  0
M  END
$$$$
