EWP.pdb
     RDKit          3D

 31 33  0  0  1  0  0  0  0  0999 V2000
    4.4481  -18.6499   21.5823 N   0  0  0  0  0  0  0  0  0  0  0  0
    5.7504  -19.2280   21.5194 C   0  0  1  0  0  0  0  0  0  0  0  0
    5.9885  -19.8332   20.1811 C   0  0  0  0  0  0  0  0  0  0  0  0
    5.7461  -18.9154   19.0197 C   0  0  0  0  0  0  0  0  0  0  0  0
    6.6830  -19.0485   17.9067 C   0  0  0  0  0  0  0  0  0  0  0  0
    6.7167  -20.1190   17.2366 O   0  0  0  0  0  0  0  0  0  0  0  0
    6.8226  -18.2665   21.9089 C   0  0  0  0  0  0  0  0  0  0  0  0
    8.0047  -18.4065   21.5030 O   0  0  0  0  0  0  0  0  0  0  0  0
    7.5721  -18.0538   17.5136 O   0  0  0  0  0  0  0  0  0  0  0  0
    6.5707  -17.1542   22.7490 N   0  0  0  0  0  0  0  0  0  0  0  0
    7.6563  -16.3991   23.4111 C   0  0  1  0  0  0  0  0  0  0  0  0
    7.0454  -15.0724   23.6742 C   0  0  0  0  0  0  0  0  0  0  0  0
    7.7259  -14.1495   24.5680 C   0  0  0  0  0  0  0  0  0  0  0  0
    9.0918  -13.8807   24.6307 C   0  0  0  0  0  0  0  0  0  0  0  0
    9.2534  -12.9572   25.5904 N   0  0  0  0  0  0  0  0  0  0  0  0
    8.0703  -12.6319   26.1319 C   0  0  0  0  0  0  0  0  0  0  0  0
    7.6833  -11.7290   27.1152 C   0  0  0  0  0  0  0  0  0  0  0  0
    6.3400  -11.5924   27.4406 C   0  0  0  0  0  0  0  0  0  0  0  0
    5.3682  -12.3469   26.7987 C   0  0  0  0  0  0  0  0  0  0  0  0
    5.7510  -13.2386   25.8285 C   0  0  0  0  0  0  0  0  0  0  0  0
    7.0872  -13.3663   25.5114 C   0  0  0  0  0  0  0  0  0  0  0  0
    8.1660  -17.0747   24.5764 C   0  0  0  0  0  0  0  0  0  0  0  0
    7.3331  -17.7950   25.2383 O   0  0  0  0  0  0  0  0  0  0  0  0
    9.5123  -16.9718   24.9720 N   0  0  0  0  0  0  0  0  0  0  0  0
   10.4836  -16.0747   24.4315 C   0  0  0  0  0  0  0  0  0  0  0  0
   11.6599  -16.9949   24.1504 C   0  0  0  0  0  0  0  0  0  0  0  0
   11.4370  -18.1829   25.0165 C   0  0  0  0  0  0  0  0  0  0  0  0
   10.2203  -17.7856   25.9234 C   0  0  1  0  0  0  0  0  0  0  0  0
   10.7506  -17.1156   27.1051 C   0  0  0  0  0  0  0  0  0  0  0  0
   11.3126  -17.8242   27.9856 O   0  0  0  0  0  0  0  0  0  0  0  0
   10.6879  -15.7644   27.3350 O   0  0  0  0  0  0  0  0  0  0  0  0
  2  1  1  6
  3  2  1  0
  3  4  1  0
  4  5  1  0
  5  9  1  0
  6  5  2  0
  7  8  2  0
  7  2  1  0
 10  7  1  0
 11 10  1  0
 11 12  1  1
 12 13  1  0
 13 21  1  0
 13 14  2  0
 14 15  1  0
 16 15  1  0
 16 17  2  0
 18 17  1  0
 19 18  2  0
 20 21  2  0
 20 19  1  0
 21 16  1  0
 22 23  2  0
 22 11  1  0
 24 22  1  0
 25 24  1  0
 26 27  1  0
 26 25  1  0
 27 28  1  0
 28 24  1  0
 28 29  1  1
 30 29  2  0
 31 29  1  0
M  END
$$$$
