EWP.pdb
     RDKit          3D

 31 33  0  0  1  0  0  0  0  0999 V2000
    9.6511  -16.1095   20.4259 N   0  0  0  0  0  0  0  0  0  0  0  0
    9.7529  -16.9924   21.5413 C   0  0  1  0  0  0  0  0  0  0  0  0
   10.8439  -17.9812   21.3262 C   0  0  0  0  0  0  0  0  0  0  0  0
   12.2206  -17.3933   21.2322 C   0  0  0  0  0  0  0  0  0  0  0  0
   13.3016  -18.3537   21.0234 C   0  0  0  0  0  0  0  0  0  0  0  0
   13.5363  -18.7950   19.8631 O   0  0  0  0  0  0  0  0  0  0  0  0
    9.8905  -16.2648   22.8364 C   0  0  0  0  0  0  0  0  0  0  0  0
   10.7023  -15.3132   22.9681 O   0  0  0  0  0  0  0  0  0  0  0  0
   14.1210  -18.8371   22.0380 O   0  0  0  0  0  0  0  0  0  0  0  0
    9.1222  -16.6021   23.9775 N   0  0  0  0  0  0  0  0  0  0  0  0
    9.3331  -15.9604   25.2931 C   0  0  1  0  0  0  0  0  0  0  0  0
    8.0110  -16.0856   25.9559 C   0  0  0  0  0  0  0  0  0  0  0  0
    6.9390  -15.1860   25.5623 C   0  0  0  0  0  0  0  0  0  0  0  0
    5.6873  -15.5285   25.0542 C   0  0  0  0  0  0  0  0  0  0  0  0
    5.0317  -14.3758   24.8508 N   0  0  0  0  0  0  0  0  0  0  0  0
    5.7980  -13.3324   25.2014 C   0  0  0  0  0  0  0  0  0  0  0  0
    5.5940  -11.9577   25.2187 C   0  0  0  0  0  0  0  0  0  0  0  0
    6.5954  -11.1142   25.6821 C   0  0  0  0  0  0  0  0  0  0  0  0
    7.8067  -11.6212   26.1312 C   0  0  0  0  0  0  0  0  0  0  0  0
    8.0077  -12.9785   26.1133 C   0  0  0  0  0  0  0  0  0  0  0  0
    7.0068  -13.8081   25.6525 C   0  0  0  0  0  0  0  0  0  0  0  0
   10.4335  -16.5403   26.0189 C   0  0  0  0  0  0  0  0  0  0  0  0
   11.2597  -17.2553   25.3430 O   0  0  0  0  0  0  0  0  0  0  0  0
   10.6149  -16.3285   27.3979 N   0  0  0  0  0  0  0  0  0  0  0  0
    9.8354  -15.4663   28.2282 C   0  0  0  0  0  0  0  0  0  0  0  0
   10.8993  -14.6697   28.9649 C   0  0  0  0  0  0  0  0  0  0  0  0
   12.1334  -15.4940   28.8714 C   0  0  0  0  0  0  0  0  0  0  0  0
   11.6542  -16.8498   28.2447 C   0  0  1  0  0  0  0  0  0  0  0  0
   11.2436  -17.7215   29.3393 C   0  0  0  0  0  0  0  0  0  0  0  0
   12.1403  -18.1778   30.1014 O   0  0  0  0  0  0  0  0  0  0  0  0
    9.9483  -18.0849   29.6088 O   0  0  0  0  0  0  0  0  0  0  0  0
  2  1  1  6
  3  2  1  0
  3  4  1  0
  4  5  1  0
  5  9  1  0
  6  5  2  0
  7  8  2  0
  7  2  1  0
 10  7  1  0
 11 10  1  0
 11 12  1  1
 12 13  1  0
 13 21  1  0
 13 14  2  0
 14 15  1  0
 16 15  1  0
 16 17  2  0
 18 17  1  0
 19 18  2  0
 20 21  2  0
 20 19  1  0
 21 16  1  0
 22 23  2  0
 22 11  1  0
 24 22  1  0
 25 24  1  0
 26 27  1  0
 26 25  1  0
 27 28  1  0
 28 24  1  0
 28 29  1  1
 30 29  2  0
 31 29  1  0
M  END
$$$$
