EWP.pdb
     RDKit          3D

 31 33  0  0  1  0  0  0  0  0999 V2000
    9.8607  -16.6968   20.4466 N   0  0  0  0  0  0  0  0  0  0  0  0
   10.8334  -17.0974   21.4096 C   0  0  1  0  0  0  0  0  0  0  0  0
   12.2066  -16.9552   20.8545 C   0  0  0  0  0  0  0  0  0  0  0  0
   12.5527  -17.9276   19.7661 C   0  0  0  0  0  0  0  0  0  0  0  0
   13.9149  -17.8317   19.2469 C   0  0  0  0  0  0  0  0  0  0  0  0
   14.1228  -17.9228   18.0041 O   0  0  0  0  0  0  0  0  0  0  0  0
   10.6706  -16.3931   22.7146 C   0  0  0  0  0  0  0  0  0  0  0  0
   11.2327  -15.2900   22.9364 O   0  0  0  0  0  0  0  0  0  0  0  0
   15.0401  -17.6415   20.0420 O   0  0  0  0  0  0  0  0  0  0  0  0
    9.8817  -16.9225   23.7652 N   0  0  0  0  0  0  0  0  0  0  0  0
    9.7453  -16.2451   25.0727 C   0  0  1  0  0  0  0  0  0  0  0  0
    8.2809  -16.2485   25.3139 C   0  0  0  0  0  0  0  0  0  0  0  0
    7.4686  -15.1966   24.7245 C   0  0  0  0  0  0  0  0  0  0  0  0
    6.8220  -15.2148   23.4901 C   0  0  0  0  0  0  0  0  0  0  0  0
    6.1855  -14.0392   23.3775 N   0  0  0  0  0  0  0  0  0  0  0  0
    6.3949  -13.2864   24.4677 C   0  0  0  0  0  0  0  0  0  0  0  0
    5.9512  -12.0301   24.8632 C   0  0  0  0  0  0  0  0  0  0  0  0
    6.3242  -11.5213   26.1005 C   0  0  0  0  0  0  0  0  0  0  0  0
    7.1391  -12.2484   26.9568 C   0  0  0  0  0  0  0  0  0  0  0  0
    7.5773  -13.4884   26.5653 C   0  0  0  0  0  0  0  0  0  0  0  0
    7.2005  -13.9857   25.3353 C   0  0  0  0  0  0  0  0  0  0  0  0
   10.5318  -16.8728   26.1030 C   0  0  0  0  0  0  0  0  0  0  0  0
   11.3221  -17.8161   25.7339 O   0  0  0  0  0  0  0  0  0  0  0  0
   10.4591  -16.4708   27.4494 N   0  0  0  0  0  0  0  0  0  0  0  0
    9.5935  -15.4684   27.9844 C   0  0  0  0  0  0  0  0  0  0  0  0
   10.5467  -14.6149   28.8043 C   0  0  0  0  0  0  0  0  0  0  0  0
   11.7188  -15.4906   29.0698 C   0  0  0  0  0  0  0  0  0  0  0  0
   11.2802  -16.9035   28.5483 C   0  0  1  0  0  0  0  0  0  0  0  0
   10.6108  -17.5913   29.6461 C   0  0  0  0  0  0  0  0  0  0  0  0
    9.3546  -17.7033   29.5968 O   0  0  0  0  0  0  0  0  0  0  0  0
   11.2453  -18.1325   30.7357 O   0  0  0  0  0  0  0  0  0  0  0  0
  2  1  1  6
  3  2  1  0
  3  4  1  0
  4  5  1  0
  5  9  1  0
  6  5  2  0
  7  8  2  0
  7  2  1  0
 10  7  1  0
 11 10  1  0
 11 12  1  1
 12 13  1  0
 13 21  1  0
 13 14  2  0
 14 15  1  0
 16 15  1  0
 16 17  2  0
 18 17  1  0
 19 18  2  0
 20 21  2  0
 20 19  1  0
 21 16  1  0
 22 23  2  0
 22 11  1  0
 24 22  1  0
 25 24  1  0
 26 27  1  0
 26 25  1  0
 27 28  1  0
 28 24  1  0
 28 29  1  1
 30 29  2  0
 31 29  1  0
M  END
$$$$
