EWP.pdb
     RDKit          3D

 31 33  0  0  1  0  0  0  0  0999 V2000
   11.7106  -16.4066   19.7924 N   0  0  0  0  0  0  0  0  0  0  0  0
   11.5030  -17.2125   20.9505 C   0  0  1  0  0  0  0  0  0  0  0  0
   12.7067  -18.0404   21.2328 C   0  0  0  0  0  0  0  0  0  0  0  0
   13.3636  -18.6347   20.0223 C   0  0  0  0  0  0  0  0  0  0  0  0
   14.5723  -17.9536   19.5645 C   0  0  0  0  0  0  0  0  0  0  0  0
   15.0600  -17.0094   20.2476 O   0  0  0  0  0  0  0  0  0  0  0  0
   11.0709  -16.4132   22.1338 C   0  0  0  0  0  0  0  0  0  0  0  0
   11.8332  -15.5637   22.6622 O   0  0  0  0  0  0  0  0  0  0  0  0
   15.2516  -18.2749   18.3941 O   0  0  0  0  0  0  0  0  0  0  0  0
    9.7911  -16.5654   22.7215 N   0  0  0  0  0  0  0  0  0  0  0  0
    9.4295  -15.9328   24.0083 C   0  0  1  0  0  0  0  0  0  0  0  0
    7.9553  -15.7850   23.9199 C   0  0  0  0  0  0  0  0  0  0  0  0
    7.2334  -15.2422   25.0591 C   0  0  0  0  0  0  0  0  0  0  0  0
    6.6091  -15.9507   26.0840 C   0  0  0  0  0  0  0  0  0  0  0  0
    6.0889  -15.0357   26.9159 N   0  0  0  0  0  0  0  0  0  0  0  0
    6.3503  -13.7970   26.4730 C   0  0  0  0  0  0  0  0  0  0  0  0
    6.0725  -12.5265   26.9633 C   0  0  0  0  0  0  0  0  0  0  0  0
    6.5184  -11.4054   26.2753 C   0  0  0  0  0  0  0  0  0  0  0  0
    7.2412  -11.5297   25.0972 C   0  0  0  0  0  0  0  0  0  0  0  0
    7.5145  -12.7844   24.6133 C   0  0  0  0  0  0  0  0  0  0  0  0
    7.0686  -13.8916   25.3043 C   0  0  0  0  0  0  0  0  0  0  0  0
    9.8973  -16.6859   25.1432 C   0  0  0  0  0  0  0  0  0  0  0  0
   10.2802  -17.8917   24.9194 O   0  0  0  0  0  0  0  0  0  0  0  0
    9.9520  -16.1342   26.4363 N   0  0  0  0  0  0  0  0  0  0  0  0
    9.4618  -14.8507   26.8268 C   0  0  0  0  0  0  0  0  0  0  0  0
   10.6375  -14.2697   27.5945 C   0  0  0  0  0  0  0  0  0  0  0  0
   11.4535  -15.4449   27.9997 C   0  0  0  0  0  0  0  0  0  0  0  0
   10.5771  -16.6857   27.6086 C   0  0  1  0  0  0  0  0  0  0  0  0
    9.7109  -16.9894   28.7417 C   0  0  0  0  0  0  0  0  0  0  0  0
    8.4778  -16.7458   28.6267 O   0  0  0  0  0  0  0  0  0  0  0  0
   10.1348  -17.5259   29.9313 O   0  0  0  0  0  0  0  0  0  0  0  0
  2  1  1  6
  3  2  1  0
  3  4  1  0
  4  5  1  0
  5  9  1  0
  6  5  2  0
  7  8  2  0
  7  2  1  0
 10  7  1  0
 11 10  1  0
 11 12  1  1
 12 13  1  0
 13 21  1  0
 13 14  2  0
 14 15  1  0
 16 15  1  0
 16 17  2  0
 18 17  1  0
 19 18  2  0
 20 21  2  0
 20 19  1  0
 21 16  1  0
 22 23  2  0
 22 11  1  0
 24 22  1  0
 25 24  1  0
 26 27  1  0
 26 25  1  0
 27 28  1  0
 28 24  1  0
 28 29  1  1
 30 29  2  0
 31 29  1  0
M  END
$$$$
