EWP.pdb
     RDKit          3D

 31 33  0  0  1  0  0  0  0  0999 V2000
   10.0347  -16.1518   20.4983 N   0  0  0  0  0  0  0  0  0  0  0  0
   10.0347  -17.0444   21.6106 C   0  0  1  0  0  0  0  0  0  0  0  0
   11.1009  -18.0707   21.4561 C   0  0  0  0  0  0  0  0  0  0  0  0
   12.4739  -17.5230   21.2016 C   0  0  0  0  0  0  0  0  0  0  0  0
   13.5281  -18.5206   21.0352 C   0  0  0  0  0  0  0  0  0  0  0  0
   13.6830  -19.0929   19.9196 O   0  0  0  0  0  0  0  0  0  0  0  0
   10.1169  -16.3297   22.9176 C   0  0  0  0  0  0  0  0  0  0  0  0
   10.7694  -15.2613   23.0383 O   0  0  0  0  0  0  0  0  0  0  0  0
   14.4052  -18.9029   22.0447 O   0  0  0  0  0  0  0  0  0  0  0  0
    9.4708  -16.8103   24.0830 N   0  0  0  0  0  0  0  0  0  0  0  0
    9.5721  -16.1203   25.3871 C   0  0  1  0  0  0  0  0  0  0  0  0
    8.1970  -16.2156   25.9375 C   0  0  0  0  0  0  0  0  0  0  0  0
    7.1525  -15.3794   25.3689 C   0  0  0  0  0  0  0  0  0  0  0  0
    6.0640  -15.7866   24.5998 C   0  0  0  0  0  0  0  0  0  0  0  0
    5.3652  -14.6777   24.3137 N   0  0  0  0  0  0  0  0  0  0  0  0
    5.9511  -13.6009   24.8578 C   0  0  0  0  0  0  0  0  0  0  0  0
    5.6288  -12.2492   24.8897 C   0  0  0  0  0  0  0  0  0  0  0  0
    6.4386  -11.3600   25.5843 C   0  0  0  0  0  0  0  0  0  0  0  0
    7.5735  -11.7979   26.2521 C   0  0  0  0  0  0  0  0  0  0  0  0
    7.8914  -13.1324   26.2197 C   0  0  0  0  0  0  0  0  0  0  0  0
    7.0804  -14.0080   25.5283 C   0  0  0  0  0  0  0  0  0  0  0  0
   10.6019  -16.6766   26.2263 C   0  0  0  0  0  0  0  0  0  0  0  0
   11.4876  -17.4064   25.6486 O   0  0  0  0  0  0  0  0  0  0  0  0
   10.6555  -16.4273   27.6099 N   0  0  0  0  0  0  0  0  0  0  0  0
    9.7825  -15.5697   28.3465 C   0  0  0  0  0  0  0  0  0  0  0  0
   10.7552  -14.7247   29.1523 C   0  0  0  0  0  0  0  0  0  0  0  0
   12.0151  -15.5137   29.1880 C   0  0  0  0  0  0  0  0  0  0  0  0
   11.6304  -16.8975   28.5572 C   0  0  1  0  0  0  0  0  0  0  0  0
   11.1495  -17.7553   29.6340 C   0  0  0  0  0  0  0  0  0  0  0  0
    9.9066  -17.9577   29.7197 O   0  0  0  0  0  0  0  0  0  0  0  0
   11.9492  -18.3660   30.5668 O   0  0  0  0  0  0  0  0  0  0  0  0
  2  1  1  6
  3  2  1  0
  3  4  1  0
  4  5  1  0
  5  9  1  0
  6  5  2  0
  7  8  2  0
  7  2  1  0
 10  7  1  0
 11 10  1  0
 11 12  1  1
 12 13  1  0
 13 21  1  0
 13 14  2  0
 14 15  1  0
 16 15  1  0
 16 17  2  0
 18 17  1  0
 19 18  2  0
 20 21  2  0
 20 19  1  0
 21 16  1  0
 22 23  2  0
 22 11  1  0
 24 22  1  0
 25 24  1  0
 26 27  1  0
 26 25  1  0
 27 28  1  0
 28 24  1  0
 28 29  1  1
 30 29  2  0
 31 29  1  0
M  END
$$$$
