SSH.pdb
     RDKit          3D

 23 23  0  0  1  0  0  0  0  0999 V2000
    9.7874  -16.8151   14.4823 O   0  0  0  0  0  0  0  0  0  0  0  0
    8.4579  -16.5098   14.8234 C   0  0  0  0  0  0  0  0  0  0  0  0
    8.3310  -14.9989   14.7191 C   0  0  2  0  0  0  0  0  0  0  0  0
    8.9597  -14.5686   13.5021 N   0  0  0  0  0  0  0  0  0  0  0  0
    9.0475  -14.4005   15.8637 C   0  0  0  0  0  0  0  0  0  0  0  0
   10.2107  -13.9662   15.7410 O   0  0  0  0  0  0  0  0  0  0  0  0
    7.4464  -14.5361   19.7298 O   0  0  0  0  0  0  0  0  0  0  0  0
    8.1264  -13.3967   19.3468 C   0  0  0  0  0  0  0  0  0  0  0  0
    9.1639  -13.7357   18.3000 C   0  0  2  0  0  0  0  0  0  0  0  0
    8.4573  -14.2853   17.1634 N   0  0  0  0  0  0  0  0  0  0  0  0
   10.1394  -14.7330   18.7747 C   0  0  0  0  0  0  0  0  0  0  0  0
   10.0915  -15.9380   18.4312 O   0  0  0  0  0  0  0  0  0  0  0  0
   11.1734  -14.3403   19.6483 N   0  0  0  0  0  0  0  0  0  0  0  0
   12.0812  -15.3517   20.1542 C   0  0  1  0  0  0  0  0  0  0  0  0
   13.4794  -14.8674   20.2742 C   0  0  0  0  0  0  0  0  0  0  0  0
   14.1092  -14.7957   18.9374 C   0  0  0  0  0  0  0  0  0  0  0  0
   14.0523  -15.7723   17.9313 C   0  0  0  0  0  0  0  0  0  0  0  0
   14.7434  -15.3439   16.8705 N   0  0  0  0  0  0  0  0  0  0  0  0
   15.2383  -14.1480   17.1439 C   0  0  0  0  0  0  0  0  0  0  0  0
   14.8580  -13.8162   18.3869 N   0  0  0  0  0  0  0  0  0  0  0  0
   11.5827  -15.7789   21.4799 C   0  0  0  0  0  0  0  0  0  0  0  0
   12.0949  -16.6770   22.1657 O   0  0  0  0  0  0  0  0  0  0  0  0
   10.4517  -15.1363   22.0190 O   0  0  0  0  0  0  0  0  0  0  0  0
  1  2  1  0
  3  2  1  0
  3  5  1  0
  3  4  1  6
  5  6  2  0
  7  8  1  0
  9  8  1  1
  9 11  1  0
 10  9  1  0
 10  5  1  0
 11 13  1  0
 12 11  2  0
 13 14  1  0
 14 15  1  1
 15 16  1  0
 16 17  2  0
 16 20  1  0
 17 18  1  0
 18 19  1  0
 20 19  2  0
 21 23  1  0
 21 14  1  0
 22 21  2  0
M  END
$$$$
