SSH.pdb
     RDKit          3D

 23 23  0  0  1  0  0  0  0  0999 V2000
   11.0407  -14.0284   17.9151 O   0  0  0  0  0  0  0  0  0  0  0  0
   10.2573  -13.6593   19.0228 C   0  0  0  0  0  0  0  0  0  0  0  0
    8.8335  -14.0744   18.6908 C   0  0  2  0  0  0  0  0  0  0  0  0
    8.2211  -13.0330   17.9149 N   0  0  0  0  0  0  0  0  0  0  0  0
    8.0931  -14.2217   19.9605 C   0  0  0  0  0  0  0  0  0  0  0  0
    7.7185  -13.2233   20.6082 O   0  0  0  0  0  0  0  0  0  0  0  0
    7.0470  -18.0270   21.6388 O   0  0  0  0  0  0  0  0  0  0  0  0
    6.2187  -16.9220   21.6331 C   0  0  0  0  0  0  0  0  0  0  0  0
    7.0370  -15.6561   21.7542 C   0  0  2  0  0  0  0  0  0  0  0  0
    7.7665  -15.5011   20.5146 N   0  0  0  0  0  0  0  0  0  0  0  0
    8.0037  -15.7134   22.8650 C   0  0  0  0  0  0  0  0  0  0  0  0
    9.2296  -15.9024   22.6814 O   0  0  0  0  0  0  0  0  0  0  0  0
    7.5560  -15.5522   24.1917 N   0  0  0  0  0  0  0  0  0  0  0  0
    8.5391  -15.3811   25.2440 C   0  0  1  0  0  0  0  0  0  0  0  0
    8.0600  -14.5131   26.3489 C   0  0  0  0  0  0  0  0  0  0  0  0
    9.1170  -14.3637   27.3732 C   0  0  0  0  0  0  0  0  0  0  0  0
   10.3859  -14.9629   27.3607 C   0  0  0  0  0  0  0  0  0  0  0  0
   11.0541  -14.5880   28.4558 N   0  0  0  0  0  0  0  0  0  0  0  0
   10.2819  -13.7826   29.1666 C   0  0  0  0  0  0  0  0  0  0  0  0
    9.1161  -13.6464   28.5170 N   0  0  0  0  0  0  0  0  0  0  0  0
    8.8723  -16.7234   25.7688 C   0  0  0  0  0  0  0  0  0  0  0  0
    9.8232  -16.9631   26.5289 O   0  0  0  0  0  0  0  0  0  0  0  0
    8.0693  -17.8176   25.3934 O   0  0  0  0  0  0  0  0  0  0  0  0
  1  2  1  0
  3  2  1  0
  3  5  1  0
  3  4  1  6
  5  6  2  0
  7  8  1  0
  9  8  1  6
  9 11  1  0
 10  9  1  0
 10  5  1  0
 11 13  1  0
 12 11  2  0
 13 14  1  0
 14 15  1  1
 15 16  1  0
 16 17  2  0
 16 20  1  0
 17 18  1  0
 18 19  1  0
 20 19  2  0
 21 23  1  0
 21 14  1  0
 22 21  2  0
M  END
$$$$
