SSH.pdb
     RDKit          3D

 23 23  0  0  1  0  0  0  0  0999 V2000
    9.9329  -17.9686   17.4294 O   0  0  0  0  0  0  0  0  0  0  0  0
   10.4420  -17.7641   18.7240 C   0  0  0  0  0  0  0  0  0  0  0  0
   10.2624  -19.0805   19.4619 C   0  0  2  0  0  0  0  0  0  0  0  0
    9.5476  -19.9896   18.6110 N   0  0  0  0  0  0  0  0  0  0  0  0
    9.4525  -18.8202   20.6694 C   0  0  0  0  0  0  0  0  0  0  0  0
    8.2627  -18.4552   20.5817 O   0  0  0  0  0  0  0  0  0  0  0  0
   11.0167  -19.4470   24.5466 O   0  0  0  0  0  0  0  0  0  0  0  0
    9.7657  -19.8982   24.1744 C   0  0  0  0  0  0  0  0  0  0  0  0
    9.1445  -18.9481   23.1753 C   0  0  2  0  0  0  0  0  0  0  0  0
    9.9781  -18.9695   21.9931 N   0  0  0  0  0  0  0  0  0  0  0  0
    9.0775  -17.5647   23.6786 C   0  0  0  0  0  0  0  0  0  0  0  0
    9.9751  -16.7202   23.4478 O   0  0  0  0  0  0  0  0  0  0  0  0
    7.9722  -17.1534   24.4505 N   0  0  0  0  0  0  0  0  0  0  0  0
    7.9553  -15.8040   24.9814 C   0  0  1  0  0  0  0  0  0  0  0  0
    6.6013  -15.3634   25.4011 C   0  0  0  0  0  0  0  0  0  0  0  0
    6.6519  -13.9727   25.9034 C   0  0  0  0  0  0  0  0  0  0  0  0
    7.7916  -13.1605   26.0063 C   0  0  0  0  0  0  0  0  0  0  0  0
    7.4348  -11.9725   26.5041 N   0  0  0  0  0  0  0  0  0  0  0  0
    6.1304  -11.9815   26.7245 C   0  0  0  0  0  0  0  0  0  0  0  0
    5.6575  -13.1840   26.3638 N   0  0  0  0  0  0  0  0  0  0  0  0
    8.8765  -15.7658   26.1383 C   0  0  0  0  0  0  0  0  0  0  0  0
    9.2789  -14.7249   26.6804 O   0  0  0  0  0  0  0  0  0  0  0  0
    9.3406  -16.9814   26.6768 O   0  0  0  0  0  0  0  0  0  0  0  0
  1  2  1  0
  3  2  1  0
  3  5  1  0
  3  4  1  6
  5  6  2  0
  7  8  1  0
  9  8  1  1
  9 11  1  0
 10  9  1  0
 10  5  1  0
 11 13  1  0
 12 11  2  0
 13 14  1  0
 14 15  1  1
 15 16  1  0
 16 17  2  0
 16 20  1  0
 17 18  1  0
 18 19  1  0
 20 19  2  0
 21 23  1  0
 21 14  1  0
 22 21  2  0
M  END
$$$$
