SSH.pdb
     RDKit          3D

 23 23  0  0  1  0  0  0  0  0999 V2000
    8.5574  -19.4836   18.8938 O   0  0  0  0  0  0  0  0  0  0  0  0
    7.4169  -18.6615   18.9135 C   0  0  0  0  0  0  0  0  0  0  0  0
    7.8709  -17.2968   18.4224 C   0  0  2  0  0  0  0  0  0  0  0  0
    8.8410  -17.4835   17.3804 N   0  0  0  0  0  0  0  0  0  0  0  0
    8.5136  -16.5955   19.5525 C   0  0  0  0  0  0  0  0  0  0  0  0
    9.7555  -16.5585   19.6664 O   0  0  0  0  0  0  0  0  0  0  0  0
    6.2486  -15.2029   22.7142 O   0  0  0  0  0  0  0  0  0  0  0  0
    7.2995  -14.3929   22.3309 C   0  0  0  0  0  0  0  0  0  0  0  0
    8.3794  -15.2184   21.6682 C   0  0  2  0  0  0  0  0  0  0  0  0
    7.7594  -15.9264   20.5694 N   0  0  0  0  0  0  0  0  0  0  0  0
    8.9784  -16.2044   22.5850 C   0  0  0  0  0  0  0  0  0  0  0  0
    8.5701  -17.3875   22.6614 O   0  0  0  0  0  0  0  0  0  0  0  0
   10.0516  -15.8256   23.4165 N   0  0  0  0  0  0  0  0  0  0  0  0
   10.6418  -16.8206   24.2909 C   0  0  1  0  0  0  0  0  0  0  0  0
   12.1217  -16.7261   24.3604 C   0  0  0  0  0  0  0  0  0  0  0  0
   12.7142  -17.0473   23.0435 C   0  0  0  0  0  0  0  0  0  0  0  0
   12.4072  -18.1516   22.2338 C   0  0  0  0  0  0  0  0  0  0  0  0
   13.1489  -18.0956   21.1233 N   0  0  0  0  0  0  0  0  0  0  0  0
   13.9123  -17.0167   21.1794 C   0  0  0  0  0  0  0  0  0  0  0  0
   13.6524  -16.3846   22.3338 N   0  0  0  0  0  0  0  0  0  0  0  0
   10.0630  -16.6326   25.6392 C   0  0  0  0  0  0  0  0  0  0  0  0
    9.2630  -15.7331   25.9398 O   0  0  0  0  0  0  0  0  0  0  0  0
   10.4310  -17.5231   26.6661 O   0  0  0  0  0  0  0  0  0  0  0  0
  1  2  1  0
  3  2  1  0
  3  5  1  0
  3  4  1  6
  5  6  2  0
  7  8  1  0
  9  8  1  1
  9 11  1  0
 10  9  1  0
 10  5  1  0
 11 13  1  0
 12 11  2  0
 13 14  1  0
 14 15  1  1
 15 16  1  0
 16 17  2  0
 16 20  1  0
 17 18  1  0
 18 19  1  0
 20 19  2  0
 21 23  1  0
 21 14  1  0
 22 21  2  0
M  END
$$$$
