SSH.pdb
     RDKit          3D

 23 23  0  0  1  0  0  0  0  0999 V2000
   14.6135  -22.2753   27.1106 O   0  0  0  0  0  0  0  0  0  0  0  0
   13.2947  -21.9326   26.7634 C   0  0  0  0  0  0  0  0  0  0  0  0
   12.3972  -22.9330   27.4729 C   0  0  2  0  0  0  0  0  0  0  0  0
   11.0612  -22.7907   26.9664 N   0  0  0  0  0  0  0  0  0  0  0  0
   12.3986  -22.6062   28.9134 C   0  0  0  0  0  0  0  0  0  0  0  0
   11.8754  -21.5559   29.3371 O   0  0  0  0  0  0  0  0  0  0  0  0
   12.6334  -25.4633   31.7708 O   0  0  0  0  0  0  0  0  0  0  0  0
   12.1149  -24.2007   31.9808 C   0  0  0  0  0  0  0  0  0  0  0  0
   12.9842  -23.1615   31.3091 C   0  0  2  0  0  0  0  0  0  0  0  0
   12.9925  -23.4640   29.8944 N   0  0  0  0  0  0  0  0  0  0  0  0
   14.3725  -23.1828   31.8029 C   0  0  0  0  0  0  0  0  0  0  0  0
   15.2560  -23.9142   31.2962 O   0  0  0  0  0  0  0  0  0  0  0  0
   14.7437  -22.3585   32.8842 N   0  0  0  0  0  0  0  0  0  0  0  0
   16.1167  -22.3941   33.3496 C   0  0  1  0  0  0  0  0  0  0  0  0
   16.8428  -21.1216   33.1103 C   0  0  0  0  0  0  0  0  0  0  0  0
   16.2687  -20.4207   31.9408 C   0  0  0  0  0  0  0  0  0  0  0  0
   16.6129  -20.6173   30.5946 C   0  0  0  0  0  0  0  0  0  0  0  0
   15.8776  -19.8001   29.8344 N   0  0  0  0  0  0  0  0  0  0  0  0
   15.0832  -19.0926   30.6209 C   0  0  0  0  0  0  0  0  0  0  0  0
   15.3169  -19.4644   31.8885 N   0  0  0  0  0  0  0  0  0  0  0  0
   16.0914  -22.6927   34.7983 C   0  0  0  0  0  0  0  0  0  0  0  0
   15.0573  -22.7844   35.4776 O   0  0  0  0  0  0  0  0  0  0  0  0
   17.3121  -22.8898   35.4721 O   0  0  0  0  0  0  0  0  0  0  0  0
  1  2  1  0
  3  2  1  0
  3  5  1  0
  3  4  1  6
  5  6  2  0
  7  8  1  0
  9  8  1  1
  9 11  1  0
 10  9  1  0
 10  5  1  0
 11 13  1  0
 12 11  2  0
 13 14  1  0
 14 15  1  1
 15 16  1  0
 16 17  2  0
 16 20  1  0
 17 18  1  0
 18 19  1  0
 20 19  2  0
 21 23  1  0
 21 14  1  0
 22 21  2  0
M  END
$$$$
