SSH.pdb
     RDKit          3D

 23 23  0  0  1  0  0  0  0  0999 V2000
    9.2895  -15.2625   16.4956 O   0  0  0  0  0  0  0  0  0  0  0  0
    7.9161  -15.1698   16.7826 C   0  0  0  0  0  0  0  0  0  0  0  0
    7.7083  -13.8055   17.4193 C   0  0  2  0  0  0  0  0  0  0  0  0
    8.2034  -12.8001   16.5216 N   0  0  0  0  0  0  0  0  0  0  0  0
    8.4958  -13.7598   18.6681 C   0  0  0  0  0  0  0  0  0  0  0  0
    9.6530  -13.2936   18.6843 O   0  0  0  0  0  0  0  0  0  0  0  0
    7.3577  -15.9185   22.0257 O   0  0  0  0  0  0  0  0  0  0  0  0
    7.8247  -14.6397   22.2573 C   0  0  0  0  0  0  0  0  0  0  0  0
    8.7523  -14.2131   21.1418 C   0  0  2  0  0  0  0  0  0  0  0  0
    7.9844  -14.2412   19.9160 N   0  0  0  0  0  0  0  0  0  0  0  0
    9.9084  -15.1149   20.9935 C   0  0  0  0  0  0  0  0  0  0  0  0
   10.3088  -15.5178   19.8756 O   0  0  0  0  0  0  0  0  0  0  0  0
   10.6052  -15.5538   22.1374 N   0  0  0  0  0  0  0  0  0  0  0  0
   12.0046  -15.9112   22.0076 C   0  0  1  0  0  0  0  0  0  0  0  0
   12.8496  -14.7839   21.5398 C   0  0  0  0  0  0  0  0  0  0  0  0
   13.0753  -14.8885   20.0815 C   0  0  0  0  0  0  0  0  0  0  0  0
   12.5195  -15.8414   19.2142 C   0  0  0  0  0  0  0  0  0  0  0  0
   12.9602  -15.6093   17.9739 N   0  0  0  0  0  0  0  0  0  0  0  0
   13.7666  -14.5610   18.0015 C   0  0  0  0  0  0  0  0  0  0  0  0
   13.8373  -14.1258   19.2685 N   0  0  0  0  0  0  0  0  0  0  0  0
   12.4738  -16.3742   23.3319 C   0  0  0  0  0  0  0  0  0  0  0  0
   11.8090  -16.2998   24.3769 O   0  0  0  0  0  0  0  0  0  0  0  0
   13.7586  -16.9410   23.4368 O   0  0  0  0  0  0  0  0  0  0  0  0
  1  2  1  0
  3  2  1  0
  3  5  1  0
  3  4  1  6
  5  6  2  0
  7  8  1  0
  9  8  1  1
  9 11  1  0
 10  9  1  0
 10  5  1  0
 11 13  1  0
 12 11  2  0
 13 14  1  0
 14 15  1  1
 15 16  1  0
 16 17  2  0
 16 20  1  0
 17 18  1  0
 18 19  1  0
 20 19  2  0
 21 23  1  0
 21 14  1  0
 22 21  2  0
M  END
$$$$
