SSH.pdb
     RDKit          3D

 23 23  0  0  1  0  0  0  0  0999 V2000
    9.6036  -17.1202   15.3021 O   0  0  0  0  0  0  0  0  0  0  0  0
    8.2402  -16.7772   15.2749 C   0  0  0  0  0  0  0  0  0  0  0  0
    8.1863  -15.2774   15.0355 C   0  0  2  0  0  0  0  0  0  0  0  0
    8.7821  -14.9946   13.7601 N   0  0  0  0  0  0  0  0  0  0  0  0
    8.9821  -14.6177   16.0906 C   0  0  0  0  0  0  0  0  0  0  0  0
   10.1785  -14.3174   15.9036 O   0  0  0  0  0  0  0  0  0  0  0  0
    7.4610  -14.1715   19.9355 O   0  0  0  0  0  0  0  0  0  0  0  0
    8.2254  -13.1323   19.4423 C   0  0  0  0  0  0  0  0  0  0  0  0
    9.2073  -13.6491   18.4148 C   0  0  2  0  0  0  0  0  0  0  0  0
    8.4346  -14.2888   17.3724 N   0  0  0  0  0  0  0  0  0  0  0  0
   10.1458  -14.6359   18.9777 C   0  0  0  0  0  0  0  0  0  0  0  0
    9.9595  -15.8723   18.8829 O   0  0  0  0  0  0  0  0  0  0  0  0
   11.3029  -14.1964   19.6519 N   0  0  0  0  0  0  0  0  0  0  0  0
   12.1929  -15.1857   20.2283 C   0  0  1  0  0  0  0  0  0  0  0  0
   13.5832  -14.6908   20.3887 C   0  0  0  0  0  0  0  0  0  0  0  0
   14.2598  -14.6401   19.0740 C   0  0  0  0  0  0  0  0  0  0  0  0
   13.9821  -15.4436   17.9576 C   0  0  0  0  0  0  0  0  0  0  0  0
   14.8026  -15.1000   16.9601 N   0  0  0  0  0  0  0  0  0  0  0  0
   15.5888  -14.1216   17.3780 C   0  0  0  0  0  0  0  0  0  0  0  0
   15.2639  -13.8434   18.6496 N   0  0  0  0  0  0  0  0  0  0  0  0
   11.6421  -15.5706   21.5461 C   0  0  0  0  0  0  0  0  0  0  0  0
   12.1651  -16.3957   22.3111 O   0  0  0  0  0  0  0  0  0  0  0  0
   10.4440  -14.9725   21.9820 O   0  0  0  0  0  0  0  0  0  0  0  0
  1  2  1  0
  3  2  1  0
  3  5  1  0
  3  4  1  6
  5  6  2  0
  7  8  1  0
  9  8  1  1
  9 11  1  0
 10  9  1  0
 10  5  1  0
 11 13  1  0
 12 11  2  0
 13 14  1  0
 14 15  1  1
 15 16  1  0
 16 17  2  0
 16 20  1  0
 17 18  1  0
 18 19  1  0
 20 19  2  0
 21 23  1  0
 21 14  1  0
 22 21  2  0
M  END
$$$$
