SSH.pdb
     RDKit          3D

 23 23  0  0  1  0  0  0  0  0999 V2000
    5.8740  -19.3562   22.4741 O   0  0  0  0  0  0  0  0  0  0  0  0
    4.6975  -18.6530   22.1609 C   0  0  0  0  0  0  0  0  0  0  0  0
    4.8520  -18.1902   20.7216 C   0  0  2  0  0  0  0  0  0  0  0  0
    4.7097  -19.3271   19.8562 N   0  0  0  0  0  0  0  0  0  0  0  0
    6.2127  -17.6376   20.5634 C   0  0  0  0  0  0  0  0  0  0  0  0
    7.1826  -18.3769   20.3004 O   0  0  0  0  0  0  0  0  0  0  0  0
    8.8789  -13.7992   19.5423 O   0  0  0  0  0  0  0  0  0  0  0  0
    7.6462  -14.3332   19.8625 C   0  0  0  0  0  0  0  0  0  0  0  0
    7.8178  -15.6850   20.5182 C   0  0  2  0  0  0  0  0  0  0  0  0
    6.4943  -16.2402   20.7007 N   0  0  0  0  0  0  0  0  0  0  0  0
    8.4755  -15.5945   21.8338 C   0  0  0  0  0  0  0  0  0  0  0  0
    7.9399  -15.0293   22.8167 O   0  0  0  0  0  0  0  0  0  0  0  0
    9.7547  -16.1572   22.0173 N   0  0  0  0  0  0  0  0  0  0  0  0
   10.4172  -15.9822   23.2953 C   0  0  1  0  0  0  0  0  0  0  0  0
   10.3130  -17.1768   24.1703 C   0  0  0  0  0  0  0  0  0  0  0  0
    8.9475  -17.2797   24.7300 C   0  0  0  0  0  0  0  0  0  0  0  0
    8.1070  -16.2148   25.0890 C   0  0  0  0  0  0  0  0  0  0  0  0
    6.9559  -16.7082   25.5557 N   0  0  0  0  0  0  0  0  0  0  0  0
    7.0150  -18.0291   25.5144 C   0  0  0  0  0  0  0  0  0  0  0  0
    8.2123  -18.3750   25.0180 N   0  0  0  0  0  0  0  0  0  0  0  0
   11.8401  -15.6807   23.0251 C   0  0  0  0  0  0  0  0  0  0  0  0
   12.6898  -15.4631   23.9025 O   0  0  0  0  0  0  0  0  0  0  0  0
   12.2817  -15.6323   21.6888 O   0  0  0  0  0  0  0  0  0  0  0  0
  1  2  1  0
  3  2  1  0
  3  5  1  0
  3  4  1  6
  5  6  2  0
  7  8  1  0
  9  8  1  1
  9 11  1  0
 10  9  1  0
 10  5  1  0
 11 13  1  0
 12 11  2  0
 13 14  1  0
 14 15  1  1
 15 16  1  0
 16 17  2  0
 16 20  1  0
 17 18  1  0
 18 19  1  0
 20 19  2  0
 21 23  1  0
 21 14  1  0
 22 21  2  0
M  END
$$$$
