SSH.pdb
     RDKit          3D

 23 23  0  0  1  0  0  0  0  0999 V2000
   18.0764  -19.6200   17.6941 O   0  0  0  0  0  0  0  0  0  0  0  0
   16.7889  -20.1849   17.6772 C   0  0  0  0  0  0  0  0  0  0  0  0
   16.0312  -19.4775   16.5659 C   0  0  2  0  0  0  0  0  0  0  0  0
   16.7038  -18.2453   16.2643 N   0  0  0  0  0  0  0  0  0  0  0  0
   14.6740  -19.1714   17.0617 C   0  0  0  0  0  0  0  0  0  0  0  0
   14.2601  -17.9961   17.1246 O   0  0  0  0  0  0  0  0  0  0  0  0
   11.2901  -21.4674   16.6177 O   0  0  0  0  0  0  0  0  0  0  0  0
   11.6492  -21.1913   17.9224 C   0  0  0  0  0  0  0  0  0  0  0  0
   12.4368  -19.9018   17.9848 C   0  0  2  0  0  0  0  0  0  0  0  0
   13.7663  -20.1915   17.4934 N   0  0  0  0  0  0  0  0  0  0  0  0
   12.5466  -19.3737   19.3561 C   0  0  0  0  0  0  0  0  0  0  0  0
   13.5687  -19.5426   20.0626 O   0  0  0  0  0  0  0  0  0  0  0  0
   11.4751  -18.6484   19.9150 N   0  0  0  0  0  0  0  0  0  0  0  0
   11.6213  -18.1068   21.2522 C   0  0  1  0  0  0  0  0  0  0  0  0
   10.5090  -17.2015   21.6355 C   0  0  0  0  0  0  0  0  0  0  0  0
   10.7369  -16.6628   22.9944 C   0  0  0  0  0  0  0  0  0  0  0  0
   11.8832  -15.9924   23.4482 C   0  0  0  0  0  0  0  0  0  0  0  0
   11.7128  -15.6604   24.7316 N   0  0  0  0  0  0  0  0  0  0  0  0
   10.5212  -16.0819   25.1221 C   0  0  0  0  0  0  0  0  0  0  0  0
    9.9324  -16.6852   24.0785 N   0  0  0  0  0  0  0  0  0  0  0  0
   11.6875  -19.2466   22.1929 C   0  0  0  0  0  0  0  0  0  0  0  0
   10.9478  -20.2414   22.1425 O   0  0  0  0  0  0  0  0  0  0  0  0
   12.6474  -19.2218   23.2229 O   0  0  0  0  0  0  0  0  0  0  0  0
  1  2  1  0
  3  2  1  0
  3  5  1  0
  3  4  1  1
  5  6  2  0
  7  8  1  0
  9  8  1  1
  9 11  1  0
 10  9  1  0
 10  5  1  0
 11 13  1  0
 12 11  2  0
 13 14  1  0
 14 15  1  1
 15 16  1  0
 16 17  2  0
 16 20  1  0
 17 18  1  0
 18 19  1  0
 20 19  2  0
 21 23  1  0
 21 14  1  0
 22 21  2  0
M  END
$$$$
