SSH.pdb
     RDKit          3D

 23 23  0  0  1  0  0  0  0  0999 V2000
    9.6182  -14.0374   15.3498 O   0  0  0  0  0  0  0  0  0  0  0  0
   10.3036  -15.1309   14.7919 C   0  0  0  0  0  0  0  0  0  0  0  0
    9.3207  -16.2900   14.7906 C   0  0  2  0  0  0  0  0  0  0  0  0
    8.0696  -15.8301   14.2570 N   0  0  0  0  0  0  0  0  0  0  0  0
    9.1149  -16.7157   16.1900 C   0  0  0  0  0  0  0  0  0  0  0  0
    8.1465  -16.2969   16.8558 O   0  0  0  0  0  0  0  0  0  0  0  0
   11.4275  -19.5897   17.3643 O   0  0  0  0  0  0  0  0  0  0  0  0
   10.4024  -19.4831   18.2835 C   0  0  0  0  0  0  0  0  0  0  0  0
    9.7604  -18.1169   18.1927 C   0  0  2  0  0  0  0  0  0  0  0  0
   10.0027  -17.6213   16.8552 N   0  0  0  0  0  0  0  0  0  0  0  0
   10.3295  -17.1608   19.1589 C   0  0  0  0  0  0  0  0  0  0  0  0
   11.4211  -16.5754   18.9634 O   0  0  0  0  0  0  0  0  0  0  0  0
    9.6384  -16.8784   20.3543 N   0  0  0  0  0  0  0  0  0  0  0  0
   10.1679  -15.8623   21.2432 C   0  0  1  0  0  0  0  0  0  0  0  0
    9.1210  -14.9517   21.7711 C   0  0  0  0  0  0  0  0  0  0  0  0
    8.4300  -14.2698   20.6547 C   0  0  0  0  0  0  0  0  0  0  0  0
    9.0144  -13.8072   19.4657 C   0  0  0  0  0  0  0  0  0  0  0  0
    8.0681  -13.2478   18.7056 N   0  0  0  0  0  0  0  0  0  0  0  0
    6.9120  -13.3277   19.3436 C   0  0  0  0  0  0  0  0  0  0  0  0
    7.1275  -13.9422   20.5165 N   0  0  0  0  0  0  0  0  0  0  0  0
   10.8427  -16.5539   22.3633 C   0  0  0  0  0  0  0  0  0  0  0  0
   10.8233  -17.7813   22.5434 O   0  0  0  0  0  0  0  0  0  0  0  0
   11.5614  -15.7869   23.3004 O   0  0  0  0  0  0  0  0  0  0  0  0
  1  2  1  0
  3  2  1  0
  3  5  1  0
  3  4  1  1
  5  6  2  0
  7  8  1  0
  9  8  1  6
  9 11  1  0
 10  9  1  0
 10  5  1  0
 11 13  1  0
 12 11  2  0
 13 14  1  0
 14 15  1  1
 15 16  1  0
 16 17  2  0
 16 20  1  0
 17 18  1  0
 18 19  1  0
 20 19  2  0
 21 23  1  0
 21 14  1  0
 22 21  2  0
M  END
$$$$
