VFV.pdb
     RDKit          3D

 26 26  0  0  1  0  0  0  0  0999 V2000
   38.0018  -27.3105    7.3389 C   0  0  0  0  0  0  0  0  0  0  0  0
   38.3242  -27.1249    5.8759 C   0  0  1  0  0  0  0  0  0  0  0  0
   38.7720  -28.3814    5.1948 C   0  0  0  0  0  0  0  0  0  0  0  0
   37.2708  -26.3499    5.1350 C   0  0  2  0  0  0  0  0  0  0  0  0
   37.8878  -25.8592    3.9220 N   0  0  0  0  0  0  0  0  0  0  0  0
   36.6400  -25.2635    5.8529 C   0  0  0  0  0  0  0  0  0  0  0  0
   37.2663  -24.1526    5.9331 O   0  0  0  0  0  0  0  0  0  0  0  0
   35.3750  -25.2812    6.4969 N   0  0  0  0  0  0  0  0  0  0  0  0
   34.8143  -24.0942    7.0969 C   0  0  1  0  0  0  0  0  0  0  0  0
   33.3251  -24.1135    6.7724 C   0  0  0  0  0  0  0  0  0  0  0  0
   33.0190  -23.4946    5.4604 C   0  0  0  0  0  0  0  0  0  0  0  0
   32.9014  -22.1249    5.3594 C   0  0  0  0  0  0  0  0  0  0  0  0
   32.6205  -21.5530    4.1373 C   0  0  0  0  0  0  0  0  0  0  0  0
   32.4577  -22.3269    3.0285 C   0  0  0  0  0  0  0  0  0  0  0  0
   32.5710  -23.7120    3.1029 C   0  0  0  0  0  0  0  0  0  0  0  0
   32.8531  -24.2676    4.3357 C   0  0  0  0  0  0  0  0  0  0  0  0
   35.0849  -24.0256    8.5468 C   0  0  0  0  0  0  0  0  0  0  0  0
   34.8743  -24.9871    9.3325 O   0  0  0  0  0  0  0  0  0  0  0  0
   38.4412  -22.4058   10.0378 C   0  0  0  0  0  0  0  0  0  0  0  0
   37.2094  -21.8643   10.7218 C   0  0  1  0  0  0  0  0  0  0  0  0
   36.9546  -20.4360   10.3720 C   0  0  0  0  0  0  0  0  0  0  0  0
   36.0031  -22.7632   10.5068 C   0  0  2  0  0  0  0  0  0  0  0  0
   35.6103  -22.8344    9.1314 N   0  0  0  0  0  0  0  0  0  0  0  0
   34.9092  -22.3205   11.3982 C   0  0  0  0  0  0  0  0  0  0  0  0
   35.0392  -22.4504   12.6335 O   0  0  0  0  0  0  0  0  0  0  0  0
   33.7461  -21.7671   10.9088 O   0  0  0  0  0  0  0  0  0  0  0  0
  2  4  1  0
  2  1  1  1
  3  2  1  0
  4  6  1  0
  4  5  1  6
  6  7  2  0
  8  9  1  0
  8  6  1  0
  9 17  1  0
 10 11  1  0
  9 10  1  1
 11 12  2  0
 12 13  1  0
 14 13  2  0
 15 14  1  0
 16 15  2  0
 16 11  1  0
 17 18  2  0
 20 19  1  6
 20 22  1  0
 21 20  1  0
 22 24  1  0
 23 17  1  0
 22 23  1  6
 24 25  2  0
 24 26  1  0
M  END
$$$$
