VFV.pdb
     RDKit          3D

 26 26  0  0  1  0  0  0  0  0999 V2000
   28.3990  -20.2463  -18.6079 C   0  0  0  0  0  0  0  0  0  0  0  0
   27.4611  -20.4700  -17.4465 C   0  0  1  0  0  0  0  0  0  0  0  0
   26.0243  -20.5972  -17.8499 C   0  0  0  0  0  0  0  0  0  0  0  0
   27.9433  -21.5305  -16.4968 C   0  0  2  0  0  0  0  0  0  0  0  0
   27.9085  -22.7846  -17.2173 N   0  0  0  0  0  0  0  0  0  0  0  0
   27.2304  -21.6512  -15.2435 C   0  0  0  0  0  0  0  0  0  0  0  0
   26.2229  -22.4360  -15.1984 O   0  0  0  0  0  0  0  0  0  0  0  0
   27.5214  -20.9860  -14.0237 N   0  0  0  0  0  0  0  0  0  0  0  0
   26.6550  -21.0980  -12.8748 C   0  0  1  0  0  0  0  0  0  0  0  0
   27.4823  -20.6630  -11.6708 C   0  0  0  0  0  0  0  0  0  0  0  0
   26.6742  -20.5538  -10.4326 C   0  0  0  0  0  0  0  0  0  0  0  0
   26.5693  -19.3402   -9.7874 C   0  0  0  0  0  0  0  0  0  0  0  0
   25.8140  -19.2419   -8.6388 C   0  0  0  0  0  0  0  0  0  0  0  0
   25.1705  -20.3311   -8.1343 C   0  0  0  0  0  0  0  0  0  0  0  0
   25.2600  -21.5679   -8.7661 C   0  0  0  0  0  0  0  0  0  0  0  0
   26.0211  -21.6477   -9.9161 C   0  0  0  0  0  0  0  0  0  0  0  0
   25.4170  -20.3095  -13.0356 C   0  0  0  0  0  0  0  0  0  0  0  0
   25.4145  -19.0695  -13.2558 O   0  0  0  0  0  0  0  0  0  0  0  0
   23.1085  -19.8450  -15.5263 C   0  0  0  0  0  0  0  0  0  0  0  0
   22.2476  -20.3775  -14.4067 C   0  0  1  0  0  0  0  0  0  0  0  0
   21.7864  -21.7727  -14.6676 C   0  0  0  0  0  0  0  0  0  0  0  0
   22.9135  -20.2050  -13.0516 C   0  0  2  0  0  0  0  0  0  0  0  0
   24.1391  -20.9385  -12.9453 N   0  0  0  0  0  0  0  0  0  0  0  0
   21.9410  -20.5477  -11.9913 C   0  0  0  0  0  0  0  0  0  0  0  0
   22.0820  -21.6138  -11.3562 O   0  0  0  0  0  0  0  0  0  0  0  0
   20.8797  -19.7260  -11.6796 O   0  0  0  0  0  0  0  0  0  0  0  0
  2  4  1  0
  2  1  1  6
  3  2  1  0
  4  6  1  0
  4  5  1  6
  6  7  2  0
  8  9  1  0
  8  6  1  0
  9 17  1  0
 10 11  1  0
  9 10  1  1
 11 12  2  0
 12 13  1  0
 14 13  2  0
 15 14  1  0
 16 15  2  0
 16 11  1  0
 17 18  2  0
 20 19  1  6
 20 22  1  0
 21 20  1  0
 22 24  1  0
 23 17  1  0
 22 23  1  6
 24 25  2  0
 24 26  1  0
M  END
$$$$
