VFV.pdb
     RDKit          3D

 26 26  0  0  1  0  0  0  0  0999 V2000
   25.7881  -20.2669  -17.7604 C   0  0  0  0  0  0  0  0  0  0  0  0
   27.0089  -21.1546  -17.7441 C   0  0  1  0  0  0  0  0  0  0  0  0
   27.8911  -20.9856  -18.9426 C   0  0  0  0  0  0  0  0  0  0  0  0
   27.7305  -21.1384  -16.4257 C   0  0  2  0  0  0  0  0  0  0  0  0
   28.6881  -22.2223  -16.4594 N   0  0  0  0  0  0  0  0  0  0  0  0
   26.9108  -21.2290  -15.2368 C   0  0  0  0  0  0  0  0  0  0  0  0
   26.4287  -22.3705  -14.9249 O   0  0  0  0  0  0  0  0  0  0  0  0
   26.5673  -20.1755  -14.3495 N   0  0  0  0  0  0  0  0  0  0  0  0
   25.7579  -20.4067  -13.1770 C   0  0  1  0  0  0  0  0  0  0  0  0
   26.4334  -19.6554  -12.0357 C   0  0  0  0  0  0  0  0  0  0  0  0
   27.7061  -20.2866  -11.6115 C   0  0  0  0  0  0  0  0  0  0  0  0
   27.7217  -21.1347  -10.5250 C   0  0  0  0  0  0  0  0  0  0  0  0
   28.9060  -21.7225  -10.1359 C   0  0  0  0  0  0  0  0  0  0  0  0
   30.0610  -21.4741  -10.8135 C   0  0  0  0  0  0  0  0  0  0  0  0
   30.0729  -20.6219  -11.9137 C   0  0  0  0  0  0  0  0  0  0  0  0
   28.8768  -20.0419  -12.2893 C   0  0  0  0  0  0  0  0  0  0  0  0
   24.3545  -19.9964  -13.3830 C   0  0  0  0  0  0  0  0  0  0  0  0
   24.0124  -18.8073  -13.6171 O   0  0  0  0  0  0  0  0  0  0  0  0
   22.0659  -20.9621  -16.0128 C   0  0  0  0  0  0  0  0  0  0  0  0
   21.3278  -21.3053  -14.7417 C   0  0  1  0  0  0  0  0  0  0  0  0
   21.1768  -22.7789  -14.5601 C   0  0  0  0  0  0  0  0  0  0  0  0
   21.9288  -20.6063  -13.5336 C   0  0  2  0  0  0  0  0  0  0  0  0
   23.3012  -20.9576  -13.3231 N   0  0  0  0  0  0  0  0  0  0  0  0
   21.0773  -20.8695  -12.3534 C   0  0  0  0  0  0  0  0  0  0  0  0
   19.9454  -20.3455  -12.2894 O   0  0  0  0  0  0  0  0  0  0  0  0
   21.4932  -21.6772  -11.3174 O   0  0  0  0  0  0  0  0  0  0  0  0
  2  4  1  0
  2  1  1  1
  3  2  1  0
  4  6  1  0
  4  5  1  6
  6  7  2  0
  8  9  1  0
  8  6  1  0
  9 17  1  0
 10 11  1  0
  9 10  1  1
 11 12  2  0
 12 13  1  0
 14 13  2  0
 15 14  1  0
 16 15  2  0
 16 11  1  0
 17 18  2  0
 20 19  1  6
 20 22  1  0
 21 20  1  0
 22 24  1  0
 23 17  1  0
 22 23  1  1
 24 25  2  0
 24 26  1  0
M  END
$$$$
