RMA.pdb
     RDKit          3D

 25 24  0  0  1  0  0  0  0  0999 V2000
    8.7254  -12.8633   16.8487 N   0  0  0  0  0  0  0  0  0  0  0  0
    8.4567  -12.8883   18.2568 C   0  0  0  0  0  0  0  0  0  0  0  0
    8.9724  -11.9775   18.9899 N   0  0  0  0  0  0  0  0  0  0  0  0
    7.6423  -13.8943   18.8299 N   0  0  0  0  0  0  0  0  0  0  0  0
    7.7350  -15.2785   18.5052 C   0  0  0  0  0  0  0  0  0  0  0  0
    7.6850  -16.1883   19.6857 C   0  0  0  0  0  0  0  0  0  0  0  0
    8.8723  -16.1542   20.5845 C   0  0  0  0  0  0  0  0  0  0  0  0
    8.8435  -17.0929   21.7428 C   0  0  2  0  0  0  0  0  0  0  0  0
    7.6532  -17.8666   21.8665 N   0  0  0  0  0  0  0  0  0  0  0  0
    9.2044  -16.3570   22.9799 C   0  0  0  0  0  0  0  0  0  0  0  0
   10.3425  -15.8632   23.0962 O   0  0  0  0  0  0  0  0  0  0  0  0
    8.8775  -12.0176   20.0117 C   0  0  0  0  0  0  0  0  0  0  0  0
    6.9062  -10.9781   26.4755 S   0  0  0  0  0  0  0  0  0  0  0  0
    5.9514  -12.5172   26.2045 C   0  0  0  0  0  0  0  0  0  0  0  0
    6.8786  -13.6210   25.0752 C   0  0  0  0  0  0  0  0  0  0  0  0
    7.4393  -14.7859   25.8068 C   0  0  2  0  0  0  0  0  0  0  0  0
    8.6742  -15.3729   25.2028 N   0  0  0  0  0  0  0  0  0  0  0  0
    8.2870  -16.1985   24.0391 C   0  0  0  0  0  0  0  0  0  0  0  0
    9.3529  -16.2942   26.1616 O   0  0  0  0  0  0  0  0  0  0  0  0
    9.7162  -15.8448   27.3109 C   0  0  0  0  0  0  0  0  0  0  0  0
    9.8259  -19.8838   26.9623 C   0  0  2  0  0  0  0  0  0  0  0  0
   10.3366  -18.4717   26.8732 N   0  0  0  0  0  0  0  0  0  0  0  0
    9.6323  -17.6574   25.9028 C   0  0  0  0  0  0  0  0  0  0  0  0
   11.8114  -18.5081   26.6285 O   0  0  0  0  0  0  0  0  0  0  0  0
   12.3970  -17.9994   25.6736 O   0  0  0  0  0  0  0  0  0  0  0  0
  2  1  1  0
  2  3  2  0
  4  2  1  0
  5  4  1  0
  6  5  1  0
  7  6  1  0
  7  8  1  0
  8  9  1  1
 10  8  1  0
 10 17  1  0
 11 10  2  0
 13 12  1  0
 14 13  1  0
 16 15  1  6
 15 14  1  0
 16 17  1  0
 18 16  1  0
 19 18  2  0
 21 20  1  1
 21 23  1  0
 21 22  1  0
 22 18  1  0
 23 25  1  0
 24 23  2  0
M  END
$$$$
