RMA.pdb
     RDKit          3D

 25 24  0  0  1  0  0  0  0  0999 V2000
    9.2075  -15.2339   15.9081 N   0  0  0  0  0  0  0  0  0  0  0  0
    8.3420  -14.3513   16.6347 C   0  0  0  0  0  0  0  0  0  0  0  0
    8.4973  -13.0915   16.4881 N   0  0  0  0  0  0  0  0  0  0  0  0
    7.3383  -14.8544   17.4968 N   0  0  0  0  0  0  0  0  0  0  0  0
    7.5835  -15.3272   18.8183 C   0  0  0  0  0  0  0  0  0  0  0  0
    8.1217  -14.2929   19.7479 C   0  0  0  0  0  0  0  0  0  0  0  0
    9.4147  -14.6223   20.4100 C   0  0  0  0  0  0  0  0  0  0  0  0
    9.3458  -15.6088   21.5262 C   0  0  2  0  0  0  0  0  0  0  0  0
    8.2684  -16.5383   21.4479 N   0  0  0  0  0  0  0  0  0  0  0  0
    9.4160  -14.8893   22.8221 C   0  0  0  0  0  0  0  0  0  0  0  0
   10.2234  -13.9512   22.9659 O   0  0  0  0  0  0  0  0  0  0  0  0
    7.8843  -12.4317   16.9816 C   0  0  0  0  0  0  0  0  0  0  0  0
    5.6555  -11.9067   27.5347 S   0  0  0  0  0  0  0  0  0  0  0  0
    6.8392  -11.4052   26.2304 C   0  0  0  0  0  0  0  0  0  0  0  0
    6.9906  -12.7470   24.9935 C   0  0  0  0  0  0  0  0  0  0  0  0
    7.4167  -14.0184   25.6329 C   0  0  2  0  0  0  0  0  0  0  0  0
    8.7511  -14.5277   25.1924 N   0  0  0  0  0  0  0  0  0  0  0  0
    8.5867  -15.2401   23.9075 C   0  0  0  0  0  0  0  0  0  0  0  0
    9.2876  -15.5297   26.1602 O   0  0  0  0  0  0  0  0  0  0  0  0
    8.5630  -16.5444   26.4768 C   0  0  0  0  0  0  0  0  0  0  0  0
   10.0785  -14.6489   29.0578 C   0  0  1  0  0  0  0  0  0  0  0  0
   10.7262  -15.6929   28.1898 N   0  0  0  0  0  0  0  0  0  0  0  0
   10.5627  -15.4533   26.7697 C   0  0  0  0  0  0  0  0  0  0  0  0
   10.2279  -17.0403   28.6050 O   0  0  0  0  0  0  0  0  0  0  0  0
    9.5507  -17.8026   27.9166 O   0  0  0  0  0  0  0  0  0  0  0  0
  2  1  1  0
  2  3  2  0
  4  2  1  0
  5  4  1  0
  6  5  1  0
  7  6  1  0
  7  8  1  0
  8  9  1  1
 10  8  1  0
 10 17  1  0
 11 10  2  0
 13 12  1  0
 14 13  1  0
 16 15  1  6
 15 14  1  0
 16 17  1  0
 18 16  1  0
 19 18  2  0
 21 20  1  6
 21 23  1  0
 21 22  1  0
 22 18  1  0
 23 25  1  0
 24 23  2  0
M  END
$$$$
