RMA.pdb
     RDKit          3D

 25 24  0  0  1  0  0  0  0  0999 V2000
    8.4302  -18.2916   14.2894 N   0  0  0  0  0  0  0  0  0  0  0  0
    8.4066  -16.9840   14.8772 C   0  0  0  0  0  0  0  0  0  0  0  0
    7.8944  -16.0252   14.2054 N   0  0  0  0  0  0  0  0  0  0  0  0
    8.9367  -16.7513   16.1689 N   0  0  0  0  0  0  0  0  0  0  0  0
    8.1900  -16.8851   17.3749 C   0  0  0  0  0  0  0  0  0  0  0  0
    7.7260  -15.5914   17.9536 C   0  0  0  0  0  0  0  0  0  0  0  0
    8.4204  -15.1468   19.1941 C   0  0  0  0  0  0  0  0  0  0  0  0
    7.9101  -13.8909   19.8155 C   0  0  2  0  0  0  0  0  0  0  0  0
    8.1949  -12.6972   19.0912 N   0  0  0  0  0  0  0  0  0  0  0  0
    8.3349  -13.8388   21.2364 C   0  0  0  0  0  0  0  0  0  0  0  0
    9.4893  -13.4680   21.5237 O   0  0  0  0  0  0  0  0  0  0  0  0
    7.8354  -15.0824   14.6082 C   0  0  0  0  0  0  0  0  0  0  0  0
    7.3457  -11.8430   28.3655 S   0  0  0  0  0  0  0  0  0  0  0  0
    6.5754  -12.0104   26.7125 C   0  0  0  0  0  0  0  0  0  0  0  0
    7.0264  -13.6312   25.9892 C   0  0  0  0  0  0  0  0  0  0  0  0
    6.7549  -13.6594   24.5289 C   0  0  1  0  0  0  0  0  0  0  0  0
    7.9198  -14.0554   23.6801 N   0  0  0  0  0  0  0  0  0  0  0  0
    7.4608  -14.2005   22.2823 C   0  0  0  0  0  0  0  0  0  0  0  0
    8.4489  -15.3907   24.0870 O   0  0  0  0  0  0  0  0  0  0  0  0
    7.7081  -16.4310   23.9332 C   0  0  0  0  0  0  0  0  0  0  0  0
   11.5997  -17.2237   24.8163 C   0  0  2  0  0  0  0  0  0  0  0  0
   10.1455  -16.9320   25.0676 N   0  0  0  0  0  0  0  0  0  0  0  0
    9.7338  -15.6101   24.6387 C   0  0  0  0  0  0  0  0  0  0  0  0
    9.8464  -17.1855   26.5107 O   0  0  0  0  0  0  0  0  0  0  0  0
    9.3721  -16.3724   27.3028 O   0  0  0  0  0  0  0  0  0  0  0  0
  2  1  1  0
  2  3  2  0
  4  2  1  0
  5  4  1  0
  6  5  1  0
  7  6  1  0
  7  8  1  0
  8  9  1  6
 10  8  1  0
 10 17  1  0
 11 10  2  0
 13 12  1  0
 14 13  1  0
 16 15  1  6
 15 14  1  0
 16 17  1  0
 18 16  1  0
 19 18  2  0
 21 20  1  6
 21 23  1  0
 21 22  1  0
 22 18  1  0
 23 25  1  0
 24 23  2  0
M  END
$$$$
