RMA.pdb
     RDKit          3D

 25 24  0  0  1  0  0  0  0  0999 V2000
    8.8469  -15.7254   15.8349 N   0  0  0  0  0  0  0  0  0  0  0  0
    8.2651  -14.6449   15.0934 C   0  0  0  0  0  0  0  0  0  0  0  0
    8.4372  -14.6149   13.8276 N   0  0  0  0  0  0  0  0  0  0  0  0
    7.5178  -13.6311   15.7395 N   0  0  0  0  0  0  0  0  0  0  0  0
    7.2660  -13.5947   17.1414 C   0  0  0  0  0  0  0  0  0  0  0  0
    8.4933  -13.4790   17.9805 C   0  0  0  0  0  0  0  0  0  0  0  0
    8.2757  -13.4666   19.4540 C   0  0  0  0  0  0  0  0  0  0  0  0
    8.3453  -14.7905   20.1369 C   0  0  2  0  0  0  0  0  0  0  0  0
    7.1799  -15.6005   20.0090 N   0  0  0  0  0  0  0  0  0  0  0  0
    8.7814  -14.5954   21.5419 C   0  0  0  0  0  0  0  0  0  0  0  0
    9.9304  -14.1763   21.7805 O   0  0  0  0  0  0  0  0  0  0  0  0
    8.0408  -13.8507   13.2675 C   0  0  0  0  0  0  0  0  0  0  0  0
    6.5094  -12.0178   28.5318 S   0  0  0  0  0  0  0  0  0  0  0  0
    6.1038  -12.5078   26.8146 C   0  0  0  0  0  0  0  0  0  0  0  0
    7.4988  -13.4579   26.1042 C   0  0  0  0  0  0  0  0  0  0  0  0
    7.2247  -13.8373   24.6943 C   0  0  1  0  0  0  0  0  0  0  0  0
    8.3590  -14.5118   23.9925 N   0  0  0  0  0  0  0  0  0  0  0  0
    7.9242  -14.8735   22.6266 C   0  0  0  0  0  0  0  0  0  0  0  0
    8.7210  -15.7925   24.6688 O   0  0  0  0  0  0  0  0  0  0  0  0
    7.8344  -16.7190   24.7706 C   0  0  0  0  0  0  0  0  0  0  0  0
   11.6888  -17.8794   25.2219 C   0  0  2  0  0  0  0  0  0  0  0  0
   10.3296  -17.4140   25.6680 N   0  0  0  0  0  0  0  0  0  0  0  0
    9.9942  -16.0780   25.2173 C   0  0  0  0  0  0  0  0  0  0  0  0
   10.2352  -17.5586   27.1534 O   0  0  0  0  0  0  0  0  0  0  0  0
   10.4619  -18.5841   27.7942 O   0  0  0  0  0  0  0  0  0  0  0  0
  2  1  1  0
  2  3  2  0
  4  2  1  0
  5  4  1  0
  6  5  1  0
  7  6  1  0
  7  8  1  0
  8  9  1  1
 10  8  1  0
 10 17  1  0
 11 10  2  0
 13 12  1  0
 14 13  1  0
 16 15  1  6
 15 14  1  0
 16 17  1  0
 18 16  1  0
 19 18  2  0
 21 20  1  6
 21 23  1  0
 21 22  1  0
 22 18  1  0
 23 25  1  0
 24 23  2  0
M  END
$$$$
