RMA.pdb
     RDKit          3D

 25 24  0  0  1  0  0  0  0  0999 V2000
    6.9782  -13.5181   15.9925 N   0  0  0  0  0  0  0  0  0  0  0  0
    8.3584  -13.8868   16.1143 C   0  0  0  0  0  0  0  0  0  0  0  0
    8.8945  -14.5555   15.1666 N   0  0  0  0  0  0  0  0  0  0  0  0
    9.1161  -13.5245   17.2538 N   0  0  0  0  0  0  0  0  0  0  0  0
    8.5707  -13.3759   18.5617 C   0  0  0  0  0  0  0  0  0  0  0  0
    7.5077  -14.3664   18.8972 C   0  0  0  0  0  0  0  0  0  0  0  0
    7.1659  -14.4902   20.3417 C   0  0  0  0  0  0  0  0  0  0  0  0
    7.9102  -15.5342   21.1032 C   0  0  2  0  0  0  0  0  0  0  0  0
    7.2014  -16.7525   21.3127 N   0  0  0  0  0  0  0  0  0  0  0  0
    8.4505  -14.9398   22.3510 C   0  0  0  0  0  0  0  0  0  0  0  0
    9.3860  -14.1189   22.2905 O   0  0  0  0  0  0  0  0  0  0  0  0
    9.8683  -14.8730   15.2411 C   0  0  0  0  0  0  0  0  0  0  0  0
    5.8705  -11.6435   26.3765 S   0  0  0  0  0  0  0  0  0  0  0  0
    7.4284  -11.9524   27.2882 C   0  0  0  0  0  0  0  0  0  0  0  0
    7.9449  -13.6923   27.0443 C   0  0  0  0  0  0  0  0  0  0  0  0
    7.4728  -14.2119   25.7351 C   0  0  1  0  0  0  0  0  0  0  0  0
    8.5536  -14.7003   24.8255 N   0  0  0  0  0  0  0  0  0  0  0  0
    7.9305  -15.2804   23.6168 C   0  0  0  0  0  0  0  0  0  0  0  0
    9.3328  -15.8021   25.4638 O   0  0  0  0  0  0  0  0  0  0  0  0
    9.8653  -15.6050   26.6181 C   0  0  0  0  0  0  0  0  0  0  0  0
   10.0788  -19.4891   25.0080 C   0  0  2  0  0  0  0  0  0  0  0  0
   10.2386  -18.1202   25.6110 N   0  0  0  0  0  0  0  0  0  0  0  0
    9.5347  -17.0795   24.8884 C   0  0  0  0  0  0  0  0  0  0  0  0
   11.6974  -17.8279   25.7610 O   0  0  0  0  0  0  0  0  0  0  0  0
   12.3203  -16.9446   25.1732 O   0  0  0  0  0  0  0  0  0  0  0  0
  2  1  1  0
  2  3  2  0
  4  2  1  0
  5  4  1  0
  6  5  1  0
  7  6  1  0
  7  8  1  0
  8  9  1  1
 10  8  1  0
 10 17  1  0
 11 10  2  0
 13 12  1  0
 14 13  1  0
 16 15  1  6
 15 14  1  0
 16 17  1  0
 18 16  1  0
 19 18  2  0
 21 20  1  1
 21 23  1  0
 21 22  1  0
 22 18  1  0
 23 25  1  0
 24 23  2  0
M  END
$$$$
