RMA.pdb
     RDKit          3D

 25 24  0  0  1  0  0  0  0  0999 V2000
    7.8024  -19.9696   16.7497 N   0  0  0  0  0  0  0  0  0  0  0  0
    7.2449  -20.9079   17.6796 C   0  0  0  0  0  0  0  0  0  0  0  0
    7.0518  -22.1090   17.2886 N   0  0  0  0  0  0  0  0  0  0  0  0
    6.9122  -20.5216   19.0002 N   0  0  0  0  0  0  0  0  0  0  0  0
    7.8582  -20.3955   20.0581 C   0  0  0  0  0  0  0  0  0  0  0  0
    8.5012  -19.0530   20.1468 C   0  0  0  0  0  0  0  0  0  0  0  0
    8.0048  -18.1642   21.2342 C   0  0  0  0  0  0  0  0  0  0  0  0
    8.1989  -16.7007   21.0231 C   0  0  2  0  0  0  0  0  0  0  0  0
    8.9284  -16.3490   19.8507 N   0  0  0  0  0  0  0  0  0  0  0  0
    8.7409  -16.0936   22.2640 C   0  0  0  0  0  0  0  0  0  0  0  0
    9.9736  -15.9983   22.4187 O   0  0  0  0  0  0  0  0  0  0  0  0
    6.6251  -22.7982   17.9191 C   0  0  0  0  0  0  0  0  0  0  0  0
    6.4831  -11.0037   26.0338 S   0  0  0  0  0  0  0  0  0  0  0  0
    6.6376  -12.4535   27.1419 C   0  0  0  0  0  0  0  0  0  0  0  0
    7.9028  -13.5986   26.4777 C   0  0  0  0  0  0  0  0  0  0  0  0
    7.4736  -14.1738   25.1769 C   0  0  1  0  0  0  0  0  0  0  0  0
    8.4956  -15.0284   24.4992 N   0  0  0  0  0  0  0  0  0  0  0  0
    7.8923  -15.6162   23.2843 C   0  0  0  0  0  0  0  0  0  0  0  0
    8.8928  -16.1768   25.3663 O   0  0  0  0  0  0  0  0  0  0  0  0
    8.0093  -17.0561   25.6841 C   0  0  0  0  0  0  0  0  0  0  0  0
   11.9207  -18.0492   26.4849 C   0  0  2  0  0  0  0  0  0  0  0  0
   10.5113  -17.5562   26.6677 N   0  0  0  0  0  0  0  0  0  0  0  0
   10.1969  -16.3833   25.8763 C   0  0  0  0  0  0  0  0  0  0  0  0
   10.2601  -17.3473   28.1270 O   0  0  0  0  0  0  0  0  0  0  0  0
    9.8383  -16.3146   28.6458 O   0  0  0  0  0  0  0  0  0  0  0  0
  2  1  1  0
  2  3  2  0
  4  2  1  0
  5  4  1  0
  6  5  1  0
  7  6  1  0
  7  8  1  0
  8  9  1  6
 10  8  1  0
 10 17  1  0
 11 10  2  0
 13 12  1  0
 14 13  1  0
 16 15  1  6
 15 14  1  0
 16 17  1  0
 18 16  1  0
 19 18  2  0
 21 20  1  6
 21 23  1  0
 21 22  1  0
 22 18  1  0
 23 25  1  0
 24 23  2  0
M  END
$$$$
