RMA.pdb
     RDKit          3D

 25 24  0  0  1  0  0  0  0  0999 V2000
    9.1721  -15.0602   16.2408 N   0  0  0  0  0  0  0  0  0  0  0  0
    8.1508  -14.0630   16.1059 C   0  0  0  0  0  0  0  0  0  0  0  0
    7.7954  -13.7126   14.9296 N   0  0  0  0  0  0  0  0  0  0  0  0
    7.5462  -13.4746   17.2426 N   0  0  0  0  0  0  0  0  0  0  0  0
    7.2123  -14.1884   18.4295 C   0  0  0  0  0  0  0  0  0  0  0  0
    8.1404  -15.3108   18.7497 C   0  0  0  0  0  0  0  0  0  0  0  0
    9.0546  -15.0901   19.9048 C   0  0  0  0  0  0  0  0  0  0  0  0
    8.9119  -16.0421   21.0437 C   0  0  2  0  0  0  0  0  0  0  0  0
    7.6857  -16.7674   21.0773 N   0  0  0  0  0  0  0  0  0  0  0  0
    9.2202  -15.3383   22.3132 C   0  0  0  0  0  0  0  0  0  0  0  0
   10.3085  -14.7455   22.4433 O   0  0  0  0  0  0  0  0  0  0  0  0
    7.0476  -13.0213   14.7972 C   0  0  0  0  0  0  0  0  0  0  0  0
    5.9195  -11.1614   27.9876 S   0  0  0  0  0  0  0  0  0  0  0  0
    6.0266  -11.6992   26.2403 C   0  0  0  0  0  0  0  0  0  0  0  0
    7.5418  -12.6990   26.0002 C   0  0  0  0  0  0  0  0  0  0  0  0
    7.4063  -13.6028   24.8289 C   0  0  1  0  0  0  0  0  0  0  0  0
    8.5975  -14.4641   24.5580 N   0  0  0  0  0  0  0  0  0  0  0  0
    8.3077  -15.3204   23.3882 C   0  0  0  0  0  0  0  0  0  0  0  0
    8.8589  -15.3901   25.6993 O   0  0  0  0  0  0  0  0  0  0  0  0
    9.1194  -14.8970   26.8585 C   0  0  0  0  0  0  0  0  0  0  0  0
    8.6069  -19.0451   26.6237 C   0  0  2  0  0  0  0  0  0  0  0  0
    9.0940  -17.6294   26.7699 N   0  0  0  0  0  0  0  0  0  0  0  0
    8.8389  -16.8024   25.6072 C   0  0  0  0  0  0  0  0  0  0  0  0
   10.5403  -17.6551   27.1490 O   0  0  0  0  0  0  0  0  0  0  0  0
   11.4531  -17.0869   26.5509 O   0  0  0  0  0  0  0  0  0  0  0  0
  2  1  1  0
  2  3  2  0
  4  2  1  0
  5  4  1  0
  6  5  1  0
  7  6  1  0
  7  8  1  0
  8  9  1  1
 10  8  1  0
 10 17  1  0
 11 10  2  0
 13 12  1  0
 14 13  1  0
 16 15  1  6
 15 14  1  0
 16 17  1  0
 18 16  1  0
 19 18  2  0
 21 20  1  1
 21 23  1  0
 21 22  1  0
 22 18  1  0
 23 25  1  0
 24 23  2  0
M  END
$$$$
