IRN.pdb
     RDKit          3D

 28 27  0  0  1  0  0  0  0  0999 V2000
   27.7045  -18.1664  -18.7732 C   0  0  0  0  0  0  0  0  0  0  0  0
   26.7076  -19.2744  -18.7340 C   0  0  0  0  0  0  0  0  0  0  0  0
   27.2227  -20.4001  -17.8702 C   0  0  2  0  0  0  0  0  0  0  0  0
   28.5249  -20.9285  -18.4258 C   0  0  0  0  0  0  0  0  0  0  0  0
   26.2017  -21.5091  -17.7281 C   0  0  2  0  0  0  0  0  0  0  0  0
   24.9777  -21.0689  -17.1337 N   0  0  0  0  0  0  0  0  0  0  0  0
   26.7871  -22.6574  -16.9440 C   0  0  0  0  0  0  0  0  0  0  0  0
   26.6568  -22.6875  -15.6955 O   0  0  0  0  0  0  0  0  0  0  0  0
   28.4893  -30.5268  -16.1625 N   0  0  0  0  0  0  0  0  0  0  0  0
   28.5318  -30.3683  -17.5612 C   0  0  0  0  0  0  0  0  0  0  0  0
   29.2962  -31.0819  -18.3195 N   0  0  0  0  0  0  0  0  0  0  0  0
   27.6898  -29.3713  -18.1672 N   0  0  0  0  0  0  0  0  0  0  0  0
   26.7972  -28.5397  -17.3785 C   0  0  0  0  0  0  0  0  0  0  0  0
   27.5821  -27.3942  -16.7627 C   0  0  0  0  0  0  0  0  0  0  0  0
   27.2082  -26.0945  -17.4094 C   0  0  0  0  0  0  0  0  0  0  0  0
   27.9678  -24.9157  -16.9023 C   0  0  2  0  0  0  0  0  0  0  0  0
   27.4781  -23.6950  -17.6024 N   0  0  0  0  0  0  0  0  0  0  0  0
   29.4206  -24.9423  -17.0740 C   0  0  0  0  0  0  0  0  0  0  0  0
   29.9075  -24.3982  -18.1329 O   0  0  0  0  0  0  0  0  0  0  0  0
   29.2496  -30.9590  -19.3482 N   0  0  0  0  0  0  0  0  0  0  0  0
   35.0196  -26.3332  -14.7450 C   0  0  0  0  0  0  0  0  0  0  0  0
   34.0309  -25.7825  -15.6059 O   0  0  0  0  0  0  0  0  0  0  0  0
   34.3302  -25.1622  -16.6582 C   0  0  0  0  0  0  0  0  0  0  0  0
   32.5847  -25.9175  -15.2960 C   0  0  2  0  0  0  0  0  0  0  0  0
   31.8021  -25.4067  -16.4911 N   0  0  0  0  0  0  0  0  0  0  0  0
   30.3805  -25.4941  -16.2117 C   0  0  0  0  0  0  0  0  0  0  0  0
   32.1071  -26.2068  -17.6871 O   0  0  0  0  0  0  0  0  0  0  0  0
   31.5213  -27.4479  -17.9167 O   0  0  0  0  0  0  0  0  0  0  0  0
  2  1  1  0
  2  3  1  0
  3  4  1  6
  5  6  1  1
  5  3  1  0
  7  8  2  0
  7  5  1  0
 10  9  1  0
 11 10  2  0
 12 10  1  0
 13 12  1  0
 13 14  1  0
 14 15  1  0
 16 15  1  6
 16 17  1  0
 17  7  1  0
 18 16  1  0
 18 19  2  0
 20 21  1  0
 21 22  2  0
 21 23  1  0
 24 25  1  0
 24 23  1  1
 25 18  1  0
 26 24  1  0
 27 26  1  0
 28 26  2  0
M  END
$$$$
