IRN.pdb
     RDKit          3D

 28 27  0  0  1  0  0  0  0  0999 V2000
   27.6997  -19.1262   -6.7988 C   0  0  0  0  0  0  0  0  0  0  0  0
   28.0083  -20.2769   -7.6953 C   0  0  0  0  0  0  0  0  0  0  0  0
   27.2898  -20.1105   -9.0124 C   0  0  2  0  0  0  0  0  0  0  0  0
   25.7946  -20.1069   -8.7928 C   0  0  0  0  0  0  0  0  0  0  0  0
   27.6911  -21.1784  -10.0079 C   0  0  2  0  0  0  0  0  0  0  0  0
   29.1054  -21.2560  -10.2043 N   0  0  0  0  0  0  0  0  0  0  0  0
   26.9862  -20.9546  -11.3229 C   0  0  0  0  0  0  0  0  0  0  0  0
   27.3731  -20.0361  -12.0867 O   0  0  0  0  0  0  0  0  0  0  0  0
   24.3960  -24.9782  -17.6167 N   0  0  0  0  0  0  0  0  0  0  0  0
   25.1430  -25.7581  -16.7128 C   0  0  0  0  0  0  0  0  0  0  0  0
   26.0962  -26.5426  -17.0931 N   0  0  0  0  0  0  0  0  0  0  0  0
   24.8300  -25.6764  -15.3108 N   0  0  0  0  0  0  0  0  0  0  0  0
   23.7366  -24.8579  -14.8161 C   0  0  0  0  0  0  0  0  0  0  0  0
   24.2074  -23.4221  -14.6602 C   0  0  0  0  0  0  0  0  0  0  0  0
   24.9217  -23.2428  -13.3545 C   0  0  0  0  0  0  0  0  0  0  0  0
   25.3929  -21.8514  -13.0985 C   0  0  2  0  0  0  0  0  0  0  0  0
   25.8980  -21.7682  -11.6992 N   0  0  0  0  0  0  0  0  0  0  0  0
   24.4069  -20.7813  -13.2519 C   0  0  0  0  0  0  0  0  0  0  0  0
   23.4838  -20.6868  -12.3613 O   0  0  0  0  0  0  0  0  0  0  0  0
   26.6727  -27.0254  -16.3789 N   0  0  0  0  0  0  0  0  0  0  0  0
   22.2715  -15.9196  -16.4915 C   0  0  0  0  0  0  0  0  0  0  0  0
   22.4377  -16.8509  -15.4299 O   0  0  0  0  0  0  0  0  0  0  0  0
   21.7190  -16.8248  -14.3981 C   0  0  0  0  0  0  0  0  0  0  0  0
   23.4794  -17.9075  -15.4944 C   0  0  2  0  0  0  0  0  0  0  0  0
   23.2278  -18.8802  -14.3578 N   0  0  0  0  0  0  0  0  0  0  0  0
   24.3344  -19.8152  -14.2672 C   0  0  0  0  0  0  0  0  0  0  0  0
   21.9829  -19.6296  -14.5865 O   0  0  0  0  0  0  0  0  0  0  0  0
   20.8043  -19.3312  -13.9096 O   0  0  0  0  0  0  0  0  0  0  0  0
  2  1  1  0
  2  3  1  0
  3  4  1  1
  5  6  1  6
  5  3  1  0
  7  8  2  0
  7  5  1  0
 10  9  1  0
 11 10  2  0
 12 10  1  0
 13 12  1  0
 13 14  1  0
 14 15  1  0
 16 15  1  1
 16 17  1  0
 17  7  1  0
 18 16  1  0
 18 19  2  0
 20 21  1  0
 21 22  2  0
 21 23  1  0
 24 25  1  0
 24 23  1  1
 25 18  1  0
 26 24  1  0
 27 26  1  0
 28 26  2  0
M  END
$$$$
