IRN.pdb
     RDKit          3D

 28 27  0  0  1  0  0  0  0  0999 V2000
   28.4993  -20.3409   -9.5430 C   0  0  0  0  0  0  0  0  0  0  0  0
   27.6307  -21.2698  -10.3211 C   0  0  0  0  0  0  0  0  0  0  0  0
   26.2100  -20.7595  -10.3310 C   0  0  2  0  0  0  0  0  0  0  0  0
   25.4484  -21.3173   -9.1509 C   0  0  0  0  0  0  0  0  0  0  0  0
   25.5083  -21.0820  -11.6333 C   0  0  2  0  0  0  0  0  0  0  0  0
   25.6628  -22.4478  -12.0279 N   0  0  0  0  0  0  0  0  0  0  0  0
   25.9889  -20.1587  -12.7253 C   0  0  0  0  0  0  0  0  0  0  0  0
   25.7420  -18.9297  -12.6532 O   0  0  0  0  0  0  0  0  0  0  0  0
   29.3645  -24.8267  -15.7976 N   0  0  0  0  0  0  0  0  0  0  0  0
   29.1016  -24.6572  -17.1707 C   0  0  0  0  0  0  0  0  0  0  0  0
   28.7554  -25.6362  -17.9390 N   0  0  0  0  0  0  0  0  0  0  0  0
   29.2242  -23.3407  -17.7380 N   0  0  0  0  0  0  0  0  0  0  0  0
   29.4731  -22.1709  -16.9133 C   0  0  0  0  0  0  0  0  0  0  0  0
   28.1589  -21.6576  -16.3504 C   0  0  0  0  0  0  0  0  0  0  0  0
   28.3807  -20.4028  -15.5607 C   0  0  0  0  0  0  0  0  0  0  0  0
   27.1401  -19.8196  -14.9737 C   0  0  2  0  0  0  0  0  0  0  0  0
   26.7123  -20.6655  -13.8243 N   0  0  0  0  0  0  0  0  0  0  0  0
   25.9822  -19.7014  -15.8604 C   0  0  0  0  0  0  0  0  0  0  0  0
   25.1014  -20.6380  -15.8214 O   0  0  0  0  0  0  0  0  0  0  0  0
   28.5451  -25.4493  -18.9373 N   0  0  0  0  0  0  0  0  0  0  0  0
   21.1673  -18.1115  -16.4528 C   0  0  0  0  0  0  0  0  0  0  0  0
   22.2984  -17.2626  -16.3048 O   0  0  0  0  0  0  0  0  0  0  0  0
   22.2402  -16.0257  -16.5251 C   0  0  0  0  0  0  0  0  0  0  0  0
   23.6131  -17.8062  -15.8785 C   0  0  1  0  0  0  0  0  0  0  0  0
   24.3310  -18.3133  -17.1150 N   0  0  0  0  0  0  0  0  0  0  0  0
   25.6945  -18.6722  -16.7699 C   0  0  0  0  0  0  0  0  0  0  0  0
   24.3562  -17.2765  -18.1581 O   0  0  0  0  0  0  0  0  0  0  0  0
   23.3837  -17.2010  -19.1505 O   0  0  0  0  0  0  0  0  0  0  0  0
  2  1  1  0
  2  3  1  0
  3  4  1  1
  5  6  1  6
  5  3  1  0
  7  8  2  0
  7  5  1  0
 10  9  1  0
 11 10  2  0
 12 10  1  0
 13 12  1  0
 13 14  1  0
 14 15  1  0
 16 15  1  6
 16 17  1  0
 17  7  1  0
 18 16  1  0
 18 19  2  0
 20 21  1  0
 21 22  2  0
 21 23  1  0
 24 25  1  0
 24 23  1  1
 25 18  1  0
 26 24  1  0
 27 26  1  0
 28 26  2  0
M  END
$$$$
