IRN.pdb
     RDKit          3D

 28 27  0  0  1  0  0  0  0  0999 V2000
   27.9904  -15.0064  -16.3646 C   0  0  0  0  0  0  0  0  0  0  0  0
   26.5587  -15.4209  -16.4015 C   0  0  0  0  0  0  0  0  0  0  0  0
   26.3973  -16.7733  -15.7505 C   0  0  2  0  0  0  0  0  0  0  0  0
   27.2846  -17.7886  -16.4329 C   0  0  0  0  0  0  0  0  0  0  0  0
   24.9524  -17.2258  -15.7505 C   0  0  2  0  0  0  0  0  0  0  0  0
   24.0743  -16.2915  -15.1171 N   0  0  0  0  0  0  0  0  0  0  0  0
   24.8331  -18.5843  -15.1054 C   0  0  0  0  0  0  0  0  0  0  0  0
   25.4113  -19.5711  -15.6237 O   0  0  0  0  0  0  0  0  0  0  0  0
   29.4411  -21.6296  -11.8794 N   0  0  0  0  0  0  0  0  0  0  0  0
   28.8888  -21.4211  -10.6008 C   0  0  0  0  0  0  0  0  0  0  0  0
   29.6156  -21.3047   -9.5393 N   0  0  0  0  0  0  0  0  0  0  0  0
   27.4582  -21.3350  -10.4744 N   0  0  0  0  0  0  0  0  0  0  0  0
   26.5757  -21.5163  -11.6140 C   0  0  0  0  0  0  0  0  0  0  0  0
   26.0676  -20.1638  -12.0830 C   0  0  0  0  0  0  0  0  0  0  0  0
   24.5740  -20.0976  -11.9737 C   0  0  0  0  0  0  0  0  0  0  0  0
   23.8628  -20.0801  -13.2842 C   0  0  2  0  0  0  0  0  0  0  0  0
   24.0781  -18.7532  -13.9268 N   0  0  0  0  0  0  0  0  0  0  0  0
   22.4166  -20.3007  -13.2540 C   0  0  0  0  0  0  0  0  0  0  0  0
   21.7308  -19.6504  -12.3815 O   0  0  0  0  0  0  0  0  0  0  0  0
   29.1545  -21.1900   -8.6174 N   0  0  0  0  0  0  0  0  0  0  0  0
   19.6974  -19.4579  -17.1096 C   0  0  0  0  0  0  0  0  0  0  0  0
   19.5059  -19.8114  -15.7457 O   0  0  0  0  0  0  0  0  0  0  0  0
   19.2763  -18.9512  -14.8574 C   0  0  0  0  0  0  0  0  0  0  0  0
   19.5695  -21.2284  -15.3057 C   0  0  2  0  0  0  0  0  0  0  0  0
   20.2165  -21.2622  -13.9340 N   0  0  0  0  0  0  0  0  0  0  0  0
   21.6565  -21.1477  -14.0752 C   0  0  0  0  0  0  0  0  0  0  0  0
   19.8997  -22.5228  -13.2454 O   0  0  0  0  0  0  0  0  0  0  0  0
   18.6252  -22.8023  -12.7619 O   0  0  0  0  0  0  0  0  0  0  0  0
  2  1  1  0
  2  3  1  0
  3  4  1  6
  5  6  1  1
  5  3  1  0
  7  8  2  0
  7  5  1  0
 10  9  1  0
 11 10  2  0
 12 10  1  0
 13 12  1  0
 13 14  1  0
 14 15  1  0
 16 15  1  1
 16 17  1  0
 17  7  1  0
 18 16  1  0
 18 19  2  0
 20 21  1  0
 21 22  2  0
 21 23  1  0
 24 25  1  0
 24 23  1  1
 25 18  1  0
 26 24  1  0
 27 26  1  0
 28 26  2  0
M  END
$$$$
