IRN.pdb
     RDKit          3D

 28 27  0  0  1  0  0  0  0  0999 V2000
   28.0668  -17.8445  -14.1116 C   0  0  0  0  0  0  0  0  0  0  0  0
   28.1675  -19.2996  -14.4208 C   0  0  0  0  0  0  0  0  0  0  0  0
   26.8674  -19.9887  -14.0839 C   0  0  2  0  0  0  0  0  0  0  0  0
   25.7112  -19.2666  -14.7364 C   0  0  0  0  0  0  0  0  0  0  0  0
   26.6644  -20.1008  -12.5876 C   0  0  2  0  0  0  0  0  0  0  0  0
   27.7143  -20.8184  -11.9336 N   0  0  0  0  0  0  0  0  0  0  0  0
   25.3272  -20.7328  -12.2903 C   0  0  0  0  0  0  0  0  0  0  0  0
   24.9442  -21.7218  -12.9624 O   0  0  0  0  0  0  0  0  0  0  0  0
   19.8416  -23.1647   -7.0933 N   0  0  0  0  0  0  0  0  0  0  0  0
   19.1045  -23.0710   -8.2896 C   0  0  0  0  0  0  0  0  0  0  0  0
   17.8743  -23.4541   -8.3809 N   0  0  0  0  0  0  0  0  0  0  0  0
   19.7494  -22.5268   -9.4550 N   0  0  0  0  0  0  0  0  0  0  0  0
   21.1594  -22.1773   -9.4578 C   0  0  0  0  0  0  0  0  0  0  0  0
   21.3112  -20.6778   -9.2683 C   0  0  0  0  0  0  0  0  0  0  0  0
   22.6877  -20.2354   -9.6644 C   0  0  0  0  0  0  0  0  0  0  0  0
   23.1270  -20.7215  -11.0039 C   0  0  2  0  0  0  0  0  0  0  0  0
   24.5061  -20.2213  -11.2647 N   0  0  0  0  0  0  0  0  0  0  0  0
   22.3126  -20.3213  -12.1516 C   0  0  0  0  0  0  0  0  0  0  0  0
   22.1961  -19.0632  -12.3924 O   0  0  0  0  0  0  0  0  0  0  0  0
   17.3789  -23.3616   -9.2873 N   0  0  0  0  0  0  0  0  0  0  0  0
   20.8983  -20.8872  -17.6858 C   0  0  0  0  0  0  0  0  0  0  0  0
   20.1864  -20.9413  -16.4561 O   0  0  0  0  0  0  0  0  0  0  0  0
   19.0490  -20.4225  -16.3180 C   0  0  0  0  0  0  0  0  0  0  0  0
   20.7617  -21.6209  -15.2675 C   0  0  1  0  0  0  0  0  0  0  0  0
   20.8325  -20.6082  -14.1402 N   0  0  0  0  0  0  0  0  0  0  0  0
   21.6257  -21.1501  -13.0521 C   0  0  0  0  0  0  0  0  0  0  0  0
   19.4840  -20.2956  -13.6426 O   0  0  0  0  0  0  0  0  0  0  0  0
   18.7439  -19.2241  -14.1331 O   0  0  0  0  0  0  0  0  0  0  0  0
  2  1  1  0
  2  3  1  0
  3  4  1  1
  5  6  1  6
  5  3  1  0
  7  8  2  0
  7  5  1  0
 10  9  1  0
 11 10  2  0
 12 10  1  0
 13 12  1  0
 13 14  1  0
 14 15  1  0
 16 15  1  1
 16 17  1  0
 17  7  1  0
 18 16  1  0
 18 19  2  0
 20 21  1  0
 21 22  2  0
 21 23  1  0
 24 25  1  0
 24 23  1  6
 25 18  1  0
 26 24  1  0
 27 26  1  0
 28 26  2  0
M  END
$$$$
