IRN.pdb
     RDKit          3D

 28 27  0  0  1  0  0  0  0  0999 V2000
   14.9767  -24.2999    1.7672 C   0  0  0  0  0  0  0  0  0  0  0  0
   14.9556  -22.8620    1.3735 C   0  0  0  0  0  0  0  0  0  0  0  0
   16.0797  -22.1239    2.0593 C   0  0  2  0  0  0  0  0  0  0  0  0
   15.9679  -22.2817    3.5581 C   0  0  0  0  0  0  0  0  0  0  0  0
   16.1111  -20.6619    1.6668 C   0  0  2  0  0  0  0  0  0  0  0  0
   16.1753  -20.4645    0.2519 N   0  0  0  0  0  0  0  0  0  0  0  0
   17.2610  -19.9646    2.3505 C   0  0  0  0  0  0  0  0  0  0  0  0
   18.4127  -20.0341    1.8553 O   0  0  0  0  0  0  0  0  0  0  0  0
   17.2953  -11.9592    5.7854 N   0  0  0  0  0  0  0  0  0  0  0  0
   18.6243  -12.3973    5.9438 C   0  0  0  0  0  0  0  0  0  0  0  0
   19.5835  -11.6017    6.2837 N   0  0  0  0  0  0  0  0  0  0  0  0
   18.9231  -13.7864    5.7174 N   0  0  0  0  0  0  0  0  0  0  0  0
   17.9923  -14.6693    5.0359 C   0  0  0  0  0  0  0  0  0  0  0  0
   18.5691  -16.0737    4.9853 C   0  0  0  0  0  0  0  0  0  0  0  0
   17.6179  -17.0073    4.2991 C   0  0  0  0  0  0  0  0  0  0  0  0
   18.1113  -18.4097    4.1821 C   0  0  2  0  0  0  0  0  0  0  0  0
   17.0515  -19.2367    3.5397 N   0  0  0  0  0  0  0  0  0  0  0  0
   18.4747  -19.0880    5.4266 C   0  0  0  0  0  0  0  0  0  0  0  0
   17.5268  -19.6102    6.1216 O   0  0  0  0  0  0  0  0  0  0  0  0
   20.5388  -11.9837    6.4143 N   0  0  0  0  0  0  0  0  0  0  0  0
   20.4633  -21.4340    9.4271 C   0  0  0  0  0  0  0  0  0  0  0  0
   21.5390  -21.2996    8.5069 O   0  0  0  0  0  0  0  0  0  0  0  0
   22.6687  -21.8101    8.7188 C   0  0  0  0  0  0  0  0  0  0  0  0
   21.3731  -20.5416    7.2406 C   0  0  2  0  0  0  0  0  0  0  0  0
   19.9689  -19.9678    7.2213 N   0  0  0  0  0  0  0  0  0  0  0  0
   19.7554  -19.2529    5.9762 C   0  0  0  0  0  0  0  0  0  0  0  0
   19.7752  -19.0410    8.3470 O   0  0  0  0  0  0  0  0  0  0  0  0
   18.9914  -19.3685    9.4491 O   0  0  0  0  0  0  0  0  0  0  0  0
  2  1  1  0
  2  3  1  0
  3  4  1  1
  5  6  1  6
  5  3  1  0
  7  8  2  0
  7  5  1  0
 10  9  1  0
 11 10  2  0
 12 10  1  0
 13 12  1  0
 13 14  1  0
 14 15  1  0
 16 15  1  1
 16 17  1  0
 17  7  1  0
 18 16  1  0
 18 19  2  0
 20 21  1  0
 21 22  2  0
 21 23  1  0
 24 25  1  0
 24 23  1  6
 25 18  1  0
 26 24  1  0
 27 26  1  0
 28 26  2  0
M  END
$$$$
