FRT.pdb
     RDKit          3D

 30 30  0  0  1  0  0  0  0  0999 V2000
    7.9666  -16.9005   17.3314 N   0  0  0  0  0  0  0  0  0  0  0  0
    8.2261  -16.4427   18.6642 C   0  0  1  0  0  0  0  0  0  0  0  0
    6.9606  -15.7147   19.1352 C   0  0  0  0  0  0  0  0  0  0  0  0
    7.3210  -14.5282   19.9535 C   0  0  0  0  0  0  0  0  0  0  0  0
    7.8426  -13.4109   19.3521 C   0  0  0  0  0  0  0  0  0  0  0  0
    8.1747  -12.3054   20.1219 C   0  0  0  0  0  0  0  0  0  0  0  0
    7.9822  -12.3242   21.4964 C   0  0  0  0  0  0  0  0  0  0  0  0
    7.4616  -13.4449   22.0784 C   0  0  0  0  0  0  0  0  0  0  0  0
    7.1268  -14.5498   21.3276 C   0  0  0  0  0  0  0  0  0  0  0  0
    8.5214  -17.5051   19.6353 C   0  0  0  0  0  0  0  0  0  0  0  0
    8.3997  -18.7160   19.3440 O   0  0  0  0  0  0  0  0  0  0  0  0
   14.9722  -19.9920   24.3580 N   0  0  0  0  0  0  0  0  0  0  0  0
   14.7191  -20.4562   23.0359 C   0  0  0  0  0  0  0  0  0  0  0  0
   15.0963  -21.6361   22.7202 N   0  0  0  0  0  0  0  0  0  0  0  0
   14.0672  -19.6528   22.0657 N   0  0  0  0  0  0  0  0  0  0  0  0
   12.9795  -20.1344   21.2490 C   0  0  0  0  0  0  0  0  0  0  0  0
   11.6894  -19.7035   21.9086 C   0  0  0  0  0  0  0  0  0  0  0  0
   10.9892  -18.6150   21.1572 C   0  0  0  0  0  0  0  0  0  0  0  0
    9.6996  -18.1605   21.6983 C   0  0  2  0  0  0  0  0  0  0  0  0
    8.9555  -17.2090   20.9448 N   0  0  0  0  0  0  0  0  0  0  0  0
    9.9834  -17.5214   23.0373 C   0  0  0  0  0  0  0  0  0  0  0  0
   10.9888  -16.7843   23.2235 O   0  0  0  0  0  0  0  0  0  0  0  0
   14.9076  -22.0846   21.8211 C   0  0  0  0  0  0  0  0  0  0  0  0
    7.5775  -15.3795   25.0239 C   0  0  2  0  0  0  0  0  0  0  0  0
    8.0736  -16.4501   25.9730 O   0  0  0  0  0  0  0  0  0  0  0  0
    7.1613  -17.5152   25.9684 C   0  0  2  0  0  0  0  0  0  0  0  0
    9.3696  -17.0310   25.4257 N   0  0  0  0  0  0  0  0  0  0  0  0
    9.1338  -17.7139   24.1644 C   0  0  0  0  0  0  0  0  0  0  0  0
   10.0355  -17.9307   26.3698 O   0  0  0  0  0  0  0  0  0  0  0  0
   10.2991  -19.1384   26.1259 O   0  0  0  0  0  0  0  0  0  0  0  0
  2  1  1  6
  2 10  1  0
  3  2  1  0
  3  4  1  0
  4  9  2  0
  4  5  1  0
  5  6  2  0
  6  7  1  0
  8  7  2  0
  9  8  1  0
 10 20  1  0
 11 10  2  0
 13 12  1  0
 14 13  2  0
 15 13  1  0
 16 15  1  0
 17 16  1  0
 18 17  1  0
 19 18  1  6
 20 19  1  0
 21 19  1  0
 21 22  2  0
 24 23  1  1
 24 25  1  0
 26 27  1  1
 26 24  1  0
 27 21  1  0
 28 26  1  0
 29 28  2  0
 30 28  1  0
M  END
$$$$
