FRT.pdb
     RDKit          3D

 30 30  0  0  1  0  0  0  0  0999 V2000
    6.4107  -16.4684   26.4839 N   0  0  0  0  0  0  0  0  0  0  0  0
    7.0234  -15.8391   25.3517 C   0  0  1  0  0  0  0  0  0  0  0  0
    7.9301  -14.7298   25.9003 C   0  0  0  0  0  0  0  0  0  0  0  0
    7.1134  -13.5900   26.3912 C   0  0  0  0  0  0  0  0  0  0  0  0
    7.1085  -13.2718   27.7257 C   0  0  0  0  0  0  0  0  0  0  0  0
    6.3454  -12.2046   28.1770 C   0  0  0  0  0  0  0  0  0  0  0  0
    5.5873  -11.4578   27.2858 C   0  0  0  0  0  0  0  0  0  0  0  0
    5.6041  -11.7885   25.9606 C   0  0  0  0  0  0  0  0  0  0  0  0
    6.3567  -12.8448   25.4976 C   0  0  0  0  0  0  0  0  0  0  0  0
    7.8507  -16.7277   24.5242 C   0  0  0  0  0  0  0  0  0  0  0  0
    8.4002  -17.7469   24.9987 O   0  0  0  0  0  0  0  0  0  0  0  0
    7.3277  -13.4271   18.4229 N   0  0  0  0  0  0  0  0  0  0  0  0
    8.7461  -13.4718   18.3069 C   0  0  0  0  0  0  0  0  0  0  0  0
    9.3858  -12.3696   18.2056 N   0  0  0  0  0  0  0  0  0  0  0  0
    9.4646  -14.6947   18.2986 N   0  0  0  0  0  0  0  0  0  0  0  0
    8.9082  -15.9364   18.7787 C   0  0  0  0  0  0  0  0  0  0  0  0
    9.0727  -15.9582   20.2812 C   0  0  0  0  0  0  0  0  0  0  0  0
    8.6875  -17.2711   20.8878 C   0  0  0  0  0  0  0  0  0  0  0  0
    8.8048  -17.3852   22.3491 C   0  0  2  0  0  0  0  0  0  0  0  0
    8.0658  -16.4721   23.1533 N   0  0  0  0  0  0  0  0  0  0  0  0
   10.2613  -17.1791   22.6926 C   0  0  0  0  0  0  0  0  0  0  0  0
   10.7045  -16.0613   23.0703 O   0  0  0  0  0  0  0  0  0  0  0  0
   10.3945  -12.2956   18.0568 C   0  0  0  0  0  0  0  0  0  0  0  0
   14.6079  -19.1580   23.9508 C   0  0  2  0  0  0  0  0  0  0  0  0
   13.1388  -19.3475   23.6360 O   0  0  0  0  0  0  0  0  0  0  0  0
   12.4396  -19.5297   24.8379 C   0  0  1  0  0  0  0  0  0  0  0  0
   12.5911  -18.0556   23.0464 N   0  0  0  0  0  0  0  0  0  0  0  0
   11.2161  -18.2329   22.6096 C   0  0  0  0  0  0  0  0  0  0  0  0
   13.4075  -17.5391   21.9459 O   0  0  0  0  0  0  0  0  0  0  0  0
   13.2319  -17.8424   20.7358 O   0  0  0  0  0  0  0  0  0  0  0  0
  2  1  1  1
  2 10  1  0
  3  2  1  0
  3  4  1  0
  4  9  2  0
  4  5  1  0
  5  6  2  0
  6  7  1  0
  8  7  2  0
  9  8  1  0
 10 20  1  0
 11 10  2  0
 13 12  1  0
 14 13  2  0
 15 13  1  0
 16 15  1  0
 17 16  1  0
 18 17  1  0
 19 18  1  6
 20 19  1  0
 21 19  1  0
 21 22  2  0
 24 23  1  6
 24 25  1  0
 26 27  1  6
 26 24  1  0
 27 21  1  0
 28 26  1  0
 29 28  2  0
 30 28  1  0
M  END
$$$$
