FRT.pdb
     RDKit          3D

 30 30  0  0  1  0  0  0  0  0999 V2000
    6.0370  -17.5114   25.8920 N   0  0  0  0  0  0  0  0  0  0  0  0
    6.4807  -16.2621   25.3483 C   0  0  1  0  0  0  0  0  0  0  0  0
    7.4729  -15.6692   26.3569 C   0  0  0  0  0  0  0  0  0  0  0  0
    7.1346  -14.2510   26.6424 C   0  0  0  0  0  0  0  0  0  0  0  0
    5.9511  -13.7224   26.1927 C   0  0  0  0  0  0  0  0  0  0  0  0
    5.6404  -12.3979   26.4649 C   0  0  0  0  0  0  0  0  0  0  0  0
    6.5203  -11.6055   27.1891 C   0  0  0  0  0  0  0  0  0  0  0  0
    7.6939  -12.1482   27.6293 C   0  0  0  0  0  0  0  0  0  0  0  0
    8.0161  -13.4612   27.3673 C   0  0  0  0  0  0  0  0  0  0  0  0
    7.1636  -16.3612   24.0510 C   0  0  0  0  0  0  0  0  0  0  0  0
    7.7219  -17.4178   23.6797 O   0  0  0  0  0  0  0  0  0  0  0  0
    7.2879  -15.0538   16.6537 N   0  0  0  0  0  0  0  0  0  0  0  0
    8.5419  -14.3875   16.5478 C   0  0  0  0  0  0  0  0  0  0  0  0
    9.2693  -14.6144   15.5214 N   0  0  0  0  0  0  0  0  0  0  0  0
    9.0047  -13.4874   17.5414 N   0  0  0  0  0  0  0  0  0  0  0  0
    8.2680  -13.2035   18.7492 C   0  0  0  0  0  0  0  0  0  0  0  0
    8.6100  -14.2793   19.7545 C   0  0  0  0  0  0  0  0  0  0  0  0
    7.6701  -14.3047   20.9190 C   0  0  0  0  0  0  0  0  0  0  0  0
    7.8469  -15.3957   21.8890 C   0  0  2  0  0  0  0  0  0  0  0  0
    7.2231  -15.2670   23.1622 N   0  0  0  0  0  0  0  0  0  0  0  0
    9.3299  -15.5204   22.1476 C   0  0  0  0  0  0  0  0  0  0  0  0
    9.9748  -14.6321   22.7671 O   0  0  0  0  0  0  0  0  0  0  0  0
   10.1518  -14.1398   15.3191 C   0  0  0  0  0  0  0  0  0  0  0  0
   11.4291  -18.5131   23.7049 C   0  0  2  0  0  0  0  0  0  0  0  0
   11.8831  -18.1988   22.2948 O   0  0  0  0  0  0  0  0  0  0  0  0
   11.1457  -18.9848   21.3975 C   0  0  2  0  0  0  0  0  0  0  0  0
   11.5098  -16.7602   21.9667 N   0  0  0  0  0  0  0  0  0  0  0  0
   10.0840  -16.6460   21.7077 C   0  0  0  0  0  0  0  0  0  0  0  0
   12.2722  -16.2149   20.8417 O   0  0  0  0  0  0  0  0  0  0  0  0
   11.8340  -16.1424   19.6627 O   0  0  0  0  0  0  0  0  0  0  0  0
  2  1  1  1
  2 10  1  0
  3  2  1  0
  3  4  1  0
  4  9  2  0
  4  5  1  0
  5  6  2  0
  6  7  1  0
  8  7  2  0
  9  8  1  0
 10 20  1  0
 11 10  2  0
 13 12  1  0
 14 13  2  0
 15 13  1  0
 16 15  1  0
 17 16  1  0
 18 17  1  0
 19 18  1  6
 20 19  1  0
 21 19  1  0
 21 22  2  0
 24 23  1  1
 24 25  1  0
 26 27  1  6
 26 24  1  0
 27 21  1  0
 28 26  1  0
 29 28  2  0
 30 28  1  0
M  END
$$$$
