FRT.pdb
     RDKit          3D

 30 30  0  0  1  0  0  0  0  0999 V2000
    5.5288  -15.5384   21.5761 N   0  0  0  0  0  0  0  0  0  0  0  0
    6.8710  -15.6619   22.0624 C   0  0  1  0  0  0  0  0  0  0  0  0
    7.4594  -14.2456   22.0989 C   0  0  0  0  0  0  0  0  0  0  0  0
    7.8502  -13.8127   20.7325 C   0  0  0  0  0  0  0  0  0  0  0  0
    8.9006  -14.4205   20.0926 C   0  0  0  0  0  0  0  0  0  0  0  0
    9.2586  -14.0129   18.8157 C   0  0  0  0  0  0  0  0  0  0  0  0
    8.5602  -12.9940   18.1828 C   0  0  0  0  0  0  0  0  0  0  0  0
    7.5170  -12.4001   18.8346 C   0  0  0  0  0  0  0  0  0  0  0  0
    7.1496  -12.7939   20.1020 C   0  0  0  0  0  0  0  0  0  0  0  0
    6.9889  -16.2326   23.4113 C   0  0  0  0  0  0  0  0  0  0  0  0
    6.1536  -15.9804   24.3083 O   0  0  0  0  0  0  0  0  0  0  0  0
    6.1409  -20.5724   28.2389 N   0  0  0  0  0  0  0  0  0  0  0  0
    7.2284  -21.4906   28.1955 C   0  0  0  0  0  0  0  0  0  0  0  0
    7.5595  -22.0967   29.2712 N   0  0  0  0  0  0  0  0  0  0  0  0
    7.9508  -21.7490   27.0025 N   0  0  0  0  0  0  0  0  0  0  0  0
    9.1353  -21.0158   26.6266 C   0  0  0  0  0  0  0  0  0  0  0  0
    8.7718  -19.5489   26.5949 C   0  0  0  0  0  0  0  0  0  0  0  0
    8.4521  -19.0602   25.2169 C   0  0  0  0  0  0  0  0  0  0  0  0
    8.1563  -17.6268   25.0746 C   0  0  2  0  0  0  0  0  0  0  0  0
    8.0523  -17.0922   23.7592 N   0  0  0  0  0  0  0  0  0  0  0  0
    9.2752  -16.8754   25.7567 C   0  0  0  0  0  0  0  0  0  0  0  0
   10.4475  -16.8623   25.2939 O   0  0  0  0  0  0  0  0  0  0  0  0
    8.3119  -22.7851   29.3414 C   0  0  0  0  0  0  0  0  0  0  0  0
    9.4067  -13.1818   26.9051 C   0  0  2  0  0  0  0  0  0  0  0  0
    9.6850  -14.0646   28.1036 O   0  0  0  0  0  0  0  0  0  0  0  0
    8.4773  -14.3112   28.7726 C   0  0  2  0  0  0  0  0  0  0  0  0
   10.1559  -15.4263   27.6131 N   0  0  0  0  0  0  0  0  0  0  0  0
    9.0713  -16.1400   26.9595 C   0  0  0  0  0  0  0  0  0  0  0  0
   10.7313  -16.2493   28.6789 O   0  0  0  0  0  0  0  0  0  0  0  0
   10.2815  -17.3756   29.0201 O   0  0  0  0  0  0  0  0  0  0  0  0
  2  1  1  1
  2 10  1  0
  3  2  1  0
  3  4  1  0
  4  9  2  0
  4  5  1  0
  5  6  2  0
  6  7  1  0
  8  7  2  0
  9  8  1  0
 10 20  1  0
 11 10  2  0
 13 12  1  0
 14 13  2  0
 15 13  1  0
 16 15  1  0
 17 16  1  0
 18 17  1  0
 19 18  1  6
 20 19  1  0
 21 19  1  0
 21 22  2  0
 24 23  1  1
 24 25  1  0
 26 27  1  1
 26 24  1  0
 27 21  1  0
 28 26  1  0
 29 28  2  0
 30 28  1  0
M  END
$$$$
