FRT.pdb
     RDKit          3D

 30 30  0  0  1  0  0  0  0  0999 V2000
    5.7662  -16.7389   25.5575 N   0  0  0  0  0  0  0  0  0  0  0  0
    6.6059  -15.7699   24.9177 C   0  0  1  0  0  0  0  0  0  0  0  0
    7.4560  -15.1257   26.0203 C   0  0  0  0  0  0  0  0  0  0  0  0
    6.9793  -13.7470   26.3017 C   0  0  0  0  0  0  0  0  0  0  0  0
    6.2116  -13.4978   27.4111 C   0  0  0  0  0  0  0  0  0  0  0  0
    5.7719  -12.2075   27.6692 C   0  0  0  0  0  0  0  0  0  0  0  0
    6.1041  -11.1682   26.8111 C   0  0  0  0  0  0  0  0  0  0  0  0
    6.8694  -11.4344   25.7114 C   0  0  0  0  0  0  0  0  0  0  0  0
    7.3136  -12.7098   25.4421 C   0  0  0  0  0  0  0  0  0  0  0  0
    7.5208  -16.3174   23.9067 C   0  0  0  0  0  0  0  0  0  0  0  0
    7.9624  -17.4859   23.9820 O   0  0  0  0  0  0  0  0  0  0  0  0
    7.2377  -13.0455   16.2806 N   0  0  0  0  0  0  0  0  0  0  0  0
    8.1149  -13.9558   16.9359 C   0  0  0  0  0  0  0  0  0  0  0  0
    9.1467  -14.3708   16.3054 N   0  0  0  0  0  0  0  0  0  0  0  0
    7.8781  -14.4134   18.2574 N   0  0  0  0  0  0  0  0  0  0  0  0
    7.6470  -13.5220   19.3681 C   0  0  0  0  0  0  0  0  0  0  0  0
    8.5520  -13.9579   20.4977 C   0  0  0  0  0  0  0  0  0  0  0  0
    8.8273  -15.4289   20.4856 C   0  0  0  0  0  0  0  0  0  0  0  0
    8.7452  -16.1287   21.7763 C   0  0  2  0  0  0  0  0  0  0  0  0
    7.9461  -15.5493   22.8022 N   0  0  0  0  0  0  0  0  0  0  0  0
   10.1510  -16.2134   22.3227 C   0  0  0  0  0  0  0  0  0  0  0  0
   10.8452  -15.1835   22.5371 O   0  0  0  0  0  0  0  0  0  0  0  0
    9.8295  -15.0321   16.6815 C   0  0  0  0  0  0  0  0  0  0  0  0
   11.5255  -18.4977   25.3626 C   0  0  2  0  0  0  0  0  0  0  0  0
   12.2726  -18.7474   24.0692 O   0  0  0  0  0  0  0  0  0  0  0  0
   11.6453  -19.7959   23.3809 C   0  0  2  0  0  0  0  0  0  0  0  0
   12.1189  -17.5296   23.1692 N   0  0  0  0  0  0  0  0  0  0  0  0
   10.7723  -17.4587   22.6265 C   0  0  0  0  0  0  0  0  0  0  0  0
   13.1024  -17.4934   22.0848 O   0  0  0  0  0  0  0  0  0  0  0  0
   12.8087  -17.5921   20.8636 O   0  0  0  0  0  0  0  0  0  0  0  0
  2  1  1  1
  2 10  1  0
  3  2  1  0
  3  4  1  0
  4  9  2  0
  4  5  1  0
  5  6  2  0
  6  7  1  0
  8  7  2  0
  9  8  1  0
 10 20  1  0
 11 10  2  0
 13 12  1  0
 14 13  2  0
 15 13  1  0
 16 15  1  0
 17 16  1  0
 18 17  1  0
 19 18  1  6
 20 19  1  0
 21 19  1  0
 21 22  2  0
 24 23  1  1
 24 25  1  0
 26 27  1  6
 26 24  1  0
 27 21  1  0
 28 26  1  0
 29 28  2  0
 30 28  1  0
M  END
$$$$
