FRT.pdb
     RDKit          3D

 30 30  0  0  1  0  0  0  0  0999 V2000
    5.8141  -16.9559   25.6533 N   0  0  0  0  0  0  0  0  0  0  0  0
    6.5898  -15.8851   25.1013 C   0  0  1  0  0  0  0  0  0  0  0  0
    7.6115  -15.4822   26.1724 C   0  0  0  0  0  0  0  0  0  0  0  0
    7.3780  -14.0814   26.6086 C   0  0  0  0  0  0  0  0  0  0  0  0
    8.3107  -13.4372   27.3815 C   0  0  0  0  0  0  0  0  0  0  0  0
    8.0874  -12.1282   27.7833 C   0  0  0  0  0  0  0  0  0  0  0  0
    6.9259  -11.4675   27.4079 C   0  0  0  0  0  0  0  0  0  0  0  0
    6.0082  -12.1240   26.6381 C   0  0  0  0  0  0  0  0  0  0  0  0
    6.2159  -13.4231   26.2312 C   0  0  0  0  0  0  0  0  0  0  0  0
    7.3307  -16.2259   23.8790 C   0  0  0  0  0  0  0  0  0  0  0  0
    7.5842  -17.4122   23.5717 O   0  0  0  0  0  0  0  0  0  0  0  0
    7.1570  -14.4712   16.6436 N   0  0  0  0  0  0  0  0  0  0  0  0
    8.4756  -14.2851   17.1476 C   0  0  0  0  0  0  0  0  0  0  0  0
    9.4456  -14.8645   16.5495 N   0  0  0  0  0  0  0  0  0  0  0  0
    8.7422  -13.4830   18.2866 N   0  0  0  0  0  0  0  0  0  0  0  0
    7.7023  -12.9472   19.1313 C   0  0  0  0  0  0  0  0  0  0  0  0
    7.4349  -13.9593   20.2219 C   0  0  0  0  0  0  0  0  0  0  0  0
    8.6891  -14.5558   20.7797 C   0  0  0  0  0  0  0  0  0  0  0  0
    8.5286  -15.5772   21.8252 C   0  0  2  0  0  0  0  0  0  0  0  0
    7.7931  -15.2294   22.9935 N   0  0  0  0  0  0  0  0  0  0  0  0
    9.9155  -15.9573   22.2877 C   0  0  0  0  0  0  0  0  0  0  0  0
   10.5393  -15.2799   23.1485 O   0  0  0  0  0  0  0  0  0  0  0  0
   10.4305  -14.7546   16.8000 C   0  0  0  0  0  0  0  0  0  0  0  0
   13.5673  -19.3089   22.4657 C   0  0  1  0  0  0  0  0  0  0  0  0
   12.2313  -18.9208   21.8676 O   0  0  0  0  0  0  0  0  0  0  0  0
   11.2282  -19.7030   22.4581 C   0  0  1  0  0  0  0  0  0  0  0  0
   11.9098  -17.4883   22.2690 N   0  0  0  0  0  0  0  0  0  0  0  0
   10.5974  -17.1000   21.7795 C   0  0  0  0  0  0  0  0  0  0  0  0
   12.9203  -16.5288   21.8189 O   0  0  0  0  0  0  0  0  0  0  0  0
   12.9755  -16.0594   20.6510 O   0  0  0  0  0  0  0  0  0  0  0  0
  2  1  1  1
  2 10  1  0
  3  2  1  0
  3  4  1  0
  4  9  2  0
  4  5  1  0
  5  6  2  0
  6  7  1  0
  8  7  2  0
  9  8  1  0
 10 20  1  0
 11 10  2  0
 13 12  1  0
 14 13  2  0
 15 13  1  0
 16 15  1  0
 17 16  1  0
 18 17  1  0
 19 18  1  6
 20 19  1  0
 21 19  1  0
 21 22  2  0
 24 23  1  6
 24 25  1  0
 26 27  1  6
 26 24  1  0
 27 21  1  0
 28 26  1  0
 29 28  2  0
 30 28  1  0
M  END
$$$$
