FRT.pdb
     RDKit          3D

 30 30  0  0  1  0  0  0  0  0999 V2000
    7.0984  -17.4032   27.1910 N   0  0  0  0  0  0  0  0  0  0  0  0
    6.3918  -17.0231   26.0038 C   0  0  1  0  0  0  0  0  0  0  0  0
    5.7024  -15.6871   26.3090 C   0  0  0  0  0  0  0  0  0  0  0  0
    6.7140  -14.6203   26.5230 C   0  0  0  0  0  0  0  0  0  0  0  0
    7.6575  -14.7553   27.5099 C   0  0  0  0  0  0  0  0  0  0  0  0
    8.6008  -13.7564   27.7027 C   0  0  0  0  0  0  0  0  0  0  0  0
    8.5948  -12.6219   26.9030 C   0  0  0  0  0  0  0  0  0  0  0  0
    7.6484  -12.5042   25.9251 C   0  0  0  0  0  0  0  0  0  0  0  0
    6.7059  -13.4874   25.7214 C   0  0  0  0  0  0  0  0  0  0  0  0
    7.2367  -16.8322   24.8169 C   0  0  0  0  0  0  0  0  0  0  0  0
    8.2162  -17.5741   24.5797 O   0  0  0  0  0  0  0  0  0  0  0  0
    9.6746  -14.2933   17.7793 N   0  0  0  0  0  0  0  0  0  0  0  0
    8.4386  -13.6129   17.5868 C   0  0  0  0  0  0  0  0  0  0  0  0
    8.4061  -12.6218   16.7801 N   0  0  0  0  0  0  0  0  0  0  0  0
    7.2516  -13.9990   18.2605 N   0  0  0  0  0  0  0  0  0  0  0  0
    7.2074  -15.0753   19.2204 C   0  0  0  0  0  0  0  0  0  0  0  0
    8.0670  -14.6719   20.3966 C   0  0  0  0  0  0  0  0  0  0  0  0
    7.3210  -14.6920   21.6940 C   0  0  0  0  0  0  0  0  0  0  0  0
    7.6985  -15.7354   22.6589 C   0  0  2  0  0  0  0  0  0  0  0  0
    6.9835  -15.8006   23.8882 N   0  0  0  0  0  0  0  0  0  0  0  0
    9.1476  -15.5029   23.0162 C   0  0  0  0  0  0  0  0  0  0  0  0
    9.5440  -14.4159   23.5162 O   0  0  0  0  0  0  0  0  0  0  0  0
    7.5776  -12.0530   16.5927 C   0  0  0  0  0  0  0  0  0  0  0  0
   11.6998  -17.6523   25.1342 C   0  0  2  0  0  0  0  0  0  0  0  0
   12.1977  -17.4820   23.7142 O   0  0  0  0  0  0  0  0  0  0  0  0
   11.7343  -18.5567   22.9416 C   0  0  2  0  0  0  0  0  0  0  0  0
   11.5480  -16.2453   23.1099 N   0  0  0  0  0  0  0  0  0  0  0  0
   10.1480  -16.4957   22.8094 C   0  0  0  0  0  0  0  0  0  0  0  0
   12.2421  -15.7623   21.9144 O   0  0  0  0  0  0  0  0  0  0  0  0
   11.7734  -15.8406   20.7476 O   0  0  0  0  0  0  0  0  0  0  0  0
  2  1  1  1
  2 10  1  0
  3  2  1  0
  3  4  1  0
  4  9  2  0
  4  5  1  0
  5  6  2  0
  6  7  1  0
  8  7  2  0
  9  8  1  0
 10 20  1  0
 11 10  2  0
 13 12  1  0
 14 13  2  0
 15 13  1  0
 16 15  1  0
 17 16  1  0
 18 17  1  0
 19 18  1  6
 20 19  1  0
 21 19  1  0
 21 22  2  0
 24 23  1  1
 24 25  1  0
 26 27  1  6
 26 24  1  0
 27 21  1  0
 28 26  1  0
 29 28  2  0
 30 28  1  0
M  END
$$$$
