FRT.pdb
     RDKit          3D

 30 30  0  0  1  0  0  0  0  0999 V2000
    5.9120  -18.0701   25.9581 N   0  0  0  0  0  0  0  0  0  0  0  0
    6.2812  -16.7244   25.6323 C   0  0  1  0  0  0  0  0  0  0  0  0
    7.0598  -16.1767   26.8352 C   0  0  0  0  0  0  0  0  0  0  0  0
    7.0845  -14.6916   26.8023 C   0  0  0  0  0  0  0  0  0  0  0  0
    5.9096  -13.9835   26.8270 C   0  0  0  0  0  0  0  0  0  0  0  0
    5.9400  -12.5967   26.7985 C   0  0  0  0  0  0  0  0  0  0  0  0
    7.1522  -11.9225   26.7449 C   0  0  0  0  0  0  0  0  0  0  0  0
    8.3121  -12.6435   26.7213 C   0  0  0  0  0  0  0  0  0  0  0  0
    8.2980  -14.0202   26.7494 C   0  0  0  0  0  0  0  0  0  0  0  0
    7.1355  -16.5891   24.4444 C   0  0  0  0  0  0  0  0  0  0  0  0
    7.8448  -17.5340   24.0323 O   0  0  0  0  0  0  0  0  0  0  0  0
    8.5681  -15.5326   17.6365 N   0  0  0  0  0  0  0  0  0  0  0  0
    8.5177  -14.1793   17.1964 C   0  0  0  0  0  0  0  0  0  0  0  0
    8.5834  -13.9422   15.9420 N   0  0  0  0  0  0  0  0  0  0  0  0
    8.3994  -13.0947   18.1027 N   0  0  0  0  0  0  0  0  0  0  0  0
    7.5695  -13.1430   19.2821 C   0  0  0  0  0  0  0  0  0  0  0  0
    8.1453  -14.1959   20.2012 C   0  0  0  0  0  0  0  0  0  0  0  0
    7.5004  -14.2023   21.5518 C   0  0  0  0  0  0  0  0  0  0  0  0
    7.8073  -15.3435   22.4268 C   0  0  2  0  0  0  0  0  0  0  0  0
    7.1971  -15.3844   23.7124 N   0  0  0  0  0  0  0  0  0  0  0  0
    9.2998  -15.3325   22.6596 C   0  0  0  0  0  0  0  0  0  0  0  0
    9.8677  -14.4040   23.2953 O   0  0  0  0  0  0  0  0  0  0  0  0
    8.5657  -13.0085   15.5262 C   0  0  0  0  0  0  0  0  0  0  0  0
   11.4346  -17.8556   24.4571 C   0  0  2  0  0  0  0  0  0  0  0  0
   11.9795  -17.7400   23.0489 O   0  0  0  0  0  0  0  0  0  0  0  0
   11.3442  -18.6930   22.2396 C   0  0  2  0  0  0  0  0  0  0  0  0
   11.5727  -16.3911   22.4729 N   0  0  0  0  0  0  0  0  0  0  0  0
   10.1501  -16.3678   22.1754 C   0  0  0  0  0  0  0  0  0  0  0  0
   12.3431  -16.0225   21.2834 O   0  0  0  0  0  0  0  0  0  0  0  0
   11.9531  -16.2210   20.1020 O   0  0  0  0  0  0  0  0  0  0  0  0
  2  1  1  1
  2 10  1  0
  3  2  1  0
  3  4  1  0
  4  9  2  0
  4  5  1  0
  5  6  2  0
  6  7  1  0
  8  7  2  0
  9  8  1  0
 10 20  1  0
 11 10  2  0
 13 12  1  0
 14 13  2  0
 15 13  1  0
 16 15  1  0
 17 16  1  0
 18 17  1  0
 19 18  1  1
 20 19  1  0
 21 19  1  0
 21 22  2  0
 24 23  1  1
 24 25  1  0
 26 27  1  6
 26 24  1  0
 27 21  1  0
 28 26  1  0
 29 28  2  0
 30 28  1  0
M  END
$$$$
