SAG.pdb
     RDKit          3D

 16 15  0  0  1  0  0  0  0  0999 V2000
   16.5309   -9.7909  -14.1510 O   0  0  0  0  0  0  0  0  0  0  0  0
   17.9009   -9.4918  -14.3310 C   0  0  0  0  0  0  0  0  0  0  0  0
   18.3892  -10.1321  -15.6210 C   0  0  2  0  0  0  0  0  0  0  0  0
   18.2773  -11.5512  -15.6017 N   0  0  0  0  0  0  0  0  0  0  0  0
   19.8179   -9.7418  -15.7854 C   0  0  0  0  0  0  0  0  0  0  0  0
   20.7393  -10.4372  -15.2857 O   0  0  0  0  0  0  0  0  0  0  0  0
   21.7064   -7.4089  -17.9875 C   0  0  0  0  0  0  0  0  0  0  0  0
   21.5947   -8.2114  -16.7131 C   0  0  2  0  0  0  0  0  0  0  0  0
   20.2060   -8.5738  -16.5093 N   0  0  0  0  0  0  0  0  0  0  0  0
   22.1347   -7.4645  -15.5411 C   0  0  0  0  0  0  0  0  0  0  0  0
   23.3635   -7.2136  -15.4737 O   0  0  0  0  0  0  0  0  0  0  0  0
   21.2332   -7.0613  -14.5366 N   0  0  0  0  0  0  0  0  0  0  0  0
   21.7098   -6.2408  -13.4368 C   0  0  0  0  0  0  0  0  0  0  0  0
   21.6057   -4.7992  -13.7546 C   0  0  0  0  0  0  0  0  0  0  0  0
   22.6814   -4.1472  -13.8156 O   0  0  0  0  0  0  0  0  0  0  0  0
   20.3997   -4.1471  -13.9838 O   0  0  0  0  0  0  0  0  0  0  0  0
  2  1  1  0
  3  2  1  0
  3  4  1  1
  5  6  2  0
  5  3  1  0
  8  7  1  6
  8  9  1  0
  9  5  1  0
 10 12  1  0
 10  8  1  0
 11 10  2  0
 13 14  1  0
 13 12  1  0
 14 16  1  0
 15 14  2  0
M  END
$$$$
