SAG.pdb
     RDKit          3D

 16 15  0  0  1  0  0  0  0  0999 V2000
   17.0032  -12.9994  -14.8621 O   0  0  0  0  0  0  0  0  0  0  0  0
   17.7804  -11.8212  -14.9425 C   0  0  0  0  0  0  0  0  0  0  0  0
   18.4527  -11.7552  -16.3048 C   0  0  2  0  0  0  0  0  0  0  0  0
   19.3750  -12.8202  -16.5098 N   0  0  0  0  0  0  0  0  0  0  0  0
   19.1677  -10.4497  -16.3730 C   0  0  0  0  0  0  0  0  0  0  0  0
   20.3600  -10.3449  -15.9861 O   0  0  0  0  0  0  0  0  0  0  0  0
   18.4012   -7.0433  -17.7819 C   0  0  0  0  0  0  0  0  0  0  0  0
   19.2367   -7.9989  -16.9638 C   0  0  2  0  0  0  0  0  0  0  0  0
   18.5422   -9.2682  -16.8748 N   0  0  0  0  0  0  0  0  0  0  0  0
   19.5349   -7.4513  -15.6095 C   0  0  0  0  0  0  0  0  0  0  0  0
   18.7212   -7.6331  -14.6702 O   0  0  0  0  0  0  0  0  0  0  0  0
   20.7369   -6.7391  -15.4299 N   0  0  0  0  0  0  0  0  0  0  0  0
   21.1058   -6.2844  -14.1006 C   0  0  0  0  0  0  0  0  0  0  0  0
   22.3673   -5.5111  -14.1257 C   0  0  0  0  0  0  0  0  0  0  0  0
   23.0189   -5.5134  -15.2034 O   0  0  0  0  0  0  0  0  0  0  0  0
   22.8543   -4.7980  -13.0365 O   0  0  0  0  0  0  0  0  0  0  0  0
  2  1  1  0
  3  2  1  0
  3  4  1  1
  5  6  2  0
  5  3  1  0
  8  7  1  6
  8  9  1  0
  9  5  1  0
 10 12  1  0
 10  8  1  0
 11 10  2  0
 13 14  1  0
 13 12  1  0
 14 16  1  0
 15 14  2  0
M  END
$$$$
