SAG.pdb
     RDKit          3D

 16 15  0  0  1  0  0  0  0  0999 V2000
   21.8217  -13.7820  -15.5416 O   0  0  0  0  0  0  0  0  0  0  0  0
   22.2409  -12.4350  -15.4493 C   0  0  0  0  0  0  0  0  0  0  0  0
   23.4346  -12.2169  -16.3657 C   0  0  2  0  0  0  0  0  0  0  0  0
   24.5730  -12.9734  -15.9677 N   0  0  0  0  0  0  0  0  0  0  0  0
   23.7558  -10.7625  -16.3211 C   0  0  0  0  0  0  0  0  0  0  0  0
   24.5334  -10.2990  -15.4478 O   0  0  0  0  0  0  0  0  0  0  0  0
   23.0077   -7.7681  -18.4733 C   0  0  0  0  0  0  0  0  0  0  0  0
   23.4660   -8.4113  -17.1862 C   0  0  2  0  0  0  0  0  0  0  0  0
   23.2034   -9.8352  -17.2561 N   0  0  0  0  0  0  0  0  0  0  0  0
   22.8064   -7.7991  -15.9975 C   0  0  0  0  0  0  0  0  0  0  0  0
   21.7242   -8.2732  -15.5715 O   0  0  0  0  0  0  0  0  0  0  0  0
   23.4305   -6.6941  -15.3860 N   0  0  0  0  0  0  0  0  0  0  0  0
   22.8449   -6.1150  -14.1895 C   0  0  0  0  0  0  0  0  0  0  0  0
   21.8917   -5.0336  -14.5246 C   0  0  0  0  0  0  0  0  0  0  0  0
   21.6418   -4.8484  -15.7449 O   0  0  0  0  0  0  0  0  0  0  0  0
   21.2737   -4.2308  -13.5729 O   0  0  0  0  0  0  0  0  0  0  0  0
  2  1  1  0
  3  2  1  0
  3  4  1  1
  5  6  2  0
  5  3  1  0
  8  7  1  6
  8  9  1  0
  9  5  1  0
 10 12  1  0
 10  8  1  0
 11 10  2  0
 13 14  1  0
 13 12  1  0
 14 16  1  0
 15 14  2  0
M  END
$$$$
