SAG.pdb
     RDKit          3D

 16 15  0  0  1  0  0  0  0  0999 V2000
   12.7880   -8.5788   -8.8999 O   0  0  0  0  0  0  0  0  0  0  0  0
   13.8153   -7.9771   -9.6623 C   0  0  0  0  0  0  0  0  0  0  0  0
   15.0684   -7.8564   -8.8094 C   0  0  2  0  0  0  0  0  0  0  0  0
   15.0098   -6.7570   -7.9068 N   0  0  0  0  0  0  0  0  0  0  0  0
   16.2147   -7.6793   -9.7449 C   0  0  0  0  0  0  0  0  0  0  0  0
   16.5695   -6.5331  -10.1224 O   0  0  0  0  0  0  0  0  0  0  0  0
   18.8342   -9.9078  -11.2608 C   0  0  0  0  0  0  0  0  0  0  0  0
   18.0294   -8.6309  -11.2151 C   0  0  2  0  0  0  0  0  0  0  0  0
   16.9571   -8.7885  -10.2523 N   0  0  0  0  0  0  0  0  0  0  0  0
   17.4978   -8.2649  -12.5591 C   0  0  0  0  0  0  0  0  0  0  0  0
   16.4062   -8.7473  -12.9506 O   0  0  0  0  0  0  0  0  0  0  0  0
   18.2506   -7.3777  -13.3532 N   0  0  0  0  0  0  0  0  0  0  0  0
   17.7851   -7.0433  -14.6879 C   0  0  0  0  0  0  0  0  0  0  0  0
   18.7517   -6.1734  -15.3942 C   0  0  0  0  0  0  0  0  0  0  0  0
   18.8214   -4.9730  -15.0199 O   0  0  0  0  0  0  0  0  0  0  0  0
   19.5682   -6.6129  -16.4297 O   0  0  0  0  0  0  0  0  0  0  0  0
  2  1  1  0
  3  2  1  0
  3  4  1  1
  5  6  2  0
  5  3  1  0
  8  7  1  6
  8  9  1  0
  9  5  1  0
 10 12  1  0
 10  8  1  0
 11 10  2  0
 13 14  1  0
 13 12  1  0
 14 16  1  0
 15 14  2  0
M  END
$$$$
