SAG.pdb
     RDKit          3D

 16 15  0  0  1  0  0  0  0  0999 V2000
   18.2500  -13.1605  -14.6991 O   0  0  0  0  0  0  0  0  0  0  0  0
   18.8306  -11.8718  -14.6692 C   0  0  0  0  0  0  0  0  0  0  0  0
   19.3578  -11.5265  -16.0532 C   0  0  2  0  0  0  0  0  0  0  0  0
   20.4118  -12.3899  -16.4661 N   0  0  0  0  0  0  0  0  0  0  0  0
   19.8522  -10.1222  -15.9913 C   0  0  0  0  0  0  0  0  0  0  0  0
   21.0607   -9.8728  -15.7477 O   0  0  0  0  0  0  0  0  0  0  0  0
   18.3794   -6.7555  -16.8051 C   0  0  0  0  0  0  0  0  0  0  0  0
   19.4838   -7.6447  -16.2854 C   0  0  2  0  0  0  0  0  0  0  0  0
   18.9887   -9.0047  -16.2029 N   0  0  0  0  0  0  0  0  0  0  0  0
   19.9953   -7.1760  -14.9658 C   0  0  0  0  0  0  0  0  0  0  0  0
   19.5792   -7.7127  -13.9092 O   0  0  0  0  0  0  0  0  0  0  0  0
   20.9411   -6.1323  -14.9516 N   0  0  0  0  0  0  0  0  0  0  0  0
   21.5209   -5.7109  -13.6882 C   0  0  0  0  0  0  0  0  0  0  0  0
   22.5174   -4.6345  -13.8842 C   0  0  0  0  0  0  0  0  0  0  0  0
   23.1126   -4.6003  -14.9934 O   0  0  0  0  0  0  0  0  0  0  0  0
   22.8188   -3.6803  -12.9194 O   0  0  0  0  0  0  0  0  0  0  0  0
  2  1  1  0
  3  2  1  0
  3  4  1  1
  5  6  2  0
  5  3  1  0
  8  7  1  1
  8  9  1  0
  9  5  1  0
 10 12  1  0
 10  8  1  0
 11 10  2  0
 13 14  1  0
 13 12  1  0
 14 16  1  0
 15 14  2  0
M  END
$$$$
