SAG.pdb
     RDKit          3D

 16 15  0  0  1  0  0  0  0  0999 V2000
   12.5013  -11.6702  -15.1192 O   0  0  0  0  0  0  0  0  0  0  0  0
   13.8137  -11.3306  -14.7182 C   0  0  0  0  0  0  0  0  0  0  0  0
   14.7685  -12.4384  -15.1349 C   0  0  2  0  0  0  0  0  0  0  0  0
   14.4035  -13.7044  -14.5956 N   0  0  0  0  0  0  0  0  0  0  0  0
   16.1214  -12.0529  -14.6435 C   0  0  0  0  0  0  0  0  0  0  0  0
   16.4386  -12.2075  -13.4362 O   0  0  0  0  0  0  0  0  0  0  0  0
   19.4662  -11.9478  -15.7210 C   0  0  0  0  0  0  0  0  0  0  0  0
   18.4228  -11.0987  -15.0347 C   0  0  2  0  0  0  0  0  0  0  0  0
   17.1117  -11.4960  -15.5085 N   0  0  0  0  0  0  0  0  0  0  0  0
   18.6595   -9.6440  -15.2596 C   0  0  0  0  0  0  0  0  0  0  0  0
   19.7645   -9.1361  -14.9460 O   0  0  0  0  0  0  0  0  0  0  0  0
   17.6192   -8.8803  -15.8244 N   0  0  0  0  0  0  0  0  0  0  0  0
   17.8144   -7.4574  -16.0413 C   0  0  0  0  0  0  0  0  0  0  0  0
   17.5685   -6.6843  -14.8036 C   0  0  0  0  0  0  0  0  0  0  0  0
   17.2145   -7.3332  -13.7840 O   0  0  0  0  0  0  0  0  0  0  0  0
   17.7078   -5.3039  -14.7184 O   0  0  0  0  0  0  0  0  0  0  0  0
  2  1  1  0
  3  2  1  0
  3  4  1  1
  5  6  2  0
  5  3  1  0
  8  7  1  6
  8  9  1  0
  9  5  1  0
 10 12  1  0
 10  8  1  0
 11 10  2  0
 13 14  1  0
 13 12  1  0
 14 16  1  0
 15 14  2  0
M  END
$$$$
