SAG.pdb
     RDKit          3D

 16 15  0  0  1  0  0  0  0  0999 V2000
   14.3257  -10.3461  -14.7696 O   0  0  0  0  0  0  0  0  0  0  0  0
   15.6213   -9.7825  -14.7206 C   0  0  0  0  0  0  0  0  0  0  0  0
   16.5611  -10.6087  -15.5846 C   0  0  2  0  0  0  0  0  0  0  0  0
   16.8109  -11.8994  -15.0383 N   0  0  0  0  0  0  0  0  0  0  0  0
   17.8389   -9.8486  -15.6852 C   0  0  0  0  0  0  0  0  0  0  0  0
   18.7877  -10.0715  -14.8900 O   0  0  0  0  0  0  0  0  0  0  0  0
   19.4131   -7.5194  -18.1515 C   0  0  0  0  0  0  0  0  0  0  0  0
   19.2661   -8.0629  -16.7502 C   0  0  2  0  0  0  0  0  0  0  0  0
   18.0461   -8.8425  -16.6770 N   0  0  0  0  0  0  0  0  0  0  0  0
   19.2720   -6.9738  -15.7320 C   0  0  0  0  0  0  0  0  0  0  0  0
   18.2050   -6.3711  -15.4573 O   0  0  0  0  0  0  0  0  0  0  0  0
   20.4930   -6.6555  -15.1057 N   0  0  0  0  0  0  0  0  0  0  0  0
   20.5448   -5.5536  -14.1607 C   0  0  0  0  0  0  0  0  0  0  0  0
   21.9375   -5.2474  -13.7649 C   0  0  0  0  0  0  0  0  0  0  0  0
   22.4047   -5.8780  -12.7800 O   0  0  0  0  0  0  0  0  0  0  0  0
   22.7354   -4.3150  -14.4177 O   0  0  0  0  0  0  0  0  0  0  0  0
  2  1  1  0
  3  2  1  0
  3  4  1  1
  5  6  2  0
  5  3  1  0
  8  7  1  6
  8  9  1  0
  9  5  1  0
 10 12  1  0
 10  8  1  0
 11 10  2  0
 13 14  1  0
 13 12  1  0
 14 16  1  0
 15 14  2  0
M  END
$$$$
