SAG.pdb
     RDKit          3D

 16 15  0  0  1  0  0  0  0  0999 V2000
   19.3289   -8.6461  -19.4776 O   0  0  0  0  0  0  0  0  0  0  0  0
   19.9504   -9.9115  -19.5820 C   0  0  0  0  0  0  0  0  0  0  0  0
   19.5951  -10.7475  -18.3625 C   0  0  2  0  0  0  0  0  0  0  0  0
   18.1890  -10.8842  -18.1860 N   0  0  0  0  0  0  0  0  0  0  0  0
   20.1869  -10.0622  -17.1791 C   0  0  0  0  0  0  0  0  0  0  0  0
   19.4900   -9.3055  -16.4552 O   0  0  0  0  0  0  0  0  0  0  0  0
   23.4482  -10.2898  -15.3258 C   0  0  0  0  0  0  0  0  0  0  0  0
   22.1209   -9.6319  -15.6188 C   0  0  2  0  0  0  0  0  0  0  0  0
   21.5571  -10.2288  -16.8135 N   0  0  0  0  0  0  0  0  0  0  0  0
   22.2576   -8.1546  -15.7672 C   0  0  0  0  0  0  0  0  0  0  0  0
   22.5824   -7.6668  -16.8780 O   0  0  0  0  0  0  0  0  0  0  0  0
   22.0137   -7.3474  -14.6388 N   0  0  0  0  0  0  0  0  0  0  0  0
   22.2098   -5.9112  -14.7323 C   0  0  0  0  0  0  0  0  0  0  0  0
   21.9233   -5.2425  -13.4436 C   0  0  0  0  0  0  0  0  0  0  0  0
   20.8848   -4.5326  -13.3853 O   0  0  0  0  0  0  0  0  0  0  0  0
   22.7320   -5.3607  -12.3192 O   0  0  0  0  0  0  0  0  0  0  0  0
  2  1  1  0
  3  2  1  0
  3  4  1  1
  5  6  2  0
  5  3  1  0
  8  7  1  6
  8  9  1  0
  9  5  1  0
 10 12  1  0
 10  8  1  0
 11 10  2  0
 13 14  1  0
 13 12  1  0
 14 16  1  0
 15 14  2  0
M  END
$$$$
