SAG.pdb
     RDKit          3D

 16 15  0  0  1  0  0  0  0  0999 V2000
   19.7521  -13.0379  -16.3573 O   0  0  0  0  0  0  0  0  0  0  0  0
   20.6188  -12.1285  -17.0058 C   0  0  0  0  0  0  0  0  0  0  0  0
   20.9608  -10.9942  -16.0525 C   0  0  2  0  0  0  0  0  0  0  0  0
   19.8082  -10.4443  -15.4234 N   0  0  0  0  0  0  0  0  0  0  0  0
   21.6453   -9.9430  -16.8568 C   0  0  0  0  0  0  0  0  0  0  0  0
   22.7580  -10.1666  -17.3992 O   0  0  0  0  0  0  0  0  0  0  0  0
   20.7527   -6.8712  -18.6409 C   0  0  0  0  0  0  0  0  0  0  0  0
   21.7610   -7.6014  -17.7861 C   0  0  2  0  0  0  0  0  0  0  0  0
   21.0787   -8.6464  -17.0486 N   0  0  0  0  0  0  0  0  0  0  0  0
   22.4800   -6.6739  -16.8665 C   0  0  0  0  0  0  0  0  0  0  0  0
   23.1166   -5.6987  -17.3366 O   0  0  0  0  0  0  0  0  0  0  0  0
   22.4183   -6.9292  -15.4825 N   0  0  0  0  0  0  0  0  0  0  0  0
   23.1202   -6.0512  -14.5624 C   0  0  0  0  0  0  0  0  0  0  0  0
   22.1756   -5.2211  -13.7822 C   0  0  0  0  0  0  0  0  0  0  0  0
   20.9651   -5.2531  -14.1278 O   0  0  0  0  0  0  0  0  0  0  0  0
   22.5569   -4.4250  -12.7085 O   0  0  0  0  0  0  0  0  0  0  0  0
  2  1  1  0
  3  2  1  0
  3  4  1  6
  5  6  2  0
  5  3  1  0
  8  7  1  1
  8  9  1  0
  9  5  1  0
 10 12  1  0
 10  8  1  0
 11 10  2  0
 13 14  1  0
 13 12  1  0
 14 16  1  0
 15 14  2  0
M  END
$$$$
