LCA.pdb
     RDKit          3D

 20 19  0  0  1  0  0  0  0  0999 V2000
    7.2338  -12.9217   18.4344 C   0  0  0  0  0  0  0  0  0  0  0  0
    8.1674  -13.6698   19.3177 C   0  0  1  0  0  0  0  0  0  0  0  0
    9.4494  -12.8798   19.4979 C   0  0  0  0  0  0  0  0  0  0  0  0
    7.5385  -14.0344   20.6306 C   0  0  0  0  0  0  0  0  0  0  0  0
    8.5087  -14.7900   21.4665 C   0  0  2  0  0  0  0  0  0  0  0  0
    8.7443  -16.1384   21.0096 N   0  0  0  0  0  0  0  0  0  0  0  0
    8.1058  -14.7811   22.9143 C   0  0  0  0  0  0  0  0  0  0  0  0
    7.9481  -13.6903   23.5331 O   0  0  0  0  0  0  0  0  0  0  0  0
    7.8920  -15.9614   23.6281 N   0  0  0  0  0  0  0  0  0  0  0  0
    7.5922  -15.9716   25.0461 C   0  0  1  0  0  0  0  0  0  0  0  0
    6.7945  -17.1586   25.4751 C   0  0  0  0  0  0  0  0  0  0  0  0
    7.7408  -18.6493   25.0473 S   0  0  0  0  0  0  0  0  0  0  0  0
    8.8530  -15.8502   25.8575 C   0  0  0  0  0  0  0  0  0  0  0  0
    9.8532  -16.4879   25.4777 O   0  0  0  0  0  0  0  0  0  0  0  0
    9.8484  -13.6265   28.6922 C   0  0  0  0  0  0  0  0  0  0  0  0
   10.0396  -14.8815   27.8945 C   0  0  2  0  0  0  0  0  0  0  0  0
    8.9173  -15.0492   27.0072 N   0  0  0  0  0  0  0  0  0  0  0  0
   10.3663  -16.0729   28.7140 C   0  0  0  0  0  0  0  0  0  0  0  0
   11.5996  -16.1806   29.3495 O   0  0  0  0  0  0  0  0  0  0  0  0
    9.5644  -17.0104   28.8649 O   0  0  0  0  0  0  0  0  0  0  0  0
  2  4  1  0
  2  1  1  6
  3  2  1  0
  4  5  1  0
  5  7  1  0
  5  6  1  6
  7  8  2  0
  9 10  1  0
  9  7  1  0
 10 13  1  0
 11 12  1  0
 10 11  1  1
 13 14  2  0
 16 15  1  1
 16 18  1  0
 17 13  1  0
 17 16  1  0
 18 20  2  0
 18 19  1  0
M  END
$$$$
