LCA.pdb
     RDKit          3D

 20 19  0  0  1  0  0  0  0  0999 V2000
    7.8157  -11.7325   24.6337 C   0  0  0  0  0  0  0  0  0  0  0  0
    6.8139  -12.7506   25.0476 C   0  0  1  0  0  0  0  0  0  0  0  0
    5.8127  -12.1287   26.0022 C   0  0  0  0  0  0  0  0  0  0  0  0
    6.1454  -13.4011   23.8719 C   0  0  0  0  0  0  0  0  0  0  0  0
    7.1335  -14.2078   23.1078 C   0  0  2  0  0  0  0  0  0  0  0  0
    6.5899  -14.8217   21.9204 N   0  0  0  0  0  0  0  0  0  0  0  0
    7.7944  -15.2349   23.9834 C   0  0  0  0  0  0  0  0  0  0  0  0
    7.1040  -16.0860   24.6132 O   0  0  0  0  0  0  0  0  0  0  0  0
    9.1806  -15.2917   24.1370 N   0  0  0  0  0  0  0  0  0  0  0  0
    9.8371  -16.3213   24.9179 C   0  0  1  0  0  0  0  0  0  0  0  0
   10.7582  -17.1785   24.1141 C   0  0  0  0  0  0  0  0  0  0  0  0
   11.8415  -16.0820   23.1523 S   0  0  0  0  0  0  0  0  0  0  0  0
   10.5539  -15.7200   26.0957 C   0  0  0  0  0  0  0  0  0  0  0  0
   11.5244  -14.9734   25.8673 O   0  0  0  0  0  0  0  0  0  0  0  0
   10.2568  -14.5818   29.3544 C   0  0  0  0  0  0  0  0  0  0  0  0
   10.8990  -15.7208   28.6210 C   0  0  2  0  0  0  0  0  0  0  0  0
   10.1555  -15.9813   27.4149 N   0  0  0  0  0  0  0  0  0  0  0  0
   11.1527  -16.9140   29.4635 C   0  0  0  0  0  0  0  0  0  0  0  0
   12.0422  -16.8522   30.5318 O   0  0  0  0  0  0  0  0  0  0  0  0
   10.5899  -18.0021   29.2536 O   0  0  0  0  0  0  0  0  0  0  0  0
  2  4  1  0
  2  1  1  6
  3  2  1  0
  4  5  1  0
  5  7  1  0
  5  6  1  6
  7  8  2  0
  9 10  1  0
  9  7  1  0
 10 13  1  0
 11 12  1  0
 10 11  1  6
 13 14  2  0
 16 15  1  1
 16 18  1  0
 17 13  1  0
 17 16  1  0
 18 20  2  0
 18 19  1  0
M  END
$$$$
