LCA.pdb
     RDKit          3D

 20 19  0  0  1  0  0  0  0  0999 V2000
    7.6319  -12.1148   19.2431 C   0  0  0  0  0  0  0  0  0  0  0  0
    8.1933  -13.4741   19.4637 C   0  0  1  0  0  0  0  0  0  0  0  0
    9.6574  -13.3703   19.8456 C   0  0  0  0  0  0  0  0  0  0  0  0
    7.4015  -14.2602   20.4674 C   0  0  0  0  0  0  0  0  0  0  0  0
    8.0846  -15.5486   20.7572 C   0  0  2  0  0  0  0  0  0  0  0  0
    7.6261  -16.6471   19.9414 N   0  0  0  0  0  0  0  0  0  0  0  0
    7.9982  -15.8968   22.2166 C   0  0  0  0  0  0  0  0  0  0  0  0
    6.8759  -16.0307   22.7824 O   0  0  0  0  0  0  0  0  0  0  0  0
    9.1387  -16.0841   22.9994 N   0  0  0  0  0  0  0  0  0  0  0  0
    9.0734  -16.5142   24.3819 C   0  0  1  0  0  0  0  0  0  0  0  0
    9.6729  -17.8621   24.6126 C   0  0  0  0  0  0  0  0  0  0  0  0
    8.6813  -19.0768   23.6951 S   0  0  0  0  0  0  0  0  0  0  0  0
    9.6952  -15.4876   25.2886 C   0  0  0  0  0  0  0  0  0  0  0  0
   10.8668  -15.1366   25.0532 O   0  0  0  0  0  0  0  0  0  0  0  0
    8.4298  -13.0989   27.7999 C   0  0  0  0  0  0  0  0  0  0  0  0
    9.5070  -14.0578   27.3901 C   0  0  2  0  0  0  0  0  0  0  0  0
    8.9923  -14.9335   26.3686 N   0  0  0  0  0  0  0  0  0  0  0  0
   10.1640  -14.7480   28.5258 C   0  0  0  0  0  0  0  0  0  0  0  0
   10.9986  -14.0502   29.3935 O   0  0  0  0  0  0  0  0  0  0  0  0
    9.9988  -15.9600   28.7466 O   0  0  0  0  0  0  0  0  0  0  0  0
  2  4  1  0
  2  1  1  1
  3  2  1  0
  4  5  1  0
  5  7  1  0
  5  6  1  6
  7  8  2  0
  9 10  1  0
  9  7  1  0
 10 13  1  0
 11 12  1  0
 10 11  1  6
 13 14  2  0
 16 15  1  1
 16 18  1  0
 17 13  1  0
 17 16  1  0
 18 20  2  0
 18 19  1  0
M  END
$$$$
