LCA.pdb
     RDKit          3D

 20 19  0  0  1  0  0  0  0  0999 V2000
    8.2846  -12.3547   19.4188 C   0  0  0  0  0  0  0  0  0  0  0  0
    7.9560  -13.7083   19.9396 C   0  0  1  0  0  0  0  0  0  0  0  0
    7.7009  -14.6563   18.7835 C   0  0  0  0  0  0  0  0  0  0  0  0
    9.0076  -14.2281   20.8756 C   0  0  0  0  0  0  0  0  0  0  0  0
    8.3995  -15.1739   21.8484 C   0  0  2  0  0  0  0  0  0  0  0  0
    6.9791  -15.3570   21.6722 N   0  0  0  0  0  0  0  0  0  0  0  0
    8.7140  -14.7791   23.2640 C   0  0  0  0  0  0  0  0  0  0  0  0
    9.9067  -14.5670   23.6246 O   0  0  0  0  0  0  0  0  0  0  0  0
    7.7155  -14.6322   24.2283 N   0  0  0  0  0  0  0  0  0  0  0  0
    8.0070  -14.2930   25.6070 C   0  0  1  0  0  0  0  0  0  0  0  0
    7.0992  -13.2470   26.1649 C   0  0  0  0  0  0  0  0  0  0  0  0
    5.3914  -13.8423   25.9921 S   0  0  0  0  0  0  0  0  0  0  0  0
    8.0019  -15.5245   26.4706 C   0  0  0  0  0  0  0  0  0  0  0  0
    8.2527  -15.3864   27.6827 O   0  0  0  0  0  0  0  0  0  0  0  0
    6.9397  -19.0559   25.9610 C   0  0  0  0  0  0  0  0  0  0  0  0
    7.8599  -18.0655   26.6091 C   0  0  2  0  0  0  0  0  0  0  0  0
    7.7256  -16.7948   25.9439 N   0  0  0  0  0  0  0  0  0  0  0  0
    9.2551  -18.5449   26.7556 C   0  0  0  0  0  0  0  0  0  0  0  0
   10.2887  -17.9503   26.0384 O   0  0  0  0  0  0  0  0  0  0  0  0
    9.5545  -19.4833   27.5136 O   0  0  0  0  0  0  0  0  0  0  0  0
  2  4  1  0
  2  1  1  6
  3  2  1  0
  4  5  1  0
  5  7  1  0
  5  6  1  1
  7  8  2  0
  9 10  1  0
  9  7  1  0
 10 13  1  0
 11 12  1  0
 10 11  1  1
 13 14  2  0
 16 15  1  6
 16 18  1  0
 17 13  1  0
 17 16  1  0
 18 20  2  0
 18 19  1  0
M  END
$$$$
