LCA.pdb
     RDKit          3D

 20 19  0  0  1  0  0  0  0  0999 V2000
    8.0415  -12.4390   27.5463 C   0  0  0  0  0  0  0  0  0  0  0  0
    7.1147  -13.3712   26.8508 C   0  0  1  0  0  0  0  0  0  0  0  0
    5.9677  -12.5926   26.2358 C   0  0  0  0  0  0  0  0  0  0  0  0
    7.8217  -14.2282   25.8419 C   0  0  0  0  0  0  0  0  0  0  0  0
    6.8583  -15.1666   25.2079 C   0  0  2  0  0  0  0  0  0  0  0  0
    6.2932  -16.1277   26.1241 N   0  0  0  0  0  0  0  0  0  0  0  0
    7.4687  -15.8573   24.0211 C   0  0  0  0  0  0  0  0  0  0  0  0
    7.6608  -17.1066   24.0302 O   0  0  0  0  0  0  0  0  0  0  0  0
    7.8452  -15.1579   22.8733 N   0  0  0  0  0  0  0  0  0  0  0  0
    8.3630  -15.8191   21.6920 C   0  0  1  0  0  0  0  0  0  0  0  0
    8.1865  -15.0228   20.4413 C   0  0  0  0  0  0  0  0  0  0  0  0
    7.8743  -13.2980   20.9190 S   0  0  0  0  0  0  0  0  0  0  0  0
    9.8046  -16.2024   21.8855 C   0  0  0  0  0  0  0  0  0  0  0  0
   10.3851  -16.7778   20.9457 O   0  0  0  0  0  0  0  0  0  0  0  0
   12.6773  -15.0345   23.4519 C   0  0  0  0  0  0  0  0  0  0  0  0
   11.8447  -16.2807   23.4113 C   0  0  2  0  0  0  0  0  0  0  0  0
   10.4879  -15.9282   23.0794 N   0  0  0  0  0  0  0  0  0  0  0  0
   11.9869  -17.1403   24.6107 C   0  0  0  0  0  0  0  0  0  0  0  0
   13.2357  -17.6155   24.9993 O   0  0  0  0  0  0  0  0  0  0  0  0
   11.0114  -17.4670   25.3082 O   0  0  0  0  0  0  0  0  0  0  0  0
  2  4  1  0
  2  1  1  6
  3  2  1  0
  4  5  1  0
  5  7  1  0
  5  6  1  1
  7  8  2  0
  9 10  1  0
  9  7  1  0
 10 13  1  0
 11 12  1  0
 10 11  1  6
 13 14  2  0
 16 15  1  1
 16 18  1  0
 17 13  1  0
 17 16  1  0
 18 20  2  0
 18 19  1  0
M  END
$$$$
