FNS.pdb
     RDKit          3D

 26 26  0  0  1  0  0  0  0  0999 V2000
    7.8796  -15.9016   26.4970 N   0  0  0  0  0  0  0  0  0  0  0  0
    7.8831  -15.6555   25.0700 C   0  0  1  0  0  0  0  0  0  0  0  0
    8.2926  -14.2162   24.7781 C   0  0  0  0  0  0  0  0  0  0  0  0
    7.4518  -13.2699   25.5733 C   0  0  0  0  0  0  0  0  0  0  0  0
    6.0778  -13.4102   25.6234 C   0  0  0  0  0  0  0  0  0  0  0  0
    5.3062  -12.5334   26.3595 C   0  0  0  0  0  0  0  0  0  0  0  0
    5.8660  -11.4849   27.0733 C   0  0  0  0  0  0  0  0  0  0  0  0
    7.2379  -11.3403   27.0266 C   0  0  0  0  0  0  0  0  0  0  0  0
    8.0090  -12.2264   26.2837 C   0  0  0  0  0  0  0  0  0  0  0  0
    8.9060  -16.5333   24.4533 C   0  0  0  0  0  0  0  0  0  0  0  0
    9.7389  -17.1212   25.1647 O   0  0  0  0  0  0  0  0  0  0  0  0
   11.4772  -19.5163   21.4673 N   0  0  0  0  0  0  0  0  0  0  0  0
   10.2476  -19.3202   20.7792 C   0  0  0  0  0  0  0  0  0  0  0  0
    9.9943  -20.0967   19.8223 O   0  0  0  0  0  0  0  0  0  0  0  0
    9.3566  -18.2317   21.2254 C   0  0  0  0  0  0  0  0  0  0  0  0
    9.9334  -17.5419   22.4390 C   0  0  2  0  0  0  0  0  0  0  0  0
    8.9370  -16.7077   23.0218 N   0  0  0  0  0  0  0  0  0  0  0  0
   11.1661  -16.7829   22.1177 C   0  0  0  0  0  0  0  0  0  0  0  0
   11.6171  -16.8494   20.9547 O   0  0  0  0  0  0  0  0  0  0  0  0
   15.2077  -15.7298   24.4705 O   0  0  0  0  0  0  0  0  0  0  0  0
   13.8057  -15.8706   24.5506 C   0  0  0  0  0  0  0  0  0  0  0  0
   13.2827  -15.8711   23.1335 C   0  0  2  0  0  0  0  0  0  0  0  0
   11.8538  -15.9871   23.0698 N   0  0  0  0  0  0  0  0  0  0  0  0
   13.9684  -16.9092   22.3165 C   0  0  0  0  0  0  0  0  0  0  0  0
   14.0026  -18.1153   22.6388 O   0  0  0  0  0  0  0  0  0  0  0  0
   14.5946  -16.5144   21.1479 O   0  0  0  0  0  0  0  0  0  0  0  0
  2  1  1  1
  2 10  1  0
  3  2  1  0
  3  4  1  0
  4  5  2  0
  4  9  1  0
  5  6  1  0
  6  7  2  0
  8  7  1  0
  9  8  2  0
 10 11  2  0
 13 12  1  0
 14 13  2  0
 15 13  1  0
 16 15  1  6
 16 18  1  0
 17 16  1  0
 17 10  1  0
 18 23  1  0
 19 18  2  0
 21 20  1  0
 22 21  1  1
 23 22  1  0
 24 26  1  0
 24 22  1  0
 25 24  2  0
M  END
$$$$
