FNS.pdb
     RDKit          3D

 26 26  0  0  1  0  0  0  0  0999 V2000
    5.7515  -16.4267   25.2127 N   0  0  0  0  0  0  0  0  0  0  0  0
    6.3333  -16.0648   23.9370 C   0  0  1  0  0  0  0  0  0  0  0  0
    6.4568  -14.5498   23.8177 C   0  0  0  0  0  0  0  0  0  0  0  0
    6.8738  -13.9622   25.1276 C   0  0  0  0  0  0  0  0  0  0  0  0
    5.9340  -13.5239   26.0413 C   0  0  0  0  0  0  0  0  0  0  0  0
    6.3249  -12.9820   27.2494 C   0  0  0  0  0  0  0  0  0  0  0  0
    7.6606  -12.8538   27.5981 C   0  0  0  0  0  0  0  0  0  0  0  0
    8.6033  -13.2899   26.6891 C   0  0  0  0  0  0  0  0  0  0  0  0
    8.2033  -13.8345   25.4745 C   0  0  0  0  0  0  0  0  0  0  0  0
    7.7067  -16.6197   23.8825 C   0  0  0  0  0  0  0  0  0  0  0  0
    8.0723  -17.4710   24.7114 O   0  0  0  0  0  0  0  0  0  0  0  0
   12.8807  -16.5530   20.6966 N   0  0  0  0  0  0  0  0  0  0  0  0
   11.6946  -17.2250   21.1033 C   0  0  0  0  0  0  0  0  0  0  0  0
   11.7474  -18.4786   21.1963 O   0  0  0  0  0  0  0  0  0  0  0  0
   10.4909  -16.4198   21.3873 C   0  0  0  0  0  0  0  0  0  0  0  0
    9.8677  -16.8461   22.6954 C   0  0  2  0  0  0  0  0  0  0  0  0
    8.6247  -16.1716   22.8641 N   0  0  0  0  0  0  0  0  0  0  0  0
   10.7750  -16.6217   23.8466 C   0  0  0  0  0  0  0  0  0  0  0  0
   11.7364  -15.8378   23.6996 O   0  0  0  0  0  0  0  0  0  0  0  0
    9.9300  -18.1017   27.5986 O   0  0  0  0  0  0  0  0  0  0  0  0
   10.9139  -17.0922   27.5306 C   0  0  0  0  0  0  0  0  0  0  0  0
   11.5594  -17.1992   26.1692 C   0  0  2  0  0  0  0  0  0  0  0  0
   10.6001  -17.2561   25.1034 N   0  0  0  0  0  0  0  0  0  0  0  0
   12.5171  -18.3378   26.1254 C   0  0  0  0  0  0  0  0  0  0  0  0
   12.4264  -19.2715   25.3010 O   0  0  0  0  0  0  0  0  0  0  0  0
   13.5531  -18.3574   27.0421 O   0  0  0  0  0  0  0  0  0  0  0  0
  2  1  1  1
  2 10  1  0
  3  2  1  0
  3  4  1  0
  4  5  2  0
  4  9  1  0
  5  6  1  0
  6  7  2  0
  8  7  1  0
  9  8  2  0
 10 11  2  0
 13 12  1  0
 14 13  2  0
 15 13  1  0
 16 15  1  6
 16 18  1  0
 17 16  1  0
 17 10  1  0
 18 23  1  0
 19 18  2  0
 21 20  1  0
 22 21  1  1
 23 22  1  0
 24 26  1  0
 24 22  1  0
 25 24  2  0
M  END
$$$$
