FNS.pdb
     RDKit          3D

 26 26  0  0  1  0  0  0  0  0999 V2000
    6.1837  -16.5068   25.1343 N   0  0  0  0  0  0  0  0  0  0  0  0
    7.4429  -15.8847   24.7813 C   0  0  1  0  0  0  0  0  0  0  0  0
    7.9577  -15.0309   25.9348 C   0  0  0  0  0  0  0  0  0  0  0  0
    7.3523  -13.6653   25.8753 C   0  0  0  0  0  0  0  0  0  0  0  0
    6.6918  -13.1326   26.9662 C   0  0  0  0  0  0  0  0  0  0  0  0
    6.1346  -11.8709   26.9055 C   0  0  0  0  0  0  0  0  0  0  0  0
    6.2105  -11.0896   25.7628 C   0  0  0  0  0  0  0  0  0  0  0  0
    6.8692  -11.6169   24.6704 C   0  0  0  0  0  0  0  0  0  0  0  0
    7.4280  -12.8877   24.7379 C   0  0  0  0  0  0  0  0  0  0  0  0
    8.4398  -16.9579   24.5546 C   0  0  0  0  0  0  0  0  0  0  0  0
    8.3387  -18.0438   25.1513 O   0  0  0  0  0  0  0  0  0  0  0  0
   10.6175  -16.3182   20.1801 N   0  0  0  0  0  0  0  0  0  0  0  0
   10.5049  -17.4234   21.0688 C   0  0  0  0  0  0  0  0  0  0  0  0
    9.6709  -18.3172   20.7716 O   0  0  0  0  0  0  0  0  0  0  0  0
   11.3629  -17.4523   22.2691 C   0  0  0  0  0  0  0  0  0  0  0  0
   10.5379  -17.7433   23.5003 C   0  0  2  0  0  0  0  0  0  0  0  0
    9.5327  -16.7437   23.6380 N   0  0  0  0  0  0  0  0  0  0  0  0
   11.3736  -17.8536   24.7203 C   0  0  0  0  0  0  0  0  0  0  0  0
   12.0744  -16.8734   25.0495 O   0  0  0  0  0  0  0  0  0  0  0  0
   10.5940  -20.6070   27.5678 O   0  0  0  0  0  0  0  0  0  0  0  0
   11.4168  -19.5188   27.9291 C   0  0  0  0  0  0  0  0  0  0  0  0
   12.2219  -19.1515   26.7050 C   0  0  2  0  0  0  0  0  0  0  0  0
   11.4122  -19.0196   25.5276 N   0  0  0  0  0  0  0  0  0  0  0  0
   13.3499  -20.1026   26.5083 C   0  0  0  0  0  0  0  0  0  0  0  0
   13.5341  -20.7283   25.4433 O   0  0  0  0  0  0  0  0  0  0  0  0
   14.2313  -20.2984   27.5565 O   0  0  0  0  0  0  0  0  0  0  0  0
  2  1  1  1
  2 10  1  0
  3  2  1  0
  3  4  1  0
  4  5  2  0
  4  9  1  0
  5  6  1  0
  6  7  2  0
  8  7  1  0
  9  8  2  0
 10 11  2  0
 13 12  1  0
 14 13  2  0
 15 13  1  0
 16 15  1  6
 16 18  1  0
 17 16  1  0
 17 10  1  0
 18 23  1  0
 19 18  2  0
 21 20  1  0
 22 21  1  1
 23 22  1  0
 24 26  1  0
 24 22  1  0
 25 24  2  0
M  END
$$$$
