FNS.pdb
     RDKit          3D

 26 26  0  0  1  0  0  0  0  0999 V2000
    6.6143  -18.0822   18.1917 N   0  0  0  0  0  0  0  0  0  0  0  0
    7.2404  -16.8792   18.6994 C   0  0  1  0  0  0  0  0  0  0  0  0
    6.2834  -16.1265   19.6172 C   0  0  0  0  0  0  0  0  0  0  0  0
    6.9678  -14.9380   20.2120 C   0  0  0  0  0  0  0  0  0  0  0  0
    7.0474  -14.7756   21.5822 C   0  0  0  0  0  0  0  0  0  0  0  0
    7.6806  -13.6759   22.1259 C   0  0  0  0  0  0  0  0  0  0  0  0
    8.2587  -12.6960   21.3336 C   0  0  0  0  0  0  0  0  0  0  0  0
    8.1821  -12.8534   19.9646 C   0  0  0  0  0  0  0  0  0  0  0  0
    7.5432  -13.9627   19.4234 C   0  0  0  0  0  0  0  0  0  0  0  0
    8.4082  -17.2784   19.5203 C   0  0  0  0  0  0  0  0  0  0  0  0
    8.2663  -18.0670   20.4708 O   0  0  0  0  0  0  0  0  0  0  0  0
   11.6281  -19.4651   18.7788 N   0  0  0  0  0  0  0  0  0  0  0  0
   12.1381  -18.2177   18.3228 C   0  0  0  0  0  0  0  0  0  0  0  0
   12.6047  -18.1800   17.1550 O   0  0  0  0  0  0  0  0  0  0  0  0
   12.0886  -17.0601   19.2367 C   0  0  0  0  0  0  0  0  0  0  0  0
   10.8185  -17.0868   20.0535 C   0  0  2  0  0  0  0  0  0  0  0  0
    9.7160  -16.7508   19.2169 N   0  0  0  0  0  0  0  0  0  0  0  0
   10.8978  -16.2008   21.2399 C   0  0  0  0  0  0  0  0  0  0  0  0
   11.4789  -15.1014   21.1210 O   0  0  0  0  0  0  0  0  0  0  0  0
    8.4380  -16.4883   24.5252 O   0  0  0  0  0  0  0  0  0  0  0  0
    9.1874  -15.3177   24.2806 C   0  0  0  0  0  0  0  0  0  0  0  0
   10.5058  -15.7563   23.6878 C   0  0  2  0  0  0  0  0  0  0  0  0
   10.3446  -16.5454   22.5001 N   0  0  0  0  0  0  0  0  0  0  0  0
   11.3437  -16.4417   24.7092 C   0  0  0  0  0  0  0  0  0  0  0  0
   11.6901  -17.6377   24.6135 O   0  0  0  0  0  0  0  0  0  0  0  0
   11.7546  -15.7159   25.8130 O   0  0  0  0  0  0  0  0  0  0  0  0
  2  1  1  1
  2 10  1  0
  3  2  1  0
  3  4  1  0
  4  5  2  0
  4  9  1  0
  5  6  1  0
  6  7  2  0
  8  7  1  0
  9  8  2  0
 10 11  2  0
 13 12  1  0
 14 13  2  0
 15 13  1  0
 16 15  1  6
 16 18  1  0
 17 16  1  0
 17 10  1  0
 18 23  1  0
 19 18  2  0
 21 20  1  0
 22 21  1  1
 23 22  1  0
 24 26  1  0
 24 22  1  0
 25 24  2  0
M  END
$$$$
