FNS.pdb
     RDKit          3D

 26 26  0  0  1  0  0  0  0  0999 V2000
    8.7611  -16.9961   19.0555 N   0  0  0  0  0  0  0  0  0  0  0  0
    9.9326  -16.5890   19.8030 C   0  0  1  0  0  0  0  0  0  0  0  0
    9.5423  -15.6407   20.9314 C   0  0  0  0  0  0  0  0  0  0  0  0
    8.8490  -14.4379   20.3769 C   0  0  0  0  0  0  0  0  0  0  0  0
    7.4815  -14.2839   20.5049 C   0  0  0  0  0  0  0  0  0  0  0  0
    6.8465  -13.1710   19.9909 C   0  0  0  0  0  0  0  0  0  0  0  0
    7.5415  -12.1691   19.3311 C   0  0  0  0  0  0  0  0  0  0  0  0
    8.9074  -12.3180   19.2006 C   0  0  0  0  0  0  0  0  0  0  0  0
    9.5407  -13.4408   19.7202 C   0  0  0  0  0  0  0  0  0  0  0  0
   10.5208  -17.7956   20.4316 C   0  0  0  0  0  0  0  0  0  0  0  0
   10.4456  -18.8986   19.8631 O   0  0  0  0  0  0  0  0  0  0  0  0
   15.8454  -18.4696   20.8512 N   0  0  0  0  0  0  0  0  0  0  0  0
   14.5385  -19.0241   20.9421 C   0  0  0  0  0  0  0  0  0  0  0  0
   14.4520  -20.2704   21.0912 O   0  0  0  0  0  0  0  0  0  0  0  0
   13.3798  -18.1142   20.8569 C   0  0  0  0  0  0  0  0  0  0  0  0
   12.3772  -18.4339   21.9404 C   0  0  2  0  0  0  0  0  0  0  0  0
   11.1838  -17.6921   21.7084 N   0  0  0  0  0  0  0  0  0  0  0  0
   12.9223  -18.1872   23.2972 C   0  0  0  0  0  0  0  0  0  0  0  0
   13.9776  -18.7686   23.6269 O   0  0  0  0  0  0  0  0  0  0  0  0
    9.9026  -17.8715   25.6545 O   0  0  0  0  0  0  0  0  0  0  0  0
   10.9343  -17.1243   26.2621 C   0  0  0  0  0  0  0  0  0  0  0  0
   12.2330  -17.5853   25.6436 C   0  0  2  0  0  0  0  0  0  0  0  0
   12.3003  -17.3227   24.2344 N   0  0  0  0  0  0  0  0  0  0  0  0
   12.4928  -19.0158   25.9624 C   0  0  0  0  0  0  0  0  0  0  0  0
   12.5140  -19.9131   25.0939 O   0  0  0  0  0  0  0  0  0  0  0  0
   12.7206  -19.3614   27.2824 O   0  0  0  0  0  0  0  0  0  0  0  0
  2  1  1  1
  2 10  1  0
  3  2  1  0
  3  4  1  0
  4  5  2  0
  4  9  1  0
  5  6  1  0
  6  7  2  0
  8  7  1  0
  9  8  2  0
 10 11  2  0
 13 12  1  0
 14 13  2  0
 15 13  1  0
 16 15  1  6
 16 18  1  0
 17 16  1  0
 17 10  1  0
 18 23  1  0
 19 18  2  0
 21 20  1  0
 22 21  1  6
 23 22  1  0
 24 26  1  0
 24 22  1  0
 25 24  2  0
M  END
$$$$
