FNS.pdb
     RDKit          3D

 26 26  0  0  1  0  0  0  0  0999 V2000
    6.5370  -16.5005   25.3358 N   0  0  0  0  0  0  0  0  0  0  0  0
    6.8040  -15.2751   24.6118 C   0  0  1  0  0  0  0  0  0  0  0  0
    7.9475  -14.5075   25.2658 C   0  0  0  0  0  0  0  0  0  0  0  0
    7.4060  -13.4672   26.1928 C   0  0  0  0  0  0  0  0  0  0  0  0
    6.2137  -12.8235   25.9200 C   0  0  0  0  0  0  0  0  0  0  0  0
    5.7184  -11.8636   26.7796 C   0  0  0  0  0  0  0  0  0  0  0  0
    6.3847  -11.5050   27.9414 C   0  0  0  0  0  0  0  0  0  0  0  0
    7.5758  -12.1448   28.2185 C   0  0  0  0  0  0  0  0  0  0  0  0
    8.0691  -13.1104   27.3490 C   0  0  0  0  0  0  0  0  0  0  0  0
    7.2469  -15.6351   23.2438 C   0  0  0  0  0  0  0  0  0  0  0  0
    7.5565  -16.8083   22.9734 O   0  0  0  0  0  0  0  0  0  0  0  0
    8.6753  -13.1214   17.8519 N   0  0  0  0  0  0  0  0  0  0  0  0
    8.0755  -14.1478   18.6334 C   0  0  0  0  0  0  0  0  0  0  0  0
    7.9970  -15.2921   18.1164 O   0  0  0  0  0  0  0  0  0  0  0  0
    7.5889  -13.8106   19.9852 C   0  0  0  0  0  0  0  0  0  0  0  0
    7.8345  -14.9583   20.9358 C   0  0  2  0  0  0  0  0  0  0  0  0
    7.3196  -14.6214   22.2203 N   0  0  0  0  0  0  0  0  0  0  0  0
    9.2674  -15.3346   20.9998 C   0  0  0  0  0  0  0  0  0  0  0  0
   10.0766  -14.5090   21.4731 O   0  0  0  0  0  0  0  0  0  0  0  0
   10.5178  -19.1994   20.6758 O   0  0  0  0  0  0  0  0  0  0  0  0
   11.4226  -18.2605   21.2158 C   0  0  0  0  0  0  0  0  0  0  0  0
   11.1485  -16.9423   20.5310 C   0  0  2  0  0  0  0  0  0  0  0  0
    9.7583  -16.5868   20.5485 N   0  0  0  0  0  0  0  0  0  0  0  0
   11.7142  -16.9332   19.1543 C   0  0  0  0  0  0  0  0  0  0  0  0
   11.0195  -16.7386   18.1349 O   0  0  0  0  0  0  0  0  0  0  0  0
   13.0719  -17.1509   19.0031 O   0  0  0  0  0  0  0  0  0  0  0  0
  2  1  1  1
  2 10  1  0
  3  2  1  0
  3  4  1  0
  4  5  2  0
  4  9  1  0
  5  6  1  0
  6  7  2  0
  8  7  1  0
  9  8  2  0
 10 11  2  0
 13 12  1  0
 14 13  2  0
 15 13  1  0
 16 15  1  6
 16 18  1  0
 17 16  1  0
 17 10  1  0
 18 23  1  0
 19 18  2  0
 21 20  1  0
 22 21  1  6
 23 22  1  0
 24 26  1  0
 24 22  1  0
 25 24  2  0
M  END
$$$$
