FNS.pdb
     RDKit          3D

 26 26  0  0  1  0  0  0  0  0999 V2000
    6.0872  -18.4299   19.3777 N   0  0  0  0  0  0  0  0  0  0  0  0
    6.7917  -17.1781   19.5614 C   0  0  1  0  0  0  0  0  0  0  0  0
    6.0182  -16.2644   20.5056 C   0  0  0  0  0  0  0  0  0  0  0  0
    6.7512  -14.9746   20.6898 C   0  0  0  0  0  0  0  0  0  0  0  0
    7.1428  -14.5529   21.9464 C   0  0  0  0  0  0  0  0  0  0  0  0
    7.8194  -13.3608   22.1106 C   0  0  0  0  0  0  0  0  0  0  0  0
    8.1337  -12.5417   21.0371 C   0  0  0  0  0  0  0  0  0  0  0  0
    7.7448  -12.9582   19.7800 C   0  0  0  0  0  0  0  0  0  0  0  0
    7.0639  -14.1594   19.6213 C   0  0  0  0  0  0  0  0  0  0  0  0
    8.0928  -17.4719   20.2077 C   0  0  0  0  0  0  0  0  0  0  0  0
    8.1324  -18.0928   21.2839 O   0  0  0  0  0  0  0  0  0  0  0  0
   10.8755  -19.4766   18.5128 N   0  0  0  0  0  0  0  0  0  0  0  0
   11.6549  -18.3267   18.2055 C   0  0  0  0  0  0  0  0  0  0  0  0
   12.2900  -18.3364   17.1196 O   0  0  0  0  0  0  0  0  0  0  0  0
   11.6695  -17.2080   19.1679 C   0  0  0  0  0  0  0  0  0  0  0  0
   10.5668  -17.3742   20.1866 C   0  0  2  0  0  0  0  0  0  0  0  0
    9.3199  -17.0363   19.5870 N   0  0  0  0  0  0  0  0  0  0  0  0
   10.8173  -16.5836   21.4158 C   0  0  0  0  0  0  0  0  0  0  0  0
   11.2368  -15.4134   21.2929 O   0  0  0  0  0  0  0  0  0  0  0  0
    9.0476  -17.1925   25.0113 O   0  0  0  0  0  0  0  0  0  0  0  0
    9.7810  -16.0126   24.7630 C   0  0  0  0  0  0  0  0  0  0  0  0
   10.9736  -16.4054   23.9232 C   0  0  2  0  0  0  0  0  0  0  0  0
   10.6023  -17.0958   22.7212 N   0  0  0  0  0  0  0  0  0  0  0  0
   11.9601  -17.1731   24.7311 C   0  0  0  0  0  0  0  0  0  0  0  0
   12.4892  -16.7207   25.7680 O   0  0  0  0  0  0  0  0  0  0  0  0
   12.3029  -18.4454   24.3095 O   0  0  0  0  0  0  0  0  0  0  0  0
  2  1  1  1
  2 10  1  0
  3  2  1  0
  3  4  1  0
  4  5  2  0
  4  9  1  0
  5  6  1  0
  6  7  2  0
  8  7  1  0
  9  8  2  0
 10 11  2  0
 13 12  1  0
 14 13  2  0
 15 13  1  0
 16 15  1  6
 16 18  1  0
 17 16  1  0
 17 10  1  0
 18 23  1  0
 19 18  2  0
 21 20  1  0
 22 21  1  1
 23 22  1  0
 24 26  1  0
 24 22  1  0
 25 24  2  0
M  END
$$$$
