FNS.pdb
     RDKit          3D

 26 26  0  0  1  0  0  0  0  0999 V2000
    6.1939  -16.7489   23.2759 N   0  0  0  0  0  0  0  0  0  0  0  0
    7.2103  -16.0217   24.0075 C   0  0  1  0  0  0  0  0  0  0  0  0
    6.7006  -15.6415   25.3932 C   0  0  0  0  0  0  0  0  0  0  0  0
    6.7173  -14.1558   25.5586 C   0  0  0  0  0  0  0  0  0  0  0  0
    7.3403  -13.3442   24.6294 C   0  0  0  0  0  0  0  0  0  0  0  0
    7.3526  -11.9728   24.7873 C   0  0  0  0  0  0  0  0  0  0  0  0
    6.7487  -11.3536   25.8708 C   0  0  0  0  0  0  0  0  0  0  0  0
    6.1251  -12.1595   26.8017 C   0  0  0  0  0  0  0  0  0  0  0  0
    6.1162  -13.5395   26.6370 C   0  0  0  0  0  0  0  0  0  0  0  0
    8.3714  -16.9221   24.2020 C   0  0  0  0  0  0  0  0  0  0  0  0
    8.2377  -17.9936   24.8180 O   0  0  0  0  0  0  0  0  0  0  0  0
   11.1771  -17.8925   20.9155 N   0  0  0  0  0  0  0  0  0  0  0  0
   11.5382  -16.7446   21.6745 C   0  0  0  0  0  0  0  0  0  0  0  0
   11.4827  -15.6304   21.0929 O   0  0  0  0  0  0  0  0  0  0  0  0
   11.9502  -16.9301   23.0793 C   0  0  0  0  0  0  0  0  0  0  0  0
   10.7831  -17.4029   23.9133 C   0  0  2  0  0  0  0  0  0  0  0  0
    9.6633  -16.5556   23.6753 N   0  0  0  0  0  0  0  0  0  0  0  0
   11.1197  -17.4762   25.3556 C   0  0  0  0  0  0  0  0  0  0  0  0
   11.4000  -16.4160   25.9536 O   0  0  0  0  0  0  0  0  0  0  0  0
    9.2033  -18.9173   28.0570 O   0  0  0  0  0  0  0  0  0  0  0  0
   10.4448  -19.5521   28.2748 C   0  0  0  0  0  0  0  0  0  0  0  0
   11.4745  -18.7888   27.4756 C   0  0  2  0  0  0  0  0  0  0  0  0
   11.1373  -18.6936   26.0840 N   0  0  0  0  0  0  0  0  0  0  0  0
   12.8348  -19.3545   27.6874 C   0  0  0  0  0  0  0  0  0  0  0  0
   13.5546  -19.7631   26.7522 O   0  0  0  0  0  0  0  0  0  0  0  0
   13.3187  -19.4287   28.9813 O   0  0  0  0  0  0  0  0  0  0  0  0
  2  1  1  6
  2 10  1  0
  3  2  1  0
  3  4  1  0
  4  5  2  0
  4  9  1  0
  5  6  1  0
  6  7  2  0
  8  7  1  0
  9  8  2  0
 10 11  2  0
 13 12  1  0
 14 13  2  0
 15 13  1  0
 16 15  1  6
 16 18  1  0
 17 16  1  0
 17 10  1  0
 18 23  1  0
 19 18  2  0
 21 20  1  0
 22 21  1  1
 23 22  1  0
 24 26  1  0
 24 22  1  0
 25 24  2  0
M  END
$$$$
