FNS.pdb
     RDKit          3D

 26 26  0  0  1  0  0  0  0  0999 V2000
    9.2029  -16.5478   20.1700 N   0  0  0  0  0  0  0  0  0  0  0  0
    8.0855  -16.9703   19.3514 C   0  0  1  0  0  0  0  0  0  0  0  0
    6.8637  -16.1009   19.6270 C   0  0  0  0  0  0  0  0  0  0  0  0
    7.2901  -14.7418   20.0807 C   0  0  0  0  0  0  0  0  0  0  0  0
    7.5018  -13.7229   19.1712 C   0  0  0  0  0  0  0  0  0  0  0  0
    7.8955  -12.4697   19.5959 C   0  0  0  0  0  0  0  0  0  0  0  0
    8.0944  -12.1784   20.9366 C   0  0  0  0  0  0  0  0  0  0  0  0
    7.8843  -13.1924   21.8491 C   0  0  0  0  0  0  0  0  0  0  0  0
    7.4880  -14.4519   21.4152 C   0  0  0  0  0  0  0  0  0  0  0  0
    8.4529  -16.7678   17.9298 C   0  0  0  0  0  0  0  0  0  0  0  0
    7.6972  -17.1615   17.0247 O   0  0  0  0  0  0  0  0  0  0  0  0
    7.9229  -13.3248   15.9883 N   0  0  0  0  0  0  0  0  0  0  0  0
    8.6051  -14.3818   15.3240 C   0  0  0  0  0  0  0  0  0  0  0  0
    7.9676  -15.0116   14.4409 O   0  0  0  0  0  0  0  0  0  0  0  0
   10.0006  -14.6702   15.7075 C   0  0  0  0  0  0  0  0  0  0  0  0
   10.1220  -16.0802   16.2352 C   0  0  2  0  0  0  0  0  0  0  0  0
    9.6922  -16.1112   17.5927 N   0  0  0  0  0  0  0  0  0  0  0  0
   11.4950  -16.6186   16.0813 C   0  0  0  0  0  0  0  0  0  0  0  0
   12.0998  -16.4028   15.0098 O   0  0  0  0  0  0  0  0  0  0  0  0
   13.0604  -19.2934   18.7779 O   0  0  0  0  0  0  0  0  0  0  0  0
   14.0272  -18.3819   18.3023 C   0  0  0  0  0  0  0  0  0  0  0  0
   13.5049  -17.8289   16.9973 C   0  0  2  0  0  0  0  0  0  0  0  0
   12.1500  -17.3658   17.0939 N   0  0  0  0  0  0  0  0  0  0  0  0
   13.6859  -18.8127   15.8952 C   0  0  0  0  0  0  0  0  0  0  0  0
   12.7334  -19.2740   15.2321 O   0  0  0  0  0  0  0  0  0  0  0  0
   14.9699  -19.2317   15.5960 O   0  0  0  0  0  0  0  0  0  0  0  0
  2  1  1  1
  2 10  1  0
  3  2  1  0
  3  4  1  0
  4  5  2  0
  4  9  1  0
  5  6  1  0
  6  7  2  0
  8  7  1  0
  9  8  2  0
 10 11  2  0
 13 12  1  0
 14 13  2  0
 15 13  1  0
 16 15  1  1
 16 18  1  0
 17 16  1  0
 17 10  1  0
 18 23  1  0
 19 18  2  0
 21 20  1  0
 22 21  1  1
 23 22  1  0
 24 26  1  0
 24 22  1  0
 25 24  2  0
M  END
$$$$
