FNS.pdb
     RDKit          3D

 26 26  0  0  1  0  0  0  0  0999 V2000
    5.9023  -16.7652   23.9671 N   0  0  0  0  0  0  0  0  0  0  0  0
    7.0296  -15.9564   24.3818 C   0  0  1  0  0  0  0  0  0  0  0  0
    6.8622  -15.5111   25.8304 C   0  0  0  0  0  0  0  0  0  0  0  0
    6.8727  -14.0186   25.9151 C   0  0  0  0  0  0  0  0  0  0  0  0
    5.7483  -13.3215   26.3149 C   0  0  0  0  0  0  0  0  0  0  0  0
    5.7637  -11.9432   26.3913 C   0  0  0  0  0  0  0  0  0  0  0  0
    6.8927  -11.2035   26.0748 C   0  0  0  0  0  0  0  0  0  0  0  0
    8.0184  -11.8947   25.6749 C   0  0  0  0  0  0  0  0  0  0  0  0
    7.9965  -13.2824   25.6001 C   0  0  0  0  0  0  0  0  0  0  0  0
    8.2479  -16.7986   24.3227 C   0  0  0  0  0  0  0  0  0  0  0  0
    8.2003  -17.9945   24.6587 O   0  0  0  0  0  0  0  0  0  0  0  0
   11.4025  -15.4379   20.8724 N   0  0  0  0  0  0  0  0  0  0  0  0
   11.5154  -16.5701   21.7264 C   0  0  0  0  0  0  0  0  0  0  0  0
   11.3837  -17.7041   21.1977 O   0  0  0  0  0  0  0  0  0  0  0  0
   11.7767  -16.3467   23.1616 C   0  0  0  0  0  0  0  0  0  0  0  0
   10.6956  -16.9862   24.0003 C   0  0  2  0  0  0  0  0  0  0  0  0
    9.4952  -16.2302   23.8736 N   0  0  0  0  0  0  0  0  0  0  0  0
   11.1031  -17.1363   25.4182 C   0  0  0  0  0  0  0  0  0  0  0  0
   11.6897  -16.1817   25.9706 O   0  0  0  0  0  0  0  0  0  0  0  0
    9.4940  -20.0100   27.8521 O   0  0  0  0  0  0  0  0  0  0  0  0
   10.0953  -18.8742   28.4354 C   0  0  0  0  0  0  0  0  0  0  0  0
   11.2487  -18.4808   27.5428 C   0  0  2  0  0  0  0  0  0  0  0  0
   10.8571  -18.3123   26.1726 N   0  0  0  0  0  0  0  0  0  0  0  0
   12.3819  -19.4344   27.6909 C   0  0  0  0  0  0  0  0  0  0  0  0
   12.8842  -19.7275   28.7961 O   0  0  0  0  0  0  0  0  0  0  0  0
   12.8983  -20.0198   26.5488 O   0  0  0  0  0  0  0  0  0  0  0  0
  2  1  1  1
  2 10  1  0
  3  2  1  0
  3  4  1  0
  4  5  2  0
  4  9  1  0
  5  6  1  0
  6  7  2  0
  8  7  1  0
  9  8  2  0
 10 11  2  0
 13 12  1  0
 14 13  2  0
 15 13  1  0
 16 15  1  6
 16 18  1  0
 17 16  1  0
 17 10  1  0
 18 23  1  0
 19 18  2  0
 21 20  1  0
 22 21  1  1
 23 22  1  0
 24 26  1  0
 24 22  1  0
 25 24  2  0
M  END
$$$$
