FNS.pdb
     RDKit          3D

 26 26  0  0  1  0  0  0  0  0999 V2000
    8.7456  -17.3721   17.2311 N   0  0  0  0  0  0  0  0  0  0  0  0
    8.9462  -16.1280   17.9446 C   0  0  1  0  0  0  0  0  0  0  0  0
    7.6827  -15.7392   18.7042 C   0  0  0  0  0  0  0  0  0  0  0  0
    7.9386  -14.5298   19.5450 C   0  0  0  0  0  0  0  0  0  0  0  0
    8.2922  -13.3248   18.9677 C   0  0  0  0  0  0  0  0  0  0  0  0
    8.5273  -12.2113   19.7491 C   0  0  0  0  0  0  0  0  0  0  0  0
    8.4213  -12.2489   21.1309 C   0  0  0  0  0  0  0  0  0  0  0  0
    8.0685  -13.4499   21.7125 C   0  0  0  0  0  0  0  0  0  0  0  0
    7.8331  -14.5674   20.9203 C   0  0  0  0  0  0  0  0  0  0  0  0
   10.0123  -16.3411   18.9521 C   0  0  0  0  0  0  0  0  0  0  0  0
    9.9831  -17.3376   19.6947 O   0  0  0  0  0  0  0  0  0  0  0  0
   13.8306  -14.3316   17.2195 N   0  0  0  0  0  0  0  0  0  0  0  0
   13.8705  -15.2492   18.3059 C   0  0  0  0  0  0  0  0  0  0  0  0
   14.3548  -16.3880   18.0788 O   0  0  0  0  0  0  0  0  0  0  0  0
   13.3478  -14.8136   19.6155 C   0  0  0  0  0  0  0  0  0  0  0  0
   12.1411  -15.6357   20.0017 C   0  0  2  0  0  0  0  0  0  0  0  0
   11.0895  -15.3894   19.0732 N   0  0  0  0  0  0  0  0  0  0  0  0
   11.7126  -15.3785   21.3977 C   0  0  0  0  0  0  0  0  0  0  0  0
   11.7085  -14.1989   21.8088 O   0  0  0  0  0  0  0  0  0  0  0  0
    9.0708  -17.5147   23.4943 O   0  0  0  0  0  0  0  0  0  0  0  0
    9.5277  -16.2651   23.9650 C   0  0  0  0  0  0  0  0  0  0  0  0
   11.0081  -16.2000   23.6720 C   0  0  2  0  0  0  0  0  0  0  0  0
   11.3085  -16.4096   22.2845 N   0  0  0  0  0  0  0  0  0  0  0  0
   11.7643  -17.1268   24.5576 C   0  0  0  0  0  0  0  0  0  0  0  0
   11.7159  -17.0674   25.8041 O   0  0  0  0  0  0  0  0  0  0  0  0
   12.5554  -18.0963   23.9676 O   0  0  0  0  0  0  0  0  0  0  0  0
  2  1  1  1
  2 10  1  0
  3  2  1  0
  3  4  1  0
  4  5  2  0
  4  9  1  0
  5  6  1  0
  6  7  2  0
  8  7  1  0
  9  8  2  0
 10 11  2  0
 13 12  1  0
 14 13  2  0
 15 13  1  0
 16 15  1  6
 16 18  1  0
 17 16  1  0
 17 10  1  0
 18 23  1  0
 19 18  2  0
 21 20  1  0
 22 21  1  6
 23 22  1  0
 24 26  1  0
 24 22  1  0
 25 24  2  0
M  END
$$$$
