ACA.pdb
     RDKit          3D

 17 16  0  0  1  0  0  0  0  0999 V2000
    6.1409  -15.6467   20.8426 C   0  0  0  0  0  0  0  0  0  0  0  0
    6.8119  -14.2904   21.0835 C   0  0  2  0  0  0  0  0  0  0  0  0
    7.6115  -14.0221   19.9060 N   0  0  0  0  0  0  0  0  0  0  0  0
    7.6781  -14.3127   22.2621 C   0  0  0  0  0  0  0  0  0  0  0  0
    8.8689  -14.6926   22.1483 O   0  0  0  0  0  0  0  0  0  0  0  0
    7.2653  -13.9249   23.5737 N   0  0  0  0  0  0  0  0  0  0  0  0
    8.1549  -13.9699   24.6935 C   0  0  1  0  0  0  0  0  0  0  0  0
    7.4677  -13.2260   25.8476 C   0  0  0  0  0  0  0  0  0  0  0  0
    5.7935  -13.8837   26.0384 S   0  0  0  0  0  0  0  0  0  0  0  0
    8.4188  -15.3413   25.1795 C   0  0  0  0  0  0  0  0  0  0  0  0
    7.4414  -16.1401   25.1887 O   0  0  0  0  0  0  0  0  0  0  0  0
   10.9406  -17.7838   25.2034 C   0  0  0  0  0  0  0  0  0  0  0  0
    9.8093  -17.1923   26.0206 C   0  0  2  0  0  0  0  0  0  0  0  0
    9.6639  -15.8061   25.6241 N   0  0  0  0  0  0  0  0  0  0  0  0
   10.0768  -17.3149   27.4830 C   0  0  0  0  0  0  0  0  0  0  0  0
   10.2305  -18.3912   28.0786 O   0  0  0  0  0  0  0  0  0  0  0  0
   10.1528  -16.1215   28.1966 O   0  0  0  0  0  0  0  0  0  0  0  0
  2  1  1  6
  2  4  1  0
  3  2  1  0
  4  6  1  0
  5  4  2  0
  6  7  1  0
  7  8  1  1
  8  9  1  0
 10 14  1  0
 10  7  1  0
 11 10  2  0
 13 12  1  6
 13 14  1  0
 13 15  1  0
 15 17  1  0
 16 15  2  0
M  END
$$$$
