ACA.pdb
     RDKit          3D

 17 16  0  0  1  0  0  0  0  0999 V2000
   -2.7424  -27.4487   32.6507 C   0  0  0  0  0  0  0  0  0  0  0  0
   -2.7086  -27.6920   31.1383 C   0  0  2  0  0  0  0  0  0  0  0  0
   -1.3087  -27.7607   30.7728 N   0  0  0  0  0  0  0  0  0  0  0  0
   -3.3497  -26.6058   30.3972 C   0  0  0  0  0  0  0  0  0  0  0  0
   -2.6594  -25.6361   29.9991 O   0  0  0  0  0  0  0  0  0  0  0  0
   -4.7418  -26.5579   30.0799 N   0  0  0  0  0  0  0  0  0  0  0  0
   -5.3066  -25.4983   29.3018 C   0  0  1  0  0  0  0  0  0  0  0  0
   -6.2061  -26.1468   28.2396 C   0  0  0  0  0  0  0  0  0  0  0  0
   -6.9765  -24.8348   27.2612 S   0  0  0  0  0  0  0  0  0  0  0  0
   -6.1730  -24.5915   30.0849 C   0  0  0  0  0  0  0  0  0  0  0  0
   -6.9666  -25.1300   30.9057 O   0  0  0  0  0  0  0  0  0  0  0  0
   -6.7468  -20.9513   30.5757 C   0  0  0  0  0  0  0  0  0  0  0  0
   -7.0804  -22.4139   30.7933 C   0  0  2  0  0  0  0  0  0  0  0  0
   -6.1714  -23.1941   29.9780 N   0  0  0  0  0  0  0  0  0  0  0  0
   -8.5032  -22.7011   30.4493 C   0  0  0  0  0  0  0  0  0  0  0  0
   -9.4348  -22.7006   31.2671 O   0  0  0  0  0  0  0  0  0  0  0  0
   -8.7675  -22.9848   29.1118 O   0  0  0  0  0  0  0  0  0  0  0  0
  2  1  1  1
  2  4  1  0
  3  2  1  0
  4  6  1  0
  5  4  2  0
  6  7  1  0
  7  8  1  6
  8  9  1  0
 10 14  1  0
 10  7  1  0
 11 10  2  0
 13 12  1  6
 13 14  1  0
 13 15  1  0
 15 17  1  0
 16 15  2  0
M  END
$$$$
