ACA.pdb
     RDKit          3D

 17 16  0  0  1  0  0  0  0  0999 V2000
    6.3768  -14.4827   20.0212 C   0  0  0  0  0  0  0  0  0  0  0  0
    7.0970  -13.2508   20.5793 C   0  0  2  0  0  0  0  0  0  0  0  0
    8.0535  -12.8511   19.5676 N   0  0  0  0  0  0  0  0  0  0  0  0
    7.8054  -13.5510   21.8235 C   0  0  0  0  0  0  0  0  0  0  0  0
    8.9985  -13.9380   21.7789 O   0  0  0  0  0  0  0  0  0  0  0  0
    7.2310  -13.4355   23.1264 N   0  0  0  0  0  0  0  0  0  0  0  0
    7.9941  -13.6640   24.3150 C   0  0  1  0  0  0  0  0  0  0  0  0
    7.1642  -13.1362   25.4942 C   0  0  0  0  0  0  0  0  0  0  0  0
    5.5789  -14.0072   25.5158 S   0  0  0  0  0  0  0  0  0  0  0  0
    8.2425  -15.0960   24.5876 C   0  0  0  0  0  0  0  0  0  0  0  0
    7.3828  -15.9148   24.1589 O   0  0  0  0  0  0  0  0  0  0  0  0
   10.2646  -17.5505   24.2454 C   0  0  0  0  0  0  0  0  0  0  0  0
    9.5044  -17.0283   25.4484 C   0  0  2  0  0  0  0  0  0  0  0  0
    9.3530  -15.5969   25.2803 N   0  0  0  0  0  0  0  0  0  0  0  0
   10.2132  -17.3550   26.7196 C   0  0  0  0  0  0  0  0  0  0  0  0
   10.7130  -16.5122   27.4790 O   0  0  0  0  0  0  0  0  0  0  0  0
   10.3013  -18.7062   27.0451 O   0  0  0  0  0  0  0  0  0  0  0  0
  2  1  1  6
  2  4  1  0
  3  2  1  0
  4  6  1  0
  5  4  2  0
  6  7  1  0
  7  8  1  1
  8  9  1  0
 10 14  1  0
 10  7  1  0
 11 10  2  0
 13 12  1  6
 13 14  1  0
 13 15  1  0
 15 17  1  0
 16 15  2  0
M  END
$$$$
