ACA.pdb
     RDKit          3D

 17 16  0  0  1  0  0  0  0  0999 V2000
    5.3980  -20.4778   22.4035 C   0  0  0  0  0  0  0  0  0  0  0  0
    5.5458  -18.9669   22.1954 C   0  0  2  0  0  0  0  0  0  0  0  0
    5.6652  -18.7673   20.7658 N   0  0  0  0  0  0  0  0  0  0  0  0
    6.7380  -18.4396   22.8591 C   0  0  0  0  0  0  0  0  0  0  0  0
    7.8598  -18.5681   22.3110 O   0  0  0  0  0  0  0  0  0  0  0  0
    6.7286  -17.7689   24.1205 N   0  0  0  0  0  0  0  0  0  0  0  0
    7.9261  -17.2680   24.7224 C   0  0  1  0  0  0  0  0  0  0  0  0
    7.5480  -15.9922   25.4887 C   0  0  0  0  0  0  0  0  0  0  0  0
    5.8860  -16.2035   26.1706 S   0  0  0  0  0  0  0  0  0  0  0  0
    8.5156  -18.1918   25.7152 C   0  0  0  0  0  0  0  0  0  0  0  0
    7.7111  -18.9016   26.3805 O   0  0  0  0  0  0  0  0  0  0  0  0
   11.7399  -19.7346   26.5239 C   0  0  0  0  0  0  0  0  0  0  0  0
   10.3450  -19.3044   26.9327 C   0  0  2  0  0  0  0  0  0  0  0  0
    9.8881  -18.3294   25.9629 N   0  0  0  0  0  0  0  0  0  0  0  0
   10.3353  -18.7432   28.3148 C   0  0  0  0  0  0  0  0  0  0  0  0
   10.1229  -17.5522   28.5851 O   0  0  0  0  0  0  0  0  0  0  0  0
   10.5851  -19.6445   29.3465 O   0  0  0  0  0  0  0  0  0  0  0  0
  2  1  1  6
  2  4  1  0
  3  2  1  0
  4  6  1  0
  5  4  2  0
  6  7  1  0
  7  8  1  1
  8  9  1  0
 10 14  1  0
 10  7  1  0
 11 10  2  0
 13 12  1  6
 13 14  1  0
 13 15  1  0
 15 17  1  0
 16 15  2  0
M  END
$$$$
