ACA.pdb
     RDKit          3D

 17 16  0  0  1  0  0  0  0  0999 V2000
    6.5589  -14.7640   20.4202 C   0  0  0  0  0  0  0  0  0  0  0  0
    7.0880  -13.4163   20.9219 C   0  0  2  0  0  0  0  0  0  0  0  0
    8.0810  -12.9896   19.9577 N   0  0  0  0  0  0  0  0  0  0  0  0
    7.7118  -13.5324   22.2400 C   0  0  0  0  0  0  0  0  0  0  0  0
    8.9292  -13.8253   22.3253 O   0  0  0  0  0  0  0  0  0  0  0  0
    7.0256  -13.3331   23.4772 N   0  0  0  0  0  0  0  0  0  0  0  0
    7.6854  -13.4628   24.7402 C   0  0  1  0  0  0  0  0  0  0  0  0
    6.7561  -12.8553   25.8008 C   0  0  0  0  0  0  0  0  0  0  0  0
    7.5399  -13.0341   27.4212 S   0  0  0  0  0  0  0  0  0  0  0  0
    7.9149  -14.8673   25.1417 C   0  0  0  0  0  0  0  0  0  0  0  0
    6.9003  -15.6163   25.1986 O   0  0  0  0  0  0  0  0  0  0  0  0
   10.1103  -17.5771   25.0754 C   0  0  0  0  0  0  0  0  0  0  0  0
    9.2423  -16.7535   26.0061 C   0  0  2  0  0  0  0  0  0  0  0  0
    9.1657  -15.4139   25.4588 N   0  0  0  0  0  0  0  0  0  0  0  0
    9.7928  -16.7444   27.3924 C   0  0  0  0  0  0  0  0  0  0  0  0
   10.1355  -15.7213   28.0027 O   0  0  0  0  0  0  0  0  0  0  0  0
    9.9168  -17.9848   28.0132 O   0  0  0  0  0  0  0  0  0  0  0  0
  2  1  1  6
  2  4  1  0
  3  2  1  0
  4  6  1  0
  5  4  2  0
  6  7  1  0
  7  8  1  1
  8  9  1  0
 10 14  1  0
 10  7  1  0
 11 10  2  0
 13 12  1  6
 13 14  1  0
 13 15  1  0
 15 17  1  0
 16 15  2  0
M  END
$$$$
