ACA.pdb
     RDKit          3D

 17 16  0  0  1  0  0  0  0  0999 V2000
    7.7953  -17.6006   19.6727 C   0  0  0  0  0  0  0  0  0  0  0  0
    8.5683  -16.2853   19.8146 C   0  0  2  0  0  0  0  0  0  0  0  0
    9.7871  -16.4501   19.0495 N   0  0  0  0  0  0  0  0  0  0  0  0
    8.9069  -16.0000   21.2089 C   0  0  0  0  0  0  0  0  0  0  0  0
   10.0043  -16.3946   21.6728 O   0  0  0  0  0  0  0  0  0  0  0  0
    8.0629  -15.2861   22.1138 N   0  0  0  0  0  0  0  0  0  0  0  0
    8.4581  -15.0075   23.4605 C   0  0  1  0  0  0  0  0  0  0  0  0
    7.3749  -14.1079   24.0731 C   0  0  0  0  0  0  0  0  0  0  0  0
    7.8617  -13.6945   25.7655 S   0  0  0  0  0  0  0  0  0  0  0  0
    8.5302  -16.2134   24.3131 C   0  0  0  0  0  0  0  0  0  0  0  0
    7.5001  -16.9416   24.3579 O   0  0  0  0  0  0  0  0  0  0  0  0
   10.3533  -18.8811   25.0914 C   0  0  0  0  0  0  0  0  0  0  0  0
    9.6003  -17.8094   25.8542 C   0  0  2  0  0  0  0  0  0  0  0  0
    9.6501  -16.5957   25.0639 N   0  0  0  0  0  0  0  0  0  0  0  0
   10.1840  -17.5998   27.2108 C   0  0  0  0  0  0  0  0  0  0  0  0
   10.2610  -18.4774   28.0829 O   0  0  0  0  0  0  0  0  0  0  0  0
   10.6652  -16.3216   27.4827 O   0  0  0  0  0  0  0  0  0  0  0  0
  2  1  1  1
  2  4  1  0
  3  2  1  0
  4  6  1  0
  5  4  2  0
  6  7  1  0
  7  8  1  1
  8  9  1  0
 10 14  1  0
 10  7  1  0
 11 10  2  0
 13 12  1  6
 13 14  1  0
 13 15  1  0
 15 17  1  0
 16 15  2  0
M  END
$$$$
