PEL.pdb
     RDKit          3D

 25 25  0  0  1  0  0  0  0  0999 V2000
    9.3159  -14.2261   19.0246 N   0  0  0  0  0  0  0  0  0  0  0  0
    9.0674  -13.4512   17.8141 C   0  0  0  0  0  0  0  0  0  0  0  0
    7.6440  -13.0021   17.8848 C   0  0  0  0  0  0  0  0  0  0  0  0
    7.2275  -13.3475   19.2989 C   0  0  0  0  0  0  0  0  0  0  0  0
    8.5240  -13.5860   20.0465 C   0  0  1  0  0  0  0  0  0  0  0  0
    8.3590  -14.4219   21.2399 C   0  0  0  0  0  0  0  0  0  0  0  0
    7.4818  -14.1517   22.0978 O   0  0  0  0  0  0  0  0  0  0  0  0
    9.1746  -15.5533   21.4635 N   0  0  0  0  0  0  0  0  0  0  0  0
    9.0816  -16.4495   22.5897 C   0  0  1  0  0  0  0  0  0  0  0  0
   10.1594  -17.4705   22.5054 C   0  0  0  0  0  0  0  0  0  0  0  0
   10.2120  -18.5381   23.5229 C   0  0  0  0  0  0  0  0  0  0  0  0
   11.2734  -19.5234   23.2964 C   0  0  0  0  0  0  0  0  0  0  0  0
   11.3035  -20.6219   23.8990 O   0  0  0  0  0  0  0  0  0  0  0  0
    9.2395  -15.7054   23.8973 C   0  0  0  0  0  0  0  0  0  0  0  0
   10.3386  -15.1002   24.0743 O   0  0  0  0  0  0  0  0  0  0  0  0
   12.3223  -19.2848   22.3885 O   0  0  0  0  0  0  0  0  0  0  0  0
    8.0688  -11.7334   25.7039 C   0  0  0  0  0  0  0  0  0  0  0  0
    7.1016  -12.8813   25.7367 C   0  0  2  0  0  0  0  0  0  0  0  0
    5.7934  -12.3140   26.3223 C   0  0  0  0  0  0  0  0  0  0  0  0
    7.4956  -14.0032   26.6114 C   0  0  0  0  0  0  0  0  0  0  0  0
    8.4975  -14.9799   26.1683 C   0  0  2  0  0  0  0  0  0  0  0  0
    8.2787  -15.6386   24.9092 N   0  0  0  0  0  0  0  0  0  0  0  0
    8.9413  -15.9296   27.2282 C   0  0  0  0  0  0  0  0  0  0  0  0
    9.4256  -15.4309   28.4484 O   0  0  0  0  0  0  0  0  0  0  0  0
    8.9185  -17.1758   27.1206 O   0  0  0  0  0  0  0  0  0  0  0  0
  1  2  1  0
  3  2  1  0
  4  3  1  0
  5  4  1  0
  5  1  1  0
  6  7  2  0
  5  6  1  1
  8  6  1  0
  9  8  1  0
  9 10  1  6
 11 10  1  0
 12 11  1  0
 13 12  2  0
 14  9  1  0
 14 22  1  0
 15 14  2  0
 16 12  1  0
 18 17  1  1
 19 18  1  0
 20 18  1  0
 21 20  1  1
 21 22  1  0
 21 23  1  0
 23 24  1  0
 25 23  2  0
M  END
$$$$
