PEL.pdb
     RDKit          3D

 25 25  0  0  1  0  0  0  0  0999 V2000
    9.3768  -14.3967   18.7181 N   0  0  0  0  0  0  0  0  0  0  0  0
    9.2864  -13.6195   17.4871 C   0  0  0  0  0  0  0  0  0  0  0  0
    7.8911  -13.0884   17.4245 C   0  0  0  0  0  0  0  0  0  0  0  0
    7.3268  -13.3966   18.7953 C   0  0  0  0  0  0  0  0  0  0  0  0
    8.5329  -13.7028   19.6603 C   0  0  1  0  0  0  0  0  0  0  0  0
    8.2104  -14.5172   20.8363 C   0  0  0  0  0  0  0  0  0  0  0  0
    7.2728  -14.1912   21.6064 O   0  0  0  0  0  0  0  0  0  0  0  0
    8.9372  -15.6895   21.1406 N   0  0  0  0  0  0  0  0  0  0  0  0
    8.7490  -16.5189   22.3054 C   0  0  1  0  0  0  0  0  0  0  0  0
    9.7930  -17.5773   22.3384 C   0  0  0  0  0  0  0  0  0  0  0  0
    9.8104  -18.5958   21.2705 C   0  0  0  0  0  0  0  0  0  0  0  0
   10.9049  -19.5636   21.3898 C   0  0  0  0  0  0  0  0  0  0  0  0
   10.9753  -20.3769   22.3409 O   0  0  0  0  0  0  0  0  0  0  0  0
    8.8589  -15.7096   23.5786 C   0  0  0  0  0  0  0  0  0  0  0  0
    9.9285  -15.0493   23.7383 O   0  0  0  0  0  0  0  0  0  0  0  0
   11.9417  -19.6281   20.4401 O   0  0  0  0  0  0  0  0  0  0  0  0
    5.6768  -11.9321   27.0133 C   0  0  0  0  0  0  0  0  0  0  0  0
    6.9554  -12.5958   26.5902 C   0  0  2  0  0  0  0  0  0  0  0  0
    7.5059  -11.7475   25.4267 C   0  0  0  0  0  0  0  0  0  0  0  0
    6.8019  -13.9676   26.0672 C   0  0  0  0  0  0  0  0  0  0  0  0
    7.9801  -14.7706   25.7188 C   0  0  2  0  0  0  0  0  0  0  0  0
    7.8842  -15.6388   24.5769 N   0  0  0  0  0  0  0  0  0  0  0  0
    8.6325  -15.4408   26.8795 C   0  0  0  0  0  0  0  0  0  0  0  0
    9.3490  -14.6728   27.8116 O   0  0  0  0  0  0  0  0  0  0  0  0
    8.5955  -16.6713   27.1025 O   0  0  0  0  0  0  0  0  0  0  0  0
  1  2  1  0
  3  2  1  0
  4  3  1  0
  5  4  1  0
  5  1  1  0
  6  7  2  0
  5  6  1  1
  8  6  1  0
  9  8  1  0
  9 10  1  1
 11 10  1  0
 12 11  1  0
 13 12  2  0
 14  9  1  0
 14 22  1  0
 15 14  2  0
 16 12  1  0
 18 17  1  6
 19 18  1  0
 20 18  1  0
 21 20  1  1
 21 22  1  0
 21 23  1  0
 23 24  1  0
 25 23  2  0
M  END
$$$$
