PEL.pdb
     RDKit          3D

 25 25  0  0  1  0  0  0  0  0999 V2000
    9.2659  -14.4934   18.5438 N   0  0  0  0  0  0  0  0  0  0  0  0
    9.1090  -13.7933   17.2739 C   0  0  0  0  0  0  0  0  0  0  0  0
    7.7365  -13.2025   17.2841 C   0  0  0  0  0  0  0  0  0  0  0  0
    7.2722  -13.3956   18.7122 C   0  0  0  0  0  0  0  0  0  0  0  0
    8.5303  -13.7019   19.4997 C   0  0  1  0  0  0  0  0  0  0  0  0
    8.2700  -14.4233   20.7494 C   0  0  0  0  0  0  0  0  0  0  0  0
    7.5647  -13.9096   21.6533 O   0  0  0  0  0  0  0  0  0  0  0  0
    8.7988  -15.7131   20.9778 N   0  0  0  0  0  0  0  0  0  0  0  0
    8.5904  -16.5117   22.1605 C   0  0  1  0  0  0  0  0  0  0  0  0
    9.4760  -17.7057   22.1188 C   0  0  0  0  0  0  0  0  0  0  0  0
    9.3795  -18.7036   23.2018 C   0  0  0  0  0  0  0  0  0  0  0  0
   10.2846  -19.8453   23.0404 C   0  0  0  0  0  0  0  0  0  0  0  0
   11.3162  -19.9826   23.7389 O   0  0  0  0  0  0  0  0  0  0  0  0
    8.9136  -15.7297   23.4143 C   0  0  0  0  0  0  0  0  0  0  0  0
    9.9562  -15.0105   23.3793 O   0  0  0  0  0  0  0  0  0  0  0  0
   10.0439  -20.8504   22.0849 O   0  0  0  0  0  0  0  0  0  0  0  0
    5.9806  -12.1043   27.1954 C   0  0  0  0  0  0  0  0  0  0  0  0
    7.2834  -12.7864   26.8922 C   0  0  2  0  0  0  0  0  0  0  0  0
    8.2386  -11.6764   26.4109 C   0  0  0  0  0  0  0  0  0  0  0  0
    7.2261  -13.7843   25.8060 C   0  0  0  0  0  0  0  0  0  0  0  0
    8.3039  -14.7659   25.6356 C   0  0  2  0  0  0  0  0  0  0  0  0
    8.1601  -15.7429   24.5907 N   0  0  0  0  0  0  0  0  0  0  0  0
    8.7896  -15.3728   26.9076 C   0  0  0  0  0  0  0  0  0  0  0  0
    9.6368  -14.6345   27.7497 O   0  0  0  0  0  0  0  0  0  0  0  0
    8.4973  -16.5231   27.3032 O   0  0  0  0  0  0  0  0  0  0  0  0
  1  2  1  0
  3  2  1  0
  4  3  1  0
  5  4  1  0
  5  1  1  0
  6  7  2  0
  5  6  1  1
  8  6  1  0
  9  8  1  0
  9 10  1  6
 11 10  1  0
 12 11  1  0
 13 12  2  0
 14  9  1  0
 14 22  1  0
 15 14  2  0
 16 12  1  0
 18 17  1  6
 19 18  1  0
 20 18  1  0
 21 20  1  1
 21 22  1  0
 21 23  1  0
 23 24  1  0
 25 23  2  0
M  END
$$$$
