PEL.pdb
     RDKit          3D

 25 25  0  0  1  0  0  0  0  0999 V2000
    9.0899  -14.6151   19.0171 N   0  0  0  0  0  0  0  0  0  0  0  0
    8.8085  -13.9182   17.7670 C   0  0  0  0  0  0  0  0  0  0  0  0
    7.5117  -13.2028   17.9651 C   0  0  0  0  0  0  0  0  0  0  0  0
    7.2507  -13.3355   19.4506 C   0  0  0  0  0  0  0  0  0  0  0  0
    8.5797  -13.7480   20.0509 C   0  0  1  0  0  0  0  0  0  0  0  0
    8.4454  -14.4277   21.3432 C   0  0  0  0  0  0  0  0  0  0  0  0
    7.8222  -13.8883   22.2915 O   0  0  0  0  0  0  0  0  0  0  0  0
    9.0071  -15.7046   21.5642 N   0  0  0  0  0  0  0  0  0  0  0  0
    8.8491  -16.4996   22.7572 C   0  0  1  0  0  0  0  0  0  0  0  0
    9.7634  -17.6709   22.7012 C   0  0  0  0  0  0  0  0  0  0  0  0
    9.7132  -18.6679   23.7882 C   0  0  0  0  0  0  0  0  0  0  0  0
   10.6266  -19.7988   23.6002 C   0  0  0  0  0  0  0  0  0  0  0  0
   10.9299  -20.2293   22.4629 O   0  0  0  0  0  0  0  0  0  0  0  0
    9.1836  -15.7004   23.9972 C   0  0  0  0  0  0  0  0  0  0  0  0
   10.3435  -15.1925   24.0468 O   0  0  0  0  0  0  0  0  0  0  0  0
   11.2110  -20.4668   24.6926 O   0  0  0  0  0  0  0  0  0  0  0  0
    7.8267  -11.4662   25.5909 C   0  0  0  0  0  0  0  0  0  0  0  0
    7.1287  -12.7836   25.7689 C   0  0  2  0  0  0  0  0  0  0  0  0
    5.7427  -12.4506   26.3559 C   0  0  0  0  0  0  0  0  0  0  0  0
    7.7732  -13.7060   26.7243 C   0  0  0  0  0  0  0  0  0  0  0  0
    8.6936  -14.7473   26.2524 C   0  0  2  0  0  0  0  0  0  0  0  0
    8.3223  -15.4855   25.0759 N   0  0  0  0  0  0  0  0  0  0  0  0
    9.2215  -15.6346   27.3276 C   0  0  0  0  0  0  0  0  0  0  0  0
    9.8694  -15.0696   28.4380 O   0  0  0  0  0  0  0  0  0  0  0  0
    9.1341  -16.8826   27.3259 O   0  0  0  0  0  0  0  0  0  0  0  0
  1  2  1  0
  3  2  1  0
  4  3  1  0
  5  4  1  0
  5  1  1  0
  6  7  2  0
  5  6  1  1
  8  6  1  0
  9  8  1  0
  9 10  1  6
 11 10  1  0
 12 11  1  0
 13 12  2  0
 14  9  1  0
 14 22  1  0
 15 14  2  0
 16 12  1  0
 18 17  1  1
 19 18  1  0
 20 18  1  0
 21 20  1  1
 21 22  1  0
 21 23  1  0
 23 24  1  0
 25 23  2  0
M  END
$$$$
