PEL.pdb
     RDKit          3D

 25 25  0  0  1  0  0  0  0  0999 V2000
    8.5677  -15.1573   18.4749 N   0  0  0  0  0  0  0  0  0  0  0  0
    8.5820  -14.5992   17.1274 C   0  0  0  0  0  0  0  0  0  0  0  0
    7.7774  -13.3413   17.1827 C   0  0  0  0  0  0  0  0  0  0  0  0
    7.5571  -13.1199   18.6642 C   0  0  0  0  0  0  0  0  0  0  0  0
    8.5697  -14.0127   19.3530 C   0  0  1  0  0  0  0  0  0  0  0  0
    8.1979  -14.3557   20.7293 C   0  0  0  0  0  0  0  0  0  0  0  0
    8.1492  -13.4722   21.6212 O   0  0  0  0  0  0  0  0  0  0  0  0
    7.8823  -15.6826   21.0967 N   0  0  0  0  0  0  0  0  0  0  0  0
    7.5021  -16.1236   22.4162 C   0  0  1  0  0  0  0  0  0  0  0  0
    7.3893  -17.6063   22.4336 C   0  0  0  0  0  0  0  0  0  0  0  0
    6.8894  -18.2694   23.6536 C   0  0  0  0  0  0  0  0  0  0  0  0
    6.8592  -19.7323   23.5650 C   0  0  0  0  0  0  0  0  0  0  0  0
    7.8502  -20.3980   23.1833 O   0  0  0  0  0  0  0  0  0  0  0  0
    8.5313  -15.7178   23.4478 C   0  0  0  0  0  0  0  0  0  0  0  0
    9.5594  -15.1168   23.0150 O   0  0  0  0  0  0  0  0  0  0  0  0
    5.7087  -20.4699   23.9018 O   0  0  0  0  0  0  0  0  0  0  0  0
    7.0352  -13.1318   27.9461 C   0  0  0  0  0  0  0  0  0  0  0  0
    7.4613  -12.6745   26.5809 C   0  0  2  0  0  0  0  0  0  0  0  0
    6.3498  -11.7272   26.0874 C   0  0  0  0  0  0  0  0  0  0  0  0
    7.5720  -13.7458   25.5715 C   0  0  0  0  0  0  0  0  0  0  0  0
    8.4350  -14.9091   25.8082 C   0  0  2  0  0  0  0  0  0  0  0  0
    8.4344  -15.9546   24.8212 N   0  0  0  0  0  0  0  0  0  0  0  0
    8.3726  -15.4487   27.1964 C   0  0  0  0  0  0  0  0  0  0  0  0
    7.4783  -16.4888   27.4973 O   0  0  0  0  0  0  0  0  0  0  0  0
    9.0726  -15.0405   28.1496 O   0  0  0  0  0  0  0  0  0  0  0  0
  1  2  1  0
  3  2  1  0
  4  3  1  0
  5  4  1  0
  5  1  1  0
  6  7  2  0
  5  6  1  1
  8  6  1  0
  9  8  1  0
  9 10  1  6
 11 10  1  0
 12 11  1  0
 13 12  2  0
 14  9  1  0
 14 22  1  0
 15 14  2  0
 16 12  1  0
 18 17  1  1
 19 18  1  0
 20 18  1  0
 21 20  1  6
 21 22  1  0
 21 23  1  0
 23 24  1  0
 25 23  2  0
M  END
$$$$
