PEL.pdb
     RDKit          3D

 25 25  0  0  1  0  0  0  0  0999 V2000
    9.1381  -14.2159   18.5918 N   0  0  0  0  0  0  0  0  0  0  0  0
    8.7673  -13.4933   17.3802 C   0  0  0  0  0  0  0  0  0  0  0  0
    7.3466  -13.0670   17.5608 C   0  0  0  0  0  0  0  0  0  0  0  0
    7.0641  -13.3644   19.0183 C   0  0  0  0  0  0  0  0  0  0  0  0
    8.4263  -13.5506   19.6557 C   0  0  1  0  0  0  0  0  0  0  0  0
    8.3852  -14.3421   20.8894 C   0  0  0  0  0  0  0  0  0  0  0  0
    7.6807  -13.9776   21.8638 O   0  0  0  0  0  0  0  0  0  0  0  0
    9.1301  -15.5347   21.0230 N   0  0  0  0  0  0  0  0  0  0  0  0
    9.1779  -16.3711   22.1970 C   0  0  1  0  0  0  0  0  0  0  0  0
   10.2416  -17.3976   22.0354 C   0  0  0  0  0  0  0  0  0  0  0  0
   10.3740  -18.4547   23.0567 C   0  0  0  0  0  0  0  0  0  0  0  0
   11.4713  -19.3928   22.8025 C   0  0  0  0  0  0  0  0  0  0  0  0
   11.3207  -20.4213   22.1023 O   0  0  0  0  0  0  0  0  0  0  0  0
    9.4903  -15.5607   23.4354 C   0  0  0  0  0  0  0  0  0  0  0  0
    9.9296  -14.3871   23.2474 O   0  0  0  0  0  0  0  0  0  0  0  0
   12.7572  -19.1890   23.3372 O   0  0  0  0  0  0  0  0  0  0  0  0
    5.6622  -13.0289   26.3287 C   0  0  0  0  0  0  0  0  0  0  0  0
    7.0489  -13.5300   26.6120 C   0  0  2  0  0  0  0  0  0  0  0  0
    7.9399  -12.2756   26.7052 C   0  0  0  0  0  0  0  0  0  0  0  0
    7.6336  -14.3766   25.5535 C   0  0  0  0  0  0  0  0  0  0  0  0
    8.8383  -15.1734   25.8144 C   0  0  2  0  0  0  0  0  0  0  0  0
    9.3344  -16.0041   24.7510 N   0  0  0  0  0  0  0  0  0  0  0  0
    8.8339  -15.8836   27.1251 C   0  0  0  0  0  0  0  0  0  0  0  0
    8.4225  -17.2248   27.1864 O   0  0  0  0  0  0  0  0  0  0  0  0
    9.1771  -15.3697   28.2129 O   0  0  0  0  0  0  0  0  0  0  0  0
  1  2  1  0
  3  2  1  0
  4  3  1  0
  5  4  1  0
  5  1  1  0
  6  7  2  0
  5  6  1  1
  8  6  1  0
  9  8  1  0
  9 10  1  6
 11 10  1  0
 12 11  1  0
 13 12  2  0
 14  9  1  0
 14 22  1  0
 15 14  2  0
 16 12  1  0
 18 17  1  6
 19 18  1  0
 20 18  1  0
 21 20  1  6
 21 22  1  0
 21 23  1  0
 23 24  1  0
 25 23  2  0
M  END
$$$$
