PEL.pdb
     RDKit          3D

 25 25  0  0  1  0  0  0  0  0999 V2000
    8.9052  -14.5674   18.7893 N   0  0  0  0  0  0  0  0  0  0  0  0
    8.9117  -13.7707   17.5675 C   0  0  0  0  0  0  0  0  0  0  0  0
    7.8633  -12.7205   17.7426 C   0  0  0  0  0  0  0  0  0  0  0  0
    7.4845  -12.8303   19.2045 C   0  0  0  0  0  0  0  0  0  0  0  0
    8.6011  -13.6310   19.8438 C   0  0  1  0  0  0  0  0  0  0  0  0
    8.1993  -14.2932   21.0889 C   0  0  0  0  0  0  0  0  0  0  0  0
    7.7425  -13.6283   22.0521 O   0  0  0  0  0  0  0  0  0  0  0  0
    8.3100  -15.6925   21.2464 N   0  0  0  0  0  0  0  0  0  0  0  0
    7.8796  -16.4474   22.3974 C   0  0  1  0  0  0  0  0  0  0  0  0
    8.3134  -17.8628   22.2567 C   0  0  0  0  0  0  0  0  0  0  0  0
    7.9485  -18.8290   23.3109 C   0  0  0  0  0  0  0  0  0  0  0  0
    8.4534  -20.1848   23.0751 C   0  0  0  0  0  0  0  0  0  0  0  0
    7.8468  -21.0054   22.3475 O   0  0  0  0  0  0  0  0  0  0  0  0
    8.4804  -15.8956   23.6712 C   0  0  0  0  0  0  0  0  0  0  0  0
    9.7231  -15.6486   23.6497 O   0  0  0  0  0  0  0  0  0  0  0  0
    9.6502  -20.6402   23.6596 O   0  0  0  0  0  0  0  0  0  0  0  0
    7.5256  -11.9256   25.5844 C   0  0  0  0  0  0  0  0  0  0  0  0
    6.7592  -13.0956   26.1306 C   0  0  2  0  0  0  0  0  0  0  0  0
    5.8165  -12.5180   27.2048 C   0  0  0  0  0  0  0  0  0  0  0  0
    7.5816  -14.1181   26.8067 C   0  0  0  0  0  0  0  0  0  0  0  0
    8.3792  -15.0715   26.0261 C   0  0  2  0  0  0  0  0  0  0  0  0
    7.7778  -15.6435   24.8521 N   0  0  0  0  0  0  0  0  0  0  0  0
    9.0917  -16.0929   26.8453 C   0  0  0  0  0  0  0  0  0  0  0  0
    9.9165  -15.6808   27.9045 O   0  0  0  0  0  0  0  0  0  0  0  0
    9.0155  -17.3284   26.6643 O   0  0  0  0  0  0  0  0  0  0  0  0
  1  2  1  0
  3  2  1  0
  4  3  1  0
  5  4  1  0
  5  1  1  0
  6  7  2  0
  5  6  1  1
  8  6  1  0
  9  8  1  0
  9 10  1  6
 11 10  1  0
 12 11  1  0
 13 12  2  0
 14  9  1  0
 14 22  1  0
 15 14  2  0
 16 12  1  0
 18 17  1  1
 19 18  1  0
 20 18  1  0
 21 20  1  1
 21 22  1  0
 21 23  1  0
 23 24  1  0
 25 23  2  0
M  END
$$$$
