PEL.pdb
     RDKit          3D

 25 25  0  0  1  0  0  0  0  0999 V2000
    9.1998  -14.5145   18.5135 N   0  0  0  0  0  0  0  0  0  0  0  0
    8.9646  -13.8298   17.2472 C   0  0  0  0  0  0  0  0  0  0  0  0
    7.5834  -13.2647   17.3228 C   0  0  0  0  0  0  0  0  0  0  0  0
    7.1967  -13.4525   18.7746 C   0  0  0  0  0  0  0  0  0  0  0  0
    8.4991  -13.7276   19.4989 C   0  0  1  0  0  0  0  0  0  0  0  0
    8.3171  -14.4416   20.7667 C   0  0  0  0  0  0  0  0  0  0  0  0
    7.5898  -13.9655   21.6739 O   0  0  0  0  0  0  0  0  0  0  0  0
    8.9479  -15.6818   21.0092 N   0  0  0  0  0  0  0  0  0  0  0  0
    8.7391  -16.5219   22.1628 C   0  0  1  0  0  0  0  0  0  0  0  0
    9.7040  -17.6532   22.1376 C   0  0  0  0  0  0  0  0  0  0  0  0
    9.6904  -18.6273   23.2462 C   0  0  0  0  0  0  0  0  0  0  0  0
   10.7172  -19.6676   23.1359 C   0  0  0  0  0  0  0  0  0  0  0  0
   11.7785  -19.6305   23.8016 O   0  0  0  0  0  0  0  0  0  0  0  0
    8.9504  -15.7518   23.4476 C   0  0  0  0  0  0  0  0  0  0  0  0
    9.9927  -15.0342   23.5119 O   0  0  0  0  0  0  0  0  0  0  0  0
   10.5664  -20.7665   22.2694 O   0  0  0  0  0  0  0  0  0  0  0  0
    6.0049  -12.0672   27.1271 C   0  0  0  0  0  0  0  0  0  0  0  0
    7.2907  -12.7882   26.8423 C   0  0  2  0  0  0  0  0  0  0  0  0
    8.2895  -11.7058   26.3874 C   0  0  0  0  0  0  0  0  0  0  0  0
    7.2218  -13.7758   25.7473 C   0  0  0  0  0  0  0  0  0  0  0  0
    8.2045  -14.8624   25.6582 C   0  0  2  0  0  0  0  0  0  0  0  0
    8.0953  -15.7743   24.5521 N   0  0  0  0  0  0  0  0  0  0  0  0
    8.4568  -15.5703   26.9457 C   0  0  0  0  0  0  0  0  0  0  0  0
    9.2965  -14.9845   27.9068 O   0  0  0  0  0  0  0  0  0  0  0  0
    7.9679  -16.6797   27.2543 O   0  0  0  0  0  0  0  0  0  0  0  0
  1  2  1  0
  3  2  1  0
  4  3  1  0
  5  4  1  0
  5  1  1  0
  6  7  2  0
  5  6  1  1
  8  6  1  0
  9  8  1  0
  9 10  1  6
 11 10  1  0
 12 11  1  0
 13 12  2  0
 14  9  1  0
 14 22  1  0
 15 14  2  0
 16 12  1  0
 18 17  1  6
 19 18  1  0
 20 18  1  0
 21 20  1  1
 21 22  1  0
 21 23  1  0
 23 24  1  0
 25 23  2  0
M  END
$$$$
