NDR.pdb
     RDKit          3D

 28 27  0  0  1  0  0  0  0  0999 V2000
   26.9031  -17.4771  -18.0985 N   0  0  0  0  0  0  0  0  0  0  0  0
   25.6275  -16.8954  -18.2611 C   0  0  0  0  0  0  0  0  0  0  0  0
   25.4507  -16.0555  -19.1656 O   0  0  0  0  0  0  0  0  0  0  0  0
   24.5270  -17.2778  -17.3742 C   0  0  0  0  0  0  0  0  0  0  0  0
   24.9172  -18.3298  -16.3451 C   0  0  2  0  0  0  0  0  0  0  0  0
   26.1183  -19.0007  -16.7564 N   0  0  0  0  0  0  0  0  0  0  0  0
   23.7555  -19.2549  -16.2649 C   0  0  0  0  0  0  0  0  0  0  0  0
   22.6647  -18.8123  -15.8355 O   0  0  0  0  0  0  0  0  0  0  0  0
   23.8197  -20.6309  -16.6558 N   0  0  0  0  0  0  0  0  0  0  0  0
   22.7383  -21.5537  -16.4500 C   0  0  1  0  0  0  0  0  0  0  0  0
   22.8974  -22.8212  -17.2529 C   0  0  0  0  0  0  0  0  0  0  0  0
   21.6884  -23.6622  -17.1565 C   0  0  0  0  0  0  0  0  0  0  0  0
   20.6446  -23.3223  -16.5489 O   0  0  0  0  0  0  0  0  0  0  0  0
   22.4288  -21.7830  -15.0260 C   0  0  0  0  0  0  0  0  0  0  0  0
   23.3459  -22.0071  -14.1886 O   0  0  0  0  0  0  0  0  0  0  0  0
   21.6426  -24.9226  -17.7572 O   0  0  0  0  0  0  0  0  0  0  0  0
   18.8242  -22.1720   -8.3269 N   0  0  0  0  0  0  0  0  0  0  0  0
   19.9985  -21.5579   -7.8024 C   0  0  0  0  0  0  0  0  0  0  0  0
   20.3958  -21.8750   -6.6040 N   0  0  0  0  0  0  0  0  0  0  0  0
   20.7593  -20.6145   -8.5230 N   0  0  0  0  0  0  0  0  0  0  0  0
   20.3994  -20.1836   -9.8384 C   0  0  0  0  0  0  0  0  0  0  0  0
   20.5290  -21.3534  -10.8056 C   0  0  0  0  0  0  0  0  0  0  0  0
   20.8056  -20.8929  -12.2061 C   0  0  0  0  0  0  0  0  0  0  0  0
   20.8037  -22.0825  -13.1197 C   0  0  2  0  0  0  0  0  0  0  0  0
   21.0997  -21.7711  -14.5004 N   0  0  0  0  0  0  0  0  0  0  0  0
   19.5373  -22.8406  -12.9815 C   0  0  0  0  0  0  0  0  0  0  0  0
   18.7006  -22.8105  -13.9074 O   0  0  0  0  0  0  0  0  0  0  0  0
   19.2850  -23.5715  -11.8420 O   0  0  0  0  0  0  0  0  0  0  0  0
  1  2  1  0
  2  3  2  0
  4  2  1  0
  5  4  1  0
  5  6  1  6
  7  8  2  0
  7  5  1  0
  9  7  1  0
 10 14  1  0
 10  9  1  0
 10 11  1  1
 12 11  1  0
 12 13  2  0
 14 15  2  0
 16 12  1  0
 18 17  1  0
 18 19  2  0
 20 18  1  0
 21 20  1  0
 22 21  1  0
 23 22  1  0
 24 23  1  1
 25 24  1  0
 25 14  1  0
 26 24  1  0
 27 26  2  0
 28 26  1  0
M  END
$$$$
