NDR.pdb
     RDKit          3D

 28 27  0  0  1  0  0  0  0  0999 V2000
   13.7702   -7.8492  -16.2050 N   0  0  0  0  0  0  0  0  0  0  0  0
   14.7560   -8.7483  -15.7449 C   0  0  0  0  0  0  0  0  0  0  0  0
   14.5221   -9.9730  -15.7648 O   0  0  0  0  0  0  0  0  0  0  0  0
   16.0382   -8.2429  -15.2504 C   0  0  0  0  0  0  0  0  0  0  0  0
   16.1210   -6.7228  -15.2281 C   0  0  2  0  0  0  0  0  0  0  0  0
   15.1914   -6.1641  -16.1691 N   0  0  0  0  0  0  0  0  0  0  0  0
   17.5315   -6.3983  -15.5707 C   0  0  0  0  0  0  0  0  0  0  0  0
   17.7910   -6.0016  -16.7306 O   0  0  0  0  0  0  0  0  0  0  0  0
   18.6123   -6.5155  -14.6388 N   0  0  0  0  0  0  0  0  0  0  0  0
   19.9651   -6.1558  -14.9609 C   0  0  1  0  0  0  0  0  0  0  0  0
   20.6568   -5.4323  -13.8319 C   0  0  0  0  0  0  0  0  0  0  0  0
   22.0314   -5.0527  -14.2120 C   0  0  0  0  0  0  0  0  0  0  0  0
   22.3197   -4.4113  -15.2512 O   0  0  0  0  0  0  0  0  0  0  0  0
   20.7481   -7.2718  -15.5243 C   0  0  0  0  0  0  0  0  0  0  0  0
   20.8421   -8.3733  -14.9157 O   0  0  0  0  0  0  0  0  0  0  0  0
   23.1191   -5.4000  -13.4072 O   0  0  0  0  0  0  0  0  0  0  0  0
   24.9820   -9.6891  -23.2977 N   0  0  0  0  0  0  0  0  0  0  0  0
   25.0252  -10.6731  -22.2676 C   0  0  0  0  0  0  0  0  0  0  0  0
   25.5139  -11.8492  -22.5375 N   0  0  0  0  0  0  0  0  0  0  0  0
   24.5606  -10.4351  -20.9578 N   0  0  0  0  0  0  0  0  0  0  0  0
   23.8711   -9.2357  -20.5954 C   0  0  0  0  0  0  0  0  0  0  0  0
   23.4648   -9.3106  -19.1292 C   0  0  0  0  0  0  0  0  0  0  0  0
   22.7260   -8.0811  -18.6902 C   0  0  0  0  0  0  0  0  0  0  0  0
   22.2705   -8.2661  -17.2732 C   0  0  2  0  0  0  0  0  0  0  0  0
   21.4442   -7.1913  -16.7701 N   0  0  0  0  0  0  0  0  0  0  0  0
   23.4280   -8.5367  -16.3874 C   0  0  0  0  0  0  0  0  0  0  0  0
   24.0999   -7.5809  -15.9475 O   0  0  0  0  0  0  0  0  0  0  0  0
   23.7603   -9.8304  -16.0527 O   0  0  0  0  0  0  0  0  0  0  0  0
  1  2  1  0
  2  3  2  0
  4  2  1  0
  5  4  1  0
  5  6  1  6
  7  8  2  0
  7  5  1  0
  9  7  1  0
 10 14  1  0
 10  9  1  0
 10 11  1  1
 12 11  1  0
 12 13  2  0
 14 15  2  0
 16 12  1  0
 18 17  1  0
 18 19  2  0
 20 18  1  0
 21 20  1  0
 22 21  1  0
 23 22  1  0
 24 23  1  6
 25 24  1  0
 25 14  1  0
 26 24  1  0
 27 26  2  0
 28 26  1  0
M  END
$$$$
