NDR.pdb
     RDKit          3D

 28 27  0  0  1  0  0  0  0  0999 V2000
   25.9721  -24.1486  -15.2240 N   0  0  0  0  0  0  0  0  0  0  0  0
   24.9067  -24.2576  -16.1432 C   0  0  0  0  0  0  0  0  0  0  0  0
   24.9997  -25.0604  -17.0927 O   0  0  0  0  0  0  0  0  0  0  0  0
   23.7072  -23.4341  -15.9787 C   0  0  0  0  0  0  0  0  0  0  0  0
   23.8045  -22.4479  -14.8229 C   0  0  2  0  0  0  0  0  0  0  0  0
   24.1684  -23.1360  -13.6164 N   0  0  0  0  0  0  0  0  0  0  0  0
   22.4611  -21.8168  -14.7271 C   0  0  0  0  0  0  0  0  0  0  0  0
   21.9764  -21.2794  -15.7501 O   0  0  0  0  0  0  0  0  0  0  0  0
   21.6897  -21.7927  -13.5210 N   0  0  0  0  0  0  0  0  0  0  0  0
   20.4011  -21.1646  -13.4292 C   0  0  1  0  0  0  0  0  0  0  0  0
   19.6247  -21.6099  -12.2146 C   0  0  0  0  0  0  0  0  0  0  0  0
   19.1373  -22.9934  -12.3778 C   0  0  0  0  0  0  0  0  0  0  0  0
   18.9433  -23.5418  -13.4896 O   0  0  0  0  0  0  0  0  0  0  0  0
   20.4511  -19.7005  -13.6031 C   0  0  0  0  0  0  0  0  0  0  0  0
   21.1675  -18.9803  -12.8544 O   0  0  0  0  0  0  0  0  0  0  0  0
   18.8574  -23.7904  -11.2652 O   0  0  0  0  0  0  0  0  0  0  0  0
   23.3427  -16.0398  -19.9836 N   0  0  0  0  0  0  0  0  0  0  0  0
   22.5759  -17.1917  -19.6426 C   0  0  0  0  0  0  0  0  0  0  0  0
   22.3472  -18.0912  -20.5554 N   0  0  0  0  0  0  0  0  0  0  0  0
   22.0467  -17.4085  -18.3537 N   0  0  0  0  0  0  0  0  0  0  0  0
   22.2529  -16.4907  -17.2764 C   0  0  0  0  0  0  0  0  0  0  0  0
   21.6679  -17.0748  -15.9970 C   0  0  0  0  0  0  0  0  0  0  0  0
   20.1698  -16.9999  -15.9820 C   0  0  0  0  0  0  0  0  0  0  0  0
   19.6667  -17.5608  -14.6851 C   0  0  2  0  0  0  0  0  0  0  0  0
   19.7086  -19.0040  -14.6064 N   0  0  0  0  0  0  0  0  0  0  0  0
   18.3179  -17.0278  -14.3780 C   0  0  0  0  0  0  0  0  0  0  0  0
   18.1334  -15.7931  -14.3716 O   0  0  0  0  0  0  0  0  0  0  0  0
   17.2771  -17.8861  -14.1018 O   0  0  0  0  0  0  0  0  0  0  0  0
  1  2  1  0
  2  3  2  0
  4  2  1  0
  5  4  1  0
  5  6  1  1
  7  8  2  0
  7  5  1  0
  9  7  1  0
 10 14  1  0
 10  9  1  0
 10 11  1  1
 12 11  1  0
 12 13  2  0
 14 15  2  0
 16 12  1  0
 18 17  1  0
 18 19  2  0
 20 18  1  0
 21 20  1  0
 22 21  1  0
 23 22  1  0
 24 23  1  6
 25 24  1  0
 25 14  1  0
 26 24  1  0
 27 26  2  0
 28 26  1  0
M  END
$$$$
