NDR.pdb
     RDKit          3D

 28 27  0  0  1  0  0  0  0  0999 V2000
   27.2884  -18.5448  -20.5850 N   0  0  0  0  0  0  0  0  0  0  0  0
   26.3070  -19.4039  -21.1243 C   0  0  0  0  0  0  0  0  0  0  0  0
   26.2230  -19.5338  -22.3616 O   0  0  0  0  0  0  0  0  0  0  0  0
   25.3997  -20.1325  -20.2355 C   0  0  0  0  0  0  0  0  0  0  0  0
   25.6032  -19.8048  -18.7627 C   0  0  2  0  0  0  0  0  0  0  0  0
   26.9846  -19.9688  -18.4070 N   0  0  0  0  0  0  0  0  0  0  0  0
   24.7168  -20.7422  -18.0226 C   0  0  0  0  0  0  0  0  0  0  0  0
   23.5092  -20.8106  -18.3501 O   0  0  0  0  0  0  0  0  0  0  0  0
   25.1748  -21.5746  -16.9513 N   0  0  0  0  0  0  0  0  0  0  0  0
   24.3026  -22.4354  -16.2020 C   0  0  1  0  0  0  0  0  0  0  0  0
   25.0037  -23.6717  -15.6955 C   0  0  0  0  0  0  0  0  0  0  0  0
   24.0526  -24.5816  -15.0279 C   0  0  0  0  0  0  0  0  0  0  0  0
   22.8225  -24.3566  -14.9237 O   0  0  0  0  0  0  0  0  0  0  0  0
   23.5249  -21.7240  -15.1699 C   0  0  0  0  0  0  0  0  0  0  0  0
   24.0510  -20.8156  -14.4694 O   0  0  0  0  0  0  0  0  0  0  0  0
   24.4876  -25.7806  -14.4582 O   0  0  0  0  0  0  0  0  0  0  0  0
   27.2587  -20.6028  -11.5196 N   0  0  0  0  0  0  0  0  0  0  0  0
   26.2602  -20.8418  -10.5310 C   0  0  0  0  0  0  0  0  0  0  0  0
   26.4928  -20.4885   -9.2999 N   0  0  0  0  0  0  0  0  0  0  0  0
   25.0208  -21.4480  -10.8219 N   0  0  0  0  0  0  0  0  0  0  0  0
   24.5536  -21.6327  -12.1609 C   0  0  0  0  0  0  0  0  0  0  0  0
   23.3278  -20.7585  -12.3927 C   0  0  0  0  0  0  0  0  0  0  0  0
   22.0670  -21.5688  -12.4565 C   0  0  0  0  0  0  0  0  0  0  0  0
   21.4331  -21.3789  -13.8025 C   0  0  2  0  0  0  0  0  0  0  0  0
   22.1514  -22.0043  -14.8905 N   0  0  0  0  0  0  0  0  0  0  0  0
   21.1810  -19.9407  -14.0588 C   0  0  0  0  0  0  0  0  0  0  0  0
   21.6490  -19.4101  -15.0873 O   0  0  0  0  0  0  0  0  0  0  0  0
   20.4377  -19.1957  -13.1707 O   0  0  0  0  0  0  0  0  0  0  0  0
  1  2  1  0
  2  3  2  0
  4  2  1  0
  5  4  1  0
  5  6  1  1
  7  8  2  0
  7  5  1  0
  9  7  1  0
 10 14  1  0
 10  9  1  0
 10 11  1  1
 12 11  1  0
 12 13  2  0
 14 15  2  0
 16 12  1  0
 18 17  1  0
 18 19  2  0
 20 18  1  0
 21 20  1  0
 22 21  1  0
 23 22  1  0
 24 23  1  1
 25 24  1  0
 25 14  1  0
 26 24  1  0
 27 26  2  0
 28 26  1  0
M  END
$$$$
