NDR.pdb
     RDKit          3D

 28 27  0  0  1  0  0  0  0  0999 V2000
   18.1216  -25.8611   -4.2928 N   0  0  0  0  0  0  0  0  0  0  0  0
   17.0935  -26.3237   -5.1418 C   0  0  0  0  0  0  0  0  0  0  0  0
   16.1704  -27.0121   -4.6634 O   0  0  0  0  0  0  0  0  0  0  0  0
   17.1157  -25.9959   -6.5687 C   0  0  0  0  0  0  0  0  0  0  0  0
   18.3241  -25.1660   -6.9799 C   0  0  2  0  0  0  0  0  0  0  0  0
   18.2677  -23.8718   -6.3604 N   0  0  0  0  0  0  0  0  0  0  0  0
   18.2605  -25.0825   -8.4634 C   0  0  0  0  0  0  0  0  0  0  0  0
   18.4421  -26.1272   -9.1313 O   0  0  0  0  0  0  0  0  0  0  0  0
   18.0006  -23.8649   -9.1705 N   0  0  0  0  0  0  0  0  0  0  0  0
   18.0153  -23.7745  -10.6040 C   0  0  1  0  0  0  0  0  0  0  0  0
   16.7630  -24.3337  -11.2328 C   0  0  0  0  0  0  0  0  0  0  0  0
   16.7421  -24.0769  -12.6860 C   0  0  0  0  0  0  0  0  0  0  0  0
   17.6697  -24.3973  -13.4679 O   0  0  0  0  0  0  0  0  0  0  0  0
   18.3877  -22.4365  -11.1013 C   0  0  0  0  0  0  0  0  0  0  0  0
   17.6245  -21.4452  -10.9362 O   0  0  0  0  0  0  0  0  0  0  0  0
   15.6517  -23.4424  -13.2859 O   0  0  0  0  0  0  0  0  0  0  0  0
   23.6304  -23.9294  -15.9422 N   0  0  0  0  0  0  0  0  0  0  0  0
   24.3884  -23.4253  -14.8457 C   0  0  0  0  0  0  0  0  0  0  0  0
   25.3807  -24.1315  -14.3859 N   0  0  0  0  0  0  0  0  0  0  0  0
   24.1152  -22.1880  -14.2271 N   0  0  0  0  0  0  0  0  0  0  0  0
   23.0139  -21.3631  -14.6169 C   0  0  0  0  0  0  0  0  0  0  0  0
   22.1037  -21.1362  -13.4166 C   0  0  0  0  0  0  0  0  0  0  0  0
   20.6539  -21.1682  -13.8001 C   0  0  0  0  0  0  0  0  0  0  0  0
   19.8197  -20.9677  -12.5699 C   0  0  2  0  0  0  0  0  0  0  0  0
   19.6098  -22.1688  -11.7926 N   0  0  0  0  0  0  0  0  0  0  0  0
   18.5419  -20.2990  -12.9130 C   0  0  0  0  0  0  0  0  0  0  0  0
   17.6055  -20.9736  -13.3890 O   0  0  0  0  0  0  0  0  0  0  0  0
   18.3882  -18.9459  -12.7092 O   0  0  0  0  0  0  0  0  0  0  0  0
  1  2  1  0
  2  3  2  0
  4  2  1  0
  5  4  1  0
  5  6  1  1
  7  8  2  0
  7  5  1  0
  9  7  1  0
 10 14  1  0
 10  9  1  0
 10 11  1  1
 12 11  1  0
 12 13  2  0
 14 15  2  0
 16 12  1  0
 18 17  1  0
 18 19  2  0
 20 18  1  0
 21 20  1  0
 22 21  1  0
 23 22  1  0
 24 23  1  6
 25 24  1  0
 25 14  1  0
 26 24  1  0
 27 26  2  0
 28 26  1  0
M  END
$$$$
