NDR.pdb
     RDKit          3D

 28 27  0  0  1  0  0  0  0  0999 V2000
   27.4651   -9.5620  -17.4812 N   0  0  0  0  0  0  0  0  0  0  0  0
   27.7429  -10.0041  -16.1700 C   0  0  0  0  0  0  0  0  0  0  0  0
   28.9025   -9.8994  -15.7235 O   0  0  0  0  0  0  0  0  0  0  0  0
   26.6770  -10.5792  -15.3471 C   0  0  0  0  0  0  0  0  0  0  0  0
   25.3102  -10.5443  -16.0170 C   0  0  2  0  0  0  0  0  0  0  0  0
   25.4604  -10.3934  -17.4370 N   0  0  0  0  0  0  0  0  0  0  0  0
   24.5971   -9.3934  -15.4015 C   0  0  0  0  0  0  0  0  0  0  0  0
   24.2869   -9.4588  -14.1892 O   0  0  0  0  0  0  0  0  0  0  0  0
   24.2463   -8.2092  -16.1260 N   0  0  0  0  0  0  0  0  0  0  0  0
   23.3858   -7.1911  -15.5910 C   0  0  1  0  0  0  0  0  0  0  0  0
   23.9911   -5.8123  -15.6854 C   0  0  0  0  0  0  0  0  0  0  0  0
   23.1371   -4.8139  -15.0131 C   0  0  0  0  0  0  0  0  0  0  0  0
   22.8391   -4.8528  -13.7948 O   0  0  0  0  0  0  0  0  0  0  0  0
   22.0015   -7.2721  -16.0946 C   0  0  0  0  0  0  0  0  0  0  0  0
   21.7596   -7.2906  -17.3330 O   0  0  0  0  0  0  0  0  0  0  0  0
   22.5984   -3.7378  -15.7225 O   0  0  0  0  0  0  0  0  0  0  0  0
   17.0315  -13.6147  -15.7582 N   0  0  0  0  0  0  0  0  0  0  0  0
   16.5965  -12.5512  -14.9151 C   0  0  0  0  0  0  0  0  0  0  0  0
   15.8190  -12.8220  -13.9067 N   0  0  0  0  0  0  0  0  0  0  0  0
   16.9690  -11.2068  -15.1201 N   0  0  0  0  0  0  0  0  0  0  0  0
   17.4065  -10.7181  -16.3910 C   0  0  0  0  0  0  0  0  0  0  0  0
   17.7872   -9.2487  -16.2627 C   0  0  0  0  0  0  0  0  0  0  0  0
   19.1586   -9.0752  -15.6801 C   0  0  0  0  0  0  0  0  0  0  0  0
   19.5298   -7.6229  -15.7314 C   0  0  2  0  0  0  0  0  0  0  0  0
   20.8579   -7.3319  -15.2392 N   0  0  0  0  0  0  0  0  0  0  0  0
   18.4966   -6.7994  -15.0590 C   0  0  0  0  0  0  0  0  0  0  0  0
   18.8122   -6.1090  -14.0680 O   0  0  0  0  0  0  0  0  0  0  0  0
   17.1999   -6.7958  -15.5223 O   0  0  0  0  0  0  0  0  0  0  0  0
  1  2  1  0
  2  3  2  0
  4  2  1  0
  5  4  1  0
  5  6  1  6
  7  8  2  0
  7  5  1  0
  9  7  1  0
 10 14  1  0
 10  9  1  0
 10 11  1  6
 12 11  1  0
 12 13  2  0
 14 15  2  0
 16 12  1  0
 18 17  1  0
 18 19  2  0
 20 18  1  0
 21 20  1  0
 22 21  1  0
 23 22  1  0
 24 23  1  1
 25 24  1  0
 25 14  1  0
 26 24  1  0
 27 26  2  0
 28 26  1  0
M  END
$$$$
