NDR.pdb
     RDKit          3D

 28 27  0  0  1  0  0  0  0  0999 V2000
   21.5806   -4.4970   -8.9994 N   0  0  0  0  0  0  0  0  0  0  0  0
   20.8360   -3.8019   -9.9762 C   0  0  0  0  0  0  0  0  0  0  0  0
   20.8550   -2.5551   -9.9853 O   0  0  0  0  0  0  0  0  0  0  0  0
   20.0510   -4.5420  -10.9662 C   0  0  0  0  0  0  0  0  0  0  0  0
   20.0608   -6.0479  -10.7426 C   0  0  2  0  0  0  0  0  0  0  0  0
   21.3945   -6.5597  -10.8883 N   0  0  0  0  0  0  0  0  0  0  0  0
   19.1303   -6.6052  -11.7603 C   0  0  0  0  0  0  0  0  0  0  0  0
   17.9458   -6.1968  -11.7775 O   0  0  0  0  0  0  0  0  0  0  0  0
   19.5206   -7.5877  -12.7260 N   0  0  0  0  0  0  0  0  0  0  0  0
   18.5979   -8.1853  -13.6505 C   0  0  1  0  0  0  0  0  0  0  0  0
   19.2872   -9.0345  -14.6898 C   0  0  0  0  0  0  0  0  0  0  0  0
   20.2120   -8.2235  -15.5053 C   0  0  0  0  0  0  0  0  0  0  0  0
   19.9143   -7.1124  -16.0067 O   0  0  0  0  0  0  0  0  0  0  0  0
   17.4603   -8.8538  -12.9909 C   0  0  0  0  0  0  0  0  0  0  0  0
   17.5899   -9.3910  -11.8564 O   0  0  0  0  0  0  0  0  0  0  0  0
   21.5102   -8.6662  -15.7701 O   0  0  0  0  0  0  0  0  0  0  0  0
   11.8098   -7.6180   -7.2405 N   0  0  0  0  0  0  0  0  0  0  0  0
   11.3638   -8.7816   -7.9322 C   0  0  0  0  0  0  0  0  0  0  0  0
   10.4118   -9.5004   -7.4108 N   0  0  0  0  0  0  0  0  0  0  0  0
   11.9072   -9.1982   -9.1648 N   0  0  0  0  0  0  0  0  0  0  0  0
   13.0746   -8.5958   -9.7303 C   0  0  0  0  0  0  0  0  0  0  0  0
   13.3120   -9.1653  -11.1231 C   0  0  0  0  0  0  0  0  0  0  0  0
   14.4882   -8.5229  -11.7968 C   0  0  0  0  0  0  0  0  0  0  0  0
   15.0134   -9.4519  -12.8508 C   0  0  2  0  0  0  0  0  0  0  0  0
   16.1581   -8.9434  -13.5734 N   0  0  0  0  0  0  0  0  0  0  0  0
   13.9228   -9.8704  -13.7635 C   0  0  0  0  0  0  0  0  0  0  0  0
   13.8377   -9.3512  -14.8956 O   0  0  0  0  0  0  0  0  0  0  0  0
   13.0110  -10.8231  -13.3670 O   0  0  0  0  0  0  0  0  0  0  0  0
  1  2  1  0
  2  3  2  0
  4  2  1  0
  5  4  1  0
  5  6  1  6
  7  8  2  0
  7  5  1  0
  9  7  1  0
 10 14  1  0
 10  9  1  0
 10 11  1  1
 12 11  1  0
 12 13  2  0
 14 15  2  0
 16 12  1  0
 18 17  1  0
 18 19  2  0
 20 18  1  0
 21 20  1  0
 22 21  1  0
 23 22  1  0
 24 23  1  1
 25 24  1  0
 25 14  1  0
 26 24  1  0
 27 26  2  0
 28 26  1  0
M  END
$$$$
