SLT.pdb
     RDKit          3D

 22 21  0  0  1  0  0  0  0  0999 V2000
    7.2734  -17.1014   21.0806 O   0  0  0  0  0  0  0  0  0  0  0  0
    6.3402  -16.0853   20.9656 C   0  0  0  0  0  0  0  0  0  0  0  0
    6.9962  -14.7243   21.0648 C   0  0  2  0  0  0  0  0  0  0  0  0
    7.7155  -14.4264   19.8403 N   0  0  0  0  0  0  0  0  0  0  0  0
    7.8699  -14.6232   22.2590 C   0  0  0  0  0  0  0  0  0  0  0  0
    9.1006  -14.7042   22.1072 O   0  0  0  0  0  0  0  0  0  0  0  0
    5.8756  -11.9902   26.8119 C   0  0  0  0  0  0  0  0  0  0  0  0
    6.8154  -12.3172   25.6668 C   0  0  1  0  0  0  0  0  0  0  0  0
    7.9937  -11.3748   25.7775 C   0  0  0  0  0  0  0  0  0  0  0  0
    7.2039  -13.7503   25.8139 C   0  0  0  0  0  0  0  0  0  0  0  0
    8.1021  -14.2691   24.7404 C   0  0  2  0  0  0  0  0  0  0  0  0
    7.2983  -14.4394   23.5290 N   0  0  0  0  0  0  0  0  0  0  0  0
    8.5263  -15.6510   25.1618 C   0  0  0  0  0  0  0  0  0  0  0  0
    7.6930  -16.6051   25.1839 O   0  0  0  0  0  0  0  0  0  0  0  0
   11.8266  -19.1553   25.5244 C   0  0  0  0  0  0  0  0  0  0  0  0
   11.4714  -17.7435   25.1014 C   0  0  1  0  0  0  0  0  0  0  0  0
   11.3111  -17.7500   23.7309 O   0  0  0  0  0  0  0  0  0  0  0  0
   10.2288  -17.3159   25.8441 C   0  0  2  0  0  0  0  0  0  0  0  0
    9.8502  -15.9591   25.5492 N   0  0  0  0  0  0  0  0  0  0  0  0
   10.3514  -17.4822   27.2998 C   0  0  0  0  0  0  0  0  0  0  0  0
   10.3181  -18.7323   27.9035 O   0  0  0  0  0  0  0  0  0  0  0  0
   10.4905  -16.4636   28.0209 O   0  0  0  0  0  0  0  0  0  0  0  0
  2  1  1  0
  3  2  1  0
  3  4  1  6
  5 12  1  0
  5  3  1  0
  6  5  2  0
  8  7  1  1
  8 10  1  0
  9  8  1  0
 11 10  1  1
 11 12  1  0
 13 11  1  0
 13 19  1  0
 14 13  2  0
 16 15  1  1
 17 16  1  0
 18 19  1  1
 18 16  1  0
 20 18  1  0
 21 20  1  0
 22 20  2  0
M  END
$$$$
