SLT.pdb
     RDKit          3D

 22 21  0  0  1  0  0  0  0  0999 V2000
    7.7980  -17.6212   21.3795 O   0  0  0  0  0  0  0  0  0  0  0  0
    7.0250  -16.5254   21.0357 C   0  0  0  0  0  0  0  0  0  0  0  0
    7.8068  -15.2365   21.1774 C   0  0  2  0  0  0  0  0  0  0  0  0
    8.7921  -15.1313   20.1174 N   0  0  0  0  0  0  0  0  0  0  0  0
    8.4234  -15.1148   22.5208 C   0  0  0  0  0  0  0  0  0  0  0  0
    9.6529  -15.2598   22.6291 O   0  0  0  0  0  0  0  0  0  0  0  0
    5.6935  -12.1820   26.4920 C   0  0  0  0  0  0  0  0  0  0  0  0
    6.7870  -12.6115   25.5322 C   0  0  1  0  0  0  0  0  0  0  0  0
    7.9693  -11.6981   25.7700 C   0  0  0  0  0  0  0  0  0  0  0  0
    7.0918  -14.0422   25.8265 C   0  0  0  0  0  0  0  0  0  0  0  0
    8.1653  -14.6409   24.9796 C   0  0  2  0  0  0  0  0  0  0  0  0
    7.6163  -14.8406   23.6374 N   0  0  0  0  0  0  0  0  0  0  0  0
    8.4364  -16.0150   25.5322 C   0  0  0  0  0  0  0  0  0  0  0  0
    7.4954  -16.8508   25.6785 O   0  0  0  0  0  0  0  0  0  0  0  0
   10.5597  -18.5692   24.0962 C   0  0  0  0  0  0  0  0  0  0  0  0
   11.0151  -18.4986   25.5404 C   0  0  1  0  0  0  0  0  0  0  0  0
   12.2302  -17.8450   25.5597 O   0  0  0  0  0  0  0  0  0  0  0  0
    9.9496  -17.7983   26.3483 C   0  0  2  0  0  0  0  0  0  0  0  0
    9.7281  -16.4448   25.9121 N   0  0  0  0  0  0  0  0  0  0  0  0
   10.2338  -17.8051   27.7908 C   0  0  0  0  0  0  0  0  0  0  0  0
   10.2951  -18.9830   28.5237 O   0  0  0  0  0  0  0  0  0  0  0  0
   10.4274  -16.7131   28.3799 O   0  0  0  0  0  0  0  0  0  0  0  0
  2  1  1  0
  3  2  1  0
  3  4  1  6
  5 12  1  0
  5  3  1  0
  6  5  2  0
  8  7  1  1
  8 10  1  0
  9  8  1  0
 11 10  1  1
 11 12  1  0
 13 11  1  0
 13 19  1  0
 14 13  2  0
 16 15  1  6
 17 16  1  0
 18 19  1  6
 18 16  1  0
 20 18  1  0
 21 20  1  0
 22 20  2  0
M  END
$$$$
