SLT.pdb
     RDKit          3D

 22 21  0  0  1  0  0  0  0  0999 V2000
    7.4731  -17.3148   20.7298 O   0  0  0  0  0  0  0  0  0  0  0  0
    6.6971  -16.2153   20.4055 C   0  0  0  0  0  0  0  0  0  0  0  0
    7.5075  -14.9374   20.4575 C   0  0  2  0  0  0  0  0  0  0  0  0
    8.5115  -14.9401   19.4098 N   0  0  0  0  0  0  0  0  0  0  0  0
    8.1058  -14.7224   21.7974 C   0  0  0  0  0  0  0  0  0  0  0  0
    9.3243  -14.9159   21.9455 O   0  0  0  0  0  0  0  0  0  0  0  0
    8.2354  -12.1936   26.4932 C   0  0  0  0  0  0  0  0  0  0  0  0
    7.0633  -13.1549   26.4330 C   0  0  1  0  0  0  0  0  0  0  0  0
    5.9263  -12.5160   27.1997 C   0  0  0  0  0  0  0  0  0  0  0  0
    6.7432  -13.3663   24.9911 C   0  0  0  0  0  0  0  0  0  0  0  0
    7.8284  -14.0144   24.1971 C   0  0  2  0  0  0  0  0  0  0  0  0
    7.2940  -14.3078   22.8663 N   0  0  0  0  0  0  0  0  0  0  0  0
    8.1013  -15.3463   24.8441 C   0  0  0  0  0  0  0  0  0  0  0  0
    7.1833  -16.2126   24.9538 O   0  0  0  0  0  0  0  0  0  0  0  0
   10.0284  -17.8471   23.5065 C   0  0  0  0  0  0  0  0  0  0  0  0
   10.6126  -17.7663   24.9031 C   0  0  1  0  0  0  0  0  0  0  0  0
   11.8304  -17.1248   24.8058 O   0  0  0  0  0  0  0  0  0  0  0  0
    9.6304  -17.0470   25.7956 C   0  0  2  0  0  0  0  0  0  0  0  0
    9.3699  -15.7016   25.3562 N   0  0  0  0  0  0  0  0  0  0  0  0
   10.0519  -17.0267   27.2040 C   0  0  0  0  0  0  0  0  0  0  0  0
   10.1834  -18.1904   27.9502 O   0  0  0  0  0  0  0  0  0  0  0  0
   10.3011  -15.9240   27.7507 O   0  0  0  0  0  0  0  0  0  0  0  0
  2  1  1  0
  3  2  1  0
  3  4  1  6
  5 12  1  0
  5  3  1  0
  6  5  2  0
  8  7  1  6
  8 10  1  0
  9  8  1  0
 11 10  1  1
 11 12  1  0
 13 11  1  0
 13 19  1  0
 14 13  2  0
 16 15  1  6
 17 16  1  0
 18 19  1  6
 18 16  1  0
 20 18  1  0
 21 20  1  0
 22 20  2  0
M  END
$$$$
