SLT.pdb
     RDKit          3D

 22 21  0  0  1  0  0  0  0  0999 V2000
    7.7057  -17.7135   20.8717 O   0  0  0  0  0  0  0  0  0  0  0  0
    6.7237  -16.7773   20.5964 C   0  0  0  0  0  0  0  0  0  0  0  0
    7.3182  -15.3974   20.4098 C   0  0  2  0  0  0  0  0  0  0  0  0
    8.1880  -15.3816   19.2484 N   0  0  0  0  0  0  0  0  0  0  0  0
    8.0178  -14.9326   21.6321 C   0  0  0  0  0  0  0  0  0  0  0  0
    9.2603  -14.9444   21.6502 O   0  0  0  0  0  0  0  0  0  0  0  0
    8.4207  -12.0799   26.1112 C   0  0  0  0  0  0  0  0  0  0  0  0
    7.2624  -13.0548   26.2064 C   0  0  1  0  0  0  0  0  0  0  0  0
    6.1700  -12.3692   26.9971 C   0  0  0  0  0  0  0  0  0  0  0  0
    6.8490  -13.3824   24.8107 C   0  0  0  0  0  0  0  0  0  0  0  0
    7.8963  -14.0583   23.9896 C   0  0  2  0  0  0  0  0  0  0  0  0
    7.2725  -14.4912   22.7381 N   0  0  0  0  0  0  0  0  0  0  0  0
    8.2791  -15.3148   24.7257 C   0  0  0  0  0  0  0  0  0  0  0  0
    7.4351  -16.2429   24.9037 O   0  0  0  0  0  0  0  0  0  0  0  0
   11.6607  -18.6375   25.5582 C   0  0  0  0  0  0  0  0  0  0  0  0
   11.2427  -17.3038   24.9712 C   0  0  1  0  0  0  0  0  0  0  0  0
   11.0775  -17.4829   23.6131 O   0  0  0  0  0  0  0  0  0  0  0  0
    9.9855  -16.8431   25.6682 C   0  0  2  0  0  0  0  0  0  0  0  0
    9.5739  -15.5289   25.2502 N   0  0  0  0  0  0  0  0  0  0  0  0
   10.1043  -16.8736   27.1333 C   0  0  0  0  0  0  0  0  0  0  0  0
   10.0151  -18.0567   27.8549 O   0  0  0  0  0  0  0  0  0  0  0  0
   10.2924  -15.7976   27.7529 O   0  0  0  0  0  0  0  0  0  0  0  0
  2  1  1  0
  3  2  1  0
  3  4  1  6
  5 12  1  0
  5  3  1  0
  6  5  2  0
  8  7  1  6
  8 10  1  0
  9  8  1  0
 11 10  1  1
 11 12  1  0
 13 11  1  0
 13 19  1  0
 14 13  2  0
 16 15  1  1
 17 16  1  0
 18 19  1  6
 18 16  1  0
 20 18  1  0
 21 20  1  0
 22 20  2  0
M  END
$$$$
