SLT.pdb
     RDKit          3D

 22 21  0  0  1  0  0  0  0  0999 V2000
    8.2453  -17.7748   21.4007 O   0  0  0  0  0  0  0  0  0  0  0  0
    7.3741  -16.8708   20.8174 C   0  0  0  0  0  0  0  0  0  0  0  0
    8.0153  -15.5070   20.6714 C   0  0  2  0  0  0  0  0  0  0  0  0
    9.0671  -15.5544   19.6729 N   0  0  0  0  0  0  0  0  0  0  0  0
    8.5087  -14.9918   21.9716 C   0  0  0  0  0  0  0  0  0  0  0  0
    9.7347  -14.9425   22.1682 O   0  0  0  0  0  0  0  0  0  0  0  0
    8.2174  -12.0807   26.3704 C   0  0  0  0  0  0  0  0  0  0  0  0
    7.0610  -13.0624   26.3501 C   0  0  1  0  0  0  0  0  0  0  0  0
    5.8662  -12.3523   26.9475 C   0  0  0  0  0  0  0  0  0  0  0  0
    6.8476  -13.4593   24.9278 C   0  0  0  0  0  0  0  0  0  0  0  0
    8.0024  -14.1607   24.2932 C   0  0  2  0  0  0  0  0  0  0  0  0
    7.5919  -14.5721   22.9497 N   0  0  0  0  0  0  0  0  0  0  0  0
    8.2197  -15.4298   25.0740 C   0  0  0  0  0  0  0  0  0  0  0  0
    7.2684  -16.2455   25.2607 O   0  0  0  0  0  0  0  0  0  0  0  0
   10.4026  -17.9202   23.9315 C   0  0  0  0  0  0  0  0  0  0  0  0
   10.7932  -17.8294   25.3935 C   0  0  1  0  0  0  0  0  0  0  0  0
   12.0128  -17.1870   25.4569 O   0  0  0  0  0  0  0  0  0  0  0  0
    9.6995  -17.1055   26.1407 C   0  0  2  0  0  0  0  0  0  0  0  0
    9.4703  -15.7787   25.6325 N   0  0  0  0  0  0  0  0  0  0  0  0
    9.9496  -17.0367   27.5879 C   0  0  0  0  0  0  0  0  0  0  0  0
   10.0857  -15.8263   28.2549 O   0  0  0  0  0  0  0  0  0  0  0  0
   10.0432  -18.1042   28.2425 O   0  0  0  0  0  0  0  0  0  0  0  0
  2  1  1  0
  3  2  1  0
  3  4  1  6
  5 12  1  0
  5  3  1  0
  6  5  2  0
  8  7  1  6
  8 10  1  0
  9  8  1  0
 11 10  1  1
 11 12  1  0
 13 11  1  0
 13 19  1  0
 14 13  2  0
 16 15  1  6
 17 16  1  0
 18 19  1  6
 18 16  1  0
 20 18  1  0
 21 20  1  0
 22 20  2  0
M  END
$$$$
