LCM.pdb
     RDKit          3D

 23 22  0  0  1  0  0  0  0  0999 V2000
   22.8229  -14.5412  -14.4526 C   0  0  0  0  0  0  0  0  0  0  0  0
   23.5234  -14.1386  -15.7368 C   0  0  2  0  0  0  0  0  0  0  0  0
   25.0228  -14.2619  -15.5049 C   0  0  0  0  0  0  0  0  0  0  0  0
   23.1805  -12.7360  -16.1525 C   0  0  0  0  0  0  0  0  0  0  0  0
   21.7175  -12.6296  -16.4553 C   0  0  2  0  0  0  0  0  0  0  0  0
   21.4308  -13.4333  -17.6275 N   0  0  0  0  0  0  0  0  0  0  0  0
   21.2766  -11.2262  -16.6265 C   0  0  0  0  0  0  0  0  0  0  0  0
   21.6728  -10.5656  -17.6296 O   0  0  0  0  0  0  0  0  0  0  0  0
   20.4170  -10.5383  -15.7268 N   0  0  0  0  0  0  0  0  0  0  0  0
   20.0193   -9.1590  -15.8885 C   0  0  1  0  0  0  0  0  0  0  0  0
   18.6326   -8.9466  -15.3742 C   0  0  0  0  0  0  0  0  0  0  0  0
   18.1899   -7.1889  -15.3159 S   0  0  0  0  0  0  0  0  0  0  0  0
   21.0089   -8.2051  -15.3985 C   0  0  0  0  0  0  0  0  0  0  0  0
   21.5200   -8.4062  -14.2471 O   0  0  0  0  0  0  0  0  0  0  0  0
   24.1488   -2.8411  -18.2235 C   0  0  0  0  0  0  0  0  0  0  0  0
   25.3480   -3.8458  -17.2897 S   0  0  0  0  0  0  0  0  0  0  0  0
   24.3866   -4.6604  -15.9529 C   0  0  0  0  0  0  0  0  0  0  0  0
   23.2891   -5.4840  -16.5599 C   0  0  0  0  0  0  0  0  0  0  0  0
   22.4473   -6.1222  -15.5446 C   0  0  2  0  0  0  0  0  0  0  0  0
   21.4665   -7.0581  -16.0863 N   0  0  0  0  0  0  0  0  0  0  0  0
   21.8480   -5.2000  -14.5816 C   0  0  0  0  0  0  0  0  0  0  0  0
   22.4280   -4.7909  -13.5741 O   0  0  0  0  0  0  0  0  0  0  0  0
   20.5340   -4.7227  -14.7713 O   0  0  0  0  0  0  0  0  0  0  0  0
  2  1  1  1
  2  3  1  0
  4  2  1  0
  5  6  1  6
  5  4  1  0
  7  5  1  0
  8  7  2  0
  9  7  1  0
 10 13  1  0
 10  9  1  0
 10 11  1  1
 12 11  1  0
 13 20  1  0
 14 13  2  0
 15 16  1  0
 16 17  1  0
 19 18  1  6
 18 17  1  0
 19 21  1  0
 20 19  1  0
 21 22  2  0
 21 23  1  0
M  END
$$$$
