LCM.pdb
     RDKit          3D

 23 22  0  0  1  0  0  0  0  0999 V2000
   24.8576  -13.5662  -15.8650 C   0  0  0  0  0  0  0  0  0  0  0  0
   24.4433  -13.5696  -17.3246 C   0  0  2  0  0  0  0  0  0  0  0  0
   25.7110  -13.6143  -18.1659 C   0  0  0  0  0  0  0  0  0  0  0  0
   23.6291  -12.3590  -17.6843 C   0  0  0  0  0  0  0  0  0  0  0  0
   22.3668  -12.3269  -16.8787 C   0  0  2  0  0  0  0  0  0  0  0  0
   21.5739  -13.4919  -17.2197 N   0  0  0  0  0  0  0  0  0  0  0  0
   21.6087  -11.0686  -17.0664 C   0  0  0  0  0  0  0  0  0  0  0  0
   21.2588  -10.7186  -18.2304 O   0  0  0  0  0  0  0  0  0  0  0  0
   21.2299  -10.1935  -16.0119 N   0  0  0  0  0  0  0  0  0  0  0  0
   20.4792   -8.9748  -16.2069 C   0  0  1  0  0  0  0  0  0  0  0  0
   19.0761   -9.1364  -15.7195 C   0  0  0  0  0  0  0  0  0  0  0  0
   19.0020  -10.0250  -14.1404 S   0  0  0  0  0  0  0  0  0  0  0  0
   21.1652   -7.7826  -15.7195 C   0  0  0  0  0  0  0  0  0  0  0  0
   21.8869   -7.8892  -14.6730 O   0  0  0  0  0  0  0  0  0  0  0  0
   23.7873   -0.4031  -16.6660 C   0  0  0  0  0  0  0  0  0  0  0  0
   22.7036   -1.6850  -17.3744 S   0  0  0  0  0  0  0  0  0  0  0  0
   22.7377   -3.0842  -16.1845 C   0  0  0  0  0  0  0  0  0  0  0  0
   21.9169   -4.2178  -16.7254 C   0  0  0  0  0  0  0  0  0  0  0  0
   21.8220   -5.3344  -15.7815 C   0  0  2  0  0  0  0  0  0  0  0  0
   21.1085   -6.4964  -16.3031 N   0  0  0  0  0  0  0  0  0  0  0  0
   21.3604   -4.9653  -14.4444 C   0  0  0  0  0  0  0  0  0  0  0  0
   20.1906   -5.0714  -14.0712 O   0  0  0  0  0  0  0  0  0  0  0  0
   22.2662   -4.4540  -13.4912 O   0  0  0  0  0  0  0  0  0  0  0  0
  2  1  1  1
  2  3  1  0
  4  2  1  0
  5  6  1  6
  5  4  1  0
  7  5  1  0
  8  7  2  0
  9  7  1  0
 10 13  1  0
 10  9  1  0
 10 11  1  1
 12 11  1  0
 13 20  1  0
 14 13  2  0
 15 16  1  0
 16 17  1  0
 19 18  1  6
 18 17  1  0
 19 21  1  0
 20 19  1  0
 21 22  2  0
 21 23  1  0
M  END
$$$$
