LCM.pdb
     RDKit          3D

 23 22  0  0  1  0  0  0  0  0999 V2000
   23.4661  -17.1816  -18.5168 C   0  0  0  0  0  0  0  0  0  0  0  0
   24.0372  -15.8689  -19.0194 C   0  0  2  0  0  0  0  0  0  0  0  0
   25.3383  -16.1779  -19.7464 C   0  0  0  0  0  0  0  0  0  0  0  0
   24.2904  -14.8973  -17.9015 C   0  0  0  0  0  0  0  0  0  0  0  0
   24.5539  -13.5304  -18.4545 C   0  0  2  0  0  0  0  0  0  0  0  0
   25.9097  -13.4952  -18.9670 N   0  0  0  0  0  0  0  0  0  0  0  0
   24.3122  -12.4617  -17.4581 C   0  0  0  0  0  0  0  0  0  0  0  0
   23.2954  -12.5257  -16.7086 O   0  0  0  0  0  0  0  0  0  0  0  0
   25.1562  -11.3333  -17.2690 N   0  0  0  0  0  0  0  0  0  0  0  0
   24.9037  -10.2919  -16.3001 C   0  0  1  0  0  0  0  0  0  0  0  0
   26.1555   -9.5312  -16.0058 C   0  0  0  0  0  0  0  0  0  0  0  0
   27.4310  -10.5818  -15.2587 S   0  0  0  0  0  0  0  0  0  0  0  0
   23.7440   -9.4661  -16.6200 C   0  0  0  0  0  0  0  0  0  0  0  0
   23.6322   -9.0209  -17.8102 O   0  0  0  0  0  0  0  0  0  0  0  0
   18.0663  -10.9724  -16.8593 C   0  0  0  0  0  0  0  0  0  0  0  0
   17.5751   -9.2947  -16.3463 S   0  0  0  0  0  0  0  0  0  0  0  0
   19.0956   -8.2700  -16.4602 C   0  0  0  0  0  0  0  0  0  0  0  0
   20.2708   -9.0673  -15.9761 C   0  0  0  0  0  0  0  0  0  0  0  0
   21.5325   -8.3349  -16.1116 C   0  0  2  0  0  0  0  0  0  0  0  0
   22.7120   -9.1034  -15.7248 N   0  0  0  0  0  0  0  0  0  0  0  0
   21.5304   -7.0005  -15.5144 C   0  0  0  0  0  0  0  0  0  0  0  0
   22.0793   -6.7290  -14.4449 O   0  0  0  0  0  0  0  0  0  0  0  0
   20.8770   -5.9296  -16.1598 O   0  0  0  0  0  0  0  0  0  0  0  0
  2  1  1  1
  2  3  1  0
  4  2  1  0
  5  6  1  1
  5  4  1  0
  7  5  1  0
  8  7  2  0
  9  7  1  0
 10 13  1  0
 10  9  1  0
 10 11  1  6
 12 11  1  0
 13 20  1  0
 14 13  2  0
 15 16  1  0
 16 17  1  0
 19 18  1  1
 18 17  1  0
 19 21  1  0
 20 19  1  0
 21 22  2  0
 21 23  1  0
M  END
$$$$
