LCM.pdb
     RDKit          3D

 23 22  0  0  1  0  0  0  0  0999 V2000
   19.9745  -19.7707  -16.1263 C   0  0  0  0  0  0  0  0  0  0  0  0
   20.9153  -20.7477  -16.8062 C   0  0  2  0  0  0  0  0  0  0  0  0
   20.1013  -21.5533  -17.8088 C   0  0  0  0  0  0  0  0  0  0  0  0
   21.5802  -21.6698  -15.8236 C   0  0  0  0  0  0  0  0  0  0  0  0
   22.2772  -20.8771  -14.7609 C   0  0  2  0  0  0  0  0  0  0  0  0
   23.6967  -20.8612  -15.0556 N   0  0  0  0  0  0  0  0  0  0  0  0
   22.0015  -21.3919  -13.3998 C   0  0  0  0  0  0  0  0  0  0  0  0
   22.4623  -22.5176  -13.0532 O   0  0  0  0  0  0  0  0  0  0  0  0
   21.2366  -20.7025  -12.4195 N   0  0  0  0  0  0  0  0  0  0  0  0
   20.9859  -21.2097  -11.0903 C   0  0  1  0  0  0  0  0  0  0  0  0
   20.9527  -20.0934  -10.0978 C   0  0  0  0  0  0  0  0  0  0  0  0
   19.2757  -19.4469   -9.8559 S   0  0  0  0  0  0  0  0  0  0  0  0
   19.8539  -22.1278  -11.0200 C   0  0  0  0  0  0  0  0  0  0  0  0
   18.9091  -21.9841  -11.8651 O   0  0  0  0  0  0  0  0  0  0  0  0
   19.5398  -28.5212   -9.6220 C   0  0  0  0  0  0  0  0  0  0  0  0
   18.0886  -27.9055   -8.7085 S   0  0  0  0  0  0  0  0  0  0  0  0
   17.6461  -26.3035   -9.4911 C   0  0  0  0  0  0  0  0  0  0  0  0
   18.8184  -25.3704   -9.4126 C   0  0  0  0  0  0  0  0  0  0  0  0
   18.5559  -24.0917  -10.0780 C   0  0  2  0  0  0  0  0  0  0  0  0
   19.6971  -23.1812  -10.0906 N   0  0  0  0  0  0  0  0  0  0  0  0
   17.3284  -23.4224   -9.6508 C   0  0  0  0  0  0  0  0  0  0  0  0
   17.3013  -22.4980   -8.8363 O   0  0  0  0  0  0  0  0  0  0  0  0
   16.0789  -23.8206  -10.1711 O   0  0  0  0  0  0  0  0  0  0  0  0
  2  1  1  1
  2  3  1  0
  4  2  1  0
  5  6  1  6
  5  4  1  0
  7  5  1  0
  8  7  2  0
  9  7  1  0
 10 13  1  0
 10  9  1  0
 10 11  1  1
 12 11  1  0
 13 20  1  0
 14 13  2  0
 15 16  1  0
 16 17  1  0
 19 18  1  1
 18 17  1  0
 19 21  1  0
 20 19  1  0
 21 22  2  0
 21 23  1  0
M  END
$$$$
