LCM.pdb
     RDKit          3D

 23 22  0  0  1  0  0  0  0  0999 V2000
   22.1800  -16.0178  -15.8676 C   0  0  0  0  0  0  0  0  0  0  0  0
   23.4235  -15.2491  -16.2733 C   0  0  2  0  0  0  0  0  0  0  0  0
   24.4275  -15.3579  -15.1344 C   0  0  0  0  0  0  0  0  0  0  0  0
   23.1266  -13.8046  -16.5616 C   0  0  0  0  0  0  0  0  0  0  0  0
   22.1914  -13.6914  -17.7260 C   0  0  2  0  0  0  0  0  0  0  0  0
   22.8717  -14.1759  -18.9111 N   0  0  0  0  0  0  0  0  0  0  0  0
   21.6793  -12.3136  -17.9075 C   0  0  0  0  0  0  0  0  0  0  0  0
   22.4397  -11.4233  -18.3857 O   0  0  0  0  0  0  0  0  0  0  0  0
   20.3609  -11.8962  -17.5776 N   0  0  0  0  0  0  0  0  0  0  0  0
   19.8889  -10.5375  -17.7118 C   0  0  1  0  0  0  0  0  0  0  0  0
   18.6694  -10.4859  -18.5734 C   0  0  0  0  0  0  0  0  0  0  0  0
   17.9837   -8.8106  -18.6833 S   0  0  0  0  0  0  0  0  0  0  0  0
   19.7725   -9.8320  -16.4398 C   0  0  0  0  0  0  0  0  0  0  0  0
   19.2615  -10.4550  -15.4507 O   0  0  0  0  0  0  0  0  0  0  0  0
   21.6719   -7.6809   -9.7451 C   0  0  0  0  0  0  0  0  0  0  0  0
   21.9798   -8.5148  -11.3354 S   0  0  0  0  0  0  0  0  0  0  0  0
   20.8013   -7.7673  -12.5301 C   0  0  0  0  0  0  0  0  0  0  0  0
   20.9088   -8.4786  -13.8468 C   0  0  0  0  0  0  0  0  0  0  0  0
   20.0839   -7.8541  -14.8843 C   0  0  2  0  0  0  0  0  0  0  0  0
   20.1776   -8.5011  -16.1896 N   0  0  0  0  0  0  0  0  0  0  0  0
   20.2241   -6.4023  -14.9833 C   0  0  0  0  0  0  0  0  0  0  0  0
   20.6518   -5.8231  -15.9835 O   0  0  0  0  0  0  0  0  0  0  0  0
   19.8631   -5.5737  -13.9000 O   0  0  0  0  0  0  0  0  0  0  0  0
  2  1  1  1
  2  3  1  0
  4  2  1  0
  5  6  1  6
  5  4  1  0
  7  5  1  0
  8  7  2  0
  9  7  1  0
 10 13  1  0
 10  9  1  0
 10 11  1  1
 12 11  1  0
 13 20  1  0
 14 13  2  0
 15 16  1  0
 16 17  1  0
 19 18  1  1
 18 17  1  0
 19 21  1  0
 20 19  1  0
 21 22  2  0
 21 23  1  0
M  END
$$$$
