LCM.pdb
     RDKit          3D

 23 22  0  0  1  0  0  0  0  0999 V2000
   27.3312  -10.7759  -15.1804 C   0  0  0  0  0  0  0  0  0  0  0  0
   26.8875  -11.6263  -16.3560 C   0  0  2  0  0  0  0  0  0  0  0  0
   27.9953  -11.5887  -17.3992 C   0  0  0  0  0  0  0  0  0  0  0  0
   25.5996  -11.1358  -16.9548 C   0  0  0  0  0  0  0  0  0  0  0  0
   24.5055  -11.1772  -15.9328 C   0  0  2  0  0  0  0  0  0  0  0  0
   24.2099  -12.5643  -15.6314 N   0  0  0  0  0  0  0  0  0  0  0  0
   23.2985  -10.4370  -16.3671 C   0  0  0  0  0  0  0  0  0  0  0  0
   22.4701  -10.9947  -17.1433 O   0  0  0  0  0  0  0  0  0  0  0  0
   22.9844   -9.1083  -15.9705 N   0  0  0  0  0  0  0  0  0  0  0  0
   21.7926   -8.4046  -16.3843 C   0  0  1  0  0  0  0  0  0  0  0  0
   20.5679   -9.1290  -15.9286 C   0  0  0  0  0  0  0  0  0  0  0  0
   19.0486   -8.2429  -16.3706 S   0  0  0  0  0  0  0  0  0  0  0  0
   21.8168   -6.9802  -16.0685 C   0  0  0  0  0  0  0  0  0  0  0  0
   22.0925   -6.6336  -14.8722 O   0  0  0  0  0  0  0  0  0  0  0  0
   23.0170    0.4571  -18.1925 C   0  0  0  0  0  0  0  0  0  0  0  0
   22.6107   -1.2039  -18.8214 S   0  0  0  0  0  0  0  0  0  0  0  0
   22.2517   -2.2276  -17.3389 C   0  0  0  0  0  0  0  0  0  0  0  0
   21.9672   -3.6379  -17.7647 C   0  0  0  0  0  0  0  0  0  0  0  0
   21.6671   -4.5115  -16.6273 C   0  0  2  0  0  0  0  0  0  0  0  0
   21.5602   -5.9256  -16.9742 N   0  0  0  0  0  0  0  0  0  0  0  0
   20.5500   -4.0677  -15.7953 C   0  0  0  0  0  0  0  0  0  0  0  0
   19.3791   -4.4001  -15.9884 O   0  0  0  0  0  0  0  0  0  0  0  0
   20.7729   -3.2098  -14.6976 O   0  0  0  0  0  0  0  0  0  0  0  0
  2  1  1  1
  2  3  1  0
  4  2  1  0
  5  6  1  6
  5  4  1  0
  7  5  1  0
  8  7  2  0
  9  7  1  0
 10 13  1  0
 10  9  1  0
 10 11  1  1
 12 11  1  0
 13 20  1  0
 14 13  2  0
 15 16  1  0
 16 17  1  0
 19 18  1  6
 18 17  1  0
 19 21  1  0
 20 19  1  0
 21 22  2  0
 21 23  1  0
M  END
$$$$
