LCM.pdb
     RDKit          3D

 23 22  0  0  1  0  0  0  0  0999 V2000
   16.1864   -9.7138  -17.5604 C   0  0  0  0  0  0  0  0  0  0  0  0
   15.8370  -11.0153  -16.8633 C   0  0  2  0  0  0  0  0  0  0  0  0
   14.3329  -11.2157  -16.9829 C   0  0  0  0  0  0  0  0  0  0  0  0
   16.2419  -11.0084  -15.4163 C   0  0  0  0  0  0  0  0  0  0  0  0
   17.7026  -10.7020  -15.2897 C   0  0  2  0  0  0  0  0  0  0  0  0
   18.4496  -11.9258  -15.5056 N   0  0  0  0  0  0  0  0  0  0  0  0
   18.0373  -10.0724  -13.9916 C   0  0  0  0  0  0  0  0  0  0  0  0
   17.9685  -10.7565  -12.9301 O   0  0  0  0  0  0  0  0  0  0  0  0
   18.4424   -8.7185  -13.8358 N   0  0  0  0  0  0  0  0  0  0  0  0
   18.7948   -8.1240  -12.5672 C   0  0  1  0  0  0  0  0  0  0  0  0
   20.0466   -7.3181  -12.6924 C   0  0  0  0  0  0  0  0  0  0  0  0
   20.5172   -6.5430  -11.1219 S   0  0  0  0  0  0  0  0  0  0  0  0
   17.6842   -7.4366  -11.9165 C   0  0  0  0  0  0  0  0  0  0  0  0
   16.9820   -6.6325  -12.6149 O   0  0  0  0  0  0  0  0  0  0  0  0
   11.9920   -6.9660   -6.5883 C   0  0  0  0  0  0  0  0  0  0  0  0
   13.4369   -7.9273   -7.1429 S   0  0  0  0  0  0  0  0  0  0  0  0
   14.3000   -6.8708   -8.3733 C   0  0  0  0  0  0  0  0  0  0  0  0
   15.5202   -7.5858   -8.8746 C   0  0  0  0  0  0  0  0  0  0  0  0
   16.1881   -6.8541   -9.9540 C   0  0  2  0  0  0  0  0  0  0  0  0
   17.3015   -7.5759  -10.5629 N   0  0  0  0  0  0  0  0  0  0  0  0
   16.5458   -5.4751   -9.6260 C   0  0  0  0  0  0  0  0  0  0  0  0
   15.7196   -4.5933   -9.3841 O   0  0  0  0  0  0  0  0  0  0  0  0
   17.8996   -5.0816   -9.5707 O   0  0  0  0  0  0  0  0  0  0  0  0
  2  1  1  1
  2  3  1  0
  4  2  1  0
  5  6  1  1
  5  4  1  0
  7  5  1  0
  8  7  2  0
  9  7  1  0
 10 13  1  0
 10  9  1  0
 10 11  1  6
 12 11  1  0
 13 20  1  0
 14 13  2  0
 15 16  1  0
 16 17  1  0
 19 18  1  1
 18 17  1  0
 19 21  1  0
 20 19  1  0
 21 22  2  0
 21 23  1  0
M  END
$$$$
