LCM.pdb
     RDKit          3D

 23 22  0  0  1  0  0  0  0  0999 V2000
   23.0853  -15.7894  -16.1651 C   0  0  0  0  0  0  0  0  0  0  0  0
   24.2577  -14.8266  -16.1823 C   0  0  2  0  0  0  0  0  0  0  0  0
   24.9170  -14.8749  -14.8111 C   0  0  0  0  0  0  0  0  0  0  0  0
   23.8309  -13.4211  -16.4990 C   0  0  0  0  0  0  0  0  0  0  0  0
   23.1906  -13.3678  -17.8519 C   0  0  2  0  0  0  0  0  0  0  0  0
   24.1920  -13.6953  -18.8479 N   0  0  0  0  0  0  0  0  0  0  0  0
   22.5495  -12.0604  -18.1224 C   0  0  0  0  0  0  0  0  0  0  0  0
   23.2692  -11.0581  -18.4001 O   0  0  0  0  0  0  0  0  0  0  0  0
   21.1465  -11.8320  -18.0945 N   0  0  0  0  0  0  0  0  0  0  0  0
   20.5312  -10.5606  -18.3973 C   0  0  1  0  0  0  0  0  0  0  0  0
   19.2854  -10.7556  -19.1988 C   0  0  0  0  0  0  0  0  0  0  0  0
   18.4310   -9.1888  -19.5210 S   0  0  0  0  0  0  0  0  0  0  0  0
   20.3833   -9.6922  -17.2339 C   0  0  0  0  0  0  0  0  0  0  0  0
   19.9125  -10.1978  -16.1616 O   0  0  0  0  0  0  0  0  0  0  0  0
   22.4285   -3.4535  -16.1602 C   0  0  0  0  0  0  0  0  0  0  0  0
   22.6846   -4.3041  -14.5695 S   0  0  0  0  0  0  0  0  0  0  0  0
   21.4973   -5.7059  -14.5535 C   0  0  0  0  0  0  0  0  0  0  0  0
   21.6486   -6.5009  -15.8170 C   0  0  0  0  0  0  0  0  0  0  0  0
   20.5905   -7.5023  -15.9729 C   0  0  2  0  0  0  0  0  0  0  0  0
   20.7166   -8.3198  -17.1760 N   0  0  0  0  0  0  0  0  0  0  0  0
   19.2330   -6.9870  -15.8030 C   0  0  0  0  0  0  0  0  0  0  0  0
   18.5718   -6.4878  -16.7153 O   0  0  0  0  0  0  0  0  0  0  0  0
   18.6004   -7.0412  -14.5431 O   0  0  0  0  0  0  0  0  0  0  0  0
  2  1  1  1
  2  3  1  0
  4  2  1  0
  5  6  1  6
  5  4  1  0
  7  5  1  0
  8  7  2  0
  9  7  1  0
 10 13  1  0
 10  9  1  0
 10 11  1  1
 12 11  1  0
 13 20  1  0
 14 13  2  0
 15 16  1  0
 16 17  1  0
 19 18  1  6
 18 17  1  0
 19 21  1  0
 20 19  1  0
 21 22  2  0
 21 23  1  0
M  END
$$$$
