LCM.pdb
     RDKit          3D

 23 22  0  0  1  0  0  0  0  0999 V2000
   24.1514  -13.4341  -15.6914 C   0  0  0  0  0  0  0  0  0  0  0  0
   24.2849  -14.4949  -16.7679 C   0  0  2  0  0  0  0  0  0  0  0  0
   23.1141  -14.3317  -17.7269 C   0  0  0  0  0  0  0  0  0  0  0  0
   24.2916  -15.8842  -16.1955 C   0  0  0  0  0  0  0  0  0  0  0  0
   25.4280  -16.0410  -15.2325 C   0  0  2  0  0  0  0  0  0  0  0  0
   26.6186  -15.4675  -15.8288 N   0  0  0  0  0  0  0  0  0  0  0  0
   25.6365  -17.4508  -14.8293 C   0  0  0  0  0  0  0  0  0  0  0  0
   24.6428  -18.2286  -14.7432 O   0  0  0  0  0  0  0  0  0  0  0  0
   26.9024  -18.0198  -14.5211 N   0  0  0  0  0  0  0  0  0  0  0  0
   27.0763  -19.3320  -13.9425 C   0  0  1  0  0  0  0  0  0  0  0  0
   28.2541  -20.0233  -14.5485 C   0  0  0  0  0  0  0  0  0  0  0  0
   28.6378  -21.5815  -13.7038 S   0  0  0  0  0  0  0  0  0  0  0  0
   27.0460  -19.3351  -12.4836 C   0  0  0  0  0  0  0  0  0  0  0  0
   27.9783  -18.7264  -11.8610 O   0  0  0  0  0  0  0  0  0  0  0  0
   28.5628  -19.0317   -6.8049 C   0  0  0  0  0  0  0  0  0  0  0  0
   26.9732  -19.8932   -6.5801 S   0  0  0  0  0  0  0  0  0  0  0  0
   26.7435  -20.9227   -8.0842 C   0  0  0  0  0  0  0  0  0  0  0  0
   26.6033  -20.0299   -9.2819 C   0  0  0  0  0  0  0  0  0  0  0  0
   26.3776  -20.7874  -10.5156 C   0  0  2  0  0  0  0  0  0  0  0  0
   26.0670  -19.9575  -11.6759 N   0  0  0  0  0  0  0  0  0  0  0  0
   25.4486  -21.9083  -10.3819 C   0  0  0  0  0  0  0  0  0  0  0  0
   24.4319  -22.0392  -11.0659 O   0  0  0  0  0  0  0  0  0  0  0  0
   25.6850  -22.9231   -9.4307 O   0  0  0  0  0  0  0  0  0  0  0  0
  2  1  1  1
  2  3  1  0
  4  2  1  0
  5  6  1  6
  5  4  1  0
  7  5  1  0
  8  7  2  0
  9  7  1  0
 10 13  1  0
 10  9  1  0
 10 11  1  1
 12 11  1  0
 13 20  1  0
 14 13  2  0
 15 16  1  0
 16 17  1  0
 19 18  1  1
 18 17  1  0
 19 21  1  0
 20 19  1  0
 21 22  2  0
 21 23  1  0
M  END
$$$$
