LCM.pdb
     RDKit          3D

 23 22  0  0  1  0  0  0  0  0999 V2000
   31.2483  -19.7606  -20.4487 C   0  0  0  0  0  0  0  0  0  0  0  0
   29.8530  -19.4218  -19.9585 C   0  0  2  0  0  0  0  0  0  0  0  0
   28.9453  -19.3233  -21.1764 C   0  0  0  0  0  0  0  0  0  0  0  0
   29.8218  -18.1324  -19.1876 C   0  0  0  0  0  0  0  0  0  0  0  0
   28.4287  -17.8439  -18.7191 C   0  0  2  0  0  0  0  0  0  0  0  0
   28.3551  -16.4502  -18.3260 N   0  0  0  0  0  0  0  0  0  0  0  0
   28.0009  -18.7489  -17.6276 C   0  0  0  0  0  0  0  0  0  0  0  0
   28.6142  -18.7263  -16.5217 O   0  0  0  0  0  0  0  0  0  0  0  0
   26.9229  -19.6709  -17.7240 N   0  0  0  0  0  0  0  0  0  0  0  0
   26.5152  -20.5484  -16.6514 C   0  0  1  0  0  0  0  0  0  0  0  0
   25.2647  -20.0462  -16.0060 C   0  0  0  0  0  0  0  0  0  0  0  0
   24.8297  -21.0029  -14.5281 S   0  0  0  0  0  0  0  0  0  0  0  0
   26.4882  -21.9577  -17.0288 C   0  0  0  0  0  0  0  0  0  0  0  0
   25.7829  -22.2975  -18.0360 O   0  0  0  0  0  0  0  0  0  0  0  0
   28.5610  -29.1357  -17.3777 C   0  0  0  0  0  0  0  0  0  0  0  0
   28.9668  -27.4292  -16.8852 S   0  0  0  0  0  0  0  0  0  0  0  0
   27.4538  -26.7657  -16.0817 C   0  0  0  0  0  0  0  0  0  0  0  0
   27.6672  -25.3220  -15.7336 C   0  0  0  0  0  0  0  0  0  0  0  0
   26.9306  -24.4213  -16.6240 C   0  0  2  0  0  0  0  0  0  0  0  0
   27.1795  -23.0042  -16.3768 N   0  0  0  0  0  0  0  0  0  0  0  0
   25.5027  -24.7124  -16.7410 C   0  0  0  0  0  0  0  0  0  0  0  0
   24.6487  -24.2668  -15.9724 O   0  0  0  0  0  0  0  0  0  0  0  0
   25.0254  -25.5452  -17.7750 O   0  0  0  0  0  0  0  0  0  0  0  0
  2  1  1  6
  2  3  1  0
  4  2  1  0
  5  6  1  1
  5  4  1  0
  7  5  1  0
  8  7  2  0
  9  7  1  0
 10 13  1  0
 10  9  1  0
 10 11  1  6
 12 11  1  0
 13 20  1  0
 14 13  2  0
 15 16  1  0
 16 17  1  0
 19 18  1  1
 18 17  1  0
 19 21  1  0
 20 19  1  0
 21 22  2  0
 21 23  1  0
M  END
$$$$
