LCM.pdb
     RDKit          3D

 23 22  0  0  1  0  0  0  0  0999 V2000
   25.4912  -25.5284  -15.8523 C   0  0  0  0  0  0  0  0  0  0  0  0
   25.4461  -24.0385  -16.1355 C   0  0  2  0  0  0  0  0  0  0  0  0
   26.7819  -23.4455  -15.7103 C   0  0  0  0  0  0  0  0  0  0  0  0
   24.3242  -23.3573  -15.4040 C   0  0  0  0  0  0  0  0  0  0  0  0
   23.0071  -23.9302  -15.8287 C   0  0  2  0  0  0  0  0  0  0  0  0
   22.8133  -23.6435  -17.2367 N   0  0  0  0  0  0  0  0  0  0  0  0
   21.8822  -23.4326  -15.0038 C   0  0  0  0  0  0  0  0  0  0  0  0
   21.7867  -22.1951  -14.7603 O   0  0  0  0  0  0  0  0  0  0  0  0
   20.8684  -24.2581  -14.4451 N   0  0  0  0  0  0  0  0  0  0  0  0
   19.7392  -23.7535  -13.6987 C   0  0  1  0  0  0  0  0  0  0  0  0
   18.6339  -23.3538  -14.6211 C   0  0  0  0  0  0  0  0  0  0  0  0
   17.1850  -22.7381  -13.7209 S   0  0  0  0  0  0  0  0  0  0  0  0
   19.3356  -24.6187  -12.5951 C   0  0  0  0  0  0  0  0  0  0  0  0
   19.2225  -25.8691  -12.8211 O   0  0  0  0  0  0  0  0  0  0  0  0
   18.1441  -25.9824   -4.9234 C   0  0  0  0  0  0  0  0  0  0  0  0
   18.4596  -24.6738   -6.1511 S   0  0  0  0  0  0  0  0  0  0  0  0
   18.2890  -25.4764   -7.7948 C   0  0  0  0  0  0  0  0  0  0  0  0
   18.6879  -24.5054   -8.8668 C   0  0  0  0  0  0  0  0  0  0  0  0
   18.6568  -25.1085  -10.2018 C   0  0  2  0  0  0  0  0  0  0  0  0
   19.0521  -24.2009  -11.2748 N   0  0  0  0  0  0  0  0  0  0  0  0
   17.4222  -25.8241  -10.5192 C   0  0  0  0  0  0  0  0  0  0  0  0
   16.4125  -25.2795  -10.9694 O   0  0  0  0  0  0  0  0  0  0  0  0
   17.3312  -27.2173  -10.3164 O   0  0  0  0  0  0  0  0  0  0  0  0
  2  1  1  1
  2  3  1  0
  4  2  1  0
  5  6  1  6
  5  4  1  0
  7  5  1  0
  8  7  2  0
  9  7  1  0
 10 13  1  0
 10  9  1  0
 10 11  1  6
 12 11  1  0
 13 20  1  0
 14 13  2  0
 15 16  1  0
 16 17  1  0
 19 18  1  1
 18 17  1  0
 19 21  1  0
 20 19  1  0
 21 22  2  0
 21 23  1  0
M  END
$$$$
