MFV.pdb
     RDKit          3D

 27 27  0  0  1  0  0  0  0  0999 V2000
    9.3169  -21.5769   22.7680 C   0  0  0  0  0  0  0  0  0  0  0  0
    9.0302  -21.6684   20.9820 S   0  0  0  0  0  0  0  0  0  0  0  0
    8.5621  -20.0272   20.3951 C   0  0  0  0  0  0  0  0  0  0  0  0
    9.0811  -18.9438   21.3299 C   0  0  0  0  0  0  0  0  0  0  0  0
    8.5481  -17.6100   20.8619 C   0  0  2  0  0  0  0  0  0  0  0  0
    9.1162  -17.1974   19.6081 N   0  0  0  0  0  0  0  0  0  0  0  0
    8.7827  -16.5685   21.8893 C   0  0  0  0  0  0  0  0  0  0  0  0
    9.9279  -16.0315   21.9346 O   0  0  0  0  0  0  0  0  0  0  0  0
    7.7589  -16.1766   22.8004 N   0  0  0  0  0  0  0  0  0  0  0  0
    8.0314  -15.2352   23.8545 C   0  0  1  0  0  0  0  0  0  0  0  0
    6.7689  -14.5489   24.2672 C   0  0  0  0  0  0  0  0  0  0  0  0
    6.9065  -13.5795   25.3528 C   0  0  0  0  0  0  0  0  0  0  0  0
    7.5835  -12.3715   25.1843 C   0  0  0  0  0  0  0  0  0  0  0  0
    7.7292  -11.4534   26.1951 C   0  0  0  0  0  0  0  0  0  0  0  0
    7.1902  -11.7333   27.4146 C   0  0  0  0  0  0  0  0  0  0  0  0
    6.5232  -12.9104   27.6020 C   0  0  0  0  0  0  0  0  0  0  0  0
    6.3683  -13.8487   26.5877 C   0  0  0  0  0  0  0  0  0  0  0  0
    8.6490  -15.9955   24.9863 C   0  0  0  0  0  0  0  0  0  0  0  0
    8.1493  -17.0515   25.4493 O   0  0  0  0  0  0  0  0  0  0  0  0
   12.1345  -17.2272   24.7869 C   0  0  0  0  0  0  0  0  0  0  0  0
   12.0379  -16.5487   26.1555 C   0  0  2  0  0  0  0  0  0  0  0  0
   12.7261  -17.4780   27.1342 C   0  0  0  0  0  0  0  0  0  0  0  0
   10.5790  -16.3951   26.4942 C   0  0  2  0  0  0  0  0  0  0  0  0
    9.8582  -15.5514   25.6076 N   0  0  0  0  0  0  0  0  0  0  0  0
   10.3685  -15.9487   27.8871 C   0  0  0  0  0  0  0  0  0  0  0  0
   10.4510  -16.7897   28.9841 O   0  0  0  0  0  0  0  0  0  0  0  0
   10.1005  -14.7449   28.0947 O   0  0  0  0  0  0  0  0  0  0  0  0
  2  3  1  0
  2  1  1  0
  3  4  1  0
  4  5  1  0
  5  6  1  6
  7  5  1  0
  7  8  2  0
  9  7  1  0
 10  9  1  0
 10 11  1  1
 12 13  2  0
 12 11  1  0
 14 13  1  0
 15 14  2  0
 16 15  1  0
 16 17  2  0
 17 12  1  0
 18 10  1  0
 19 18  2  0
 21 20  1  6
 21 22  1  0
 23 21  1  0
 23 24  1  6
 24 18  1  0
 25 23  1  0
 26 25  1  0
 27 25  2  0
M  END
$$$$
