MFV.pdb
     RDKit          3D

 27 27  0  0  1  0  0  0  0  0999 V2000
    7.1199  -12.2658   18.5137 C   0  0  0  0  0  0  0  0  0  0  0  0
    7.5855  -13.5573   17.3325 S   0  0  0  0  0  0  0  0  0  0  0  0
    8.0238  -15.0441   18.2569 C   0  0  0  0  0  0  0  0  0  0  0  0
    8.9339  -14.7098   19.4303 C   0  0  0  0  0  0  0  0  0  0  0  0
    9.1394  -15.9616   20.2504 C   0  0  2  0  0  0  0  0  0  0  0  0
    8.0249  -16.8651   20.1680 N   0  0  0  0  0  0  0  0  0  0  0  0
    9.4051  -15.6160   21.6665 C   0  0  0  0  0  0  0  0  0  0  0  0
   10.5693  -15.2225   21.9696 O   0  0  0  0  0  0  0  0  0  0  0  0
    8.3899  -15.7191   22.6618 N   0  0  0  0  0  0  0  0  0  0  0  0
    8.5696  -15.1277   23.9616 C   0  0  1  0  0  0  0  0  0  0  0  0
    7.2524  -14.6738   24.5042 C   0  0  0  0  0  0  0  0  0  0  0  0
    7.3127  -13.9367   25.7653 C   0  0  0  0  0  0  0  0  0  0  0  0
    7.3199  -14.5842   27.0009 C   0  0  0  0  0  0  0  0  0  0  0  0
    7.3679  -13.9073   28.1949 C   0  0  0  0  0  0  0  0  0  0  0  0
    7.4103  -12.5458   28.1727 C   0  0  0  0  0  0  0  0  0  0  0  0
    7.4039  -11.8911   26.9741 C   0  0  0  0  0  0  0  0  0  0  0  0
    7.3555  -12.5636   25.7580 C   0  0  0  0  0  0  0  0  0  0  0  0
    9.2094  -16.1582   24.8386 C   0  0  0  0  0  0  0  0  0  0  0  0
    8.8800  -17.3706   24.8154 O   0  0  0  0  0  0  0  0  0  0  0  0
   12.8339  -17.0328   25.0005 C   0  0  0  0  0  0  0  0  0  0  0  0
   12.4196  -16.7314   26.4429 C   0  0  2  0  0  0  0  0  0  0  0  0
   13.0583  -17.8077   27.2966 C   0  0  0  0  0  0  0  0  0  0  0  0
   10.9178  -16.8052   26.5183 C   0  0  2  0  0  0  0  0  0  0  0  0
   10.2444  -15.8092   25.7619 N   0  0  0  0  0  0  0  0  0  0  0  0
   10.4228  -16.7920   27.9106 C   0  0  0  0  0  0  0  0  0  0  0  0
   10.4572  -17.8939   28.7486 O   0  0  0  0  0  0  0  0  0  0  0  0
    9.9444  -15.7295   28.3647 O   0  0  0  0  0  0  0  0  0  0  0  0
  2  3  1  0
  2  1  1  0
  3  4  1  0
  4  5  1  0
  5  6  1  1
  7  5  1  0
  7  8  2  0
  9  7  1  0
 10  9  1  0
 10 11  1  1
 12 13  2  0
 12 11  1  0
 14 13  1  0
 15 14  2  0
 16 15  1  0
 16 17  2  0
 17 12  1  0
 18 10  1  0
 19 18  2  0
 21 20  1  6
 21 22  1  0
 23 21  1  0
 23 24  1  6
 24 18  1  0
 25 23  1  0
 26 25  1  0
 27 25  2  0
M  END
$$$$
