MFV.pdb
     RDKit          3D

 27 27  0  0  1  0  0  0  0  0999 V2000
    8.0082  -12.0356   18.2474 C   0  0  0  0  0  0  0  0  0  0  0  0
    7.8058  -13.4897   17.1869 S   0  0  0  0  0  0  0  0  0  0  0  0
    8.1200  -14.9656   18.1770 C   0  0  0  0  0  0  0  0  0  0  0  0
    8.6787  -14.5977   19.5443 C   0  0  0  0  0  0  0  0  0  0  0  0
    8.9355  -15.8705   20.3164 C   0  0  2  0  0  0  0  0  0  0  0  0
    7.8589  -16.8150   20.1981 N   0  0  0  0  0  0  0  0  0  0  0  0
    9.1872  -15.5686   21.7449 C   0  0  0  0  0  0  0  0  0  0  0  0
   10.3237  -15.1091   22.0597 O   0  0  0  0  0  0  0  0  0  0  0  0
    8.1887  -15.7842   22.7392 N   0  0  0  0  0  0  0  0  0  0  0  0
    8.3402  -15.2443   24.0647 C   0  0  1  0  0  0  0  0  0  0  0  0
    7.0245  -14.7417   24.5665 C   0  0  0  0  0  0  0  0  0  0  0  0
    7.0769  -13.9791   25.8127 C   0  0  0  0  0  0  0  0  0  0  0  0
    6.9230  -12.5929   25.8385 C   0  0  0  0  0  0  0  0  0  0  0  0
    6.9775  -11.8601   26.9987 C   0  0  0  0  0  0  0  0  0  0  0  0
    7.1909  -12.5138   28.1748 C   0  0  0  0  0  0  0  0  0  0  0  0
    7.3444  -13.8709   28.1728 C   0  0  0  0  0  0  0  0  0  0  0  0
    7.2917  -14.6251   27.0059 C   0  0  0  0  0  0  0  0  0  0  0  0
    8.8895  -16.3332   24.9325 C   0  0  0  0  0  0  0  0  0  0  0  0
    8.4016  -17.4909   24.9620 O   0  0  0  0  0  0  0  0  0  0  0  0
   12.7734  -18.4765   26.7372 C   0  0  0  0  0  0  0  0  0  0  0  0
   12.1661  -17.2786   26.0030 C   0  0  2  0  0  0  0  0  0  0  0  0
   12.9254  -16.0604   26.4873 C   0  0  0  0  0  0  0  0  0  0  0  0
   10.7116  -17.1920   26.3819 C   0  0  2  0  0  0  0  0  0  0  0  0
   10.0152  -16.1073   25.7853 N   0  0  0  0  0  0  0  0  0  0  0  0
   10.5119  -17.1666   27.8459 C   0  0  0  0  0  0  0  0  0  0  0  0
   10.7118  -18.2631   28.6676 O   0  0  0  0  0  0  0  0  0  0  0  0
   10.1415  -16.0981   28.3799 O   0  0  0  0  0  0  0  0  0  0  0  0
  2  3  1  0
  2  1  1  0
  3  4  1  0
  4  5  1  0
  5  6  1  1
  7  5  1  0
  7  8  2  0
  9  7  1  0
 10  9  1  0
 10 11  1  1
 12 13  2  0
 12 11  1  0
 14 13  1  0
 15 14  2  0
 16 15  1  0
 16 17  2  0
 17 12  1  0
 18 10  1  0
 19 18  2  0
 21 20  1  1
 21 22  1  0
 23 21  1  0
 23 24  1  6
 24 18  1  0
 25 23  1  0
 26 25  1  0
 27 25  2  0
M  END
$$$$
