MFV.pdb
     RDKit          3D

 27 27  0  0  1  0  0  0  0  0999 V2000
    9.7455  -16.8017   15.0044 C   0  0  0  0  0  0  0  0  0  0  0  0
    9.3781  -15.7034   16.3969 S   0  0  0  0  0  0  0  0  0  0  0  0
    9.6632  -16.6119   17.9301 C   0  0  0  0  0  0  0  0  0  0  0  0
    9.5473  -15.6940   19.1388 C   0  0  0  0  0  0  0  0  0  0  0  0
    9.9754  -16.4617   20.3674 C   0  0  2  0  0  0  0  0  0  0  0  0
    9.2888  -17.7170   20.5013 N   0  0  0  0  0  0  0  0  0  0  0  0
    9.7737  -15.6438   21.5863 C   0  0  0  0  0  0  0  0  0  0  0  0
   10.3420  -14.5141   21.6398 O   0  0  0  0  0  0  0  0  0  0  0  0
    8.9675  -16.1046   22.6679 N   0  0  0  0  0  0  0  0  0  0  0  0
    8.7935  -15.3032   23.8507 C   0  0  1  0  0  0  0  0  0  0  0  0
    7.3388  -15.1670   24.1675 C   0  0  0  0  0  0  0  0  0  0  0  0
    6.9896  -14.0571   25.0527 C   0  0  0  0  0  0  0  0  0  0  0  0
    7.4343  -12.7559   24.8181 C   0  0  0  0  0  0  0  0  0  0  0  0
    7.1227  -11.7034   25.6434 C   0  0  0  0  0  0  0  0  0  0  0  0
    6.3465  -11.9390   26.7379 C   0  0  0  0  0  0  0  0  0  0  0  0
    5.9000  -13.2055   26.9870 C   0  0  0  0  0  0  0  0  0  0  0  0
    6.2079  -14.2801   26.1601 C   0  0  0  0  0  0  0  0  0  0  0  0
    9.5462  -15.9704   24.9592 C   0  0  0  0  0  0  0  0  0  0  0  0
   10.0155  -17.1319   24.8601 O   0  0  0  0  0  0  0  0  0  0  0  0
    9.7844  -14.6188   29.1388 C   0  0  0  0  0  0  0  0  0  0  0  0
   11.0198  -14.9381   28.2934 C   0  0  2  0  0  0  0  0  0  0  0  0
   11.4831  -13.6182   27.7119 C   0  0  0  0  0  0  0  0  0  0  0  0
   10.6019  -15.8892   27.2036 C   0  0  2  0  0  0  0  0  0  0  0  0
    9.7727  -15.3090   26.2069 N   0  0  0  0  0  0  0  0  0  0  0  0
    9.9601  -17.1089   27.7366 C   0  0  0  0  0  0  0  0  0  0  0  0
   10.6281  -18.0651   28.4828 O   0  0  0  0  0  0  0  0  0  0  0  0
    8.7453  -17.2949   27.5047 O   0  0  0  0  0  0  0  0  0  0  0  0
  2  3  1  0
  2  1  1  0
  3  4  1  0
  4  5  1  0
  5  6  1  1
  7  5  1  0
  7  8  2  0
  9  7  1  0
 10  9  1  0
 10 11  1  1
 12 13  2  0
 12 11  1  0
 14 13  1  0
 15 14  2  0
 16 15  1  0
 16 17  2  0
 17 12  1  0
 18 10  1  0
 19 18  2  0
 21 20  1  1
 21 22  1  0
 23 21  1  0
 23 24  1  6
 24 18  1  0
 25 23  1  0
 26 25  1  0
 27 25  2  0
M  END
$$$$
