MFV.pdb
     RDKit          3D

 27 27  0  0  1  0  0  0  0  0999 V2000
    5.5818  -22.9334   25.8500 C   0  0  0  0  0  0  0  0  0  0  0  0
    6.4403  -23.2043   24.2784 S   0  0  0  0  0  0  0  0  0  0  0  0
    6.0113  -21.8586   23.1550 C   0  0  0  0  0  0  0  0  0  0  0  0
    6.2307  -20.5047   23.8151 C   0  0  0  0  0  0  0  0  0  0  0  0
    5.6506  -19.4346   22.9203 C   0  0  2  0  0  0  0  0  0  0  0  0
    5.7420  -19.7711   21.5262 N   0  0  0  0  0  0  0  0  0  0  0  0
    6.3145  -18.1339   23.1700 C   0  0  0  0  0  0  0  0  0  0  0  0
    7.0682  -17.6724   22.2640 O   0  0  0  0  0  0  0  0  0  0  0  0
    6.1168  -17.4177   24.3866 N   0  0  0  0  0  0  0  0  0  0  0  0
    6.8777  -16.2305   24.6747 C   0  0  1  0  0  0  0  0  0  0  0  0
    6.1406  -15.3750   25.6546 C   0  0  0  0  0  0  0  0  0  0  0  0
    6.8360  -14.1600   26.0759 C   0  0  0  0  0  0  0  0  0  0  0  0
    7.6501  -14.1287   27.2081 C   0  0  0  0  0  0  0  0  0  0  0  0
    8.3040  -12.9944   27.6227 C   0  0  0  0  0  0  0  0  0  0  0  0
    8.1517  -11.8508   26.8981 C   0  0  0  0  0  0  0  0  0  0  0  0
    7.3591  -11.8587   25.7859 C   0  0  0  0  0  0  0  0  0  0  0  0
    6.6913  -12.9996   25.3549 C   0  0  0  0  0  0  0  0  0  0  0  0
    8.2074  -16.6677   25.2051 C   0  0  0  0  0  0  0  0  0  0  0  0
    8.3359  -17.6114   26.0249 O   0  0  0  0  0  0  0  0  0  0  0  0
   11.0490  -16.7903   22.4493 C   0  0  0  0  0  0  0  0  0  0  0  0
   11.6368  -16.3238   23.7833 C   0  0  2  0  0  0  0  0  0  0  0  0
   12.9467  -17.0668   23.9476 C   0  0  0  0  0  0  0  0  0  0  0  0
   10.6665  -16.6963   24.8725 C   0  0  2  0  0  0  0  0  0  0  0  0
    9.4179  -16.0232   24.7991 N   0  0  0  0  0  0  0  0  0  0  0  0
   11.2437  -16.5280   26.2224 C   0  0  0  0  0  0  0  0  0  0  0  0
   12.2532  -17.3277   26.7314 O   0  0  0  0  0  0  0  0  0  0  0  0
   10.8007  -15.6140   26.9521 O   0  0  0  0  0  0  0  0  0  0  0  0
  2  3  1  0
  2  1  1  0
  3  4  1  0
  4  5  1  0
  5  6  1  6
  7  5  1  0
  7  8  2  0
  9  7  1  0
 10  9  1  0
 10 11  1  1
 12 13  2  0
 12 11  1  0
 14 13  1  0
 15 14  2  0
 16 15  1  0
 16 17  2  0
 17 12  1  0
 18 10  1  0
 19 18  2  0
 21 20  1  6
 21 22  1  0
 23 21  1  0
 23 24  1  1
 24 18  1  0
 25 23  1  0
 26 25  1  0
 27 25  2  0
M  END
$$$$
