MFV.pdb
     RDKit          3D

 27 27  0  0  1  0  0  0  0  0999 V2000
    6.4021  -12.1494   20.0925 C   0  0  0  0  0  0  0  0  0  0  0  0
    8.1219  -12.2467   19.5330 S   0  0  0  0  0  0  0  0  0  0  0  0
    8.8293  -13.7954   20.1316 C   0  0  0  0  0  0  0  0  0  0  0  0
    7.7672  -14.8818   20.2240 C   0  0  0  0  0  0  0  0  0  0  0  0
    8.4073  -16.1333   20.7773 C   0  0  2  0  0  0  0  0  0  0  0  0
    7.5516  -17.2831   20.6745 N   0  0  0  0  0  0  0  0  0  0  0  0
    8.8106  -15.9290   22.1883 C   0  0  0  0  0  0  0  0  0  0  0  0
    9.9411  -15.4044   22.4091 O   0  0  0  0  0  0  0  0  0  0  0  0
    7.9603  -16.3065   23.2684 N   0  0  0  0  0  0  0  0  0  0  0  0
    8.3682  -16.1020   24.6334 C   0  0  1  0  0  0  0  0  0  0  0  0
    7.1861  -15.7336   25.4714 C   0  0  0  0  0  0  0  0  0  0  0  0
    7.1328  -14.3382   25.9041 C   0  0  0  0  0  0  0  0  0  0  0  0
    8.0990  -13.7875   26.7462 C   0  0  0  0  0  0  0  0  0  0  0  0
    8.0599  -12.4814   27.1688 C   0  0  0  0  0  0  0  0  0  0  0  0
    7.0344  -11.6892   26.7484 C   0  0  0  0  0  0  0  0  0  0  0  0
    6.0772  -12.2077   25.9236 C   0  0  0  0  0  0  0  0  0  0  0  0
    6.1043  -13.5279   25.4882 C   0  0  0  0  0  0  0  0  0  0  0  0
    9.0128  -17.3684   25.1035 C   0  0  0  0  0  0  0  0  0  0  0  0
    8.4541  -18.4904   25.0129 O   0  0  0  0  0  0  0  0  0  0  0  0
   12.9669  -20.0297   25.7944 C   0  0  0  0  0  0  0  0  0  0  0  0
   12.3774  -18.6754   25.3928 C   0  0  2  0  0  0  0  0  0  0  0  0
   13.2916  -17.6258   25.9908 C   0  0  0  0  0  0  0  0  0  0  0  0
   10.9937  -18.5807   25.9783 C   0  0  2  0  0  0  0  0  0  0  0  0
   10.3178  -17.3654   25.6888 N   0  0  0  0  0  0  0  0  0  0  0  0
   10.9817  -18.8214   27.4363 C   0  0  0  0  0  0  0  0  0  0  0  0
   11.3680  -20.0158   28.0208 O   0  0  0  0  0  0  0  0  0  0  0  0
   10.6024  -17.8992   28.1911 O   0  0  0  0  0  0  0  0  0  0  0  0
  2  3  1  0
  2  1  1  0
  3  4  1  0
  4  5  1  0
  5  6  1  1
  7  5  1  0
  7  8  2  0
  9  7  1  0
 10  9  1  0
 10 11  1  1
 12 13  2  0
 12 11  1  0
 14 13  1  0
 15 14  2  0
 16 15  1  0
 16 17  2  0
 17 12  1  0
 18 10  1  0
 19 18  2  0
 21 20  1  1
 21 22  1  0
 23 21  1  0
 23 24  1  1
 24 18  1  0
 25 23  1  0
 26 25  1  0
 27 25  2  0
M  END
$$$$
