MFV.pdb
     RDKit          3D

 27 27  0  0  1  0  0  0  0  0999 V2000
    9.2081  -12.3549   18.4434 C   0  0  0  0  0  0  0  0  0  0  0  0
    7.7022  -13.3608   18.4666 S   0  0  0  0  0  0  0  0  0  0  0  0
    8.1421  -15.0339   18.9808 C   0  0  0  0  0  0  0  0  0  0  0  0
    9.6358  -15.1477   19.2509 C   0  0  0  0  0  0  0  0  0  0  0  0
    9.8499  -16.1706   20.3418 C   0  0  2  0  0  0  0  0  0  0  0  0
    8.9138  -17.2586   20.2701 N   0  0  0  0  0  0  0  0  0  0  0  0
    9.7771  -15.5294   21.6754 C   0  0  0  0  0  0  0  0  0  0  0  0
   10.6184  -14.6217   21.9406 O   0  0  0  0  0  0  0  0  0  0  0  0
    8.7954  -15.9142   22.6347 N   0  0  0  0  0  0  0  0  0  0  0  0
    8.5730  -15.1260   23.8182 C   0  0  1  0  0  0  0  0  0  0  0  0
    7.1062  -14.9803   24.0683 C   0  0  0  0  0  0  0  0  0  0  0  0
    6.7288  -13.9067   24.9861 C   0  0  0  0  0  0  0  0  0  0  0  0
    5.9359  -14.1392   26.1101 C   0  0  0  0  0  0  0  0  0  0  0  0
    5.5653  -13.1414   26.9780 C   0  0  0  0  0  0  0  0  0  0  0  0
    5.9894  -11.8705   26.7316 C   0  0  0  0  0  0  0  0  0  0  0  0
    6.7666  -11.6200   25.6367 C   0  0  0  0  0  0  0  0  0  0  0  0
    7.1491  -12.6203   24.7500 C   0  0  0  0  0  0  0  0  0  0  0  0
    9.2669  -15.8139   24.9522 C   0  0  0  0  0  0  0  0  0  0  0  0
    9.5749  -17.0318   24.9228 O   0  0  0  0  0  0  0  0  0  0  0  0
   11.7029  -15.5878   29.2366 C   0  0  0  0  0  0  0  0  0  0  0  0
   10.8959  -14.7759   28.2205 C   0  0  2  0  0  0  0  0  0  0  0  0
    9.7264  -14.1904   28.9849 C   0  0  0  0  0  0  0  0  0  0  0  0
   10.4198  -15.7188   27.1477 C   0  0  2  0  0  0  0  0  0  0  0  0
    9.6199  -15.1084   26.1451 N   0  0  0  0  0  0  0  0  0  0  0  0
    9.7128  -16.8918   27.7024 C   0  0  0  0  0  0  0  0  0  0  0  0
   10.3530  -17.9550   28.3166 O   0  0  0  0  0  0  0  0  0  0  0  0
    8.4658  -16.9337   27.6162 O   0  0  0  0  0  0  0  0  0  0  0  0
  2  3  1  0
  2  1  1  0
  3  4  1  0
  4  5  1  0
  5  6  1  1
  7  5  1  0
  7  8  2  0
  9  7  1  0
 10  9  1  0
 10 11  1  1
 12 13  2  0
 12 11  1  0
 14 13  1  0
 15 14  2  0
 16 15  1  0
 16 17  2  0
 17 12  1  0
 18 10  1  0
 19 18  2  0
 21 20  1  1
 21 22  1  0
 23 21  1  0
 23 24  1  6
 24 18  1  0
 25 23  1  0
 26 25  1  0
 27 25  2  0
M  END
$$$$
