MFV.pdb
     RDKit          3D

 27 27  0  0  1  0  0  0  0  0999 V2000
    7.4865  -12.0756   18.0541 C   0  0  0  0  0  0  0  0  0  0  0  0
    7.7173  -13.5096   16.9722 S   0  0  0  0  0  0  0  0  0  0  0  0
    8.0544  -14.9526   18.0023 C   0  0  0  0  0  0  0  0  0  0  0  0
    8.7935  -14.5566   19.2727 C   0  0  0  0  0  0  0  0  0  0  0  0
    8.9675  -15.7878   20.1306 C   0  0  2  0  0  0  0  0  0  0  0  0
    7.8602  -16.6974   20.0223 N   0  0  0  0  0  0  0  0  0  0  0  0
    9.1714  -15.4076   21.5480 C   0  0  0  0  0  0  0  0  0  0  0  0
   10.2402  -14.7997   21.8481 O   0  0  0  0  0  0  0  0  0  0  0  0
    8.2017  -15.7109   22.5478 N   0  0  0  0  0  0  0  0  0  0  0  0
    8.3573  -15.2298   23.8952 C   0  0  1  0  0  0  0  0  0  0  0  0
    7.0695  -14.6478   24.3832 C   0  0  0  0  0  0  0  0  0  0  0  0
    7.1299  -13.9954   25.6901 C   0  0  0  0  0  0  0  0  0  0  0  0
    6.9837  -12.6157   25.8355 C   0  0  0  0  0  0  0  0  0  0  0  0
    7.0458  -11.9857   27.0542 C   0  0  0  0  0  0  0  0  0  0  0  0
    7.2592  -12.7392   28.1690 C   0  0  0  0  0  0  0  0  0  0  0  0
    7.4052  -14.0919   28.0499 C   0  0  0  0  0  0  0  0  0  0  0  0
    7.3447  -14.7426   26.8227 C   0  0  0  0  0  0  0  0  0  0  0  0
    8.8013  -16.3859   24.7359 C   0  0  0  0  0  0  0  0  0  0  0  0
    8.1123  -17.4270   24.8793 O   0  0  0  0  0  0  0  0  0  0  0  0
   12.0273  -19.4087   25.1737 C   0  0  0  0  0  0  0  0  0  0  0  0
   11.9754  -17.8950   25.3950 C   0  0  2  0  0  0  0  0  0  0  0  0
   13.0688  -17.5793   26.3949 C   0  0  0  0  0  0  0  0  0  0  0  0
   10.6197  -17.5550   25.9545 C   0  0  2  0  0  0  0  0  0  0  0  0
   10.0520  -16.3637   25.4292 N   0  0  0  0  0  0  0  0  0  0  0  0
   10.6185  -17.4977   27.4312 C   0  0  0  0  0  0  0  0  0  0  0  0
   10.8226  -18.6008   28.2429 O   0  0  0  0  0  0  0  0  0  0  0  0
   10.4227  -16.3941   27.9861 O   0  0  0  0  0  0  0  0  0  0  0  0
  2  3  1  0
  2  1  1  0
  3  4  1  0
  4  5  1  0
  5  6  1  1
  7  5  1  0
  7  8  2  0
  9  7  1  0
 10  9  1  0
 10 11  1  1
 12 13  2  0
 12 11  1  0
 14 13  1  0
 15 14  2  0
 16 15  1  0
 16 17  2  0
 17 12  1  0
 18 10  1  0
 19 18  2  0
 21 20  1  1
 21 22  1  0
 23 21  1  0
 23 24  1  6
 24 18  1  0
 25 23  1  0
 26 25  1  0
 27 25  2  0
M  END
$$$$
