HNG.pdb
     RDKit          3D

 23 23  0  0  1  0  0  0  0  0999 V2000
   13.8516  -10.8487  -12.4426 N   0  0  0  0  0  0  0  0  0  0  0  0
   15.0964  -10.2159  -12.1516 C   0  0  1  0  0  0  0  0  0  0  0  0
   15.9746  -10.0569  -13.3741 C   0  0  0  0  0  0  0  0  0  0  0  0
   16.3160  -11.3926  -13.9381 C   0  0  0  0  0  0  0  0  0  0  0  0
   16.1498  -12.5976  -13.2895 C   0  0  0  0  0  0  0  0  0  0  0  0
   16.5642  -13.5758  -14.1038 N   0  0  0  0  0  0  0  0  0  0  0  0
   16.9825  -12.9949  -15.2416 C   0  0  0  0  0  0  0  0  0  0  0  0
   16.8288  -11.6682  -15.1340 N   0  0  0  0  0  0  0  0  0  0  0  0
   14.8556   -8.9002  -11.5093 C   0  0  0  0  0  0  0  0  0  0  0  0
   13.7425   -8.3695  -11.6205 O   0  0  0  0  0  0  0  0  0  0  0  0
   14.0944   -6.5861   -6.9360 N   0  0  0  0  0  0  0  0  0  0  0  0
   14.7253   -7.4784   -7.8446 C   0  0  0  0  0  0  0  0  0  0  0  0
   14.2224   -8.6202   -7.9786 O   0  0  0  0  0  0  0  0  0  0  0  0
   15.9313   -7.0881   -8.6107 C   0  0  0  0  0  0  0  0  0  0  0  0
   15.6413   -6.9634  -10.0697 C   0  0  2  0  0  0  0  0  0  0  0  0
   15.8503   -8.2153  -10.7668 N   0  0  0  0  0  0  0  0  0  0  0  0
   16.4330   -5.8707  -10.7125 C   0  0  0  0  0  0  0  0  0  0  0  0
   16.4692   -4.7030  -10.2950 O   0  0  0  0  0  0  0  0  0  0  0  0
   17.1981   -6.1794  -11.8793 N   0  0  0  0  0  0  0  0  0  0  0  0
   18.0156   -5.2043  -12.5512 C   0  0  0  0  0  0  0  0  0  0  0  0
   18.7811   -5.7924  -13.6795 C   0  0  0  0  0  0  0  0  0  0  0  0
   19.5662   -5.0462  -14.3054 O   0  0  0  0  0  0  0  0  0  0  0  0
   18.6140   -7.1293  -14.0101 O   0  0  0  0  0  0  0  0  0  0  0  0
  2  9  1  0
  2  1  1  6
  3  2  1  0
  4  5  2  0
  4  3  1  0
  6  5  1  0
  7  8  2  0
  7  6  1  0
  8  4  1  0
  9 10  2  0
 11 12  1  0
 12 14  1  0
 13 12  2  0
 15 14  1  1
 15 17  1  0
 16  9  1  0
 16 15  1  0
 17 19  1  0
 18 17  2  0
 19 20  1  0
 20 21  1  0
 21 22  2  0
 21 23  1  0
M  END
$$$$
