HNG.pdb
     RDKit          3D

 23 23  0  0  1  0  0  0  0  0999 V2000
   23.4230  -10.4913  -15.5880 N   0  0  0  0  0  0  0  0  0  0  0  0
   22.2560   -9.7822  -15.9999 C   0  0  1  0  0  0  0  0  0  0  0  0
   21.0097  -10.6410  -15.9819 C   0  0  0  0  0  0  0  0  0  0  0  0
   21.1667  -11.7929  -16.9131 C   0  0  0  0  0  0  0  0  0  0  0  0
   21.0981  -13.1224  -16.5548 C   0  0  0  0  0  0  0  0  0  0  0  0
   21.2860  -13.8653  -17.6523 N   0  0  0  0  0  0  0  0  0  0  0  0
   21.4688  -13.0177  -18.6793 C   0  0  0  0  0  0  0  0  0  0  0  0
   21.3951  -11.7599  -18.2230 N   0  0  0  0  0  0  0  0  0  0  0  0
   22.0709   -8.5790  -15.1515 C   0  0  0  0  0  0  0  0  0  0  0  0
   22.0756   -8.7031  -13.9196 O   0  0  0  0  0  0  0  0  0  0  0  0
   22.8733   -3.3543  -13.7426 N   0  0  0  0  0  0  0  0  0  0  0  0
   21.9793   -3.6403  -14.8097 C   0  0  0  0  0  0  0  0  0  0  0  0
   21.0561   -2.8190  -15.0278 O   0  0  0  0  0  0  0  0  0  0  0  0
   22.1207   -4.8582  -15.6405 C   0  0  0  0  0  0  0  0  0  0  0  0
   21.6900   -6.0822  -14.9025 C   0  0  2  0  0  0  0  0  0  0  0  0
   21.8870   -7.2808  -15.6908 N   0  0  0  0  0  0  0  0  0  0  0  0
   20.2727   -5.9923  -14.4363 C   0  0  0  0  0  0  0  0  0  0  0  0
   19.9237   -5.4418  -13.3808 O   0  0  0  0  0  0  0  0  0  0  0  0
   19.2502   -6.5725  -15.2487 N   0  0  0  0  0  0  0  0  0  0  0  0
   17.8529   -6.4857  -14.9163 C   0  0  0  0  0  0  0  0  0  0  0  0
   17.2765   -5.1579  -15.2479 C   0  0  0  0  0  0  0  0  0  0  0  0
   18.0318   -4.3051  -15.7645 O   0  0  0  0  0  0  0  0  0  0  0  0
   15.9402   -4.8953  -14.9837 O   0  0  0  0  0  0  0  0  0  0  0  0
  2  9  1  0
  2  1  1  1
  3  2  1  0
  4  5  2  0
  4  3  1  0
  6  5  1  0
  7  8  2  0
  7  6  1  0
  8  4  1  0
  9 10  2  0
 11 12  1  0
 12 14  1  0
 13 12  2  0
 15 14  1  6
 15 17  1  0
 16  9  1  0
 16 15  1  0
 17 19  1  0
 18 17  2  0
 19 20  1  0
 20 21  1  0
 21 22  2  0
 21 23  1  0
M  END
$$$$
