HNG.pdb
     RDKit          3D

 23 23  0  0  1  0  0  0  0  0999 V2000
   17.0852  -10.0476  -12.6270 N   0  0  0  0  0  0  0  0  0  0  0  0
   17.1906   -9.0544  -13.6454 C   0  0  1  0  0  0  0  0  0  0  0  0
   15.8603   -8.4165  -13.9838 C   0  0  0  0  0  0  0  0  0  0  0  0
   14.9136   -9.4453  -14.4977 C   0  0  0  0  0  0  0  0  0  0  0  0
   14.2316   -9.3741  -15.6936 C   0  0  0  0  0  0  0  0  0  0  0  0
   13.4786  -10.4740  -15.8161 N   0  0  0  0  0  0  0  0  0  0  0  0
   13.6847  -11.2208  -14.7175 C   0  0  0  0  0  0  0  0  0  0  0  0
   14.5577  -10.5897  -13.9207 N   0  0  0  0  0  0  0  0  0  0  0  0
   18.1756   -8.0207  -13.2421 C   0  0  0  0  0  0  0  0  0  0  0  0
   18.3309   -7.7724  -12.0391 O   0  0  0  0  0  0  0  0  0  0  0  0
   22.5370   -5.2675  -12.6124 N   0  0  0  0  0  0  0  0  0  0  0  0
   22.2633   -5.5487  -13.9783 C   0  0  0  0  0  0  0  0  0  0  0  0
   22.8967   -4.8955  -14.8424 O   0  0  0  0  0  0  0  0  0  0  0  0
   21.2703   -6.5714  -14.3804 C   0  0  0  0  0  0  0  0  0  0  0  0
   19.9150   -6.2693  -13.8323 C   0  0  2  0  0  0  0  0  0  0  0  0
   18.9552   -7.2967  -14.1791 N   0  0  0  0  0  0  0  0  0  0  0  0
   19.4181   -4.9262  -14.2604 C   0  0  0  0  0  0  0  0  0  0  0  0
   20.1503   -4.0189  -14.6842 O   0  0  0  0  0  0  0  0  0  0  0  0
   18.0161   -4.6613  -14.1806 N   0  0  0  0  0  0  0  0  0  0  0  0
   17.4333   -3.4258  -14.6326 C   0  0  0  0  0  0  0  0  0  0  0  0
   15.9524   -3.4280  -14.5225 C   0  0  0  0  0  0  0  0  0  0  0  0
   15.3253   -4.3506  -15.0885 O   0  0  0  0  0  0  0  0  0  0  0  0
   15.3075   -2.4282  -13.8092 O   0  0  0  0  0  0  0  0  0  0  0  0
  2  9  1  0
  2  1  1  1
  3  2  1  0
  4  5  2  0
  4  3  1  0
  6  5  1  0
  7  8  2  0
  7  6  1  0
  8  4  1  0
  9 10  2  0
 11 12  1  0
 12 14  1  0
 13 12  2  0
 15 14  1  6
 15 17  1  0
 16  9  1  0
 16 15  1  0
 17 19  1  0
 18 17  2  0
 19 20  1  0
 20 21  1  0
 21 22  2  0
 21 23  1  0
M  END
$$$$
