HNG.pdb
     RDKit          3D

 23 23  0  0  1  0  0  0  0  0999 V2000
   25.1681  -21.4736  -15.5522 N   0  0  0  0  0  0  0  0  0  0  0  0
   24.7769  -20.1272  -15.2899 C   0  0  1  0  0  0  0  0  0  0  0  0
   25.6806  -19.1124  -15.9568 C   0  0  0  0  0  0  0  0  0  0  0  0
   27.0824  -19.2842  -15.4835 C   0  0  0  0  0  0  0  0  0  0  0  0
   28.0570  -20.0159  -16.1280 C   0  0  0  0  0  0  0  0  0  0  0  0
   29.1843  -19.9417  -15.4099 N   0  0  0  0  0  0  0  0  0  0  0  0
   28.9214  -19.1780  -14.3355 C   0  0  0  0  0  0  0  0  0  0  0  0
   27.6423  -18.7818  -14.3866 N   0  0  0  0  0  0  0  0  0  0  0  0
   23.3675  -19.9212  -15.7055 C   0  0  0  0  0  0  0  0  0  0  0  0
   22.8777  -20.6643  -16.5663 O   0  0  0  0  0  0  0  0  0  0  0  0
   19.6591  -18.8555  -11.3998 N   0  0  0  0  0  0  0  0  0  0  0  0
   20.2492  -19.7585  -12.3249 C   0  0  0  0  0  0  0  0  0  0  0  0
   19.6525  -20.8416  -12.5380 O   0  0  0  0  0  0  0  0  0  0  0  0
   21.5199  -19.4455  -13.0183 C   0  0  0  0  0  0  0  0  0  0  0  0
   21.2988  -19.1369  -14.4620 C   0  0  2  0  0  0  0  0  0  0  0  0
   22.5470  -18.9030  -15.1577 N   0  0  0  0  0  0  0  0  0  0  0  0
   20.3690  -17.9832  -14.6579 C   0  0  0  0  0  0  0  0  0  0  0  0
   19.2190  -17.9333  -14.1954 O   0  0  0  0  0  0  0  0  0  0  0  0
   20.8228  -16.8647  -15.4229 N   0  0  0  0  0  0  0  0  0  0  0  0
   20.8827  -16.8813  -16.8605 C   0  0  0  0  0  0  0  0  0  0  0  0
   19.5732  -16.5595  -17.4825 C   0  0  0  0  0  0  0  0  0  0  0  0
   19.1599  -15.3818  -17.3993 O   0  0  0  0  0  0  0  0  0  0  0  0
   18.8496  -17.5504  -18.1298 O   0  0  0  0  0  0  0  0  0  0  0  0
  2  9  1  0
  2  1  1  6
  3  2  1  0
  4  5  2  0
  4  3  1  0
  6  5  1  0
  7  8  2  0
  7  6  1  0
  8  4  1  0
  9 10  2  0
 11 12  1  0
 12 14  1  0
 13 12  2  0
 15 14  1  1
 15 17  1  0
 16  9  1  0
 16 15  1  0
 17 19  1  0
 18 17  2  0
 19 20  1  0
 20 21  1  0
 21 22  2  0
 21 23  1  0
M  END
$$$$
