HNG.pdb
     RDKit          3D

 23 23  0  0  1  0  0  0  0  0999 V2000
   26.1305  -22.8411  -15.9289 N   0  0  0  0  0  0  0  0  0  0  0  0
   25.3813  -21.6356  -15.7877 C   0  0  1  0  0  0  0  0  0  0  0  0
   24.5942  -21.2840  -17.0318 C   0  0  0  0  0  0  0  0  0  0  0  0
   25.5175  -21.0793  -18.1826 C   0  0  0  0  0  0  0  0  0  0  0  0
   25.6874  -21.9552  -19.2336 C   0  0  0  0  0  0  0  0  0  0  0  0
   26.5935  -21.4375  -20.0719 N   0  0  0  0  0  0  0  0  0  0  0  0
   26.9844  -20.2593  -19.5562 C   0  0  0  0  0  0  0  0  0  0  0  0
   26.3265  -20.0479  -18.4082 N   0  0  0  0  0  0  0  0  0  0  0  0
   24.4802  -21.7362  -14.6132 C   0  0  0  0  0  0  0  0  0  0  0  0
   23.5245  -22.5224  -14.6517 O   0  0  0  0  0  0  0  0  0  0  0  0
   26.8888  -20.9585  -10.7353 N   0  0  0  0  0  0  0  0  0  0  0  0
   25.5279  -21.3582  -10.6469 C   0  0  0  0  0  0  0  0  0  0  0  0
   25.2891  -22.5048  -10.1966 O   0  0  0  0  0  0  0  0  0  0  0  0
   24.4237  -20.4650  -11.0669 C   0  0  0  0  0  0  0  0  0  0  0  0
   23.7571  -20.9585  -12.3081 C   0  0  2  0  0  0  0  0  0  0  0  0
   24.6640  -20.9664  -13.4369 N   0  0  0  0  0  0  0  0  0  0  0  0
   22.5241  -20.1798  -12.6358 C   0  0  0  0  0  0  0  0  0  0  0  0
   22.5252  -19.1156  -13.2733 O   0  0  0  0  0  0  0  0  0  0  0  0
   21.2623  -20.6833  -12.1924 N   0  0  0  0  0  0  0  0  0  0  0  0
   20.0205  -20.0071  -12.4587 C   0  0  0  0  0  0  0  0  0  0  0  0
   19.2382  -20.6684  -13.5337 C   0  0  0  0  0  0  0  0  0  0  0  0
   19.8078  -20.8769  -14.6277 O   0  0  0  0  0  0  0  0  0  0  0  0
   17.9192  -21.0342  -13.3082 O   0  0  0  0  0  0  0  0  0  0  0  0
  2  9  1  0
  2  1  1  6
  3  2  1  0
  4  5  2  0
  4  3  1  0
  6  5  1  0
  7  8  2  0
  7  6  1  0
  8  4  1  0
  9 10  2  0
 11 12  1  0
 12 14  1  0
 13 12  2  0
 15 14  1  1
 15 17  1  0
 16  9  1  0
 16 15  1  0
 17 19  1  0
 18 17  2  0
 19 20  1  0
 20 21  1  0
 21 22  2  0
 21 23  1  0
M  END
$$$$
