HNG.pdb
     RDKit          3D

 23 23  0  0  1  0  0  0  0  0999 V2000
   25.8210  -33.8909    3.2756 N   0  0  0  0  0  0  0  0  0  0  0  0
   27.0454  -33.2325    3.5946 C   0  0  1  0  0  0  0  0  0  0  0  0
   27.0169  -32.5648    4.9527 C   0  0  0  0  0  0  0  0  0  0  0  0
   25.9716  -31.5040    4.9813 C   0  0  0  0  0  0  0  0  0  0  0  0
   25.9979  -30.3393    4.2443 C   0  0  0  0  0  0  0  0  0  0  0  0
   24.8963  -29.6344    4.5297 N   0  0  0  0  0  0  0  0  0  0  0  0
   24.1926  -30.3439    5.4288 C   0  0  0  0  0  0  0  0  0  0  0  0
   24.8519  -31.4789    5.6987 N   0  0  0  0  0  0  0  0  0  0  0  0
   28.1722  -34.1943    3.5113 C   0  0  0  0  0  0  0  0  0  0  0  0
   28.0625  -35.3004    4.0566 O   0  0  0  0  0  0  0  0  0  0  0  0
   29.5434  -36.7708    1.0658 N   0  0  0  0  0  0  0  0  0  0  0  0
   30.5209  -35.8742    0.5558 C   0  0  0  0  0  0  0  0  0  0  0  0
   30.8593  -36.0080   -0.6451 O   0  0  0  0  0  0  0  0  0  0  0  0
   31.1255  -34.8172    1.3991 C   0  0  0  0  0  0  0  0  0  0  0  0
   30.5236  -34.7900    2.7649 C   0  0  2  0  0  0  0  0  0  0  0  0
   29.3807  -33.9032    2.8296 N   0  0  0  0  0  0  0  0  0  0  0  0
   31.5229  -34.4298    3.8163 C   0  0  0  0  0  0  0  0  0  0  0  0
   32.5715  -35.0602    4.0213 O   0  0  0  0  0  0  0  0  0  0  0  0
   31.2640  -33.2917    4.6410 N   0  0  0  0  0  0  0  0  0  0  0  0
   32.1507  -32.8815    5.6974 C   0  0  0  0  0  0  0  0  0  0  0  0
   31.8087  -33.5135    6.9969 C   0  0  0  0  0  0  0  0  0  0  0  0
   30.8833  -34.3549    7.0124 O   0  0  0  0  0  0  0  0  0  0  0  0
   32.5076  -33.1655    8.1436 O   0  0  0  0  0  0  0  0  0  0  0  0
  2  9  1  0
  2  1  1  1
  3  2  1  0
  4  5  2  0
  4  3  1  0
  6  5  1  0
  7  8  2  0
  7  6  1  0
  8  4  1  0
  9 10  2  0
 11 12  1  0
 12 14  1  0
 13 12  2  0
 15 14  1  6
 15 17  1  0
 16  9  1  0
 16 15  1  0
 17 19  1  0
 18 17  2  0
 19 20  1  0
 20 21  1  0
 21 22  2  0
 21 23  1  0
M  END
$$$$
