HNG.pdb
     RDKit          3D

 23 23  0  0  1  0  0  0  0  0999 V2000
   20.1782  -11.2560  -17.1147 N   0  0  0  0  0  0  0  0  0  0  0  0
   18.9735  -10.5488  -17.4030 C   0  0  1  0  0  0  0  0  0  0  0  0
   17.7316  -11.3769  -17.1516 C   0  0  0  0  0  0  0  0  0  0  0  0
   17.7846  -12.6358  -17.9460 C   0  0  0  0  0  0  0  0  0  0  0  0
   17.5048  -13.8959  -17.4619 C   0  0  0  0  0  0  0  0  0  0  0  0
   17.6572  -14.7748  -18.4600 N   0  0  0  0  0  0  0  0  0  0  0  0
   18.0258  -14.0787  -19.5493 C   0  0  0  0  0  0  0  0  0  0  0  0
   18.1012  -12.7796  -19.2298 N   0  0  0  0  0  0  0  0  0  0  0  0
   18.9271   -9.2903  -16.6184 C   0  0  0  0  0  0  0  0  0  0  0  0
   17.9302   -8.5613  -16.7059 O   0  0  0  0  0  0  0  0  0  0  0  0
   17.7090   -8.5567  -13.5790 N   0  0  0  0  0  0  0  0  0  0  0  0
   18.9401   -8.4838  -12.8729 C   0  0  0  0  0  0  0  0  0  0  0  0
   18.9459   -8.8659  -11.6777 O   0  0  0  0  0  0  0  0  0  0  0  0
   20.1770   -7.9780  -13.5116 C   0  0  0  0  0  0  0  0  0  0  0  0
   19.9667   -7.6763  -14.9584 C   0  0  2  0  0  0  0  0  0  0  0  0
   19.9816   -8.8791  -15.7645 N   0  0  0  0  0  0  0  0  0  0  0  0
   20.9585   -6.6872  -15.4800 C   0  0  0  0  0  0  0  0  0  0  0  0
   22.1419   -6.9598  -15.7334 O   0  0  0  0  0  0  0  0  0  0  0  0
   20.5273   -5.3433  -15.7037 N   0  0  0  0  0  0  0  0  0  0  0  0
   21.4004   -4.3251  -16.2247 C   0  0  0  0  0  0  0  0  0  0  0  0
   22.5046   -3.9966  -15.2877 C   0  0  0  0  0  0  0  0  0  0  0  0
   22.5308   -4.5866  -14.1850 O   0  0  0  0  0  0  0  0  0  0  0  0
   23.4647   -3.0617  -15.6462 O   0  0  0  0  0  0  0  0  0  0  0  0
  2  9  1  0
  2  1  1  1
  3  2  1  0
  4  5  2  0
  4  3  1  0
  6  5  1  0
  7  8  2  0
  7  6  1  0
  8  4  1  0
  9 10  2  0
 11 12  1  0
 12 14  1  0
 13 12  2  0
 15 14  1  1
 15 17  1  0
 16  9  1  0
 16 15  1  0
 17 19  1  0
 18 17  2  0
 19 20  1  0
 20 21  1  0
 21 22  2  0
 21 23  1  0
M  END
$$$$
