HNG.pdb
     RDKit          3D

 23 23  0  0  1  0  0  0  0  0999 V2000
   22.8448  -13.4624  -17.3083 N   0  0  0  0  0  0  0  0  0  0  0  0
   23.0623  -12.3913  -16.3917 C   0  0  1  0  0  0  0  0  0  0  0  0
   24.4901  -11.8889  -16.4035 C   0  0  0  0  0  0  0  0  0  0  0  0
   25.4311  -13.0104  -16.1289 C   0  0  0  0  0  0  0  0  0  0  0  0
   25.4530  -14.2146  -16.7997 C   0  0  0  0  0  0  0  0  0  0  0  0
   26.4289  -14.9692  -16.2802 N   0  0  0  0  0  0  0  0  0  0  0  0
   27.0080  -14.2516  -15.3021 C   0  0  0  0  0  0  0  0  0  0  0  0
   26.3967  -13.0624  -15.2156 N   0  0  0  0  0  0  0  0  0  0  0  0
   22.1184  -11.2828  -16.6778 C   0  0  0  0  0  0  0  0  0  0  0  0
   21.3919  -11.3523  -17.6780 O   0  0  0  0  0  0  0  0  0  0  0  0
   18.4277   -7.8843  -15.6320 N   0  0  0  0  0  0  0  0  0  0  0  0
   18.3968   -9.2789  -15.3601 C   0  0  0  0  0  0  0  0  0  0  0  0
   17.2760   -9.8039  -15.1531 O   0  0  0  0  0  0  0  0  0  0  0  0
   19.6331  -10.0933  -15.3195 C   0  0  0  0  0  0  0  0  0  0  0  0
   20.8265   -9.3058  -15.7487 C   0  0  2  0  0  0  0  0  0  0  0  0
   22.0083  -10.1362  -15.8514 N   0  0  0  0  0  0  0  0  0  0  0  0
   21.0861   -8.1384  -14.8521 C   0  0  0  0  0  0  0  0  0  0  0  0
   21.4314   -8.2394  -13.6648 O   0  0  0  0  0  0  0  0  0  0  0  0
   20.9300   -6.8218  -15.3853 N   0  0  0  0  0  0  0  0  0  0  0  0
   21.2025   -5.6363  -14.6166 C   0  0  0  0  0  0  0  0  0  0  0  0
   22.5227   -5.0421  -14.9468 C   0  0  0  0  0  0  0  0  0  0  0  0
   23.2347   -5.6310  -15.7899 O   0  0  0  0  0  0  0  0  0  0  0  0
   22.9316   -3.8705  -14.3266 O   0  0  0  0  0  0  0  0  0  0  0  0
  2  9  1  0
  2  1  1  6
  3  2  1  0
  4  5  2  0
  4  3  1  0
  6  5  1  0
  7  8  2  0
  7  6  1  0
  8  4  1  0
  9 10  2  0
 11 12  1  0
 12 14  1  0
 13 12  2  0
 15 14  1  1
 15 17  1  0
 16  9  1  0
 16 15  1  0
 17 19  1  0
 18 17  2  0
 19 20  1  0
 20 21  1  0
 21 22  2  0
 21 23  1  0
M  END
$$$$
