HNG.pdb
     RDKit          3D

 23 23  0  0  1  0  0  0  0  0999 V2000
   19.3857  -13.2700  -17.9171 N   0  0  0  0  0  0  0  0  0  0  0  0
   19.6229  -12.6654  -16.6472 C   0  0  1  0  0  0  0  0  0  0  0  0
   20.8160  -13.2576  -15.9282 C   0  0  0  0  0  0  0  0  0  0  0  0
   20.5541  -14.6839  -15.5878 C   0  0  0  0  0  0  0  0  0  0  0  0
   21.1237  -15.7707  -16.2163 C   0  0  0  0  0  0  0  0  0  0  0  0
   20.6525  -16.8845  -15.6427 N   0  0  0  0  0  0  0  0  0  0  0  0
   19.8034  -16.5033  -14.6729 C   0  0  0  0  0  0  0  0  0  0  0  0
   19.7484  -15.1648  -14.6451 N   0  0  0  0  0  0  0  0  0  0  0  0
   19.7880  -11.1997  -16.8090 C   0  0  0  0  0  0  0  0  0  0  0  0
   20.4773  -10.7700  -17.7434 O   0  0  0  0  0  0  0  0  0  0  0  0
   16.6948   -8.3242  -18.1524 N   0  0  0  0  0  0  0  0  0  0  0  0
   16.9660   -8.7977  -16.8402 C   0  0  0  0  0  0  0  0  0  0  0  0
   16.3176   -9.7941  -16.4385 O   0  0  0  0  0  0  0  0  0  0  0  0
   17.9732   -8.1491  -15.9693 C   0  0  0  0  0  0  0  0  0  0  0  0
   19.3023   -8.8215  -16.0681 C   0  0  2  0  0  0  0  0  0  0  0  0
   19.1873  -10.2588  -15.9351 N   0  0  0  0  0  0  0  0  0  0  0  0
   20.2835   -8.2833  -15.0772 C   0  0  0  0  0  0  0  0  0  0  0  0
   20.3114   -8.6111  -13.8810 O   0  0  0  0  0  0  0  0  0  0  0  0
   21.2524   -7.3331  -15.5249 N   0  0  0  0  0  0  0  0  0  0  0  0
   22.3249   -6.8656  -14.6872 C   0  0  0  0  0  0  0  0  0  0  0  0
   21.8832   -5.8058  -13.7456 C   0  0  0  0  0  0  0  0  0  0  0  0
   20.6913   -5.4307  -13.8047 O   0  0  0  0  0  0  0  0  0  0  0  0
   22.7820   -5.2643  -12.8382 O   0  0  0  0  0  0  0  0  0  0  0  0
  2  9  1  0
  2  1  1  6
  3  2  1  0
  4  5  2  0
  4  3  1  0
  6  5  1  0
  7  8  2  0
  7  6  1  0
  8  4  1  0
  9 10  2  0
 11 12  1  0
 12 14  1  0
 13 12  2  0
 15 14  1  1
 15 17  1  0
 16  9  1  0
 16 15  1  0
 17 19  1  0
 18 17  2  0
 19 20  1  0
 20 21  1  0
 21 22  2  0
 21 23  1  0
M  END
$$$$
