PTG.pdb
     RDKit          3D

 19 19  0  0  1  0  0  0  0  0999 V2000
    7.9339  -16.7692   18.0164 N   0  0  0  0  0  0  0  0  0  0  0  0
    7.9300  -18.0829   17.4002 C   0  0  0  0  0  0  0  0  0  0  0  0
    8.2798  -18.9747   18.5945 C   0  0  0  0  0  0  0  0  0  0  0  0
    7.3242  -18.3902   19.6433 C   0  0  0  0  0  0  0  0  0  0  0  0
    7.4768  -16.9064   19.3558 C   0  0  1  0  0  0  0  0  0  0  0  0
    8.4376  -16.3769   20.3617 C   0  0  0  0  0  0  0  0  0  0  0  0
    9.6365  -16.1748   20.1408 O   0  0  0  0  0  0  0  0  0  0  0  0
    8.7120  -13.9422   24.6602 C   0  0  0  0  0  0  0  0  0  0  0  0
    7.9322  -14.6512   23.5854 C   0  0  1  0  0  0  0  0  0  0  0  0
    7.1917  -13.6725   22.9206 O   0  0  0  0  0  0  0  0  0  0  0  0
    8.7235  -15.5081   22.6776 C   0  0  2  0  0  0  0  0  0  0  0  0
    7.9137  -16.0951   21.6500 N   0  0  0  0  0  0  0  0  0  0  0  0
    9.7137  -16.3912   23.3043 C   0  0  0  0  0  0  0  0  0  0  0  0
    9.2748  -17.2124   24.1684 O   0  0  0  0  0  0  0  0  0  0  0  0
   11.0869  -16.4111   23.0460 N   0  0  0  0  0  0  0  0  0  0  0  0
   11.9948  -17.3975   23.6210 C   0  0  0  0  0  0  0  0  0  0  0  0
   13.2412  -16.7685   24.1075 C   0  0  0  0  0  0  0  0  0  0  0  0
   13.4048  -15.5484   23.8556 O   0  0  0  0  0  0  0  0  0  0  0  0
   14.2271  -17.4245   24.8124 O   0  0  0  0  0  0  0  0  0  0  0  0
  1  2  1  0
  3  2  1  0
  4  3  1  0
  4  5  1  0
  5  6  1  1
  5  1  1  0
  6 12  1  0
  7  6  2  0
  9  8  1  1
 10  9  1  0
 11  9  1  0
 11 13  1  0
 11 12  1  1
 13 15  1  0
 13 14  2  0
 15 16  1  0
 16 17  1  0
 17 18  2  0
 17 19  1  0
M  END
$$$$
