PTG.pdb
     RDKit          3D

 19 19  0  0  1  0  0  0  0  0999 V2000
    9.1681  -14.1252   17.9703 N   0  0  0  0  0  0  0  0  0  0  0  0
    8.0358  -13.7230   17.1568 C   0  0  0  0  0  0  0  0  0  0  0  0
    6.9451  -13.5648   18.2196 C   0  0  0  0  0  0  0  0  0  0  0  0
    7.7216  -12.7601   19.2704 C   0  0  0  0  0  0  0  0  0  0  0  0
    9.0592  -13.4791   19.2322 C   0  0  1  0  0  0  0  0  0  0  0  0
    9.0631  -14.4270   20.3799 C   0  0  0  0  0  0  0  0  0  0  0  0
    8.7139  -14.1321   21.5280 O   0  0  0  0  0  0  0  0  0  0  0  0
    9.2637  -19.1209   21.7854 C   0  0  0  0  0  0  0  0  0  0  0  0
    9.4000  -18.0876   20.6994 C   0  0  1  0  0  0  0  0  0  0  0  0
    8.2529  -18.1870   19.9103 O   0  0  0  0  0  0  0  0  0  0  0  0
    9.6828  -16.7104   21.1555 C   0  0  2  0  0  0  0  0  0  0  0  0
    9.5016  -15.7487   20.1073 N   0  0  0  0  0  0  0  0  0  0  0  0
   10.8674  -16.5289   22.0022 C   0  0  0  0  0  0  0  0  0  0  0  0
   11.9902  -16.5037   21.4087 O   0  0  0  0  0  0  0  0  0  0  0  0
   10.8781  -16.3869   23.3923 N   0  0  0  0  0  0  0  0  0  0  0  0
   12.0813  -16.0740   24.1553 C   0  0  0  0  0  0  0  0  0  0  0  0
   12.5949  -17.2622   24.8695 C   0  0  0  0  0  0  0  0  0  0  0  0
   13.6051  -17.1012   25.5992 O   0  0  0  0  0  0  0  0  0  0  0  0
   12.0452  -18.5233   24.7896 O   0  0  0  0  0  0  0  0  0  0  0  0
  1  2  1  0
  3  2  1  0
  4  3  1  0
  4  5  1  0
  5  6  1  1
  5  1  1  0
  6 12  1  0
  7  6  2  0
  9  8  1  1
 10  9  1  0
 11  9  1  0
 11 13  1  0
 11 12  1  6
 13 15  1  0
 13 14  2  0
 15 16  1  0
 16 17  1  0
 17 18  2  0
 17 19  1  0
M  END
$$$$
