PTG.pdb
     RDKit          3D

 19 19  0  0  1  0  0  0  0  0999 V2000
    3.2433  -19.9449   19.9349 N   0  0  0  0  0  0  0  0  0  0  0  0
    2.0410  -20.6294   20.3728 C   0  0  0  0  0  0  0  0  0  0  0  0
    2.0172  -20.2699   21.8609 C   0  0  0  0  0  0  0  0  0  0  0  0
    2.2995  -18.7644   21.7685 C   0  0  0  0  0  0  0  0  0  0  0  0
    3.3783  -18.7534   20.6990 C   0  0  1  0  0  0  0  0  0  0  0  0
    4.6809  -18.6574   21.4127 C   0  0  0  0  0  0  0  0  0  0  0  0
    5.3672  -19.6304   21.7435 O   0  0  0  0  0  0  0  0  0  0  0  0
    6.3300  -14.6304   21.9591 C   0  0  0  0  0  0  0  0  0  0  0  0
    7.0853  -15.9227   21.8003 C   0  0  1  0  0  0  0  0  0  0  0  0
    8.3557  -15.7091   22.3377 O   0  0  0  0  0  0  0  0  0  0  0  0
    6.4156  -17.1274   22.3343 C   0  0  2  0  0  0  0  0  0  0  0  0
    5.1391  -17.3502   21.7201 N   0  0  0  0  0  0  0  0  0  0  0  0
    6.4775  -17.3241   23.7871 C   0  0  0  0  0  0  0  0  0  0  0  0
    5.5056  -16.8644   24.4636 O   0  0  0  0  0  0  0  0  0  0  0  0
    7.5010  -17.9611   24.4938 N   0  0  0  0  0  0  0  0  0  0  0  0
    7.4870  -18.1314   25.9425 C   0  0  0  0  0  0  0  0  0  0  0  0
    8.7430  -18.7406   26.4292 C   0  0  0  0  0  0  0  0  0  0  0  0
    9.6147  -19.0234   25.5694 O   0  0  0  0  0  0  0  0  0  0  0  0
    9.0199  -19.0168   27.7506 O   0  0  0  0  0  0  0  0  0  0  0  0
  1  2  1  0
  3  2  1  0
  4  3  1  0
  4  5  1  0
  5  6  1  1
  5  1  1  0
  6 12  1  0
  7  6  2  0
  9  8  1  1
 10  9  1  0
 11  9  1  0
 11 13  1  0
 11 12  1  1
 13 15  1  0
 13 14  2  0
 15 16  1  0
 16 17  1  0
 17 18  2  0
 17 19  1  0
M  END
$$$$
