PTG.pdb
     RDKit          3D

 19 19  0  0  1  0  0  0  0  0999 V2000
    8.5661  -15.5148   17.8093 N   0  0  0  0  0  0  0  0  0  0  0  0
    7.5402  -14.9976   16.9229 C   0  0  0  0  0  0  0  0  0  0  0  0
    7.4593  -13.5381   17.3781 C   0  0  0  0  0  0  0  0  0  0  0  0
    8.9553  -13.2008   17.4347 C   0  0  0  0  0  0  0  0  0  0  0  0
    9.4989  -14.4722   18.0638 C   0  0  1  0  0  0  0  0  0  0  0  0
    9.6775  -14.1844   19.5131 C   0  0  0  0  0  0  0  0  0  0  0  0
   10.3872  -13.2772   19.9608 O   0  0  0  0  0  0  0  0  0  0  0  0
    7.0488  -13.3338   21.8167 C   0  0  0  0  0  0  0  0  0  0  0  0
    7.7701  -14.4975   22.4421 C   0  0  1  0  0  0  0  0  0  0  0  0
    6.8653  -15.5600   22.4650 O   0  0  0  0  0  0  0  0  0  0  0  0
    9.0721  -14.8466   21.8358 C   0  0  2  0  0  0  0  0  0  0  0  0
    8.9744  -15.0233   20.4161 N   0  0  0  0  0  0  0  0  0  0  0  0
    9.8895  -15.8302   22.5553 C   0  0  0  0  0  0  0  0  0  0  0  0
    9.8282  -17.0297   22.1417 O   0  0  0  0  0  0  0  0  0  0  0  0
   10.7204  -15.5751   23.6494 N   0  0  0  0  0  0  0  0  0  0  0  0
   11.4653  -16.6165   24.3483 C   0  0  0  0  0  0  0  0  0  0  0  0
   12.8136  -16.7997   23.7701 C   0  0  0  0  0  0  0  0  0  0  0  0
   12.8795  -17.1096   22.5541 O   0  0  0  0  0  0  0  0  0  0  0  0
   13.9926  -16.6548   24.4687 O   0  0  0  0  0  0  0  0  0  0  0  0
  1  2  1  0
  3  2  1  0
  4  3  1  0
  4  5  1  0
  5  6  1  1
  5  1  1  0
  6 12  1  0
  7  6  2  0
  9  8  1  6
 10  9  1  0
 11  9  1  0
 11 13  1  0
 11 12  1  6
 13 15  1  0
 13 14  2  0
 15 16  1  0
 16 17  1  0
 17 18  2  0
 17 19  1  0
M  END
$$$$
