PTG.pdb
     RDKit          3D

 19 19  0  0  1  0  0  0  0  0999 V2000
    7.8479  -15.2692   19.3379 N   0  0  0  0  0  0  0  0  0  0  0  0
    6.9331  -14.3982   18.6237 C   0  0  0  0  0  0  0  0  0  0  0  0
    7.3075  -13.0313   19.2031 C   0  0  0  0  0  0  0  0  0  0  0  0
    8.8367  -13.1205   19.1106 C   0  0  0  0  0  0  0  0  0  0  0  0
    9.0553  -14.5534   19.5653 C   0  0  1  0  0  0  0  0  0  0  0  0
    9.4379  -14.4878   21.0022 C   0  0  0  0  0  0  0  0  0  0  0  0
   10.3534  -13.7877   21.4480 O   0  0  0  0  0  0  0  0  0  0  0  0
    7.2305  -13.5000   23.6906 C   0  0  0  0  0  0  0  0  0  0  0  0
    7.7974  -14.8348   24.0939 C   0  0  1  0  0  0  0  0  0  0  0  0
    6.7291  -15.7330   24.1058 O   0  0  0  0  0  0  0  0  0  0  0  0
    8.9538  -15.3064   23.3033 C   0  0  2  0  0  0  0  0  0  0  0  0
    8.6841  -15.2929   21.8950 N   0  0  0  0  0  0  0  0  0  0  0  0
    9.6628  -16.4849   23.8149 C   0  0  0  0  0  0  0  0  0  0  0  0
    9.3988  -17.5934   23.2537 O   0  0  0  0  0  0  0  0  0  0  0  0
   10.5919  -16.5042   24.8584 N   0  0  0  0  0  0  0  0  0  0  0  0
   11.2390  -17.7232   25.3310 C   0  0  0  0  0  0  0  0  0  0  0  0
   10.7524  -18.1106   26.6722 C   0  0  0  0  0  0  0  0  0  0  0  0
    9.8015  -17.4442   27.1525 O   0  0  0  0  0  0  0  0  0  0  0  0
   11.2670  -19.1440   27.4247 O   0  0  0  0  0  0  0  0  0  0  0  0
  1  2  1  0
  3  2  1  0
  4  3  1  0
  4  5  1  0
  5  6  1  1
  5  1  1  0
  6 12  1  0
  7  6  2  0
  9  8  1  6
 10  9  1  0
 11  9  1  0
 11 13  1  0
 11 12  1  6
 13 15  1  0
 13 14  2  0
 15 16  1  0
 16 17  1  0
 17 18  2  0
 17 19  1  0
M  END
$$$$
