PTG.pdb
     RDKit          3D

 19 19  0  0  1  0  0  0  0  0999 V2000
    4.5839  -18.9462   19.7795 N   0  0  0  0  0  0  0  0  0  0  0  0
    3.8093  -19.8029   20.6581 C   0  0  0  0  0  0  0  0  0  0  0  0
    4.0693  -19.1498   22.0183 C   0  0  0  0  0  0  0  0  0  0  0  0
    3.8419  -17.6783   21.6471 C   0  0  0  0  0  0  0  0  0  0  0  0
    4.5435  -17.6240   20.3009 C   0  0  1  0  0  0  0  0  0  0  0  0
    5.8937  -17.0492   20.5501 C   0  0  0  0  0  0  0  0  0  0  0  0
    6.9132  -17.7217   20.7377 O   0  0  0  0  0  0  0  0  0  0  0  0
    8.5070  -12.8411   20.1497 C   0  0  0  0  0  0  0  0  0  0  0  0
    7.2473  -13.6526   20.0065 C   0  0  1  0  0  0  0  0  0  0  0  0
    6.9825  -13.7374   18.6387 O   0  0  0  0  0  0  0  0  0  0  0  0
    7.2476  -14.9641   20.6881 C   0  0  2  0  0  0  0  0  0  0  0  0
    5.9851  -15.6333   20.5679 N   0  0  0  0  0  0  0  0  0  0  0  0
    7.8853  -15.0183   22.0086 C   0  0  0  0  0  0  0  0  0  0  0  0
    7.1871  -14.6200   22.9922 O   0  0  0  0  0  0  0  0  0  0  0  0
    9.1822  -15.4593   22.2846 N   0  0  0  0  0  0  0  0  0  0  0  0
    9.7548  -15.4704   23.6262 C   0  0  0  0  0  0  0  0  0  0  0  0
   11.1065  -16.0692   23.6340 C   0  0  0  0  0  0  0  0  0  0  0  0
   11.2539  -17.1458   24.2650 O   0  0  0  0  0  0  0  0  0  0  0  0
   12.2061  -15.5309   23.0015 O   0  0  0  0  0  0  0  0  0  0  0  0
  1  2  1  0
  3  2  1  0
  4  3  1  0
  4  5  1  0
  5  6  1  1
  5  1  1  0
  6 12  1  0
  7  6  2  0
  9  8  1  6
 10  9  1  0
 11  9  1  0
 11 13  1  0
 11 12  1  1
 13 15  1  0
 13 14  2  0
 15 16  1  0
 16 17  1  0
 17 18  2  0
 17 19  1  0
M  END
$$$$
