PTG.pdb
     RDKit          3D

 19 19  0  0  1  0  0  0  0  0999 V2000
    7.1511  -14.7713   20.7021 N   0  0  0  0  0  0  0  0  0  0  0  0
    6.5900  -13.8155   19.7655 C   0  0  0  0  0  0  0  0  0  0  0  0
    7.2372  -12.5129   20.2435 C   0  0  0  0  0  0  0  0  0  0  0  0
    8.6890  -12.9858   20.3971 C   0  0  0  0  0  0  0  0  0  0  0  0
    8.4675  -14.3475   21.0329 C   0  0  1  0  0  0  0  0  0  0  0  0
    8.6777  -14.1708   22.4958 C   0  0  0  0  0  0  0  0  0  0  0  0
    9.7151  -13.7299   23.0021 O   0  0  0  0  0  0  0  0  0  0  0  0
    7.0655  -12.0904   24.8037 C   0  0  0  0  0  0  0  0  0  0  0  0
    6.9026  -13.4682   25.3876 C   0  0  1  0  0  0  0  0  0  0  0  0
    5.5348  -13.7459   25.3749 O   0  0  0  0  0  0  0  0  0  0  0  0
    7.7241  -14.5292   24.7678 C   0  0  2  0  0  0  0  0  0  0  0  0
    7.5986  -14.5415   23.3393 N   0  0  0  0  0  0  0  0  0  0  0  0
    7.7138  -15.8390   25.4293 C   0  0  0  0  0  0  0  0  0  0  0  0
    6.6256  -16.4922   25.3770 O   0  0  0  0  0  0  0  0  0  0  0  0
    8.7800  -16.4305   26.1119 N   0  0  0  0  0  0  0  0  0  0  0  0
    8.6995  -17.7475   26.7341 C   0  0  0  0  0  0  0  0  0  0  0  0
    9.9686  -18.1115   27.3993 C   0  0  0  0  0  0  0  0  0  0  0  0
   10.9128  -17.2856   27.3257 O   0  0  0  0  0  0  0  0  0  0  0  0
   10.1840  -19.2852   28.0886 O   0  0  0  0  0  0  0  0  0  0  0  0
  1  2  1  0
  3  2  1  0
  4  3  1  0
  4  5  1  0
  5  6  1  1
  5  1  1  0
  6 12  1  0
  7  6  2  0
  9  8  1  6
 10  9  1  0
 11  9  1  0
 11 13  1  0
 11 12  1  6
 13 15  1  0
 13 14  2  0
 15 16  1  0
 16 17  1  0
 17 18  2  0
 17 19  1  0
M  END
$$$$
