FSQ.pdb
     RDKit          3D

 27 27  0  0  1  0  0  0  0  0999 V2000
   27.2591  -19.7179  -11.6657 N   0  0  0  0  0  0  0  0  0  0  0  0
   26.5354  -20.9617  -11.5040 C   0  0  1  0  0  0  0  0  0  0  0  0
   25.9589  -21.0802  -10.1103 C   0  0  0  0  0  0  0  0  0  0  0  0
   26.9920  -20.8749   -9.0692 C   0  0  0  0  0  0  0  0  0  0  0  0
   26.7539  -20.0817   -7.9598 C   0  0  0  0  0  0  0  0  0  0  0  0
   27.7223  -19.8895   -6.9844 C   0  0  0  0  0  0  0  0  0  0  0  0
   28.9525  -20.4900   -7.1015 C   0  0  0  0  0  0  0  0  0  0  0  0
   29.2105  -21.2777   -8.1885 C   0  0  0  0  0  0  0  0  0  0  0  0
   28.2387  -21.4597   -9.1498 C   0  0  0  0  0  0  0  0  0  0  0  0
   25.5064  -21.0494  -12.5437 C   0  0  0  0  0  0  0  0  0  0  0  0
   24.5617  -20.2154  -12.6024 O   0  0  0  0  0  0  0  0  0  0  0  0
   25.8087  -23.6635  -15.8815 O   0  0  0  0  0  0  0  0  0  0  0  0
   25.0936  -22.4711  -15.9456 C   0  0  0  0  0  0  0  0  0  0  0  0
   24.5205  -22.0757  -14.6129 C   0  0  2  0  0  0  0  0  0  0  0  0
   25.4877  -22.0644  -13.5555 N   0  0  0  0  0  0  0  0  0  0  0  0
   23.3536  -22.9494  -14.3087 C   0  0  0  0  0  0  0  0  0  0  0  0
   23.5662  -23.8772  -13.4920 O   0  0  0  0  0  0  0  0  0  0  0  0
   18.7838  -23.0816  -11.0840 N   0  0  0  0  0  0  0  0  0  0  0  0
   18.8708  -21.9928  -11.9793 C   0  0  0  0  0  0  0  0  0  0  0  0
   18.3057  -20.9227  -11.6816 O   0  0  0  0  0  0  0  0  0  0  0  0
   19.6121  -22.1240  -13.2330 C   0  0  0  0  0  0  0  0  0  0  0  0
   20.3015  -23.4311  -13.4099 C   0  0  0  0  0  0  0  0  0  0  0  0
   20.9578  -23.6824  -14.7110 C   0  0  2  0  0  0  0  0  0  0  0  0
   22.0851  -22.7685  -14.8852 N   0  0  0  0  0  0  0  0  0  0  0  0
   20.0215  -23.5033  -15.8570 C   0  0  0  0  0  0  0  0  0  0  0  0
   19.0527  -24.2825  -15.9574 O   0  0  0  0  0  0  0  0  0  0  0  0
   20.1692  -22.5257  -16.8116 O   0  0  0  0  0  0  0  0  0  0  0  0
  2  1  1  1
  3  2  1  0
  4  3  1  0
  4  9  2  0
  5  4  1  0
  6  5  2  0
  6  7  1  0
  7  8  2  0
  8  9  1  0
 10  2  1  0
 11 10  2  0
 12 13  1  0
 14 13  1  6
 14 16  1  0
 14 15  1  0
 15 10  1  0
 16 17  2  0
 18 19  1  0
 19 21  1  0
 20 19  2  0
 21 22  1  0
 23 22  1  1
 24 23  1  0
 24 16  1  0
 25 27  1  0
 25 23  1  0
 26 25  2  0
M  END
$$$$
