FSQ.pdb
     RDKit          3D

 27 27  0  0  1  0  0  0  0  0999 V2000
   24.5382  -11.5939  -17.7077 N   0  0  0  0  0  0  0  0  0  0  0  0
   24.0653  -11.4231  -16.3496 C   0  0  1  0  0  0  0  0  0  0  0  0
   25.2051  -11.0871  -15.4133 C   0  0  0  0  0  0  0  0  0  0  0  0
   26.2184  -12.1663  -15.3718 C   0  0  0  0  0  0  0  0  0  0  0  0
   27.4710  -12.0052  -15.9388 C   0  0  0  0  0  0  0  0  0  0  0  0
   28.4203  -13.0170  -15.8997 C   0  0  0  0  0  0  0  0  0  0  0  0
   28.1325  -14.2140  -15.2898 C   0  0  0  0  0  0  0  0  0  0  0  0
   26.9020  -14.3960  -14.7230 C   0  0  0  0  0  0  0  0  0  0  0  0
   25.9686  -13.3819  -14.7694 C   0  0  0  0  0  0  0  0  0  0  0  0
   23.0141  -10.4022  -16.3393 C   0  0  0  0  0  0  0  0  0  0  0  0
   23.0754   -9.3910  -17.0913 O   0  0  0  0  0  0  0  0  0  0  0  0
   18.6318   -8.8242  -14.8310 O   0  0  0  0  0  0  0  0  0  0  0  0
   19.6061   -9.8157  -14.7586 C   0  0  0  0  0  0  0  0  0  0  0  0
   20.8771   -9.4206  -15.4578 C   0  0  2  0  0  0  0  0  0  0  0  0
   21.8574  -10.4653  -15.4954 N   0  0  0  0  0  0  0  0  0  0  0  0
   21.4005   -8.1698  -14.8420 C   0  0  0  0  0  0  0  0  0  0  0  0
   22.3824   -8.3102  -14.0744 O   0  0  0  0  0  0  0  0  0  0  0  0
   25.0582   -5.1821  -17.0960 N   0  0  0  0  0  0  0  0  0  0  0  0
   24.6473   -4.0857  -16.3063 C   0  0  0  0  0  0  0  0  0  0  0  0
   25.2982   -3.0246  -16.3652 O   0  0  0  0  0  0  0  0  0  0  0  0
   23.4777   -4.1986  -15.4359 C   0  0  0  0  0  0  0  0  0  0  0  0
   22.7377   -5.4842  -15.5583 C   0  0  0  0  0  0  0  0  0  0  0  0
   21.5025   -5.6357  -14.7595 C   0  0  2  0  0  0  0  0  0  0  0  0
   20.8488   -6.9012  -15.0876 N   0  0  0  0  0  0  0  0  0  0  0  0
   20.5363   -4.5267  -15.0021 C   0  0  0  0  0  0  0  0  0  0  0  0
   19.6341   -4.7016  -15.8454 O   0  0  0  0  0  0  0  0  0  0  0  0
   20.5872   -3.3195  -14.3473 O   0  0  0  0  0  0  0  0  0  0  0  0
  2  1  1  6
  3  2  1  0
  4  3  1  0
  4  9  2  0
  5  4  1  0
  6  5  2  0
  6  7  1  0
  7  8  2  0
  8  9  1  0
 10  2  1  0
 11 10  2  0
 12 13  1  0
 14 13  1  1
 14 16  1  0
 14 15  1  0
 15 10  1  0
 16 17  2  0
 18 19  1  0
 19 21  1  0
 20 19  2  0
 21 22  1  0
 23 22  1  6
 24 23  1  0
 24 16  1  0
 25 27  1  0
 25 23  1  0
 26 25  2  0
M  END
$$$$
