FSQ.pdb
     RDKit          3D

 27 27  0  0  1  0  0  0  0  0999 V2000
   27.6930  -21.0127  -15.9728 N   0  0  0  0  0  0  0  0  0  0  0  0
   27.4868  -20.2124  -14.7836 C   0  0  1  0  0  0  0  0  0  0  0  0
   26.9805  -18.8312  -15.1366 C   0  0  0  0  0  0  0  0  0  0  0  0
   27.8400  -18.1726  -16.1469 C   0  0  0  0  0  0  0  0  0  0  0  0
   29.1814  -17.9282  -15.9074 C   0  0  0  0  0  0  0  0  0  0  0  0
   29.9865  -17.3109  -16.8545 C   0  0  0  0  0  0  0  0  0  0  0  0
   29.4620  -16.9250  -18.0643 C   0  0  0  0  0  0  0  0  0  0  0  0
   28.1398  -17.1561  -18.3233 C   0  0  0  0  0  0  0  0  0  0  0  0
   27.3518  -17.7703  -17.3728 C   0  0  0  0  0  0  0  0  0  0  0  0
   26.5781  -20.9276  -13.8834 C   0  0  0  0  0  0  0  0  0  0  0  0
   25.7205  -21.7392  -14.3275 O   0  0  0  0  0  0  0  0  0  0  0  0
   25.9640  -19.6154   -9.8535 O   0  0  0  0  0  0  0  0  0  0  0  0
   25.7224  -20.9498  -10.1673 C   0  0  0  0  0  0  0  0  0  0  0  0
   25.4798  -21.1569  -11.6366 C   0  0  2  0  0  0  0  0  0  0  0  0
   26.5874  -20.7687  -12.4591 N   0  0  0  0  0  0  0  0  0  0  0  0
   24.2160  -20.4694  -12.0209 C   0  0  0  0  0  0  0  0  0  0  0  0
   24.3442  -19.3053  -12.4700 O   0  0  0  0  0  0  0  0  0  0  0  0
   22.3066  -18.6452  -16.0771 N   0  0  0  0  0  0  0  0  0  0  0  0
   20.9627  -18.9402  -15.7588 C   0  0  0  0  0  0  0  0  0  0  0  0
   20.0562  -18.4327  -16.4471 O   0  0  0  0  0  0  0  0  0  0  0  0
   20.6454  -19.8264  -14.6397 C   0  0  0  0  0  0  0  0  0  0  0  0
   21.8321  -20.3484  -13.9086 C   0  0  0  0  0  0  0  0  0  0  0  0
   21.7140  -20.5002  -12.4424 C   0  0  2  0  0  0  0  0  0  0  0  0
   22.9485  -21.0630  -11.8986 N   0  0  0  0  0  0  0  0  0  0  0  0
   20.5796  -21.3879  -12.0585 C   0  0  0  0  0  0  0  0  0  0  0  0
   20.8305  -22.5713  -11.7547 O   0  0  0  0  0  0  0  0  0  0  0  0
   19.2700  -20.9727  -12.0231 O   0  0  0  0  0  0  0  0  0  0  0  0
  2  1  1  6
  3  2  1  0
  4  3  1  0
  4  9  2  0
  5  4  1  0
  6  5  2  0
  6  7  1  0
  7  8  2  0
  8  9  1  0
 10  2  1  0
 11 10  2  0
 12 13  1  0
 14 13  1  1
 14 16  1  0
 14 15  1  0
 15 10  1  0
 16 17  2  0
 18 19  1  0
 19 21  1  0
 20 19  2  0
 21 22  1  0
 23 22  1  6
 24 23  1  0
 24 16  1  0
 25 27  1  0
 25 23  1  0
 26 25  2  0
M  END
$$$$
