FSQ.pdb
     RDKit          3D

 27 27  0  0  1  0  0  0  0  0999 V2000
   27.0104  -21.5966  -11.4791 N   0  0  0  0  0  0  0  0  0  0  0  0
   27.7703  -20.5859  -12.1848 C   0  0  1  0  0  0  0  0  0  0  0  0
   28.9911  -21.1851  -12.8478 C   0  0  0  0  0  0  0  0  0  0  0  0
   29.9930  -21.6317  -11.8528 C   0  0  0  0  0  0  0  0  0  0  0  0
   30.5297  -22.9073  -11.8885 C   0  0  0  0  0  0  0  0  0  0  0  0
   31.4686  -23.3255  -10.9558 C   0  0  0  0  0  0  0  0  0  0  0  0
   31.8899  -22.4711   -9.9658 C   0  0  0  0  0  0  0  0  0  0  0  0
   31.3738  -21.2065   -9.9106 C   0  0  0  0  0  0  0  0  0  0  0  0
   30.4416  -20.8048  -10.8440 C   0  0  0  0  0  0  0  0  0  0  0  0
   26.8882  -19.9128  -13.1421 C   0  0  0  0  0  0  0  0  0  0  0  0
   25.6861  -20.2673  -13.2865 O   0  0  0  0  0  0  0  0  0  0  0  0
   28.4993  -17.1668  -15.5932 O   0  0  0  0  0  0  0  0  0  0  0  0
   27.1425  -17.2839  -15.8807 C   0  0  0  0  0  0  0  0  0  0  0  0
   26.4342  -18.2086  -14.9300 C   0  0  2  0  0  0  0  0  0  0  0  0
   27.3068  -18.8230  -13.9735 N   0  0  0  0  0  0  0  0  0  0  0  0
   25.6553  -19.2065  -15.7143 C   0  0  0  0  0  0  0  0  0  0  0  0
   26.2633  -20.2637  -16.0072 O   0  0  0  0  0  0  0  0  0  0  0  0
   22.7891  -22.7153  -13.1924 N   0  0  0  0  0  0  0  0  0  0  0  0
   22.0303  -22.9421  -14.3617 C   0  0  0  0  0  0  0  0  0  0  0  0
   21.2040  -23.8750  -14.3709 O   0  0  0  0  0  0  0  0  0  0  0  0
   22.2149  -22.0944  -15.5389 C   0  0  0  0  0  0  0  0  0  0  0  0
   23.2054  -20.9977  -15.3619 C   0  0  0  0  0  0  0  0  0  0  0  0
   23.4007  -20.0692  -16.4962 C   0  0  2  0  0  0  0  0  0  0  0  0
   24.3238  -19.0024  -16.1138 N   0  0  0  0  0  0  0  0  0  0  0  0
   22.1204  -19.4500  -16.9429 C   0  0  0  0  0  0  0  0  0  0  0  0
   21.3528  -20.1265  -17.6563 O   0  0  0  0  0  0  0  0  0  0  0  0
   21.7404  -18.1713  -16.6124 O   0  0  0  0  0  0  0  0  0  0  0  0
  2  1  1  6
  3  2  1  0
  4  3  1  0
  4  9  2  0
  5  4  1  0
  6  5  2  0
  6  7  1  0
  7  8  2  0
  8  9  1  0
 10  2  1  0
 11 10  2  0
 12 13  1  0
 14 13  1  6
 14 16  1  0
 14 15  1  0
 15 10  1  0
 16 17  2  0
 18 19  1  0
 19 21  1  0
 20 19  2  0
 21 22  1  0
 23 22  1  1
 24 23  1  0
 24 16  1  0
 25 27  1  0
 25 23  1  0
 26 25  2  0
M  END
$$$$
