FSQ.pdb
     RDKit          3D

 27 27  0  0  1  0  0  0  0  0999 V2000
   25.7434  -20.0284  -15.7221 N   0  0  0  0  0  0  0  0  0  0  0  0
   24.8998  -19.2304  -14.8570 C   0  0  1  0  0  0  0  0  0  0  0  0
   24.3607  -18.0196  -15.5866 C   0  0  0  0  0  0  0  0  0  0  0  0
   25.4367  -17.0631  -15.9335 C   0  0  0  0  0  0  0  0  0  0  0  0
   26.0695  -16.3030  -14.9649 C   0  0  0  0  0  0  0  0  0  0  0  0
   27.0779  -15.4066  -15.2905 C   0  0  0  0  0  0  0  0  0  0  0  0
   27.4736  -15.2536  -16.5972 C   0  0  0  0  0  0  0  0  0  0  0  0
   26.8631  -15.9936  -17.5711 C   0  0  0  0  0  0  0  0  0  0  0  0
   25.8626  -16.8804  -17.2328 C   0  0  0  0  0  0  0  0  0  0  0  0
   23.8333  -20.0803  -14.3205 C   0  0  0  0  0  0  0  0  0  0  0  0
   23.3883  -21.0636  -14.9736 O   0  0  0  0  0  0  0  0  0  0  0  0
   21.6077  -19.3357  -10.6508 O   0  0  0  0  0  0  0  0  0  0  0  0
   21.9704  -20.6147  -11.0630 C   0  0  0  0  0  0  0  0  0  0  0  0
   22.1628  -20.7027  -12.5516 C   0  0  2  0  0  0  0  0  0  0  0  0
   23.2220  -19.8707  -13.0412 N   0  0  0  0  0  0  0  0  0  0  0  0
   20.8637  -20.4271  -13.2253 C   0  0  0  0  0  0  0  0  0  0  0  0
   20.7239  -19.2689  -13.6859 O   0  0  0  0  0  0  0  0  0  0  0  0
   20.8886  -22.0791  -16.9661 N   0  0  0  0  0  0  0  0  0  0  0  0
   20.0119  -22.7912  -16.1184 C   0  0  0  0  0  0  0  0  0  0  0  0
   20.4692  -23.7184  -15.4224 O   0  0  0  0  0  0  0  0  0  0  0  0
   18.5928  -22.4430  -16.0619 C   0  0  0  0  0  0  0  0  0  0  0  0
   18.0503  -22.2803  -14.6855 C   0  0  0  0  0  0  0  0  0  0  0  0
   18.5175  -21.1147  -13.9046 C   0  0  2  0  0  0  0  0  0  0  0  0
   19.8431  -21.3845  -13.3510 N   0  0  0  0  0  0  0  0  0  0  0  0
   17.5941  -20.7831  -12.7823 C   0  0  0  0  0  0  0  0  0  0  0  0
   17.9051  -21.1506  -11.6316 O   0  0  0  0  0  0  0  0  0  0  0  0
   16.4159  -20.0951  -12.9473 O   0  0  0  0  0  0  0  0  0  0  0  0
  2  1  1  6
  3  2  1  0
  4  3  1  0
  4  9  2  0
  5  4  1  0
  6  5  2  0
  6  7  1  0
  7  8  2  0
  8  9  1  0
 10  2  1  0
 11 10  2  0
 12 13  1  0
 14 13  1  1
 14 16  1  0
 14 15  1  0
 15 10  1  0
 16 17  2  0
 18 19  1  0
 19 21  1  0
 20 19  2  0
 21 22  1  0
 23 22  1  1
 24 23  1  0
 24 16  1  0
 25 27  1  0
 25 23  1  0
 26 25  2  0
M  END
$$$$
