FFT.pdb
     RDKit          3D

 30 31  0  0  1  0  0  0  0  0999 V2000
   24.7234  -20.9697  -19.2662 N   0  0  0  0  0  0  0  0  0  0  0  0
   24.2532  -19.9324  -18.3726 C   0  0  1  0  0  0  0  0  0  0  0  0
   22.8970  -19.4844  -18.9053 C   0  0  0  0  0  0  0  0  0  0  0  0
   23.1536  -18.5687  -20.0581 C   0  0  0  0  0  0  0  0  0  0  0  0
   23.2387  -19.0309  -21.3529 C   0  0  0  0  0  0  0  0  0  0  0  0
   23.4769  -18.1502  -22.3855 C   0  0  0  0  0  0  0  0  0  0  0  0
   23.6316  -16.8060  -22.1360 C   0  0  0  0  0  0  0  0  0  0  0  0
   23.5495  -16.3278  -20.8482 C   0  0  0  0  0  0  0  0  0  0  0  0
   23.3122  -17.2208  -19.8374 C   0  0  0  0  0  0  0  0  0  0  0  0
   24.1688  -20.4724  -17.0136 C   0  0  0  0  0  0  0  0  0  0  0  0
   23.8959  -21.6910  -16.8501 O   0  0  0  0  0  0  0  0  0  0  0  0
   24.3759  -19.7100  -15.8388 N   0  0  0  0  0  0  0  0  0  0  0  0
   24.2532  -20.3229  -14.5314 C   0  0  1  0  0  0  0  0  0  0  0  0
   25.1027  -19.6614  -13.5093 C   0  0  0  0  0  0  0  0  0  0  0  0
   24.9683  -20.3009  -12.1887 C   0  0  0  0  0  0  0  0  0  0  0  0
   25.7222  -21.4156  -11.8381 C   0  0  0  0  0  0  0  0  0  0  0  0
   25.6159  -21.9983  -10.5934 C   0  0  0  0  0  0  0  0  0  0  0  0
   24.7551  -21.4994   -9.6397 C   0  0  0  0  0  0  0  0  0  0  0  0
   24.0014  -20.3947   -9.9726 C   0  0  0  0  0  0  0  0  0  0  0  0
   24.1104  -19.8061  -11.2329 C   0  0  0  0  0  0  0  0  0  0  0  0
   22.8311  -20.2556  -14.1490 C   0  0  0  0  0  0  0  0  0  0  0  0
   22.2026  -19.1706  -14.0859 O   0  0  0  0  0  0  0  0  0  0  0  0
   19.6494  -22.1070  -15.5207 C   0  0  0  0  0  0  0  0  0  0  0  0
   19.8743  -22.3936  -14.0679 C   0  0  1  0  0  0  0  0  0  0  0  0
   20.3801  -23.6641  -13.8827 O   0  0  0  0  0  0  0  0  0  0  0  0
   20.7225  -21.3367  -13.3831 C   0  0  2  0  0  0  0  0  0  0  0  0
   22.0767  -21.4174  -13.8258 N   0  0  0  0  0  0  0  0  0  0  0  0
   20.5668  -21.5322  -11.9264 C   0  0  0  0  0  0  0  0  0  0  0  0
   21.5181  -21.8647  -11.1937 O   0  0  0  0  0  0  0  0  0  0  0  0
   19.3211  -21.3379  -11.3642 O   0  0  0  0  0  0  0  0  0  0  0  0
  2  1  1  6
  2  3  1  0
  3  4  1  0
  4  9  2  0
  5  6  2  0
  5  4  1  0
  6  7  1  0
  7  8  2  0
  9  8  1  0
 10  2  1  0
 10 11  2  0
 12 10  1  0
 13 12  1  0
 13 14  1  1
 15 14  1  0
 15 16  2  0
 17 16  1  0
 18 17  2  0
 19 20  2  0
 19 18  1  0
 20 15  1  0
 21 13  1  0
 22 21  2  0
 24 23  1  6
 24 26  1  0
 25 24  1  0
 26 27  1  6
 26 28  1  0
 27 21  1  0
 28 30  1  0
 29 28  2  0
M  END
$$$$
