FFT.pdb
     RDKit          3D

 30 31  0  0  1  0  0  0  0  0999 V2000
   21.2777  -20.0551  -12.2161 N   0  0  0  0  0  0  0  0  0  0  0  0
   22.1218  -21.0707  -12.8091 C   0  0  1  0  0  0  0  0  0  0  0  0
   21.6092  -21.2847  -14.2287 C   0  0  0  0  0  0  0  0  0  0  0  0
   20.3251  -22.0423  -14.1272 C   0  0  0  0  0  0  0  0  0  0  0  0
   19.1388  -21.5365  -14.6111 C   0  0  0  0  0  0  0  0  0  0  0  0
   17.9781  -22.2702  -14.4959 C   0  0  0  0  0  0  0  0  0  0  0  0
   17.9912  -23.5099  -13.8992 C   0  0  0  0  0  0  0  0  0  0  0  0
   19.1680  -24.0297  -13.4105 C   0  0  0  0  0  0  0  0  0  0  0  0
   20.3094  -23.2835  -13.5357 C   0  0  0  0  0  0  0  0  0  0  0  0
   23.5133  -20.6141  -12.7806 C   0  0  0  0  0  0  0  0  0  0  0  0
   23.7706  -19.4050  -13.0217 O   0  0  0  0  0  0  0  0  0  0  0  0
   24.6204  -21.4491  -12.4954 N   0  0  0  0  0  0  0  0  0  0  0  0
   25.9703  -20.9238  -12.5394 C   0  0  1  0  0  0  0  0  0  0  0  0
   26.8057  -21.4023  -11.4093 C   0  0  0  0  0  0  0  0  0  0  0  0
   26.3293  -20.8794  -10.1168 C   0  0  0  0  0  0  0  0  0  0  0  0
   26.7209  -19.6307   -9.6464 C   0  0  0  0  0  0  0  0  0  0  0  0
   26.2548  -19.1299   -8.4496 C   0  0  0  0  0  0  0  0  0  0  0  0
   25.3778  -19.8477   -7.6653 C   0  0  0  0  0  0  0  0  0  0  0  0
   24.9805  -21.0870   -8.1186 C   0  0  0  0  0  0  0  0  0  0  0  0
   25.4531  -21.5922   -9.3303 C   0  0  0  0  0  0  0  0  0  0  0  0
   26.5562  -21.3319  -13.8291 C   0  0  0  0  0  0  0  0  0  0  0  0
   26.9039  -22.5149  -14.0651 O   0  0  0  0  0  0  0  0  0  0  0  0
   25.3366  -22.1878  -16.9574 C   0  0  0  0  0  0  0  0  0  0  0  0
   26.1709  -20.9627  -17.1732 C   0  0  1  0  0  0  0  0  0  0  0  0
   25.3856  -19.8298  -17.2391 O   0  0  0  0  0  0  0  0  0  0  0  0
   27.2881  -20.8236  -16.1545 C   0  0  2  0  0  0  0  0  0  0  0  0
   26.7662  -20.4105  -14.8922 N   0  0  0  0  0  0  0  0  0  0  0  0
   28.2761  -19.8810  -16.7199 C   0  0  0  0  0  0  0  0  0  0  0  0
   28.9818  -20.1679  -17.7059 O   0  0  0  0  0  0  0  0  0  0  0  0
   28.4171  -18.6407  -16.1304 O   0  0  0  0  0  0  0  0  0  0  0  0
  2  1  1  6
  2  3  1  0
  3  4  1  0
  4  9  2  0
  5  6  2  0
  5  4  1  0
  6  7  1  0
  7  8  2  0
  9  8  1  0
 10  2  1  0
 10 11  2  0
 12 10  1  0
 13 12  1  0
 13 14  1  1
 15 14  1  0
 15 16  2  0
 17 16  1  0
 18 17  2  0
 19 20  2  0
 19 18  1  0
 20 15  1  0
 21 13  1  0
 22 21  2  0
 24 23  1  1
 24 26  1  0
 25 24  1  0
 26 27  1  1
 26 28  1  0
 27 21  1  0
 28 30  1  0
 29 28  2  0
M  END
$$$$
