FFT.pdb
     RDKit          3D

 30 31  0  0  1  0  0  0  0  0999 V2000
   21.7776  -10.3303  -19.1870 N   0  0  0  0  0  0  0  0  0  0  0  0
   21.8390   -8.8886  -19.0714 C   0  0  1  0  0  0  0  0  0  0  0  0
   21.0986   -8.3257  -20.2792 C   0  0  0  0  0  0  0  0  0  0  0  0
   21.9440   -8.5934  -21.4821 C   0  0  0  0  0  0  0  0  0  0  0  0
   21.5072   -9.3873  -22.5195 C   0  0  0  0  0  0  0  0  0  0  0  0
   22.3208   -9.6071  -23.6098 C   0  0  0  0  0  0  0  0  0  0  0  0
   23.5722   -9.0388  -23.6739 C   0  0  0  0  0  0  0  0  0  0  0  0
   24.0237   -8.2431  -22.6459 C   0  0  0  0  0  0  0  0  0  0  0  0
   23.1987   -8.0381  -21.5723 C   0  0  0  0  0  0  0  0  0  0  0  0
   21.2285   -8.4829  -17.8032 C   0  0  0  0  0  0  0  0  0  0  0  0
   20.3160   -9.1925  -17.3033 O   0  0  0  0  0  0  0  0  0  0  0  0
   21.5948   -7.3242  -17.0770 N   0  0  0  0  0  0  0  0  0  0  0  0
   20.9541   -7.0121  -15.8152 C   0  0  1  0  0  0  0  0  0  0  0  0
   21.8830   -7.1189  -14.6621 C   0  0  0  0  0  0  0  0  0  0  0  0
   22.2099   -8.5214  -14.3507 C   0  0  0  0  0  0  0  0  0  0  0  0
   23.3905   -9.1100  -14.7909 C   0  0  0  0  0  0  0  0  0  0  0  0
   23.7090  -10.4141  -14.4776 C   0  0  0  0  0  0  0  0  0  0  0  0
   22.8684  -11.1931  -13.7121 C   0  0  0  0  0  0  0  0  0  0  0  0
   21.6947  -10.6234  -13.2684 C   0  0  0  0  0  0  0  0  0  0  0  0
   21.3739   -9.3032  -13.5863 C   0  0  0  0  0  0  0  0  0  0  0  0
   20.4158   -5.6441  -15.9251 C   0  0  0  0  0  0  0  0  0  0  0  0
   21.1550   -4.6415  -16.0814 O   0  0  0  0  0  0  0  0  0  0  0  0
   18.5733   -3.9252  -18.4998 C   0  0  0  0  0  0  0  0  0  0  0  0
   17.7106   -3.9064  -17.2756 C   0  0  1  0  0  0  0  0  0  0  0  0
   16.7008   -4.8429  -17.3627 O   0  0  0  0  0  0  0  0  0  0  0  0
   18.5077   -4.0453  -15.9907 C   0  0  2  0  0  0  0  0  0  0  0  0
   19.0215   -5.3703  -15.8610 N   0  0  0  0  0  0  0  0  0  0  0  0
   17.6152   -3.6488  -14.8814 C   0  0  0  0  0  0  0  0  0  0  0  0
   17.2140   -4.4616  -14.0265 O   0  0  0  0  0  0  0  0  0  0  0  0
   17.2158   -2.3302  -14.7951 O   0  0  0  0  0  0  0  0  0  0  0  0
  2  1  1  6
  2  3  1  0
  3  4  1  0
  4  9  2  0
  5  6  2  0
  5  4  1  0
  6  7  1  0
  7  8  2  0
  9  8  1  0
 10  2  1  0
 10 11  2  0
 12 10  1  0
 13 12  1  0
 13 14  1  1
 15 14  1  0
 15 16  2  0
 17 16  1  0
 18 17  2  0
 19 20  2  0
 19 18  1  0
 20 15  1  0
 21 13  1  0
 22 21  2  0
 24 23  1  6
 24 26  1  0
 25 24  1  0
 26 27  1  1
 26 28  1  0
 27 21  1  0
 28 30  1  0
 29 28  2  0
M  END
$$$$
