FFT.pdb
     RDKit          3D

 30 31  0  0  1  0  0  0  0  0999 V2000
   19.2592  -10.6304  -20.6807 N   0  0  0  0  0  0  0  0  0  0  0  0
   20.3079   -9.6419  -20.5441 C   0  0  1  0  0  0  0  0  0  0  0  0
   20.0494   -8.5863  -21.6132 C   0  0  0  0  0  0  0  0  0  0  0  0
   20.4741   -9.1680  -22.9227 C   0  0  0  0  0  0  0  0  0  0  0  0
   19.5682   -9.7012  -23.8129 C   0  0  0  0  0  0  0  0  0  0  0  0
   20.0047  -10.2271  -25.0094 C   0  0  0  0  0  0  0  0  0  0  0  0
   21.3435  -10.2256  -25.3266 C   0  0  0  0  0  0  0  0  0  0  0  0
   22.2616   -9.6968  -24.4483 C   0  0  0  0  0  0  0  0  0  0  0  0
   21.8057   -9.1795  -23.2651 C   0  0  0  0  0  0  0  0  0  0  0  0
   20.2691   -9.0859  -19.1895 C   0  0  0  0  0  0  0  0  0  0  0  0
   19.1612   -8.9707  -18.6017 O   0  0  0  0  0  0  0  0  0  0  0  0
   21.4110   -8.6568  -18.4711 N   0  0  0  0  0  0  0  0  0  0  0  0
   21.2724   -8.0387  -17.1677 C   0  0  1  0  0  0  0  0  0  0  0  0
   22.4299   -8.3141  -16.2799 C   0  0  0  0  0  0  0  0  0  0  0  0
   22.2459   -7.7249  -14.9420 C   0  0  0  0  0  0  0  0  0  0  0  0
   21.7008   -8.4559  -13.8920 C   0  0  0  0  0  0  0  0  0  0  0  0
   21.5528   -7.9134  -12.6334 C   0  0  0  0  0  0  0  0  0  0  0  0
   21.9399   -6.6191  -12.3607 C   0  0  0  0  0  0  0  0  0  0  0  0
   22.4821   -5.8823  -13.3914 C   0  0  0  0  0  0  0  0  0  0  0  0
   22.6313   -6.4330  -14.6647 C   0  0  0  0  0  0  0  0  0  0  0  0
   21.1170   -6.5891  -17.3859 C   0  0  0  0  0  0  0  0  0  0  0  0
   21.9032   -5.9302  -18.1096 O   0  0  0  0  0  0  0  0  0  0  0  0
   18.4684   -4.5217  -19.0463 C   0  0  0  0  0  0  0  0  0  0  0  0
   18.5698   -4.1203  -17.6068 C   0  0  1  0  0  0  0  0  0  0  0  0
   17.5343   -4.6531  -16.8664 O   0  0  0  0  0  0  0  0  0  0  0  0
   19.9256   -4.4365  -17.0009 C   0  0  2  0  0  0  0  0  0  0  0  0
   20.0644   -5.8409  -16.7896 N   0  0  0  0  0  0  0  0  0  0  0  0
   20.0433   -3.6403  -15.7613 C   0  0  0  0  0  0  0  0  0  0  0  0
   19.9928   -4.1589  -14.6295 O   0  0  0  0  0  0  0  0  0  0  0  0
   20.2150   -2.2747  -15.8681 O   0  0  0  0  0  0  0  0  0  0  0  0
  2  1  1  1
  2  3  1  0
  3  4  1  0
  4  9  2  0
  5  6  2  0
  5  4  1  0
  6  7  1  0
  7  8  2  0
  9  8  1  0
 10  2  1  0
 10 11  2  0
 12 10  1  0
 13 12  1  0
 13 14  1  1
 15 14  1  0
 15 16  2  0
 17 16  1  0
 18 17  2  0
 19 20  2  0
 19 18  1  0
 20 15  1  0
 21 13  1  0
 22 21  2  0
 24 23  1  6
 24 26  1  0
 25 24  1  0
 26 27  1  1
 26 28  1  0
 27 21  1  0
 28 30  1  0
 29 28  2  0
M  END
$$$$
