FFT.pdb
     RDKit          3D

 30 31  0  0  1  0  0  0  0  0999 V2000
   21.8336  -18.3219  -14.6003 N   0  0  0  0  0  0  0  0  0  0  0  0
   22.0953  -19.4796  -15.4290 C   0  0  1  0  0  0  0  0  0  0  0  0
   22.0707  -18.9923  -16.8733 C   0  0  0  0  0  0  0  0  0  0  0  0
   20.6382  -18.7957  -17.2508 C   0  0  0  0  0  0  0  0  0  0  0  0
   20.0959  -17.5424  -17.4306 C   0  0  0  0  0  0  0  0  0  0  0  0
   18.7694  -17.4082  -17.7787 C   0  0  0  0  0  0  0  0  0  0  0  0
   17.9758  -18.5191  -17.9496 C   0  0  0  0  0  0  0  0  0  0  0  0
   18.5020  -19.7785  -17.7737 C   0  0  0  0  0  0  0  0  0  0  0  0
   19.8226  -19.8884  -17.4280 C   0  0  0  0  0  0  0  0  0  0  0  0
   23.3900  -20.0538  -15.0553 C   0  0  0  0  0  0  0  0  0  0  0  0
   24.3976  -19.3024  -14.9745 O   0  0  0  0  0  0  0  0  0  0  0  0
   23.6017  -21.4243  -14.7704 N   0  0  0  0  0  0  0  0  0  0  0  0
   24.9080  -21.8984  -14.3596 C   0  0  1  0  0  0  0  0  0  0  0  0
   24.8496  -22.7502  -13.1451 C   0  0  0  0  0  0  0  0  0  0  0  0
   24.7157  -21.9455  -11.9181 C   0  0  0  0  0  0  0  0  0  0  0  0
   23.4713  -21.5619  -11.4298 C   0  0  0  0  0  0  0  0  0  0  0  0
   23.3443  -20.8315  -10.2677 C   0  0  0  0  0  0  0  0  0  0  0  0
   24.4486  -20.4487   -9.5374 C   0  0  0  0  0  0  0  0  0  0  0  0
   25.6887  -20.8217  -10.0088 C   0  0  0  0  0  0  0  0  0  0  0  0
   25.8155  -21.5611  -11.1852 C   0  0  0  0  0  0  0  0  0  0  0  0
   25.4775  -22.6478  -15.4941 C   0  0  0  0  0  0  0  0  0  0  0  0
   24.8904  -23.6277  -16.0150 O   0  0  0  0  0  0  0  0  0  0  0  0
   25.9785  -21.8710  -18.9886 C   0  0  0  0  0  0  0  0  0  0  0  0
   27.3316  -22.1593  -18.4147 C   0  0  1  0  0  0  0  0  0  0  0  0
   28.0371  -20.9945  -18.1914 O   0  0  0  0  0  0  0  0  0  0  0  0
   27.2720  -23.0361  -17.1765 C   0  0  2  0  0  0  0  0  0  0  0  0
   26.7315  -22.3093  -16.0738 N   0  0  0  0  0  0  0  0  0  0  0  0
   28.6403  -23.5401  -16.9354 C   0  0  0  0  0  0  0  0  0  0  0  0
   29.2807  -23.2606  -15.9037 O   0  0  0  0  0  0  0  0  0  0  0  0
   29.2235  -24.3483  -17.8905 O   0  0  0  0  0  0  0  0  0  0  0  0
  2  1  1  1
  2  3  1  0
  3  4  1  0
  4  9  2  0
  5  6  2  0
  5  4  1  0
  6  7  1  0
  7  8  2  0
  9  8  1  0
 10  2  1  0
 10 11  2  0
 12 10  1  0
 13 12  1  0
 13 14  1  1
 15 14  1  0
 15 16  2  0
 17 16  1  0
 18 17  2  0
 19 20  2  0
 19 18  1  0
 20 15  1  0
 21 13  1  0
 22 21  2  0
 24 23  1  1
 24 26  1  0
 25 24  1  0
 26 27  1  1
 26 28  1  0
 27 21  1  0
 28 30  1  0
 29 28  2  0
M  END
$$$$
