FFT.pdb
     RDKit          3D

 30 31  0  0  1  0  0  0  0  0999 V2000
   27.0227  -21.9060  -13.7632 N   0  0  0  0  0  0  0  0  0  0  0  0
   26.9754  -20.6395  -13.0637 C   0  0  1  0  0  0  0  0  0  0  0  0
   25.8327  -19.8444  -13.6851 C   0  0  0  0  0  0  0  0  0  0  0  0
   26.4183  -19.0011  -14.7710 C   0  0  0  0  0  0  0  0  0  0  0  0
   26.3845  -19.3861  -16.0931 C   0  0  0  0  0  0  0  0  0  0  0  0
   26.9371  -18.5766  -17.0616 C   0  0  0  0  0  0  0  0  0  0  0  0
   27.5258  -17.3807  -16.7206 C   0  0  0  0  0  0  0  0  0  0  0  0
   27.5679  -16.9812  -15.4043 C   0  0  0  0  0  0  0  0  0  0  0  0
   27.0127  -17.8012  -14.4584 C   0  0  0  0  0  0  0  0  0  0  0  0
   26.7703  -20.8884  -11.6348 C   0  0  0  0  0  0  0  0  0  0  0  0
   26.1096  -21.8978  -11.2733 O   0  0  0  0  0  0  0  0  0  0  0  0
   27.2706  -20.0599  -10.6017 N   0  0  0  0  0  0  0  0  0  0  0  0
   26.9712  -20.3504   -9.2138 C   0  0  1  0  0  0  0  0  0  0  0  0
   27.8099  -19.5658   -8.2731 C   0  0  0  0  0  0  0  0  0  0  0  0
   27.5244  -19.9088   -6.8689 C   0  0  0  0  0  0  0  0  0  0  0  0
   28.5414  -20.2219   -5.9734 C   0  0  0  0  0  0  0  0  0  0  0  0
   28.2769  -20.5171   -4.6532 C   0  0  0  0  0  0  0  0  0  0  0  0
   26.9891  -20.5146   -4.1622 C   0  0  0  0  0  0  0  0  0  0  0  0
   25.9707  -20.2060   -5.0378 C   0  0  0  0  0  0  0  0  0  0  0  0
   26.2401  -19.9072   -6.3738 C   0  0  0  0  0  0  0  0  0  0  0  0
   25.5416  -20.0579   -9.0048 C   0  0  0  0  0  0  0  0  0  0  0  0
   24.9832  -19.0473   -9.4977 O   0  0  0  0  0  0  0  0  0  0  0  0
   23.1526  -19.7246  -10.4490 C   0  0  0  0  0  0  0  0  0  0  0  0
   22.6415  -20.7612   -9.4963 C   0  0  1  0  0  0  0  0  0  0  0  0
   22.7354  -22.0266  -10.0388 O   0  0  0  0  0  0  0  0  0  0  0  0
   23.2946  -20.6774   -8.1282 C   0  0  2  0  0  0  0  0  0  0  0  0
   24.7000  -20.9029   -8.2296 N   0  0  0  0  0  0  0  0  0  0  0  0
   22.6036  -21.6512   -7.2571 C   0  0  0  0  0  0  0  0  0  0  0  0
   21.3895  -21.5625   -6.9912 O   0  0  0  0  0  0  0  0  0  0  0  0
   23.3345  -22.6931   -6.7227 O   0  0  0  0  0  0  0  0  0  0  0  0
  2  1  1  6
  2  3  1  0
  3  4  1  0
  4  9  2  0
  5  6  2  0
  5  4  1  0
  6  7  1  0
  7  8  2  0
  9  8  1  0
 10  2  1  0
 10 11  2  0
 12 10  1  0
 13 12  1  0
 13 14  1  1
 15 14  1  0
 15 16  2  0
 17 16  1  0
 18 17  2  0
 19 20  2  0
 19 18  1  0
 20 15  1  0
 21 13  1  0
 22 21  2  0
 24 23  1  6
 24 26  1  0
 25 24  1  0
 26 27  1  6
 26 28  1  0
 27 21  1  0
 28 30  1  0
 29 28  2  0
M  END
$$$$
