FFT.pdb
     RDKit          3D

 30 31  0  0  1  0  0  0  0  0999 V2000
   19.3651  -13.1290  -18.5158 N   0  0  0  0  0  0  0  0  0  0  0  0
   19.5949  -11.7473  -18.8813 C   0  0  1  0  0  0  0  0  0  0  0  0
   18.3671  -11.2969  -19.6646 C   0  0  0  0  0  0  0  0  0  0  0  0
   18.4088  -11.9865  -20.9898 C   0  0  0  0  0  0  0  0  0  0  0  0
   17.5384  -13.0046  -21.3108 C   0  0  0  0  0  0  0  0  0  0  0  0
   17.6130  -13.6123  -22.5453 C   0  0  0  0  0  0  0  0  0  0  0  0
   18.5531  -13.2110  -23.4663 C   0  0  0  0  0  0  0  0  0  0  0  0
   19.4302  -12.1953  -23.1613 C   0  0  0  0  0  0  0  0  0  0  0  0
   19.3382  -11.6054  -21.9288 C   0  0  0  0  0  0  0  0  0  0  0  0
   19.8020  -10.9578  -17.6650 C   0  0  0  0  0  0  0  0  0  0  0  0
   19.0864  -11.1840  -16.6536 O   0  0  0  0  0  0  0  0  0  0  0  0
   20.7701   -9.9330  -17.5352 N   0  0  0  0  0  0  0  0  0  0  0  0
   20.8435   -9.1374  -16.3262 C   0  0  1  0  0  0  0  0  0  0  0  0
   22.2334   -8.9849  -15.8274 C   0  0  0  0  0  0  0  0  0  0  0  0
   22.2914   -8.1483  -14.6159 C   0  0  0  0  0  0  0  0  0  0  0  0
   22.4890   -6.7736  -14.6876 C   0  0  0  0  0  0  0  0  0  0  0  0
   22.5170   -5.9869  -13.5560 C   0  0  0  0  0  0  0  0  0  0  0  0
   22.3499   -6.5308  -12.3007 C   0  0  0  0  0  0  0  0  0  0  0  0
   22.1529   -7.8919  -12.2137 C   0  0  0  0  0  0  0  0  0  0  0  0
   22.1247   -8.6867  -13.3601 C   0  0  0  0  0  0  0  0  0  0  0  0
   20.2530   -7.8218  -16.6323 C   0  0  0  0  0  0  0  0  0  0  0  0
   20.6294   -7.1266  -17.6076 O   0  0  0  0  0  0  0  0  0  0  0  0
   16.9205   -6.6282  -17.7840 C   0  0  0  0  0  0  0  0  0  0  0  0
   17.1968   -6.0539  -16.4286 C   0  0  1  0  0  0  0  0  0  0  0  0
   16.5052   -6.7351  -15.4478 O   0  0  0  0  0  0  0  0  0  0  0  0
   18.6805   -5.9602  -16.1196 C   0  0  2  0  0  0  0  0  0  0  0  0
   19.2166   -7.2531  -15.8413 N   0  0  0  0  0  0  0  0  0  0  0  0
   18.8312   -5.0071  -15.0001 C   0  0  0  0  0  0  0  0  0  0  0  0
   19.1830   -5.3684  -13.8607 O   0  0  0  0  0  0  0  0  0  0  0  0
   18.5715   -3.6712  -15.2315 O   0  0  0  0  0  0  0  0  0  0  0  0
  2  1  1  1
  2  3  1  0
  3  4  1  0
  4  9  2  0
  5  6  2  0
  5  4  1  0
  6  7  1  0
  7  8  2  0
  9  8  1  0
 10  2  1  0
 10 11  2  0
 12 10  1  0
 13 12  1  0
 13 14  1  6
 15 14  1  0
 15 16  2  0
 17 16  1  0
 18 17  2  0
 19 20  2  0
 19 18  1  0
 20 15  1  0
 21 13  1  0
 22 21  2  0
 24 23  1  6
 24 26  1  0
 25 24  1  0
 26 27  1  1
 26 28  1  0
 27 21  1  0
 28 30  1  0
 29 28  2  0
M  END
$$$$
