FFT.pdb
     RDKit          3D

 30 31  0  0  1  0  0  0  0  0999 V2000
   22.6288  -12.8744  -18.0802 N   0  0  0  0  0  0  0  0  0  0  0  0
   23.1296  -11.5423  -18.3455 C   0  0  1  0  0  0  0  0  0  0  0  0
   22.4303  -11.0615  -19.6119 C   0  0  0  0  0  0  0  0  0  0  0  0
   23.0319  -11.8049  -20.7603 C   0  0  0  0  0  0  0  0  0  0  0  0
   24.3361  -11.6061  -21.1560 C   0  0  0  0  0  0  0  0  0  0  0  0
   24.8495  -12.3140  -22.2209 C   0  0  0  0  0  0  0  0  0  0  0  0
   24.0688  -13.2227  -22.8975 C   0  0  0  0  0  0  0  0  0  0  0  0
   22.7637  -13.4333  -22.5150 C   0  0  0  0  0  0  0  0  0  0  0  0
   22.2743  -12.7189  -21.4541 C   0  0  0  0  0  0  0  0  0  0  0  0
   22.8469  -10.6853  -17.1917 C   0  0  0  0  0  0  0  0  0  0  0  0
   21.9872  -11.0517  -16.3474 O   0  0  0  0  0  0  0  0  0  0  0  0
   23.4822   -9.4443  -16.9460 N   0  0  0  0  0  0  0  0  0  0  0  0
   23.1578   -8.6716  -15.7638 C   0  0  1  0  0  0  0  0  0  0  0  0
   24.3471   -8.3941  -14.9197 C   0  0  0  0  0  0  0  0  0  0  0  0
   25.4914   -9.2453  -15.2895 C   0  0  0  0  0  0  0  0  0  0  0  0
   26.3686   -8.8862  -16.3072 C   0  0  0  0  0  0  0  0  0  0  0  0
   27.4544   -9.6692  -16.6359 C   0  0  0  0  0  0  0  0  0  0  0  0
   27.7181  -10.8456  -15.9680 C   0  0  0  0  0  0  0  0  0  0  0  0
   26.8577  -11.2145  -14.9568 C   0  0  0  0  0  0  0  0  0  0  0  0
   25.7592  -10.4207  -14.6253 C   0  0  0  0  0  0  0  0  0  0  0  0
   22.5384   -7.4141  -16.2201 C   0  0  0  0  0  0  0  0  0  0  0  0
   23.0638   -6.6856  -17.0971 O   0  0  0  0  0  0  0  0  0  0  0  0
   21.1600   -6.2424  -18.6566 C   0  0  0  0  0  0  0  0  0  0  0  0
   20.0889   -6.1108  -17.6178 C   0  0  1  0  0  0  0  0  0  0  0  0
   19.2636   -7.2167  -17.6095 O   0  0  0  0  0  0  0  0  0  0  0  0
   20.6412   -5.8011  -16.2378 C   0  0  2  0  0  0  0  0  0  0  0  0
   21.3030   -6.9431  -15.6954 N   0  0  0  0  0  0  0  0  0  0  0  0
   19.5089   -5.3300  -15.4130 C   0  0  0  0  0  0  0  0  0  0  0  0
   19.0853   -5.9736  -14.4338 O   0  0  0  0  0  0  0  0  0  0  0  0
   18.9040   -4.1342  -15.7443 O   0  0  0  0  0  0  0  0  0  0  0  0
  2  1  1  1
  2  3  1  0
  3  4  1  0
  4  9  2  0
  5  6  2  0
  5  4  1  0
  6  7  1  0
  7  8  2  0
  9  8  1  0
 10  2  1  0
 10 11  2  0
 12 10  1  0
 13 12  1  0
 13 14  1  6
 15 14  1  0
 15 16  2  0
 17 16  1  0
 18 17  2  0
 19 20  2  0
 19 18  1  0
 20 15  1  0
 21 13  1  0
 22 21  2  0
 24 23  1  6
 24 26  1  0
 25 24  1  0
 26 27  1  1
 26 28  1  0
 27 21  1  0
 28 30  1  0
 29 28  2  0
M  END
$$$$
