FFT.pdb
     RDKit          3D

 30 31  0  0  1  0  0  0  0  0999 V2000
   27.7538  -21.8644  -18.0765 N   0  0  0  0  0  0  0  0  0  0  0  0
   27.6542  -20.6691  -17.2660 C   0  0  1  0  0  0  0  0  0  0  0  0
   26.7926  -19.6855  -18.0497 C   0  0  0  0  0  0  0  0  0  0  0  0
   27.6922  -18.5935  -18.5309 C   0  0  0  0  0  0  0  0  0  0  0  0
   28.0042  -17.5054  -17.7461 C   0  0  0  0  0  0  0  0  0  0  0  0
   28.8383  -16.5216  -18.2310 C   0  0  0  0  0  0  0  0  0  0  0  0
   29.3662  -16.6147  -19.4982 C   0  0  0  0  0  0  0  0  0  0  0  0
   29.0645  -17.6953  -20.2952 C   0  0  0  0  0  0  0  0  0  0  0  0
   28.2335  -18.6611  -19.7931 C   0  0  0  0  0  0  0  0  0  0  0  0
   27.0670  -21.0163  -15.9698 C   0  0  0  0  0  0  0  0  0  0  0  0
   26.3067  -22.0168  -15.8854 O   0  0  0  0  0  0  0  0  0  0  0  0
   27.2941  -20.2949  -14.7730 N   0  0  0  0  0  0  0  0  0  0  0  0
   26.6530  -20.6970  -13.5372 C   0  0  1  0  0  0  0  0  0  0  0  0
   27.3436  -20.1632  -12.3364 C   0  0  0  0  0  0  0  0  0  0  0  0
   26.5978  -20.4570  -11.1001 C   0  0  0  0  0  0  0  0  0  0  0  0
   26.5162  -21.7469  -10.5867 C   0  0  0  0  0  0  0  0  0  0  0  0
   25.8407  -22.0180   -9.4161 C   0  0  0  0  0  0  0  0  0  0  0  0
   25.2150  -21.0190   -8.7019 C   0  0  0  0  0  0  0  0  0  0  0  0
   25.2874  -19.7355   -9.1982 C   0  0  0  0  0  0  0  0  0  0  0  0
   25.9717  -19.4628  -10.3831 C   0  0  0  0  0  0  0  0  0  0  0  0
   25.2597  -20.2187  -13.5920 C   0  0  0  0  0  0  0  0  0  0  0  0
   24.9706  -19.0090  -13.7632 O   0  0  0  0  0  0  0  0  0  0  0  0
   22.5531  -20.8006  -16.0052 C   0  0  0  0  0  0  0  0  0  0  0  0
   22.0629  -21.2691  -14.6697 C   0  0  1  0  0  0  0  0  0  0  0  0
   22.0722  -22.6468  -14.5902 O   0  0  0  0  0  0  0  0  0  0  0  0
   22.8043  -20.6261  -13.5111 C   0  0  2  0  0  0  0  0  0  0  0  0
   24.1500  -21.0977  -13.4542 N   0  0  0  0  0  0  0  0  0  0  0  0
   22.0280  -20.9127  -12.2865 C   0  0  0  0  0  0  0  0  0  0  0  0
   22.4281  -21.7087  -11.4154 O   0  0  0  0  0  0  0  0  0  0  0  0
   20.8179  -20.2729  -12.1077 O   0  0  0  0  0  0  0  0  0  0  0  0
  2  1  1  6
  2  3  1  0
  3  4  1  0
  4  9  2  0
  5  6  2  0
  5  4  1  0
  6  7  1  0
  7  8  2  0
  9  8  1  0
 10  2  1  0
 10 11  2  0
 12 10  1  0
 13 12  1  0
 13 14  1  1
 15 14  1  0
 15 16  2  0
 17 16  1  0
 18 17  2  0
 19 20  2  0
 19 18  1  0
 20 15  1  0
 21 13  1  0
 22 21  2  0
 24 23  1  6
 24 26  1  0
 25 24  1  0
 26 27  1  1
 26 28  1  0
 27 21  1  0
 28 30  1  0
 29 28  2  0
M  END
$$$$
