FFT.pdb
     RDKit          3D

 30 31  0  0  1  0  0  0  0  0999 V2000
   20.7196  -31.5050  -11.4600 N   0  0  0  0  0  0  0  0  0  0  0  0
   21.8427  -30.8831  -10.7911 C   0  0  1  0  0  0  0  0  0  0  0  0
   21.2571  -29.9734   -9.7171 C   0  0  0  0  0  0  0  0  0  0  0  0
   20.6055  -28.8244  -10.4160 C   0  0  0  0  0  0  0  0  0  0  0  0
   19.2420  -28.6315  -10.3890 C   0  0  0  0  0  0  0  0  0  0  0  0
   18.6839  -27.5577  -11.0480 C   0  0  0  0  0  0  0  0  0  0  0  0
   19.4787  -26.6706  -11.7370 C   0  0  0  0  0  0  0  0  0  0  0  0
   20.8428  -26.8489  -11.7739 C   0  0  0  0  0  0  0  0  0  0  0  0
   21.3759  -27.9228  -11.1120 C   0  0  0  0  0  0  0  0  0  0  0  0
   22.7043  -31.9265  -10.2303 C   0  0  0  0  0  0  0  0  0  0  0  0
   22.1992  -33.0323   -9.9011 O   0  0  0  0  0  0  0  0  0  0  0  0
   24.0977  -31.7841  -10.0243 N   0  0  0  0  0  0  0  0  0  0  0  0
   24.8934  -32.9056   -9.5669 C   0  0  1  0  0  0  0  0  0  0  0  0
   26.0470  -33.1874  -10.4579 C   0  0  0  0  0  0  0  0  0  0  0  0
   25.6555  -34.0085  -11.6170 C   0  0  0  0  0  0  0  0  0  0  0  0
   25.5814  -35.3950  -11.5368 C   0  0  0  0  0  0  0  0  0  0  0  0
   25.1898  -36.1617  -12.6133 C   0  0  0  0  0  0  0  0  0  0  0  0
   24.8538  -35.5854  -13.8193 C   0  0  0  0  0  0  0  0  0  0  0  0
   24.9222  -34.2123  -13.9139 C   0  0  0  0  0  0  0  0  0  0  0  0
   25.3187  -33.4377  -12.8232 C   0  0  0  0  0  0  0  0  0  0  0  0
   25.3545  -32.5870   -8.2035 C   0  0  0  0  0  0  0  0  0  0  0  0
   25.9356  -31.5096   -7.9250 O   0  0  0  0  0  0  0  0  0  0  0  0
   23.6607  -31.9075   -4.9880 C   0  0  0  0  0  0  0  0  0  0  0  0
   24.5209  -33.1204   -4.8081 C   0  0  1  0  0  0  0  0  0  0  0  0
   23.7634  -34.2739   -4.8112 O   0  0  0  0  0  0  0  0  0  0  0  0
   25.6634  -33.1858   -5.8061 C   0  0  2  0  0  0  0  0  0  0  0  0
   25.1709  -33.4810   -7.1125 N   0  0  0  0  0  0  0  0  0  0  0  0
   26.6253  -34.1871   -5.2995 C   0  0  0  0  0  0  0  0  0  0  0  0
   26.8516  -35.2558   -5.8987 O   0  0  0  0  0  0  0  0  0  0  0  0
   27.2930  -33.9229   -4.1205 O   0  0  0  0  0  0  0  0  0  0  0  0
  2  1  1  1
  2  3  1  0
  3  4  1  0
  4  9  2  0
  5  6  2  0
  5  4  1  0
  6  7  1  0
  7  8  2  0
  9  8  1  0
 10  2  1  0
 10 11  2  0
 12 10  1  0
 13 12  1  0
 13 14  1  6
 15 14  1  0
 15 16  2  0
 17 16  1  0
 18 17  2  0
 19 20  2  0
 19 18  1  0
 20 15  1  0
 21 13  1  0
 22 21  2  0
 24 23  1  6
 24 26  1  0
 25 24  1  0
 26 27  1  6
 26 28  1  0
 27 21  1  0
 28 30  1  0
 29 28  2  0
M  END
$$$$
