FFT.pdb
     RDKit          3D

 30 31  0  0  1  0  0  0  0  0999 V2000
   15.1743  -11.5562    7.9947 N   0  0  0  0  0  0  0  0  0  0  0  0
   16.4950  -12.0350    7.6454 C   0  0  1  0  0  0  0  0  0  0  0  0
   17.4533  -11.4538    8.6787 C   0  0  0  0  0  0  0  0  0  0  0  0
   18.8388  -11.8181    8.2531 C   0  0  0  0  0  0  0  0  0  0  0  0
   19.4664  -11.1937    7.1979 C   0  0  0  0  0  0  0  0  0  0  0  0
   20.7451  -11.5619    6.8401 C   0  0  0  0  0  0  0  0  0  0  0  0
   21.4059  -12.5526    7.5294 C   0  0  0  0  0  0  0  0  0  0  0  0
   20.7931  -13.1865    8.5861 C   0  0  0  0  0  0  0  0  0  0  0  0
   19.5222  -12.8046    8.9243 C   0  0  0  0  0  0  0  0  0  0  0  0
   16.4904  -13.4999    7.6497 C   0  0  0  0  0  0  0  0  0  0  0  0
   15.7493  -14.1118    8.4636 O   0  0  0  0  0  0  0  0  0  0  0  0
   17.2754  -14.3018    6.7867 N   0  0  0  0  0  0  0  0  0  0  0  0
   17.1560  -15.7459    6.8110 C   0  0  1  0  0  0  0  0  0  0  0  0
   16.4521  -16.2801    5.6181 C   0  0  0  0  0  0  0  0  0  0  0  0
   17.0678  -15.8120    4.3640 C   0  0  0  0  0  0  0  0  0  0  0  0
   16.6663  -14.6298    3.7513 C   0  0  0  0  0  0  0  0  0  0  0  0
   17.2601  -14.1781    2.5922 C   0  0  0  0  0  0  0  0  0  0  0  0
   18.2806  -14.8809    1.9888 C   0  0  0  0  0  0  0  0  0  0  0  0
   18.6894  -16.0544    2.5845 C   0  0  0  0  0  0  0  0  0  0  0  0
   18.0874  -16.5101    3.7578 C   0  0  0  0  0  0  0  0  0  0  0  0
   18.5208  -16.2958    6.8997 C   0  0  0  0  0  0  0  0  0  0  0  0
   19.4458  -15.9250    6.1362 O   0  0  0  0  0  0  0  0  0  0  0  0
   21.5619  -16.1382    8.9451 C   0  0  0  0  0  0  0  0  0  0  0  0
   20.9631  -17.5053    9.0710 C   0  0  1  0  0  0  0  0  0  0  0  0
   20.2302  -17.6235   10.2342 O   0  0  0  0  0  0  0  0  0  0  0  0
   20.1609  -17.9122    7.8477 C   0  0  2  0  0  0  0  0  0  0  0  0
   18.8795  -17.2842    7.8576 N   0  0  0  0  0  0  0  0  0  0  0  0
   20.0928  -19.3886    7.8449 C   0  0  0  0  0  0  0  0  0  0  0  0
   21.1089  -20.1018    7.7384 O   0  0  0  0  0  0  0  0  0  0  0  0
   18.8571  -19.9922    7.9647 O   0  0  0  0  0  0  0  0  0  0  0  0
  2  1  1  1
  2  3  1  0
  3  4  1  0
  4  9  2  0
  5  6  2  0
  5  4  1  0
  6  7  1  0
  7  8  2  0
  9  8  1  0
 10  2  1  0
 10 11  2  0
 12 10  1  0
 13 12  1  0
 13 14  1  6
 15 14  1  0
 15 16  2  0
 17 16  1  0
 18 17  2  0
 19 20  2  0
 19 18  1  0
 20 15  1  0
 21 13  1  0
 22 21  2  0
 24 23  1  6
 24 26  1  0
 25 24  1  0
 26 27  1  1
 26 28  1  0
 27 21  1  0
 28 30  1  0
 29 28  2  0
M  END
$$$$
