FFT.pdb
     RDKit          3D

 30 31  0  0  1  0  0  0  0  0999 V2000
   16.8140  -19.3809    2.4481 N   0  0  0  0  0  0  0  0  0  0  0  0
   16.0485  -18.3859    3.1689 C   0  0  1  0  0  0  0  0  0  0  0  0
   15.1898  -19.1451    4.1740 C   0  0  0  0  0  0  0  0  0  0  0  0
   14.0089  -19.6822    3.4322 C   0  0  0  0  0  0  0  0  0  0  0  0
   12.9740  -18.8712    3.0216 C   0  0  0  0  0  0  0  0  0  0  0  0
   11.9043  -19.4097    2.3399 C   0  0  0  0  0  0  0  0  0  0  0  0
   11.8583  -20.7567    2.0633 C   0  0  0  0  0  0  0  0  0  0  0  0
   12.8841  -21.5808    2.4666 C   0  0  0  0  0  0  0  0  0  0  0  0
   13.9371  -21.0244    3.1425 C   0  0  0  0  0  0  0  0  0  0  0  0
   16.9696  -17.4489    3.8165 C   0  0  0  0  0  0  0  0  0  0  0  0
   18.0690  -17.8730    4.2610 O   0  0  0  0  0  0  0  0  0  0  0  0
   16.7124  -16.0671    3.9856 N   0  0  0  0  0  0  0  0  0  0  0  0
   17.6667  -15.2184    4.6706 C   0  0  1  0  0  0  0  0  0  0  0  0
   17.5548  -13.7938    4.2681 C   0  0  0  0  0  0  0  0  0  0  0  0
   18.5421  -12.9495    4.9631 C   0  0  0  0  0  0  0  0  0  0  0  0
   18.2168  -12.2479    6.1190 C   0  0  0  0  0  0  0  0  0  0  0  0
   19.1474  -11.4788    6.7842 C   0  0  0  0  0  0  0  0  0  0  0  0
   20.4445  -11.3718    6.3310 C   0  0  0  0  0  0  0  0  0  0  0  0
   20.7819  -12.0615    5.1867 C   0  0  0  0  0  0  0  0  0  0  0  0
   19.8388  -12.8397    4.5146 C   0  0  0  0  0  0  0  0  0  0  0  0
   17.4274  -15.3709    6.1172 C   0  0  0  0  0  0  0  0  0  0  0  0
   16.2761  -15.3293    6.6162 O   0  0  0  0  0  0  0  0  0  0  0  0
   17.2436  -18.0145    8.3195 C   0  0  0  0  0  0  0  0  0  0  0  0
   18.3556  -17.1698    8.8611 C   0  0  1  0  0  0  0  0  0  0  0  0
   19.5876  -17.7076    8.5496 O   0  0  0  0  0  0  0  0  0  0  0  0
   18.2468  -15.7140    8.4436 C   0  0  2  0  0  0  0  0  0  0  0  0
   18.4870  -15.5753    7.0438 N   0  0  0  0  0  0  0  0  0  0  0  0
   19.1945  -14.9502    9.2820 C   0  0  0  0  0  0  0  0  0  0  0  0
   20.2334  -14.4420    8.8186 O   0  0  0  0  0  0  0  0  0  0  0  0
   18.9128  -14.7982   10.6249 O   0  0  0  0  0  0  0  0  0  0  0  0
  2  1  1  1
  2  3  1  0
  3  4  1  0
  4  9  2  0
  5  6  2  0
  5  4  1  0
  6  7  1  0
  7  8  2  0
  9  8  1  0
 10  2  1  0
 10 11  2  0
 12 10  1  0
 13 12  1  0
 13 14  1  6
 15 14  1  0
 15 16  2  0
 17 16  1  0
 18 17  2  0
 19 20  2  0
 19 18  1  0
 20 15  1  0
 21 13  1  0
 22 21  2  0
 24 23  1  6
 24 26  1  0
 25 24  1  0
 26 27  1  6
 26 28  1  0
 27 21  1  0
 28 30  1  0
 29 28  2  0
M  END
$$$$
