YHM.pdb
     RDKit          3D

 31 32  0  0  1  0  0  0  0  0999 V2000
    7.3282  -11.7573   26.8148 O   0  0  0  0  0  0  0  0  0  0  0  0
    7.0187  -12.7966   25.9525 C   0  0  0  0  0  0  0  0  0  0  0  0
    6.2683  -13.8902   26.3151 C   0  0  0  0  0  0  0  0  0  0  0  0
    5.9888  -14.8903   25.4300 C   0  0  0  0  0  0  0  0  0  0  0  0
    6.4826  -14.7825   24.1389 C   0  0  0  0  0  0  0  0  0  0  0  0
    6.1801  -15.8779   23.2057 C   0  0  0  0  0  0  0  0  0  0  0  0
    7.0363  -17.1029   23.3985 C   0  0  2  0  0  0  0  0  0  0  0  0
    7.5135  -17.0982   24.7938 N   0  0  0  0  0  0  0  0  0  0  0  0
    8.1790  -17.0496   22.4604 C   0  0  0  0  0  0  0  0  0  0  0  0
    7.9782  -17.1152   21.2242 O   0  0  0  0  0  0  0  0  0  0  0  0
    7.2303  -13.7146   23.7408 C   0  0  0  0  0  0  0  0  0  0  0  0
    7.4987  -12.7185   24.6519 C   0  0  0  0  0  0  0  0  0  0  0  0
    9.5062  -16.9236   22.9574 N   0  0  0  0  0  0  0  0  0  0  0  0
   10.6368  -16.7684   22.0843 C   0  0  1  0  0  0  0  0  0  0  0  0
   10.3739  -15.8607   20.9220 C   0  0  0  0  0  0  0  0  0  0  0  0
    9.7392  -16.5093   19.7817 C   0  0  0  0  0  0  0  0  0  0  0  0
   10.1848  -17.6402   19.1499 C   0  0  0  0  0  0  0  0  0  0  0  0
    9.3052  -17.9006   18.1478 N   0  0  0  0  0  0  0  0  0  0  0  0
    8.3541  -16.9696   18.1583 C   0  0  0  0  0  0  0  0  0  0  0  0
    8.6238  -16.1208   19.1595 N   0  0  0  0  0  0  0  0  0  0  0  0
   11.8418  -16.3874   22.8610 C   0  0  0  0  0  0  0  0  0  0  0  0
   12.9159  -17.0342   22.6168 O   0  0  0  0  0  0  0  0  0  0  0  0
    9.8090  -13.5351   28.8623 C   0  0  0  0  0  0  0  0  0  0  0  0
    9.9291  -15.3303   28.6305 S   0  0  0  0  0  0  0  0  0  0  0  0
   11.2835  -15.7634   27.5310 C   0  0  0  0  0  0  0  0  0  0  0  0
   11.1206  -15.3870   26.1113 C   0  0  0  0  0  0  0  0  0  0  0  0
   12.2401  -15.7070   25.2173 C   0  0  2  0  0  0  0  0  0  0  0  0
   11.8868  -15.3907   23.8229 N   0  0  0  0  0  0  0  0  0  0  0  0
   12.7633  -17.0575   25.3201 C   0  0  0  0  0  0  0  0  0  0  0  0
   12.4058  -18.0596   24.6849 O   0  0  0  0  0  0  0  0  0  0  0  0
   13.8011  -17.2750   26.2460 O   0  0  0  0  0  0  0  0  0  0  0  0
  2  1  1  0
  3  2  2  0
  4  3  1  0
  5  4  2  0
  5 11  1  0
  6  5  1  0
  7  6  1  0
  7  8  1  1
  9 10  2  0
  9  7  1  0
 11 12  2  0
 12  2  1  0
 13  9  1  0
 14 15  1  6
 14 13  1  0
 15 16  1  0
 16 20  1  0
 16 17  2  0
 17 18  1  0
 19 18  1  0
 20 19  2  0
 21 14  1  0
 22 21  2  0
 24 23  1  0
 24 25  1  0
 26 25  1  0
 27 26  1  1
 27 28  1  0
 28 21  1  0
 29 31  1  0
 29 27  1  0
 30 29  2  0
M  END
$$$$
