YHM.pdb
     RDKit          3D

 31 32  0  0  1  0  0  0  0  0999 V2000
    7.6267  -12.0444   17.2335 O   0  0  0  0  0  0  0  0  0  0  0  0
    7.7702  -12.8760   18.3322 C   0  0  0  0  0  0  0  0  0  0  0  0
    8.8660  -12.8599   19.1627 C   0  0  0  0  0  0  0  0  0  0  0  0
    8.9630  -13.6989   20.2342 C   0  0  0  0  0  0  0  0  0  0  0  0
    7.9210  -14.5814   20.4744 C   0  0  0  0  0  0  0  0  0  0  0  0
    8.0526  -15.4852   21.6270 C   0  0  0  0  0  0  0  0  0  0  0  0
    8.9336  -16.6810   21.3723 C   0  0  2  0  0  0  0  0  0  0  0  0
    8.3416  -17.4411   20.2559 N   0  0  0  0  0  0  0  0  0  0  0  0
    8.9878  -17.5135   22.5941 C   0  0  0  0  0  0  0  0  0  0  0  0
    8.7261  -18.7383   22.5297 O   0  0  0  0  0  0  0  0  0  0  0  0
    6.8182  -14.6283   19.6747 C   0  0  0  0  0  0  0  0  0  0  0  0
    6.7436  -13.7719   18.5999 C   0  0  0  0  0  0  0  0  0  0  0  0
    9.3369  -16.9277   23.8429 N   0  0  0  0  0  0  0  0  0  0  0  0
   10.6549  -17.0505   24.4018 C   0  0  1  0  0  0  0  0  0  0  0  0
   11.7492  -16.7572   23.4217 C   0  0  0  0  0  0  0  0  0  0  0  0
   12.0943  -17.8739   22.5511 C   0  0  0  0  0  0  0  0  0  0  0  0
   11.4949  -19.1057   22.5481 C   0  0  0  0  0  0  0  0  0  0  0  0
   12.1159  -19.8405   21.5889 N   0  0  0  0  0  0  0  0  0  0  0  0
   13.0611  -19.0948   21.0212 C   0  0  0  0  0  0  0  0  0  0  0  0
   13.0440  -17.8927   21.6131 N   0  0  0  0  0  0  0  0  0  0  0  0
   10.7630  -16.2579   25.6510 C   0  0  0  0  0  0  0  0  0  0  0  0
   11.9077  -16.2229   26.2169 O   0  0  0  0  0  0  0  0  0  0  0  0
    7.2379  -10.8765   27.4966 C   0  0  0  0  0  0  0  0  0  0  0  0
    6.6327  -12.4140   26.7478 S   0  0  0  0  0  0  0  0  0  0  0  0
    7.9627  -13.5998   26.5116 C   0  0  0  0  0  0  0  0  0  0  0  0
    8.8770  -13.7952   27.6560 C   0  0  0  0  0  0  0  0  0  0  0  0
    9.9417  -14.7903   27.4800 C   0  0  2  0  0  0  0  0  0  0  0  0
    9.7228  -15.5595   26.2433 N   0  0  0  0  0  0  0  0  0  0  0  0
   10.1651  -15.6807   28.6050 C   0  0  0  0  0  0  0  0  0  0  0  0
   10.5863  -15.3868   29.7327 O   0  0  0  0  0  0  0  0  0  0  0  0
    9.8744  -17.0444   28.4118 O   0  0  0  0  0  0  0  0  0  0  0  0
  2  1  1  0
  3  2  2  0
  4  3  1  0
  5  4  2  0
  5 11  1  0
  6  5  1  0
  7  6  1  0
  7  8  1  6
  9 10  2  0
  9  7  1  0
 11 12  2  0
 12  2  1  0
 13  9  1  0
 14 15  1  6
 14 13  1  0
 15 16  1  0
 16 20  1  0
 16 17  2  0
 17 18  1  0
 19 18  1  0
 20 19  2  0
 21 14  1  0
 22 21  2  0
 24 23  1  0
 24 25  1  0
 26 25  1  0
 27 26  1  1
 27 28  1  0
 28 21  1  0
 29 31  1  0
 29 27  1  0
 30 29  2  0
M  END
$$$$
