YHM.pdb
     RDKit          3D

 31 32  0  0  1  0  0  0  0  0999 V2000
    8.5862  -11.6175   16.6249 O   0  0  0  0  0  0  0  0  0  0  0  0
    8.4172  -12.4677   17.7056 C   0  0  0  0  0  0  0  0  0  0  0  0
    7.1891  -12.8765   18.1693 C   0  0  0  0  0  0  0  0  0  0  0  0
    7.0722  -13.7160   19.2385 C   0  0  0  0  0  0  0  0  0  0  0  0
    8.2316  -14.1562   19.8584 C   0  0  0  0  0  0  0  0  0  0  0  0
    8.0815  -15.0498   21.0166 C   0  0  0  0  0  0  0  0  0  0  0  0
    8.5121  -16.4703   20.7561 C   0  0  2  0  0  0  0  0  0  0  0  0
    7.6290  -17.0191   19.7104 N   0  0  0  0  0  0  0  0  0  0  0  0
    8.3846  -17.2534   22.0048 C   0  0  0  0  0  0  0  0  0  0  0  0
    7.2516  -17.6077   22.4091 O   0  0  0  0  0  0  0  0  0  0  0  0
    9.4675  -13.7738   19.4291 C   0  0  0  0  0  0  0  0  0  0  0  0
    9.5594  -12.9264   18.3484 C   0  0  0  0  0  0  0  0  0  0  0  0
    9.5451  -17.6060   22.7487 N   0  0  0  0  0  0  0  0  0  0  0  0
    9.4739  -18.0245   24.1214 C   0  0  1  0  0  0  0  0  0  0  0  0
    9.7991  -19.4729   24.3221 C   0  0  0  0  0  0  0  0  0  0  0  0
   10.0047  -20.2214   23.0886 C   0  0  0  0  0  0  0  0  0  0  0  0
    9.9113  -19.7180   21.8180 C   0  0  0  0  0  0  0  0  0  0  0  0
   10.1765  -20.7455   20.9698 N   0  0  0  0  0  0  0  0  0  0  0  0
   10.4239  -21.8402   21.6852 C   0  0  0  0  0  0  0  0  0  0  0  0
   10.3177  -21.5147   22.9808 N   0  0  0  0  0  0  0  0  0  0  0  0
   10.2791  -17.1216   24.9799 C   0  0  0  0  0  0  0  0  0  0  0  0
   11.2199  -17.6557   25.6591 O   0  0  0  0  0  0  0  0  0  0  0  0
    7.5606  -11.7263   28.3691 C   0  0  0  0  0  0  0  0  0  0  0  0
    6.8485  -12.4843   26.8827 S   0  0  0  0  0  0  0  0  0  0  0  0
    7.1004  -14.2639   26.8654 C   0  0  0  0  0  0  0  0  0  0  0  0
    7.9934  -14.7888   25.8114 C   0  0  0  0  0  0  0  0  0  0  0  0
    9.3383  -15.1955   26.2364 C   0  0  2  0  0  0  0  0  0  0  0  0
   10.0868  -15.7542   25.0977 N   0  0  0  0  0  0  0  0  0  0  0  0
    9.3951  -16.0923   27.3770 C   0  0  0  0  0  0  0  0  0  0  0  0
    8.8750  -17.2115   27.4882 O   0  0  0  0  0  0  0  0  0  0  0  0
   10.1231  -15.6568   28.5004 O   0  0  0  0  0  0  0  0  0  0  0  0
  2  1  1  0
  3  2  2  0
  4  3  1  0
  5  4  2  0
  5 11  1  0
  6  5  1  0
  7  6  1  0
  7  8  1  6
  9 10  2  0
  9  7  1  0
 11 12  2  0
 12  2  1  0
 13  9  1  0
 14 15  1  6
 14 13  1  0
 15 16  1  0
 16 20  1  0
 16 17  2  0
 17 18  1  0
 19 18  1  0
 20 19  2  0
 21 14  1  0
 22 21  2  0
 24 23  1  0
 24 25  1  0
 26 25  1  0
 27 26  1  6
 27 28  1  0
 28 21  1  0
 29 31  1  0
 29 27  1  0
 30 29  2  0
M  END
$$$$
