YHM.pdb
     RDKit          3D

 31 32  0  0  1  0  0  0  0  0999 V2000
   20.4546  -16.7730   22.5327 O   0  0  0  0  0  0  0  0  0  0  0  0
   19.1075  -16.4950   22.6984 C   0  0  0  0  0  0  0  0  0  0  0  0
   18.2944  -17.1632   23.5832 C   0  0  0  0  0  0  0  0  0  0  0  0
   16.9717  -16.8537   23.7118 C   0  0  0  0  0  0  0  0  0  0  0  0
   16.4545  -15.8380   22.9225 C   0  0  0  0  0  0  0  0  0  0  0  0
   15.0240  -15.5302   23.0684 C   0  0  0  0  0  0  0  0  0  0  0  0
   14.1087  -16.5642   22.4651 C   0  0  2  0  0  0  0  0  0  0  0  0
   14.1919  -16.4320   20.9988 N   0  0  0  0  0  0  0  0  0  0  0  0
   12.7256  -16.3188   22.9294 C   0  0  0  0  0  0  0  0  0  0  0  0
   11.9889  -15.5172   22.3069 O   0  0  0  0  0  0  0  0  0  0  0  0
   17.2276  -15.1522   22.0337 C   0  0  0  0  0  0  0  0  0  0  0  0
   18.5590  -15.4828   21.9221 C   0  0  0  0  0  0  0  0  0  0  0  0
   12.2286  -16.9907   24.0810 N   0  0  0  0  0  0  0  0  0  0  0  0
   10.9061  -16.7549   24.5909 C   0  0  1  0  0  0  0  0  0  0  0  0
   10.0267  -17.9670   24.5542 C   0  0  0  0  0  0  0  0  0  0  0  0
    9.7723  -18.4872   23.2168 C   0  0  0  0  0  0  0  0  0  0  0  0
   10.3163  -18.0122   22.0527 C   0  0  0  0  0  0  0  0  0  0  0  0
    9.8177  -18.7775   21.0471 N   0  0  0  0  0  0  0  0  0  0  0  0
    8.9986  -19.6889   21.5666 C   0  0  0  0  0  0  0  0  0  0  0  0
    8.9740  -19.5074   22.8940 N   0  0  0  0  0  0  0  0  0  0  0  0
   10.9736  -16.1237   25.9317 C   0  0  0  0  0  0  0  0  0  0  0  0
   11.2028  -16.8953   26.9235 O   0  0  0  0  0  0  0  0  0  0  0  0
    6.6992  -11.1729   25.7971 C   0  0  0  0  0  0  0  0  0  0  0  0
    6.2351  -12.4508   26.9982 S   0  0  0  0  0  0  0  0  0  0  0  0
    7.6819  -13.2707   27.6801 C   0  0  0  0  0  0  0  0  0  0  0  0
    8.7092  -13.7015   26.7090 C   0  0  0  0  0  0  0  0  0  0  0  0
    9.9220  -14.3116   27.2673 C   0  0  2  0  0  0  0  0  0  0  0  0
   10.8078  -14.7712   26.1841 N   0  0  0  0  0  0  0  0  0  0  0  0
    9.7063  -15.3703   28.2374 C   0  0  0  0  0  0  0  0  0  0  0  0
    9.8058  -15.3005   29.4705 O   0  0  0  0  0  0  0  0  0  0  0  0
    9.3395  -16.6341   27.7374 O   0  0  0  0  0  0  0  0  0  0  0  0
  2  1  1  0
  3  2  2  0
  4  3  1  0
  5  4  2  0
  5 11  1  0
  6  5  1  0
  7  6  1  0
  7  8  1  6
  9 10  2  0
  9  7  1  0
 11 12  2  0
 12  2  1  0
 13  9  1  0
 14 15  1  1
 14 13  1  0
 15 16  1  0
 16 20  1  0
 16 17  2  0
 17 18  1  0
 19 18  1  0
 20 19  2  0
 21 14  1  0
 22 21  2  0
 24 23  1  0
 24 25  1  0
 26 25  1  0
 27 26  1  6
 27 28  1  0
 28 21  1  0
 29 31  1  0
 29 27  1  0
 30 29  2  0
M  END
$$$$
