YHM.pdb
     RDKit          3D

 31 32  0  0  1  0  0  0  0  0999 V2000
    8.4138  -12.9931   15.9364 O   0  0  0  0  0  0  0  0  0  0  0  0
    8.3422  -13.4714   17.2347 C   0  0  0  0  0  0  0  0  0  0  0  0
    8.6699  -14.7580   17.5924 C   0  0  0  0  0  0  0  0  0  0  0  0
    8.5837  -15.1841   18.8857 C   0  0  0  0  0  0  0  0  0  0  0  0
    8.1532  -14.2829   19.8474 C   0  0  0  0  0  0  0  0  0  0  0  0
    8.0555  -14.7675   21.2323 C   0  0  0  0  0  0  0  0  0  0  0  0
    7.5947  -16.1973   21.3516 C   0  0  2  0  0  0  0  0  0  0  0  0
    6.1775  -16.2442   20.9467 N   0  0  0  0  0  0  0  0  0  0  0  0
    7.7472  -16.6415   22.7545 C   0  0  0  0  0  0  0  0  0  0  0  0
    6.8438  -16.3995   23.5899 O   0  0  0  0  0  0  0  0  0  0  0  0
    7.8191  -12.9993   19.5332 C   0  0  0  0  0  0  0  0  0  0  0  0
    7.9144  -12.5932   18.2216 C   0  0  0  0  0  0  0  0  0  0  0  0
    8.9171  -17.3434   23.1586 N   0  0  0  0  0  0  0  0  0  0  0  0
    9.1277  -17.7569   24.5185 C   0  0  1  0  0  0  0  0  0  0  0  0
    9.7554  -19.1115   24.6407 C   0  0  0  0  0  0  0  0  0  0  0  0
   10.0363  -19.5247   26.0097 C   0  0  0  0  0  0  0  0  0  0  0  0
    9.7125  -18.8260   27.1427 C   0  0  0  0  0  0  0  0  0  0  0  0
   10.1517  -19.5632   28.1958 N   0  0  0  0  0  0  0  0  0  0  0  0
   10.7239  -20.6728   27.7345 C   0  0  0  0  0  0  0  0  0  0  0  0
   10.6509  -20.6448   26.3968 N   0  0  0  0  0  0  0  0  0  0  0  0
    9.8557  -16.7066   25.2717 C   0  0  0  0  0  0  0  0  0  0  0  0
   10.9433  -16.2754   24.7588 O   0  0  0  0  0  0  0  0  0  0  0  0
    5.6460  -12.1320   26.9087 C   0  0  0  0  0  0  0  0  0  0  0  0
    7.4588  -12.0671   26.8906 S   0  0  0  0  0  0  0  0  0  0  0  0
    8.1762  -13.7128   26.8018 C   0  0  0  0  0  0  0  0  0  0  0  0
    9.6515  -13.7872   26.8422 C   0  0  0  0  0  0  0  0  0  0  0  0
   10.2322  -15.1038   27.1326 C   0  0  2  0  0  0  0  0  0  0  0  0
    9.4460  -16.1642   26.4794 N   0  0  0  0  0  0  0  0  0  0  0  0
   10.4351  -15.4076   28.5379 C   0  0  0  0  0  0  0  0  0  0  0  0
   11.0733  -14.7494   29.3715 O   0  0  0  0  0  0  0  0  0  0  0  0
    9.8444  -16.5861   29.0317 O   0  0  0  0  0  0  0  0  0  0  0  0
  2  1  1  0
  3  2  2  0
  4  3  1  0
  5  4  2  0
  5 11  1  0
  6  5  1  0
  7  6  1  0
  7  8  1  1
  9 10  2  0
  9  7  1  0
 11 12  2  0
 12  2  1  0
 13  9  1  0
 14 15  1  6
 14 13  1  0
 15 16  1  0
 16 20  1  0
 16 17  2  0
 17 18  1  0
 19 18  1  0
 20 19  2  0
 21 14  1  0
 22 21  2  0
 24 23  1  0
 24 25  1  0
 26 25  1  0
 27 26  1  1
 27 28  1  0
 28 21  1  0
 29 31  1  0
 29 27  1  0
 30 29  2  0
M  END
$$$$
