YHM.pdb
     RDKit          3D

 31 32  0  0  1  0  0  0  0  0999 V2000
    8.1807  -12.7187   16.5732 O   0  0  0  0  0  0  0  0  0  0  0  0
    8.1465  -13.2637   17.8465 C   0  0  0  0  0  0  0  0  0  0  0  0
    7.4262  -12.7258   18.8869 C   0  0  0  0  0  0  0  0  0  0  0  0
    7.4230  -13.2987   20.1253 C   0  0  0  0  0  0  0  0  0  0  0  0
    8.1703  -14.4503   20.3187 C   0  0  0  0  0  0  0  0  0  0  0  0
    8.1626  -15.0433   21.6643 C   0  0  0  0  0  0  0  0  0  0  0  0
    7.5813  -16.4325   21.7199 C   0  0  2  0  0  0  0  0  0  0  0  0
    6.1236  -16.3137   21.5314 N   0  0  0  0  0  0  0  0  0  0  0  0
    7.8856  -17.0342   23.0368 C   0  0  0  0  0  0  0  0  0  0  0  0
    7.0669  -16.9237   23.9802 O   0  0  0  0  0  0  0  0  0  0  0  0
    8.8976  -15.0142   19.3131 C   0  0  0  0  0  0  0  0  0  0  0  0
    8.8849  -14.4177   18.0728 C   0  0  0  0  0  0  0  0  0  0  0  0
    9.1058  -17.7387   23.2356 N   0  0  0  0  0  0  0  0  0  0  0  0
    9.4836  -18.2639   24.5186 C   0  0  1  0  0  0  0  0  0  0  0  0
   10.4163  -19.4330   24.4345 C   0  0  0  0  0  0  0  0  0  0  0  0
    9.8060  -20.6564   23.9297 C   0  0  0  0  0  0  0  0  0  0  0  0
    8.4829  -20.8246   23.6169 C   0  0  0  0  0  0  0  0  0  0  0  0
    8.3429  -22.1052   23.1854 N   0  0  0  0  0  0  0  0  0  0  0  0
    9.5300  -22.7054   23.2291 C   0  0  0  0  0  0  0  0  0  0  0  0
   10.4218  -21.8152   23.6849 N   0  0  0  0  0  0  0  0  0  0  0  0
    9.9874  -17.1776   25.3943 C   0  0  0  0  0  0  0  0  0  0  0  0
   10.4508  -16.1368   24.8166 O   0  0  0  0  0  0  0  0  0  0  0  0
    7.0692  -12.7689   26.8580 C   0  0  0  0  0  0  0  0  0  0  0  0
    8.0374  -12.6801   28.3895 S   0  0  0  0  0  0  0  0  0  0  0  0
    9.4188  -13.8298   28.3633 C   0  0  0  0  0  0  0  0  0  0  0  0
    9.2454  -15.0432   27.5378 C   0  0  0  0  0  0  0  0  0  0  0  0
   10.3489  -16.0111   27.5580 C   0  0  2  0  0  0  0  0  0  0  0  0
    9.9919  -17.2093   26.7797 N   0  0  0  0  0  0  0  0  0  0  0  0
   10.8391  -16.3813   28.8737 C   0  0  0  0  0  0  0  0  0  0  0  0
   10.7729  -17.4900   29.4231 O   0  0  0  0  0  0  0  0  0  0  0  0
   11.4679  -15.3751   29.6311 O   0  0  0  0  0  0  0  0  0  0  0  0
  2  1  1  0
  3  2  2  0
  4  3  1  0
  5  4  2  0
  5 11  1  0
  6  5  1  0
  7  6  1  0
  7  8  1  1
  9 10  2  0
  9  7  1  0
 11 12  2  0
 12  2  1  0
 13  9  1  0
 14 15  1  6
 14 13  1  0
 15 16  1  0
 16 20  1  0
 16 17  2  0
 17 18  1  0
 19 18  1  0
 20 19  2  0
 21 14  1  0
 22 21  2  0
 24 23  1  0
 24 25  1  0
 26 25  1  0
 27 26  1  1
 27 28  1  0
 28 21  1  0
 29 31  1  0
 29 27  1  0
 30 29  2  0
M  END
$$$$
