YHM.pdb
     RDKit          3D

 31 32  0  0  1  0  0  0  0  0999 V2000
    8.9878  -12.4405   18.1235 O   0  0  0  0  0  0  0  0  0  0  0  0
    8.3920  -13.1834   19.1298 C   0  0  0  0  0  0  0  0  0  0  0  0
    7.9468  -12.6444   20.3138 C   0  0  0  0  0  0  0  0  0  0  0  0
    7.3654  -13.4168   21.2767 C   0  0  0  0  0  0  0  0  0  0  0  0
    7.2295  -14.7754   21.0362 C   0  0  0  0  0  0  0  0  0  0  0  0
    6.6120  -15.5905   22.0929 C   0  0  0  0  0  0  0  0  0  0  0  0
    6.9692  -17.0531   22.0281 C   0  0  2  0  0  0  0  0  0  0  0  0
    5.7259  -17.8243   22.2126 N   0  0  0  0  0  0  0  0  0  0  0  0
    7.9363  -17.3651   23.1034 C   0  0  0  0  0  0  0  0  0  0  0  0
    7.5243  -17.6507   24.2529 O   0  0  0  0  0  0  0  0  0  0  0  0
    7.6581  -15.3477   19.8757 C   0  0  0  0  0  0  0  0  0  0  0  0
    8.2414  -14.5477   18.9197 C   0  0  0  0  0  0  0  0  0  0  0  0
    9.3337  -17.3423   22.8363 N   0  0  0  0  0  0  0  0  0  0  0  0
   10.3117  -17.5438   23.8695 C   0  0  1  0  0  0  0  0  0  0  0  0
   11.6822  -17.8441   23.3447 C   0  0  0  0  0  0  0  0  0  0  0  0
   12.0776  -19.2423   23.4559 C   0  0  0  0  0  0  0  0  0  0  0  0
   11.3443  -20.2409   24.0406 C   0  0  0  0  0  0  0  0  0  0  0  0
   12.0749  -21.3805   23.9269 N   0  0  0  0  0  0  0  0  0  0  0  0
   13.2137  -21.0998   23.2978 C   0  0  0  0  0  0  0  0  0  0  0  0
   13.2108  -19.7907   23.0117 N   0  0  0  0  0  0  0  0  0  0  0  0
   10.2896  -16.4136   24.8301 C   0  0  0  0  0  0  0  0  0  0  0  0
    9.4528  -15.4760   24.6013 O   0  0  0  0  0  0  0  0  0  0  0  0
    7.4452  -11.8751   26.4314 C   0  0  0  0  0  0  0  0  0  0  0  0
    7.2403  -13.2517   27.5949 S   0  0  0  0  0  0  0  0  0  0  0  0
    8.8074  -14.0614   27.9402 C   0  0  0  0  0  0  0  0  0  0  0  0
    9.4082  -14.8268   26.8280 C   0  0  0  0  0  0  0  0  0  0  0  0
   10.6691  -15.5204   27.1174 C   0  0  2  0  0  0  0  0  0  0  0  0
   11.1028  -16.3018   25.9468 N   0  0  0  0  0  0  0  0  0  0  0  0
   10.6764  -16.3427   28.3142 C   0  0  0  0  0  0  0  0  0  0  0  0
   10.4266  -17.5530   28.4041 O   0  0  0  0  0  0  0  0  0  0  0  0
   11.0039  -15.7079   29.5272 O   0  0  0  0  0  0  0  0  0  0  0  0
  2  1  1  0
  3  2  2  0
  4  3  1  0
  5  4  2  0
  5 11  1  0
  6  5  1  0
  7  6  1  0
  7  8  1  1
  9 10  2  0
  9  7  1  0
 11 12  2  0
 12  2  1  0
 13  9  1  0
 14 15  1  6
 14 13  1  0
 15 16  1  0
 16 20  1  0
 16 17  2  0
 17 18  1  0
 19 18  1  0
 20 19  2  0
 21 14  1  0
 22 21  2  0
 24 23  1  0
 24 25  1  0
 26 25  1  0
 27 26  1  6
 27 28  1  0
 28 21  1  0
 29 31  1  0
 29 27  1  0
 30 29  2  0
M  END
$$$$
