YHM.pdb
     RDKit          3D

 31 32  0  0  1  0  0  0  0  0999 V2000
    6.6563  -11.0966   27.7103 O   0  0  0  0  0  0  0  0  0  0  0  0
    6.4695  -11.9840   26.6630 C   0  0  0  0  0  0  0  0  0  0  0  0
    5.6435  -13.0811   26.7314 C   0  0  0  0  0  0  0  0  0  0  0  0
    5.4910  -13.9280   25.6725 C   0  0  0  0  0  0  0  0  0  0  0  0
    6.1945  -13.6583   24.5086 C   0  0  0  0  0  0  0  0  0  0  0  0
    6.0250  -14.5913   23.3847 C   0  0  0  0  0  0  0  0  0  0  0  0
    6.6949  -15.9258   23.5879 C   0  0  2  0  0  0  0  0  0  0  0  0
    7.2331  -15.9499   24.9606 N   0  0  0  0  0  0  0  0  0  0  0  0
    7.7867  -16.0767   22.6010 C   0  0  0  0  0  0  0  0  0  0  0  0
    7.5993  -16.7458   21.5570 O   0  0  0  0  0  0  0  0  0  0  0  0
    7.0231  -12.5813   24.4011 C   0  0  0  0  0  0  0  0  0  0  0  0
    7.1603  -11.7417   25.4830 C   0  0  0  0  0  0  0  0  0  0  0  0
    9.0496  -15.4639   22.8334 N   0  0  0  0  0  0  0  0  0  0  0  0
   10.1834  -15.7064   21.9846 C   0  0  1  0  0  0  0  0  0  0  0  0
   10.4193  -14.6219   20.9786 C   0  0  0  0  0  0  0  0  0  0  0  0
    9.4259  -14.5602   19.9141 C   0  0  0  0  0  0  0  0  0  0  0  0
    8.5884  -13.5072   19.6564 C   0  0  0  0  0  0  0  0  0  0  0  0
    7.8311  -13.8627   18.5860 N   0  0  0  0  0  0  0  0  0  0  0  0
    8.1848  -15.0853   18.1966 C   0  0  0  0  0  0  0  0  0  0  0  0
    9.1607  -15.5078   19.0119 N   0  0  0  0  0  0  0  0  0  0  0  0
   11.3831  -16.0167   22.8000 C   0  0  0  0  0  0  0  0  0  0  0  0
   12.2622  -15.0964   22.9093 O   0  0  0  0  0  0  0  0  0  0  0  0
   11.4308  -13.4040   28.0520 C   0  0  0  0  0  0  0  0  0  0  0  0
   10.5303  -14.9775   27.9887 S   0  0  0  0  0  0  0  0  0  0  0  0
   11.4522  -16.2285   27.0854 C   0  0  0  0  0  0  0  0  0  0  0  0
   11.1243  -16.3762   25.6521 C   0  0  0  0  0  0  0  0  0  0  0  0
   12.0054  -17.2485   24.8662 C   0  0  2  0  0  0  0  0  0  0  0  0
   11.6174  -17.2203   23.4457 N   0  0  0  0  0  0  0  0  0  0  0  0
   12.1234  -18.6164   25.3386 C   0  0  0  0  0  0  0  0  0  0  0  0
   12.9226  -19.0642   26.1730 O   0  0  0  0  0  0  0  0  0  0  0  0
   11.2326  -19.5619   24.7962 O   0  0  0  0  0  0  0  0  0  0  0  0
  2  1  1  0
  3  2  2  0
  4  3  1  0
  5  4  2  0
  5 11  1  0
  6  5  1  0
  7  6  1  0
  7  8  1  1
  9 10  2  0
  9  7  1  0
 11 12  2  0
 12  2  1  0
 13  9  1  0
 14 15  1  1
 14 13  1  0
 15 16  1  0
 16 20  1  0
 16 17  2  0
 17 18  1  0
 19 18  1  0
 20 19  2  0
 21 14  1  0
 22 21  2  0
 24 23  1  0
 24 25  1  0
 26 25  1  0
 27 26  1  1
 27 28  1  0
 28 21  1  0
 29 31  1  0
 29 27  1  0
 30 29  2  0
M  END
$$$$
