GRK.pdb
     RDKit          3D

 25 24  0  0  1  0  0  0  0  0999 V2000
    4.6908  -19.9647   22.7190 N   0  0  0  0  0  0  0  0  0  0  0  0
    4.6657  -18.5453   23.0335 C   0  0  0  0  0  0  0  0  0  0  0  0
    6.0229  -17.9531   22.8832 C   0  0  0  0  0  0  0  0  0  0  0  0
    7.0581  -18.6668   22.8136 O   0  0  0  0  0  0  0  0  0  0  0  0
    8.5804  -14.4174   17.2083 N   0  0  0  0  0  0  0  0  0  0  0  0
    8.5205  -13.3069   18.0648 C   0  0  0  0  0  0  0  0  0  0  0  0
    9.5618  -12.5492   18.2691 N   0  0  0  0  0  0  0  0  0  0  0  0
    7.3274  -12.9689   18.7473 N   0  0  0  0  0  0  0  0  0  0  0  0
    7.2133  -12.9696   20.1750 C   0  0  0  0  0  0  0  0  0  0  0  0
    7.4049  -14.3539   20.7250 C   0  0  0  0  0  0  0  0  0  0  0  0
    7.3023  -14.5031   22.1965 C   0  0  0  0  0  0  0  0  0  0  0  0
    7.5128  -15.9655   22.5781 C   0  0  2  0  0  0  0  0  0  0  0  0
    6.1911  -16.5622   22.8139 N   0  0  0  0  0  0  0  0  0  0  0  0
    8.2202  -16.0335   23.8556 C   0  0  0  0  0  0  0  0  0  0  0  0
    7.6815  -15.6135   24.9084 O   0  0  0  0  0  0  0  0  0  0  0  0
    9.5040  -11.7911   18.9700 N   0  0  0  0  0  0  0  0  0  0  0  0
    9.5227  -16.5808   23.9306 C   0  0  2  0  0  0  0  0  0  0  0  0
   10.2811  -16.7048   25.1824 C   0  0  0  0  0  0  0  0  0  0  0  0
   10.0223  -18.0608   25.7322 C   0  0  0  0  0  0  0  0  0  0  0  0
   10.6062  -18.2560   27.1074 C   0  0  0  0  0  0  0  0  0  0  0  0
   10.5059  -19.6955   27.5162 C   0  0  0  0  0  0  0  0  0  0  0  0
   11.0021  -19.8378   28.9586 N   0  0  0  0  0  0  0  0  0  0  0  0
   10.9733  -21.2240   29.3601 C   0  0  0  0  0  0  0  0  0  0  0  0
   11.7096  -16.4411   24.8991 O   0  0  0  0  0  0  0  0  0  0  0  0
   12.6018  -16.1805   25.9282 O   0  0  0  0  0  0  0  0  0  0  0  0
  1  2  1  0
  3  2  1  0
  4  3  2  0
  5  6  1  0
  6  7  2  0
  6  8  1  0
  8  9  1  0
  9 10  1  0
 11 10  1  0
 12 11  1  1
 12 13  1  0
 13  3  1  0
 14 12  1  0
 14 15  2  0
 16 14  1  0
 17 16  1  0
 17 18  1  6
 19 18  1  0
 20 19  1  0
 20 21  1  0
 21 22  1  0
 23 17  1  0
 24 23  1  0
 25 23  2  0
M  END
$$$$
