GRK.pdb
     RDKit          3D

 25 24  0  0  1  0  0  0  0  0999 V2000
    7.1717  -11.9557   20.1038 N   0  0  0  0  0  0  0  0  0  0  0  0
    8.3652  -12.5484   19.5220 C   0  0  0  0  0  0  0  0  0  0  0  0
    8.4871  -13.9767   19.9224 C   0  0  0  0  0  0  0  0  0  0  0  0
    7.7010  -14.5065   20.7513 O   0  0  0  0  0  0  0  0  0  0  0  0
    9.5891  -19.1917   14.9926 N   0  0  0  0  0  0  0  0  0  0  0  0
    8.9404  -19.6999   16.1288 C   0  0  0  0  0  0  0  0  0  0  0  0
    7.6439  -19.8336   16.1684 N   0  0  0  0  0  0  0  0  0  0  0  0
    9.6681  -20.0818   17.2813 N   0  0  0  0  0  0  0  0  0  0  0  0
   10.7564  -19.3160   17.8112 C   0  0  0  0  0  0  0  0  0  0  0  0
   10.2832  -18.4029   18.9056 C   0  0  0  0  0  0  0  0  0  0  0  0
   10.1521  -16.9668   18.5610 C   0  0  0  0  0  0  0  0  0  0  0  0
    9.6350  -16.1955   19.7718 C   0  0  2  0  0  0  0  0  0  0  0  0
    9.4962  -14.7863   19.3802 N   0  0  0  0  0  0  0  0  0  0  0  0
   10.6449  -16.2233   20.8284 C   0  0  0  0  0  0  0  0  0  0  0  0
   11.7860  -15.7377   20.6357 O   0  0  0  0  0  0  0  0  0  0  0  0
    7.2033  -20.2259   17.0177 N   0  0  0  0  0  0  0  0  0  0  0  0
   10.3526  -16.7915   22.0907 C   0  0  2  0  0  0  0  0  0  0  0  0
   11.3082  -16.8291   23.2057 C   0  0  0  0  0  0  0  0  0  0  0  0
   10.6065  -17.4103   24.3795 C   0  0  0  0  0  0  0  0  0  0  0  0
   11.5038  -17.5661   25.5798 C   0  0  0  0  0  0  0  0  0  0  0  0
   10.7368  -18.1436   26.7319 C   0  0  0  0  0  0  0  0  0  0  0  0
   11.7074  -18.4251   27.8834 N   0  0  0  0  0  0  0  0  0  0  0  0
   11.0202  -19.0968   28.9603 C   0  0  0  0  0  0  0  0  0  0  0  0
   12.4989  -17.6001   22.7835 O   0  0  0  0  0  0  0  0  0  0  0  0
   13.7754  -17.1795   23.1248 O   0  0  0  0  0  0  0  0  0  0  0  0
  1  2  1  0
  3  2  1  0
  4  3  2  0
  5  6  1  0
  6  7  2  0
  6  8  1  0
  8  9  1  0
  9 10  1  0
 11 10  1  0
 12 11  1  6
 12 13  1  0
 13  3  1  0
 14 12  1  0
 14 15  2  0
 16 14  1  0
 17 16  1  0
 17 18  1  1
 19 18  1  0
 20 19  1  0
 20 21  1  0
 21 22  1  0
 23 17  1  0
 24 23  1  0
 25 23  2  0
M  END
$$$$
