GRK.pdb
     RDKit          3D

 25 24  0  0  1  0  0  0  0  0999 V2000
    6.1041  -21.0070   24.8159 N   0  0  0  0  0  0  0  0  0  0  0  0
    6.1486  -19.5843   25.1129 C   0  0  0  0  0  0  0  0  0  0  0  0
    6.9995  -18.8704   24.1222 C   0  0  0  0  0  0  0  0  0  0  0  0
    7.6741  -19.4865   23.2555 O   0  0  0  0  0  0  0  0  0  0  0  0
    7.3045  -13.1136   18.2457 N   0  0  0  0  0  0  0  0  0  0  0  0
    8.4657  -13.0076   19.0272 C   0  0  0  0  0  0  0  0  0  0  0  0
    9.1835  -11.9191   19.0339 N   0  0  0  0  0  0  0  0  0  0  0  0
    8.9082  -14.0823   19.8351 N   0  0  0  0  0  0  0  0  0  0  0  0
    8.0285  -14.8637   20.6518 C   0  0  0  0  0  0  0  0  0  0  0  0
    8.2335  -14.5524   22.1065 C   0  0  0  0  0  0  0  0  0  0  0  0
    7.4069  -15.3165   23.0715 C   0  0  0  0  0  0  0  0  0  0  0  0
    7.9195  -16.7510   23.1603 C   0  0  2  0  0  0  0  0  0  0  0  0
    7.0762  -17.4697   24.1250 N   0  0  0  0  0  0  0  0  0  0  0  0
    9.2674  -16.7472   23.7264 C   0  0  0  0  0  0  0  0  0  0  0  0
    9.4787  -16.2806   24.8721 O   0  0  0  0  0  0  0  0  0  0  0  0
   10.0667  -11.9009   19.5714 N   0  0  0  0  0  0  0  0  0  0  0  0
   10.3577  -17.2762   22.9964 C   0  0  2  0  0  0  0  0  0  0  0  0
   11.7367  -17.3041   23.5017 C   0  0  0  0  0  0  0  0  0  0  0  0
   12.4333  -18.4401   22.8443 C   0  0  0  0  0  0  0  0  0  0  0  0
   13.8655  -18.5850   23.2893 C   0  0  0  0  0  0  0  0  0  0  0  0
   14.4814  -19.8057   22.6728 C   0  0  0  0  0  0  0  0  0  0  0  0
   15.8938  -19.9882   23.2374 N   0  0  0  0  0  0  0  0  0  0  0  0
   16.4644  -21.2250   22.7597 C   0  0  0  0  0  0  0  0  0  0  0  0
   12.3644  -15.9898   23.2387 O   0  0  0  0  0  0  0  0  0  0  0  0
   13.3213  -15.4744   24.0997 O   0  0  0  0  0  0  0  0  0  0  0  0
  1  2  1  0
  3  2  1  0
  4  3  2  0
  5  6  1  0
  6  7  2  0
  6  8  1  0
  8  9  1  0
  9 10  1  0
 11 10  1  0
 12 11  1  1
 12 13  1  0
 13  3  1  0
 14 12  1  0
 14 15  2  0
 16 14  1  0
 17 16  1  0
 17 18  1  6
 19 18  1  0
 20 19  1  0
 20 21  1  0
 21 22  1  0
 23 17  1  0
 24 23  1  0
 25 23  2  0
M  END
$$$$
