GRK.pdb
     RDKit          3D

 25 24  0  0  1  0  0  0  0  0999 V2000
    6.1064  -20.1790   24.5718 N   0  0  0  0  0  0  0  0  0  0  0  0
    5.9841  -18.7489   24.8048 C   0  0  0  0  0  0  0  0  0  0  0  0
    6.9252  -17.9954   23.9321 C   0  0  0  0  0  0  0  0  0  0  0  0
    7.7463  -18.5788   23.1763 O   0  0  0  0  0  0  0  0  0  0  0  0
    7.7219  -15.1328   18.2819 N   0  0  0  0  0  0  0  0  0  0  0  0
    8.0179  -13.7608   18.3025 C   0  0  0  0  0  0  0  0  0  0  0  0
    8.7174  -13.2021   17.3545 N   0  0  0  0  0  0  0  0  0  0  0  0
    7.5740  -12.9292   19.3583 N   0  0  0  0  0  0  0  0  0  0  0  0
    6.8246  -13.4155   20.4779 C   0  0  0  0  0  0  0  0  0  0  0  0
    7.7393  -13.8068   21.6029 C   0  0  0  0  0  0  0  0  0  0  0  0
    7.1106  -14.4767   22.7666 C   0  0  0  0  0  0  0  0  0  0  0  0
    7.7687  -15.8348   22.9918 C   0  0  2  0  0  0  0  0  0  0  0  0
    6.9252  -16.5926   23.9260 N   0  0  0  0  0  0  0  0  0  0  0  0
    9.0500  -15.6433   23.6691 C   0  0  0  0  0  0  0  0  0  0  0  0
    9.1249  -14.9493   24.7120 O   0  0  0  0  0  0  0  0  0  0  0  0
    8.9630  -12.2006   17.4325 N   0  0  0  0  0  0  0  0  0  0  0  0
   10.2285  -16.2429   23.1659 C   0  0  2  0  0  0  0  0  0  0  0  0
   11.5507  -16.0808   23.7849 C   0  0  0  0  0  0  0  0  0  0  0  0
   11.9301  -17.3870   24.3829 C   0  0  0  0  0  0  0  0  0  0  0  0
   11.2510  -17.6459   25.7027 C   0  0  0  0  0  0  0  0  0  0  0  0
   11.7329  -18.9382   26.2917 C   0  0  0  0  0  0  0  0  0  0  0  0
   11.0246  -19.1685   27.6305 N   0  0  0  0  0  0  0  0  0  0  0  0
   11.4946  -20.3904   28.2383 C   0  0  0  0  0  0  0  0  0  0  0  0
   12.4999  -15.6001   22.7560 O   0  0  0  0  0  0  0  0  0  0  0  0
   13.7631  -15.1503   23.1094 O   0  0  0  0  0  0  0  0  0  0  0  0
  1  2  1  0
  3  2  1  0
  4  3  2  0
  5  6  1  0
  6  7  2  0
  6  8  1  0
  8  9  1  0
  9 10  1  0
 11 10  1  0
 12 11  1  1
 12 13  1  0
 13  3  1  0
 14 12  1  0
 14 15  2  0
 16 14  1  0
 17 16  1  0
 17 18  1  1
 19 18  1  0
 20 19  1  0
 20 21  1  0
 21 22  1  0
 23 17  1  0
 24 23  1  0
 25 23  2  0
M  END
$$$$
