GRK.pdb
     RDKit          3D

 25 24  0  0  1  0  0  0  0  0999 V2000
   13.9918  -17.3073   20.0518 N   0  0  0  0  0  0  0  0  0  0  0  0
   12.6173  -17.6929   20.3281 C   0  0  0  0  0  0  0  0  0  0  0  0
   11.9868  -16.7345   21.2765 C   0  0  0  0  0  0  0  0  0  0  0  0
   12.6708  -15.9505   21.9858 O   0  0  0  0  0  0  0  0  0  0  0  0
    8.0587  -14.9362   17.5858 N   0  0  0  0  0  0  0  0  0  0  0  0
    7.6221  -13.7180   18.1295 C   0  0  0  0  0  0  0  0  0  0  0  0
    7.9366  -12.5775   17.5812 N   0  0  0  0  0  0  0  0  0  0  0  0
    6.8276  -13.6786   19.3003 N   0  0  0  0  0  0  0  0  0  0  0  0
    6.8931  -14.6754   20.3266 C   0  0  0  0  0  0  0  0  0  0  0  0
    8.2866  -14.7853   20.8756 C   0  0  0  0  0  0  0  0  0  0  0  0
    8.4730  -15.6886   22.0364 C   0  0  0  0  0  0  0  0  0  0  0  0
    9.9564  -15.7768   22.3828 C   0  0  2  0  0  0  0  0  0  0  0  0
   10.5916  -16.6759   21.4099 N   0  0  0  0  0  0  0  0  0  0  0  0
   10.1098  -16.4197   23.6868 C   0  0  0  0  0  0  0  0  0  0  0  0
   10.1560  -17.6702   23.7820 O   0  0  0  0  0  0  0  0  0  0  0  0
    7.6106  -11.7000   18.0206 N   0  0  0  0  0  0  0  0  0  0  0  0
   10.2164  -15.6441   24.8652 C   0  0  2  0  0  0  0  0  0  0  0  0
   10.3837  -16.2215   26.2055 C   0  0  0  0  0  0  0  0  0  0  0  0
   10.4823  -15.0959   27.1705 C   0  0  0  0  0  0  0  0  0  0  0  0
   10.6738  -15.5584   28.5917 C   0  0  0  0  0  0  0  0  0  0  0  0
   10.8011  -14.3797   29.5102 C   0  0  0  0  0  0  0  0  0  0  0  0
   10.9868  -14.8856   30.9444 N   0  0  0  0  0  0  0  0  0  0  0  0
   11.0074  -13.7742   31.8651 C   0  0  0  0  0  0  0  0  0  0  0  0
    9.2507  -17.1356   26.4725 O   0  0  0  0  0  0  0  0  0  0  0  0
    7.9971  -16.8898   25.9334 O   0  0  0  0  0  0  0  0  0  0  0  0
  1  2  1  0
  3  2  1  0
  4  3  2  0
  5  6  1  0
  6  7  2  0
  6  8  1  0
  8  9  1  0
  9 10  1  0
 11 10  1  0
 12 11  1  6
 12 13  1  0
 13  3  1  0
 14 12  1  0
 14 15  2  0
 16 14  1  0
 17 16  1  0
 17 18  1  6
 19 18  1  0
 20 19  1  0
 20 21  1  0
 21 22  1  0
 23 17  1  0
 24 23  1  0
 25 23  2  0
M  END
$$$$
