GRK.pdb
     RDKit          3D

 25 24  0  0  1  0  0  0  0  0999 V2000
    3.5815  -20.8548   22.0154 N   0  0  0  0  0  0  0  0  0  0  0  0
    3.5447  -19.4475   22.3793 C   0  0  0  0  0  0  0  0  0  0  0  0
    4.9244  -18.9162   22.5506 C   0  0  0  0  0  0  0  0  0  0  0  0
    5.9307  -19.6725   22.5866 O   0  0  0  0  0  0  0  0  0  0  0  0
    8.4225  -11.6848   19.6961 N   0  0  0  0  0  0  0  0  0  0  0  0
    8.5238  -12.8398   18.9048 C   0  0  0  0  0  0  0  0  0  0  0  0
    9.3608  -12.9090   17.9074 N   0  0  0  0  0  0  0  0  0  0  0  0
    7.7153  -13.9745   19.1542 N   0  0  0  0  0  0  0  0  0  0  0  0
    6.8526  -14.0883   20.2918 C   0  0  0  0  0  0  0  0  0  0  0  0
    7.2641  -15.2423   21.1603 C   0  0  0  0  0  0  0  0  0  0  0  0
    6.4241  -15.5075   22.3529 C   0  0  0  0  0  0  0  0  0  0  0  0
    6.5088  -16.9863   22.7195 C   0  0  2  0  0  0  0  0  0  0  0  0
    5.1475  -17.5373   22.6788 N   0  0  0  0  0  0  0  0  0  0  0  0
    6.9551  -17.1146   24.1057 C   0  0  0  0  0  0  0  0  0  0  0  0
    6.2213  -16.7379   25.0515 O   0  0  0  0  0  0  0  0  0  0  0  0
    9.4610  -13.8013   17.3943 N   0  0  0  0  0  0  0  0  0  0  0  0
    8.2196  -17.6728   24.4076 C   0  0  2  0  0  0  0  0  0  0  0  0
    8.7400  -17.8143   25.7739 C   0  0  0  0  0  0  0  0  0  0  0  0
    8.7314  -19.2615   26.1105 C   0  0  0  0  0  0  0  0  0  0  0  0
    9.3185  -19.5503   27.4678 C   0  0  0  0  0  0  0  0  0  0  0  0
    9.2313  -21.0163   27.7717 C   0  0  0  0  0  0  0  0  0  0  0  0
    9.8603  -21.2773   29.1440 N   0  0  0  0  0  0  0  0  0  0  0  0
    9.8699  -22.6928   29.4258 C   0  0  0  0  0  0  0  0  0  0  0  0
   10.0843  -17.1980   25.8351 O   0  0  0  0  0  0  0  0  0  0  0  0
   10.6765  -16.9043   27.0540 O   0  0  0  0  0  0  0  0  0  0  0  0
  1  2  1  0
  3  2  1  0
  4  3  2  0
  5  6  1  0
  6  7  2  0
  6  8  1  0
  8  9  1  0
  9 10  1  0
 11 10  1  0
 12 11  1  1
 12 13  1  0
 13  3  1  0
 14 12  1  0
 14 15  2  0
 16 14  1  0
 17 16  1  0
 17 18  1  6
 19 18  1  0
 20 19  1  0
 20 21  1  0
 21 22  1  0
 23 17  1  0
 24 23  1  0
 25 23  2  0
M  END
$$$$
