GRK.pdb
     RDKit          3D

 25 24  0  0  1  0  0  0  0  0999 V2000
    8.7705  -20.6175   20.3656 N   0  0  0  0  0  0  0  0  0  0  0  0
    7.9551  -19.7369   21.1866 C   0  0  0  0  0  0  0  0  0  0  0  0
    8.6263  -18.4207   21.3662 C   0  0  0  0  0  0  0  0  0  0  0  0
    9.7850  -18.1973   20.9265 O   0  0  0  0  0  0  0  0  0  0  0  0
    8.2663  -12.4276   17.9296 N   0  0  0  0  0  0  0  0  0  0  0  0
    8.8116  -12.5951   19.2121 C   0  0  0  0  0  0  0  0  0  0  0  0
    9.8742  -11.9406   19.5898 N   0  0  0  0  0  0  0  0  0  0  0  0
    8.2327  -13.4879   20.1457 N   0  0  0  0  0  0  0  0  0  0  0  0
    7.1160  -14.3300   19.8374 C   0  0  0  0  0  0  0  0  0  0  0  0
    6.7153  -15.1444   21.0339 C   0  0  0  0  0  0  0  0  0  0  0  0
    7.5571  -15.0011   22.2460 C   0  0  0  0  0  0  0  0  0  0  0  0
    8.6374  -16.0787   22.2486 C   0  0  2  0  0  0  0  0  0  0  0  0
    7.9783  -17.3752   22.0406 N   0  0  0  0  0  0  0  0  0  0  0  0
    9.2491  -16.1450   23.5748 C   0  0  0  0  0  0  0  0  0  0  0  0
    8.7378  -16.8468   24.4808 O   0  0  0  0  0  0  0  0  0  0  0  0
   10.3309  -12.1929   20.4825 N   0  0  0  0  0  0  0  0  0  0  0  0
   10.4332  -15.4251   23.8596 C   0  0  1  0  0  0  0  0  0  0  0  0
   11.2160  -15.6027   25.0899 C   0  0  0  0  0  0  0  0  0  0  0  0
   10.2998  -15.3900   26.2402 C   0  0  0  0  0  0  0  0  0  0  0  0
   10.9681  -15.6197   27.5709 C   0  0  0  0  0  0  0  0  0  0  0  0
   10.0129  -15.3297   28.6903 C   0  0  0  0  0  0  0  0  0  0  0  0
   10.7146  -15.6010   30.0248 N   0  0  0  0  0  0  0  0  0  0  0  0
    9.8125  -15.3456   31.1222 C   0  0  0  0  0  0  0  0  0  0  0  0
   11.8381  -16.9454   25.0660 O   0  0  0  0  0  0  0  0  0  0  0  0
   13.2153  -17.0918   25.1329 O   0  0  0  0  0  0  0  0  0  0  0  0
  1  2  1  0
  3  2  1  0
  4  3  2  0
  5  6  1  0
  6  7  2  0
  6  8  1  0
  8  9  1  0
  9 10  1  0
 11 10  1  0
 12 11  1  1
 12 13  1  0
 13  3  1  0
 14 12  1  0
 14 15  2  0
 16 14  1  0
 17 16  1  0
 17 18  1  1
 19 18  1  0
 20 19  1  0
 20 21  1  0
 21 22  1  0
 23 17  1  0
 24 23  1  0
 25 23  2  0
M  END
$$$$
