RRC.pdb
     RDKit          3D

 29 28  0  0  1  0  0  0  0  0999 V2000
    9.4896  -14.4820   15.2635 N   0  0  0  0  0  0  0  0  0  0  0  0
    8.2015  -13.9090   15.1631 C   0  0  0  0  0  0  0  0  0  0  0  0
    7.5004  -13.9666   14.0592 N   0  0  0  0  0  0  0  0  0  0  0  0
    7.5606  -13.2311   16.2291 N   0  0  0  0  0  0  0  0  0  0  0  0
    7.5325  -13.7384   17.5452 C   0  0  0  0  0  0  0  0  0  0  0  0
    7.6633  -15.2195   17.6830 C   0  0  0  0  0  0  0  0  0  0  0  0
    7.6037  -15.5786   19.1517 C   0  0  0  0  0  0  0  0  0  0  0  0
    8.7642  -15.0786   19.9345 C   0  0  2  0  0  0  0  0  0  0  0  0
    9.9047  -15.9224   19.7295 N   0  0  0  0  0  0  0  0  0  0  0  0
    8.3897  -15.1852   21.3875 C   0  0  0  0  0  0  0  0  0  0  0  0
    7.3433  -14.6273   21.8400 O   0  0  0  0  0  0  0  0  0  0  0  0
    6.5747  -13.5013   14.0663 N   0  0  0  0  0  0  0  0  0  0  0  0
   13.3206  -20.3847   23.3507 C   0  0  0  0  0  0  0  0  0  0  0  0
   12.0719  -21.0863   23.3634 N   0  0  0  0  0  0  0  0  0  0  0  0
   12.0049  -22.2575   22.8387 N   0  0  0  0  0  0  0  0  0  0  0  0
   10.9033  -20.5304   23.9367 C   0  0  0  0  0  0  0  0  0  0  0  0
   10.8452  -19.1969   24.4729 C   0  0  0  0  0  0  0  0  0  0  0  0
    9.7722  -18.3610   23.7913 C   0  0  0  0  0  0  0  0  0  0  0  0
    9.8143  -16.9676   24.3798 C   0  0  2  0  0  0  0  0  0  0  0  0
    8.8124  -16.0511   23.7245 N   0  0  0  0  0  0  0  0  0  0  0  0
    9.1801  -15.9058   22.3088 C   0  0  0  0  0  0  0  0  0  0  0  0
    8.7291  -14.7387   24.3854 O   0  0  0  0  0  0  0  0  0  0  0  0
    8.9286  -13.6740   23.7537 N   0  0  0  0  0  0  0  0  0  0  0  0
   11.1096  -22.7599   22.8259 C   0  0  1  0  0  0  0  0  0  0  0  0
    8.4177  -14.6464   25.7653 C   0  0  0  0  0  0  0  0  0  0  0  0
    7.9851  -13.4371   26.4087 S   0  0  0  0  0  0  0  0  0  0  0  0
    6.7555  -12.9317   25.6417 C   0  0  0  0  0  0  0  0  0  0  0  0
    6.2596  -11.3896   26.5036 O   0  0  0  0  0  0  0  0  0  0  0  0
    7.7451  -13.5581   27.8404 O   0  0  0  0  0  0  0  0  0  0  0  0
  2  1  1  0
  2  3  2  0
  4  2  1  0
  5  4  1  0
  6  5  1  0
  7  6  1  0
  8  7  1  0
  8  9  1  1
 10  8  1  0
 10 11  2  0
 13 12  1  0
 14 13  2  0
 15 13  1  0
 16 15  1  0
 17 16  1  0
 17 18  1  0
 19 18  1  6
 19 20  1  0
 19 21  1  0
 20 10  1  0
 21 23  1  0
 22 21  2  0
 23 24  1  0
 24 27  1  0
 25 26  1  0
 24 25  1  1
 27 28  2  0
 27 29  1  0
M  END
$$$$
