RRC.pdb
     RDKit          3D

 29 28  0  0  1  0  0  0  0  0999 V2000
    7.4285  -13.8676   16.9374 N   0  0  0  0  0  0  0  0  0  0  0  0
    8.3327  -13.0321   17.6315 C   0  0  0  0  0  0  0  0  0  0  0  0
    9.3375  -12.4465   17.0306 N   0  0  0  0  0  0  0  0  0  0  0  0
    8.2376  -12.7554   19.0175 N   0  0  0  0  0  0  0  0  0  0  0  0
    7.1327  -13.1551   19.7984 C   0  0  0  0  0  0  0  0  0  0  0  0
    7.0760  -14.6007   20.1680 C   0  0  0  0  0  0  0  0  0  0  0  0
    8.3858  -14.9882   20.8191 C   0  0  0  0  0  0  0  0  0  0  0  0
    8.4433  -16.4128   21.2396 C   0  0  2  0  0  0  0  0  0  0  0  0
    7.3082  -17.1278   20.7348 N   0  0  0  0  0  0  0  0  0  0  0  0
    8.3458  -16.4295   22.7406 C   0  0  0  0  0  0  0  0  0  0  0  0
    7.2375  -16.2420   23.3302 O   0  0  0  0  0  0  0  0  0  0  0  0
    9.9410  -11.8367   17.6116 N   0  0  0  0  0  0  0  0  0  0  0  0
   12.6687  -20.6431   23.1165 C   0  0  0  0  0  0  0  0  0  0  0  0
   12.1072  -21.5075   24.1112 N   0  0  0  0  0  0  0  0  0  0  0  0
   11.9722  -22.7587   23.8511 N   0  0  0  0  0  0  0  0  0  0  0  0
   11.6935  -21.0277   25.3768 C   0  0  0  0  0  0  0  0  0  0  0  0
   11.6893  -19.6330   25.7291 C   0  0  0  0  0  0  0  0  0  0  0  0
   10.4836  -18.9084   25.1496 C   0  0  0  0  0  0  0  0  0  0  0  0
   10.5690  -17.4524   25.5530 C   0  0  2  0  0  0  0  0  0  0  0  0
    9.4035  -16.6547   25.0254 N   0  0  0  0  0  0  0  0  0  0  0  0
    9.4753  -16.6526   23.5574 C   0  0  0  0  0  0  0  0  0  0  0  0
    9.3722  -15.2815   25.5541 O   0  0  0  0  0  0  0  0  0  0  0  0
   10.1568  -14.3993   25.1311 N   0  0  0  0  0  0  0  0  0  0  0  0
   11.4882  -23.3690   24.5199 C   0  0  2  0  0  0  0  0  0  0  0  0
    8.4449  -14.9199   26.5634 C   0  0  0  0  0  0  0  0  0  0  0  0
    8.5865  -13.7627   27.4028 S   0  0  0  0  0  0  0  0  0  0  0  0
    7.1869  -13.1580   27.5791 C   0  0  0  0  0  0  0  0  0  0  0  0
    6.5144  -13.0145   25.8779 O   0  0  0  0  0  0  0  0  0  0  0  0
    9.2585  -14.0062   28.6720 O   0  0  0  0  0  0  0  0  0  0  0  0
  2  1  1  0
  2  3  2  0
  4  2  1  0
  5  4  1  0
  6  5  1  0
  7  6  1  0
  8  7  1  0
  8  9  1  6
 10  8  1  0
 10 11  2  0
 13 12  1  0
 14 13  2  0
 15 13  1  0
 16 15  1  0
 17 16  1  0
 17 18  1  0
 19 18  1  6
 19 20  1  0
 19 21  1  0
 20 10  1  0
 21 23  1  0
 22 21  2  0
 23 24  1  0
 24 27  1  0
 25 26  1  0
 24 25  1  1
 27 28  2  0
 27 29  1  0
M  END
$$$$
