RRC.pdb
     RDKit          3D

 29 28  0  0  1  0  0  0  0  0999 V2000
   13.1340  -27.5270   22.3185 N   0  0  0  0  0  0  0  0  0  0  0  0
   12.0503  -26.8950   21.6677 C   0  0  0  0  0  0  0  0  0  0  0  0
   11.1558  -27.5717   20.9929 N   0  0  0  0  0  0  0  0  0  0  0  0
   11.8351  -25.4950   21.6847 N   0  0  0  0  0  0  0  0  0  0  0  0
   11.5781  -24.7797   22.8732 C   0  0  0  0  0  0  0  0  0  0  0  0
   10.5990  -25.3985   23.8156 C   0  0  0  0  0  0  0  0  0  0  0  0
   10.4480  -24.4971   25.0215 C   0  0  0  0  0  0  0  0  0  0  0  0
    9.5368  -25.0419   26.0620 C   0  0  2  0  0  0  0  0  0  0  0  0
    8.1913  -25.0910   25.5702 N   0  0  0  0  0  0  0  0  0  0  0  0
    9.5538  -24.0701   27.2100 C   0  0  0  0  0  0  0  0  0  0  0  0
    8.7990  -23.0498   27.2197 O   0  0  0  0  0  0  0  0  0  0  0  0
   10.3947  -27.0286   20.5466 N   0  0  0  0  0  0  0  0  0  0  0  0
   12.0682  -27.5216   34.4209 C   0  0  0  0  0  0  0  0  0  0  0  0
   10.8321  -27.8124   33.7580 N   0  0  0  0  0  0  0  0  0  0  0  0
   10.1415  -28.8283   34.1357 N   0  0  0  0  0  0  0  0  0  0  0  0
   10.3435  -27.0152   32.6955 C   0  0  0  0  0  0  0  0  0  0  0  0
   10.9452  -25.7692   32.3027 C   0  0  0  0  0  0  0  0  0  0  0  0
   10.3044  -25.2055   31.0433 C   0  0  0  0  0  0  0  0  0  0  0  0
   11.0903  -23.9836   30.6199 C   0  0  2  0  0  0  0  0  0  0  0  0
   10.4589  -23.2920   29.4383 N   0  0  0  0  0  0  0  0  0  0  0  0
   10.4051  -24.2468   28.3221 C   0  0  0  0  0  0  0  0  0  0  0  0
   11.1761  -22.0667   29.0503 O   0  0  0  0  0  0  0  0  0  0  0  0
   12.2278  -22.1119   28.3688 N   0  0  0  0  0  0  0  0  0  0  0  0
    9.2294  -29.0140   33.7027 C   0  0  1  0  0  0  0  0  0  0  0  0
   10.6898  -20.7939   29.4414 C   0  0  0  0  0  0  0  0  0  0  0  0
   11.3135  -19.5523   29.0765 S   0  0  0  0  0  0  0  0  0  0  0  0
   10.1928  -18.5196   28.8943 C   0  0  0  0  0  0  0  0  0  0  0  0
    9.1486  -19.1865   27.5409 O   0  0  0  0  0  0  0  0  0  0  0  0
   12.3539  -19.0989   29.9897 O   0  0  0  0  0  0  0  0  0  0  0  0
  2  1  1  0
  2  3  2  0
  4  2  1  0
  5  4  1  0
  6  5  1  0
  7  6  1  0
  8  7  1  0
  8  9  1  6
 10  8  1  0
 10 11  2  0
 13 12  1  0
 14 13  2  0
 15 13  1  0
 16 15  1  0
 17 16  1  0
 17 18  1  0
 19 18  1  1
 19 20  1  0
 19 21  1  0
 20 10  1  0
 21 23  1  0
 22 21  2  0
 23 24  1  0
 24 27  1  0
 25 26  1  0
 24 25  1  1
 27 28  2  0
 27 29  1  0
M  END
$$$$
