RRC.pdb
     RDKit          3D

 29 28  0  0  1  0  0  0  0  0999 V2000
   14.0320  -18.0928   15.3643 N   0  0  0  0  0  0  0  0  0  0  0  0
   12.6284  -18.0740   15.2002 C   0  0  0  0  0  0  0  0  0  0  0  0
   11.9943  -19.0092   14.5393 N   0  0  0  0  0  0  0  0  0  0  0  0
   11.7918  -17.0592   15.7264 N   0  0  0  0  0  0  0  0  0  0  0  0
   12.0572  -16.4154   16.9534 C   0  0  0  0  0  0  0  0  0  0  0  0
   11.9789  -17.2695   18.1757 C   0  0  0  0  0  0  0  0  0  0  0  0
   12.0432  -16.3783   19.3969 C   0  0  0  0  0  0  0  0  0  0  0  0
   11.9727  -17.1227   20.6817 C   0  0  2  0  0  0  0  0  0  0  0  0
   11.0977  -18.2512   20.5567 N   0  0  0  0  0  0  0  0  0  0  0  0
   11.3563  -16.1937   21.6915 C   0  0  0  0  0  0  0  0  0  0  0  0
   11.9243  -15.1069   22.0187 O   0  0  0  0  0  0  0  0  0  0  0  0
   10.9640  -18.9211   14.4735 N   0  0  0  0  0  0  0  0  0  0  0  0
    9.2789  -13.7644   18.4226 C   0  0  0  0  0  0  0  0  0  0  0  0
    8.1180  -13.7276   19.2609 N   0  0  0  0  0  0  0  0  0  0  0  0
    6.9676  -13.5115   18.7304 N   0  0  0  0  0  0  0  0  0  0  0  0
    8.1954  -13.9218   20.6607 C   0  0  0  0  0  0  0  0  0  0  0  0
    7.0448  -13.9094   21.5238 C   0  0  0  0  0  0  0  0  0  0  0  0
    7.4204  -14.2003   22.9690 C   0  0  0  0  0  0  0  0  0  0  0  0
    8.0013  -15.5961   23.0342 C   0  0  2  0  0  0  0  0  0  0  0  0
    9.4888  -15.5740   23.2786 N   0  0  0  0  0  0  0  0  0  0  0  0
   10.1256  -16.4865   22.3182 C   0  0  0  0  0  0  0  0  0  0  0  0
    9.8405  -15.9344   24.6616 O   0  0  0  0  0  0  0  0  0  0  0  0
   10.2219  -17.0912   24.9596 N   0  0  0  0  0  0  0  0  0  0  0  0
    6.1432  -13.3948   19.3309 C   0  0  2  0  0  0  0  0  0  0  0  0
    9.7560  -14.9726   25.6995 C   0  0  0  0  0  0  0  0  0  0  0  0
   10.1269  -15.2320   27.0628 S   0  0  0  0  0  0  0  0  0  0  0  0
    9.9271  -13.9250   27.8423 C   0  0  0  0  0  0  0  0  0  0  0  0
    8.2020  -13.4156   27.4801 O   0  0  0  0  0  0  0  0  0  0  0  0
    9.4460  -16.3637   27.6773 O   0  0  0  0  0  0  0  0  0  0  0  0
  2  1  1  0
  2  3  2  0
  4  2  1  0
  5  4  1  0
  6  5  1  0
  7  6  1  0
  8  7  1  0
  8  9  1  6
 10  8  1  0
 10 11  2  0
 13 12  1  0
 14 13  2  0
 15 13  1  0
 16 15  1  0
 17 16  1  0
 17 18  1  0
 19 18  1  6
 19 20  1  0
 19 21  1  0
 20 10  1  0
 21 23  1  0
 22 21  2  0
 23 24  1  0
 24 27  1  0
 25 26  1  0
 24 25  1  1
 27 28  2  0
 27 29  1  0
M  END
$$$$
