RRC.pdb
     RDKit          3D

 29 28  0  0  1  0  0  0  0  0999 V2000
   12.9555  -17.4967   14.4447 N   0  0  0  0  0  0  0  0  0  0  0  0
   11.9959  -18.5315   14.3685 C   0  0  0  0  0  0  0  0  0  0  0  0
   11.8081  -19.2246   13.2742 N   0  0  0  0  0  0  0  0  0  0  0  0
   11.1626  -18.9081   15.4504 N   0  0  0  0  0  0  0  0  0  0  0  0
   11.0205  -18.1191   16.6112 C   0  0  0  0  0  0  0  0  0  0  0  0
   12.1804  -18.1165   17.5517 C   0  0  0  0  0  0  0  0  0  0  0  0
   11.8914  -17.1480   18.6778 C   0  0  0  0  0  0  0  0  0  0  0  0
   11.5227  -17.8128   19.9551 C   0  0  2  0  0  0  0  0  0  0  0  0
   10.4392  -18.7279   19.7463 N   0  0  0  0  0  0  0  0  0  0  0  0
   11.0218  -16.7367   20.8791 C   0  0  0  0  0  0  0  0  0  0  0  0
   11.7664  -15.7698   21.2280 O   0  0  0  0  0  0  0  0  0  0  0  0
   11.0660  -19.9473   13.2978 N   0  0  0  0  0  0  0  0  0  0  0  0
    8.3357  -12.7411   17.0342 C   0  0  0  0  0  0  0  0  0  0  0  0
    7.7780  -13.4830   18.1252 N   0  0  0  0  0  0  0  0  0  0  0  0
    7.4947  -14.7255   17.9591 N   0  0  0  0  0  0  0  0  0  0  0  0
    7.5266  -12.8911   19.3860 C   0  0  0  0  0  0  0  0  0  0  0  0
    6.9250  -13.5991   20.4841 C   0  0  0  0  0  0  0  0  0  0  0  0
    7.9122  -13.8226   21.6199 C   0  0  0  0  0  0  0  0  0  0  0  0
    7.8841  -15.2901   21.9882 C   0  0  2  0  0  0  0  0  0  0  0  0
    9.2437  -15.7899   22.4062 N   0  0  0  0  0  0  0  0  0  0  0  0
    9.7090  -16.7528   21.3979 C   0  0  0  0  0  0  0  0  0  0  0  0
    9.2365  -16.3935   23.7485 O   0  0  0  0  0  0  0  0  0  0  0  0
    8.1718  -16.7802   24.2865 N   0  0  0  0  0  0  0  0  0  0  0  0
    7.1427  -15.2781   18.7494 C   0  0  1  0  0  0  0  0  0  0  0  0
   10.4451  -16.5540   24.4718 C   0  0  0  0  0  0  0  0  0  0  0  0
   10.5547  -17.3084   25.6893 S   0  0  0  0  0  0  0  0  0  0  0  0
   10.1787  -18.7591   25.3579 C   0  0  0  0  0  0  0  0  0  0  0  0
   10.4921  -19.6955   26.9043 O   0  0  0  0  0  0  0  0  0  0  0  0
   11.8421  -17.2001   26.3622 O   0  0  0  0  0  0  0  0  0  0  0  0
  2  1  1  0
  2  3  2  0
  4  2  1  0
  5  4  1  0
  6  5  1  0
  7  6  1  0
  8  7  1  0
  8  9  1  6
 10  8  1  0
 10 11  2  0
 13 12  1  0
 14 13  2  0
 15 13  1  0
 16 15  1  0
 17 16  1  0
 17 18  1  0
 19 18  1  6
 19 20  1  0
 19 21  1  0
 20 10  1  0
 21 23  1  0
 22 21  2  0
 23 24  1  0
 24 27  1  0
 25 26  1  0
 24 25  1  1
 27 28  2  0
 27 29  1  0
M  END
$$$$
