RRC.pdb
     RDKit          3D

 29 28  0  0  1  0  0  0  0  0999 V2000
   10.0696  -15.7895   15.8335 N   0  0  0  0  0  0  0  0  0  0  0  0
    9.1773  -14.8066   15.3485 C   0  0  0  0  0  0  0  0  0  0  0  0
    9.5125  -13.9748   14.3950 N   0  0  0  0  0  0  0  0  0  0  0  0
    7.8602  -14.6333   15.8404 N   0  0  0  0  0  0  0  0  0  0  0  0
    7.5106  -14.8875   17.1834 C   0  0  0  0  0  0  0  0  0  0  0  0
    8.0469  -13.9300   18.1960 C   0  0  0  0  0  0  0  0  0  0  0  0
    7.5186  -14.3179   19.5598 C   0  0  0  0  0  0  0  0  0  0  0  0
    7.8293  -15.7204   19.9421 C   0  0  2  0  0  0  0  0  0  0  0  0
    6.8776  -16.6189   19.3575 N   0  0  0  0  0  0  0  0  0  0  0  0
    7.6669  -15.8127   21.4346 C   0  0  0  0  0  0  0  0  0  0  0  0
    6.5187  -15.9092   21.9670 O   0  0  0  0  0  0  0  0  0  0  0  0
    8.8098  -13.2631   14.1245 N   0  0  0  0  0  0  0  0  0  0  0  0
   12.7186  -16.6768   27.7941 C   0  0  0  0  0  0  0  0  0  0  0  0
   11.8175  -17.6374   28.3571 N   0  0  0  0  0  0  0  0  0  0  0  0
   11.9926  -18.0268   29.5692 N   0  0  0  0  0  0  0  0  0  0  0  0
   10.7356  -18.1753   27.6199 C   0  0  0  0  0  0  0  0  0  0  0  0
   10.6273  -18.0727   26.1892 C   0  0  0  0  0  0  0  0  0  0  0  0
    9.5848  -17.0452   25.7746 C   0  0  0  0  0  0  0  0  0  0  0  0
    9.6099  -16.9293   24.2660 C   0  0  1  0  0  0  0  0  0  0  0  0
    8.6390  -15.8895   23.7668 N   0  0  0  0  0  0  0  0  0  0  0  0
    8.7770  -15.7958   22.3065 C   0  0  0  0  0  0  0  0  0  0  0  0
    8.8401  -14.5767   24.4011 O   0  0  0  0  0  0  0  0  0  0  0  0
    9.8982  -13.9246   24.2345 N   0  0  0  0  0  0  0  0  0  0  0  0
   11.3675  -18.7342   29.9727 C   0  0  2  0  0  0  0  0  0  0  0  0
    7.8323  -14.0127   25.2231 C   0  0  0  0  0  0  0  0  0  0  0  0
    8.0174  -12.8315   26.0194 S   0  0  0  0  0  0  0  0  0  0  0  0
    6.7992  -11.9292   25.7798 C   0  0  0  0  0  0  0  0  0  0  0  0
    5.3950  -12.8086   26.5683 O   0  0  0  0  0  0  0  0  0  0  0  0
    8.2649  -13.0795   27.4333 O   0  0  0  0  0  0  0  0  0  0  0  0
  2  1  1  0
  2  3  2  0
  4  2  1  0
  5  4  1  0
  6  5  1  0
  7  6  1  0
  8  7  1  0
  8  9  1  6
 10  8  1  0
 10 11  2  0
 13 12  1  0
 14 13  2  0
 15 13  1  0
 16 15  1  0
 17 16  1  0
 17 18  1  0
 19 18  1  6
 19 20  1  0
 19 21  1  0
 20 10  1  0
 21 23  1  0
 22 21  2  0
 23 24  1  0
 24 27  1  0
 25 26  1  0
 24 25  1  1
 27 28  2  0
 27 29  1  0
M  END
$$$$
