RRC.pdb
     RDKit          3D

 29 28  0  0  1  0  0  0  0  0999 V2000
   12.0889  -18.4871   17.0112 N   0  0  0  0  0  0  0  0  0  0  0  0
   11.1638  -19.5555   16.9936 C   0  0  0  0  0  0  0  0  0  0  0  0
   10.2723  -19.6859   16.0441 N   0  0  0  0  0  0  0  0  0  0  0  0
   11.1162  -20.5667   17.9844 N   0  0  0  0  0  0  0  0  0  0  0  0
   11.7942  -20.4563   19.2166 C   0  0  0  0  0  0  0  0  0  0  0  0
   11.7694  -19.1109   19.8637 C   0  0  0  0  0  0  0  0  0  0  0  0
   12.5118  -19.1903   21.1798 C   0  0  0  0  0  0  0  0  0  0  0  0
   11.6280  -19.4443   22.3477 C   0  0  2  0  0  0  0  0  0  0  0  0
   10.3994  -20.0471   21.9214 N   0  0  0  0  0  0  0  0  0  0  0  0
   11.2831  -18.1029   22.9346 C   0  0  0  0  0  0  0  0  0  0  0  0
   12.1395  -17.4297   23.5861 O   0  0  0  0  0  0  0  0  0  0  0  0
    9.6249  -20.4917   16.1156 N   0  0  0  0  0  0  0  0  0  0  0  0
    6.7008  -12.3058   19.0512 C   0  0  0  0  0  0  0  0  0  0  0  0
    7.8769  -13.1153   19.1665 N   0  0  0  0  0  0  0  0  0  0  0  0
    8.5814  -13.3513   18.1179 N   0  0  0  0  0  0  0  0  0  0  0  0
    8.2913  -13.6671   20.4022 C   0  0  0  0  0  0  0  0  0  0  0  0
    7.5420  -13.5227   21.6216 C   0  0  0  0  0  0  0  0  0  0  0  0
    8.2381  -14.1965   22.7946 C   0  0  0  0  0  0  0  0  0  0  0  0
    8.6216  -15.5987   22.3741 C   0  0  2  0  0  0  0  0  0  0  0  0
    9.6659  -16.1920   23.2853 N   0  0  0  0  0  0  0  0  0  0  0  0
    9.9990  -17.5348   22.7891 C   0  0  0  0  0  0  0  0  0  0  0  0
    9.2288  -16.2420   24.6898 O   0  0  0  0  0  0  0  0  0  0  0  0
    8.2884  -16.9862   25.0565 N   0  0  0  0  0  0  0  0  0  0  0  0
    9.4207  -13.9382   18.1892 C   0  0  1  0  0  0  0  0  0  0  0  0
    9.8672  -15.4426   25.6711 C   0  0  0  0  0  0  0  0  0  0  0  0
    9.5148  -15.4516   27.0637 S   0  0  0  0  0  0  0  0  0  0  0  0
    9.7052  -16.8883   27.5690 C   0  0  0  0  0  0  0  0  0  0  0  0
   11.2894  -16.8597   28.4942 O   0  0  0  0  0  0  0  0  0  0  0  0
   10.2177  -14.4702   27.8789 O   0  0  0  0  0  0  0  0  0  0  0  0
  2  1  1  0
  2  3  2  0
  4  2  1  0
  5  4  1  0
  6  5  1  0
  7  6  1  0
  8  7  1  0
  8  9  1  6
 10  8  1  0
 10 11  2  0
 13 12  1  0
 14 13  2  0
 15 13  1  0
 16 15  1  0
 17 16  1  0
 17 18  1  0
 19 18  1  6
 19 20  1  0
 19 21  1  0
 20 10  1  0
 21 23  1  0
 22 21  2  0
 23 24  1  0
 24 27  1  0
 25 26  1  0
 24 25  1  1
 27 28  2  0
 27 29  1  0
M  END
$$$$
