ETD.pdb
     RDKit          3D

 25 24  0  0  1  0  0  0  0  0999 V2000
    6.8442  -19.1784   19.1557 N   0  0  0  0  0  0  0  0  0  0  0  0
    6.7186  -18.4793   20.4019 C   0  0  1  0  0  0  0  0  0  0  0  0
    5.4959  -18.9152   21.1287 C   0  0  0  0  0  0  0  0  0  0  0  0
    5.3932  -20.3666   21.4378 C   0  0  0  0  0  0  0  0  0  0  0  0
    4.1465  -20.7876   22.1011 C   0  0  0  0  0  0  0  0  0  0  0  0
    3.2399  -19.9422   22.2817 O   0  0  0  0  0  0  0  0  0  0  0  0
    7.9594  -18.6385   21.2005 C   0  0  0  0  0  0  0  0  0  0  0  0
    8.6829  -19.6722   21.1007 O   0  0  0  0  0  0  0  0  0  0  0  0
    3.9261  -22.0821   22.5379 O   0  0  0  0  0  0  0  0  0  0  0  0
   10.7587  -16.4370   21.0702 C   0  0  0  0  0  0  0  0  0  0  0  0
   10.5476  -16.5409   22.5582 C   0  0  1  0  0  0  0  0  0  0  0  0
   10.1044  -15.3658   23.1344 O   0  0  0  0  0  0  0  0  0  0  0  0
    9.6455  -17.7179   22.8364 C   0  0  2  0  0  0  0  0  0  0  0  0
    8.3976  -17.6452   22.1133 N   0  0  0  0  0  0  0  0  0  0  0  0
    9.4659  -17.9868   24.2705 C   0  0  0  0  0  0  0  0  0  0  0  0
    8.5881  -17.3924   24.9166 O   0  0  0  0  0  0  0  0  0  0  0  0
   10.2968  -18.9248   24.9105 N   0  0  0  0  0  0  0  0  0  0  0  0
   10.1846  -19.2506   26.3238 C   0  0  1  0  0  0  0  0  0  0  0  0
   10.6030  -20.6516   26.6254 C   0  0  0  0  0  0  0  0  0  0  0  0
   10.5367  -21.0164   28.0419 C   0  0  0  0  0  0  0  0  0  0  0  0
    9.6391  -20.4433   28.7364 O   0  0  0  0  0  0  0  0  0  0  0  0
   10.9064  -18.2671   27.1421 C   0  0  0  0  0  0  0  0  0  0  0  0
   10.6755  -18.0263   28.4691 O   0  0  0  0  0  0  0  0  0  0  0  0
   11.3447  -21.9126   28.6922 O   0  0  0  0  0  0  0  0  0  0  0  0
   11.8252  -17.5718   26.5915 O   0  0  0  0  0  0  0  0  0  0  0  0
  2  7  1  0
  2  1  1  6
  3  2  1  0
  4  5  1  0
  4  3  1  0
  5  9  1  0
  6  5  2  0
  7  8  2  0
 11 10  1  6
 12 11  1  0
 13 11  1  0
 14  7  1  0
 13 14  1  1
 15 13  1  0
 15 17  1  0
 16 15  2  0
 18 17  1  0
 18 19  1  6
 20 19  1  0
 20 21  2  0
 22 23  1  0
 22 18  1  0
 24 20  1  0
 25 22  2  0
M  END
$$$$
