ETD.pdb
     RDKit          3D

 25 24  0  0  1  0  0  0  0  0999 V2000
    7.5302  -14.3164   14.9407 N   0  0  0  0  0  0  0  0  0  0  0  0
    7.8598  -15.2622   15.9675 C   0  0  1  0  0  0  0  0  0  0  0  0
    8.6558  -16.3884   15.4096 C   0  0  0  0  0  0  0  0  0  0  0  0
    9.7050  -16.0286   14.4185 C   0  0  0  0  0  0  0  0  0  0  0  0
   10.5062  -17.1539   13.9055 C   0  0  0  0  0  0  0  0  0  0  0  0
   10.7915  -17.1896   12.6863 O   0  0  0  0  0  0  0  0  0  0  0  0
    8.5357  -14.5727   17.0947 C   0  0  0  0  0  0  0  0  0  0  0  0
    8.6485  -13.3125   17.1278 O   0  0  0  0  0  0  0  0  0  0  0  0
   10.9628  -18.1821   14.7115 O   0  0  0  0  0  0  0  0  0  0  0  0
    7.6979  -12.9408   18.9128 C   0  0  0  0  0  0  0  0  0  0  0  0
    8.0784  -13.9366   19.9772 C   0  0  1  0  0  0  0  0  0  0  0  0
    7.0295  -14.7420   20.3774 O   0  0  0  0  0  0  0  0  0  0  0  0
    9.2798  -14.7157   19.5014 C   0  0  2  0  0  0  0  0  0  0  0  0
    9.0882  -15.2864   18.1888 N   0  0  0  0  0  0  0  0  0  0  0  0
    9.7689  -15.6900   20.4878 C   0  0  0  0  0  0  0  0  0  0  0  0
    9.5363  -16.9010   20.3441 O   0  0  0  0  0  0  0  0  0  0  0  0
   10.5051  -15.2421   21.6001 N   0  0  0  0  0  0  0  0  0  0  0  0
   11.3400  -16.1201   22.4051 C   0  0  1  0  0  0  0  0  0  0  0  0
   12.7399  -15.6187   22.5381 C   0  0  0  0  0  0  0  0  0  0  0  0
   13.6220  -16.4761   23.3322 C   0  0  0  0  0  0  0  0  0  0  0  0
   14.1253  -15.9609   24.3800 O   0  0  0  0  0  0  0  0  0  0  0  0
   10.7159  -16.3772   23.7098 C   0  0  0  0  0  0  0  0  0  0  0  0
    9.5818  -15.7679   24.1734 O   0  0  0  0  0  0  0  0  0  0  0  0
   13.9584  -17.7765   23.0587 O   0  0  0  0  0  0  0  0  0  0  0  0
   11.2580  -17.2325   24.4878 O   0  0  0  0  0  0  0  0  0  0  0  0
  2  7  1  0
  2  1  1  6
  3  2  1  0
  4  5  1  0
  4  3  1  0
  5  9  1  0
  6  5  2  0
  7  8  2  0
 11 10  1  6
 12 11  1  0
 13 11  1  0
 14  7  1  0
 13 14  1  6
 15 13  1  0
 15 17  1  0
 16 15  2  0
 18 17  1  0
 18 19  1  1
 20 19  1  0
 20 21  2  0
 22 23  1  0
 22 18  1  0
 24 20  1  0
 25 22  2  0
M  END
$$$$
