ETD.pdb
     RDKit          3D

 25 24  0  0  1  0  0  0  0  0999 V2000
    9.6693  -15.9496   14.1866 N   0  0  0  0  0  0  0  0  0  0  0  0
    8.6321  -16.0798   15.1689 C   0  0  1  0  0  0  0  0  0  0  0  0
    8.1675  -17.4902   15.2597 C   0  0  0  0  0  0  0  0  0  0  0  0
    9.2256  -18.5270   15.3938 C   0  0  0  0  0  0  0  0  0  0  0  0
    8.7475  -19.9203   15.4340 C   0  0  0  0  0  0  0  0  0  0  0  0
    8.8852  -20.6387   14.4170 O   0  0  0  0  0  0  0  0  0  0  0  0
    9.0931  -15.5330   16.4694 C   0  0  0  0  0  0  0  0  0  0  0  0
   10.3079  -15.5932   16.8196 O   0  0  0  0  0  0  0  0  0  0  0  0
    8.1488  -20.4790   16.5496 O   0  0  0  0  0  0  0  0  0  0  0  0
    8.1347  -12.7403   20.4431 C   0  0  0  0  0  0  0  0  0  0  0  0
    7.5914  -13.3522   19.1782 C   0  0  1  0  0  0  0  0  0  0  0  0
    7.1588  -12.4180   18.2567 O   0  0  0  0  0  0  0  0  0  0  0  0
    8.6211  -14.3047   18.6223 C   0  0  2  0  0  0  0  0  0  0  0  0
    8.2008  -14.9171   17.3839 N   0  0  0  0  0  0  0  0  0  0  0  0
    9.1065  -15.2783   19.6112 C   0  0  0  0  0  0  0  0  0  0  0  0
    8.5924  -16.4058   19.6883 O   0  0  0  0  0  0  0  0  0  0  0  0
   10.1608  -14.9254   20.4736 N   0  0  0  0  0  0  0  0  0  0  0  0
   10.7483  -15.8513   21.4293 C   0  0  1  0  0  0  0  0  0  0  0  0
   12.0521  -15.3668   21.9715 C   0  0  0  0  0  0  0  0  0  0  0  0
   12.7012  -16.2844   22.9099 C   0  0  0  0  0  0  0  0  0  0  0  0
   12.6681  -15.9602   24.1389 O   0  0  0  0  0  0  0  0  0  0  0  0
    9.7900  -16.1755   22.4944 C   0  0  0  0  0  0  0  0  0  0  0  0
    9.6491  -17.4046   23.0790 O   0  0  0  0  0  0  0  0  0  0  0  0
   13.3398  -17.4559   22.5957 O   0  0  0  0  0  0  0  0  0  0  0  0
    9.0184  -15.2525   22.9228 O   0  0  0  0  0  0  0  0  0  0  0  0
  2  7  1  0
  2  1  1  6
  3  2  1  0
  4  5  1  0
  4  3  1  0
  5  9  1  0
  6  5  2  0
  7  8  2  0
 11 10  1  1
 12 11  1  0
 13 11  1  0
 14  7  1  0
 13 14  1  6
 15 13  1  0
 15 17  1  0
 16 15  2  0
 18 17  1  0
 18 19  1  1
 20 19  1  0
 20 21  2  0
 22 23  1  0
 22 18  1  0
 24 20  1  0
 25 22  2  0
M  END
$$$$
