ETD.pdb
     RDKit          3D

 25 24  0  0  1  0  0  0  0  0999 V2000
   10.1773  -13.0869   19.0209 N   0  0  0  0  0  0  0  0  0  0  0  0
    8.7975  -13.3088   19.3443 C   0  0  1  0  0  0  0  0  0  0  0  0
    7.9898  -13.4885   18.1079 C   0  0  0  0  0  0  0  0  0  0  0  0
    8.6523  -14.2028   16.9839 C   0  0  0  0  0  0  0  0  0  0  0  0
    7.8431  -14.3513   15.7613 C   0  0  0  0  0  0  0  0  0  0  0  0
    7.7113  -15.4898   15.2555 O   0  0  0  0  0  0  0  0  0  0  0  0
    8.6744  -14.4448   20.2914 C   0  0  0  0  0  0  0  0  0  0  0  0
    7.5478  -14.8282   20.7225 O   0  0  0  0  0  0  0  0  0  0  0  0
    7.2164  -13.2858   15.1392 O   0  0  0  0  0  0  0  0  0  0  0  0
   10.1768  -18.6377   22.1204 C   0  0  0  0  0  0  0  0  0  0  0  0
   10.2330  -17.5577   21.0716 C   0  0  1  0  0  0  0  0  0  0  0  0
    9.5888  -17.8970   19.8973 O   0  0  0  0  0  0  0  0  0  0  0  0
    9.7290  -16.2708   21.6770 C   0  0  2  0  0  0  0  0  0  0  0  0
    9.8074  -15.1572   20.7610 N   0  0  0  0  0  0  0  0  0  0  0  0
   10.3166  -15.9777   22.9924 C   0  0  0  0  0  0  0  0  0  0  0  0
   11.1648  -15.0795   23.1162 O   0  0  0  0  0  0  0  0  0  0  0  0
    9.9117  -16.7226   24.1153 N   0  0  0  0  0  0  0  0  0  0  0  0
   10.3928  -16.4538   25.4616 C   0  0  1  0  0  0  0  0  0  0  0  0
    9.5843  -15.4134   26.1635 C   0  0  0  0  0  0  0  0  0  0  0  0
   10.0812  -15.0481   27.4915 C   0  0  0  0  0  0  0  0  0  0  0  0
   11.1565  -15.6098   27.8719 O   0  0  0  0  0  0  0  0  0  0  0  0
   10.4894  -17.6982   26.2363 C   0  0  0  0  0  0  0  0  0  0  0  0
   11.5397  -18.0438   27.0423 O   0  0  0  0  0  0  0  0  0  0  0  0
    9.5031  -14.1626   28.3637 O   0  0  0  0  0  0  0  0  0  0  0  0
    9.5290  -18.5369   26.1661 O   0  0  0  0  0  0  0  0  0  0  0  0
  2  7  1  0
  2  1  1  6
  3  2  1  0
  4  5  1  0
  4  3  1  0
  5  9  1  0
  6  5  2  0
  7  8  2  0
 11 10  1  1
 12 11  1  0
 13 11  1  0
 14  7  1  0
 13 14  1  6
 15 13  1  0
 15 17  1  0
 16 15  2  0
 18 17  1  0
 18 19  1  1
 20 19  1  0
 20 21  2  0
 22 23  1  0
 22 18  1  0
 24 20  1  0
 25 22  2  0
M  END
$$$$
