ETD.pdb
     RDKit          3D

 25 24  0  0  1  0  0  0  0  0999 V2000
    8.3198  -15.8815   15.7561 N   0  0  0  0  0  0  0  0  0  0  0  0
    7.8456  -16.3794   17.0150 C   0  0  1  0  0  0  0  0  0  0  0  0
    7.8778  -17.8666   17.0383 C   0  0  0  0  0  0  0  0  0  0  0  0
    9.1464  -18.5070   16.5989 C   0  0  0  0  0  0  0  0  0  0  0  0
    9.1398  -19.9804   16.5784 C   0  0  0  0  0  0  0  0  0  0  0  0
   10.2055  -20.5885   16.3257 O   0  0  0  0  0  0  0  0  0  0  0  0
    8.6119  -15.7622   18.1261 C   0  0  0  0  0  0  0  0  0  0  0  0
    9.7707  -15.2859   17.9465 O   0  0  0  0  0  0  0  0  0  0  0  0
    8.0045  -20.7318   16.8268 O   0  0  0  0  0  0  0  0  0  0  0  0
    7.7241  -12.8761   20.2487 C   0  0  0  0  0  0  0  0  0  0  0  0
    7.9781  -13.9913   21.2291 C   0  0  1  0  0  0  0  0  0  0  0  0
    6.8275  -14.4769   21.8202 O   0  0  0  0  0  0  0  0  0  0  0  0
    8.7921  -15.0606   20.5430 C   0  0  2  0  0  0  0  0  0  0  0  0
    8.0884  -15.6742   19.4414 N   0  0  0  0  0  0  0  0  0  0  0  0
    9.3694  -16.0398   21.4753 C   0  0  0  0  0  0  0  0  0  0  0  0
    8.9463  -17.2067   21.5033 O   0  0  0  0  0  0  0  0  0  0  0  0
   10.4082  -15.6472   22.3394 N   0  0  0  0  0  0  0  0  0  0  0  0
   10.9998  -16.5382   23.3254 C   0  0  1  0  0  0  0  0  0  0  0  0
   12.4400  -16.2382   23.5799 C   0  0  0  0  0  0  0  0  0  0  0  0
   13.2893  -16.2690   22.3876 C   0  0  0  0  0  0  0  0  0  0  0  0
   13.2932  -17.3503   21.7187 O   0  0  0  0  0  0  0  0  0  0  0  0
   10.2068  -16.5438   24.5619 C   0  0  0  0  0  0  0  0  0  0  0  0
    9.1411  -15.7244   24.8170 O   0  0  0  0  0  0  0  0  0  0  0  0
   14.0791  -15.2500   21.9219 O   0  0  0  0  0  0  0  0  0  0  0  0
   10.5196  -17.3703   25.4838 O   0  0  0  0  0  0  0  0  0  0  0  0
  2  7  1  0
  2  1  1  6
  3  2  1  0
  4  5  1  0
  4  3  1  0
  5  9  1  0
  6  5  2  0
  7  8  2  0
 11 10  1  6
 12 11  1  0
 13 11  1  0
 14  7  1  0
 13 14  1  6
 15 13  1  0
 15 17  1  0
 16 15  2  0
 18 17  1  0
 18 19  1  1
 20 19  1  0
 20 21  2  0
 22 23  1  0
 22 18  1  0
 24 20  1  0
 25 22  2  0
M  END
$$$$
