ETD.pdb
     RDKit          3D

 25 24  0  0  1  0  0  0  0  0999 V2000
    7.2206  -17.8399   17.3322 N   0  0  0  0  0  0  0  0  0  0  0  0
    8.6281  -17.6709   17.1127 C   0  0  1  0  0  0  0  0  0  0  0  0
    8.8980  -17.2876   15.7008 C   0  0  0  0  0  0  0  0  0  0  0  0
    8.0132  -16.2429   15.1190 C   0  0  0  0  0  0  0  0  0  0  0  0
    8.3403  -15.8282   13.7433 C   0  0  0  0  0  0  0  0  0  0  0  0
    7.9385  -16.5298   12.7864 O   0  0  0  0  0  0  0  0  0  0  0  0
    9.1827  -16.7063   18.0949 C   0  0  0  0  0  0  0  0  0  0  0  0
   10.3726  -16.2837   18.0082 O   0  0  0  0  0  0  0  0  0  0  0  0
    9.0757  -14.6922   13.4541 O   0  0  0  0  0  0  0  0  0  0  0  0
    7.3687  -13.5504   19.6555 C   0  0  0  0  0  0  0  0  0  0  0  0
    7.9010  -14.4107   20.7717 C   0  0  1  0  0  0  0  0  0  0  0  0
    6.9121  -15.0620   21.4839 O   0  0  0  0  0  0  0  0  0  0  0  0
    8.9414  -15.3456   20.2059 C   0  0  2  0  0  0  0  0  0  0  0  0
    8.4121  -16.2097   19.1771 N   0  0  0  0  0  0  0  0  0  0  0  0
    9.6931  -16.0729   21.2391 C   0  0  0  0  0  0  0  0  0  0  0  0
    9.4699  -17.2760   21.4493 O   0  0  0  0  0  0  0  0  0  0  0  0
   10.6708  -15.3968   21.9919 N   0  0  0  0  0  0  0  0  0  0  0  0
   11.3061  -15.9722   23.1672 C   0  0  1  0  0  0  0  0  0  0  0  0
   12.6578  -15.3955   23.4299 C   0  0  0  0  0  0  0  0  0  0  0  0
   13.7558  -16.0762   22.7407 C   0  0  0  0  0  0  0  0  0  0  0  0
   13.4541  -17.1206   22.0813 O   0  0  0  0  0  0  0  0  0  0  0  0
   10.4225  -15.8716   24.3365 C   0  0  0  0  0  0  0  0  0  0  0  0
   10.3902  -16.7595   25.3771 O   0  0  0  0  0  0  0  0  0  0  0  0
   15.0739  -15.7000   22.7358 O   0  0  0  0  0  0  0  0  0  0  0  0
    9.6135  -14.8861   24.4071 O   0  0  0  0  0  0  0  0  0  0  0  0
  2  7  1  0
  2  1  1  6
  3  2  1  0
  4  5  1  0
  4  3  1  0
  5  9  1  0
  6  5  2  0
  7  8  2  0
 11 10  1  6
 12 11  1  0
 13 11  1  0
 14  7  1  0
 13 14  1  6
 15 13  1  0
 15 17  1  0
 16 15  2  0
 18 17  1  0
 18 19  1  1
 20 19  1  0
 20 21  2  0
 22 23  1  0
 22 18  1  0
 24 20  1  0
 25 22  2  0
M  END
$$$$
