ETD.pdb
     RDKit          3D

 25 24  0  0  1  0  0  0  0  0999 V2000
    8.2283  -15.8788   16.2916 N   0  0  0  0  0  0  0  0  0  0  0  0
    8.2848  -16.6734   17.4845 C   0  0  1  0  0  0  0  0  0  0  0  0
    8.9941  -17.9560   17.2291 C   0  0  0  0  0  0  0  0  0  0  0  0
   10.4411  -17.8564   16.8991 C   0  0  0  0  0  0  0  0  0  0  0  0
   11.1121  -19.1328   16.5954 C   0  0  0  0  0  0  0  0  0  0  0  0
   12.2490  -19.3496   17.0746 O   0  0  0  0  0  0  0  0  0  0  0  0
    8.8839  -15.8862   18.5909 C   0  0  0  0  0  0  0  0  0  0  0  0
    9.2808  -14.6969   18.4178 O   0  0  0  0  0  0  0  0  0  0  0  0
   10.5431  -20.1119   15.7999 O   0  0  0  0  0  0  0  0  0  0  0  0
    6.6507  -15.7230   21.2107 C   0  0  0  0  0  0  0  0  0  0  0  0
    7.8405  -14.8032   21.2989 C   0  0  1  0  0  0  0  0  0  0  0  0
    7.8666  -14.0465   22.4546 O   0  0  0  0  0  0  0  0  0  0  0  0
    9.0948  -15.6158   21.0906 C   0  0  2  0  0  0  0  0  0  0  0  0
    9.0423  -16.4228   19.8942 N   0  0  0  0  0  0  0  0  0  0  0  0
    9.4993  -16.3766   22.2818 C   0  0  0  0  0  0  0  0  0  0  0  0
    8.9081  -17.4240   22.5896 O   0  0  0  0  0  0  0  0  0  0  0  0
   10.5640  -15.9105   23.0750 N   0  0  0  0  0  0  0  0  0  0  0  0
   11.1449  -16.6868   24.1595 C   0  0  1  0  0  0  0  0  0  0  0  0
   12.5556  -16.2969   24.4534 C   0  0  0  0  0  0  0  0  0  0  0  0
   13.4450  -16.3028   23.2903 C   0  0  0  0  0  0  0  0  0  0  0  0
   13.5626  -17.4056   22.6686 O   0  0  0  0  0  0  0  0  0  0  0  0
   10.2921  -16.6284   25.3542 C   0  0  0  0  0  0  0  0  0  0  0  0
   10.4156  -17.4391   26.4495 O   0  0  0  0  0  0  0  0  0  0  0  0
   14.1621  -15.2396   22.8061 O   0  0  0  0  0  0  0  0  0  0  0  0
    9.3562  -15.7606   25.3941 O   0  0  0  0  0  0  0  0  0  0  0  0
  2  7  1  0
  2  1  1  6
  3  2  1  0
  4  5  1  0
  4  3  1  0
  5  9  1  0
  6  5  2  0
  7  8  2  0
 11 10  1  1
 12 11  1  0
 13 11  1  0
 14  7  1  0
 13 14  1  6
 15 13  1  0
 15 17  1  0
 16 15  2  0
 18 17  1  0
 18 19  1  1
 20 19  1  0
 20 21  2  0
 22 23  1  0
 22 18  1  0
 24 20  1  0
 25 22  2  0
M  END
$$$$
