ETD.pdb
     RDKit          3D

 25 24  0  0  1  0  0  0  0  0999 V2000
    6.7527  -17.6727   17.4285 N   0  0  0  0  0  0  0  0  0  0  0  0
    8.1420  -17.6543   17.0721 C   0  0  1  0  0  0  0  0  0  0  0  0
    8.3142  -17.2662   15.6462 C   0  0  0  0  0  0  0  0  0  0  0  0
    7.4265  -16.1833   15.1444 C   0  0  0  0  0  0  0  0  0  0  0  0
    7.5945  -15.8324   13.7230 C   0  0  0  0  0  0  0  0  0  0  0  0
    7.4668  -16.7290   12.8576 O   0  0  0  0  0  0  0  0  0  0  0  0
    8.8947  -16.7829   18.0084 C   0  0  0  0  0  0  0  0  0  0  0  0
   10.1064  -16.4805   17.8023 O   0  0  0  0  0  0  0  0  0  0  0  0
    7.8890  -14.5502   13.2937 O   0  0  0  0  0  0  0  0  0  0  0  0
    7.3764  -13.5934   19.8227 C   0  0  0  0  0  0  0  0  0  0  0  0
    8.0807  -14.4503   20.8421 C   0  0  1  0  0  0  0  0  0  0  0  0
    7.2198  -15.0822   21.7188 O   0  0  0  0  0  0  0  0  0  0  0  0
    8.9997  -15.4036   20.1186 C   0  0  2  0  0  0  0  0  0  0  0  0
    8.2987  -16.2457   19.1780 N   0  0  0  0  0  0  0  0  0  0  0  0
    9.8825  -16.1575   21.0206 C   0  0  0  0  0  0  0  0  0  0  0  0
    9.6355  -17.3425   21.2967 O   0  0  0  0  0  0  0  0  0  0  0  0
   11.0135  -15.5277   21.5720 N   0  0  0  0  0  0  0  0  0  0  0  0
   11.8837  -16.1691   22.5453 C   0  0  1  0  0  0  0  0  0  0  0  0
   13.2278  -15.5246   22.6269 C   0  0  0  0  0  0  0  0  0  0  0  0
   14.1660  -16.1837   23.5375 C   0  0  0  0  0  0  0  0  0  0  0  0
   14.5990  -15.4890   24.5104 O   0  0  0  0  0  0  0  0  0  0  0  0
   11.2257  -16.2494   23.8563 C   0  0  0  0  0  0  0  0  0  0  0  0
   10.0509  -15.6305   24.1863 O   0  0  0  0  0  0  0  0  0  0  0  0
   14.6229  -17.4728   23.4455 O   0  0  0  0  0  0  0  0  0  0  0  0
   11.7766  -16.9459   24.7739 O   0  0  0  0  0  0  0  0  0  0  0  0
  2  7  1  0
  2  1  1  1
  3  2  1  0
  4  5  1  0
  4  3  1  0
  5  9  1  0
  6  5  2  0
  7  8  2  0
 11 10  1  6
 12 11  1  0
 13 11  1  0
 14  7  1  0
 13 14  1  1
 15 13  1  0
 15 17  1  0
 16 15  2  0
 18 17  1  0
 18 19  1  1
 20 19  1  0
 20 21  2  0
 22 23  1  0
 22 18  1  0
 24 20  1  0
 25 22  2  0
M  END
$$$$
