ETD.pdb
     RDKit          3D

 25 24  0  0  1  0  0  0  0  0999 V2000
   11.9746  -14.7240   16.5804 N   0  0  0  0  0  0  0  0  0  0  0  0
   12.7338  -14.7831   17.7960 C   0  0  1  0  0  0  0  0  0  0  0  0
   14.0504  -14.1114   17.6271 C   0  0  0  0  0  0  0  0  0  0  0  0
   15.0526  -14.8230   16.7893 C   0  0  0  0  0  0  0  0  0  0  0  0
   16.1610  -15.4559   17.5259 C   0  0  0  0  0  0  0  0  0  0  0  0
   16.0722  -16.6671   17.8329 O   0  0  0  0  0  0  0  0  0  0  0  0
   11.9371  -14.2302   18.9194 C   0  0  0  0  0  0  0  0  0  0  0  0
   12.0895  -13.0376   19.3151 O   0  0  0  0  0  0  0  0  0  0  0  0
   17.3050  -14.7719   17.8984 O   0  0  0  0  0  0  0  0  0  0  0  0
    8.9363  -12.9125   19.3783 C   0  0  0  0  0  0  0  0  0  0  0  0
    8.8153  -14.0697   20.3352 C   0  0  1  0  0  0  0  0  0  0  0  0
    8.0248  -15.0977   19.8584 O   0  0  0  0  0  0  0  0  0  0  0  0
   10.2016  -14.5175   20.7283 C   0  0  2  0  0  0  0  0  0  0  0  0
   10.9675  -15.0054   19.6055 N   0  0  0  0  0  0  0  0  0  0  0  0
   10.2124  -15.4359   21.8762 C   0  0  0  0  0  0  0  0  0  0  0  0
   10.1175  -16.6614   21.7019 O   0  0  0  0  0  0  0  0  0  0  0  0
   10.3313  -14.9177   23.1790 N   0  0  0  0  0  0  0  0  0  0  0  0
   10.2740  -15.7482   24.3719 C   0  0  1  0  0  0  0  0  0  0  0  0
    8.9744  -16.4703   24.5072 C   0  0  0  0  0  0  0  0  0  0  0  0
    8.8936  -17.3699   25.6597 C   0  0  0  0  0  0  0  0  0  0  0  0
    9.9049  -17.4016   26.4296 O   0  0  0  0  0  0  0  0  0  0  0  0
   11.4243  -16.6603   24.4250 C   0  0  0  0  0  0  0  0  0  0  0  0
   12.5393  -16.4766   25.1965 O   0  0  0  0  0  0  0  0  0  0  0  0
    7.8380  -18.1794   25.9903 O   0  0  0  0  0  0  0  0  0  0  0  0
   11.4023  -17.7130   23.7024 O   0  0  0  0  0  0  0  0  0  0  0  0
  2  7  1  0
  2  1  1  6
  3  2  1  0
  4  5  1  0
  4  3  1  0
  5  9  1  0
  6  5  2  0
  7  8  2  0
 11 10  1  6
 12 11  1  0
 13 11  1  0
 14  7  1  0
 13 14  1  6
 15 13  1  0
 15 17  1  0
 16 15  2  0
 18 17  1  0
 18 19  1  6
 20 19  1  0
 20 21  2  0
 22 23  1  0
 22 18  1  0
 24 20  1  0
 25 22  2  0
M  END
$$$$
