RAG.pdb
     RDKit          3D

 21 20  0  0  1  0  0  0  0  0999 V2000
    7.6372  -13.1476   17.6415 N   0  0  0  0  0  0  0  0  0  0  0  0
    7.7637  -14.4440   17.0656 C   0  0  0  0  0  0  0  0  0  0  0  0
    7.2533  -14.6185   15.8975 N   0  0  0  0  0  0  0  0  0  0  0  0
    8.4284  -15.4649   17.7807 N   0  0  0  0  0  0  0  0  0  0  0  0
    8.5778  -15.3025   19.2133 C   0  0  0  0  0  0  0  0  0  0  0  0
    7.2520  -15.0609   19.8860 C   0  0  0  0  0  0  0  0  0  0  0  0
    7.4668  -14.9021   21.3565 C   0  0  0  0  0  0  0  0  0  0  0  0
    7.5136  -13.4740   21.8106 C   0  0  2  0  0  0  0  0  0  0  0  0
    8.1697  -12.6014   20.8914 N   0  0  0  0  0  0  0  0  0  0  0  0
    8.0997  -13.4495   23.1723 C   0  0  0  0  0  0  0  0  0  0  0  0
    9.3537  -13.5197   23.2542 O   0  0  0  0  0  0  0  0  0  0  0  0
    7.3021  -15.5435   15.4177 C   0  0  0  0  0  0  0  0  0  0  0  0
    7.3379  -12.3197   26.5789 C   0  0  2  0  0  0  0  0  0  0  0  0
    7.9878  -13.3181   25.6499 N   0  0  0  0  0  0  0  0  0  0  0  0
    7.3452  -13.3540   24.3550 C   0  0  0  0  0  0  0  0  0  0  0  0
    7.8761  -14.6550   26.2855 O   0  0  0  0  0  0  0  0  0  0  0  0
    6.9968  -14.8374   27.1601 N   0  0  0  0  0  0  0  0  0  0  0  0
    8.7230  -15.7363   25.9450 C   0  0  0  0  0  0  0  0  0  0  0  0
    9.9709  -15.8975   26.6286 C   0  0  0  0  0  0  0  0  0  0  0  0
    9.8855  -16.8000   27.7826 O   0  0  0  0  0  0  0  0  0  0  0  0
    8.8011  -17.3564   28.0726 O   0  0  0  0  0  0  0  0  0  0  0  0
  1  2  1  0
  2  3  2  0
  4  5  1  0
  4  2  1  0
  5  6  1  0
  6  7  1  0
  7  8  1  0
  8 10  1  0
  8  9  1  6
 10 11  2  0
 10 14  1  0
 13 12  1  6
 13 15  1  0
 14 13  1  0
 15 17  1  0
 15 16  2  0
 17 18  1  0
 18 19  1  0
 19 21  1  0
 20 19  2  0
M  END
$$$$
