RAG.pdb
     RDKit          3D

 21 20  0  0  1  0  0  0  0  0999 V2000
    8.0248  -13.0619   16.1657 N   0  0  0  0  0  0  0  0  0  0  0  0
    7.8709  -14.4022   16.6218 C   0  0  0  0  0  0  0  0  0  0  0  0
    8.2570  -15.3390   15.8287 N   0  0  0  0  0  0  0  0  0  0  0  0
    7.3138  -14.6474   17.8966 N   0  0  0  0  0  0  0  0  0  0  0  0
    7.9125  -13.9831   19.0375 C   0  0  0  0  0  0  0  0  0  0  0  0
    8.4700  -14.9727   20.0266 C   0  0  0  0  0  0  0  0  0  0  0  0
    8.8334  -14.2580   21.2878 C   0  0  0  0  0  0  0  0  0  0  0  0
    7.8227  -14.4131   22.3843 C   0  0  2  0  0  0  0  0  0  0  0  0
    6.5519  -13.8407   22.0777 N   0  0  0  0  0  0  0  0  0  0  0  0
    8.4237  -13.8873   23.6335 C   0  0  0  0  0  0  0  0  0  0  0  0
    9.3998  -13.1025   23.5099 O   0  0  0  0  0  0  0  0  0  0  0  0
    8.2929  -16.3333   16.1420 C   0  0  0  0  0  0  0  0  0  0  0  0
    7.8909  -12.9773   27.0428 C   0  0  2  0  0  0  0  0  0  0  0  0
    8.7181  -13.8180   26.0987 N   0  0  0  0  0  0  0  0  0  0  0  0
    7.9710  -14.2114   24.9248 C   0  0  0  0  0  0  0  0  0  0  0  0
    9.1380  -15.0346   26.8384 O   0  0  0  0  0  0  0  0  0  0  0  0
    8.3852  -16.0369   26.8312 N   0  0  0  0  0  0  0  0  0  0  0  0
   10.3563  -15.1114   27.5542 C   0  0  0  0  0  0  0  0  0  0  0  0
   10.9217  -16.3935   27.8490 C   0  0  0  0  0  0  0  0  0  0  0  0
   10.6234  -16.8580   29.2087 O   0  0  0  0  0  0  0  0  0  0  0  0
    9.9768  -16.1315   29.9986 O   0  0  0  0  0  0  0  0  0  0  0  0
  1  2  1  0
  2  3  2  0
  4  5  1  0
  4  2  1  0
  5  6  1  0
  6  7  1  0
  7  8  1  0
  8 10  1  0
  8  9  1  6
 10 11  2  0
 10 14  1  0
 13 12  1  6
 13 15  1  0
 14 13  1  0
 15 17  1  0
 15 16  2  0
 17 18  1  0
 18 19  1  0
 19 21  1  0
 20 19  2  0
M  END
$$$$
