RAG.pdb
     RDKit          3D

 21 20  0  0  1  0  0  0  0  0999 V2000
    7.2017  -12.8824   18.2174 N   0  0  0  0  0  0  0  0  0  0  0  0
    8.2234  -13.8418   17.9639 C   0  0  0  0  0  0  0  0  0  0  0  0
    8.5809  -14.0072   16.7391 N   0  0  0  0  0  0  0  0  0  0  0  0
    8.7922  -14.5583   19.0403 N   0  0  0  0  0  0  0  0  0  0  0  0
    7.9126  -14.9870   20.1097 C   0  0  0  0  0  0  0  0  0  0  0  0
    7.5931  -13.8568   21.0526 C   0  0  0  0  0  0  0  0  0  0  0  0
    6.9042  -14.4027   22.2613 C   0  0  0  0  0  0  0  0  0  0  0  0
    7.7913  -15.2312   23.1413 C   0  0  2  0  0  0  0  0  0  0  0  0
    7.1809  -16.4379   23.5973 N   0  0  0  0  0  0  0  0  0  0  0  0
    8.2806  -14.3630   24.2391 C   0  0  0  0  0  0  0  0  0  0  0  0
    8.8016  -13.2660   23.9089 O   0  0  0  0  0  0  0  0  0  0  0  0
    9.3470  -14.6672   16.4829 C   0  0  0  0  0  0  0  0  0  0  0  0
    7.8529  -12.7862   27.1084 C   0  0  2  0  0  0  0  0  0  0  0  0
    8.8014  -13.8527   26.6133 N   0  0  0  0  0  0  0  0  0  0  0  0
    8.1960  -14.6922   25.6035 C   0  0  0  0  0  0  0  0  0  0  0  0
    9.1775  -14.6897   27.7802 O   0  0  0  0  0  0  0  0  0  0  0  0
    8.3139  -15.4432   28.2877 N   0  0  0  0  0  0  0  0  0  0  0  0
   10.4744  -14.6730   28.3463 C   0  0  0  0  0  0  0  0  0  0  0  0
   11.5674  -15.2497   27.6229 C   0  0  0  0  0  0  0  0  0  0  0  0
   11.5649  -16.7170   27.6445 O   0  0  0  0  0  0  0  0  0  0  0  0
   10.5404  -17.3537   27.3061 O   0  0  0  0  0  0  0  0  0  0  0  0
  1  2  1  0
  2  3  2  0
  4  5  1  0
  4  2  1  0
  5  6  1  0
  6  7  1  0
  7  8  1  0
  8 10  1  0
  8  9  1  1
 10 11  2  0
 10 14  1  0
 13 12  1  6
 13 15  1  0
 14 13  1  0
 15 17  1  0
 15 16  2  0
 17 18  1  0
 18 19  1  0
 19 21  1  0
 20 19  2  0
M  END
$$$$
