RAG.pdb
     RDKit          3D

 21 20  0  0  1  0  0  0  0  0999 V2000
    8.6821  -15.6656   17.0349 N   0  0  0  0  0  0  0  0  0  0  0  0
    8.4058  -14.3107   16.6937 C   0  0  0  0  0  0  0  0  0  0  0  0
    8.0827  -14.0683   15.4721 N   0  0  0  0  0  0  0  0  0  0  0  0
    8.4947  -13.3081   17.6848 N   0  0  0  0  0  0  0  0  0  0  0  0
    8.6864  -13.7280   19.0590 C   0  0  0  0  0  0  0  0  0  0  0  0
    7.5400  -13.2978   19.9360 C   0  0  0  0  0  0  0  0  0  0  0  0
    7.7818  -13.7730   21.3322 C   0  0  0  0  0  0  0  0  0  0  0  0
    7.4804  -15.2273   21.5374 C   0  0  2  0  0  0  0  0  0  0  0  0
    6.1697  -15.4750   22.0450 N   0  0  0  0  0  0  0  0  0  0  0  0
    8.5593  -15.8005   22.3775 C   0  0  0  0  0  0  0  0  0  0  0  0
    8.5886  -15.4486   23.5856 O   0  0  0  0  0  0  0  0  0  0  0  0
    7.9056  -13.0949   15.1417 C   0  0  0  0  0  0  0  0  0  0  0  0
   10.9510  -18.6514   22.3470 C   0  0  1  0  0  0  0  0  0  0  0  0
   10.5071  -17.2813   22.8034 N   0  0  0  0  0  0  0  0  0  0  0  0
    9.5333  -16.6989   21.9071 C   0  0  0  0  0  0  0  0  0  0  0  0
   11.7113  -16.4142   22.8433 O   0  0  0  0  0  0  0  0  0  0  0  0
   11.9345  -15.6442   21.8797 N   0  0  0  0  0  0  0  0  0  0  0  0
   12.6215  -16.4197   23.9269 C   0  0  0  0  0  0  0  0  0  0  0  0
   13.6939  -15.4713   23.9523 C   0  0  0  0  0  0  0  0  0  0  0  0
   14.8871  -15.9283   23.2307 O   0  0  0  0  0  0  0  0  0  0  0  0
   14.8081  -16.2681   22.0274 O   0  0  0  0  0  0  0  0  0  0  0  0
  1  2  1  0
  2  3  2  0
  4  5  1  0
  4  2  1  0
  5  6  1  0
  6  7  1  0
  7  8  1  0
  8 10  1  0
  8  9  1  1
 10 11  2  0
 10 14  1  0
 13 12  1  1
 13 15  1  0
 14 13  1  0
 15 17  1  0
 15 16  2  0
 17 18  1  0
 18 19  1  0
 19 21  1  0
 20 19  2  0
M  END
$$$$
