RAG.pdb
     RDKit          3D

 21 20  0  0  1  0  0  0  0  0999 V2000
    7.9203  -12.5605   18.3352 N   0  0  0  0  0  0  0  0  0  0  0  0
    8.0407  -13.7606   17.5779 C   0  0  0  0  0  0  0  0  0  0  0  0
    7.8515  -13.6737   16.3082 N   0  0  0  0  0  0  0  0  0  0  0  0
    8.3556  -14.9720   18.2329 N   0  0  0  0  0  0  0  0  0  0  0  0
    7.6668  -15.2715   19.4727 C   0  0  0  0  0  0  0  0  0  0  0  0
    8.1245  -14.3748   20.5928 C   0  0  0  0  0  0  0  0  0  0  0  0
    8.4950  -15.2115   21.7744 C   0  0  0  0  0  0  0  0  0  0  0  0
    7.5838  -15.0337   22.9517 C   0  0  2  0  0  0  0  0  0  0  0  0
    6.5847  -14.0333   22.7574 N   0  0  0  0  0  0  0  0  0  0  0  0
    8.4280  -14.8036   24.1486 C   0  0  0  0  0  0  0  0  0  0  0  0
    9.6626  -15.0136   24.0241 O   0  0  0  0  0  0  0  0  0  0  0  0
    8.0010  -14.4937   15.6810 C   0  0  0  0  0  0  0  0  0  0  0  0
    8.3612  -13.1547   27.4783 C   0  0  2  0  0  0  0  0  0  0  0  0
    8.8033  -14.2544   26.5415 N   0  0  0  0  0  0  0  0  0  0  0  0
    7.9337  -14.3715   25.3922 C   0  0  0  0  0  0  0  0  0  0  0  0
    8.7744  -15.5272   27.3050 O   0  0  0  0  0  0  0  0  0  0  0  0
    7.6667  -16.0586   27.5534 N   0  0  0  0  0  0  0  0  0  0  0  0
    9.9486  -16.1686   27.7660 C   0  0  0  0  0  0  0  0  0  0  0  0
    9.8423  -17.4002   28.4887 C   0  0  0  0  0  0  0  0  0  0  0  0
   11.0663  -17.7494   29.2191 O   0  0  0  0  0  0  0  0  0  0  0  0
   11.6452  -16.8954   29.9296 O   0  0  0  0  0  0  0  0  0  0  0  0
  1  2  1  0
  2  3  2  0
  4  5  1  0
  4  2  1  0
  5  6  1  0
  6  7  1  0
  7  8  1  0
  8 10  1  0
  8  9  1  6
 10 11  2  0
 10 14  1  0
 13 12  1  6
 13 15  1  0
 14 13  1  0
 15 17  1  0
 15 16  2  0
 17 18  1  0
 18 19  1  0
 19 21  1  0
 20 19  2  0
M  END
$$$$
