RAG.pdb
     RDKit          3D

 21 20  0  0  1  0  0  0  0  0999 V2000
    8.0241  -12.9675   16.6429 N   0  0  0  0  0  0  0  0  0  0  0  0
    7.9064  -14.2637   16.0648 C   0  0  0  0  0  0  0  0  0  0  0  0
    8.2968  -14.3995   14.8464 N   0  0  0  0  0  0  0  0  0  0  0  0
    7.3783  -15.3260   16.8318 N   0  0  0  0  0  0  0  0  0  0  0  0
    6.8506  -15.0166   18.1460 C   0  0  0  0  0  0  0  0  0  0  0  0
    7.8413  -15.3418   19.2328 C   0  0  0  0  0  0  0  0  0  0  0  0
    7.2629  -14.9613   20.5573 C   0  0  0  0  0  0  0  0  0  0  0  0
    7.6645  -13.5939   21.0230 C   0  0  2  0  0  0  0  0  0  0  0  0
    8.7247  -13.0173   20.2612 N   0  0  0  0  0  0  0  0  0  0  0  0
    7.9542  -13.6755   22.4747 C   0  0  0  0  0  0  0  0  0  0  0  0
    9.0970  -14.0861   22.8055 O   0  0  0  0  0  0  0  0  0  0  0  0
    8.1643  -15.2973   14.3321 C   0  0  0  0  0  0  0  0  0  0  0  0
    6.3893  -12.7414   25.7751 C   0  0  1  0  0  0  0  0  0  0  0  0
    7.3911  -13.4346   24.8817 N   0  0  0  0  0  0  0  0  0  0  0  0
    7.0391  -13.3256   23.4834 C   0  0  0  0  0  0  0  0  0  0  0  0
    7.4136  -14.8679   25.2672 O   0  0  0  0  0  0  0  0  0  0  0  0
    6.4290  -15.5877   24.9781 N   0  0  0  0  0  0  0  0  0  0  0  0
    8.5034  -15.4586   25.9500 C   0  0  0  0  0  0  0  0  0  0  0  0
    8.4890  -16.8650   26.2184 C   0  0  0  0  0  0  0  0  0  0  0  0
    9.6259  -17.3099   27.0327 O   0  0  0  0  0  0  0  0  0  0  0  0
   10.5886  -16.5386   27.2512 O   0  0  0  0  0  0  0  0  0  0  0  0
  1  2  1  0
  2  3  2  0
  4  5  1  0
  4  2  1  0
  5  6  1  0
  6  7  1  0
  7  8  1  0
  8 10  1  0
  8  9  1  6
 10 11  2  0
 10 14  1  0
 13 12  1  6
 13 15  1  0
 14 13  1  0
 15 17  1  0
 15 16  2  0
 17 18  1  0
 18 19  1  0
 19 21  1  0
 20 19  2  0
M  END
$$$$
