YAR.pdb
     RDKit          3D

 29 29  0  0  1  0  0  0  0  0999 V2000
   28.5651  -19.9611   -3.6124 O   0  0  0  0  0  0  0  0  0  0  0  0
   28.2879  -19.8890   -4.9739 C   0  0  0  0  0  0  0  0  0  0  0  0
   27.1959  -20.5197   -5.5280 C   0  0  0  0  0  0  0  0  0  0  0  0
   26.9111  -20.4522   -6.8920 C   0  0  0  0  0  0  0  0  0  0  0  0
   27.7344  -19.7370   -7.7330 C   0  0  0  0  0  0  0  0  0  0  0  0
   27.4293  -19.6561   -9.2018 C   0  0  0  0  0  0  0  0  0  0  0  0
   27.5447  -21.0570   -9.7488 C   0  0  2  0  0  0  0  0  0  0  0  0
   28.8827  -21.5523   -9.6640 N   0  0  0  0  0  0  0  0  0  0  0  0
   26.9604  -21.2048  -11.1060 C   0  0  0  0  0  0  0  0  0  0  0  0
   27.6088  -20.8508  -12.1250 O   0  0  0  0  0  0  0  0  0  0  0  0
   28.8279  -19.1040   -7.1855 C   0  0  0  0  0  0  0  0  0  0  0  0
   29.1096  -19.1746   -5.8174 C   0  0  0  0  0  0  0  0  0  0  0  0
   24.7511  -23.2209  -12.9581 C   0  0  0  0  0  0  0  0  0  0  0  0
   25.0757  -21.7723  -12.6617 C   0  0  2  0  0  0  0  0  0  0  0  0
   25.6656  -21.7422  -11.3363 N   0  0  0  0  0  0  0  0  0  0  0  0
   23.8699  -20.9118  -12.7255 C   0  0  0  0  0  0  0  0  0  0  0  0
   23.1893  -20.7407  -11.6803 O   0  0  0  0  0  0  0  0  0  0  0  0
   18.1076  -18.0070  -16.5106 N   0  0  0  0  0  0  0  0  0  0  0  0
   18.3962  -16.6257  -16.6386 C   0  0  0  0  0  0  0  0  0  0  0  0
   17.4265  -15.7590  -16.6770 N   0  0  0  0  0  0  0  0  0  0  0  0
   19.7476  -16.1854  -16.7312 N   0  0  0  0  0  0  0  0  0  0  0  0
   20.8296  -17.1127  -16.6118 C   0  0  0  0  0  0  0  0  0  0  0  0
   20.9400  -17.8463  -15.3144 C   0  0  0  0  0  0  0  0  0  0  0  0
   22.1479  -18.7205  -15.2554 C   0  0  0  0  0  0  0  0  0  0  0  0
   22.2181  -19.4881  -13.9504 C   0  0  2  0  0  0  0  0  0  0  0  0
   23.4609  -20.2795  -13.9208 N   0  0  0  0  0  0  0  0  0  0  0  0
   21.0660  -20.3614  -13.6875 C   0  0  0  0  0  0  0  0  0  0  0  0
   20.0466  -19.9275  -12.8055 O   0  0  0  0  0  0  0  0  0  0  0  0
   20.9581  -21.4836  -14.2223 O   0  0  0  0  0  0  0  0  0  0  0  0
  2  3  2  0
  2  1  1  0
  4  3  1  0
  5  4  2  0
  6  5  1  0
  7  6  1  0
  7  8  1  6
  9 10  2  0
  9  7  1  0
 11  5  1  0
 11 12  2  0
 12  2  1  0
 14 13  1  1
 14 15  1  0
 15  9  1  0
 16 17  2  0
 16 14  1  0
 18 19  1  0
 19 20  2  0
 21 22  1  0
 21 19  1  0
 23 22  1  0
 25 24  1  6
 24 23  1  0
 25 26  1  0
 26 16  1  0
 27 25  1  0
 28 27  1  0
 29 27  2  0
M  END
$$$$
