YAR.pdb
     RDKit          3D

 29 29  0  0  1  0  0  0  0  0999 V2000
   29.9025  -27.1586  -17.5565 O   0  0  0  0  0  0  0  0  0  0  0  0
   28.7397  -26.4315  -17.3223 C   0  0  0  0  0  0  0  0  0  0  0  0
   27.6443  -26.9915  -16.7029 C   0  0  0  0  0  0  0  0  0  0  0  0
   26.4748  -26.2691  -16.4644 C   0  0  0  0  0  0  0  0  0  0  0  0
   26.3886  -24.9505  -16.8519 C   0  0  0  0  0  0  0  0  0  0  0  0
   25.1338  -24.1661  -16.5925 C   0  0  0  0  0  0  0  0  0  0  0  0
   25.3454  -23.4208  -15.2983 C   0  0  2  0  0  0  0  0  0  0  0  0
   25.5492  -24.3114  -14.1991 N   0  0  0  0  0  0  0  0  0  0  0  0
   24.2959  -22.4050  -15.0302 C   0  0  0  0  0  0  0  0  0  0  0  0
   23.4189  -22.6065  -14.1502 O   0  0  0  0  0  0  0  0  0  0  0  0
   27.4802  -24.3845  -17.4718 C   0  0  0  0  0  0  0  0  0  0  0  0
   28.6506  -25.1126  -17.7090 C   0  0  0  0  0  0  0  0  0  0  0  0
   23.9182  -18.8128  -15.7289 C   0  0  0  0  0  0  0  0  0  0  0  0
   23.2828  -20.1311  -15.3417 C   0  0  2  0  0  0  0  0  0  0  0  0
   24.2163  -21.1717  -15.7307 N   0  0  0  0  0  0  0  0  0  0  0  0
   21.9680  -20.3248  -15.9993 C   0  0  0  0  0  0  0  0  0  0  0  0
   21.4429  -19.3545  -16.6057 O   0  0  0  0  0  0  0  0  0  0  0  0
   17.2090  -25.4788  -13.8310 N   0  0  0  0  0  0  0  0  0  0  0  0
   18.2289  -26.2907  -13.2757 C   0  0  0  0  0  0  0  0  0  0  0  0
   18.1312  -27.5870  -13.3309 N   0  0  0  0  0  0  0  0  0  0  0  0
   19.3588  -25.6885  -12.6517 N   0  0  0  0  0  0  0  0  0  0  0  0
   19.5708  -24.2762  -12.7270 C   0  0  0  0  0  0  0  0  0  0  0  0
   19.5599  -23.6716  -14.0937 C   0  0  0  0  0  0  0  0  0  0  0  0
   19.8962  -22.2179  -14.0761 C   0  0  0  0  0  0  0  0  0  0  0  0
   19.8997  -21.6288  -15.4725 C   0  0  2  0  0  0  0  0  0  0  0  0
   21.2867  -21.5620  -15.9660 N   0  0  0  0  0  0  0  0  0  0  0  0
   19.2678  -20.3069  -15.5843 C   0  0  0  0  0  0  0  0  0  0  0  0
   18.0624  -20.1675  -16.3144 O   0  0  0  0  0  0  0  0  0  0  0  0
   19.7659  -19.2947  -15.0510 O   0  0  0  0  0  0  0  0  0  0  0  0
  2  3  2  0
  2  1  1  0
  4  3  1  0
  5  4  2  0
  6  5  1  0
  7  6  1  0
  7  8  1  1
  9 10  2  0
  9  7  1  0
 11  5  1  0
 11 12  2  0
 12  2  1  0
 14 13  1  6
 14 15  1  0
 15  9  1  0
 16 17  2  0
 16 14  1  0
 18 19  1  0
 19 20  2  0
 21 22  1  0
 21 19  1  0
 23 22  1  0
 25 24  1  1
 24 23  1  0
 25 26  1  0
 26 16  1  0
 27 25  1  0
 28 27  1  0
 29 27  2  0
M  END
$$$$
