YAR.pdb
     RDKit          3D

 29 29  0  0  1  0  0  0  0  0999 V2000
   16.5969   -7.1015  -20.3146 O   0  0  0  0  0  0  0  0  0  0  0  0
   17.8688   -6.5402  -20.2623 C   0  0  0  0  0  0  0  0  0  0  0  0
   18.0595   -5.1826  -20.1287 C   0  0  0  0  0  0  0  0  0  0  0  0
   19.3315   -4.6120  -20.0754 C   0  0  0  0  0  0  0  0  0  0  0  0
   20.4493   -5.4122  -20.1570 C   0  0  0  0  0  0  0  0  0  0  0  0
   21.8215   -4.8038  -20.0944 C   0  0  0  0  0  0  0  0  0  0  0  0
   22.2114   -4.4611  -21.5106 C   0  0  2  0  0  0  0  0  0  0  0  0
   21.2878   -3.5501  -22.1106 N   0  0  0  0  0  0  0  0  0  0  0  0
   22.4697   -5.6574  -22.3518 C   0  0  0  0  0  0  0  0  0  0  0  0
   21.6482   -6.0065  -23.2391 O   0  0  0  0  0  0  0  0  0  0  0  0
   20.2657   -6.7704  -20.2908 C   0  0  0  0  0  0  0  0  0  0  0  0
   18.9885   -7.3380  -20.3439 C   0  0  0  0  0  0  0  0  0  0  0  0
   25.3768   -7.8277  -23.0769 C   0  0  0  0  0  0  0  0  0  0  0  0
   23.8804   -7.5993  -23.0819 C   0  0  2  0  0  0  0  0  0  0  0  0
   23.6311   -6.4637  -22.2136 N   0  0  0  0  0  0  0  0  0  0  0  0
   23.1374   -8.7955  -22.6174 C   0  0  0  0  0  0  0  0  0  0  0  0
   22.7746   -8.8561  -21.4134 O   0  0  0  0  0  0  0  0  0  0  0  0
   17.6488  -13.3194  -23.2576 N   0  0  0  0  0  0  0  0  0  0  0  0
   17.1348  -12.7266  -24.4375 C   0  0  0  0  0  0  0  0  0  0  0  0
   15.8516  -12.5641  -24.5785 N   0  0  0  0  0  0  0  0  0  0  0  0
   18.0220  -12.3134  -25.4724 N   0  0  0  0  0  0  0  0  0  0  0  0
   19.4382  -12.4324  -25.3137 C   0  0  0  0  0  0  0  0  0  0  0  0
   20.0447  -11.6983  -24.1618 C   0  0  0  0  0  0  0  0  0  0  0  0
   21.5305  -11.8308  -24.1207 C   0  0  0  0  0  0  0  0  0  0  0  0
   22.1280  -11.0578  -22.9620 C   0  0  2  0  0  0  0  0  0  0  0  0
   22.8251   -9.8682  -23.4821 N   0  0  0  0  0  0  0  0  0  0  0  0
   23.0381  -11.8342  -22.1087 C   0  0  0  0  0  0  0  0  0  0  0  0
   22.5138  -12.5853  -21.0287 O   0  0  0  0  0  0  0  0  0  0  0  0
   24.2697  -11.8513  -22.3084 O   0  0  0  0  0  0  0  0  0  0  0  0
  2  3  2  0
  2  1  1  0
  4  3  1  0
  5  4  2  0
  6  5  1  0
  7  6  1  0
  7  8  1  6
  9 10  2  0
  9  7  1  0
 11  5  1  0
 11 12  2  0
 12  2  1  0
 14 13  1  1
 14 15  1  0
 15  9  1  0
 16 17  2  0
 16 14  1  0
 18 19  1  0
 19 20  2  0
 21 22  1  0
 21 19  1  0
 23 22  1  0
 25 24  1  6
 24 23  1  0
 25 26  1  0
 26 16  1  0
 27 25  1  0
 28 27  1  0
 29 27  2  0
M  END
$$$$
