YAR.pdb
     RDKit          3D

 29 29  0  0  1  0  0  0  0  0999 V2000
   28.6392  -29.4205  -18.7009 O   0  0  0  0  0  0  0  0  0  0  0  0
   27.7582  -28.6302  -17.9696 C   0  0  0  0  0  0  0  0  0  0  0  0
   26.5732  -28.1758  -18.5049 C   0  0  0  0  0  0  0  0  0  0  0  0
   25.6845  -27.3831  -17.7781 C   0  0  0  0  0  0  0  0  0  0  0  0
   25.9796  -27.0300  -16.4802 C   0  0  0  0  0  0  0  0  0  0  0  0
   25.0236  -26.1814  -15.6909 C   0  0  0  0  0  0  0  0  0  0  0  0
   25.0895  -24.7922  -16.2749 C   0  0  2  0  0  0  0  0  0  0  0  0
   26.3669  -24.1868  -16.0637 N   0  0  0  0  0  0  0  0  0  0  0  0
   23.9627  -23.9243  -15.8480 C   0  0  0  0  0  0  0  0  0  0  0  0
   24.0247  -23.2775  -14.7701 O   0  0  0  0  0  0  0  0  0  0  0  0
   27.1628  -27.4810  -15.9389 C   0  0  0  0  0  0  0  0  0  0  0  0
   28.0508  -28.2754  -16.6713 C   0  0  0  0  0  0  0  0  0  0  0  0
   21.1540  -22.2365  -17.4318 C   0  0  0  0  0  0  0  0  0  0  0  0
   21.7005  -22.8923  -16.1817 C   0  0  2  0  0  0  0  0  0  0  0  0
   22.7731  -23.7712  -16.6091 N   0  0  0  0  0  0  0  0  0  0  0  0
   20.6542  -23.6481  -15.4519 C   0  0  0  0  0  0  0  0  0  0  0  0
   20.3999  -24.8295  -15.8049 O   0  0  0  0  0  0  0  0  0  0  0  0
   18.4110  -25.1248   -8.1070 N   0  0  0  0  0  0  0  0  0  0  0  0
   18.5296  -26.3119   -8.8715 C   0  0  0  0  0  0  0  0  0  0  0  0
   17.9483  -27.4048   -8.4710 N   0  0  0  0  0  0  0  0  0  0  0  0
   19.2900  -26.3110  -10.0759 N   0  0  0  0  0  0  0  0  0  0  0  0
   19.5111  -25.0987  -10.8015 C   0  0  0  0  0  0  0  0  0  0  0  0
   18.3016  -24.4342  -11.3750 C   0  0  0  0  0  0  0  0  0  0  0  0
   18.6507  -23.3323  -12.3189 C   0  0  0  0  0  0  0  0  0  0  0  0
   18.8515  -23.8485  -13.7296 C   0  0  2  0  0  0  0  0  0  0  0  0
   19.9340  -23.0847  -14.3749 N   0  0  0  0  0  0  0  0  0  0  0  0
   17.6490  -23.8165  -14.5735 C   0  0  0  0  0  0  0  0  0  0  0  0
   17.5917  -22.9296  -15.6760 O   0  0  0  0  0  0  0  0  0  0  0  0
   16.6681  -24.5534  -14.3456 O   0  0  0  0  0  0  0  0  0  0  0  0
  2  3  2  0
  2  1  1  0
  4  3  1  0
  5  4  2  0
  6  5  1  0
  7  6  1  0
  7  8  1  1
  9 10  2  0
  9  7  1  0
 11  5  1  0
 11 12  2  0
 12  2  1  0
 14 13  1  6
 14 15  1  0
 15  9  1  0
 16 17  2  0
 16 14  1  0
 18 19  1  0
 19 20  2  0
 21 22  1  0
 21 19  1  0
 23 22  1  0
 25 24  1  1
 24 23  1  0
 25 26  1  0
 26 16  1  0
 27 25  1  0
 28 27  1  0
 29 27  2  0
M  END
$$$$
