YAR.pdb
     RDKit          3D

 29 29  0  0  1  0  0  0  0  0999 V2000
   23.8370   -5.7605  -19.2380 O   0  0  0  0  0  0  0  0  0  0  0  0
   22.9605   -5.9639  -18.1769 C   0  0  0  0  0  0  0  0  0  0  0  0
   22.0695   -7.0143  -18.1608 C   0  0  0  0  0  0  0  0  0  0  0  0
   21.1876   -7.2251  -17.1006 C   0  0  0  0  0  0  0  0  0  0  0  0
   21.1890   -6.3681  -16.0227 C   0  0  0  0  0  0  0  0  0  0  0  0
   20.2454   -6.5936  -14.8756 C   0  0  0  0  0  0  0  0  0  0  0  0
   21.0092   -7.3646  -13.8280 C   0  0  2  0  0  0  0  0  0  0  0  0
   21.2547   -8.7129  -14.2339 N   0  0  0  0  0  0  0  0  0  0  0  0
   20.4034   -7.2710  -12.4754 C   0  0  0  0  0  0  0  0  0  0  0  0
   19.3459   -7.8966  -12.2022 O   0  0  0  0  0  0  0  0  0  0  0  0
   22.0773   -5.3159  -16.0324 C   0  0  0  0  0  0  0  0  0  0  0  0
   22.9595   -5.1084  -17.0976 C   0  0  0  0  0  0  0  0  0  0  0  0
   21.2555   -5.5929   -9.2469 C   0  0  0  0  0  0  0  0  0  0  0  0
   20.2901   -6.3243  -10.1549 C   0  0  2  0  0  0  0  0  0  0  0  0
   20.9639   -6.4905  -11.4292 N   0  0  0  0  0  0  0  0  0  0  0  0
   19.0173   -5.5819  -10.3206 C   0  0  0  0  0  0  0  0  0  0  0  0
   18.7391   -5.0965  -11.4483 O   0  0  0  0  0  0  0  0  0  0  0  0
   12.2021   -9.3987  -10.1137 N   0  0  0  0  0  0  0  0  0  0  0  0
   12.2374   -8.9124   -8.7833 C   0  0  0  0  0  0  0  0  0  0  0  0
   11.4263   -9.3999   -7.8904 N   0  0  0  0  0  0  0  0  0  0  0  0
   13.1569   -7.8857   -8.4239 N   0  0  0  0  0  0  0  0  0  0  0  0
   14.0153   -7.2955   -9.4036 C   0  0  0  0  0  0  0  0  0  0  0  0
   14.9586   -6.2432   -8.9175 C   0  0  0  0  0  0  0  0  0  0  0  0
   15.8117   -5.6936  -10.0115 C   0  0  0  0  0  0  0  0  0  0  0  0
   16.8305   -4.7045   -9.4816 C   0  0  2  0  0  0  0  0  0  0  0  0
   18.1087   -5.4017   -9.2538 N   0  0  0  0  0  0  0  0  0  0  0  0
   16.4242   -3.9985   -8.2586 C   0  0  0  0  0  0  0  0  0  0  0  0
   15.4843   -2.9424   -8.3403 O   0  0  0  0  0  0  0  0  0  0  0  0
   16.8868   -4.3039   -7.1406 O   0  0  0  0  0  0  0  0  0  0  0  0
  2  3  2  0
  2  1  1  0
  4  3  1  0
  5  4  2  0
  6  5  1  0
  7  6  1  0
  7  8  1  6
  9 10  2  0
  9  7  1  0
 11  5  1  0
 11 12  2  0
 12  2  1  0
 14 13  1  1
 14 15  1  0
 15  9  1  0
 16 17  2  0
 16 14  1  0
 18 19  1  0
 19 20  2  0
 21 22  1  0
 21 19  1  0
 23 22  1  0
 25 24  1  1
 24 23  1  0
 25 26  1  0
 26 16  1  0
 27 25  1  0
 28 27  1  0
 29 27  2  0
M  END
$$$$
