YAR.pdb
     RDKit          3D

 29 29  0  0  1  0  0  0  0  0999 V2000
   14.3191  -13.7316  -22.4554 O   0  0  0  0  0  0  0  0  0  0  0  0
   15.3187  -14.4577  -21.8157 C   0  0  0  0  0  0  0  0  0  0  0  0
   15.1418  -14.9838  -20.5550 C   0  0  0  0  0  0  0  0  0  0  0  0
   16.1390  -15.7130  -19.9069 C   0  0  0  0  0  0  0  0  0  0  0  0
   17.3493  -15.9276  -20.5279 C   0  0  0  0  0  0  0  0  0  0  0  0
   18.4247  -16.7170  -19.8370 C   0  0  0  0  0  0  0  0  0  0  0  0
   18.9825  -15.8341  -18.7486 C   0  0  2  0  0  0  0  0  0  0  0  0
   19.6932  -14.7154  -19.2837 N   0  0  0  0  0  0  0  0  0  0  0  0
   19.7660  -16.5823  -17.7329 C   0  0  0  0  0  0  0  0  0  0  0  0
   20.9417  -16.9578  -17.9793 O   0  0  0  0  0  0  0  0  0  0  0  0
   17.5328  -15.4043  -21.7884 C   0  0  0  0  0  0  0  0  0  0  0  0
   16.5302  -14.6737  -22.4342 C   0  0  0  0  0  0  0  0  0  0  0  0
   19.8836  -16.8701  -14.1582 C   0  0  0  0  0  0  0  0  0  0  0  0
   20.0539  -17.6153  -15.4648 C   0  0  2  0  0  0  0  0  0  0  0  0
   19.2528  -16.9133  -16.4502 N   0  0  0  0  0  0  0  0  0  0  0  0
   19.6332  -19.0326  -15.3513 C   0  0  0  0  0  0  0  0  0  0  0  0
   18.4844  -19.2920  -14.9065 O   0  0  0  0  0  0  0  0  0  0  0  0
   24.5404  -23.5534  -12.1722 N   0  0  0  0  0  0  0  0  0  0  0  0
   25.5137  -22.6780  -12.7148 C   0  0  0  0  0  0  0  0  0  0  0  0
   26.6804  -23.1371  -13.0624 N   0  0  0  0  0  0  0  0  0  0  0  0
   25.2174  -21.2940  -12.8747 N   0  0  0  0  0  0  0  0  0  0  0  0
   24.0057  -20.7397  -12.3556 C   0  0  0  0  0  0  0  0  0  0  0  0
   22.7309  -21.2623  -12.9346 C   0  0  0  0  0  0  0  0  0  0  0  0
   22.2386  -20.4307  -14.0716 C   0  0  0  0  0  0  0  0  0  0  0  0
   20.9963  -21.0269  -14.7025 C   0  0  2  0  0  0  0  0  0  0  0  0
   20.4803  -20.0997  -15.7251 N   0  0  0  0  0  0  0  0  0  0  0  0
   19.9268  -21.3662  -13.7538 C   0  0  0  0  0  0  0  0  0  0  0  0
   19.3164  -22.6426  -13.8152 O   0  0  0  0  0  0  0  0  0  0  0  0
   19.5363  -20.5563  -12.8885 O   0  0  0  0  0  0  0  0  0  0  0  0
  2  3  2  0
  2  1  1  0
  4  3  1  0
  5  4  2  0
  6  5  1  0
  7  6  1  0
  7  8  1  6
  9 10  2  0
  9  7  1  0
 11  5  1  0
 11 12  2  0
 12  2  1  0
 14 13  1  1
 14 15  1  0
 15  9  1  0
 16 17  2  0
 16 14  1  0
 18 19  1  0
 19 20  2  0
 21 22  1  0
 21 19  1  0
 23 22  1  0
 25 24  1  1
 24 23  1  0
 25 26  1  0
 26 16  1  0
 27 25  1  0
 28 27  1  0
 29 27  2  0
M  END
$$$$
