YAR.pdb
     RDKit          3D

 29 29  0  0  1  0  0  0  0  0999 V2000
   18.3421  -22.8871  -12.8842 O   0  0  0  0  0  0  0  0  0  0  0  0
   19.3038  -21.9547  -13.2603 C   0  0  0  0  0  0  0  0  0  0  0  0
   19.5068  -21.6108  -14.5785 C   0  0  0  0  0  0  0  0  0  0  0  0
   20.4690  -20.6769  -14.9637 C   0  0  0  0  0  0  0  0  0  0  0  0
   21.2542  -20.0646  -14.0124 C   0  0  0  0  0  0  0  0  0  0  0  0
   22.2879  -19.0538  -14.4209 C   0  0  0  0  0  0  0  0  0  0  0  0
   23.4694  -19.8281  -14.9497 C   0  0  2  0  0  0  0  0  0  0  0  0
   23.9390  -20.7924  -14.0050 N   0  0  0  0  0  0  0  0  0  0  0  0
   24.5532  -18.9570  -15.4713 C   0  0  0  0  0  0  0  0  0  0  0  0
   24.2816  -17.9352  -16.1541 O   0  0  0  0  0  0  0  0  0  0  0  0
   21.0564  -20.4039  -12.6925 C   0  0  0  0  0  0  0  0  0  0  0  0
   20.0907  -21.3409  -12.3111 C   0  0  0  0  0  0  0  0  0  0  0  0
   28.2065  -18.5808  -14.9648 C   0  0  0  0  0  0  0  0  0  0  0  0
   26.9709  -18.3827  -15.8166 C   0  0  2  0  0  0  0  0  0  0  0  0
   25.9310  -19.2135  -15.2387 N   0  0  0  0  0  0  0  0  0  0  0  0
   27.2131  -18.7450  -17.2339 C   0  0  0  0  0  0  0  0  0  0  0  0
   26.9192  -19.9056  -17.6234 O   0  0  0  0  0  0  0  0  0  0  0  0
   20.6130  -18.4743  -19.5307 N   0  0  0  0  0  0  0  0  0  0  0  0
   21.2651  -19.7246  -19.3916 C   0  0  0  0  0  0  0  0  0  0  0  0
   20.5667  -20.8047  -19.1957 N   0  0  0  0  0  0  0  0  0  0  0  0
   22.6859  -19.7990  -19.4603 N   0  0  0  0  0  0  0  0  0  0  0  0
   23.4824  -18.6113  -19.4567 C   0  0  0  0  0  0  0  0  0  0  0  0
   24.9606  -18.7986  -19.5724 C   0  0  0  0  0  0  0  0  0  0  0  0
   25.7100  -17.5159  -19.4321 C   0  0  0  0  0  0  0  0  0  0  0  0
   27.2075  -17.7317  -19.5206 C   0  0  2  0  0  0  0  0  0  0  0  0
   27.7634  -17.8304  -18.1594 N   0  0  0  0  0  0  0  0  0  0  0  0
   27.9333  -16.7050  -20.2810 C   0  0  0  0  0  0  0  0  0  0  0  0
   28.3165  -16.9660  -21.6191 O   0  0  0  0  0  0  0  0  0  0  0  0
   28.2250  -15.6006  -19.7787 O   0  0  0  0  0  0  0  0  0  0  0  0
  2  3  2  0
  2  1  1  0
  4  3  1  0
  5  4  2  0
  6  5  1  0
  7  6  1  0
  7  8  1  1
  9 10  2  0
  9  7  1  0
 11  5  1  0
 11 12  2  0
 12  2  1  0
 14 13  1  1
 14 15  1  0
 15  9  1  0
 16 17  2  0
 16 14  1  0
 18 19  1  0
 19 20  2  0
 21 22  1  0
 21 19  1  0
 23 22  1  0
 25 24  1  1
 24 23  1  0
 25 26  1  0
 26 16  1  0
 27 25  1  0
 28 27  1  0
 29 27  2  0
M  END
$$$$
