SDN.pdb
     RDKit          3D

 23 22  0  0  1  0  0  0  0  0999 V2000
   19.2376  -14.3389  -15.1975 O   0  0  0  0  0  0  0  0  0  0  0  0
   19.0875  -13.0769  -15.7366 C   0  0  0  0  0  0  0  0  0  0  0  0
   17.7329  -12.4715  -15.4171 C   0  0  2  0  0  0  0  0  0  0  0  0
   16.7227  -13.1220  -16.2281 N   0  0  0  0  0  0  0  0  0  0  0  0
   17.7043  -11.0199  -15.7484 C   0  0  0  0  0  0  0  0  0  0  0  0
   17.6021  -10.7615  -16.9768 O   0  0  0  0  0  0  0  0  0  0  0  0
   17.7857  -10.0076  -14.7582 N   0  0  0  0  0  0  0  0  0  0  0  0
   17.8876   -8.5768  -15.1244 C   0  0  1  0  0  0  0  0  0  0  0  0
   16.7759   -7.8637  -14.4725 C   0  0  0  0  0  0  0  0  0  0  0  0
   16.7138   -6.4165  -14.5878 C   0  0  0  0  0  0  0  0  0  0  0  0
   16.8649   -5.6850  -13.5530 O   0  0  0  0  0  0  0  0  0  0  0  0
   19.2484   -8.0920  -14.9140 C   0  0  0  0  0  0  0  0  0  0  0  0
   19.8957   -8.3876  -13.8587 O   0  0  0  0  0  0  0  0  0  0  0  0
   16.4972   -5.7278  -15.7682 O   0  0  0  0  0  0  0  0  0  0  0  0
   23.8836   -5.5158  -15.4748 N   0  0  0  0  0  0  0  0  0  0  0  0
   23.2006   -5.6659  -16.7339 C   0  0  0  0  0  0  0  0  0  0  0  0
   23.8229   -5.2151  -17.7358 O   0  0  0  0  0  0  0  0  0  0  0  0
   21.8766   -6.3010  -16.8186 C   0  0  0  0  0  0  0  0  0  0  0  0
   21.3186   -6.8043  -15.5231 C   0  0  2  0  0  0  0  0  0  0  0  0
   19.9460   -7.2768  -15.8384 N   0  0  0  0  0  0  0  0  0  0  0  0
   21.1365   -5.6811  -14.5881 C   0  0  0  0  0  0  0  0  0  0  0  0
   21.9198   -5.5389  -13.6300 O   0  0  0  0  0  0  0  0  0  0  0  0
   20.1152   -4.7725  -14.7418 O   0  0  0  0  0  0  0  0  0  0  0  0
  2  1  1  0
  3  4  1  6
  3  2  1  0
  5  6  2  0
  5  3  1  0
  7  5  1  0
  8  7  1  0
  8 12  1  0
  8  9  1  1
 10 14  1  0
 10  9  1  0
 11 10  2  0
 12 20  1  0
 13 12  2  0
 15 16  1  0
 16 18  1  0
 17 16  2  0
 19 18  1  6
 20 19  1  0
 21 19  1  0
 21 23  1  0
 22 21  2  0
M  END
$$$$
