SDN.pdb
     RDKit          3D

 23 22  0  0  1  0  0  0  0  0999 V2000
   13.5692  -13.1661  -14.8552 O   0  0  0  0  0  0  0  0  0  0  0  0
   14.4209  -12.4825  -14.0109 C   0  0  0  0  0  0  0  0  0  0  0  0
   15.5833  -11.8500  -14.7541 C   0  0  2  0  0  0  0  0  0  0  0  0
   16.3986  -12.8987  -15.3345 N   0  0  0  0  0  0  0  0  0  0  0  0
   16.4510  -11.0719  -13.8269 C   0  0  0  0  0  0  0  0  0  0  0  0
   17.6699  -11.3876  -13.8561 O   0  0  0  0  0  0  0  0  0  0  0  0
   15.9446  -10.0551  -12.9776 N   0  0  0  0  0  0  0  0  0  0  0  0
   16.8446   -9.2307  -12.1398 C   0  0  1  0  0  0  0  0  0  0  0  0
   17.9731   -8.7969  -12.9811 C   0  0  0  0  0  0  0  0  0  0  0  0
   18.9236   -7.8436  -12.4341 C   0  0  0  0  0  0  0  0  0  0  0  0
   19.6860   -8.1826  -11.4684 O   0  0  0  0  0  0  0  0  0  0  0  0
   16.0822   -8.2178  -11.4161 C   0  0  0  0  0  0  0  0  0  0  0  0
   15.3642   -7.3685  -12.0351 O   0  0  0  0  0  0  0  0  0  0  0  0
   19.0864   -6.5453  -12.8839 O   0  0  0  0  0  0  0  0  0  0  0  0
   13.4625   -5.4792   -7.7448 N   0  0  0  0  0  0  0  0  0  0  0  0
   13.5074   -6.9063   -7.5555 C   0  0  0  0  0  0  0  0  0  0  0  0
   12.7063   -7.3553   -6.6890 O   0  0  0  0  0  0  0  0  0  0  0  0
   14.4280   -7.7548   -8.3276 C   0  0  0  0  0  0  0  0  0  0  0  0
   15.2530   -7.0431   -9.3551 C   0  0  2  0  0  0  0  0  0  0  0  0
   16.0740   -8.0967  -10.0050 N   0  0  0  0  0  0  0  0  0  0  0  0
   16.2200   -6.1534   -8.6901 C   0  0  0  0  0  0  0  0  0  0  0  0
   17.3876   -6.5416   -8.4959 O   0  0  0  0  0  0  0  0  0  0  0  0
   15.8694   -4.8910   -8.2712 O   0  0  0  0  0  0  0  0  0  0  0  0
  2  1  1  0
  3  4  1  1
  3  2  1  0
  5  6  2  0
  5  3  1  0
  7  5  1  0
  8  7  1  0
  8 12  1  0
  8  9  1  6
 10 14  1  0
 10  9  1  0
 11 10  2  0
 12 20  1  0
 13 12  2  0
 15 16  1  0
 16 18  1  0
 17 16  2  0
 19 18  1  1
 20 19  1  0
 21 19  1  0
 21 23  1  0
 22 21  2  0
M  END
$$$$
