SDN.pdb
     RDKit          3D

 23 22  0  0  1  0  0  0  0  0999 V2000
   16.1518  -13.1628  -15.4066 O   0  0  0  0  0  0  0  0  0  0  0  0
   16.1105  -11.8230  -15.0768 C   0  0  0  0  0  0  0  0  0  0  0  0
   17.0114  -11.4912  -13.9013 C   0  0  2  0  0  0  0  0  0  0  0  0
   17.0354  -12.6200  -12.9922 N   0  0  0  0  0  0  0  0  0  0  0  0
   16.4919  -10.3191  -13.1435 C   0  0  0  0  0  0  0  0  0  0  0  0
   16.5950   -9.2162  -13.7429 O   0  0  0  0  0  0  0  0  0  0  0  0
   15.9253  -10.4356  -11.8485 N   0  0  0  0  0  0  0  0  0  0  0  0
   15.4829   -9.2437  -11.0901 C   0  0  1  0  0  0  0  0  0  0  0  0
   14.3333   -9.6389  -10.2583 C   0  0  0  0  0  0  0  0  0  0  0  0
   13.7458   -8.6521   -9.3680 C   0  0  0  0  0  0  0  0  0  0  0  0
   14.2436   -7.4793   -9.2950 O   0  0  0  0  0  0  0  0  0  0  0  0
   16.6223   -8.5969  -10.4462 C   0  0  0  0  0  0  0  0  0  0  0  0
   17.3397   -9.2199   -9.5994 O   0  0  0  0  0  0  0  0  0  0  0  0
   12.6474   -8.8763   -8.5570 O   0  0  0  0  0  0  0  0  0  0  0  0
   20.8481   -5.7413   -9.3431 N   0  0  0  0  0  0  0  0  0  0  0  0
   20.6195   -6.2558  -10.6688 C   0  0  0  0  0  0  0  0  0  0  0  0
   21.5975   -6.1468  -11.4598 O   0  0  0  0  0  0  0  0  0  0  0  0
   19.3322   -6.8588  -11.0472 C   0  0  0  0  0  0  0  0  0  0  0  0
   18.2297   -6.7073  -10.0451 C   0  0  2  0  0  0  0  0  0  0  0  0
   17.0174   -7.2610  -10.7013 N   0  0  0  0  0  0  0  0  0  0  0  0
   17.9385   -5.2790   -9.8353 C   0  0  0  0  0  0  0  0  0  0  0  0
   17.1661   -4.6834  -10.6102 O   0  0  0  0  0  0  0  0  0  0  0  0
   18.5003   -4.5730   -8.7970 O   0  0  0  0  0  0  0  0  0  0  0  0
  2  1  1  0
  3  4  1  1
  3  2  1  0
  5  6  2  0
  5  3  1  0
  7  5  1  0
  8  7  1  0
  8 12  1  0
  8  9  1  1
 10 14  1  0
 10  9  1  0
 11 10  2  0
 12 20  1  0
 13 12  2  0
 15 16  1  0
 16 18  1  0
 17 16  2  0
 19 18  1  6
 20 19  1  0
 21 19  1  0
 21 23  1  0
 22 21  2  0
M  END
$$$$
