SDN.pdb
     RDKit          3D

 23 22  0  0  1  0  0  0  0  0999 V2000
   13.9117   -8.4284  -16.9029 O   0  0  0  0  0  0  0  0  0  0  0  0
   15.1451   -8.2936  -16.2978 C   0  0  0  0  0  0  0  0  0  0  0  0
   16.0100   -9.5286  -16.4717 C   0  0  2  0  0  0  0  0  0  0  0  0
   15.4068  -10.6320  -15.7507 N   0  0  0  0  0  0  0  0  0  0  0  0
   17.3695   -9.3138  -15.9027 C   0  0  0  0  0  0  0  0  0  0  0  0
   17.4016   -9.1789  -14.6509 O   0  0  0  0  0  0  0  0  0  0  0  0
   18.5365   -9.2653  -16.7072 N   0  0  0  0  0  0  0  0  0  0  0  0
   19.8658   -8.9796  -16.1216 C   0  0  1  0  0  0  0  0  0  0  0  0
   20.8341   -9.9124  -16.7231 C   0  0  0  0  0  0  0  0  0  0  0  0
   22.2106   -9.8828  -16.2587 C   0  0  0  0  0  0  0  0  0  0  0  0
   22.5586   -9.0682  -15.3400 O   0  0  0  0  0  0  0  0  0  0  0  0
   20.1490   -7.5484  -16.1729 C   0  0  0  0  0  0  0  0  0  0  0  0
   20.0480   -6.8969  -17.2616 O   0  0  0  0  0  0  0  0  0  0  0  0
   23.2235  -10.6926  -16.7413 O   0  0  0  0  0  0  0  0  0  0  0  0
   21.0397   -2.4804  -15.0351 N   0  0  0  0  0  0  0  0  0  0  0  0
   19.8779   -3.1458  -14.5041 C   0  0  0  0  0  0  0  0  0  0  0  0
   19.0317   -2.3860  -13.9556 O   0  0  0  0  0  0  0  0  0  0  0  0
   19.7140   -4.6040  -14.6067 C   0  0  0  0  0  0  0  0  0  0  0  0
   20.8693   -5.3421  -15.2094 C   0  0  2  0  0  0  0  0  0  0  0  0
   20.5470   -6.7833  -15.0495 N   0  0  0  0  0  0  0  0  0  0  0  0
   22.0791   -5.1233  -14.3986 C   0  0  0  0  0  0  0  0  0  0  0  0
   22.2317   -5.7478  -13.3316 O   0  0  0  0  0  0  0  0  0  0  0  0
   23.0585   -4.2393  -14.7879 O   0  0  0  0  0  0  0  0  0  0  0  0
  2  1  1  0
  3  4  1  1
  3  2  1  0
  5  6  2  0
  5  3  1  0
  7  5  1  0
  8  7  1  0
  8 12  1  0
  8  9  1  6
 10 14  1  0
 10  9  1  0
 11 10  2  0
 12 20  1  0
 13 12  2  0
 15 16  1  0
 16 18  1  0
 17 16  2  0
 19 18  1  1
 20 19  1  0
 21 19  1  0
 21 23  1  0
 22 21  2  0
M  END
$$$$
