SDN.pdb
     RDKit          3D

 23 22  0  0  1  0  0  0  0  0999 V2000
   13.2534  -11.5844  -14.3687 O   0  0  0  0  0  0  0  0  0  0  0  0
   14.3104  -11.0790  -13.6386 C   0  0  0  0  0  0  0  0  0  0  0  0
   15.6257  -11.1705  -14.3905 C   0  0  2  0  0  0  0  0  0  0  0  0
   16.0357  -12.5593  -14.4560 N   0  0  0  0  0  0  0  0  0  0  0  0
   16.7000  -10.4211  -13.6818 C   0  0  0  0  0  0  0  0  0  0  0  0
   17.8069  -11.0188  -13.6203 O   0  0  0  0  0  0  0  0  0  0  0  0
   16.4930   -9.1352  -13.1203 N   0  0  0  0  0  0  0  0  0  0  0  0
   17.6002   -8.3816  -12.4897 C   0  0  1  0  0  0  0  0  0  0  0  0
   18.7631   -8.4486  -13.3912 C   0  0  0  0  0  0  0  0  0  0  0  0
   19.9760   -7.7413  -13.0173 C   0  0  0  0  0  0  0  0  0  0  0  0
   20.3870   -7.7701  -11.8094 O   0  0  0  0  0  0  0  0  0  0  0  0
   17.1362   -7.0714  -12.0433 C   0  0  0  0  0  0  0  0  0  0  0  0
   16.5385   -6.2791  -12.8401 O   0  0  0  0  0  0  0  0  0  0  0  0
   20.7619   -7.0078  -13.8884 O   0  0  0  0  0  0  0  0  0  0  0  0
   15.1870   -3.3552   -8.3732 N   0  0  0  0  0  0  0  0  0  0  0  0
   16.5182   -3.8914   -8.2517 C   0  0  0  0  0  0  0  0  0  0  0  0
   17.3256   -3.1728   -7.5990 O   0  0  0  0  0  0  0  0  0  0  0  0
   16.8838   -5.1830   -8.8531 C   0  0  0  0  0  0  0  0  0  0  0  0
   16.7286   -5.2691  -10.3401 C   0  0  2  0  0  0  0  0  0  0  0  0
   17.3043   -6.5835  -10.7243 N   0  0  0  0  0  0  0  0  0  0  0  0
   17.5873   -4.2650  -10.9906 C   0  0  0  0  0  0  0  0  0  0  0  0
   17.1175   -3.1528  -11.2975 O   0  0  0  0  0  0  0  0  0  0  0  0
   18.9090   -4.5202  -11.2736 O   0  0  0  0  0  0  0  0  0  0  0  0
  2  1  1  0
  3  4  1  1
  3  2  1  0
  5  6  2  0
  5  3  1  0
  7  5  1  0
  8  7  1  0
  8 12  1  0
  8  9  1  6
 10 14  1  0
 10  9  1  0
 11 10  2  0
 12 20  1  0
 13 12  2  0
 15 16  1  0
 16 18  1  0
 17 16  2  0
 19 18  1  1
 20 19  1  0
 21 19  1  0
 21 23  1  0
 22 21  2  0
M  END
$$$$
