SDN.pdb
     RDKit          3D

 23 22  0  0  1  0  0  0  0  0999 V2000
   26.8858  -27.7453  -18.3707 O   0  0  0  0  0  0  0  0  0  0  0  0
   26.7861  -26.6434  -17.5450 C   0  0  0  0  0  0  0  0  0  0  0  0
   28.0292  -25.7740  -17.5923 C   0  0  2  0  0  0  0  0  0  0  0  0
   29.1173  -26.4707  -16.9350 N   0  0  0  0  0  0  0  0  0  0  0  0
   27.8143  -24.4934  -16.8630 C   0  0  0  0  0  0  0  0  0  0  0  0
   28.0204  -24.5527  -15.6220 O   0  0  0  0  0  0  0  0  0  0  0  0
   27.4093  -23.3006  -17.5148 N   0  0  0  0  0  0  0  0  0  0  0  0
   27.2464  -22.0317  -16.7699 C   0  0  1  0  0  0  0  0  0  0  0  0
   27.8567  -20.9565  -17.5706 C   0  0  0  0  0  0  0  0  0  0  0  0
   27.9001  -19.6141  -17.0163 C   0  0  0  0  0  0  0  0  0  0  0  0
   27.4092  -19.3826  -15.8612 O   0  0  0  0  0  0  0  0  0  0  0  0
   25.8646  -21.8745  -16.3260 C   0  0  0  0  0  0  0  0  0  0  0  0
   24.8908  -22.1406  -17.1011 O   0  0  0  0  0  0  0  0  0  0  0  0
   28.4495  -18.5152  -17.6527 O   0  0  0  0  0  0  0  0  0  0  0  0
   21.5458  -20.5455  -13.5017 N   0  0  0  0  0  0  0  0  0  0  0  0
   22.7178  -20.6121  -12.6672 C   0  0  0  0  0  0  0  0  0  0  0  0
   22.5166  -20.3719  -11.4441 O   0  0  0  0  0  0  0  0  0  0  0  0
   24.0397  -20.9379  -13.2241 C   0  0  0  0  0  0  0  0  0  0  0  0
   24.0655  -21.2372  -14.6913 C   0  0  2  0  0  0  0  0  0  0  0  0
   25.4986  -21.4276  -15.0328 N   0  0  0  0  0  0  0  0  0  0  0  0
   23.6408  -20.0490  -15.4506 C   0  0  0  0  0  0  0  0  0  0  0  0
   24.4548  -19.1330  -15.6750 O   0  0  0  0  0  0  0  0  0  0  0  0
   22.3567  -19.9173  -15.9260 O   0  0  0  0  0  0  0  0  0  0  0  0
  2  1  1  0
  3  4  1  1
  3  2  1  0
  5  6  2  0
  5  3  1  0
  7  5  1  0
  8  7  1  0
  8 12  1  0
  8  9  1  6
 10 14  1  0
 10  9  1  0
 11 10  2  0
 12 20  1  0
 13 12  2  0
 15 16  1  0
 16 18  1  0
 17 16  2  0
 19 18  1  1
 20 19  1  0
 21 19  1  0
 21 23  1  0
 22 21  2  0
M  END
$$$$
