SDN.pdb
     RDKit          3D

 23 22  0  0  1  0  0  0  0  0999 V2000
   16.7504  -12.9630  -13.3132 O   0  0  0  0  0  0  0  0  0  0  0  0
   15.8339  -12.8962  -14.3434 C   0  0  0  0  0  0  0  0  0  0  0  0
   16.4271  -13.3306  -15.6711 C   0  0  2  0  0  0  0  0  0  0  0  0
   17.0463  -14.6311  -15.5080 N   0  0  0  0  0  0  0  0  0  0  0  0
   17.4871  -12.3848  -16.1183 C   0  0  0  0  0  0  0  0  0  0  0  0
   18.6635  -12.8203  -16.0063 O   0  0  0  0  0  0  0  0  0  0  0  0
   17.1948  -11.0948  -16.6302 N   0  0  0  0  0  0  0  0  0  0  0  0
   18.2707  -10.1744  -17.0625 C   0  0  1  0  0  0  0  0  0  0  0  0
   17.9419   -9.7004  -18.4177 C   0  0  0  0  0  0  0  0  0  0  0  0
   18.8256   -8.7370  -19.0522 C   0  0  0  0  0  0  0  0  0  0  0  0
   20.0813   -8.9583  -19.1047 O   0  0  0  0  0  0  0  0  0  0  0  0
   18.5448   -9.1863  -16.0235 C   0  0  0  0  0  0  0  0  0  0  0  0
   17.6252   -8.7814  -15.2423 O   0  0  0  0  0  0  0  0  0  0  0  0
   18.4130   -7.5499  -19.6310 O   0  0  0  0  0  0  0  0  0  0  0  0
   22.5369   -5.3324  -13.8683 N   0  0  0  0  0  0  0  0  0  0  0  0
   21.9573   -6.5943  -13.4861 C   0  0  0  0  0  0  0  0  0  0  0  0
   21.8735   -6.7880  -12.2412 O   0  0  0  0  0  0  0  0  0  0  0  0
   21.5047   -7.5676  -14.4918 C   0  0  0  0  0  0  0  0  0  0  0  0
   20.0211   -7.6693  -14.6691 C   0  0  2  0  0  0  0  0  0  0  0  0
   19.8196   -8.6111  -15.8000 N   0  0  0  0  0  0  0  0  0  0  0  0
   19.4849   -6.3803  -15.1380 C   0  0  0  0  0  0  0  0  0  0  0  0
   19.4570   -6.1273  -16.3574 O   0  0  0  0  0  0  0  0  0  0  0  0
   19.0078   -5.4349  -14.2601 O   0  0  0  0  0  0  0  0  0  0  0  0
  2  1  1  0
  3  4  1  1
  3  2  1  0
  5  6  2  0
  5  3  1  0
  7  5  1  0
  8  7  1  0
  8 12  1  0
  8  9  1  6
 10 14  1  0
 10  9  1  0
 11 10  2  0
 12 20  1  0
 13 12  2  0
 15 16  1  0
 16 18  1  0
 17 16  2  0
 19 18  1  6
 20 19  1  0
 21 19  1  0
 21 23  1  0
 22 21  2  0
M  END
$$$$
