SDN.pdb
     RDKit          3D

 23 22  0  0  1  0  0  0  0  0999 V2000
   13.0845   -9.1470  -14.5922 O   0  0  0  0  0  0  0  0  0  0  0  0
   14.4399   -9.3243  -14.3992 C   0  0  0  0  0  0  0  0  0  0  0  0
   15.0044  -10.4357  -15.2649 C   0  0  2  0  0  0  0  0  0  0  0  0
   14.6503  -11.7144  -14.6809 N   0  0  0  0  0  0  0  0  0  0  0  0
   16.4910  -10.3673  -15.3210 C   0  0  0  0  0  0  0  0  0  0  0  0
   17.0816  -10.9526  -14.3751 O   0  0  0  0  0  0  0  0  0  0  0  0
   17.1873   -9.6956  -16.3582 N   0  0  0  0  0  0  0  0  0  0  0  0
   18.6655   -9.6171  -16.3699 C   0  0  1  0  0  0  0  0  0  0  0  0
   19.1369  -10.1690  -17.6516 C   0  0  0  0  0  0  0  0  0  0  0  0
   19.7249  -11.4977  -17.6636 C   0  0  0  0  0  0  0  0  0  0  0  0
   19.1525  -12.4451  -18.2989 O   0  0  0  0  0  0  0  0  0  0  0  0
   19.1086   -8.2824  -15.9781 C   0  0  0  0  0  0  0  0  0  0  0  0
   18.4458   -7.2468  -16.3072 O   0  0  0  0  0  0  0  0  0  0  0  0
   20.9005  -11.8460  -17.0224 O   0  0  0  0  0  0  0  0  0  0  0  0
   21.8383   -4.2396  -13.8286 N   0  0  0  0  0  0  0  0  0  0  0  0
   22.0322   -5.4793  -13.1214 C   0  0  0  0  0  0  0  0  0  0  0  0
   22.7196   -5.3900  -12.0661 O   0  0  0  0  0  0  0  0  0  0  0  0
   21.4607   -6.7419  -13.6141 C   0  0  0  0  0  0  0  0  0  0  0  0
   20.6506   -6.6370  -14.8692 C   0  0  2  0  0  0  0  0  0  0  0  0
   20.2780   -8.0316  -15.2195 N   0  0  0  0  0  0  0  0  0  0  0  0
   21.5037   -6.1740  -15.9768 C   0  0  0  0  0  0  0  0  0  0  0  0
   22.1310   -7.0022  -16.6641 O   0  0  0  0  0  0  0  0  0  0  0  0
   21.6311   -4.8383  -16.2799 O   0  0  0  0  0  0  0  0  0  0  0  0
  2  1  1  0
  3  4  1  1
  3  2  1  0
  5  6  2  0
  5  3  1  0
  7  5  1  0
  8  7  1  0
  8 12  1  0
  8  9  1  6
 10 14  1  0
 10  9  1  0
 11 10  2  0
 12 20  1  0
 13 12  2  0
 15 16  1  0
 16 18  1  0
 17 16  2  0
 19 18  1  1
 20 19  1  0
 21 19  1  0
 21 23  1  0
 22 21  2  0
M  END
$$$$
