SDN.pdb
     RDKit          3D

 23 22  0  0  1  0  0  0  0  0999 V2000
   16.1538   -9.9349  -17.6319 O   0  0  0  0  0  0  0  0  0  0  0  0
   16.7620  -10.7383  -16.6883 C   0  0  0  0  0  0  0  0  0  0  0  0
   17.0923   -9.9819  -15.4146 C   0  0  2  0  0  0  0  0  0  0  0  0
   16.5198   -8.6525  -15.4938 N   0  0  0  0  0  0  0  0  0  0  0  0
   18.5643   -9.8248  -15.2523 C   0  0  0  0  0  0  0  0  0  0  0  0
   19.2041  -10.9066  -15.1721 O   0  0  0  0  0  0  0  0  0  0  0  0
   19.1962   -8.5564  -15.1929 N   0  0  0  0  0  0  0  0  0  0  0  0
   20.6666   -8.4320  -15.0744 C   0  0  1  0  0  0  0  0  0  0  0  0
   21.2764   -9.2651  -16.1249 C   0  0  0  0  0  0  0  0  0  0  0  0
   22.7149   -9.1993  -16.3187 C   0  0  0  0  0  0  0  0  0  0  0  0
   23.1931   -8.7670  -17.4201 O   0  0  0  0  0  0  0  0  0  0  0  0
   21.0540   -7.0274  -14.9831 C   0  0  0  0  0  0  0  0  0  0  0  0
   20.8145   -6.2163  -15.9342 O   0  0  0  0  0  0  0  0  0  0  0  0
   23.6558   -9.5780  -15.3774 O   0  0  0  0  0  0  0  0  0  0  0  0
   22.4058   -2.2492  -14.5439 N   0  0  0  0  0  0  0  0  0  0  0  0
   22.6397   -3.2566  -15.5463 C   0  0  0  0  0  0  0  0  0  0  0  0
   23.0560   -2.8196  -16.6553 O   0  0  0  0  0  0  0  0  0  0  0  0
   22.4029   -4.6823  -15.2723 C   0  0  0  0  0  0  0  0  0  0  0  0
   22.0554   -5.0176  -13.8547 C   0  0  2  0  0  0  0  0  0  0  0  0
   21.7086   -6.4620  -13.8616 N   0  0  0  0  0  0  0  0  0  0  0  0
   20.8158   -4.3234  -13.4670 C   0  0  0  0  0  0  0  0  0  0  0  0
   19.8220   -4.9832  -13.1082 O   0  0  0  0  0  0  0  0  0  0  0  0
   20.7199   -2.9513  -13.4891 O   0  0  0  0  0  0  0  0  0  0  0  0
  2  1  1  0
  3  4  1  6
  3  2  1  0
  5  6  2  0
  5  3  1  0
  7  5  1  0
  8  7  1  0
  8 12  1  0
  8  9  1  6
 10 14  1  0
 10  9  1  0
 11 10  2  0
 12 20  1  0
 13 12  2  0
 15 16  1  0
 16 18  1  0
 17 16  2  0
 19 18  1  6
 20 19  1  0
 21 19  1  0
 21 23  1  0
 22 21  2  0
M  END
$$$$
