HHD.pdb
     RDKit          3D

 29 30  0  0  1  0  0  0  0  0999 V2000
   21.4837   -7.9401  -17.7795 N   0  0  0  0  0  0  0  0  0  0  0  0
   20.6997   -8.4774  -16.6758 C   0  0  1  0  0  0  0  0  0  0  0  0
   19.6692   -7.4379  -16.3001 C   0  0  0  0  0  0  0  0  0  0  0  0
   20.3153   -6.4946  -15.3497 C   0  0  0  0  0  0  0  0  0  0  0  0
   20.7132   -5.1784  -15.6113 C   0  0  0  0  0  0  0  0  0  0  0  0
   21.2558   -4.6499  -14.5092 N   0  0  0  0  0  0  0  0  0  0  0  0
   21.2138   -5.5900  -13.5587 C   0  0  0  0  0  0  0  0  0  0  0  0
   20.6490   -6.6985  -14.0625 N   0  0  0  0  0  0  0  0  0  0  0  0
   20.0811   -9.7545  -17.0907 C   0  0  0  0  0  0  0  0  0  0  0  0
   19.5968   -9.8168  -18.2707 O   0  0  0  0  0  0  0  0  0  0  0  0
   20.0190  -10.8744  -16.2274 N   0  0  0  0  0  0  0  0  0  0  0  0
   19.3989  -12.0900  -16.6533 C   0  0  1  0  0  0  0  0  0  0  0  0
   20.3270  -13.2626  -16.8040 C   0  0  0  0  0  0  0  0  0  0  0  0
   21.1562  -13.2554  -18.0177 C   0  0  0  0  0  0  0  0  0  0  0  0
   21.1055  -12.2796  -18.9786 C   0  0  0  0  0  0  0  0  0  0  0  0
   21.9967  -12.6097  -19.9248 N   0  0  0  0  0  0  0  0  0  0  0  0
   22.5811  -13.7570  -19.5580 C   0  0  0  0  0  0  0  0  0  0  0  0
   22.0654  -14.1524  -18.3886 N   0  0  0  0  0  0  0  0  0  0  0  0
   18.2576  -12.4906  -15.8006 C   0  0  0  0  0  0  0  0  0  0  0  0
   18.2168  -12.0674  -14.6192 O   0  0  0  0  0  0  0  0  0  0  0  0
   17.2075  -13.3300  -16.2406 N   0  0  0  0  0  0  0  0  0  0  0  0
   16.0601  -13.7310  -15.4493 C   0  0  1  0  0  0  0  0  0  0  0  0
   14.8106  -13.9006  -16.2484 C   0  0  0  0  0  0  0  0  0  0  0  0
   13.6260  -14.3119  -15.4993 C   0  0  0  0  0  0  0  0  0  0  0  0
   13.1483  -13.7042  -14.5144 O   0  0  0  0  0  0  0  0  0  0  0  0
   16.3855  -15.0528  -14.8532 C   0  0  0  0  0  0  0  0  0  0  0  0
   17.2971  -15.7313  -15.3575 O   0  0  0  0  0  0  0  0  0  0  0  0
   12.9603  -15.4679  -15.8948 O   0  0  0  0  0  0  0  0  0  0  0  0
   15.6948  -15.5161  -13.7686 O   0  0  0  0  0  0  0  0  0  0  0  0
  2  1  1  6
  2  9  1  0
  3  2  1  0
  4  8  1  0
  4  3  1  0
  5  4  2  0
  6  5  1  0
  6  7  1  0
  7  8  2  0
  9 10  2  0
 11  9  1  0
 11 12  1  0
 12 13  1  1
 13 14  1  0
 14 15  2  0
 16 15  1  0
 17 16  1  0
 18 17  2  0
 18 14  1  0
 19 12  1  0
 19 20  2  0
 21 19  1  0
 22 21  1  0
 22 26  1  0
 22 23  1  6
 24 23  1  0
 24 28  1  0
 25 24  2  0
 26 29  1  0
 27 26  2  0
M  END
$$$$
