HHD.pdb
     RDKit          3D

 29 30  0  0  1  0  0  0  0  0999 V2000
   29.9895  -36.4292   -7.6352 N   0  0  0  0  0  0  0  0  0  0  0  0
   29.5792  -35.6178   -6.4973 C   0  0  1  0  0  0  0  0  0  0  0  0
   28.0725  -35.6889   -6.4062 C   0  0  0  0  0  0  0  0  0  0  0  0
   27.5364  -34.3862   -6.8816 C   0  0  0  0  0  0  0  0  0  0  0  0
   27.1816  -33.2851   -6.0935 C   0  0  0  0  0  0  0  0  0  0  0  0
   26.7402  -32.2981   -6.8805 N   0  0  0  0  0  0  0  0  0  0  0  0
   26.8045  -32.7398   -8.1413 C   0  0  0  0  0  0  0  0  0  0  0  0
   27.2825  -33.9939   -8.1432 N   0  0  0  0  0  0  0  0  0  0  0  0
   30.2383  -36.1216   -5.2736 C   0  0  0  0  0  0  0  0  0  0  0  0
   30.1000  -37.3610   -4.9994 O   0  0  0  0  0  0  0  0  0  0  0  0
   30.9968  -35.2778   -4.4273 N   0  0  0  0  0  0  0  0  0  0  0  0
   31.6426  -35.8013   -3.2644 C   0  0  1  0  0  0  0  0  0  0  0  0
   32.8773  -35.0617   -2.8310 C   0  0  0  0  0  0  0  0  0  0  0  0
   34.1485  -35.7467   -3.1058 C   0  0  0  0  0  0  0  0  0  0  0  0
   34.2449  -37.0096   -3.6290 C   0  0  0  0  0  0  0  0  0  0  0  0
   35.5509  -37.2942   -3.7374 N   0  0  0  0  0  0  0  0  0  0  0  0
   36.2412  -36.2365   -3.2934 C   0  0  0  0  0  0  0  0  0  0  0  0
   35.3809  -35.2879   -2.9063 N   0  0  0  0  0  0  0  0  0  0  0  0
   30.7334  -35.9341   -2.1043 C   0  0  0  0  0  0  0  0  0  0  0  0
   29.7598  -35.1463   -2.0147 O   0  0  0  0  0  0  0  0  0  0  0  0
   30.9013  -36.8989   -1.0836 N   0  0  0  0  0  0  0  0  0  0  0  0
   30.0478  -37.0547    0.0786 C   0  0  1  0  0  0  0  0  0  0  0  0
   30.1315  -38.4063    0.7069 C   0  0  0  0  0  0  0  0  0  0  0  0
   29.3841  -38.5787    1.9500 C   0  0  0  0  0  0  0  0  0  0  0  0
   28.6665  -37.7047    2.4873 O   0  0  0  0  0  0  0  0  0  0  0  0
   30.5090  -36.0686    1.0901 C   0  0  0  0  0  0  0  0  0  0  0  0
   31.6261  -35.5412    0.9494 O   0  0  0  0  0  0  0  0  0  0  0  0
   29.4616  -39.8035    2.6054 O   0  0  0  0  0  0  0  0  0  0  0  0
   29.7192  -35.7457    2.1579 O   0  0  0  0  0  0  0  0  0  0  0  0
  2  1  1  6
  2  9  1  0
  3  2  1  0
  4  8  1  0
  4  3  1  0
  5  4  2  0
  6  5  1  0
  6  7  1  0
  7  8  2  0
  9 10  2  0
 11  9  1  0
 11 12  1  0
 12 13  1  1
 13 14  1  0
 14 15  2  0
 16 15  1  0
 17 16  1  0
 18 17  2  0
 18 14  1  0
 19 12  1  0
 19 20  2  0
 21 19  1  0
 22 21  1  0
 22 26  1  0
 22 23  1  1
 24 23  1  0
 24 28  1  0
 25 24  2  0
 26 29  1  0
 27 26  2  0
M  END
$$$$
