HHD.pdb
     RDKit          3D

 29 30  0  0  1  0  0  0  0  0999 V2000
   20.1506  -11.2484  -17.4433 N   0  0  0  0  0  0  0  0  0  0  0  0
   20.9818  -10.1019  -17.7839 C   0  0  1  0  0  0  0  0  0  0  0  0
   20.8492   -9.8683  -19.2710 C   0  0  0  0  0  0  0  0  0  0  0  0
   21.4522  -11.0394  -19.9605 C   0  0  0  0  0  0  0  0  0  0  0  0
   22.8062  -11.2354  -20.2565 C   0  0  0  0  0  0  0  0  0  0  0  0
   22.9601  -12.4075  -20.8817 N   0  0  0  0  0  0  0  0  0  0  0  0
   21.7465  -12.9591  -20.9907 C   0  0  0  0  0  0  0  0  0  0  0  0
   20.8400  -12.1382  -20.4377 N   0  0  0  0  0  0  0  0  0  0  0  0
   20.5487   -8.9307  -16.9924 C   0  0  0  0  0  0  0  0  0  0  0  0
   19.3041   -8.6452  -16.9983 O   0  0  0  0  0  0  0  0  0  0  0  0
   21.4635   -8.1451  -16.2512 N   0  0  0  0  0  0  0  0  0  0  0  0
   21.0195   -6.9915  -15.5332 C   0  0  1  0  0  0  0  0  0  0  0  0
   21.0929   -7.1027  -14.0361 C   0  0  0  0  0  0  0  0  0  0  0  0
   20.0785   -7.9702  -13.4203 C   0  0  0  0  0  0  0  0  0  0  0  0
   20.2311   -9.3190  -13.2320 C   0  0  0  0  0  0  0  0  0  0  0  0
   19.1096   -9.7662  -12.6485 N   0  0  0  0  0  0  0  0  0  0  0  0
   18.2878   -8.7226  -12.4813 C   0  0  0  0  0  0  0  0  0  0  0  0
   18.8825   -7.6216  -12.9547 N   0  0  0  0  0  0  0  0  0  0  0  0
   21.7007   -5.7468  -15.9538 C   0  0  0  0  0  0  0  0  0  0  0  0
   22.9525   -5.7542  -16.0511 O   0  0  0  0  0  0  0  0  0  0  0  0
   21.0200   -4.5426  -16.2496 N   0  0  0  0  0  0  0  0  0  0  0  0
   21.6413   -3.3095  -16.6933 C   0  0  1  0  0  0  0  0  0  0  0  0
   21.4975   -3.0590  -18.1580 C   0  0  0  0  0  0  0  0  0  0  0  0
   22.0521   -1.7992  -18.6466 C   0  0  0  0  0  0  0  0  0  0  0  0
   22.6447   -0.9505  -17.9422 O   0  0  0  0  0  0  0  0  0  0  0  0
   20.9529   -2.1986  -15.9860 C   0  0  0  0  0  0  0  0  0  0  0  0
   19.7209   -2.2577  -15.8297 O   0  0  0  0  0  0  0  0  0  0  0  0
   21.9226   -1.4984  -19.9988 O   0  0  0  0  0  0  0  0  0  0  0  0
   21.6612   -1.1289  -15.5146 O   0  0  0  0  0  0  0  0  0  0  0  0
  2  1  1  1
  2  9  1  0
  3  2  1  0
  4  8  1  0
  4  3  1  0
  5  4  2  0
  6  5  1  0
  6  7  1  0
  7  8  2  0
  9 10  2  0
 11  9  1  0
 11 12  1  0
 12 13  1  1
 13 14  1  0
 14 15  2  0
 16 15  1  0
 17 16  1  0
 18 17  2  0
 18 14  1  0
 19 12  1  0
 19 20  2  0
 21 19  1  0
 22 21  1  0
 22 26  1  0
 22 23  1  6
 24 23  1  0
 24 28  1  0
 25 24  2  0
 26 29  1  0
 27 26  2  0
M  END
$$$$
