HHD.pdb
     RDKit          3D

 29 30  0  0  1  0  0  0  0  0999 V2000
   19.7469  -14.2147  -15.9364 N   0  0  0  0  0  0  0  0  0  0  0  0
   19.2624  -12.9557  -16.4855 C   0  0  1  0  0  0  0  0  0  0  0  0
   18.0452  -12.5486  -15.6878 C   0  0  0  0  0  0  0  0  0  0  0  0
   16.9725  -13.5362  -15.9785 C   0  0  0  0  0  0  0  0  0  0  0  0
   16.6301  -14.6559  -15.2114 C   0  0  0  0  0  0  0  0  0  0  0  0
   15.6149  -15.3018  -15.7950 N   0  0  0  0  0  0  0  0  0  0  0  0
   15.3042  -14.6263  -16.9068 C   0  0  0  0  0  0  0  0  0  0  0  0
   16.1191  -13.5656  -17.0180 N   0  0  0  0  0  0  0  0  0  0  0  0
   20.3395  -11.9452  -16.4181 C   0  0  0  0  0  0  0  0  0  0  0  0
   20.9101  -11.7690  -15.2894 O   0  0  0  0  0  0  0  0  0  0  0  0
   20.7360  -11.1933  -17.5498 N   0  0  0  0  0  0  0  0  0  0  0  0
   21.7649  -10.2065  -17.4458 C   0  0  1  0  0  0  0  0  0  0  0  0
   22.6364  -10.0606  -18.6618 C   0  0  0  0  0  0  0  0  0  0  0  0
   23.8139   -9.1975  -18.4906 C   0  0  0  0  0  0  0  0  0  0  0  0
   24.1406   -8.5645  -17.3199 C   0  0  0  0  0  0  0  0  0  0  0  0
   25.2680   -7.8742  -17.5448 N   0  0  0  0  0  0  0  0  0  0  0  0
   25.6271   -8.0755  -18.8187 C   0  0  0  0  0  0  0  0  0  0  0  0
   24.7351   -8.8869  -19.3982 N   0  0  0  0  0  0  0  0  0  0  0  0
   21.2541   -8.8718  -17.0614 C   0  0  0  0  0  0  0  0  0  0  0  0
   20.1520   -8.4957  -17.5309 O   0  0  0  0  0  0  0  0  0  0  0  0
   21.9411   -7.9897  -16.1949 N   0  0  0  0  0  0  0  0  0  0  0  0
   21.4691   -6.6853  -15.7715 C   0  0  1  0  0  0  0  0  0  0  0  0
   20.1628   -6.2942  -16.3792 C   0  0  0  0  0  0  0  0  0  0  0  0
   19.6059   -5.0213  -15.9286 C   0  0  0  0  0  0  0  0  0  0  0  0
   20.2560   -3.9615  -15.7806 O   0  0  0  0  0  0  0  0  0  0  0  0
   21.2685   -6.7536  -14.3006 C   0  0  0  0  0  0  0  0  0  0  0  0
   21.4810   -7.8293  -13.7145 O   0  0  0  0  0  0  0  0  0  0  0  0
   18.2473   -4.9592  -15.6350 O   0  0  0  0  0  0  0  0  0  0  0  0
   20.8574   -5.6529  -13.6024 O   0  0  0  0  0  0  0  0  0  0  0  0
  2  1  1  1
  2  9  1  0
  3  2  1  0
  4  8  1  0
  4  3  1  0
  5  4  2  0
  6  5  1  0
  6  7  1  0
  7  8  2  0
  9 10  2  0
 11  9  1  0
 11 12  1  0
 12 13  1  6
 13 14  1  0
 14 15  2  0
 16 15  1  0
 17 16  1  0
 18 17  2  0
 18 14  1  0
 19 12  1  0
 19 20  2  0
 21 19  1  0
 22 21  1  0
 22 26  1  0
 22 23  1  6
 24 23  1  0
 24 28  1  0
 25 24  2  0
 26 29  1  0
 27 26  2  0
M  END
$$$$
