HHD.pdb
     RDKit          3D

 29 30  0  0  1  0  0  0  0  0999 V2000
   21.5895  -14.6682  -18.1387 N   0  0  0  0  0  0  0  0  0  0  0  0
   21.9729  -13.4328  -18.8081 C   0  0  1  0  0  0  0  0  0  0  0  0
   20.8601  -13.0670  -19.7627 C   0  0  0  0  0  0  0  0  0  0  0  0
   20.8652  -14.0726  -20.8578 C   0  0  0  0  0  0  0  0  0  0  0  0
   21.5030  -15.3186  -20.8521 C   0  0  0  0  0  0  0  0  0  0  0  0
   21.2797  -15.9384  -22.0159 N   0  0  0  0  0  0  0  0  0  0  0  0
   20.5209  -15.1241  -22.7576 C   0  0  0  0  0  0  0  0  0  0  0  0
   20.2714  -14.0031  -22.0629 N   0  0  0  0  0  0  0  0  0  0  0  0
   22.2110  -12.3812  -17.7965 C   0  0  0  0  0  0  0  0  0  0  0  0
   21.4644  -12.3826  -16.7606 O   0  0  0  0  0  0  0  0  0  0  0  0
   23.2221  -11.4032  -17.9533 N   0  0  0  0  0  0  0  0  0  0  0  0
   23.4176  -10.3911  -16.9630 C   0  0  1  0  0  0  0  0  0  0  0  0
   24.8451   -9.9709  -16.7512 C   0  0  0  0  0  0  0  0  0  0  0  0
   25.7402  -11.0209  -16.2443 C   0  0  0  0  0  0  0  0  0  0  0  0
   25.3194  -12.2588  -15.8336 C   0  0  0  0  0  0  0  0  0  0  0  0
   26.4081  -12.9366  -15.4417 N   0  0  0  0  0  0  0  0  0  0  0  0
   27.4711  -12.1395  -15.6061 C   0  0  0  0  0  0  0  0  0  0  0  0
   27.0609  -10.9650  -16.0982 N   0  0  0  0  0  0  0  0  0  0  0  0
   22.5936   -9.1838  -17.1946 C   0  0  0  0  0  0  0  0  0  0  0  0
   22.5861   -8.6766  -18.3432 O   0  0  0  0  0  0  0  0  0  0  0  0
   21.8138   -8.5630  -16.1909 N   0  0  0  0  0  0  0  0  0  0  0  0
   20.9479   -7.4157  -16.3845 C   0  0  1  0  0  0  0  0  0  0  0  0
   19.7652   -7.3970  -15.4736 C   0  0  0  0  0  0  0  0  0  0  0  0
   18.8502   -6.2707  -15.6403 C   0  0  0  0  0  0  0  0  0  0  0  0
   18.6978   -5.6152  -16.6961 O   0  0  0  0  0  0  0  0  0  0  0  0
   21.7568   -6.2064  -16.0821 C   0  0  0  0  0  0  0  0  0  0  0  0
   22.6737   -6.2902  -15.2465 O   0  0  0  0  0  0  0  0  0  0  0  0
   18.0772   -5.8783  -14.5521 O   0  0  0  0  0  0  0  0  0  0  0  0
   21.4983   -5.0209  -16.7114 O   0  0  0  0  0  0  0  0  0  0  0  0
  2  1  1  1
  2  9  1  0
  3  2  1  0
  4  8  1  0
  4  3  1  0
  5  4  2  0
  6  5  1  0
  6  7  1  0
  7  8  2  0
  9 10  2  0
 11  9  1  0
 11 12  1  0
 12 13  1  6
 13 14  1  0
 14 15  2  0
 16 15  1  0
 17 16  1  0
 18 17  2  0
 18 14  1  0
 19 12  1  0
 19 20  2  0
 21 19  1  0
 22 21  1  0
 22 26  1  0
 22 23  1  1
 24 23  1  0
 24 28  1  0
 25 24  2  0
 26 29  1  0
 27 26  2  0
M  END
$$$$
