HHD.pdb
     RDKit          3D

 29 30  0  0  1  0  0  0  0  0999 V2000
   26.0508  -37.2353  -13.9986 N   0  0  0  0  0  0  0  0  0  0  0  0
   25.6967  -35.9655  -13.3791 C   0  0  1  0  0  0  0  0  0  0  0  0
   24.4183  -35.4839  -14.0251 C   0  0  0  0  0  0  0  0  0  0  0  0
   24.7641  -34.9977  -15.3870 C   0  0  0  0  0  0  0  0  0  0  0  0
   26.0473  -34.7692  -15.8975 C   0  0  0  0  0  0  0  0  0  0  0  0
   25.9538  -34.3355  -17.1591 N   0  0  0  0  0  0  0  0  0  0  0  0
   24.6523  -34.2824  -17.4628 C   0  0  0  0  0  0  0  0  0  0  0  0
   23.9368  -34.6799  -16.3991 N   0  0  0  0  0  0  0  0  0  0  0  0
   25.5495  -36.1564  -11.9205 C   0  0  0  0  0  0  0  0  0  0  0  0
   25.2321  -37.3230  -11.5096 O   0  0  0  0  0  0  0  0  0  0  0  0
   25.7486  -35.0991  -11.0007 N   0  0  0  0  0  0  0  0  0  0  0  0
   25.6319  -35.3246   -9.5940 C   0  0  1  0  0  0  0  0  0  0  0  0
   26.4468  -34.4043   -8.7290 C   0  0  0  0  0  0  0  0  0  0  0  0
   25.8744  -33.0662   -8.5223 C   0  0  0  0  0  0  0  0  0  0  0  0
   25.7360  -32.1272   -9.5109 C   0  0  0  0  0  0  0  0  0  0  0  0
   25.1810  -31.0425   -8.9510 N   0  0  0  0  0  0  0  0  0  0  0  0
   24.9824  -31.3046   -7.6532 C   0  0  0  0  0  0  0  0  0  0  0  0
   25.4078  -32.5456   -7.3910 N   0  0  0  0  0  0  0  0  0  0  0  0
   24.2309  -35.3125   -9.1172 C   0  0  0  0  0  0  0  0  0  0  0  0
   23.3586  -34.7697   -9.8391 O   0  0  0  0  0  0  0  0  0  0  0  0
   23.8169  -35.8758   -7.8875 N   0  0  0  0  0  0  0  0  0  0  0  0
   22.4552  -35.9045   -7.3889 C   0  0  1  0  0  0  0  0  0  0  0  0
   21.7880  -37.2310   -7.5440 C   0  0  0  0  0  0  0  0  0  0  0  0
   20.4185  -37.3179   -7.0435 C   0  0  0  0  0  0  0  0  0  0  0  0
   19.7625  -36.3636   -6.5674 O   0  0  0  0  0  0  0  0  0  0  0  0
   22.5205  -35.6109   -5.9336 C   0  0  0  0  0  0  0  0  0  0  0  0
   23.6270  -35.6248   -5.3668 O   0  0  0  0  0  0  0  0  0  0  0  0
   19.7728  -38.5494   -7.0903 O   0  0  0  0  0  0  0  0  0  0  0  0
   21.3837  -35.3302   -5.2286 O   0  0  0  0  0  0  0  0  0  0  0  0
  2  1  1  6
  2  9  1  0
  3  2  1  0
  4  8  1  0
  4  3  1  0
  5  4  2  0
  6  5  1  0
  6  7  1  0
  7  8  2  0
  9 10  2  0
 11  9  1  0
 11 12  1  0
 12 13  1  1
 13 14  1  0
 14 15  2  0
 16 15  1  0
 17 16  1  0
 18 17  2  0
 18 14  1  0
 19 12  1  0
 19 20  2  0
 21 19  1  0
 22 21  1  0
 22 26  1  0
 22 23  1  1
 24 23  1  0
 24 28  1  0
 25 24  2  0
 26 29  1  0
 27 26  2  0
M  END
$$$$
