HHD.pdb
     RDKit          3D

 29 30  0  0  1  0  0  0  0  0999 V2000
   27.8134   -7.8179  -19.1843 N   0  0  0  0  0  0  0  0  0  0  0  0
   26.7502   -7.0598  -19.8296 C   0  0  1  0  0  0  0  0  0  0  0  0
   26.7321   -7.4515  -21.2890 C   0  0  0  0  0  0  0  0  0  0  0  0
   27.6867   -6.5607  -22.0002 C   0  0  0  0  0  0  0  0  0  0  0  0
   28.9314   -6.9163  -22.5328 C   0  0  0  0  0  0  0  0  0  0  0  0
   29.4974   -5.8437  -23.0962 N   0  0  0  0  0  0  0  0  0  0  0  0
   28.6504   -4.8209  -22.9371 C   0  0  0  0  0  0  0  0  0  0  0  0
   27.5624   -5.2504  -22.2789 N   0  0  0  0  0  0  0  0  0  0  0  0
   25.4657   -7.3477  -19.1568 C   0  0  0  0  0  0  0  0  0  0  0  0
   24.4085   -6.8484  -19.6703 O   0  0  0  0  0  0  0  0  0  0  0  0
   25.3914   -8.1434  -17.9885 N   0  0  0  0  0  0  0  0  0  0  0  0
   24.1293   -8.4348  -17.3837 C   0  0  1  0  0  0  0  0  0  0  0  0
   24.1190   -9.6270  -16.4685 C   0  0  0  0  0  0  0  0  0  0  0  0
   22.8171   -9.9428  -15.8633 C   0  0  0  0  0  0  0  0  0  0  0  0
   22.4307   -9.5361  -14.6129 C   0  0  0  0  0  0  0  0  0  0  0  0
   21.1929  -10.0096  -14.4080 N   0  0  0  0  0  0  0  0  0  0  0  0
   20.8257  -10.6895  -15.5013 C   0  0  0  0  0  0  0  0  0  0  0  0
   21.8220  -10.6482  -16.3932 N   0  0  0  0  0  0  0  0  0  0  0  0
   23.5464   -7.2781  -16.6680 C   0  0  0  0  0  0  0  0  0  0  0  0
   24.2771   -6.6367  -15.8735 O   0  0  0  0  0  0  0  0  0  0  0  0
   22.2060   -6.8541  -16.8249 N   0  0  0  0  0  0  0  0  0  0  0  0
   21.5914   -5.7306  -16.1439 C   0  0  1  0  0  0  0  0  0  0  0  0
   21.2328   -4.6020  -17.0529 C   0  0  0  0  0  0  0  0  0  0  0  0
   20.1191   -4.8479  -17.9655 C   0  0  0  0  0  0  0  0  0  0  0  0
   20.0612   -5.7813  -18.7980 O   0  0  0  0  0  0  0  0  0  0  0  0
   20.3285   -6.2287  -15.5394 C   0  0  0  0  0  0  0  0  0  0  0  0
   19.8850   -7.3332  -15.8987 O   0  0  0  0  0  0  0  0  0  0  0  0
   19.0255   -3.9888  -17.9229 O   0  0  0  0  0  0  0  0  0  0  0  0
   19.6646   -5.4858  -14.6037 O   0  0  0  0  0  0  0  0  0  0  0  0
  2  1  1  1
  2  9  1  0
  3  2  1  0
  4  8  1  0
  4  3  1  0
  5  4  2  0
  6  5  1  0
  6  7  1  0
  7  8  2  0
  9 10  2  0
 11  9  1  0
 11 12  1  0
 12 13  1  1
 13 14  1  0
 14 15  2  0
 16 15  1  0
 17 16  1  0
 18 17  2  0
 18 14  1  0
 19 12  1  0
 19 20  2  0
 21 19  1  0
 22 21  1  0
 22 26  1  0
 22 23  1  6
 24 23  1  0
 24 28  1  0
 25 24  2  0
 26 29  1  0
 27 26  2  0
M  END
$$$$
