HHD.pdb
     RDKit          3D

 29 30  0  0  1  0  0  0  0  0999 V2000
   16.1190  -15.6051    4.2838 N   0  0  0  0  0  0  0  0  0  0  0  0
   17.3920  -16.0467    4.8370 C   0  0  1  0  0  0  0  0  0  0  0  0
   17.7353  -15.1244    5.9838 C   0  0  0  0  0  0  0  0  0  0  0  0
   18.3845  -13.9184    5.4053 C   0  0  0  0  0  0  0  0  0  0  0  0
   18.4934  -13.5911    4.0487 C   0  0  0  0  0  0  0  0  0  0  0  0
   19.1430  -12.4291    3.9218 N   0  0  0  0  0  0  0  0  0  0  0  0
   19.4486  -12.0110    5.1550 C   0  0  0  0  0  0  0  0  0  0  0  0
   18.9934  -12.9047    6.0469 N   0  0  0  0  0  0  0  0  0  0  0  0
   17.2763  -17.4563    5.2676 C   0  0  0  0  0  0  0  0  0  0  0  0
   17.3327  -17.6943    6.5209 O   0  0  0  0  0  0  0  0  0  0  0  0
   17.1091  -18.5134    4.3413 N   0  0  0  0  0  0  0  0  0  0  0  0
   17.1323  -19.8748    4.7764 C   0  0  1  0  0  0  0  0  0  0  0  0
   16.8879  -20.8945    3.6996 C   0  0  0  0  0  0  0  0  0  0  0  0
   15.6220  -20.7439    2.9677 C   0  0  0  0  0  0  0  0  0  0  0  0
   14.6526  -19.8292    3.2868 C   0  0  0  0  0  0  0  0  0  0  0  0
   13.6545  -19.9871    2.4053 N   0  0  0  0  0  0  0  0  0  0  0  0
   13.9982  -20.9715    1.5656 C   0  0  0  0  0  0  0  0  0  0  0  0
   15.2047  -21.4352    1.9109 N   0  0  0  0  0  0  0  0  0  0  0  0
   18.3721  -20.2329    5.5009 C   0  0  0  0  0  0  0  0  0  0  0  0
   19.4198  -19.5890    5.2470 O   0  0  0  0  0  0  0  0  0  0  0  0
   18.4462  -21.2662    6.4640 N   0  0  0  0  0  0  0  0  0  0  0  0
   19.5675  -21.5152    7.3496 C   0  0  1  0  0  0  0  0  0  0  0  0
   19.9829  -20.3197    8.1414 C   0  0  0  0  0  0  0  0  0  0  0  0
   21.0021  -20.5535    9.1612 C   0  0  0  0  0  0  0  0  0  0  0  0
   21.2755  -19.7719   10.1003 O   0  0  0  0  0  0  0  0  0  0  0  0
   19.1326  -22.5559    8.3171 C   0  0  0  0  0  0  0  0  0  0  0  0
   19.9681  -23.0284    9.1074 O   0  0  0  0  0  0  0  0  0  0  0  0
   21.7394  -21.7320    9.1032 O   0  0  0  0  0  0  0  0  0  0  0  0
   17.8359  -22.9874    8.3390 O   0  0  0  0  0  0  0  0  0  0  0  0
  2  1  1  1
  2  9  1  0
  3  2  1  0
  4  8  1  0
  4  3  1  0
  5  4  2  0
  6  5  1  0
  6  7  1  0
  7  8  2  0
  9 10  2  0
 11  9  1  0
 11 12  1  0
 12 13  1  6
 13 14  1  0
 14 15  2  0
 16 15  1  0
 17 16  1  0
 18 17  2  0
 18 14  1  0
 19 12  1  0
 19 20  2  0
 21 19  1  0
 22 21  1  0
 22 26  1  0
 22 23  1  1
 24 23  1  0
 24 28  1  0
 25 24  2  0
 26 29  1  0
 27 26  2  0
M  END
$$$$
