HHD.pdb
     RDKit          3D

 29 30  0  0  1  0  0  0  0  0999 V2000
   25.9536  -23.0353  -15.0965 N   0  0  0  0  0  0  0  0  0  0  0  0
   24.6087  -23.2296  -15.6209 C   0  0  1  0  0  0  0  0  0  0  0  0
   24.2371  -24.6773  -15.3977 C   0  0  0  0  0  0  0  0  0  0  0  0
   25.1068  -25.5005  -16.2789 C   0  0  0  0  0  0  0  0  0  0  0  0
   24.9478  -25.7165  -17.6527 C   0  0  0  0  0  0  0  0  0  0  0  0
   25.9275  -26.5122  -18.0946 N   0  0  0  0  0  0  0  0  0  0  0  0
   26.7012  -26.8064  -17.0440 C   0  0  0  0  0  0  0  0  0  0  0  0
   26.2092  -26.1992  -15.9529 N   0  0  0  0  0  0  0  0  0  0  0  0
   23.6794  -22.3020  -14.9415 C   0  0  0  0  0  0  0  0  0  0  0  0
   23.8236  -22.1428  -13.6828 O   0  0  0  0  0  0  0  0  0  0  0  0
   22.6637  -21.6089  -15.6426 N   0  0  0  0  0  0  0  0  0  0  0  0
   21.8164  -20.6771  -14.9664 C   0  0  1  0  0  0  0  0  0  0  0  0
   21.9116  -19.2576  -15.4514 C   0  0  0  0  0  0  0  0  0  0  0  0
   21.0489  -18.2955  -14.7509 C   0  0  0  0  0  0  0  0  0  0  0  0
   20.2361  -18.6170  -13.6953 C   0  0  0  0  0  0  0  0  0  0  0  0
   19.6084  -17.4920  -13.3226 N   0  0  0  0  0  0  0  0  0  0  0  0
   20.0223  -16.5040  -14.1256 C   0  0  0  0  0  0  0  0  0  0  0  0
   20.9054  -16.9972  -15.0012 N   0  0  0  0  0  0  0  0  0  0  0  0
   20.3938  -21.0847  -14.9578 C   0  0  0  0  0  0  0  0  0  0  0  0
   19.8459  -21.3655  -16.0521 O   0  0  0  0  0  0  0  0  0  0  0  0
   19.6110  -21.1723  -13.7829 N   0  0  0  0  0  0  0  0  0  0  0  0
   18.2286  -21.6067  -13.7207 C   0  0  1  0  0  0  0  0  0  0  0  0
   17.9665  -22.6217  -12.6578 C   0  0  0  0  0  0  0  0  0  0  0  0
   18.2482  -24.0089  -13.0178 C   0  0  0  0  0  0  0  0  0  0  0  0
   18.5776  -24.4054  -14.1589 O   0  0  0  0  0  0  0  0  0  0  0  0
   17.4119  -20.4081  -13.3973 C   0  0  0  0  0  0  0  0  0  0  0  0
   16.1727  -20.4923  -13.4533 O   0  0  0  0  0  0  0  0  0  0  0  0
   18.1487  -24.9833  -12.0297 O   0  0  0  0  0  0  0  0  0  0  0  0
   18.0118  -19.2319  -13.0441 O   0  0  0  0  0  0  0  0  0  0  0  0
  2  1  1  1
  2  9  1  0
  3  2  1  0
  4  8  1  0
  4  3  1  0
  5  4  2  0
  6  5  1  0
  6  7  1  0
  7  8  2  0
  9 10  2  0
 11  9  1  0
 11 12  1  0
 12 13  1  6
 13 14  1  0
 14 15  2  0
 16 15  1  0
 17 16  1  0
 18 17  2  0
 18 14  1  0
 19 12  1  0
 19 20  2  0
 21 19  1  0
 22 21  1  0
 22 26  1  0
 22 23  1  1
 24 23  1  0
 24 28  1  0
 25 24  2  0
 26 29  1  0
 27 26  2  0
M  END
$$$$
