CAC.pdb
     RDKit          3D

 18 17  0  0  1  0  0  0  0  0999 V2000
   17.7014  -12.7099  -16.9550 N   0  0  0  0  0  0  0  0  0  0  0  0
   17.5271  -11.7547  -15.9071 C   0  0  1  0  0  0  0  0  0  0  0  0
   18.2627  -12.2963  -14.6785 C   0  0  0  0  0  0  0  0  0  0  0  0
   17.2944  -13.5999  -13.8724 S   0  0  0  0  0  0  0  0  0  0  0  0
   18.0163  -10.4145  -16.2897 C   0  0  0  0  0  0  0  0  0  0  0  0
   19.0693  -10.2359  -16.9159 O   0  0  0  0  0  0  0  0  0  0  0  0
   16.4024   -7.0360  -16.4233 C   0  0  0  0  0  0  0  0  0  0  0  0
   17.6079   -7.9339  -16.2427 C   0  0  2  0  0  0  0  0  0  0  0  0
   17.2413   -9.2789  -15.9213 N   0  0  0  0  0  0  0  0  0  0  0  0
   18.5448   -7.3954  -15.2362 C   0  0  0  0  0  0  0  0  0  0  0  0
   18.6958   -8.0055  -14.1548 O   0  0  0  0  0  0  0  0  0  0  0  0
   19.2482   -6.1993  -15.5252 N   0  0  0  0  0  0  0  0  0  0  0  0
   20.2205   -5.7109  -14.5823 C   0  0  1  0  0  0  0  0  0  0  0  0
   21.3785   -6.6913  -14.5062 C   0  0  0  0  0  0  0  0  0  0  0  0
   22.6561   -6.0712  -13.3852 S   0  0  0  0  0  0  0  0  0  0  0  0
   20.6776   -4.3549  -14.9436 C   0  0  0  0  0  0  0  0  0  0  0  0
   20.9311   -4.1033  -16.1473 O   0  0  0  0  0  0  0  0  0  0  0  0
   20.8370   -3.3565  -14.0160 O   0  0  0  0  0  0  0  0  0  0  0  0
  2  1  1  6
  2  3  1  0
  4  3  1  0
  5  2  1  0
  6  5  2  0
  8  7  1  1
  8  9  1  0
  9  5  1  0
 10  8  1  0
 10 12  1  0
 11 10  2  0
 13 14  1  6
 13 12  1  0
 13 16  1  0
 14 15  1  0
 16 18  1  0
 17 16  2  0
M  END
$$$$
