CAC.pdb
     RDKit          3D

 18 17  0  0  1  0  0  0  0  0999 V2000
   15.7142  -12.8201  -11.6726 N   0  0  0  0  0  0  0  0  0  0  0  0
   15.4960  -11.4972  -12.1657 C   0  0  1  0  0  0  0  0  0  0  0  0
   13.9899  -11.3459  -12.3951 C   0  0  0  0  0  0  0  0  0  0  0  0
   13.4285  -12.4445  -13.7236 S   0  0  0  0  0  0  0  0  0  0  0  0
   16.0138  -10.4673  -11.2421 C   0  0  0  0  0  0  0  0  0  0  0  0
   15.8187  -10.4999  -10.0200 O   0  0  0  0  0  0  0  0  0  0  0  0
   18.2729   -7.4591  -11.7512 C   0  0  0  0  0  0  0  0  0  0  0  0
   17.2589   -8.2961  -11.0009 C   0  0  2  0  0  0  0  0  0  0  0  0
   16.7707   -9.3900  -11.7830 N   0  0  0  0  0  0  0  0  0  0  0  0
   16.1388   -7.4762  -10.4969 C   0  0  0  0  0  0  0  0  0  0  0  0
   15.1262   -7.3193  -11.2142 O   0  0  0  0  0  0  0  0  0  0  0  0
   16.2435   -6.8889   -9.2111 N   0  0  0  0  0  0  0  0  0  0  0  0
   15.1388   -6.1216   -8.6974 C   0  0  1  0  0  0  0  0  0  0  0  0
   15.0864   -6.2718   -7.1865 C   0  0  0  0  0  0  0  0  0  0  0  0
   13.7518   -5.2619   -6.4991 S   0  0  0  0  0  0  0  0  0  0  0  0
   15.2411   -4.7057   -9.1009 C   0  0  0  0  0  0  0  0  0  0  0  0
   16.3704   -4.1569   -9.0990 O   0  0  0  0  0  0  0  0  0  0  0  0
   14.1506   -3.9636   -9.4786 O   0  0  0  0  0  0  0  0  0  0  0  0
  2  1  1  1
  2  3  1  0
  4  3  1  0
  5  2  1  0
  6  5  2  0
  8  7  1  6
  8  9  1  0
  9  5  1  0
 10  8  1  0
 10 12  1  0
 11 10  2  0
 13 14  1  1
 13 12  1  0
 13 16  1  0
 14 15  1  0
 16 18  1  0
 17 16  2  0
M  END
$$$$
