CAC.pdb
     RDKit          3D

 18 17  0  0  1  0  0  0  0  0999 V2000
   22.4161  -13.2184  -17.5514 N   0  0  0  0  0  0  0  0  0  0  0  0
   21.7366  -12.4684  -16.5432 C   0  0  1  0  0  0  0  0  0  0  0  0
   22.3534  -12.8615  -15.1983 C   0  0  0  0  0  0  0  0  0  0  0  0
   21.8552  -14.5402  -14.7288 S   0  0  0  0  0  0  0  0  0  0  0  0
   21.8241  -11.0129  -16.7795 C   0  0  0  0  0  0  0  0  0  0  0  0
   22.8694  -10.4496  -17.1301 O   0  0  0  0  0  0  0  0  0  0  0  0
   19.1371   -8.3988  -17.1904 C   0  0  0  0  0  0  0  0  0  0  0  0
   20.5657   -8.8435  -16.9592 C   0  0  2  0  0  0  0  0  0  0  0  0
   20.6537  -10.2242  -16.5953 N   0  0  0  0  0  0  0  0  0  0  0  0
   21.2466   -7.9973  -15.9586 C   0  0  0  0  0  0  0  0  0  0  0  0
   21.2099   -8.3283  -14.7529 O   0  0  0  0  0  0  0  0  0  0  0  0
   21.9242   -6.8310  -16.3943 N   0  0  0  0  0  0  0  0  0  0  0  0
   22.5937   -6.0041  -15.4243 C   0  0  1  0  0  0  0  0  0  0  0  0
   23.8512   -5.4222  -16.0473 C   0  0  0  0  0  0  0  0  0  0  0  0
   25.0322   -6.7387  -16.4289 S   0  0  0  0  0  0  0  0  0  0  0  0
   21.6975   -4.9468  -14.9172 C   0  0  0  0  0  0  0  0  0  0  0  0
   20.7763   -4.5278  -15.6604 O   0  0  0  0  0  0  0  0  0  0  0  0
   21.8304   -4.4024  -13.6648 O   0  0  0  0  0  0  0  0  0  0  0  0
  2  1  1  6
  2  3  1  0
  4  3  1  0
  5  2  1  0
  6  5  2  0
  8  7  1  1
  8  9  1  0
  9  5  1  0
 10  8  1  0
 10 12  1  0
 11 10  2  0
 13 14  1  6
 13 12  1  0
 13 16  1  0
 14 15  1  0
 16 18  1  0
 17 16  2  0
M  END
$$$$
