CAC.pdb
     RDKit          3D

 18 17  0  0  1  0  0  0  0  0999 V2000
   22.0384  -10.7478  -16.9163 N   0  0  0  0  0  0  0  0  0  0  0  0
   22.5038  -10.1688  -15.6960 C   0  0  1  0  0  0  0  0  0  0  0  0
   24.0033   -9.9105  -15.8645 C   0  0  0  0  0  0  0  0  0  0  0  0
   24.9492  -11.4393  -15.6306 S   0  0  0  0  0  0  0  0  0  0  0  0
   21.7718   -8.9325  -15.3529 C   0  0  0  0  0  0  0  0  0  0  0  0
   21.5035   -8.0562  -16.1853 O   0  0  0  0  0  0  0  0  0  0  0  0
   20.0863   -7.7648  -12.1563 C   0  0  0  0  0  0  0  0  0  0  0  0
   20.6414   -7.5882  -13.5537 C   0  0  2  0  0  0  0  0  0  0  0  0
   21.3573   -8.7417  -14.0047 N   0  0  0  0  0  0  0  0  0  0  0  0
   21.4833   -6.3794  -13.6588 C   0  0  0  0  0  0  0  0  0  0  0  0
   22.7279   -6.5021  -13.6763 O   0  0  0  0  0  0  0  0  0  0  0  0
   20.8550   -5.1112  -13.7372 N   0  0  0  0  0  0  0  0  0  0  0  0
   21.6611   -3.9413  -13.9709 C   0  0  1  0  0  0  0  0  0  0  0  0
   22.3513   -4.0716  -15.3181 C   0  0  0  0  0  0  0  0  0  0  0  0
   23.2921   -2.5718  -15.6913 S   0  0  0  0  0  0  0  0  0  0  0  0
   20.8494   -2.7113  -13.8913 C   0  0  0  0  0  0  0  0  0  0  0  0
   19.6652   -2.7407  -14.3078 O   0  0  0  0  0  0  0  0  0  0  0  0
   21.3370   -1.5353  -13.3797 O   0  0  0  0  0  0  0  0  0  0  0  0
  2  1  1  6
  2  3  1  0
  4  3  1  0
  5  2  1  0
  6  5  2  0
  8  7  1  1
  8  9  1  0
  9  5  1  0
 10  8  1  0
 10 12  1  0
 11 10  2  0
 13 14  1  6
 13 12  1  0
 13 16  1  0
 14 15  1  0
 16 18  1  0
 17 16  2  0
M  END
$$$$
