CAC.pdb
     RDKit          3D

 18 17  0  0  1  0  0  0  0  0999 V2000
   17.9436  -11.7033  -15.4168 N   0  0  0  0  0  0  0  0  0  0  0  0
   17.8192  -10.5258  -16.2161 C   0  0  1  0  0  0  0  0  0  0  0  0
   16.4945   -9.8607  -15.8333 C   0  0  0  0  0  0  0  0  0  0  0  0
   15.0886  -10.8550  -16.4005 S   0  0  0  0  0  0  0  0  0  0  0  0
   18.9629   -9.6085  -16.0360 C   0  0  0  0  0  0  0  0  0  0  0  0
   19.5020   -9.4122  -14.9389 O   0  0  0  0  0  0  0  0  0  0  0  0
   21.1495   -7.7946  -18.5490 C   0  0  0  0  0  0  0  0  0  0  0  0
   20.6545   -8.1235  -17.1567 C   0  0  2  0  0  0  0  0  0  0  0  0
   19.4664   -8.9203  -17.1756 N   0  0  0  0  0  0  0  0  0  0  0  0
   20.4511   -6.9054  -16.3467 C   0  0  0  0  0  0  0  0  0  0  0  0
   19.3451   -6.3227  -16.3880 O   0  0  0  0  0  0  0  0  0  0  0  0
   21.5179   -6.4303  -15.5436 N   0  0  0  0  0  0  0  0  0  0  0  0
   21.3641   -5.1858  -14.8360 C   0  0  1  0  0  0  0  0  0  0  0  0
   20.7570   -5.4596  -13.4706 C   0  0  0  0  0  0  0  0  0  0  0  0
   21.7843   -6.6284  -12.5474 S   0  0  0  0  0  0  0  0  0  0  0  0
   22.6520   -4.4733  -14.7267 C   0  0  0  0  0  0  0  0  0  0  0  0
   22.6775   -3.3553  -14.1557 O   0  0  0  0  0  0  0  0  0  0  0  0
   23.8242   -4.9837  -15.2245 O   0  0  0  0  0  0  0  0  0  0  0  0
  2  1  1  1
  2  3  1  0
  4  3  1  0
  5  2  1  0
  6  5  2  0
  8  7  1  6
  8  9  1  0
  9  5  1  0
 10  8  1  0
 10 12  1  0
 11 10  2  0
 13 14  1  1
 13 12  1  0
 13 16  1  0
 14 15  1  0
 16 18  1  0
 17 16  2  0
M  END
$$$$
