CAC.pdb
     RDKit          3D

 18 17  0  0  1  0  0  0  0  0999 V2000
   21.7140  -12.3259  -18.6010 N   0  0  0  0  0  0  0  0  0  0  0  0
   20.5322  -11.6288  -18.2034 C   0  0  1  0  0  0  0  0  0  0  0  0
   19.9667  -12.3621  -16.9842 C   0  0  0  0  0  0  0  0  0  0  0  0
   19.4528  -14.0434  -17.4267 S   0  0  0  0  0  0  0  0  0  0  0  0
   20.7985  -10.2059  -17.9097 C   0  0  0  0  0  0  0  0  0  0  0  0
   21.7730   -9.8264  -17.2470 O   0  0  0  0  0  0  0  0  0  0  0  0
   19.2620   -7.0282  -19.2748 C   0  0  0  0  0  0  0  0  0  0  0  0
   20.1126   -7.8191  -18.3039 C   0  0  2  0  0  0  0  0  0  0  0  0
   19.8936   -9.2287  -18.4118 N   0  0  0  0  0  0  0  0  0  0  0  0
   19.9167   -7.3673  -16.9116 C   0  0  0  0  0  0  0  0  0  0  0  0
   18.9945   -7.8685  -16.2313 O   0  0  0  0  0  0  0  0  0  0  0  0
   20.7818   -6.3758  -16.3846 N   0  0  0  0  0  0  0  0  0  0  0  0
   20.6317   -5.9708  -15.0111 C   0  0  1  0  0  0  0  0  0  0  0  0
   21.9910   -5.9914  -14.3331 C   0  0  0  0  0  0  0  0  0  0  0  0
   22.5105   -7.6951  -14.0151 S   0  0  0  0  0  0  0  0  0  0  0  0
   19.9947   -4.6430  -14.9145 C   0  0  0  0  0  0  0  0  0  0  0  0
   20.1879   -3.8117  -15.8354 O   0  0  0  0  0  0  0  0  0  0  0  0
   19.1987   -4.2797  -13.8577 O   0  0  0  0  0  0  0  0  0  0  0  0
  2  1  1  1
  2  3  1  0
  4  3  1  0
  5  2  1  0
  6  5  2  0
  8  7  1  6
  8  9  1  0
  9  5  1  0
 10  8  1  0
 10 12  1  0
 11 10  2  0
 13 14  1  6
 13 12  1  0
 13 16  1  0
 14 15  1  0
 16 18  1  0
 17 16  2  0
M  END
$$$$
