CAC.pdb
     RDKit          3D

 18 17  0  0  1  0  0  0  0  0999 V2000
   19.9529  -12.2749  -18.6734 N   0  0  0  0  0  0  0  0  0  0  0  0
   20.0933  -11.8558  -17.3149 C   0  0  1  0  0  0  0  0  0  0  0  0
   21.2927  -12.6095  -16.7340 C   0  0  0  0  0  0  0  0  0  0  0  0
   20.8421  -14.3173  -16.3255 S   0  0  0  0  0  0  0  0  0  0  0  0
   20.2596  -10.3927  -17.1990 C   0  0  0  0  0  0  0  0  0  0  0  0
   21.1168   -9.7606  -17.8303 O   0  0  0  0  0  0  0  0  0  0  0  0
   18.0886   -7.7419  -15.5961 C   0  0  0  0  0  0  0  0  0  0  0  0
   19.3655   -8.2518  -16.2297 C   0  0  2  0  0  0  0  0  0  0  0  0
   19.3950   -9.6791  -16.3221 N   0  0  0  0  0  0  0  0  0  0  0  0
   20.5632   -7.7512  -15.5253 C   0  0  0  0  0  0  0  0  0  0  0  0
   21.0306   -8.4114  -14.5713 O   0  0  0  0  0  0  0  0  0  0  0  0
   21.1503   -6.5337  -15.9517 N   0  0  0  0  0  0  0  0  0  0  0  0
   22.3516   -6.0698  -15.3077 C   0  0  1  0  0  0  0  0  0  0  0  0
   23.3484   -5.6311  -16.3669 C   0  0  0  0  0  0  0  0  0  0  0  0
   24.8013   -4.8810  -15.5922 S   0  0  0  0  0  0  0  0  0  0  0  0
   22.0579   -4.9835  -14.3528 C   0  0  0  0  0  0  0  0  0  0  0  0
   21.1889   -4.1298  -14.6572 O   0  0  0  0  0  0  0  0  0  0  0  0
   22.6968   -4.8685  -13.1440 O   0  0  0  0  0  0  0  0  0  0  0  0
  2  1  1  6
  2  3  1  0
  4  3  1  0
  5  2  1  0
  6  5  2  0
  8  7  1  1
  8  9  1  0
  9  5  1  0
 10  8  1  0
 10 12  1  0
 11 10  2  0
 13 14  1  6
 13 12  1  0
 13 16  1  0
 14 15  1  0
 16 18  1  0
 17 16  2  0
M  END
$$$$
