CAC.pdb
     RDKit          3D

 18 17  0  0  1  0  0  0  0  0999 V2000
   14.5104  -14.2581  -11.1754 N   0  0  0  0  0  0  0  0  0  0  0  0
   13.9376  -13.0699  -11.7239 C   0  0  1  0  0  0  0  0  0  0  0  0
   12.6250  -12.8177  -10.9772 C   0  0  0  0  0  0  0  0  0  0  0  0
   11.5046  -14.2323  -11.1511 S   0  0  0  0  0  0  0  0  0  0  0  0
   14.8528  -11.9147  -11.6247 C   0  0  0  0  0  0  0  0  0  0  0  0
   15.5712  -11.7080  -10.6378 O   0  0  0  0  0  0  0  0  0  0  0  0
   15.9860   -9.3505  -14.1657 C   0  0  0  0  0  0  0  0  0  0  0  0
   15.8027   -9.8823  -12.7602 C   0  0  2  0  0  0  0  0  0  0  0  0
   14.9102  -10.9993  -12.7131 N   0  0  0  0  0  0  0  0  0  0  0  0
   15.3617   -8.8245  -11.8287 C   0  0  0  0  0  0  0  0  0  0  0  0
   14.1412   -8.5703  -11.7274 O   0  0  0  0  0  0  0  0  0  0  0  0
   16.3370   -8.1257  -11.0739 N   0  0  0  0  0  0  0  0  0  0  0  0
   15.9195   -7.0536  -10.2082 C   0  0  1  0  0  0  0  0  0  0  0  0
   16.3026   -7.3897   -8.7770 C   0  0  0  0  0  0  0  0  0  0  0  0
   15.9664   -5.9841   -7.6884 S   0  0  0  0  0  0  0  0  0  0  0  0
   16.4980   -5.7660  -10.6390 C   0  0  0  0  0  0  0  0  0  0  0  0
   15.9057   -4.7034  -10.3283 O   0  0  0  0  0  0  0  0  0  0  0  0
   17.6585   -5.6830  -11.3662 O   0  0  0  0  0  0  0  0  0  0  0  0
  2  1  1  1
  2  3  1  0
  4  3  1  0
  5  2  1  0
  6  5  2  0
  8  7  1  6
  8  9  1  0
  9  5  1  0
 10  8  1  0
 10 12  1  0
 11 10  2  0
 13 14  1  1
 13 12  1  0
 13 16  1  0
 14 15  1  0
 16 18  1  0
 17 16  2  0
M  END
$$$$
