CAC.pdb
     RDKit          3D

 18 17  0  0  1  0  0  0  0  0999 V2000
   18.4006  -15.4627  -15.6084 N   0  0  0  0  0  0  0  0  0  0  0  0
   17.8193  -14.2836  -16.1676 C   0  0  1  0  0  0  0  0  0  0  0  0
   16.3256  -14.5633  -16.3524 C   0  0  0  0  0  0  0  0  0  0  0  0
   16.0595  -15.8078  -17.6435 S   0  0  0  0  0  0  0  0  0  0  0  0
   18.0518  -13.0948  -15.3222 C   0  0  0  0  0  0  0  0  0  0  0  0
   17.9807  -13.1233  -14.0865 O   0  0  0  0  0  0  0  0  0  0  0  0
   19.2579   -9.5886  -16.1346 C   0  0  0  0  0  0  0  0  0  0  0  0
   18.6554  -10.6551  -15.2450 C   0  0  2  0  0  0  0  0  0  0  0  0
   18.3719  -11.8623  -15.9582 N   0  0  0  0  0  0  0  0  0  0  0  0
   17.4485  -10.1674  -14.5473 C   0  0  0  0  0  0  0  0  0  0  0  0
   16.3248  -10.3689  -15.0583 O   0  0  0  0  0  0  0  0  0  0  0  0
   17.5986   -9.4831  -13.3151 N   0  0  0  0  0  0  0  0  0  0  0  0
   16.4322   -8.9484  -12.6621 C   0  0  1  0  0  0  0  0  0  0  0  0
   16.5029   -9.2629  -11.1775 C   0  0  0  0  0  0  0  0  0  0  0  0
   16.3902  -11.0482  -10.9058 S   0  0  0  0  0  0  0  0  0  0  0  0
   16.3033   -7.4986  -12.9063 C   0  0  0  0  0  0  0  0  0  0  0  0
   17.2677   -6.8853  -13.4263 O   0  0  0  0  0  0  0  0  0  0  0  0
   15.1707   -6.7927  -12.5877 O   0  0  0  0  0  0  0  0  0  0  0  0
  2  1  1  1
  2  3  1  0
  4  3  1  0
  5  2  1  0
  6  5  2  0
  8  7  1  6
  8  9  1  0
  9  5  1  0
 10  8  1  0
 10 12  1  0
 11 10  2  0
 13 14  1  1
 13 12  1  0
 13 16  1  0
 14 15  1  0
 16 18  1  0
 17 16  2  0
M  END
$$$$
