PCY.pdb
     RDKit          3D

 26 27  0  0  1  0  0  0  0  0999 V2000
    6.8817  -14.9704   20.6441 N   0  0  0  0  0  0  0  0  0  0  0  0
    6.5326  -14.4982   19.3356 C   0  0  0  0  0  0  0  0  0  0  0  0
    7.7178  -13.7440   18.7888 C   0  0  0  0  0  0  0  0  0  0  0  0
    8.4741  -13.3850   20.0671 C   0  0  0  0  0  0  0  0  0  0  0  0
    8.2468  -14.6282   20.8973 C   0  0  1  0  0  0  0  0  0  0  0  0
    8.4621  -14.2629   22.3429 C   0  0  0  0  0  0  0  0  0  0  0  0
    9.6399  -14.1456   22.7684 O   0  0  0  0  0  0  0  0  0  0  0  0
    7.3866  -14.0497   23.2288 N   0  0  0  0  0  0  0  0  0  0  0  0
    7.6239  -13.6232   24.5761 C   0  0  1  0  0  0  0  0  0  0  0  0
    6.6339  -12.5782   25.0389 C   0  0  0  0  0  0  0  0  0  0  0  0
    6.0662  -12.8312   26.7166 S   0  0  0  0  0  0  0  0  0  0  0  0
    7.5978  -14.7813   25.5144 C   0  0  0  0  0  0  0  0  0  0  0  0
    6.5566  -15.4358   25.6400 O   0  0  0  0  0  0  0  0  0  0  0  0
    9.3791  -22.1986   29.3943 O   0  0  0  0  0  0  0  0  0  0  0  0
    9.2041  -21.0605   28.6215 C   0  0  0  0  0  0  0  0  0  0  0  0
   10.2502  -20.5321   27.8872 C   0  0  0  0  0  0  0  0  0  0  0  0
   10.1320  -19.4077   27.1055 C   0  0  0  0  0  0  0  0  0  0  0  0
    8.9017  -18.7556   27.0390 C   0  0  0  0  0  0  0  0  0  0  0  0
    8.7934  -17.5389   26.2216 C   0  0  0  0  0  0  0  0  0  0  0  0
    8.8536  -16.3051   27.0538 C   0  0  2  0  0  0  0  0  0  0  0  0
    8.7538  -15.1028   26.2335 N   0  0  0  0  0  0  0  0  0  0  0  0
   10.0482  -16.2511   27.9205 C   0  0  0  0  0  0  0  0  0  0  0  0
   11.0436  -15.5803   27.5159 O   0  0  0  0  0  0  0  0  0  0  0  0
    7.8473  -19.2835   27.7757 C   0  0  0  0  0  0  0  0  0  0  0  0
    7.9779  -20.4099   28.5548 C   0  0  0  0  0  0  0  0  0  0  0  0
   10.0814  -16.9131   29.1447 O   0  0  0  0  0  0  0  0  0  0  0  0
  1  2  1  0
  3  2  1  0
  4  3  1  0
  4  5  1  0
  5  6  1  1
  5  1  1  0
  6  7  2  0
  8  6  1  0
  8  9  1  0
  9 10  1  1
 11 10  1  0
 12 21  1  0
 12  9  1  0
 13 12  2  0
 15 14  1  0
 16 15  2  0
 17 16  1  0
 18 24  1  0
 18 17  2  0
 19 18  1  0
 20 21  1  0
 20 19  1  6
 22 26  1  0
 22 20  1  0
 23 22  2  0
 24 25  2  0
 25 15  1  0
M  END
$$$$
