PCY.pdb
     RDKit          3D

 26 27  0  0  1  0  0  0  0  0999 V2000
    9.0096  -18.9487   20.5361 N   0  0  0  0  0  0  0  0  0  0  0  0
    8.6685  -19.7878   19.4241 C   0  0  0  0  0  0  0  0  0  0  0  0
    9.5364  -19.3821   18.2602 C   0  0  0  0  0  0  0  0  0  0  0  0
    9.9400  -17.9620   18.6539 C   0  0  0  0  0  0  0  0  0  0  0  0
   10.1020  -18.1108   20.1498 C   0  0  1  0  0  0  0  0  0  0  0  0
    9.9867  -16.7402   20.7646 C   0  0  0  0  0  0  0  0  0  0  0  0
   10.9086  -15.9081   20.5655 O   0  0  0  0  0  0  0  0  0  0  0  0
    8.8802  -16.3648   21.5532 N   0  0  0  0  0  0  0  0  0  0  0  0
    8.7569  -15.0256   22.0479 C   0  0  1  0  0  0  0  0  0  0  0  0
    7.3789  -14.4459   21.8211 C   0  0  0  0  0  0  0  0  0  0  0  0
    6.0575  -15.6082   22.1434 S   0  0  0  0  0  0  0  0  0  0  0  0
    9.0898  -14.9605   23.4995 C   0  0  0  0  0  0  0  0  0  0  0  0
    8.8895  -13.9105   24.1204 O   0  0  0  0  0  0  0  0  0  0  0  0
    6.2487  -11.1232   27.1527 O   0  0  0  0  0  0  0  0  0  0  0  0
    6.7072  -12.4070   26.8981 C   0  0  0  0  0  0  0  0  0  0  0  0
    8.0300  -12.7460   27.1175 C   0  0  0  0  0  0  0  0  0  0  0  0
    8.5367  -14.0018   26.8823 C   0  0  0  0  0  0  0  0  0  0  0  0
    7.6869  -14.9951   26.3981 C   0  0  0  0  0  0  0  0  0  0  0  0
    8.2451  -16.3269   26.1245 C   0  0  0  0  0  0  0  0  0  0  0  0
    9.6287  -16.2465   25.5791 C   0  0  2  0  0  0  0  0  0  0  0  0
    9.6223  -16.0909   24.1285 N   0  0  0  0  0  0  0  0  0  0  0  0
   10.4746  -17.3888   25.9803 C   0  0  0  0  0  0  0  0  0  0  0  0
   10.7705  -18.2460   25.0960 O   0  0  0  0  0  0  0  0  0  0  0  0
    6.3562  -14.6585   26.1761 C   0  0  0  0  0  0  0  0  0  0  0  0
    5.8605  -13.3976   26.4153 C   0  0  0  0  0  0  0  0  0  0  0  0
   10.9357  -17.5205   27.2872 O   0  0  0  0  0  0  0  0  0  0  0  0
  1  2  1  0
  3  2  1  0
  4  3  1  0
  4  5  1  0
  5  6  1  1
  5  1  1  0
  6  7  2  0
  8  6  1  0
  8  9  1  0
  9 10  1  1
 11 10  1  0
 12 21  1  0
 12  9  1  0
 13 12  2  0
 15 14  1  0
 16 15  2  0
 17 16  1  0
 18 24  1  0
 18 17  2  0
 19 18  1  0
 20 21  1  0
 20 19  1  6
 22 26  1  0
 22 20  1  0
 23 22  2  0
 24 25  2  0
 25 15  1  0
M  END
$$$$
