PCY.pdb
     RDKit          3D

 26 27  0  0  1  0  0  0  0  0999 V2000
    8.1443  -15.0163   18.1667 N   0  0  0  0  0  0  0  0  0  0  0  0
    7.8245  -14.2312   17.0099 C   0  0  0  0  0  0  0  0  0  0  0  0
    7.8271  -12.7818   17.4243 C   0  0  0  0  0  0  0  0  0  0  0  0
    7.6228  -12.8902   18.9346 C   0  0  0  0  0  0  0  0  0  0  0  0
    8.4334  -14.1274   19.2488 C   0  0  1  0  0  0  0  0  0  0  0  0
    7.9406  -14.6807   20.5605 C   0  0  0  0  0  0  0  0  0  0  0  0
    8.0035  -13.9545   21.5856 O   0  0  0  0  0  0  0  0  0  0  0  0
    7.4132  -15.9832   20.6720 N   0  0  0  0  0  0  0  0  0  0  0  0
    6.7693  -16.4094   21.8793 C   0  0  1  0  0  0  0  0  0  0  0  0
    6.0789  -17.7463   21.7301 C   0  0  0  0  0  0  0  0  0  0  0  0
    4.8038  -17.7511   20.4750 S   0  0  0  0  0  0  0  0  0  0  0  0
    7.7417  -16.4763   23.0072 C   0  0  0  0  0  0  0  0  0  0  0  0
    8.8903  -16.8802   22.7936 O   0  0  0  0  0  0  0  0  0  0  0  0
   11.1574  -14.9127   31.0093 O   0  0  0  0  0  0  0  0  0  0  0  0
   10.3300  -14.9800   29.8984 C   0  0  0  0  0  0  0  0  0  0  0  0
   10.2661  -13.9345   28.9953 C   0  0  0  0  0  0  0  0  0  0  0  0
    9.4643  -13.9489   27.8790 C   0  0  0  0  0  0  0  0  0  0  0  0
    8.6693  -15.0668   27.6307 C   0  0  0  0  0  0  0  0  0  0  0  0
    7.7955  -15.0604   26.4489 C   0  0  0  0  0  0  0  0  0  0  0  0
    8.2489  -16.0365   25.4193 C   0  0  2  0  0  0  0  0  0  0  0  0
    7.3326  -16.0799   24.2849 N   0  0  0  0  0  0  0  0  0  0  0  0
    8.4715  -17.3904   25.9658 C   0  0  0  0  0  0  0  0  0  0  0  0
    7.4735  -18.1657   26.0520 O   0  0  0  0  0  0  0  0  0  0  0  0
    8.7305  -16.1201   28.5363 C   0  0  0  0  0  0  0  0  0  0  0  0
    9.5372  -16.0942   29.6504 C   0  0  0  0  0  0  0  0  0  0  0  0
    9.7369  -17.8052   26.3717 O   0  0  0  0  0  0  0  0  0  0  0  0
  1  2  1  0
  3  2  1  0
  4  3  1  0
  4  5  1  0
  5  6  1  1
  5  1  1  0
  6  7  2  0
  8  6  1  0
  8  9  1  0
  9 10  1  6
 11 10  1  0
 12 21  1  0
 12  9  1  0
 13 12  2  0
 15 14  1  0
 16 15  2  0
 17 16  1  0
 18 24  1  0
 18 17  2  0
 19 18  1  0
 20 21  1  0
 20 19  1  1
 22 26  1  0
 22 20  1  0
 23 22  2  0
 24 25  2  0
 25 15  1  0
M  END
$$$$
