QPT.pdb
     RDKit          3D

 24 24  0  0  1  0  0  0  0  0999 V2000
   17.5313  -11.6944  -19.9941 N   0  0  0  0  0  0  0  0  0  0  0  0
   18.2463  -12.8822  -19.6992 C   0  0  0  0  0  0  0  0  0  0  0  0
   18.5172  -13.7313  -20.5926 O   0  0  0  0  0  0  0  0  0  0  0  0
   18.6926  -13.1477  -18.3171 C   0  0  0  0  0  0  0  0  0  0  0  0
   18.3543  -11.9723  -17.3968 C   0  0  0  0  0  0  0  0  0  0  0  0
   18.8263  -12.2718  -15.9858 C   0  0  2  0  0  0  0  0  0  0  0  0
   17.9451  -13.2554  -15.4466 N   0  0  0  0  0  0  0  0  0  0  0  0
   18.9174  -11.0568  -15.1790 C   0  0  0  0  0  0  0  0  0  0  0  0
   18.0071  -10.8563  -14.3076 O   0  0  0  0  0  0  0  0  0  0  0  0
   19.9373  -10.0870  -15.2924 N   0  0  0  0  0  0  0  0  0  0  0  0
   21.0071  -10.0470  -16.2344 C   0  0  0  0  0  0  0  0  0  0  0  0
   22.0586   -9.1692  -15.6070 C   0  0  0  0  0  0  0  0  0  0  0  0
   21.5662   -8.8925  -14.1925 C   0  0  0  0  0  0  0  0  0  0  0  0
   20.0747   -8.8843  -14.4517 C   0  0  1  0  0  0  0  0  0  0  0  0
   19.7857   -7.6639  -15.2543 C   0  0  0  0  0  0  0  0  0  0  0  0
   20.0772   -7.5576  -16.4728 O   0  0  0  0  0  0  0  0  0  0  0  0
   16.5800   -4.0012  -15.6162 C   0  0  0  0  0  0  0  0  0  0  0  0
   17.1684   -5.1136  -14.7596 C   0  0  1  0  0  0  0  0  0  0  0  0
   16.2944   -6.1959  -14.6882 O   0  0  0  0  0  0  0  0  0  0  0  0
   18.4314   -5.5947  -15.4448 C   0  0  2  0  0  0  0  0  0  0  0  0
   19.1507   -6.5511  -14.6398 N   0  0  0  0  0  0  0  0  0  0  0  0
   19.2728   -4.3951  -15.7035 C   0  0  0  0  0  0  0  0  0  0  0  0
   20.3734   -4.0777  -14.9234 O   0  0  0  0  0  0  0  0  0  0  0  0
   19.0009   -3.6198  -16.6589 O   0  0  0  0  0  0  0  0  0  0  0  0
  2  1  1  0
  2  3  2  0
  4  2  1  0
  5  4  1  0
  6  7  1  1
  6  5  1  0
  8  6  1  0
  9  8  2  0
 10  8  1  0
 11 10  1  0
 12 11  1  0
 13 12  1  0
 13 14  1  0
 14 10  1  0
 14 15  1  6
 15 21  1  0
 16 15  2  0
 18 17  1  6
 18 19  1  0
 18 20  1  0
 20 21  1  1
 20 22  1  0
 22 23  1  0
 24 22  2  0
M  END
$$$$
