QPT.pdb
     RDKit          3D

 24 24  0  0  1  0  0  0  0  0999 V2000
   26.8793  -12.0026  -21.3097 N   0  0  0  0  0  0  0  0  0  0  0  0
   25.9247  -12.8134  -21.9734 C   0  0  0  0  0  0  0  0  0  0  0  0
   26.2101  -13.4425  -23.0295 O   0  0  0  0  0  0  0  0  0  0  0  0
   24.5580  -12.9356  -21.4286 C   0  0  0  0  0  0  0  0  0  0  0  0
   24.3582  -11.9984  -20.2349 C   0  0  0  0  0  0  0  0  0  0  0  0
   24.6461  -12.7420  -18.9436 C   0  0  2  0  0  0  0  0  0  0  0  0
   23.9979  -14.0094  -19.0336 N   0  0  0  0  0  0  0  0  0  0  0  0
   24.2526  -11.9608  -17.7729 C   0  0  0  0  0  0  0  0  0  0  0  0
   23.1037  -12.1909  -17.2679 O   0  0  0  0  0  0  0  0  0  0  0  0
   25.0487  -10.9691  -17.1593 N   0  0  0  0  0  0  0  0  0  0  0  0
   26.3045  -10.4573  -17.6002 C   0  0  0  0  0  0  0  0  0  0  0  0
   26.9463   -9.8635  -16.3733 C   0  0  0  0  0  0  0  0  0  0  0  0
   26.0410  -10.2531  -15.2120 C   0  0  0  0  0  0  0  0  0  0  0  0
   24.7069  -10.2358  -15.9274 C   0  0  1  0  0  0  0  0  0  0  0  0
   24.4096   -8.8120  -16.2460 C   0  0  0  0  0  0  0  0  0  0  0  0
   24.9883   -8.1778  -17.1646 O   0  0  0  0  0  0  0  0  0  0  0  0
   20.4811   -6.1906  -16.7842 C   0  0  0  0  0  0  0  0  0  0  0  0
   21.2220   -7.4354  -16.3164 C   0  0  1  0  0  0  0  0  0  0  0  0
   21.1937   -8.4240  -17.2974 O   0  0  0  0  0  0  0  0  0  0  0  0
   22.6715   -7.0483  -16.1040 C   0  0  2  0  0  0  0  0  0  0  0  0
   23.4296   -8.1118  -15.4921 N   0  0  0  0  0  0  0  0  0  0  0  0
   22.6788   -5.8388  -15.2374 C   0  0  0  0  0  0  0  0  0  0  0  0
   22.7954   -4.5574  -15.7518 O   0  0  0  0  0  0  0  0  0  0  0  0
   22.5771   -5.9504  -13.9864 O   0  0  0  0  0  0  0  0  0  0  0  0
  2  1  1  0
  2  3  2  0
  4  2  1  0
  5  4  1  0
  6  7  1  6
  6  5  1  0
  8  6  1  0
  9  8  2  0
 10  8  1  0
 11 10  1  0
 12 11  1  0
 13 12  1  0
 13 14  1  0
 14 10  1  0
 14 15  1  6
 15 21  1  0
 16 15  2  0
 18 17  1  6
 18 19  1  0
 18 20  1  0
 20 21  1  1
 20 22  1  0
 22 23  1  0
 24 22  2  0
M  END
$$$$
