QPT.pdb
     RDKit          3D

 24 24  0  0  1  0  0  0  0  0999 V2000
   20.5227  -11.3710  -21.7837 N   0  0  0  0  0  0  0  0  0  0  0  0
   19.5588  -11.0159  -20.8071 C   0  0  0  0  0  0  0  0  0  0  0  0
   18.7349  -10.0795  -20.9995 O   0  0  0  0  0  0  0  0  0  0  0  0
   19.5039  -11.7500  -19.5273 C   0  0  0  0  0  0  0  0  0  0  0  0
   19.8441  -10.8295  -18.3526 C   0  0  0  0  0  0  0  0  0  0  0  0
   19.8074  -11.6164  -17.0554 C   0  0  2  0  0  0  0  0  0  0  0  0
   18.5484  -12.2851  -17.0037 N   0  0  0  0  0  0  0  0  0  0  0  0
   20.0683  -10.7616  -15.8992 C   0  0  0  0  0  0  0  0  0  0  0  0
   19.0689  -10.4029  -15.1918 O   0  0  0  0  0  0  0  0  0  0  0  0
   21.3443  -10.3018  -15.5068 N   0  0  0  0  0  0  0  0  0  0  0  0
   22.5917  -10.5124  -16.1649 C   0  0  0  0  0  0  0  0  0  0  0  0
   23.6422  -10.3024  -15.1055 C   0  0  0  0  0  0  0  0  0  0  0  0
   22.8761  -10.1497  -13.7979 C   0  0  0  0  0  0  0  0  0  0  0  0
   21.6300   -9.4699  -14.3243 C   0  0  1  0  0  0  0  0  0  0  0  0
   22.0349   -8.1011  -14.7481 C   0  0  0  0  0  0  0  0  0  0  0  0
   22.8032   -7.8811  -15.7188 O   0  0  0  0  0  0  0  0  0  0  0  0
   19.6667   -5.7648  -16.0102 C   0  0  0  0  0  0  0  0  0  0  0  0
   20.3212   -5.0115  -14.8606 C   0  0  1  0  0  0  0  0  0  0  0  0
   19.5720   -5.1444  -13.6938 O   0  0  0  0  0  0  0  0  0  0  0  0
   21.6713   -5.6516  -14.6084 C   0  0  2  0  0  0  0  0  0  0  0  0
   21.5447   -6.9709  -14.0398 N   0  0  0  0  0  0  0  0  0  0  0  0
   22.4143   -4.7550  -13.6821 C   0  0  0  0  0  0  0  0  0  0  0  0
   22.9174   -3.5270  -14.0815 O   0  0  0  0  0  0  0  0  0  0  0  0
   22.6097   -5.0958  -12.4849 O   0  0  0  0  0  0  0  0  0  0  0  0
  2  1  1  0
  2  3  2  0
  4  2  1  0
  5  4  1  0
  6  7  1  1
  6  5  1  0
  8  6  1  0
  9  8  2  0
 10  8  1  0
 11 10  1  0
 12 11  1  0
 13 12  1  0
 13 14  1  0
 14 10  1  0
 14 15  1  6
 15 21  1  0
 16 15  2  0
 18 17  1  6
 18 19  1  0
 18 20  1  0
 20 21  1  1
 20 22  1  0
 22 23  1  0
 24 22  2  0
M  END
$$$$
