QPT.pdb
     RDKit          3D

 24 24  0  0  1  0  0  0  0  0999 V2000
   20.1594  -17.7253  -16.9487 N   0  0  0  0  0  0  0  0  0  0  0  0
   20.9786  -16.6211  -17.2931 C   0  0  0  0  0  0  0  0  0  0  0  0
   20.4920  -15.5580  -17.7680 O   0  0  0  0  0  0  0  0  0  0  0  0
   22.4398  -16.7004  -17.0974 C   0  0  0  0  0  0  0  0  0  0  0  0
   22.8372  -18.0411  -16.4747 C   0  0  0  0  0  0  0  0  0  0  0  0
   24.0453  -18.6064  -17.1990 C   0  0  2  0  0  0  0  0  0  0  0  0
   23.5627  -19.2854  -18.3569 N   0  0  0  0  0  0  0  0  0  0  0  0
   24.8568  -19.4451  -16.3195 C   0  0  0  0  0  0  0  0  0  0  0  0
   24.5680  -20.6862  -16.2546 O   0  0  0  0  0  0  0  0  0  0  0  0
   25.9365  -18.9843  -15.5350 N   0  0  0  0  0  0  0  0  0  0  0  0
   26.4417  -17.6546  -15.4349 C   0  0  0  0  0  0  0  0  0  0  0  0
   27.8539  -17.8011  -14.9310 C   0  0  0  0  0  0  0  0  0  0  0  0
   28.1371  -19.2976  -14.9444 C   0  0  0  0  0  0  0  0  0  0  0  0
   26.7491  -19.8105  -14.6244 C   0  0  1  0  0  0  0  0  0  0  0  0
   26.4699  -19.4381  -13.2101 C   0  0  0  0  0  0  0  0  0  0  0  0
   26.2653  -18.2545  -12.8384 O   0  0  0  0  0  0  0  0  0  0  0  0
   23.4783  -20.4199  -11.9392 C   0  0  0  0  0  0  0  0  0  0  0  0
   24.4290  -21.0024  -10.9027 C   0  0  1  0  0  0  0  0  0  0  0  0
   24.7332  -22.3283  -11.2025 O   0  0  0  0  0  0  0  0  0  0  0  0
   25.7202  -20.2128  -10.9763 C   0  0  2  0  0  0  0  0  0  0  0  0
   26.4265  -20.4482  -12.2115 N   0  0  0  0  0  0  0  0  0  0  0  0
   26.5524  -20.6260   -9.8142 C   0  0  0  0  0  0  0  0  0  0  0  0
   26.1615  -20.4016   -8.5037 O   0  0  0  0  0  0  0  0  0  0  0  0
   27.6579  -21.2030   -9.9949 O   0  0  0  0  0  0  0  0  0  0  0  0
  2  1  1  0
  2  3  2  0
  4  2  1  0
  5  4  1  0
  6  7  1  6
  6  5  1  0
  8  6  1  0
  9  8  2  0
 10  8  1  0
 11 10  1  0
 12 11  1  0
 13 12  1  0
 13 14  1  0
 14 10  1  0
 14 15  1  1
 15 21  1  0
 16 15  2  0
 18 17  1  6
 18 19  1  0
 18 20  1  0
 20 21  1  6
 20 22  1  0
 22 23  1  0
 24 22  2  0
M  END
$$$$
