QPT.pdb
     RDKit          3D

 24 24  0  0  1  0  0  0  0  0999 V2000
   18.2655  -21.8541  -13.7813 N   0  0  0  0  0  0  0  0  0  0  0  0
   18.5784  -22.3515  -12.4915 C   0  0  0  0  0  0  0  0  0  0  0  0
   17.7034  -22.8909  -11.7594 O   0  0  0  0  0  0  0  0  0  0  0  0
   19.9579  -22.2436  -11.9766 C   0  0  0  0  0  0  0  0  0  0  0  0
   20.8622  -21.5226  -12.9795 C   0  0  0  0  0  0  0  0  0  0  0  0
   21.1183  -20.1017  -12.5117 C   0  0  2  0  0  0  0  0  0  0  0  0
   20.2023  -19.2576  -13.2070 N   0  0  0  0  0  0  0  0  0  0  0  0
   22.5185  -19.7214  -12.6859 C   0  0  0  0  0  0  0  0  0  0  0  0
   22.7730  -18.7458  -13.4679 O   0  0  0  0  0  0  0  0  0  0  0  0
   23.6114  -20.3538  -12.0542 N   0  0  0  0  0  0  0  0  0  0  0  0
   23.5833  -21.4626  -11.1579 C   0  0  0  0  0  0  0  0  0  0  0  0
   24.8778  -21.3884  -10.3907 C   0  0  0  0  0  0  0  0  0  0  0  0
   25.5172  -20.0676  -10.7989 C   0  0  0  0  0  0  0  0  0  0  0  0
   25.0296  -19.9937  -12.2302 C   0  0  1  0  0  0  0  0  0  0  0  0
   25.7397  -21.0657  -12.9811 C   0  0  0  0  0  0  0  0  0  0  0  0
   25.5396  -22.2912  -12.7837 O   0  0  0  0  0  0  0  0  0  0  0  0
   25.1037  -20.3147  -16.4797 C   0  0  0  0  0  0  0  0  0  0  0  0
   26.5840  -20.6651  -16.4223 C   0  0  1  0  0  0  0  0  0  0  0  0
   27.3586  -19.5144  -16.2943 O   0  0  0  0  0  0  0  0  0  0  0  0
   26.8048  -21.5015  -15.1782 C   0  0  2  0  0  0  0  0  0  0  0  0
   26.6945  -20.7159  -13.9738 N   0  0  0  0  0  0  0  0  0  0  0  0
   28.1635  -22.0980  -15.2877 C   0  0  0  0  0  0  0  0  0  0  0  0
   28.4579  -23.1158  -16.1809 O   0  0  0  0  0  0  0  0  0  0  0  0
   29.1020  -21.6847  -14.5555 O   0  0  0  0  0  0  0  0  0  0  0  0
  2  1  1  0
  2  3  2  0
  4  2  1  0
  5  4  1  0
  6  7  1  6
  6  5  1  0
  8  6  1  0
  9  8  2  0
 10  8  1  0
 11 10  1  0
 12 11  1  0
 13 12  1  0
 13 14  1  0
 14 10  1  0
 14 15  1  6
 15 21  1  0
 16 15  2  0
 18 17  1  1
 18 19  1  0
 18 20  1  0
 20 21  1  1
 20 22  1  0
 22 23  1  0
 24 22  2  0
M  END
$$$$
