QPT.pdb
     RDKit          3D

 24 24  0  0  1  0  0  0  0  0999 V2000
   19.5036  -26.1032   -2.0712 N   0  0  0  0  0  0  0  0  0  0  0  0
   18.9907  -27.1882   -2.8254 C   0  0  0  0  0  0  0  0  0  0  0  0
   19.2199  -27.3027   -4.0611 O   0  0  0  0  0  0  0  0  0  0  0  0
   18.1660  -28.2187   -2.1639 C   0  0  0  0  0  0  0  0  0  0  0  0
   17.9428  -27.8779   -0.6884 C   0  0  0  0  0  0  0  0  0  0  0  0
   19.0688  -28.4564    0.1489 C   0  0  2  0  0  0  0  0  0  0  0  0
   18.9847  -29.8765    0.0445 N   0  0  0  0  0  0  0  0  0  0  0  0
   19.0260  -27.9631    1.5238 C   0  0  0  0  0  0  0  0  0  0  0  0
   18.5832  -28.7539    2.4219 O   0  0  0  0  0  0  0  0  0  0  0  0
   19.4370  -26.6757    1.9327 N   0  0  0  0  0  0  0  0  0  0  0  0
   19.8110  -25.5730    1.1096 C   0  0  0  0  0  0  0  0  0  0  0  0
   20.6437  -24.6803    1.9925 C   0  0  0  0  0  0  0  0  0  0  0  0
   20.8485  -25.4622    3.2835 C   0  0  0  0  0  0  0  0  0  0  0  0
   19.5320  -26.2083    3.3272 C   0  0  1  0  0  0  0  0  0  0  0  0
   18.4744  -25.1963    3.6001 C   0  0  0  0  0  0  0  0  0  0  0  0
   18.1211  -24.3281    2.7620 O   0  0  0  0  0  0  0  0  0  0  0  0
   15.2752  -26.3509    5.8059 C   0  0  0  0  0  0  0  0  0  0  0  0
   15.7684  -24.9625    6.1884 C   0  0  1  0  0  0  0  0  0  0  0  0
   16.6022  -25.0248    7.3025 O   0  0  0  0  0  0  0  0  0  0  0  0
   16.5954  -24.4395    5.0314 C   0  0  2  0  0  0  0  0  0  0  0  0
   17.8162  -25.1879    4.8595 N   0  0  0  0  0  0  0  0  0  0  0  0
   16.8969  -23.0112    5.3196 C   0  0  0  0  0  0  0  0  0  0  0  0
   15.9240  -22.0250    5.2838 O   0  0  0  0  0  0  0  0  0  0  0  0
   18.0697  -22.6533    5.6098 O   0  0  0  0  0  0  0  0  0  0  0  0
  2  1  1  0
  2  3  2  0
  4  2  1  0
  5  4  1  0
  6  7  1  1
  6  5  1  0
  8  6  1  0
  9  8  2  0
 10  8  1  0
 11 10  1  0
 12 11  1  0
 13 12  1  0
 13 14  1  0
 14 10  1  0
 14 15  1  6
 15 21  1  0
 16 15  2  0
 18 17  1  6
 18 19  1  0
 18 20  1  0
 20 21  1  1
 20 22  1  0
 22 23  1  0
 24 22  2  0
M  END
$$$$
