QPT.pdb
     RDKit          3D

 24 24  0  0  1  0  0  0  0  0999 V2000
   26.2963  -23.0288  -15.1492 N   0  0  0  0  0  0  0  0  0  0  0  0
   25.1850  -23.0395  -14.2694 C   0  0  0  0  0  0  0  0  0  0  0  0
   24.0775  -23.5411  -14.6075 O   0  0  0  0  0  0  0  0  0  0  0  0
   25.3098  -22.4532  -12.9201 C   0  0  0  0  0  0  0  0  0  0  0  0
   26.7208  -21.9070  -12.6884 C   0  0  0  0  0  0  0  0  0  0  0  0
   26.6445  -20.5792  -11.9573 C   0  0  2  0  0  0  0  0  0  0  0  0
   26.1187  -20.8434  -10.6578 N   0  0  0  0  0  0  0  0  0  0  0  0
   25.8779  -19.5912  -12.7133 C   0  0  0  0  0  0  0  0  0  0  0  0
   24.7309  -19.2618  -12.2621 O   0  0  0  0  0  0  0  0  0  0  0  0
   26.3115  -18.9744  -13.9071 N   0  0  0  0  0  0  0  0  0  0  0  0
   27.4834  -19.2630  -14.6666 C   0  0  0  0  0  0  0  0  0  0  0  0
   27.7444  -18.0244  -15.4837 C   0  0  0  0  0  0  0  0  0  0  0  0
   26.7502  -16.9870  -14.9784 C   0  0  0  0  0  0  0  0  0  0  0  0
   25.5984  -17.9048  -14.6279 C   0  0  1  0  0  0  0  0  0  0  0  0
   25.0593  -18.4268  -15.9141 C   0  0  0  0  0  0  0  0  0  0  0  0
   25.6781  -19.2503  -16.6350 O   0  0  0  0  0  0  0  0  0  0  0  0
   20.9773  -20.3307  -15.6994 C   0  0  0  0  0  0  0  0  0  0  0  0
   22.3645  -19.7579  -15.4444 C   0  0  1  0  0  0  0  0  0  0  0  0
   23.3005  -20.7790  -15.2983 O   0  0  0  0  0  0  0  0  0  0  0  0
   22.7562  -18.9548  -16.6682 C   0  0  2  0  0  0  0  0  0  0  0  0
   23.7872  -17.9904  -16.3730 N   0  0  0  0  0  0  0  0  0  0  0  0
   21.5276  -18.2706  -17.1542 C   0  0  0  0  0  0  0  0  0  0  0  0
   21.3341  -16.9053  -17.0164 O   0  0  0  0  0  0  0  0  0  0  0  0
   20.6113  -18.9286  -17.7157 O   0  0  0  0  0  0  0  0  0  0  0  0
  2  1  1  0
  2  3  2  0
  4  2  1  0
  5  4  1  0
  6  7  1  1
  6  5  1  0
  8  6  1  0
  9  8  2  0
 10  8  1  0
 11 10  1  0
 12 11  1  0
 13 12  1  0
 13 14  1  0
 14 10  1  0
 14 15  1  6
 15 21  1  0
 16 15  2  0
 18 17  1  6
 18 19  1  0
 18 20  1  0
 20 21  1  1
 20 22  1  0
 22 23  1  0
 24 22  2  0
M  END
$$$$
