QPT.pdb
     RDKit          3D

 24 24  0  0  1  0  0  0  0  0999 V2000
   24.8233  -22.9012  -15.1808 N   0  0  0  0  0  0  0  0  0  0  0  0
   24.2264  -22.8932  -13.8952 C   0  0  0  0  0  0  0  0  0  0  0  0
   23.0054  -22.6181  -13.7337 O   0  0  0  0  0  0  0  0  0  0  0  0
   25.0395  -23.2124  -12.7050 C   0  0  0  0  0  0  0  0  0  0  0  0
   25.0271  -22.0529  -11.7059 C   0  0  0  0  0  0  0  0  0  0  0  0
   26.2287  -21.1568  -11.9432 C   0  0  2  0  0  0  0  0  0  0  0  0
   26.7381  -20.7871  -10.6631 N   0  0  0  0  0  0  0  0  0  0  0  0
   25.8915  -20.0178  -12.7945 C   0  0  0  0  0  0  0  0  0  0  0  0
   25.1008  -19.1373  -12.3177 O   0  0  0  0  0  0  0  0  0  0  0  0
   26.3748  -19.8194  -14.1062 N   0  0  0  0  0  0  0  0  0  0  0  0
   27.1496  -20.7162  -14.8992 C   0  0  0  0  0  0  0  0  0  0  0  0
   27.8270  -19.8526  -15.9314 C   0  0  0  0  0  0  0  0  0  0  0  0
   27.5154  -18.4172  -15.5284 C   0  0  0  0  0  0  0  0  0  0  0  0
   26.1377  -18.6247  -14.9361 C   0  0  1  0  0  0  0  0  0  0  0  0
   25.2304  -18.9605  -16.0680 C   0  0  0  0  0  0  0  0  0  0  0  0
   25.4617  -19.8907  -16.8817 O   0  0  0  0  0  0  0  0  0  0  0  0
   20.5541  -19.5716  -16.3570 C   0  0  0  0  0  0  0  0  0  0  0  0
   21.8604  -19.1743  -15.6839 C   0  0  1  0  0  0  0  0  0  0  0  0
   22.3784  -20.2368  -14.9468 O   0  0  0  0  0  0  0  0  0  0  0  0
   22.8568  -18.8537  -16.7796 C   0  0  2  0  0  0  0  0  0  0  0  0
   24.0392  -18.2104  -16.2618 N   0  0  0  0  0  0  0  0  0  0  0  0
   22.1656  -17.9660  -17.7533 C   0  0  0  0  0  0  0  0  0  0  0  0
   22.4974  -16.6291  -17.9047 O   0  0  0  0  0  0  0  0  0  0  0  0
   21.2408  -18.4161  -18.4812 O   0  0  0  0  0  0  0  0  0  0  0  0
  2  1  1  0
  2  3  2  0
  4  2  1  0
  5  4  1  0
  6  7  1  1
  6  5  1  0
  8  6  1  0
  9  8  2  0
 10  8  1  0
 11 10  1  0
 12 11  1  0
 13 12  1  0
 13 14  1  0
 14 10  1  0
 14 15  1  6
 15 21  1  0
 16 15  2  0
 18 17  1  6
 18 19  1  0
 18 20  1  0
 20 21  1  1
 20 22  1  0
 22 23  1  0
 24 22  2  0
M  END
$$$$
