LTF.pdb
     RDKit          3D

 27 27  0  0  1  0  0  0  0  0999 V2000
    7.8503  -12.0305   18.8353 C   0  0  0  0  0  0  0  0  0  0  0  0
    8.4383  -13.4148   18.7365 C   0  0  1  0  0  0  0  0  0  0  0  0
    9.9376  -13.2956   18.6269 C   0  0  0  0  0  0  0  0  0  0  0  0
    7.9736  -14.3746   19.7578 C   0  0  0  0  0  0  0  0  0  0  0  0
    8.5397  -15.7391   19.7541 C   0  0  2  0  0  0  0  0  0  0  0  0
    8.1564  -16.6067   18.6949 N   0  0  0  0  0  0  0  0  0  0  0  0
    8.4312  -16.4197   21.0847 C   0  0  0  0  0  0  0  0  0  0  0  0
    7.2799  -16.7122   21.5003 O   0  0  0  0  0  0  0  0  0  0  0  0
    9.2565  -19.5854   22.2597 C   0  0  0  0  0  0  0  0  0  0  0  0
   10.0465  -18.6594   23.1746 C   0  0  1  0  0  0  0  0  0  0  0  0
   11.3919  -18.6655   22.8713 O   0  0  0  0  0  0  0  0  0  0  0  0
    9.4370  -17.2812   23.1674 C   0  0  2  0  0  0  0  0  0  0  0  0
    9.5743  -16.7227   21.8495 N   0  0  0  0  0  0  0  0  0  0  0  0
   10.0852  -16.4050   24.1941 C   0  0  0  0  0  0  0  0  0  0  0  0
   10.9875  -15.5994   23.8529 O   0  0  0  0  0  0  0  0  0  0  0  0
    9.7000  -16.4606   25.5724 N   0  0  0  0  0  0  0  0  0  0  0  0
   10.3875  -15.7216   26.5988 C   0  0  1  0  0  0  0  0  0  0  0  0
   10.2607  -14.2310   26.4200 C   0  0  0  0  0  0  0  0  0  0  0  0
    8.9165  -13.7184   26.6947 C   0  0  0  0  0  0  0  0  0  0  0  0
    8.6767  -12.8731   27.7541 C   0  0  0  0  0  0  0  0  0  0  0  0
    7.3862  -12.4305   27.9507 C   0  0  0  0  0  0  0  0  0  0  0  0
    6.3588  -12.8157   27.1184 C   0  0  0  0  0  0  0  0  0  0  0  0
    6.5836  -13.6657   26.0480 C   0  0  0  0  0  0  0  0  0  0  0  0
    7.8774  -14.0905   25.8763 C   0  0  0  0  0  0  0  0  0  0  0  0
    9.9673  -16.1549   27.9652 C   0  0  0  0  0  0  0  0  0  0  0  0
   10.4481  -15.6172   28.9962 O   0  0  0  0  0  0  0  0  0  0  0  0
    9.0340  -17.1633   28.1544 O   0  0  0  0  0  0  0  0  0  0  0  0
  2  1  1  1
  2  3  1  0
  4  2  1  0
  5  4  1  0
  5  6  1  6
  7  8  2  0
  7  5  1  0
 10  9  1  6
 10 12  1  0
 11 10  1  0
 12 13  1  6
 13  7  1  0
 14 15  2  0
 14 12  1  0
 16 14  1  0
 17 16  1  0
 17 18  1  6
 19 18  1  0
 19 20  2  0
 21 20  1  0
 22 21  2  0
 23 24  2  0
 23 22  1  0
 24 19  1  0
 25 17  1  0
 26 25  2  0
 27 25  1  0
M  END
$$$$
