LTF.pdb
     RDKit          3D

 27 27  0  0  1  0  0  0  0  0999 V2000
    8.1353  -12.2227   19.1390 C   0  0  0  0  0  0  0  0  0  0  0  0
    8.8105  -13.5510   19.3659 C   0  0  1  0  0  0  0  0  0  0  0  0
    8.9026  -13.7983   20.8506 C   0  0  0  0  0  0  0  0  0  0  0  0
    8.2617  -14.6810   18.5900 C   0  0  0  0  0  0  0  0  0  0  0  0
    8.7407  -16.0450   18.8937 C   0  0  2  0  0  0  0  0  0  0  0  0
    8.4323  -17.0728   17.9608 N   0  0  0  0  0  0  0  0  0  0  0  0
    8.4362  -16.4716   20.2975 C   0  0  0  0  0  0  0  0  0  0  0  0
    7.2264  -16.5699   20.6299 O   0  0  0  0  0  0  0  0  0  0  0  0
    8.6519  -19.4886   21.7148 C   0  0  0  0  0  0  0  0  0  0  0  0
    9.5053  -18.6594   22.6650 C   0  0  1  0  0  0  0  0  0  0  0  0
   10.8512  -18.9064   22.4923 O   0  0  0  0  0  0  0  0  0  0  0  0
    9.1438  -17.2013   22.5466 C   0  0  2  0  0  0  0  0  0  0  0  0
    9.4640  -16.7527   21.2185 N   0  0  0  0  0  0  0  0  0  0  0  0
    9.8620  -16.3873   23.5780 C   0  0  0  0  0  0  0  0  0  0  0  0
   10.9164  -15.7753   23.2726 O   0  0  0  0  0  0  0  0  0  0  0  0
    9.3738  -16.2859   24.9206 N   0  0  0  0  0  0  0  0  0  0  0  0
   10.1077  -15.6166   25.9627 C   0  0  1  0  0  0  0  0  0  0  0  0
    9.9827  -14.1172   25.8849 C   0  0  0  0  0  0  0  0  0  0  0  0
    8.6394  -13.6224   26.1948 C   0  0  0  0  0  0  0  0  0  0  0  0
    8.4015  -12.8509   27.3094 C   0  0  0  0  0  0  0  0  0  0  0  0
    7.1118  -12.4207   27.5365 C   0  0  0  0  0  0  0  0  0  0  0  0
    6.0833  -12.7470   26.6807 C   0  0  0  0  0  0  0  0  0  0  0  0
    6.3062  -13.5226   25.5548 C   0  0  0  0  0  0  0  0  0  0  0  0
    7.5993  -13.9366   25.3537 C   0  0  0  0  0  0  0  0  0  0  0  0
    9.7415  -16.1351   27.3149 C   0  0  0  0  0  0  0  0  0  0  0  0
    8.8309  -16.9911   27.4601 O   0  0  0  0  0  0  0  0  0  0  0  0
   10.3866  -15.6969   28.4619 O   0  0  0  0  0  0  0  0  0  0  0  0
  2  1  1  1
  2  3  1  0
  4  2  1  0
  5  4  1  0
  5  6  1  6
  7  8  2  0
  7  5  1  0
 10  9  1  6
 10 12  1  0
 11 10  1  0
 12 13  1  6
 13  7  1  0
 14 15  2  0
 14 12  1  0
 16 14  1  0
 17 16  1  0
 17 18  1  1
 19 18  1  0
 19 20  2  0
 21 20  1  0
 22 21  2  0
 23 24  2  0
 23 22  1  0
 24 19  1  0
 25 17  1  0
 26 25  2  0
 27 25  1  0
M  END
$$$$
