LTF.pdb
     RDKit          3D

 27 27  0  0  1  0  0  0  0  0999 V2000
    7.8117  -11.7052   19.2340 C   0  0  0  0  0  0  0  0  0  0  0  0
    8.4711  -13.0557   19.1190 C   0  0  1  0  0  0  0  0  0  0  0  0
    9.9669  -12.8656   19.1379 C   0  0  0  0  0  0  0  0  0  0  0  0
    7.9730  -14.0852   20.0529 C   0  0  0  0  0  0  0  0  0  0  0  0
    8.6835  -15.3785   20.1229 C   0  0  2  0  0  0  0  0  0  0  0  0
    8.5204  -16.2776   19.0335 N   0  0  0  0  0  0  0  0  0  0  0  0
    8.5018  -16.0740   21.4376 C   0  0  0  0  0  0  0  0  0  0  0  0
    7.3579  -16.5230   21.7091 O   0  0  0  0  0  0  0  0  0  0  0  0
    9.5715  -19.1484   22.2886 C   0  0  0  0  0  0  0  0  0  0  0  0
   10.1860  -18.2876   23.3842 C   0  0  1  0  0  0  0  0  0  0  0  0
   11.5350  -18.0855   23.1806 O   0  0  0  0  0  0  0  0  0  0  0  0
    9.4048  -17.0079   23.5362 C   0  0  2  0  0  0  0  0  0  0  0  0
    9.5700  -16.2219   22.3435 N   0  0  0  0  0  0  0  0  0  0  0  0
    9.8520  -16.2496   24.7475 C   0  0  0  0  0  0  0  0  0  0  0  0
   10.7155  -15.3432   24.6376 O   0  0  0  0  0  0  0  0  0  0  0  0
    9.3155  -16.5330   26.0448 N   0  0  0  0  0  0  0  0  0  0  0  0
    9.7922  -15.8843   27.2382 C   0  0  1  0  0  0  0  0  0  0  0  0
    8.6708  -15.3658   28.1005 C   0  0  0  0  0  0  0  0  0  0  0  0
    7.9222  -14.2640   27.4914 C   0  0  0  0  0  0  0  0  0  0  0  0
    8.4312  -12.9856   27.4599 C   0  0  0  0  0  0  0  0  0  0  0  0
    7.6702  -11.9996   26.8696 C   0  0  0  0  0  0  0  0  0  0  0  0
    6.4355  -12.2732   26.3243 C   0  0  0  0  0  0  0  0  0  0  0  0
    5.9092  -13.5543   26.3480 C   0  0  0  0  0  0  0  0  0  0  0  0
    6.6884  -14.5157   26.9416 C   0  0  0  0  0  0  0  0  0  0  0  0
   10.7244  -16.7619   28.0077 C   0  0  0  0  0  0  0  0  0  0  0  0
   11.3459  -16.3300   29.0129 O   0  0  0  0  0  0  0  0  0  0  0  0
   10.9433  -18.0836   27.6486 O   0  0  0  0  0  0  0  0  0  0  0  0
  2  1  1  1
  2  3  1  0
  4  2  1  0
  5  4  1  0
  5  6  1  6
  7  8  2  0
  7  5  1  0
 10  9  1  6
 10 12  1  0
 11 10  1  0
 12 13  1  6
 13  7  1  0
 14 15  2  0
 14 12  1  0
 16 14  1  0
 17 16  1  0
 17 18  1  1
 19 18  1  0
 19 20  2  0
 21 20  1  0
 22 21  2  0
 23 24  2  0
 23 22  1  0
 24 19  1  0
 25 17  1  0
 26 25  2  0
 27 25  1  0
M  END
$$$$
