LTF.pdb
     RDKit          3D

 27 27  0  0  1  0  0  0  0  0999 V2000
    7.7657  -11.9858   19.0440 C   0  0  0  0  0  0  0  0  0  0  0  0
    8.2304  -13.4196   19.0598 C   0  0  1  0  0  0  0  0  0  0  0  0
    9.7240  -13.4451   18.8541 C   0  0  0  0  0  0  0  0  0  0  0  0
    7.7559  -14.2265   20.2018 C   0  0  0  0  0  0  0  0  0  0  0  0
    8.1558  -15.6465   20.2778 C   0  0  2  0  0  0  0  0  0  0  0  0
    7.6517  -16.5255   19.2803 N   0  0  0  0  0  0  0  0  0  0  0  0
    7.9931  -16.2261   21.6500 C   0  0  0  0  0  0  0  0  0  0  0  0
    6.8226  -16.4391   22.0604 O   0  0  0  0  0  0  0  0  0  0  0  0
    7.9747  -19.1784   23.0284 C   0  0  0  0  0  0  0  0  0  0  0  0
    9.1099  -18.5103   23.7924 C   0  0  1  0  0  0  0  0  0  0  0  0
   10.3452  -18.9060   23.3238 O   0  0  0  0  0  0  0  0  0  0  0  0
    8.9215  -17.0152   23.7964 C   0  0  2  0  0  0  0  0  0  0  0  0
    9.1076  -16.5230   22.4582 N   0  0  0  0  0  0  0  0  0  0  0  0
    9.8726  -16.3594   24.7490 C   0  0  0  0  0  0  0  0  0  0  0  0
   11.0258  -16.0399   24.3647 O   0  0  0  0  0  0  0  0  0  0  0  0
    9.4992  -16.0827   26.1036 N   0  0  0  0  0  0  0  0  0  0  0  0
   10.4206  -15.5338   27.0639 C   0  0  1  0  0  0  0  0  0  0  0  0
   10.2883  -14.0393   27.2019 C   0  0  0  0  0  0  0  0  0  0  0  0
    8.9030  -13.5655   27.1588 C   0  0  0  0  0  0  0  0  0  0  0  0
    8.3325  -12.9265   28.2362 C   0  0  0  0  0  0  0  0  0  0  0  0
    7.0242  -12.5079   28.1229 C   0  0  0  0  0  0  0  0  0  0  0  0
    6.2990  -12.7171   26.9709 C   0  0  0  0  0  0  0  0  0  0  0  0
    6.8585  -13.3585   25.8781 C   0  0  0  0  0  0  0  0  0  0  0  0
    8.1621  -13.7642   26.0188 C   0  0  0  0  0  0  0  0  0  0  0  0
   10.3172  -16.2248   28.3842 C   0  0  0  0  0  0  0  0  0  0  0  0
    9.4524  -17.1157   28.5877 O   0  0  0  0  0  0  0  0  0  0  0  0
   11.1660  -15.9150   29.4365 O   0  0  0  0  0  0  0  0  0  0  0  0
  2  1  1  1
  2  3  1  0
  4  2  1  0
  5  4  1  0
  5  6  1  6
  7  8  2  0
  7  5  1  0
 10  9  1  6
 10 12  1  0
 11 10  1  0
 12 13  1  6
 13  7  1  0
 14 15  2  0
 14 12  1  0
 16 14  1  0
 17 16  1  0
 17 18  1  1
 19 18  1  0
 19 20  2  0
 21 20  1  0
 22 21  2  0
 23 24  2  0
 23 22  1  0
 24 19  1  0
 25 17  1  0
 26 25  2  0
 27 25  1  0
M  END
$$$$
