LTF.pdb
     RDKit          3D

 27 27  0  0  1  0  0  0  0  0999 V2000
    9.3720  -12.6945   20.2255 C   0  0  0  0  0  0  0  0  0  0  0  0
    8.0739  -13.2921   19.7462 C   0  0  1  0  0  0  0  0  0  0  0  0
    7.1994  -12.1842   19.2155 C   0  0  0  0  0  0  0  0  0  0  0  0
    8.2064  -14.4530   18.8435 C   0  0  0  0  0  0  0  0  0  0  0  0
    8.8372  -15.6835   19.3633 C   0  0  2  0  0  0  0  0  0  0  0  0
    9.0739  -16.7403   18.4419 N   0  0  0  0  0  0  0  0  0  0  0  0
    8.1896  -16.1866   20.6174 C   0  0  0  0  0  0  0  0  0  0  0  0
    7.0868  -16.7830   20.5080 O   0  0  0  0  0  0  0  0  0  0  0  0
    7.4165  -18.5433   21.6577 C   0  0  0  0  0  0  0  0  0  0  0  0
    8.3123  -18.1470   22.8235 C   0  0  1  0  0  0  0  0  0  0  0  0
    9.5961  -18.6269   22.6691 O   0  0  0  0  0  0  0  0  0  0  0  0
    8.2518  -16.6569   23.0395 C   0  0  2  0  0  0  0  0  0  0  0  0
    8.7884  -15.9999   21.8784 N   0  0  0  0  0  0  0  0  0  0  0  0
    9.0016  -16.2651   24.2750 C   0  0  0  0  0  0  0  0  0  0  0  0
   10.1770  -15.8294   24.1846 O   0  0  0  0  0  0  0  0  0  0  0  0
    8.4083  -16.3750   25.5738 N   0  0  0  0  0  0  0  0  0  0  0  0
    9.1096  -16.0146   26.7783 C   0  0  1  0  0  0  0  0  0  0  0  0
    8.2502  -15.2273   27.7329 C   0  0  0  0  0  0  0  0  0  0  0  0
    7.6852  -14.0094   27.1475 C   0  0  0  0  0  0  0  0  0  0  0  0
    6.4454  -14.0124   26.5499 C   0  0  0  0  0  0  0  0  0  0  0  0
    5.9782  -12.8284   26.0208 C   0  0  0  0  0  0  0  0  0  0  0  0
    6.7209  -11.6703   26.0822 C   0  0  0  0  0  0  0  0  0  0  0  0
    7.9703  -11.6507   26.6801 C   0  0  0  0  0  0  0  0  0  0  0  0
    8.4100  -12.8431   27.1982 C   0  0  0  0  0  0  0  0  0  0  0  0
    9.7224  -17.2071   27.4369 C   0  0  0  0  0  0  0  0  0  0  0  0
   10.4928  -17.0826   28.4239 O   0  0  0  0  0  0  0  0  0  0  0  0
    9.4695  -18.4957   26.9906 O   0  0  0  0  0  0  0  0  0  0  0  0
  2  1  1  6
  2  3  1  0
  4  2  1  0
  5  4  1  0
  5  6  1  6
  7  8  2  0
  7  5  1  0
 10  9  1  6
 10 12  1  0
 11 10  1  0
 12 13  1  6
 13  7  1  0
 14 15  2  0
 14 12  1  0
 16 14  1  0
 17 16  1  0
 17 18  1  1
 19 18  1  0
 19 20  2  0
 21 20  1  0
 22 21  2  0
 23 24  2  0
 23 22  1  0
 24 19  1  0
 25 17  1  0
 26 25  2  0
 27 25  1  0
M  END
$$$$
