LTF.pdb
     RDKit          3D

 27 27  0  0  1  0  0  0  0  0999 V2000
    8.4978  -12.6025   25.2579 C   0  0  0  0  0  0  0  0  0  0  0  0
    7.3468  -13.4619   25.7143 C   0  0  1  0  0  0  0  0  0  0  0  0
    6.4696  -12.6468   26.6309 C   0  0  0  0  0  0  0  0  0  0  0  0
    6.6202  -14.1693   24.6410 C   0  0  0  0  0  0  0  0  0  0  0  0
    6.4025  -15.6242   24.7757 C   0  0  2  0  0  0  0  0  0  0  0  0
    5.7579  -16.0857   25.9560 N   0  0  0  0  0  0  0  0  0  0  0  0
    7.6299  -16.4286   24.4728 C   0  0  0  0  0  0  0  0  0  0  0  0
    7.9600  -17.3240   25.2933 O   0  0  0  0  0  0  0  0  0  0  0  0
    8.4318  -17.5573   20.8259 C   0  0  0  0  0  0  0  0  0  0  0  0
    9.7012  -17.0611   21.5049 C   0  0  1  0  0  0  0  0  0  0  0  0
   10.1202  -15.8533   20.9873 O   0  0  0  0  0  0  0  0  0  0  0  0
    9.5139  -17.0394   23.0000 C   0  0  2  0  0  0  0  0  0  0  0  0
    8.3932  -16.1945   23.3126 N   0  0  0  0  0  0  0  0  0  0  0  0
   10.7560  -16.5631   23.6873 C   0  0  0  0  0  0  0  0  0  0  0  0
   11.3766  -15.5650   23.2422 O   0  0  0  0  0  0  0  0  0  0  0  0
   11.2627  -17.2226   24.8533 N   0  0  0  0  0  0  0  0  0  0  0  0
   12.4161  -16.7473   25.5717 C   0  0  1  0  0  0  0  0  0  0  0  0
   12.2672  -15.3170   26.0211 C   0  0  0  0  0  0  0  0  0  0  0  0
   11.2260  -15.1243   27.0331 C   0  0  0  0  0  0  0  0  0  0  0  0
   10.0171  -14.5487   26.7141 C   0  0  0  0  0  0  0  0  0  0  0  0
    9.0851  -14.4000   27.7185 C   0  0  0  0  0  0  0  0  0  0  0  0
    9.3441  -14.8112   29.0071 C   0  0  0  0  0  0  0  0  0  0  0  0
   10.5556  -15.3921   29.3444 C   0  0  0  0  0  0  0  0  0  0  0  0
   11.4643  -15.5277   28.3248 C   0  0  0  0  0  0  0  0  0  0  0  0
   12.7700  -17.6521   26.7064 C   0  0  0  0  0  0  0  0  0  0  0  0
   11.9928  -18.5705   27.0746 O   0  0  0  0  0  0  0  0  0  0  0  0
   13.9645  -17.5187   27.3986 O   0  0  0  0  0  0  0  0  0  0  0  0
  2  1  1  6
  2  3  1  0
  4  2  1  0
  5  4  1  0
  5  6  1  1
  7  8  2  0
  7  5  1  0
 10  9  1  6
 10 12  1  0
 11 10  1  0
 12 13  1  6
 13  7  1  0
 14 15  2  0
 14 12  1  0
 16 14  1  0
 17 16  1  0
 17 18  1  1
 19 18  1  0
 19 20  2  0
 21 20  1  0
 22 21  2  0
 23 24  2  0
 23 22  1  0
 24 19  1  0
 25 17  1  0
 26 25  2  0
 27 25  1  0
M  END
$$$$
