NEY.pdb
     RDKit          3D

 30 30  0  0  1  0  0  0  0  0999 V2000
   27.5576  -15.1063  -23.1168 N   0  0  0  0  0  0  0  0  0  0  0  0
   26.5258  -14.1558  -22.9384 C   0  0  0  0  0  0  0  0  0  0  0  0
   25.6306  -13.9813  -23.7923 O   0  0  0  0  0  0  0  0  0  0  0  0
   26.4970  -13.3427  -21.7131 C   0  0  0  0  0  0  0  0  0  0  0  0
   27.7189  -13.6281  -20.8490 C   0  0  2  0  0  0  0  0  0  0  0  0
   27.6194  -14.9407  -20.2714 N   0  0  0  0  0  0  0  0  0  0  0  0
   27.7166  -12.5783  -19.7685 C   0  0  0  0  0  0  0  0  0  0  0  0
   27.0050  -12.8178  -18.7445 O   0  0  0  0  0  0  0  0  0  0  0  0
   28.4906  -11.4241  -19.9662 N   0  0  0  0  0  0  0  0  0  0  0  0
   28.5899  -10.3787  -19.0079 C   0  0  1  0  0  0  0  0  0  0  0  0
   29.8659   -9.5555  -19.0927 C   0  0  0  0  0  0  0  0  0  0  0  0
   29.9798   -8.5275  -17.9987 C   0  0  0  0  0  0  0  0  0  0  0  0
   31.2875   -7.8184  -18.1728 C   0  0  0  0  0  0  0  0  0  0  0  0
   31.5987   -7.2965  -19.2721 O   0  0  0  0  0  0  0  0  0  0  0  0
   27.4385   -9.4953  -18.9155 C   0  0  0  0  0  0  0  0  0  0  0  0
   26.7829   -9.1006  -19.9407 O   0  0  0  0  0  0  0  0  0  0  0  0
   32.1858   -7.7255  -17.1117 O   0  0  0  0  0  0  0  0  0  0  0  0
   20.7344   -5.2583  -15.1417 O   0  0  0  0  0  0  0  0  0  0  0  0
   21.8670   -6.0286  -15.3853 C   0  0  0  0  0  0  0  0  0  0  0  0
   23.1136   -5.4587  -15.2740 C   0  0  0  0  0  0  0  0  0  0  0  0
   24.2394   -6.2036  -15.5106 C   0  0  0  0  0  0  0  0  0  0  0  0
   24.1467   -7.5263  -15.8616 C   0  0  0  0  0  0  0  0  0  0  0  0
   25.3526   -8.3088  -16.1114 C   0  0  0  0  0  0  0  0  0  0  0  0
   25.7911   -8.1618  -17.5479 C   0  0  2  0  0  0  0  0  0  0  0  0
   26.9768   -9.0218  -17.6765 N   0  0  0  0  0  0  0  0  0  0  0  0
   26.0721   -6.7958  -17.9731 C   0  0  0  0  0  0  0  0  0  0  0  0
   25.1137   -6.0406  -18.6152 O   0  0  0  0  0  0  0  0  0  0  0  0
   22.8990   -8.1477  -15.9868 C   0  0  0  0  0  0  0  0  0  0  0  0
   21.7970   -7.3574  -15.7388 C   0  0  0  0  0  0  0  0  0  0  0  0
   27.1962   -6.2808  -17.7626 O   0  0  0  0  0  0  0  0  0  0  0  0
  2  1  1  0
  3  2  2  0
  4  5  1  0
  4  2  1  0
  5  6  1  1
  7  8  2  0
  7  5  1  0
  9  7  1  0
 10  9  1  0
 11 12  1  0
 10 11  1  6
 12 13  1  0
 13 14  2  0
 13 17  1  0
 15 16  2  0
 15 10  1  0
 18 19  1  0
 19 20  2  0
 20 21  1  0
 22 23  1  0
 22 21  2  0
 24 23  1  1
 24 25  1  0
 25 15  1  0
 26 24  1  0
 27 26  1  0
 28 22  1  0
 29 28  2  0
 29 19  1  0
 30 26  2  0
M  END
$$$$
