NEY.pdb
     RDKit          3D

 30 30  0  0  1  0  0  0  0  0999 V2000
   28.6505  -12.3905  -15.6684 N   0  0  0  0  0  0  0  0  0  0  0  0
   27.3233  -12.8706  -15.7571 C   0  0  0  0  0  0  0  0  0  0  0  0
   27.0507  -14.0863  -15.6632 O   0  0  0  0  0  0  0  0  0  0  0  0
   26.2230  -11.9172  -15.9662 C   0  0  0  0  0  0  0  0  0  0  0  0
   25.4701  -12.2377  -17.2513 C   0  0  2  0  0  0  0  0  0  0  0  0
   26.2995  -11.9589  -18.3920 N   0  0  0  0  0  0  0  0  0  0  0  0
   24.2569  -11.3446  -17.2544 C   0  0  0  0  0  0  0  0  0  0  0  0
   24.4392  -10.1391  -17.6094 O   0  0  0  0  0  0  0  0  0  0  0  0
   23.0262  -11.8995  -16.8700 N   0  0  0  0  0  0  0  0  0  0  0  0
   21.8144  -11.1571  -16.8320 C   0  0  1  0  0  0  0  0  0  0  0  0
   20.5566  -11.9979  -16.6772 C   0  0  0  0  0  0  0  0  0  0  0  0
   19.2983  -11.1734  -16.6170 C   0  0  0  0  0  0  0  0  0  0  0  0
   18.1453  -12.1124  -16.4382 C   0  0  0  0  0  0  0  0  0  0  0  0
   18.0942  -12.8940  -15.4564 O   0  0  0  0  0  0  0  0  0  0  0  0
   21.7835  -10.0463  -15.8940 C   0  0  0  0  0  0  0  0  0  0  0  0
   22.1091  -10.1687  -14.6629 O   0  0  0  0  0  0  0  0  0  0  0  0
   17.1040  -12.1343  -17.3638 O   0  0  0  0  0  0  0  0  0  0  0  0
   21.9601   -1.4531  -14.2690 O   0  0  0  0  0  0  0  0  0  0  0  0
   22.1158   -2.8077  -14.5458 C   0  0  0  0  0  0  0  0  0  0  0  0
   22.3710   -3.2132  -15.8348 C   0  0  0  0  0  0  0  0  0  0  0  0
   22.5271   -4.5437  -16.1243 C   0  0  0  0  0  0  0  0  0  0  0  0
   22.4325   -5.4936  -15.1395 C   0  0  0  0  0  0  0  0  0  0  0  0
   22.6001   -6.9071  -15.4602 C   0  0  0  0  0  0  0  0  0  0  0  0
   21.2814   -7.6335  -15.3567 C   0  0  2  0  0  0  0  0  0  0  0  0
   21.3895   -8.7596  -16.2961 N   0  0  0  0  0  0  0  0  0  0  0  0
   20.1028   -6.8200  -15.6300 C   0  0  0  0  0  0  0  0  0  0  0  0
   19.4299   -6.1799  -14.6108 O   0  0  0  0  0  0  0  0  0  0  0  0
   22.1741   -5.1268  -13.8139 C   0  0  0  0  0  0  0  0  0  0  0  0
   22.0249   -3.7776  -13.5730 C   0  0  0  0  0  0  0  0  0  0  0  0
   19.6770   -6.6877  -16.8023 O   0  0  0  0  0  0  0  0  0  0  0  0
  2  1  1  0
  3  2  2  0
  4  5  1  0
  4  2  1  0
  5  6  1  6
  7  8  2  0
  7  5  1  0
  9  7  1  0
 10  9  1  0
 11 12  1  0
 10 11  1  1
 12 13  1  0
 13 14  2  0
 13 17  1  0
 15 16  2  0
 15 10  1  0
 18 19  1  0
 19 20  2  0
 20 21  1  0
 22 23  1  0
 22 21  2  0
 24 23  1  6
 24 25  1  0
 25 15  1  0
 26 24  1  0
 27 26  1  0
 28 22  1  0
 29 28  2  0
 29 19  1  0
 30 26  2  0
M  END
$$$$
