NEY.pdb
     RDKit          3D

 30 30  0  0  1  0  0  0  0  0999 V2000
   21.1385  -13.5607  -19.4990 N   0  0  0  0  0  0  0  0  0  0  0  0
   20.9421  -12.4114  -20.2992 C   0  0  0  0  0  0  0  0  0  0  0  0
   21.0584  -12.4420  -21.5427 O   0  0  0  0  0  0  0  0  0  0  0  0
   20.5899  -11.1359  -19.6569 C   0  0  0  0  0  0  0  0  0  0  0  0
   20.5464  -11.2903  -18.1419 C   0  0  2  0  0  0  0  0  0  0  0  0
   19.3970  -12.0632  -17.7572 N   0  0  0  0  0  0  0  0  0  0  0  0
   20.4491   -9.8936  -17.5858 C   0  0  0  0  0  0  0  0  0  0  0  0
   21.3694   -9.0840  -17.9178 O   0  0  0  0  0  0  0  0  0  0  0  0
   19.3629   -9.5884  -16.7508 N   0  0  0  0  0  0  0  0  0  0  0  0
   19.1642   -8.3073  -16.1673 C   0  0  1  0  0  0  0  0  0  0  0  0
   17.7453   -8.0369  -15.6914 C   0  0  0  0  0  0  0  0  0  0  0  0
   16.7321   -8.0708  -16.8044 C   0  0  0  0  0  0  0  0  0  0  0  0
   15.3777   -7.8775  -16.1950 C   0  0  0  0  0  0  0  0  0  0  0  0
   14.5560   -8.8253  -16.1312 O   0  0  0  0  0  0  0  0  0  0  0  0
   20.1120   -7.9319  -15.1302 C   0  0  0  0  0  0  0  0  0  0  0  0
   20.5020   -8.7425  -14.2204 O   0  0  0  0  0  0  0  0  0  0  0  0
   15.0047   -6.6353  -15.6858 O   0  0  0  0  0  0  0  0  0  0  0  0
   25.7049   -5.0232  -18.8220 O   0  0  0  0  0  0  0  0  0  0  0  0
   25.0112   -5.5669  -17.7455 C   0  0  0  0  0  0  0  0  0  0  0  0
   24.3698   -4.7335  -16.8594 C   0  0  0  0  0  0  0  0  0  0  0  0
   23.6820   -5.2530  -15.7937 C   0  0  0  0  0  0  0  0  0  0  0  0
   23.6195   -6.6079  -15.5899 C   0  0  0  0  0  0  0  0  0  0  0  0
   22.8845   -7.1488  -14.4515 C   0  0  0  0  0  0  0  0  0  0  0  0
   21.7088   -6.2657  -14.1122 C   0  0  2  0  0  0  0  0  0  0  0  0
   20.6592   -6.6398  -15.0717 N   0  0  0  0  0  0  0  0  0  0  0  0
   21.9795   -4.8335  -14.1467 C   0  0  0  0  0  0  0  0  0  0  0  0
   22.7975   -4.2427  -13.2070 O   0  0  0  0  0  0  0  0  0  0  0  0
   24.2571   -7.4935  -16.4661 C   0  0  0  0  0  0  0  0  0  0  0  0
   24.9356   -6.9233  -17.5221 C   0  0  0  0  0  0  0  0  0  0  0  0
   21.4701   -4.1093  -15.0351 O   0  0  0  0  0  0  0  0  0  0  0  0
  2  1  1  0
  3  2  2  0
  4  5  1  0
  4  2  1  0
  5  6  1  6
  7  8  2  0
  7  5  1  0
  9  7  1  0
 10  9  1  0
 11 12  1  0
 10 11  1  1
 12 13  1  0
 13 14  2  0
 13 17  1  0
 15 16  2  0
 15 10  1  0
 18 19  1  0
 19 20  2  0
 20 21  1  0
 22 23  1  0
 22 21  2  0
 24 23  1  6
 24 25  1  0
 25 15  1  0
 26 24  1  0
 27 26  1  0
 28 22  1  0
 29 28  2  0
 29 19  1  0
 30 26  2  0
M  END
$$$$
