NEY.pdb
     RDKit          3D

 30 30  0  0  1  0  0  0  0  0999 V2000
   17.0804  -14.5170  -15.9736 N   0  0  0  0  0  0  0  0  0  0  0  0
   16.9033  -13.4393  -15.0752 C   0  0  0  0  0  0  0  0  0  0  0  0
   16.0824  -13.4887  -14.1348 O   0  0  0  0  0  0  0  0  0  0  0  0
   17.7056  -12.2183  -15.2452 C   0  0  0  0  0  0  0  0  0  0  0  0
   18.5334  -12.2917  -16.5221 C   0  0  2  0  0  0  0  0  0  0  0  0
   19.4707  -13.3786  -16.4410 N   0  0  0  0  0  0  0  0  0  0  0  0
   19.2624  -10.9769  -16.6193 C   0  0  0  0  0  0  0  0  0  0  0  0
   20.5295  -11.0228  -16.5503 O   0  0  0  0  0  0  0  0  0  0  0  0
   18.5007   -9.8084  -16.7774 N   0  0  0  0  0  0  0  0  0  0  0  0
   19.0761   -8.5246  -16.9815 C   0  0  1  0  0  0  0  0  0  0  0  0
   18.3117   -7.6294  -17.9445 C   0  0  0  0  0  0  0  0  0  0  0  0
   18.9879   -6.3059  -18.1843 C   0  0  0  0  0  0  0  0  0  0  0  0
   17.9532   -5.3500  -18.6930 C   0  0  0  0  0  0  0  0  0  0  0  0
   17.7766   -4.2351  -18.1423 O   0  0  0  0  0  0  0  0  0  0  0  0
   19.4074   -7.7822  -15.7758 C   0  0  0  0  0  0  0  0  0  0  0  0
   18.6274   -7.7187  -14.7637 O   0  0  0  0  0  0  0  0  0  0  0  0
   17.1647   -5.6840  -19.7922 O   0  0  0  0  0  0  0  0  0  0  0  0
   26.3427   -6.1530  -17.7691 O   0  0  0  0  0  0  0  0  0  0  0  0
   25.3347   -6.3661  -16.8342 C   0  0  0  0  0  0  0  0  0  0  0  0
   24.9074   -5.3236  -16.0457 C   0  0  0  0  0  0  0  0  0  0  0  0
   23.9154   -5.5167  -15.1199 C   0  0  0  0  0  0  0  0  0  0  0  0
   23.3312   -6.7475  -14.9614 C   0  0  0  0  0  0  0  0  0  0  0  0
   22.2763   -6.9407  -13.9720 C   0  0  0  0  0  0  0  0  0  0  0  0
   20.9834   -6.3261  -14.4497 C   0  0  2  0  0  0  0  0  0  0  0  0
   20.6209   -7.0854  -15.6556 N   0  0  0  0  0  0  0  0  0  0  0  0
   21.0395   -4.8938  -14.7158 C   0  0  0  0  0  0  0  0  0  0  0  0
   21.2140   -3.9876  -13.6914 O   0  0  0  0  0  0  0  0  0  0  0  0
   23.7344   -7.8369  -15.7419 C   0  0  0  0  0  0  0  0  0  0  0  0
   24.7348   -7.5927  -16.6585 C   0  0  0  0  0  0  0  0  0  0  0  0
   20.9285   -4.4578  -15.8866 O   0  0  0  0  0  0  0  0  0  0  0  0
  2  1  1  0
  3  2  2  0
  4  5  1  0
  4  2  1  0
  5  6  1  1
  7  8  2  0
  7  5  1  0
  9  7  1  0
 10  9  1  0
 11 12  1  0
 10 11  1  6
 12 13  1  0
 13 14  2  0
 13 17  1  0
 15 16  2  0
 15 10  1  0
 18 19  1  0
 19 20  2  0
 20 21  1  0
 22 23  1  0
 22 21  2  0
 24 23  1  6
 24 25  1  0
 25 15  1  0
 26 24  1  0
 27 26  1  0
 28 22  1  0
 29 28  2  0
 29 19  1  0
 30 26  2  0
M  END
$$$$
