NEY.pdb
     RDKit          3D

 30 30  0  0  1  0  0  0  0  0999 V2000
   16.1950  -14.4824  -17.3656 N   0  0  0  0  0  0  0  0  0  0  0  0
   16.9850  -14.6370  -16.2029 C   0  0  0  0  0  0  0  0  0  0  0  0
   16.8711  -15.6285  -15.4514 O   0  0  0  0  0  0  0  0  0  0  0  0
   17.9742  -13.6040  -15.8594 C   0  0  0  0  0  0  0  0  0  0  0  0
   19.0813  -13.5503  -16.9047 C   0  0  2  0  0  0  0  0  0  0  0  0
   19.9020  -14.7272  -16.8155 N   0  0  0  0  0  0  0  0  0  0  0  0
   19.8917  -12.3207  -16.5869 C   0  0  0  0  0  0  0  0  0  0  0  0
   20.7240  -12.4192  -15.6330 O   0  0  0  0  0  0  0  0  0  0  0  0
   19.6734  -11.1675  -17.3568 N   0  0  0  0  0  0  0  0  0  0  0  0
   20.4100   -9.9640  -17.1841 C   0  0  1  0  0  0  0  0  0  0  0  0
   20.6882   -9.1973  -18.4677 C   0  0  0  0  0  0  0  0  0  0  0  0
   19.4362   -8.7186  -19.1533 C   0  0  0  0  0  0  0  0  0  0  0  0
   19.4950   -9.1717  -20.5796 C   0  0  0  0  0  0  0  0  0  0  0  0
   20.1279   -8.5131  -21.4417 O   0  0  0  0  0  0  0  0  0  0  0  0
   19.9059   -9.0556  -16.1665 C   0  0  0  0  0  0  0  0  0  0  0  0
   18.6588   -8.9162  -15.9173 O   0  0  0  0  0  0  0  0  0  0  0  0
   18.8446  -10.3385  -20.9759 O   0  0  0  0  0  0  0  0  0  0  0  0
   19.8606   -4.6134   -8.6585 O   0  0  0  0  0  0  0  0  0  0  0  0
   20.2463   -5.2971   -9.8071 C   0  0  0  0  0  0  0  0  0  0  0  0
   20.1041   -6.6637   -9.8649 C   0  0  0  0  0  0  0  0  0  0  0  0
   20.4793   -7.3523  -10.9889 C   0  0  0  0  0  0  0  0  0  0  0  0
   21.0018   -6.6960  -12.0741 C   0  0  0  0  0  0  0  0  0  0  0  0
   21.3980   -7.4402  -13.2650 C   0  0  0  0  0  0  0  0  0  0  0  0
   20.3011   -7.4047  -14.3008 C   0  0  2  0  0  0  0  0  0  0  0  0
   20.7747   -8.2714  -15.3902 N   0  0  0  0  0  0  0  0  0  0  0  0
   19.9516   -6.0757  -14.7878 C   0  0  0  0  0  0  0  0  0  0  0  0
   18.8701   -5.3926  -14.2731 O   0  0  0  0  0  0  0  0  0  0  0  0
   21.1646   -5.3061  -12.0597 C   0  0  0  0  0  0  0  0  0  0  0  0
   20.7729   -4.6586  -10.9073 C   0  0  0  0  0  0  0  0  0  0  0  0
   20.6308   -5.5275  -15.6885 O   0  0  0  0  0  0  0  0  0  0  0  0
  2  1  1  0
  3  2  2  0
  4  5  1  0
  4  2  1  0
  5  6  1  1
  7  8  2  0
  7  5  1  0
  9  7  1  0
 10  9  1  0
 11 12  1  0
 10 11  1  6
 12 13  1  0
 13 14  2  0
 13 17  1  0
 15 16  2  0
 15 10  1  0
 18 19  1  0
 19 20  2  0
 20 21  1  0
 22 23  1  0
 22 21  2  0
 24 23  1  1
 24 25  1  0
 25 15  1  0
 26 24  1  0
 27 26  1  0
 28 22  1  0
 29 28  2  0
 29 19  1  0
 30 26  2  0
M  END
$$$$
