NEY.pdb
     RDKit          3D

 30 30  0  0  1  0  0  0  0  0999 V2000
   23.5315  -15.9218  -19.4018 N   0  0  0  0  0  0  0  0  0  0  0  0
   24.2825  -15.1821  -20.3445 C   0  0  0  0  0  0  0  0  0  0  0  0
   25.1432  -15.7186  -21.0739 O   0  0  0  0  0  0  0  0  0  0  0  0
   24.0504  -13.7357  -20.4776 C   0  0  0  0  0  0  0  0  0  0  0  0
   22.8842  -13.2950  -19.6018 C   0  0  2  0  0  0  0  0  0  0  0  0
   21.6434  -13.7536  -20.1646 N   0  0  0  0  0  0  0  0  0  0  0  0
   22.9264  -11.7892  -19.5827 C   0  0  0  0  0  0  0  0  0  0  0  0
   23.8893  -11.2554  -18.9500 O   0  0  0  0  0  0  0  0  0  0  0  0
   21.9123  -11.0905  -20.2563 N   0  0  0  0  0  0  0  0  0  0  0  0
   21.8501   -9.6715  -20.3149 C   0  0  1  0  0  0  0  0  0  0  0  0
   20.9390   -9.1178  -21.3995 C   0  0  0  0  0  0  0  0  0  0  0  0
   21.0251   -7.6210  -21.5364 C   0  0  0  0  0  0  0  0  0  0  0  0
   20.0566   -7.2033  -22.5997 C   0  0  0  0  0  0  0  0  0  0  0  0
   19.3823   -8.0545  -23.2306 O   0  0  0  0  0  0  0  0  0  0  0  0
   21.5810   -8.9986  -19.0541 C   0  0  0  0  0  0  0  0  0  0  0  0
   20.7036   -9.4126  -18.2202 O   0  0  0  0  0  0  0  0  0  0  0  0
   19.8868   -5.8551  -22.9083 O   0  0  0  0  0  0  0  0  0  0  0  0
   22.7310   -2.8218  -12.8681 O   0  0  0  0  0  0  0  0  0  0  0  0
   22.8808   -3.7701  -13.8750 C   0  0  0  0  0  0  0  0  0  0  0  0
   22.7858   -5.1074  -13.5690 C   0  0  0  0  0  0  0  0  0  0  0  0
   22.9309   -6.0543  -14.5492 C   0  0  0  0  0  0  0  0  0  0  0  0
   23.1727   -5.6896  -15.8491 C   0  0  0  0  0  0  0  0  0  0  0  0
   23.3258   -6.7070  -16.8837 C   0  0  0  0  0  0  0  0  0  0  0  0
   21.9807   -7.0965  -17.4464 C   0  0  2  0  0  0  0  0  0  0  0  0
   22.2818   -7.8410  -18.6781 N   0  0  0  0  0  0  0  0  0  0  0  0
   21.0707   -5.9863  -17.7011 C   0  0  0  0  0  0  0  0  0  0  0  0
   20.2015   -5.5429  -16.7269 O   0  0  0  0  0  0  0  0  0  0  0  0
   23.2771   -4.3405  -16.2063 C   0  0  0  0  0  0  0  0  0  0  0  0
   23.1238   -3.4263  -15.1858 C   0  0  0  0  0  0  0  0  0  0  0  0
   21.0610   -5.4125  -18.8163 O   0  0  0  0  0  0  0  0  0  0  0  0
  2  1  1  0
  3  2  2  0
  4  5  1  0
  4  2  1  0
  5  6  1  6
  7  8  2  0
  7  5  1  0
  9  7  1  0
 10  9  1  0
 11 12  1  0
 10 11  1  6
 12 13  1  0
 13 14  2  0
 13 17  1  0
 15 16  2  0
 15 10  1  0
 18 19  1  0
 19 20  2  0
 20 21  1  0
 22 23  1  0
 22 21  2  0
 24 23  1  6
 24 25  1  0
 25 15  1  0
 26 24  1  0
 27 26  1  0
 28 22  1  0
 29 28  2  0
 29 19  1  0
 30 26  2  0
M  END
$$$$
