NEY.pdb
     RDKit          3D

 30 30  0  0  1  0  0  0  0  0999 V2000
   14.6636   -8.1583   -6.8954 N   0  0  0  0  0  0  0  0  0  0  0  0
   14.9986   -7.0737   -7.7390 C   0  0  0  0  0  0  0  0  0  0  0  0
   14.9072   -5.8868   -7.3602 O   0  0  0  0  0  0  0  0  0  0  0  0
   15.4700   -7.3413   -9.1064 C   0  0  0  0  0  0  0  0  0  0  0  0
   14.4811   -6.8013  -10.1319 C   0  0  2  0  0  0  0  0  0  0  0  0
   13.2560   -7.5517  -10.0790 N   0  0  0  0  0  0  0  0  0  0  0  0
   15.1425   -6.9714  -11.4747 C   0  0  0  0  0  0  0  0  0  0  0  0
   14.9428   -8.0744  -12.0713 O   0  0  0  0  0  0  0  0  0  0  0  0
   15.9228   -5.9132  -11.9663 N   0  0  0  0  0  0  0  0  0  0  0  0
   16.5030   -5.9100  -13.2641 C   0  0  1  0  0  0  0  0  0  0  0  0
   15.8118   -5.0014  -14.2689 C   0  0  0  0  0  0  0  0  0  0  0  0
   15.5774   -3.6100  -13.7439 C   0  0  0  0  0  0  0  0  0  0  0  0
   16.0057   -2.6435  -14.8048 C   0  0  0  0  0  0  0  0  0  0  0  0
   17.0069   -1.9033  -14.6391 O   0  0  0  0  0  0  0  0  0  0  0  0
   17.9404   -5.6955  -13.3127 C   0  0  0  0  0  0  0  0  0  0  0  0
   18.5656   -4.9863  -12.4508 O   0  0  0  0  0  0  0  0  0  0  0  0
   15.2962   -2.5490  -16.0003 O   0  0  0  0  0  0  0  0  0  0  0  0
   25.5185   -6.8541  -17.6964 O   0  0  0  0  0  0  0  0  0  0  0  0
   24.3601   -6.9642  -16.9337 C   0  0  0  0  0  0  0  0  0  0  0  0
   23.3038   -7.7078  -17.4051 C   0  0  0  0  0  0  0  0  0  0  0  0
   22.1557   -7.8263  -16.6661 C   0  0  0  0  0  0  0  0  0  0  0  0
   22.0369   -7.2088  -15.4472 C   0  0  0  0  0  0  0  0  0  0  0  0
   20.8093   -7.3420  -14.6699 C   0  0  0  0  0  0  0  0  0  0  0  0
   20.1707   -5.9919  -14.4532 C   0  0  2  0  0  0  0  0  0  0  0  0
   18.7317   -6.2652  -14.3236 N   0  0  0  0  0  0  0  0  0  0  0  0
   20.4366   -5.0065  -15.4942 C   0  0  0  0  0  0  0  0  0  0  0  0
   21.4057   -4.0402  -15.3263 O   0  0  0  0  0  0  0  0  0  0  0  0
   23.0863   -6.4420  -14.9282 C   0  0  0  0  0  0  0  0  0  0  0  0
   24.2196   -6.3529  -15.7081 C   0  0  0  0  0  0  0  0  0  0  0  0
   19.7851   -5.0192  -16.5659 O   0  0  0  0  0  0  0  0  0  0  0  0
  2  1  1  0
  3  2  2  0
  4  5  1  0
  4  2  1  0
  5  6  1  6
  7  8  2  0
  7  5  1  0
  9  7  1  0
 10  9  1  0
 11 12  1  0
 10 11  1  6
 12 13  1  0
 13 14  2  0
 13 17  1  0
 15 16  2  0
 15 10  1  0
 18 19  1  0
 19 20  2  0
 20 21  1  0
 22 23  1  0
 22 21  2  0
 24 23  1  6
 24 25  1  0
 25 15  1  0
 26 24  1  0
 27 26  1  0
 28 22  1  0
 29 28  2  0
 29 19  1  0
 30 26  2  0
M  END
$$$$
