NEY.pdb
     RDKit          3D

 30 30  0  0  1  0  0  0  0  0999 V2000
   28.8565  -18.6445  -17.4430 N   0  0  0  0  0  0  0  0  0  0  0  0
   28.4212  -17.4933  -16.7466 C   0  0  0  0  0  0  0  0  0  0  0  0
   28.4534  -16.3555  -17.2616 O   0  0  0  0  0  0  0  0  0  0  0  0
   27.9131  -17.6294  -15.3730 C   0  0  0  0  0  0  0  0  0  0  0  0
   27.9783  -19.0815  -14.9165 C   0  0  2  0  0  0  0  0  0  0  0  0
   27.3790  -19.9369  -15.9044 N   0  0  0  0  0  0  0  0  0  0  0  0
   27.2019  -19.1457  -13.6271 C   0  0  0  0  0  0  0  0  0  0  0  0
   27.5511  -18.3372  -12.7123 O   0  0  0  0  0  0  0  0  0  0  0  0
   26.1607  -20.0819  -13.5279 N   0  0  0  0  0  0  0  0  0  0  0  0
   25.3059  -20.1799  -12.3962 C   0  0  1  0  0  0  0  0  0  0  0  0
   23.9354  -20.7740  -12.6824 C   0  0  0  0  0  0  0  0  0  0  0  0
   23.0001  -20.6964  -11.5051 C   0  0  0  0  0  0  0  0  0  0  0  0
   21.7025  -21.3248  -11.9106 C   0  0  0  0  0  0  0  0  0  0  0  0
   21.5641  -21.8489  -13.0436 O   0  0  0  0  0  0  0  0  0  0  0  0
   25.8830  -20.8146  -11.2220 C   0  0  0  0  0  0  0  0  0  0  0  0
   26.4185  -21.9761  -11.2538 O   0  0  0  0  0  0  0  0  0  0  0  0
   20.6210  -21.3384  -11.0322 O   0  0  0  0  0  0  0  0  0  0  0  0
   29.1374  -19.9347   -3.0894 O   0  0  0  0  0  0  0  0  0  0  0  0
   28.7978  -19.9098   -4.4384 C   0  0  0  0  0  0  0  0  0  0  0  0
   27.8000  -19.0692   -4.8728 C   0  0  0  0  0  0  0  0  0  0  0  0
   27.4533  -19.0326   -6.1983 C   0  0  0  0  0  0  0  0  0  0  0  0
   28.0911  -19.8296   -7.1144 C   0  0  0  0  0  0  0  0  0  0  0  0
   27.7127  -19.7820   -8.5227 C   0  0  0  0  0  0  0  0  0  0  0  0
   26.5732  -20.7326   -8.7973 C   0  0  2  0  0  0  0  0  0  0  0  0
   25.8844  -20.1760   -9.9711 N   0  0  0  0  0  0  0  0  0  0  0  0
   25.6541  -20.9359   -7.6840 C   0  0  0  0  0  0  0  0  0  0  0  0
   24.3861  -20.3945   -7.7021 O   0  0  0  0  0  0  0  0  0  0  0  0
   29.1122  -20.7003   -6.7173 C   0  0  0  0  0  0  0  0  0  0  0  0
   29.4247  -20.7010   -5.3746 C   0  0  0  0  0  0  0  0  0  0  0  0
   26.0020  -21.6090   -6.6844 O   0  0  0  0  0  0  0  0  0  0  0  0
  2  1  1  0
  3  2  2  0
  4  5  1  0
  4  2  1  0
  5  6  1  6
  7  8  2  0
  7  5  1  0
  9  7  1  0
 10  9  1  0
 11 12  1  0
 10 11  1  6
 12 13  1  0
 13 14  2  0
 13 17  1  0
 15 16  2  0
 15 10  1  0
 18 19  1  0
 19 20  2  0
 20 21  1  0
 22 23  1  0
 22 21  2  0
 24 23  1  1
 24 25  1  0
 25 15  1  0
 26 24  1  0
 27 26  1  0
 28 22  1  0
 29 28  2  0
 29 19  1  0
 30 26  2  0
M  END
$$$$
