WCE.pdb
     RDKit          3D

 30 31  0  0  1  0  0  0  0  0999 V2000
   26.6565  -22.8955  -12.3642 N   0  0  0  0  0  0  0  0  0  0  0  0
   25.9399  -21.8261  -11.6982 C   0  0  1  0  0  0  0  0  0  0  0  0
   26.8063  -20.5846  -11.6812 C   0  0  0  0  0  0  0  0  0  0  0  0
   27.8896  -20.6994  -10.6851 C   0  0  0  0  0  0  0  0  0  0  0  0
   29.1249  -21.2745  -10.9224 C   0  0  0  0  0  0  0  0  0  0  0  0
   29.8143  -21.1837   -9.7786 N   0  0  0  0  0  0  0  0  0  0  0  0
   29.0593  -20.5758   -8.8389 C   0  0  0  0  0  0  0  0  0  0  0  0
   29.3123  -20.2540   -7.5243 C   0  0  0  0  0  0  0  0  0  0  0  0
   28.3693  -19.6180   -6.7324 C   0  0  0  0  0  0  0  0  0  0  0  0
   27.1672  -19.3189   -7.3097 C   0  0  0  0  0  0  0  0  0  0  0  0
   26.8763  -19.6219   -8.6129 C   0  0  0  0  0  0  0  0  0  0  0  0
   27.8304  -20.2567   -9.3871 C   0  0  0  0  0  0  0  0  0  0  0  0
   24.7449  -21.4995  -12.5559 C   0  0  0  0  0  0  0  0  0  0  0  0
   24.8088  -21.5493  -13.8122 O   0  0  0  0  0  0  0  0  0  0  0  0
   23.5019  -21.1229  -11.9792 N   0  0  0  0  0  0  0  0  0  0  0  0
   22.2907  -21.2392  -12.7304 C   0  0  1  0  0  0  0  0  0  0  0  0
   21.2952  -22.0640  -11.9760 C   0  0  0  0  0  0  0  0  0  0  0  0
   21.2475  -21.5435  -10.2246 S   0  0  0  0  0  0  0  0  0  0  0  0
   21.7243  -19.8485  -12.8795 C   0  0  0  0  0  0  0  0  0  0  0  0
   21.7628  -19.0164  -11.9374 O   0  0  0  0  0  0  0  0  0  0  0  0
   21.1222  -19.4186  -14.0914 N   0  0  0  0  0  0  0  0  0  0  0  0
   20.5224  -18.1059  -14.1663 C   0  0  1  0  0  0  0  0  0  0  0  0
   20.7959  -17.5819  -15.5676 C   0  0  0  0  0  0  0  0  0  0  0  0
   20.5637  -18.6249  -16.6136 C   0  0  0  0  0  0  0  0  0  0  0  0
   21.4627  -18.3264  -17.7601 C   0  0  0  0  0  0  0  0  0  0  0  0
   22.3698  -19.1151  -18.1356 O   0  0  0  0  0  0  0  0  0  0  0  0
   19.0633  -18.2069  -13.9173 C   0  0  0  0  0  0  0  0  0  0  0  0
   18.3869  -17.1376  -13.4021 O   0  0  0  0  0  0  0  0  0  0  0  0
   21.3350  -17.1372  -18.4804 O   0  0  0  0  0  0  0  0  0  0  0  0
   18.4631  -19.2750  -14.1824 O   0  0  0  0  0  0  0  0  0  0  0  0
  2  1  1  6
  2 13  1  0
  2  3  1  0
  3  4  1  0
  4  5  2  0
  5  6  1  0
  7  6  1  0
  8  7  2  0
  9  8  1  0
 10 11  1  0
 10  9  2  0
 11 12  2  0
 12  4  1  0
 12  7  1  0
 13 14  2  0
 15 13  1  0
 15 16  1  0
 16 17  1  1
 17 18  1  0
 19 20  2  0
 19 16  1  0
 21 19  1  0
 22 21  1  0
 22 23  1  6
 24 25  1  0
 24 23  1  0
 25 26  2  0
 25 29  1  0
 27 22  1  0
 27 28  1  0
 30 27  2  0
M  END
$$$$
