WCE.pdb
     RDKit          3D

 30 31  0  0  1  0  0  0  0  0999 V2000
   26.9863  -19.0885  -11.0453 N   0  0  0  0  0  0  0  0  0  0  0  0
   26.6642  -20.4980  -11.1476 C   0  0  1  0  0  0  0  0  0  0  0  0
   26.0166  -20.9532   -9.8570 C   0  0  0  0  0  0  0  0  0  0  0  0
   26.7960  -20.5167   -8.6820 C   0  0  0  0  0  0  0  0  0  0  0  0
   26.3260  -19.6770   -7.6884 C   0  0  0  0  0  0  0  0  0  0  0  0
   27.3266  -19.5250   -6.8123 N   0  0  0  0  0  0  0  0  0  0  0  0
   28.4000  -20.2354   -7.2191 C   0  0  0  0  0  0  0  0  0  0  0  0
   29.6526  -20.4014   -6.6721 C   0  0  0  0  0  0  0  0  0  0  0  0
   30.6156  -21.1940   -7.2765 C   0  0  0  0  0  0  0  0  0  0  0  0
   30.2731  -21.8107   -8.4471 C   0  0  0  0  0  0  0  0  0  0  0  0
   29.0391  -21.6714   -9.0237 C   0  0  0  0  0  0  0  0  0  0  0  0
   28.0915  -20.8762   -8.4053 C   0  0  0  0  0  0  0  0  0  0  0  0
   25.6145  -20.6303  -12.2204 C   0  0  0  0  0  0  0  0  0  0  0  0
   24.6519  -19.8225  -12.2963 O   0  0  0  0  0  0  0  0  0  0  0  0
   25.6714  -21.6715  -13.1859 N   0  0  0  0  0  0  0  0  0  0  0  0
   24.8870  -21.5957  -14.3792 C   0  0  1  0  0  0  0  0  0  0  0  0
   25.7459  -21.8591  -15.5764 C   0  0  0  0  0  0  0  0  0  0  0  0
   27.3130  -22.6477  -15.0634 S   0  0  0  0  0  0  0  0  0  0  0  0
   23.8508  -22.6899  -14.3007 C   0  0  0  0  0  0  0  0  0  0  0  0
   24.1503  -23.8570  -13.9408 O   0  0  0  0  0  0  0  0  0  0  0  0
   22.4910  -22.4489  -14.6305 N   0  0  0  0  0  0  0  0  0  0  0  0
   21.5084  -23.4873  -14.4187 C   0  0  1  0  0  0  0  0  0  0  0  0
   20.3469  -22.8427  -13.6782 C   0  0  0  0  0  0  0  0  0  0  0  0
   19.6085  -21.8631  -14.5332 C   0  0  0  0  0  0  0  0  0  0  0  0
   18.4644  -21.3399  -13.7401 C   0  0  0  0  0  0  0  0  0  0  0  0
   18.3580  -20.1268  -13.4196 O   0  0  0  0  0  0  0  0  0  0  0  0
   21.0632  -24.0298  -15.7260 C   0  0  0  0  0  0  0  0  0  0  0  0
   20.3674  -25.2045  -15.7721 O   0  0  0  0  0  0  0  0  0  0  0  0
   17.4423  -22.1887  -13.3106 O   0  0  0  0  0  0  0  0  0  0  0  0
   21.3304  -23.4038  -16.7787 O   0  0  0  0  0  0  0  0  0  0  0  0
  2  1  1  1
  2 13  1  0
  2  3  1  0
  3  4  1  0
  4  5  2  0
  5  6  1  0
  7  6  1  0
  8  7  2  0
  9  8  1  0
 10 11  1  0
 10  9  2  0
 11 12  2  0
 12  4  1  0
 12  7  1  0
 13 14  2  0
 15 13  1  0
 15 16  1  0
 16 17  1  6
 17 18  1  0
 19 20  2  0
 19 16  1  0
 21 19  1  0
 22 21  1  0
 22 23  1  6
 24 25  1  0
 24 23  1  0
 25 26  2  0
 25 29  1  0
 27 22  1  0
 27 28  1  0
 30 27  2  0
M  END
$$$$
