WCE.pdb
     RDKit          3D

 30 31  0  0  1  0  0  0  0  0999 V2000
   26.5336  -19.3097  -12.2532 N   0  0  0  0  0  0  0  0  0  0  0  0
   26.4887  -20.7478  -12.4282 C   0  0  1  0  0  0  0  0  0  0  0  0
   25.7711  -21.3684  -11.2483 C   0  0  0  0  0  0  0  0  0  0  0  0
   26.4585  -21.0601   -9.9790 C   0  0  0  0  0  0  0  0  0  0  0  0
   25.8236  -20.7308   -8.7951 C   0  0  0  0  0  0  0  0  0  0  0  0
   26.7875  -20.5252   -7.8894 N   0  0  0  0  0  0  0  0  0  0  0  0
   27.9964  -20.7130   -8.4603 C   0  0  0  0  0  0  0  0  0  0  0  0
   29.2744  -20.6220   -7.9560 C   0  0  0  0  0  0  0  0  0  0  0  0
   30.3899  -20.8630   -8.7424 C   0  0  0  0  0  0  0  0  0  0  0  0
   30.1729  -21.1974  -10.0497 C   0  0  0  0  0  0  0  0  0  0  0  0
   28.9186  -21.2982  -10.5895 C   0  0  0  0  0  0  0  0  0  0  0  0
   27.8180  -21.0540   -9.7886 C   0  0  0  0  0  0  0  0  0  0  0  0
   25.6301  -21.0150  -13.6372 C   0  0  0  0  0  0  0  0  0  0  0  0
   24.5109  -20.4567  -13.7804 O   0  0  0  0  0  0  0  0  0  0  0  0
   26.0511  -21.9070  -14.6603 N   0  0  0  0  0  0  0  0  0  0  0  0
   25.2980  -22.0281  -15.8698 C   0  0  1  0  0  0  0  0  0  0  0  0
   26.1466  -22.6308  -16.9455 C   0  0  0  0  0  0  0  0  0  0  0  0
   25.1574  -22.8736  -18.4632 S   0  0  0  0  0  0  0  0  0  0  0  0
   24.1580  -22.9767  -15.5910 C   0  0  0  0  0  0  0  0  0  0  0  0
   24.3414  -24.0732  -15.0033 O   0  0  0  0  0  0  0  0  0  0  0  0
   22.8271  -22.6721  -15.9809 N   0  0  0  0  0  0  0  0  0  0  0  0
   21.7651  -23.6095  -15.6945 C   0  0  1  0  0  0  0  0  0  0  0  0
   20.4894  -22.7930  -15.5574 C   0  0  0  0  0  0  0  0  0  0  0  0
   19.7725  -23.0801  -14.2770 C   0  0  0  0  0  0  0  0  0  0  0  0
   18.5255  -22.2696  -14.2630 C   0  0  0  0  0  0  0  0  0  0  0  0
   18.5096  -21.0527  -13.9397 O   0  0  0  0  0  0  0  0  0  0  0  0
   21.6476  -24.5876  -16.8040 C   0  0  0  0  0  0  0  0  0  0  0  0
   21.5514  -25.9216  -16.5257 O   0  0  0  0  0  0  0  0  0  0  0  0
   17.2987  -22.8359  -14.6147 O   0  0  0  0  0  0  0  0  0  0  0  0
   21.6378  -24.1800  -17.9894 O   0  0  0  0  0  0  0  0  0  0  0  0
  2  1  1  1
  2 13  1  0
  2  3  1  0
  3  4  1  0
  4  5  2  0
  5  6  1  0
  7  6  1  0
  8  7  2  0
  9  8  1  0
 10 11  1  0
 10  9  2  0
 11 12  2  0
 12  4  1  0
 12  7  1  0
 13 14  2  0
 15 13  1  0
 15 16  1  0
 16 17  1  6
 17 18  1  0
 19 20  2  0
 19 16  1  0
 21 19  1  0
 22 21  1  0
 22 23  1  6
 24 25  1  0
 24 23  1  0
 25 26  2  0
 25 29  1  0
 27 22  1  0
 27 28  1  0
 30 27  2  0
M  END
$$$$
