WCE.pdb
     RDKit          3D

 30 31  0  0  1  0  0  0  0  0999 V2000
   23.2135  -20.5758  -15.5543 N   0  0  0  0  0  0  0  0  0  0  0  0
   21.9885  -19.8030  -15.4998 C   0  0  1  0  0  0  0  0  0  0  0  0
   21.2508  -19.9504  -16.8137 C   0  0  0  0  0  0  0  0  0  0  0  0
   21.9656  -19.2684  -17.9103 C   0  0  0  0  0  0  0  0  0  0  0  0
   22.9651  -19.8382  -18.6781 C   0  0  0  0  0  0  0  0  0  0  0  0
   23.3526  -18.9037  -19.5548 N   0  0  0  0  0  0  0  0  0  0  0  0
   22.6357  -17.7757  -19.3647 C   0  0  0  0  0  0  0  0  0  0  0  0
   22.6587  -16.5547  -20.0006 C   0  0  0  0  0  0  0  0  0  0  0  0
   21.8143  -15.5205  -19.6290 C   0  0  0  0  0  0  0  0  0  0  0  0
   20.9493  -15.7591  -18.5981 C   0  0  0  0  0  0  0  0  0  0  0  0
   20.8952  -16.9586  -17.9400 C   0  0  0  0  0  0  0  0  0  0  0  0
   21.7460  -17.9785  -18.3255 C   0  0  0  0  0  0  0  0  0  0  0  0
   21.1163  -20.4386  -14.4483 C   0  0  0  0  0  0  0  0  0  0  0  0
   21.1711  -21.6741  -14.2130 O   0  0  0  0  0  0  0  0  0  0  0  0
   20.1996  -19.6677  -13.6835 N   0  0  0  0  0  0  0  0  0  0  0  0
   19.3868  -20.2905  -12.6853 C   0  0  1  0  0  0  0  0  0  0  0  0
   19.3191  -19.4263  -11.4650 C   0  0  0  0  0  0  0  0  0  0  0  0
   21.0040  -19.0812  -10.8462 S   0  0  0  0  0  0  0  0  0  0  0  0
   17.9932  -20.4032  -13.2529 C   0  0  0  0  0  0  0  0  0  0  0  0
   17.5322  -19.5419  -14.0447 O   0  0  0  0  0  0  0  0  0  0  0  0
   17.1407  -21.4878  -12.9170 N   0  0  0  0  0  0  0  0  0  0  0  0
   15.7964  -21.5318  -13.4455 C   0  0  1  0  0  0  0  0  0  0  0  0
   15.3270  -22.9730  -13.3210 C   0  0  0  0  0  0  0  0  0  0  0  0
   15.4696  -23.4929  -11.9263 C   0  0  0  0  0  0  0  0  0  0  0  0
   14.8559  -24.8468  -11.8812 C   0  0  0  0  0  0  0  0  0  0  0  0
   14.3411  -25.3936  -12.8920 O   0  0  0  0  0  0  0  0  0  0  0  0
   14.9211  -20.6236  -12.6643 C   0  0  0  0  0  0  0  0  0  0  0  0
   15.3952  -20.0377  -11.5249 O   0  0  0  0  0  0  0  0  0  0  0  0
   14.8253  -25.5806  -10.6937 O   0  0  0  0  0  0  0  0  0  0  0  0
   13.7518  -20.4017  -13.0579 O   0  0  0  0  0  0  0  0  0  0  0  0
  2  1  1  6
  2 13  1  0
  2  3  1  0
  3  4  1  0
  4  5  2  0
  5  6  1  0
  7  6  1  0
  8  7  2  0
  9  8  1  0
 10 11  1  0
 10  9  2  0
 11 12  2  0
 12  4  1  0
 12  7  1  0
 13 14  2  0
 15 13  1  0
 15 16  1  0
 16 17  1  1
 17 18  1  0
 19 20  2  0
 19 16  1  0
 21 19  1  0
 22 21  1  0
 22 23  1  1
 24 25  1  0
 24 23  1  0
 25 26  2  0
 25 29  1  0
 27 22  1  0
 27 28  1  0
 30 27  2  0
M  END
$$$$
