WCE.pdb
     RDKit          3D

 30 31  0  0  1  0  0  0  0  0999 V2000
   27.7242  -22.1382  -14.2754 N   0  0  0  0  0  0  0  0  0  0  0  0
   26.6602  -21.7800  -13.3586 C   0  0  1  0  0  0  0  0  0  0  0  0
   26.9323  -20.4000  -12.7986 C   0  0  0  0  0  0  0  0  0  0  0  0
   27.8398  -20.4616  -11.6361 C   0  0  0  0  0  0  0  0  0  0  0  0
   29.2150  -20.5892  -11.7118 C   0  0  0  0  0  0  0  0  0  0  0  0
   29.6665  -20.6082  -10.4519 N   0  0  0  0  0  0  0  0  0  0  0  0
   28.6295  -20.4976   -9.5947 C   0  0  0  0  0  0  0  0  0  0  0  0
   28.5738  -20.4682   -8.2193 C   0  0  0  0  0  0  0  0  0  0  0  0
   27.3729  -20.3458   -7.5383 C   0  0  0  0  0  0  0  0  0  0  0  0
   26.2347  -20.2546   -8.2892 C   0  0  0  0  0  0  0  0  0  0  0  0
   26.2471  -20.2801   -9.6582 C   0  0  0  0  0  0  0  0  0  0  0  0
   27.4555  -20.4028  -10.3196 C   0  0  0  0  0  0  0  0  0  0  0  0
   25.3987  -21.6671  -14.1748 C   0  0  0  0  0  0  0  0  0  0  0  0
   25.3791  -21.0362  -15.2641 O   0  0  0  0  0  0  0  0  0  0  0  0
   24.1843  -22.2678  -13.7457 N   0  0  0  0  0  0  0  0  0  0  0  0
   23.0708  -22.3658  -14.6374 C   0  0  1  0  0  0  0  0  0  0  0  0
   22.9350  -23.7699  -15.1378 C   0  0  0  0  0  0  0  0  0  0  0  0
   24.3858  -24.7596  -14.6314 S   0  0  0  0  0  0  0  0  0  0  0  0
   21.8326  -22.0344  -13.8411 C   0  0  0  0  0  0  0  0  0  0  0  0
   21.7257  -22.3472  -12.6278 O   0  0  0  0  0  0  0  0  0  0  0  0
   20.7329  -21.3545  -14.4279 N   0  0  0  0  0  0  0  0  0  0  0  0
   19.5932  -20.9998  -13.6131 C   0  0  1  0  0  0  0  0  0  0  0  0
   19.1577  -19.6113  -14.0549 C   0  0  0  0  0  0  0  0  0  0  0  0
   20.1738  -18.5682  -13.7153 C   0  0  0  0  0  0  0  0  0  0  0  0
   19.6732  -17.2636  -14.2247 C   0  0  0  0  0  0  0  0  0  0  0  0
   18.5560  -17.1392  -14.7921 O   0  0  0  0  0  0  0  0  0  0  0  0
   18.5031  -21.9846  -13.8208 C   0  0  0  0  0  0  0  0  0  0  0  0
   17.5537  -22.1604  -12.8543 O   0  0  0  0  0  0  0  0  0  0  0  0
   20.4363  -16.1019  -14.0918 O   0  0  0  0  0  0  0  0  0  0  0  0
   18.4631  -22.6479  -14.8837 O   0  0  0  0  0  0  0  0  0  0  0  0
  2  1  1  6
  2 13  1  0
  2  3  1  0
  3  4  1  0
  4  5  2  0
  5  6  1  0
  7  6  1  0
  8  7  2  0
  9  8  1  0
 10 11  1  0
 10  9  2  0
 11 12  2  0
 12  4  1  0
 12  7  1  0
 13 14  2  0
 15 13  1  0
 15 16  1  0
 16 17  1  1
 17 18  1  0
 19 20  2  0
 19 16  1  0
 21 19  1  0
 22 21  1  0
 22 23  1  6
 24 25  1  0
 24 23  1  0
 25 26  2  0
 25 29  1  0
 27 22  1  0
 27 28  1  0
 30 27  2  0
M  END
$$$$
