WCE.pdb
     RDKit          3D

 30 31  0  0  1  0  0  0  0  0999 V2000
   26.1481  -20.4188  -11.7986 N   0  0  0  0  0  0  0  0  0  0  0  0
   25.4401  -20.8283  -10.6020 C   0  0  1  0  0  0  0  0  0  0  0  0
   25.8697  -19.9490   -9.4468 C   0  0  0  0  0  0  0  0  0  0  0  0
   27.2195  -20.3096   -8.9705 C   0  0  0  0  0  0  0  0  0  0  0  0
   28.1324  -21.0686   -9.6803 C   0  0  0  0  0  0  0  0  0  0  0  0
   29.2238  -21.1700   -8.9120 N   0  0  0  0  0  0  0  0  0  0  0  0
   29.0283  -20.5056   -7.7532 C   0  0  0  0  0  0  0  0  0  0  0  0
   29.8368  -20.3172   -6.6548 C   0  0  0  0  0  0  0  0  0  0  0  0
   29.4185  -19.5837   -5.5557 C   0  0  0  0  0  0  0  0  0  0  0  0
   28.1616  -19.0490   -5.6025 C   0  0  0  0  0  0  0  0  0  0  0  0
   27.3269  -19.2132   -6.6754 C   0  0  0  0  0  0  0  0  0  0  0  0
   27.7625  -19.9485   -7.7626 C   0  0  0  0  0  0  0  0  0  0  0  0
   23.9800  -20.5395  -10.8368 C   0  0  0  0  0  0  0  0  0  0  0  0
   23.5741  -19.3708  -11.0696 O   0  0  0  0  0  0  0  0  0  0  0  0
   23.0071  -21.5748  -10.8039 N   0  0  0  0  0  0  0  0  0  0  0  0
   21.6140  -21.2614  -10.8800 C   0  0  1  0  0  0  0  0  0  0  0  0
   21.2288  -20.9728  -12.2973 C   0  0  0  0  0  0  0  0  0  0  0  0
   20.0072  -19.6143  -12.3514 S   0  0  0  0  0  0  0  0  0  0  0  0
   20.8570  -22.4880  -10.4332 C   0  0  0  0  0  0  0  0  0  0  0  0
   21.1771  -23.6393  -10.8247 O   0  0  0  0  0  0  0  0  0  0  0  0
   19.7488  -22.3952   -9.5504 N   0  0  0  0  0  0  0  0  0  0  0  0
   19.1169  -23.6012   -9.0658 C   0  0  1  0  0  0  0  0  0  0  0  0
   18.1188  -23.1719   -8.0017 C   0  0  0  0  0  0  0  0  0  0  0  0
   17.3077  -24.3211   -7.4945 C   0  0  0  0  0  0  0  0  0  0  0  0
   16.3252  -23.7863   -6.5144 C   0  0  0  0  0  0  0  0  0  0  0  0
   16.1991  -22.5552   -6.2815 O   0  0  0  0  0  0  0  0  0  0  0  0
   18.4292  -24.2909  -10.1851 C   0  0  0  0  0  0  0  0  0  0  0  0
   18.4510  -25.6549  -10.2578 O   0  0  0  0  0  0  0  0  0  0  0  0
   15.4868  -24.6438   -5.7993 O   0  0  0  0  0  0  0  0  0  0  0  0
   17.8333  -23.6141  -11.0559 O   0  0  0  0  0  0  0  0  0  0  0  0
  2  1  1  6
  2 13  1  0
  2  3  1  0
  3  4  1  0
  4  5  2  0
  5  6  1  0
  7  6  1  0
  8  7  2  0
  9  8  1  0
 10 11  1  0
 10  9  2  0
 11 12  2  0
 12  4  1  0
 12  7  1  0
 13 14  2  0
 15 13  1  0
 15 16  1  0
 16 17  1  6
 17 18  1  0
 19 20  2  0
 19 16  1  0
 21 19  1  0
 22 21  1  0
 22 23  1  1
 24 25  1  0
 24 23  1  0
 25 26  2  0
 25 29  1  0
 27 22  1  0
 27 28  1  0
 30 27  2  0
M  END
$$$$
