WCE.pdb
     RDKit          3D

 30 31  0  0  1  0  0  0  0  0999 V2000
   22.2190  -33.8946  -11.0699 N   0  0  0  0  0  0  0  0  0  0  0  0
   22.7739  -32.8498  -10.2325 C   0  0  1  0  0  0  0  0  0  0  0  0
   21.7345  -32.4238   -9.2175 C   0  0  0  0  0  0  0  0  0  0  0  0
   20.6865  -31.5908   -9.8393 C   0  0  0  0  0  0  0  0  0  0  0  0
   19.4538  -32.0549  -10.2615 C   0  0  0  0  0  0  0  0  0  0  0  0
   18.8009  -31.0002  -10.7648 N   0  0  0  0  0  0  0  0  0  0  0  0
   19.5760  -29.8987  -10.6733 C   0  0  0  0  0  0  0  0  0  0  0  0
   19.3609  -28.5908  -11.0459 C   0  0  0  0  0  0  0  0  0  0  0  0
   20.3186  -27.6079  -10.8516 C   0  0  0  0  0  0  0  0  0  0  0  0
   21.4960  -27.9882  -10.2711 C   0  0  0  0  0  0  0  0  0  0  0  0
   21.7491  -29.2777   -9.8866 C   0  0  0  0  0  0  0  0  0  0  0  0
   20.7808  -30.2443  -10.0888 C   0  0  0  0  0  0  0  0  0  0  0  0
   23.9035  -33.4690   -9.4508 C   0  0  0  0  0  0  0  0  0  0  0  0
   23.9671  -34.7129   -9.2681 O   0  0  0  0  0  0  0  0  0  0  0  0
   24.9386  -32.6725   -8.8907 N   0  0  0  0  0  0  0  0  0  0  0  0
   26.0809  -33.2881   -8.2899 C   0  0  1  0  0  0  0  0  0  0  0  0
   27.3369  -32.6864   -8.8382 C   0  0  0  0  0  0  0  0  0  0  0  0
   27.5659  -33.1906  -10.5801 S   0  0  0  0  0  0  0  0  0  0  0  0
   26.0256  -32.9830   -6.8131 C   0  0  0  0  0  0  0  0  0  0  0  0
   25.7534  -31.8315   -6.3875 O   0  0  0  0  0  0  0  0  0  0  0  0
   26.2790  -33.9842   -5.8387 N   0  0  0  0  0  0  0  0  0  0  0  0
   26.2260  -33.6461   -4.4346 C   0  0  1  0  0  0  0  0  0  0  0  0
   25.0619  -34.4258   -3.8430 C   0  0  0  0  0  0  0  0  0  0  0  0
   24.9741  -34.2664   -2.3589 C   0  0  0  0  0  0  0  0  0  0  0  0
   23.8579  -35.1220   -1.8753 C   0  0  0  0  0  0  0  0  0  0  0  0
   23.0720  -35.7196   -2.6570 O   0  0  0  0  0  0  0  0  0  0  0  0
   27.5016  -34.0264   -3.7793 C   0  0  0  0  0  0  0  0  0  0  0  0
   28.3674  -34.8693   -4.4168 O   0  0  0  0  0  0  0  0  0  0  0  0
   23.6318  -35.3008   -0.5092 O   0  0  0  0  0  0  0  0  0  0  0  0
   27.7739  -33.5698   -2.6440 O   0  0  0  0  0  0  0  0  0  0  0  0
  2  1  1  6
  2 13  1  0
  2  3  1  0
  3  4  1  0
  4  5  2  0
  5  6  1  0
  7  6  1  0
  8  7  2  0
  9  8  1  0
 10 11  1  0
 10  9  2  0
 11 12  2  0
 12  4  1  0
 12  7  1  0
 13 14  2  0
 15 13  1  0
 15 16  1  0
 16 17  1  6
 17 18  1  0
 19 20  2  0
 19 16  1  0
 21 19  1  0
 22 21  1  0
 22 23  1  1
 24 25  1  0
 24 23  1  0
 25 26  2  0
 25 29  1  0
 27 22  1  0
 27 28  1  0
 30 27  2  0
M  END
$$$$
