QVT.pdb
     RDKit          3D

 24 23  0  0  1  0  0  0  0  0999 V2000
    9.1186  -15.2169   13.7973 N   0  0  0  0  0  0  0  0  0  0  0  0
    9.5649  -16.5800   13.7048 C   0  0  0  0  0  0  0  0  0  0  0  0
    9.4231  -17.1303   12.5885 O   0  0  0  0  0  0  0  0  0  0  0  0
   10.1484  -17.2405   14.8874 C   0  0  0  0  0  0  0  0  0  0  0  0
   10.1868  -16.4077   16.1208 C   0  0  0  0  0  0  0  0  0  0  0  0
    9.5547  -17.0338   17.3192 C   0  0  2  0  0  0  0  0  0  0  0  0
    8.1174  -17.2175   17.1524 N   0  0  0  0  0  0  0  0  0  0  0  0
    9.8210  -16.2501   18.5569 C   0  0  0  0  0  0  0  0  0  0  0  0
   10.9949  -16.1327   18.9948 O   0  0  0  0  0  0  0  0  0  0  0  0
    8.0458  -12.9298   19.3985 C   0  0  0  0  0  0  0  0  0  0  0  0
    8.1181  -13.6997   20.7155 C   0  0  1  0  0  0  0  0  0  0  0  0
    6.7168  -14.2093   20.9845 C   0  0  0  0  0  0  0  0  0  0  0  0
    9.0934  -14.8376   20.4853 C   0  0  2  0  0  0  0  0  0  0  0  0
    8.8007  -15.5992   19.3085 N   0  0  0  0  0  0  0  0  0  0  0  0
    9.1812  -15.7123   21.7030 C   0  0  0  0  0  0  0  0  0  0  0  0
    8.2111  -16.4234   22.0687 O   0  0  0  0  0  0  0  0  0  0  0  0
   12.1279  -18.3810   24.4529 C   0  0  0  0  0  0  0  0  0  0  0  0
   11.9788  -17.3162   23.3873 C   0  0  1  0  0  0  0  0  0  0  0  0
   12.1055  -17.9582   22.1562 O   0  0  0  0  0  0  0  0  0  0  0  0
   10.5933  -16.7163   23.4803 C   0  0  2  0  0  0  0  0  0  0  0  0
   10.4113  -15.7121   22.4402 N   0  0  0  0  0  0  0  0  0  0  0  0
   10.4379  -16.1278   24.8288 C   0  0  0  0  0  0  0  0  0  0  0  0
   10.5454  -14.8844   24.9596 O   0  0  0  0  0  0  0  0  0  0  0  0
   10.1790  -16.8888   25.9535 O   0  0  0  0  0  0  0  0  0  0  0  0
  2  1  1  0
  3  2  2  0
  4  2  1  0
  5  4  1  0
  6  5  1  0
  6  7  1  6
  8 14  1  0
  8  6  1  0
  9  8  2  0
 11 10  1  6
 11 13  1  0
 12 11  1  0
 13 14  1  6
 15 21  1  0
 15 13  1  0
 16 15  2  0
 18 20  1  0
 18 17  1  1
 19 18  1  0
 20 22  1  0
 20 21  1  6
 22 24  1  0
 23 22  2  0
M  END
$$$$
