QVT.pdb
     RDKit          3D

 24 23  0  0  1  0  0  0  0  0999 V2000
    6.9376  -20.6775   17.5959 N   0  0  0  0  0  0  0  0  0  0  0  0
    8.1910  -20.6438   16.8933 C   0  0  0  0  0  0  0  0  0  0  0  0
    8.7073  -21.7558   16.6365 O   0  0  0  0  0  0  0  0  0  0  0  0
    8.7865  -19.3467   16.5214 C   0  0  0  0  0  0  0  0  0  0  0  0
    7.9857  -18.1515   16.9043 C   0  0  0  0  0  0  0  0  0  0  0  0
    8.6203  -16.8410   16.5762 C   0  0  2  0  0  0  0  0  0  0  0  0
    9.7607  -16.9894   15.6791 N   0  0  0  0  0  0  0  0  0  0  0  0
    9.0375  -16.1070   17.8026 C   0  0  0  0  0  0  0  0  0  0  0  0
   10.2479  -16.0787   18.1457 O   0  0  0  0  0  0  0  0  0  0  0  0
    8.2516  -13.0093   21.5173 C   0  0  0  0  0  0  0  0  0  0  0  0
    7.6148  -13.6428   20.2822 C   0  0  1  0  0  0  0  0  0  0  0  0
    7.5199  -12.5429   19.2445 C   0  0  0  0  0  0  0  0  0  0  0  0
    8.5556  -14.7478   19.8430 C   0  0  2  0  0  0  0  0  0  0  0  0
    8.1274  -15.4079   18.6466 N   0  0  0  0  0  0  0  0  0  0  0  0
    8.7835  -15.7231   20.9621 C   0  0  0  0  0  0  0  0  0  0  0  0
    7.8353  -16.3838   21.4569 O   0  0  0  0  0  0  0  0  0  0  0  0
   11.1180  -18.5553   20.7137 C   0  0  0  0  0  0  0  0  0  0  0  0
   11.5389  -17.7945   21.9530 C   0  0  1  0  0  0  0  0  0  0  0  0
   12.5910  -16.9610   21.5757 O   0  0  0  0  0  0  0  0  0  0  0  0
   10.3844  -16.9360   22.4203 C   0  0  2  0  0  0  0  0  0  0  0  0
   10.1222  -15.8791   21.4521 N   0  0  0  0  0  0  0  0  0  0  0  0
   10.7352  -16.3771   23.7445 C   0  0  0  0  0  0  0  0  0  0  0  0
   11.0528  -15.1655   23.8222 O   0  0  0  0  0  0  0  0  0  0  0  0
   10.7285  -17.1320   24.9025 O   0  0  0  0  0  0  0  0  0  0  0  0
  2  1  1  0
  3  2  2  0
  4  2  1  0
  5  4  1  0
  6  5  1  0
  6  7  1  6
  8 14  1  0
  8  6  1  0
  9  8  2  0
 11 10  1  1
 11 13  1  0
 12 11  1  0
 13 14  1  6
 15 21  1  0
 15 13  1  0
 16 15  2  0
 18 20  1  0
 18 17  1  6
 19 18  1  0
 20 22  1  0
 20 21  1  6
 22 24  1  0
 23 22  2  0
M  END
$$$$
