QVT.pdb
     RDKit          3D

 24 23  0  0  1  0  0  0  0  0999 V2000
   10.3884  -21.1271   18.4620 N   0  0  0  0  0  0  0  0  0  0  0  0
   10.0531  -21.0392   17.0671 C   0  0  0  0  0  0  0  0  0  0  0  0
    9.8061  -22.1242   16.4917 O   0  0  0  0  0  0  0  0  0  0  0  0
   10.0169  -19.7219   16.4050 C   0  0  0  0  0  0  0  0  0  0  0  0
   10.3267  -18.5633   17.2872 C   0  0  0  0  0  0  0  0  0  0  0  0
    9.1577  -17.6945   17.6138 C   0  0  2  0  0  0  0  0  0  0  0  0
    8.6745  -16.9594   16.4505 N   0  0  0  0  0  0  0  0  0  0  0  0
    9.4677  -16.7433   18.7165 C   0  0  0  0  0  0  0  0  0  0  0  0
   10.6621  -16.4747   19.0076 O   0  0  0  0  0  0  0  0  0  0  0  0
    8.2235  -13.4551   22.1405 C   0  0  0  0  0  0  0  0  0  0  0  0
    7.7487  -14.2006   20.8951 C   0  0  1  0  0  0  0  0  0  0  0  0
    7.6761  -13.1694   19.7874 C   0  0  0  0  0  0  0  0  0  0  0  0
    8.7990  -15.2562   20.6098 C   0  0  2  0  0  0  0  0  0  0  0  0
    8.4682  -16.0912   19.4946 N   0  0  0  0  0  0  0  0  0  0  0  0
    9.0823  -16.0658   21.8426 C   0  0  0  0  0  0  0  0  0  0  0  0
    8.1825  -16.7432   22.4012 O   0  0  0  0  0  0  0  0  0  0  0  0
   12.5491  -18.2362   24.5497 C   0  0  0  0  0  0  0  0  0  0  0  0
   12.2358  -17.2512   23.4437 C   0  0  1  0  0  0  0  0  0  0  0  0
   12.5665  -17.8764   22.2421 O   0  0  0  0  0  0  0  0  0  0  0  0
   10.7509  -16.9625   23.4467 C   0  0  2  0  0  0  0  0  0  0  0  0
   10.4171  -16.0431   22.3666 N   0  0  0  0  0  0  0  0  0  0  0  0
   10.3970  -16.3935   24.7656 C   0  0  0  0  0  0  0  0  0  0  0  0
   10.5099  -15.1556   24.9378 O   0  0  0  0  0  0  0  0  0  0  0  0
    9.9463  -17.1668   25.8193 O   0  0  0  0  0  0  0  0  0  0  0  0
  2  1  1  0
  3  2  2  0
  4  2  1  0
  5  4  1  0
  6  5  1  0
  6  7  1  6
  8 14  1  0
  8  6  1  0
  9  8  2  0
 11 10  1  1
 11 13  1  0
 12 11  1  0
 13 14  1  6
 15 21  1  0
 15 13  1  0
 16 15  2  0
 18 20  1  0
 18 17  1  1
 19 18  1  0
 20 22  1  0
 20 21  1  6
 22 24  1  0
 23 22  2  0
M  END
$$$$
