QVT.pdb
     RDKit          3D

 24 23  0  0  1  0  0  0  0  0999 V2000
   13.2992  -19.7843   18.2809 N   0  0  0  0  0  0  0  0  0  0  0  0
   13.0900  -19.3397   16.9301 C   0  0  0  0  0  0  0  0  0  0  0  0
   13.2948  -20.1902   16.0336 O   0  0  0  0  0  0  0  0  0  0  0  0
   12.6587  -17.9526   16.6751 C   0  0  0  0  0  0  0  0  0  0  0  0
   12.4478  -17.1230   17.8932 C   0  0  0  0  0  0  0  0  0  0  0  0
   12.0757  -15.7023   17.6268 C   0  0  2  0  0  0  0  0  0  0  0  0
   13.2172  -14.9052   17.1922 N   0  0  0  0  0  0  0  0  0  0  0  0
   11.4407  -15.0659   18.8136 C   0  0  0  0  0  0  0  0  0  0  0  0
   12.1430  -14.7047   19.7933 O   0  0  0  0  0  0  0  0  0  0  0  0
    7.6698  -13.1093   21.2538 C   0  0  0  0  0  0  0  0  0  0  0  0
    8.1784  -13.5354   19.8782 C   0  0  1  0  0  0  0  0  0  0  0  0
    8.4608  -12.2560   19.1173 C   0  0  0  0  0  0  0  0  0  0  0  0
    9.4449  -14.3315   20.1253 C   0  0  2  0  0  0  0  0  0  0  0  0
   10.0402  -14.8283   18.9215 N   0  0  0  0  0  0  0  0  0  0  0  0
    9.1914  -15.4338   21.1133 C   0  0  0  0  0  0  0  0  0  0  0  0
    8.4379  -16.4009   20.8349 O   0  0  0  0  0  0  0  0  0  0  0  0
   11.6408  -17.6151   22.7930 C   0  0  0  0  0  0  0  0  0  0  0  0
   10.8794  -16.9388   23.9131 C   0  0  1  0  0  0  0  0  0  0  0  0
   11.6617  -15.8673   24.3419 O   0  0  0  0  0  0  0  0  0  0  0  0
    9.5759  -16.3990   23.3675 C   0  0  2  0  0  0  0  0  0  0  0  0
    9.8380  -15.3500   22.3906 N   0  0  0  0  0  0  0  0  0  0  0  0
    8.7794  -15.8879   24.5046 C   0  0  0  0  0  0  0  0  0  0  0  0
    8.3759  -16.7008   25.3713 O   0  0  0  0  0  0  0  0  0  0  0  0
    8.4592  -14.5515   24.6550 O   0  0  0  0  0  0  0  0  0  0  0  0
  2  1  1  0
  3  2  2  0
  4  2  1  0
  5  4  1  0
  6  5  1  0
  6  7  1  1
  8 14  1  0
  8  6  1  0
  9  8  2  0
 11 10  1  1
 11 13  1  0
 12 11  1  0
 13 14  1  6
 15 21  1  0
 15 13  1  0
 16 15  2  0
 18 20  1  0
 18 17  1  6
 19 18  1  0
 20 22  1  0
 20 21  1  6
 22 24  1  0
 23 22  2  0
M  END
$$$$
