QVT.pdb
     RDKit          3D

 24 23  0  0  1  0  0  0  0  0999 V2000
    7.7611  -21.7381   17.9276 N   0  0  0  0  0  0  0  0  0  0  0  0
    8.0563  -20.9150   16.7869 C   0  0  0  0  0  0  0  0  0  0  0  0
    8.8311  -21.4112   15.9368 O   0  0  0  0  0  0  0  0  0  0  0  0
    7.4529  -19.5738   16.6768 C   0  0  0  0  0  0  0  0  0  0  0  0
    7.7427  -18.6561   17.8127 C   0  0  0  0  0  0  0  0  0  0  0  0
    7.9338  -17.2262   17.4296 C   0  0  2  0  0  0  0  0  0  0  0  0
    8.5610  -17.0847   16.1204 N   0  0  0  0  0  0  0  0  0  0  0  0
    8.7243  -16.4823   18.4488 C   0  0  0  0  0  0  0  0  0  0  0  0
    9.9804  -16.4510   18.3805 O   0  0  0  0  0  0  0  0  0  0  0  0
    7.7060  -13.0221   19.8884 C   0  0  0  0  0  0  0  0  0  0  0  0
    8.1893  -13.8555   21.0734 C   0  0  1  0  0  0  0  0  0  0  0  0
    6.9449  -14.2835   21.8244 C   0  0  0  0  0  0  0  0  0  0  0  0
    8.9229  -15.0433   20.4818 C   0  0  2  0  0  0  0  0  0  0  0  0
    8.1352  -15.7766   19.5371 N   0  0  0  0  0  0  0  0  0  0  0  0
    9.4518  -15.9328   21.5702 C   0  0  0  0  0  0  0  0  0  0  0  0
    8.8258  -16.9590   21.9381 O   0  0  0  0  0  0  0  0  0  0  0  0
   13.3682  -17.3488   24.1419 C   0  0  0  0  0  0  0  0  0  0  0  0
   12.7858  -16.3438   23.1711 C   0  0  1  0  0  0  0  0  0  0  0  0
   13.2813  -16.6693   21.9091 O   0  0  0  0  0  0  0  0  0  0  0  0
   11.2804  -16.4910   23.1530 C   0  0  2  0  0  0  0  0  0  0  0  0
   10.6991  -15.5746   22.1806 N   0  0  0  0  0  0  0  0  0  0  0  0
   10.7766  -16.2181   24.5170 C   0  0  0  0  0  0  0  0  0  0  0  0
   10.3146  -15.0795   24.7721 O   0  0  0  0  0  0  0  0  0  0  0  0
   10.7922  -17.1638   25.5252 O   0  0  0  0  0  0  0  0  0  0  0  0
  2  1  1  0
  3  2  2  0
  4  2  1  0
  5  4  1  0
  6  5  1  0
  6  7  1  6
  8 14  1  0
  8  6  1  0
  9  8  2  0
 11 10  1  6
 11 13  1  0
 12 11  1  0
 13 14  1  6
 15 21  1  0
 15 13  1  0
 16 15  2  0
 18 20  1  0
 18 17  1  1
 19 18  1  0
 20 22  1  0
 20 21  1  6
 22 24  1  0
 23 22  2  0
M  END
$$$$
