QVT.pdb
     RDKit          3D

 24 23  0  0  1  0  0  0  0  0999 V2000
    5.7262  -20.5072   17.5560 N   0  0  0  0  0  0  0  0  0  0  0  0
    6.4690  -20.5100   16.3256 C   0  0  0  0  0  0  0  0  0  0  0  0
    6.2975  -21.5034   15.5821 O   0  0  0  0  0  0  0  0  0  0  0  0
    7.3649  -19.3819   16.0094 C   0  0  0  0  0  0  0  0  0  0  0  0
    7.3945  -18.2951   17.0266 C   0  0  0  0  0  0  0  0  0  0  0  0
    8.0903  -17.0485   16.5911 C   0  0  2  0  0  0  0  0  0  0  0  0
    9.1169  -17.3109   15.5889 N   0  0  0  0  0  0  0  0  0  0  0  0
    8.6872  -16.3180   17.7431 C   0  0  0  0  0  0  0  0  0  0  0  0
    9.8699  -16.5545   18.1019 O   0  0  0  0  0  0  0  0  0  0  0  0
    6.4576  -13.8267   20.4511 C   0  0  0  0  0  0  0  0  0  0  0  0
    7.8529  -13.3942   20.0055 C   0  0  1  0  0  0  0  0  0  0  0  0
    8.4930  -12.7294   21.2071 C   0  0  0  0  0  0  0  0  0  0  0  0
    8.5824  -14.6643   19.6131 C   0  0  2  0  0  0  0  0  0  0  0  0
    7.9861  -15.3325   18.4959 N   0  0  0  0  0  0  0  0  0  0  0  0
    8.7221  -15.5797   20.7955 C   0  0  0  0  0  0  0  0  0  0  0  0
    7.7359  -16.2097   21.2548 O   0  0  0  0  0  0  0  0  0  0  0  0
   11.3028  -18.3171   20.9462 C   0  0  0  0  0  0  0  0  0  0  0  0
   11.4648  -17.4954   22.2073 C   0  0  1  0  0  0  0  0  0  0  0  0
   12.5127  -16.6052   21.9758 O   0  0  0  0  0  0  0  0  0  0  0  0
   10.1989  -16.7021   22.4447 C   0  0  2  0  0  0  0  0  0  0  0  0
   10.0210  -15.7145   21.3882 N   0  0  0  0  0  0  0  0  0  0  0  0
   10.3044  -16.0566   23.7718 C   0  0  0  0  0  0  0  0  0  0  0  0
   10.4748  -14.8145   23.8258 O   0  0  0  0  0  0  0  0  0  0  0  0
   10.2233  -16.7627   24.9575 O   0  0  0  0  0  0  0  0  0  0  0  0
  2  1  1  0
  3  2  2  0
  4  2  1  0
  5  4  1  0
  6  5  1  0
  6  7  1  6
  8 14  1  0
  8  6  1  0
  9  8  2  0
 11 10  1  1
 11 13  1  0
 12 11  1  0
 13 14  1  6
 15 21  1  0
 15 13  1  0
 16 15  2  0
 18 20  1  0
 18 17  1  6
 19 18  1  0
 20 22  1  0
 20 21  1  6
 22 24  1  0
 23 22  2  0
M  END
$$$$
