QVT.pdb
     RDKit          3D

 24 23  0  0  1  0  0  0  0  0999 V2000
    8.2162  -19.7319   21.5748 N   0  0  0  0  0  0  0  0  0  0  0  0
    8.4601  -18.7010   20.6033 C   0  0  0  0  0  0  0  0  0  0  0  0
    9.4748  -18.8520   19.8846 O   0  0  0  0  0  0  0  0  0  0  0  0
    7.5353  -17.5565   20.5034 C   0  0  0  0  0  0  0  0  0  0  0  0
    7.3438  -16.7878   21.7639 C   0  0  0  0  0  0  0  0  0  0  0  0
    7.8092  -15.3706   21.7102 C   0  0  2  0  0  0  0  0  0  0  0  0
    8.7670  -15.1449   20.6336 N   0  0  0  0  0  0  0  0  0  0  0  0
    8.3971  -14.9329   23.0062 C   0  0  0  0  0  0  0  0  0  0  0  0
    9.6264  -15.0824   23.2295 O   0  0  0  0  0  0  0  0  0  0  0  0
    6.1023  -13.2274   26.2213 C   0  0  0  0  0  0  0  0  0  0  0  0
    7.4911  -12.6926   25.8782 C   0  0  1  0  0  0  0  0  0  0  0  0
    8.1142  -12.2621   27.1904 C   0  0  0  0  0  0  0  0  0  0  0  0
    8.2454  -13.8498   25.2527 C   0  0  2  0  0  0  0  0  0  0  0  0
    7.6359  -14.3337   24.0508 N   0  0  0  0  0  0  0  0  0  0  0  0
    8.4468  -14.9513   26.2535 C   0  0  0  0  0  0  0  0  0  0  0  0
    7.4764  -15.6126   26.7023 O   0  0  0  0  0  0  0  0  0  0  0  0
   10.3706  -17.9223   25.7559 C   0  0  0  0  0  0  0  0  0  0  0  0
   10.9762  -17.3268   27.0090 C   0  0  1  0  0  0  0  0  0  0  0  0
   12.1240  -16.6406   26.6145 O   0  0  0  0  0  0  0  0  0  0  0  0
   10.0007  -16.3364   27.6054 C   0  0  2  0  0  0  0  0  0  0  0  0
    9.7864  -15.2278   26.6843 N   0  0  0  0  0  0  0  0  0  0  0  0
   10.5552  -15.8655   28.8936 C   0  0  0  0  0  0  0  0  0  0  0  0
   10.8579  -14.6535   29.0123 O   0  0  0  0  0  0  0  0  0  0  0  0
   10.7552  -16.7034   29.9748 O   0  0  0  0  0  0  0  0  0  0  0  0
  2  1  1  0
  3  2  2  0
  4  2  1  0
  5  4  1  0
  6  5  1  0
  6  7  1  6
  8 14  1  0
  8  6  1  0
  9  8  2  0
 11 10  1  1
 11 13  1  0
 12 11  1  0
 13 14  1  6
 15 21  1  0
 15 13  1  0
 16 15  2  0
 18 20  1  0
 18 17  1  6
 19 18  1  0
 20 22  1  0
 20 21  1  6
 22 24  1  0
 23 22  2  0
M  END
$$$$
