QVT.pdb
     RDKit          3D

 24 23  0  0  1  0  0  0  0  0999 V2000
    5.2516  -20.0884   19.6076 N   0  0  0  0  0  0  0  0  0  0  0  0
    5.1512  -20.0258   18.1752 C   0  0  0  0  0  0  0  0  0  0  0  0
    4.1401  -20.5665   17.6708 O   0  0  0  0  0  0  0  0  0  0  0  0
    6.2064  -19.3508   17.3967 C   0  0  0  0  0  0  0  0  0  0  0  0
    7.2161  -18.6156   18.2071 C   0  0  0  0  0  0  0  0  0  0  0  0
    7.5855  -17.2702   17.6768 C   0  0  2  0  0  0  0  0  0  0  0  0
    8.3065  -17.3545   16.4118 N   0  0  0  0  0  0  0  0  0  0  0  0
    8.3857  -16.4896   18.6604 C   0  0  0  0  0  0  0  0  0  0  0  0
    9.6365  -16.6189   18.7080 O   0  0  0  0  0  0  0  0  0  0  0  0
    7.8901  -12.7463   19.5627 C   0  0  0  0  0  0  0  0  0  0  0  0
    8.0385  -13.4945   20.8858 C   0  0  1  0  0  0  0  0  0  0  0  0
    6.6442  -13.6029   21.4686 C   0  0  0  0  0  0  0  0  0  0  0  0
    8.6078  -14.8562   20.5381 C   0  0  2  0  0  0  0  0  0  0  0  0
    7.8120  -15.5717   19.5867 N   0  0  0  0  0  0  0  0  0  0  0  0
    8.8423  -15.6638   21.7824 C   0  0  0  0  0  0  0  0  0  0  0  0
    7.8844  -16.0799   22.4822 O   0  0  0  0  0  0  0  0  0  0  0  0
    9.9948  -18.8993   22.0702 C   0  0  0  0  0  0  0  0  0  0  0  0
   11.0354  -18.1244   22.8502 C   0  0  1  0  0  0  0  0  0  0  0  0
   12.0832  -17.8587   21.9695 O   0  0  0  0  0  0  0  0  0  0  0  0
   10.4364  -16.8104   23.3007 C   0  0  2  0  0  0  0  0  0  0  0  0
   10.1990  -15.9477   22.1506 N   0  0  0  0  0  0  0  0  0  0  0  0
   11.3736  -16.1836   24.2585 C   0  0  0  0  0  0  0  0  0  0  0  0
   12.0062  -15.1606   23.9008 O   0  0  0  0  0  0  0  0  0  0  0  0
   11.5838  -16.6761   25.5331 O   0  0  0  0  0  0  0  0  0  0  0  0
  2  1  1  0
  3  2  2  0
  4  2  1  0
  5  4  1  0
  6  5  1  0
  6  7  1  6
  8 14  1  0
  8  6  1  0
  9  8  2  0
 11 10  1  6
 11 13  1  0
 12 11  1  0
 13 14  1  6
 15 21  1  0
 15 13  1  0
 16 15  2  0
 18 20  1  0
 18 17  1  6
 19 18  1  0
 20 22  1  0
 20 21  1  6
 22 24  1  0
 23 22  2  0
M  END
$$$$
