WDP.pdb
     RDKit          3D

 30 32  0  0  1  0  0  0  0  0999 V2000
   20.9889  -13.9808  -18.6139 N   0  0  0  0  0  0  0  0  0  0  0  0
   20.6427  -13.4629  -17.3369 C   0  0  1  0  0  0  0  0  0  0  0  0
   21.5152  -13.8455  -16.1917 C   0  0  0  0  0  0  0  0  0  0  0  0
   21.5151  -15.2937  -15.8717 C   0  0  0  0  0  0  0  0  0  0  0  0
   22.2623  -16.2872  -16.4470 C   0  0  0  0  0  0  0  0  0  0  0  0
   21.9446  -17.4433  -15.8911 N   0  0  0  0  0  0  0  0  0  0  0  0
   21.0051  -17.2146  -14.9658 C   0  0  0  0  0  0  0  0  0  0  0  0
   20.3352  -18.0806  -14.0935 C   0  0  0  0  0  0  0  0  0  0  0  0
   19.4041  -17.5573  -13.2242 C   0  0  0  0  0  0  0  0  0  0  0  0
   19.1124  -16.2186  -13.1851 C   0  0  0  0  0  0  0  0  0  0  0  0
   19.7657  -15.3686  -14.0372 C   0  0  0  0  0  0  0  0  0  0  0  0
   20.6992  -15.8768  -14.9131 C   0  0  0  0  0  0  0  0  0  0  0  0
   20.4518  -11.9769  -17.4658 C   0  0  0  0  0  0  0  0  0  0  0  0
   21.3430  -11.3337  -18.0824 O   0  0  0  0  0  0  0  0  0  0  0  0
   19.3406  -11.3342  -16.9280 N   0  0  0  0  0  0  0  0  0  0  0  0
   19.1074   -9.8665  -16.9764 C   0  0  1  0  0  0  0  0  0  0  0  0
   17.6444   -9.6288  -16.6833 C   0  0  0  0  0  0  0  0  0  0  0  0
   17.1717   -8.2742  -16.6044 C   0  0  0  0  0  0  0  0  0  0  0  0
   16.4595   -7.8620  -15.6235 O   0  0  0  0  0  0  0  0  0  0  0  0
   20.0526   -9.2391  -16.0544 C   0  0  0  0  0  0  0  0  0  0  0  0
   20.3762   -9.9277  -15.0173 O   0  0  0  0  0  0  0  0  0  0  0  0
   17.4313   -7.2812  -17.5658 O   0  0  0  0  0  0  0  0  0  0  0  0
   20.6610   -7.9705  -16.1607 N   0  0  0  0  0  0  0  0  0  0  0  0
   20.3869   -7.0520  -17.2905 C   0  0  0  0  0  0  0  0  0  0  0  0
   21.8144   -6.7889  -17.7338 C   0  0  0  0  0  0  0  0  0  0  0  0
   22.5447   -6.6431  -16.3947 C   0  0  0  0  0  0  0  0  0  0  0  0
   21.6078   -7.2387  -15.3734 C   0  0  1  0  0  0  0  0  0  0  0  0
   20.9221   -6.1403  -14.5864 C   0  0  0  0  0  0  0  0  0  0  0  0
   19.6064   -5.8359  -14.8584 O   0  0  0  0  0  0  0  0  0  0  0  0
   21.5498   -5.5293  -13.7092 O   0  0  0  0  0  0  0  0  0  0  0  0
  2  1  1  6
  2 13  1  0
  2  3  1  0
  3  4  1  0
  4 12  1  0
  4  5  2  0
  5  6  1  0
  7  8  2  0
  7  6  1  0
  9  8  1  0
 10  9  2  0
 11 10  1  0
 11 12  2  0
 12  7  1  0
 13 14  2  0
 15 13  1  0
 15 16  1  0
 16 17  1  1
 17 18  1  0
 18 22  1  0
 19 18  2  0
 20 16  1  0
 21 20  2  0
 23 20  1  0
 23 27  1  0
 24 23  1  0
 25 24  1  0
 25 26  1  0
 26 27  1  0
 27 28  1  6
 28 29  1  0
 30 28  2  0
M  END
$$$$
