WDP.pdb
     RDKit          3D

 30 32  0  0  1  0  0  0  0  0999 V2000
   28.0532  -21.4326   -9.1717 N   0  0  0  0  0  0  0  0  0  0  0  0
   26.8486  -20.6967   -9.0098 C   0  0  1  0  0  0  0  0  0  0  0  0
   26.9745  -19.2240   -8.8246 C   0  0  0  0  0  0  0  0  0  0  0  0
   27.6809  -18.8151   -7.5863 C   0  0  0  0  0  0  0  0  0  0  0  0
   28.4420  -17.6955   -7.3771 C   0  0  0  0  0  0  0  0  0  0  0  0
   28.9140  -17.7188   -6.1429 N   0  0  0  0  0  0  0  0  0  0  0  0
   28.4709  -18.8339   -5.5501 C   0  0  0  0  0  0  0  0  0  0  0  0
   28.6672  -19.3356   -4.2580 C   0  0  0  0  0  0  0  0  0  0  0  0
   28.0712  -20.5279   -3.9116 C   0  0  0  0  0  0  0  0  0  0  0  0
   27.2935  -21.2380   -4.7889 C   0  0  0  0  0  0  0  0  0  0  0  0
   27.0996  -20.7502   -6.0537 C   0  0  0  0  0  0  0  0  0  0  0  0
   27.6896  -19.5594   -6.4157 C   0  0  0  0  0  0  0  0  0  0  0  0
   25.9103  -21.0761  -10.1221 C   0  0  0  0  0  0  0  0  0  0  0  0
   26.3918  -21.7378  -11.0805 O   0  0  0  0  0  0  0  0  0  0  0  0
   24.5669  -20.7132  -10.0995 N   0  0  0  0  0  0  0  0  0  0  0  0
   23.5928  -21.0105  -11.1829 C   0  0  1  0  0  0  0  0  0  0  0  0
   22.2359  -20.5373  -10.7165 C   0  0  0  0  0  0  0  0  0  0  0  0
   21.1187  -20.6688  -11.6105 C   0  0  0  0  0  0  0  0  0  0  0  0
   21.2598  -21.0835  -12.8137 O   0  0  0  0  0  0  0  0  0  0  0  0
   24.0960  -20.3945  -12.4096 C   0  0  0  0  0  0  0  0  0  0  0  0
   24.5522  -19.1971  -12.2978 O   0  0  0  0  0  0  0  0  0  0  0  0
   19.7872  -20.3667  -11.2736 O   0  0  0  0  0  0  0  0  0  0  0  0
   24.1490  -20.9510  -13.7050 N   0  0  0  0  0  0  0  0  0  0  0  0
   23.6679  -22.3210  -13.9996 C   0  0  0  0  0  0  0  0  0  0  0  0
   24.9104  -22.8678  -14.6783 C   0  0  0  0  0  0  0  0  0  0  0  0
   25.3503  -21.6833  -15.5451 C   0  0  0  0  0  0  0  0  0  0  0  0
   24.6162  -20.4930  -14.9793 C   0  0  1  0  0  0  0  0  0  0  0  0
   23.4552  -20.1169  -15.8774 C   0  0  0  0  0  0  0  0  0  0  0  0
   23.6771  -19.2897  -16.9564 O   0  0  0  0  0  0  0  0  0  0  0  0
   22.3219  -20.5559  -15.6329 O   0  0  0  0  0  0  0  0  0  0  0  0
  2  1  1  6
  2 13  1  0
  2  3  1  0
  3  4  1  0
  4 12  1  0
  4  5  2  0
  5  6  1  0
  7  8  2  0
  7  6  1  0
  9  8  1  0
 10  9  2  0
 11 10  1  0
 11 12  2  0
 12  7  1  0
 13 14  2  0
 15 13  1  0
 15 16  1  0
 16 17  1  1
 17 18  1  0
 18 22  1  0
 19 18  2  0
 20 16  1  0
 21 20  2  0
 23 20  1  0
 23 27  1  0
 24 23  1  0
 25 24  1  0
 25 26  1  0
 26 27  1  0
 27 28  1  6
 28 29  1  0
 30 28  2  0
M  END
$$$$
