WDP.pdb
     RDKit          3D

 30 32  0  0  1  0  0  0  0  0999 V2000
   27.0891  -22.3488  -12.8269 N   0  0  0  0  0  0  0  0  0  0  0  0
   26.1993  -21.3737  -12.3012 C   0  0  1  0  0  0  0  0  0  0  0  0
   26.8062  -20.1285  -11.7533 C   0  0  0  0  0  0  0  0  0  0  0  0
   27.8235  -20.3499  -10.6970 C   0  0  0  0  0  0  0  0  0  0  0  0
   29.1536  -20.6386  -10.8508 C   0  0  0  0  0  0  0  0  0  0  0  0
   29.7044  -20.7847   -9.6583 N   0  0  0  0  0  0  0  0  0  0  0  0
   28.7535  -20.5950   -8.7359 C   0  0  0  0  0  0  0  0  0  0  0  0
   28.8012  -20.6281   -7.3373 C   0  0  0  0  0  0  0  0  0  0  0  0
   27.6468  -20.3817   -6.6279 C   0  0  0  0  0  0  0  0  0  0  0  0
   26.4547  -20.1055   -7.2454 C   0  0  0  0  0  0  0  0  0  0  0  0
   26.4043  -20.0726   -8.6136 C   0  0  0  0  0  0  0  0  0  0  0  0
   27.5503  -20.3177   -9.3373 C   0  0  0  0  0  0  0  0  0  0  0  0
   25.1290  -21.1108  -13.3243 C   0  0  0  0  0  0  0  0  0  0  0  0
   25.4943  -20.6208  -14.4264 O   0  0  0  0  0  0  0  0  0  0  0  0
   23.7903  -21.3937  -13.0694 N   0  0  0  0  0  0  0  0  0  0  0  0
   22.6845  -21.1974  -14.0440 C   0  0  1  0  0  0  0  0  0  0  0  0
   22.3673  -22.5451  -14.6489 C   0  0  0  0  0  0  0  0  0  0  0  0
   21.8243  -22.5897  -15.9785 C   0  0  0  0  0  0  0  0  0  0  0  0
   20.5750  -22.4244  -16.2053 O   0  0  0  0  0  0  0  0  0  0  0  0
   21.5857  -20.5408  -13.3379 C   0  0  0  0  0  0  0  0  0  0  0  0
   21.4535  -20.8366  -12.0931 O   0  0  0  0  0  0  0  0  0  0  0  0
   22.5813  -22.8123  -17.1426 O   0  0  0  0  0  0  0  0  0  0  0  0
   20.6507  -19.6164  -13.8498 N   0  0  0  0  0  0  0  0  0  0  0  0
   20.6447  -19.1998  -15.2716 C   0  0  0  0  0  0  0  0  0  0  0  0
   20.6899  -17.6952  -15.0779 C   0  0  0  0  0  0  0  0  0  0  0  0
   19.7260  -17.4934  -13.9041 C   0  0  0  0  0  0  0  0  0  0  0  0
   19.5700  -18.8619  -13.2887 C   0  0  1  0  0  0  0  0  0  0  0  0
   18.2336  -19.4623  -13.6754 C   0  0  0  0  0  0  0  0  0  0  0  0
   17.1206  -19.1774  -12.9153 O   0  0  0  0  0  0  0  0  0  0  0  0
   18.1559  -20.2006  -14.6683 O   0  0  0  0  0  0  0  0  0  0  0  0
  2  1  1  6
  2 13  1  0
  2  3  1  0
  3  4  1  0
  4 12  1  0
  4  5  2  0
  5  6  1  0
  7  8  2  0
  7  6  1  0
  9  8  1  0
 10  9  2  0
 11 10  1  0
 11 12  2  0
 12  7  1  0
 13 14  2  0
 15 13  1  0
 15 16  1  0
 16 17  1  1
 17 18  1  0
 18 22  1  0
 19 18  2  0
 20 16  1  0
 21 20  2  0
 23 20  1  0
 23 27  1  0
 24 23  1  0
 25 24  1  0
 25 26  1  0
 26 27  1  0
 27 28  1  6
 28 29  1  0
 30 28  2  0
M  END
$$$$
