WDP.pdb
     RDKit          3D

 30 32  0  0  1  0  0  0  0  0999 V2000
   24.7406  -19.7107  -12.0496 N   0  0  0  0  0  0  0  0  0  0  0  0
   25.9106  -20.4992  -12.2180 C   0  0  1  0  0  0  0  0  0  0  0  0
   26.1937  -21.5224  -11.1729 C   0  0  0  0  0  0  0  0  0  0  0  0
   26.3225  -20.9819   -9.7978 C   0  0  0  0  0  0  0  0  0  0  0  0
   25.3293  -20.5271   -8.9713 C   0  0  0  0  0  0  0  0  0  0  0  0
   25.8678  -20.1073   -7.8397 N   0  0  0  0  0  0  0  0  0  0  0  0
   27.1921  -20.2831   -7.9200 C   0  0  0  0  0  0  0  0  0  0  0  0
   28.2183  -20.0149   -7.0064 C   0  0  0  0  0  0  0  0  0  0  0  0
   29.5158  -20.3113   -7.3601 C   0  0  0  0  0  0  0  0  0  0  0  0
   29.8348  -20.8595   -8.5752 C   0  0  0  0  0  0  0  0  0  0  0  0
   28.8334  -21.1230   -9.4715 C   0  0  0  0  0  0  0  0  0  0  0  0
   27.5306  -20.8315   -9.1328 C   0  0  0  0  0  0  0  0  0  0  0  0
   25.9038  -21.0624  -13.6123 C   0  0  0  0  0  0  0  0  0  0  0  0
   24.8410  -21.6143  -14.0048 O   0  0  0  0  0  0  0  0  0  0  0  0
   27.0214  -20.9814  -14.4377 N   0  0  0  0  0  0  0  0  0  0  0  0
   27.0694  -21.4593  -15.8450 C   0  0  1  0  0  0  0  0  0  0  0  0
   28.0722  -20.6027  -16.5820 C   0  0  0  0  0  0  0  0  0  0  0  0
   27.8534  -19.1836  -16.6370 C   0  0  0  0  0  0  0  0  0  0  0  0
   26.7024  -18.6859  -16.8960 O   0  0  0  0  0  0  0  0  0  0  0  0
   27.3554  -22.8926  -15.8144 C   0  0  0  0  0  0  0  0  0  0  0  0
   28.0858  -23.3052  -14.8394 O   0  0  0  0  0  0  0  0  0  0  0  0
   28.8480  -18.2137  -16.4186 O   0  0  0  0  0  0  0  0  0  0  0  0
   26.9261  -23.8856  -16.7202 N   0  0  0  0  0  0  0  0  0  0  0  0
   26.0759  -23.5748  -17.8930 C   0  0  0  0  0  0  0  0  0  0  0  0
   24.9599  -24.5738  -17.6483 C   0  0  0  0  0  0  0  0  0  0  0  0
   25.7342  -25.8148  -17.1922 C   0  0  0  0  0  0  0  0  0  0  0  0
   27.1033  -25.3037  -16.8179 C   0  0  1  0  0  0  0  0  0  0  0  0
   28.1066  -25.6498  -17.8994 C   0  0  0  0  0  0  0  0  0  0  0  0
   28.4378  -24.7006  -18.8413 O   0  0  0  0  0  0  0  0  0  0  0  0
   28.6173  -26.7791  -17.9252 O   0  0  0  0  0  0  0  0  0  0  0  0
  2  1  1  1
  2 13  1  0
  2  3  1  0
  3  4  1  0
  4 12  1  0
  4  5  2  0
  5  6  1  0
  7  8  2  0
  7  6  1  0
  9  8  1  0
 10  9  2  0
 11 10  1  0
 11 12  2  0
 12  7  1  0
 13 14  2  0
 15 13  1  0
 15 16  1  0
 16 17  1  6
 17 18  1  0
 18 22  1  0
 19 18  2  0
 20 16  1  0
 21 20  2  0
 23 20  1  0
 23 27  1  0
 24 23  1  0
 25 24  1  0
 25 26  1  0
 26 27  1  0
 27 28  1  6
 28 29  1  0
 30 28  2  0
M  END
$$$$
