WDP.pdb
     RDKit          3D

 30 32  0  0  1  0  0  0  0  0999 V2000
   22.1128  -21.3201  -19.2833 N   0  0  0  0  0  0  0  0  0  0  0  0
   21.8910  -20.5824  -18.0894 C   0  0  1  0  0  0  0  0  0  0  0  0
   20.5846  -20.7830  -17.4023 C   0  0  0  0  0  0  0  0  0  0  0  0
   19.4068  -20.2941  -18.1594 C   0  0  0  0  0  0  0  0  0  0  0  0
   18.4486  -21.0323  -18.8024 C   0  0  0  0  0  0  0  0  0  0  0  0
   17.5853  -20.2128  -19.3766 N   0  0  0  0  0  0  0  0  0  0  0  0
   17.9683  -18.9573  -19.1157 C   0  0  0  0  0  0  0  0  0  0  0  0
   17.4097  -17.7254  -19.4765 C   0  0  0  0  0  0  0  0  0  0  0  0
   18.0243  -16.5683  -19.0523 C   0  0  0  0  0  0  0  0  0  0  0  0
   19.1630  -16.5833  -18.2896 C   0  0  0  0  0  0  0  0  0  0  0  0
   19.7124  -17.7866  -17.9349 C   0  0  0  0  0  0  0  0  0  0  0  0
   19.1099  -18.9528  -18.3521 C   0  0  0  0  0  0  0  0  0  0  0  0
   23.0743  -20.7836  -17.1834 C   0  0  0  0  0  0  0  0  0  0  0  0
   23.6162  -21.9214  -17.1888 O   0  0  0  0  0  0  0  0  0  0  0  0
   23.5536  -19.7606  -16.3706 N   0  0  0  0  0  0  0  0  0  0  0  0
   24.6821  -19.9006  -15.4125 C   0  0  1  0  0  0  0  0  0  0  0  0
   25.3531  -18.5516  -15.3003 C   0  0  0  0  0  0  0  0  0  0  0  0
   26.0647  -18.0422  -16.4399 C   0  0  0  0  0  0  0  0  0  0  0  0
   27.0860  -18.6437  -16.9244 O   0  0  0  0  0  0  0  0  0  0  0  0
   24.1405  -20.4489  -14.1702 C   0  0  0  0  0  0  0  0  0  0  0  0
   22.8601  -20.5541  -14.1067 O   0  0  0  0  0  0  0  0  0  0  0  0
   25.7284  -16.8634  -17.1291 O   0  0  0  0  0  0  0  0  0  0  0  0
   24.8475  -20.8833  -13.0291 N   0  0  0  0  0  0  0  0  0  0  0  0
   26.3253  -20.8231  -12.9415 C   0  0  0  0  0  0  0  0  0  0  0  0
   26.5996  -22.2680  -12.5666 C   0  0  0  0  0  0  0  0  0  0  0  0
   25.4829  -22.5554  -11.5576 C   0  0  0  0  0  0  0  0  0  0  0  0
   24.4734  -21.4547  -11.7699 C   0  0  1  0  0  0  0  0  0  0  0  0
   24.5741  -20.4286  -10.6595 C   0  0  0  0  0  0  0  0  0  0  0  0
   23.9332  -20.6641   -9.4631 O   0  0  0  0  0  0  0  0  0  0  0  0
   25.2298  -19.3919  -10.8385 O   0  0  0  0  0  0  0  0  0  0  0  0
  2  1  1  6
  2 13  1  0
  2  3  1  0
  3  4  1  0
  4 12  1  0
  4  5  2  0
  5  6  1  0
  7  8  2  0
  7  6  1  0
  9  8  1  0
 10  9  2  0
 11 10  1  0
 11 12  2  0
 12  7  1  0
 13 14  2  0
 15 13  1  0
 15 16  1  0
 16 17  1  1
 17 18  1  0
 18 22  1  0
 19 18  2  0
 20 16  1  0
 21 20  2  0
 23 20  1  0
 23 27  1  0
 24 23  1  0
 25 24  1  0
 25 26  1  0
 26 27  1  0
 27 28  1  1
 28 29  1  0
 30 28  2  0
M  END
$$$$
