WDP.pdb
     RDKit          3D

 30 32  0  0  1  0  0  0  0  0999 V2000
   26.4899  -21.8825  -11.4388 N   0  0  0  0  0  0  0  0  0  0  0  0
   25.8819  -21.0196  -10.4877 C   0  0  1  0  0  0  0  0  0  0  0  0
   26.6978  -19.8761   -9.9920 C   0  0  0  0  0  0  0  0  0  0  0  0
   27.9708  -20.2634   -9.3369 C   0  0  0  0  0  0  0  0  0  0  0  0
   29.0708  -20.8489   -9.9057 C   0  0  0  0  0  0  0  0  0  0  0  0
   29.9834  -21.0520   -8.9716 N   0  0  0  0  0  0  0  0  0  0  0  0
   29.4927  -20.6075   -7.8085 C   0  0  0  0  0  0  0  0  0  0  0  0
   30.0445  -20.5776   -6.5223 C   0  0  0  0  0  0  0  0  0  0  0  0
   29.3010  -20.0437   -5.4935 C   0  0  0  0  0  0  0  0  0  0  0  0
   28.0405  -19.5413   -5.6873 C   0  0  0  0  0  0  0  0  0  0  0  0
   27.4975  -19.5691   -6.9442 C   0  0  0  0  0  0  0  0  0  0  0  0
   28.2283  -20.1006   -7.9836 C   0  0  0  0  0  0  0  0  0  0  0  0
   24.5385  -20.6025  -11.0196 C   0  0  0  0  0  0  0  0  0  0  0  0
   24.0581  -19.5214  -10.5853 O   0  0  0  0  0  0  0  0  0  0  0  0
   23.8504  -21.3746  -11.9509 N   0  0  0  0  0  0  0  0  0  0  0  0
   22.6111  -20.9472  -12.6526 C   0  0  1  0  0  0  0  0  0  0  0  0
   22.9503  -20.7848  -14.1159 C   0  0  0  0  0  0  0  0  0  0  0  0
   23.6815  -19.6176  -14.5253 C   0  0  0  0  0  0  0  0  0  0  0  0
   23.3539  -18.4426  -14.1360 O   0  0  0  0  0  0  0  0  0  0  0  0
   21.5698  -21.9259  -12.3442 C   0  0  0  0  0  0  0  0  0  0  0  0
   21.9240  -23.1619  -12.3794 O   0  0  0  0  0  0  0  0  0  0  0  0
   24.8040  -19.6355  -15.3723 O   0  0  0  0  0  0  0  0  0  0  0  0
   20.2211  -21.6853  -12.0069 N   0  0  0  0  0  0  0  0  0  0  0  0
   19.6449  -20.3209  -11.9679 C   0  0  0  0  0  0  0  0  0  0  0  0
   19.0641  -20.3488  -10.5660 C   0  0  0  0  0  0  0  0  0  0  0  0
   18.4699  -21.7591  -10.4927 C   0  0  0  0  0  0  0  0  0  0  0  0
   19.1145  -22.5129  -11.6294 C   0  0  1  0  0  0  0  0  0  0  0  0
   18.1381  -22.6668  -12.7778 C   0  0  0  0  0  0  0  0  0  0  0  0
   17.1885  -23.6635  -12.7272 O   0  0  0  0  0  0  0  0  0  0  0  0
   18.2035  -21.8969  -13.7473 O   0  0  0  0  0  0  0  0  0  0  0  0
  2  1  1  6
  2 13  1  0
  2  3  1  0
  3  4  1  0
  4 12  1  0
  4  5  2  0
  5  6  1  0
  7  8  2  0
  7  6  1  0
  9  8  1  0
 10  9  2  0
 11 10  1  0
 11 12  2  0
 12  7  1  0
 13 14  2  0
 15 13  1  0
 15 16  1  0
 16 17  1  6
 17 18  1  0
 18 22  1  0
 19 18  2  0
 20 16  1  0
 21 20  2  0
 23 20  1  0
 23 27  1  0
 24 23  1  0
 25 24  1  0
 25 26  1  0
 26 27  1  0
 27 28  1  6
 28 29  1  0
 30 28  2  0
M  END
$$$$
