WDP.pdb
     RDKit          3D

 30 32  0  0  1  0  0  0  0  0999 V2000
   25.4291  -19.4957   -9.0681 N   0  0  0  0  0  0  0  0  0  0  0  0
   26.6117  -20.2402   -9.3251 C   0  0  1  0  0  0  0  0  0  0  0  0
   27.1574  -21.0532   -8.2024 C   0  0  0  0  0  0  0  0  0  0  0  0
   27.3595  -20.3043   -6.9384 C   0  0  0  0  0  0  0  0  0  0  0  0
   26.4525  -19.5391   -6.2542 C   0  0  0  0  0  0  0  0  0  0  0  0
   27.0394  -19.0234   -5.1883 N   0  0  0  0  0  0  0  0  0  0  0  0
   28.3104  -19.4422   -5.1710 C   0  0  0  0  0  0  0  0  0  0  0  0
   29.3528  -19.1989   -4.2688 C   0  0  0  0  0  0  0  0  0  0  0  0
   30.5800  -19.7790   -4.5007 C   0  0  0  0  0  0  0  0  0  0  0  0
   30.8139  -20.5856   -5.5839 C   0  0  0  0  0  0  0  0  0  0  0  0
   29.7965  -20.8257   -6.4687 C   0  0  0  0  0  0  0  0  0  0  0  0
   28.5634  -20.2520   -6.2510 C   0  0  0  0  0  0  0  0  0  0  0  0
   26.4057  -21.0336  -10.5858 C   0  0  0  0  0  0  0  0  0  0  0  0
   27.2854  -21.8870  -10.8788 O   0  0  0  0  0  0  0  0  0  0  0  0
   25.2932  -20.8367  -11.3986 N   0  0  0  0  0  0  0  0  0  0  0  0
   25.1653  -21.3384  -12.7925 C   0  0  1  0  0  0  0  0  0  0  0  0
   23.7352  -21.7860  -12.9850 C   0  0  0  0  0  0  0  0  0  0  0  0
   23.3457  -22.3066  -14.2664 C   0  0  0  0  0  0  0  0  0  0  0  0
   24.0845  -23.1251  -14.9173 O   0  0  0  0  0  0  0  0  0  0  0  0
   25.6278  -20.2785  -13.6869 C   0  0  0  0  0  0  0  0  0  0  0  0
   25.3571  -19.0736  -13.3270 O   0  0  0  0  0  0  0  0  0  0  0  0
   22.1466  -21.9854  -14.9272 O   0  0  0  0  0  0  0  0  0  0  0  0
   26.3403  -20.4100  -14.8975 N   0  0  0  0  0  0  0  0  0  0  0  0
   26.7347  -21.7286  -15.4461 C   0  0  0  0  0  0  0  0  0  0  0  0
   28.2193  -21.4736  -15.6320 C   0  0  0  0  0  0  0  0  0  0  0  0
   28.2330  -20.0433  -16.1815 C   0  0  0  0  0  0  0  0  0  0  0  0
   26.8666  -19.4901  -15.8612 C   0  0  1  0  0  0  0  0  0  0  0  0
   26.0060  -19.4622  -17.1080 C   0  0  0  0  0  0  0  0  0  0  0  0
   26.1305  -18.4118  -17.9905 O   0  0  0  0  0  0  0  0  0  0  0  0
   25.2019  -20.3816  -17.3203 O   0  0  0  0  0  0  0  0  0  0  0  0
  2  1  1  1
  2 13  1  0
  2  3  1  0
  3  4  1  0
  4 12  1  0
  4  5  2  0
  5  6  1  0
  7  8  2  0
  7  6  1  0
  9  8  1  0
 10  9  2  0
 11 10  1  0
 11 12  2  0
 12  7  1  0
 13 14  2  0
 15 13  1  0
 15 16  1  0
 16 17  1  6
 17 18  1  0
 18 22  1  0
 19 18  2  0
 20 16  1  0
 21 20  2  0
 23 20  1  0
 23 27  1  0
 24 23  1  0
 25 24  1  0
 25 26  1  0
 26 27  1  0
 27 28  1  6
 28 29  1  0
 30 28  2  0
M  END
$$$$
