WDP.pdb
     RDKit          3D

 30 32  0  0  1  0  0  0  0  0999 V2000
   28.2283  -19.7167   -9.9693 N   0  0  0  0  0  0  0  0  0  0  0  0
   27.1612  -20.6375   -9.7893 C   0  0  1  0  0  0  0  0  0  0  0  0
   26.3035  -20.4529   -8.5853 C   0  0  0  0  0  0  0  0  0  0  0  0
   26.9362  -19.6810   -7.4883 C   0  0  0  0  0  0  0  0  0  0  0  0
   26.7352  -18.3684   -7.1524 C   0  0  0  0  0  0  0  0  0  0  0  0
   27.5118  -18.0610   -6.1282 N   0  0  0  0  0  0  0  0  0  0  0  0
   28.2114  -19.1523   -5.7956 C   0  0  0  0  0  0  0  0  0  0  0  0
   29.1605  -19.3724   -4.7904 C   0  0  0  0  0  0  0  0  0  0  0  0
   29.7235  -20.6236   -4.6719 C   0  0  0  0  0  0  0  0  0  0  0  0
   29.3856  -21.6587   -5.5044 C   0  0  0  0  0  0  0  0  0  0  0  0
   28.4577  -21.4469   -6.4891 C   0  0  0  0  0  0  0  0  0  0  0  0
   27.8860  -20.2008   -6.6210 C   0  0  0  0  0  0  0  0  0  0  0  0
   26.3769  -20.7078  -11.0704 C   0  0  0  0  0  0  0  0  0  0  0  0
   26.1588  -19.6220  -11.6719 O   0  0  0  0  0  0  0  0  0  0  0  0
   25.9087  -21.9177  -11.5742 N   0  0  0  0  0  0  0  0  0  0  0  0
   25.0948  -22.0602  -12.8105 C   0  0  1  0  0  0  0  0  0  0  0  0
   25.2559  -23.4807  -13.2994 C   0  0  0  0  0  0  0  0  0  0  0  0
   24.5231  -23.8924  -14.4649 C   0  0  0  0  0  0  0  0  0  0  0  0
   24.8245  -23.4737  -15.6367 O   0  0  0  0  0  0  0  0  0  0  0  0
   23.7296  -21.6472  -12.4897 C   0  0  0  0  0  0  0  0  0  0  0  0
   23.3699  -21.7799  -11.2619 O   0  0  0  0  0  0  0  0  0  0  0  0
   23.4280  -24.7745  -14.4484 O   0  0  0  0  0  0  0  0  0  0  0  0
   22.7540  -21.1149  -13.3590 N   0  0  0  0  0  0  0  0  0  0  0  0
   23.0216  -20.8683  -14.7952 C   0  0  0  0  0  0  0  0  0  0  0  0
   22.6005  -19.4120  -14.8682 C   0  0  0  0  0  0  0  0  0  0  0  0
   21.3365  -19.3996  -14.0021 C   0  0  0  0  0  0  0  0  0  0  0  0
   21.3983  -20.6787  -13.2047 C   0  0  1  0  0  0  0  0  0  0  0  0
   20.4339  -21.6993  -13.7740 C   0  0  0  0  0  0  0  0  0  0  0  0
   20.8778  -22.5881  -14.7284 O   0  0  0  0  0  0  0  0  0  0  0  0
   19.2600  -21.7241  -13.3764 O   0  0  0  0  0  0  0  0  0  0  0  0
  2  1  1  6
  2 13  1  0
  2  3  1  0
  3  4  1  0
  4 12  1  0
  4  5  2  0
  5  6  1  0
  7  8  2  0
  7  6  1  0
  9  8  1  0
 10  9  2  0
 11 10  1  0
 11 12  2  0
 12  7  1  0
 13 14  2  0
 15 13  1  0
 15 16  1  0
 16 17  1  1
 17 18  1  0
 18 22  1  0
 19 18  2  0
 20 16  1  0
 21 20  2  0
 23 20  1  0
 23 27  1  0
 24 23  1  0
 25 24  1  0
 25 26  1  0
 26 27  1  0
 27 28  1  6
 28 29  1  0
 30 28  2  0
M  END
$$$$
