WDP.pdb
     RDKit          3D

 30 32  0  0  1  0  0  0  0  0999 V2000
   28.1325  -20.4194   -9.6352 N   0  0  0  0  0  0  0  0  0  0  0  0
   26.8612  -21.0289   -9.4588 C   0  0  1  0  0  0  0  0  0  0  0  0
   26.1036  -20.6706   -8.2272 C   0  0  0  0  0  0  0  0  0  0  0  0
   26.8392  -19.7964   -7.2816 C   0  0  0  0  0  0  0  0  0  0  0  0
   26.9944  -18.4364   -7.3329 C   0  0  0  0  0  0  0  0  0  0  0  0
   27.7409  -18.0482   -6.3138 N   0  0  0  0  0  0  0  0  0  0  0  0
   28.0709  -19.1337   -5.6039 C   0  0  0  0  0  0  0  0  0  0  0  0
   28.8332  -19.2811   -4.4391 C   0  0  0  0  0  0  0  0  0  0  0  0
   29.0046  -20.5424   -3.9134 C   0  0  0  0  0  0  0  0  0  0  0  0
   28.4541  -21.6562   -4.4924 C   0  0  0  0  0  0  0  0  0  0  0  0
   27.7079  -21.5157   -5.6321 C   0  0  0  0  0  0  0  0  0  0  0  0
   27.5280  -20.2608   -6.1705 C   0  0  0  0  0  0  0  0  0  0  0  0
   26.0661  -20.8366  -10.7206 C   0  0  0  0  0  0  0  0  0  0  0  0
   25.9636  -19.6609  -11.1626 O   0  0  0  0  0  0  0  0  0  0  0  0
   25.4660  -21.9080  -11.3757 N   0  0  0  0  0  0  0  0  0  0  0  0
   24.7497  -21.8103  -12.6751 C   0  0  1  0  0  0  0  0  0  0  0  0
   24.8671  -23.1515  -13.3607 C   0  0  0  0  0  0  0  0  0  0  0  0
   25.3454  -23.1902  -14.7151 C   0  0  0  0  0  0  0  0  0  0  0  0
   25.5195  -22.1238  -15.4021 O   0  0  0  0  0  0  0  0  0  0  0  0
   23.3893  -21.3539  -12.3955 C   0  0  0  0  0  0  0  0  0  0  0  0
   22.9567  -21.5563  -11.2012 O   0  0  0  0  0  0  0  0  0  0  0  0
   25.6662  -24.3672  -15.4148 O   0  0  0  0  0  0  0  0  0  0  0  0
   22.4886  -20.7127  -13.2721 N   0  0  0  0  0  0  0  0  0  0  0  0
   22.8515  -20.3631  -14.6653 C   0  0  0  0  0  0  0  0  0  0  0  0
   22.4905  -18.8891  -14.6416 C   0  0  0  0  0  0  0  0  0  0  0  0
   21.1780  -18.8928  -13.8510 C   0  0  0  0  0  0  0  0  0  0  0  0
   21.1434  -20.2333  -13.1598 C   0  0  1  0  0  0  0  0  0  0  0  0
   20.1775  -21.1631  -13.8657 C   0  0  0  0  0  0  0  0  0  0  0  0
   20.6492  -22.0087  -14.8456 O   0  0  0  0  0  0  0  0  0  0  0  0
   18.9774  -21.1535  -13.5551 O   0  0  0  0  0  0  0  0  0  0  0  0
  2  1  1  6
  2 13  1  0
  2  3  1  0
  3  4  1  0
  4 12  1  0
  4  5  2  0
  5  6  1  0
  7  8  2  0
  7  6  1  0
  9  8  1  0
 10  9  2  0
 11 10  1  0
 11 12  2  0
 12  7  1  0
 13 14  2  0
 15 13  1  0
 15 16  1  0
 16 17  1  1
 17 18  1  0
 18 22  1  0
 19 18  2  0
 20 16  1  0
 21 20  2  0
 23 20  1  0
 23 27  1  0
 24 23  1  0
 25 24  1  0
 25 26  1  0
 26 27  1  0
 27 28  1  6
 28 29  1  0
 30 28  2  0
M  END
$$$$
