WDP.pdb
     RDKit          3D

 30 32  0  0  1  0  0  0  0  0999 V2000
   27.1185  -20.5500  -13.8686 N   0  0  0  0  0  0  0  0  0  0  0  0
   27.9233  -20.7121  -12.7090 C   0  0  1  0  0  0  0  0  0  0  0  0
   29.3228  -20.2067  -12.7800 C   0  0  0  0  0  0  0  0  0  0  0  0
   30.3599  -21.2653  -12.8391 C   0  0  0  0  0  0  0  0  0  0  0  0
   30.7206  -22.0372  -13.9117 C   0  0  0  0  0  0  0  0  0  0  0  0
   31.6690  -22.8786  -13.5386 N   0  0  0  0  0  0  0  0  0  0  0  0
   31.9282  -22.6640  -12.2433 C   0  0  0  0  0  0  0  0  0  0  0  0
   32.8385  -23.2695  -11.3689 C   0  0  0  0  0  0  0  0  0  0  0  0
   32.8965  -22.8325  -10.0643 C   0  0  0  0  0  0  0  0  0  0  0  0
   32.0935  -21.8258   -9.5946 C   0  0  0  0  0  0  0  0  0  0  0  0
   31.2017  -21.2314  -10.4471 C   0  0  0  0  0  0  0  0  0  0  0  0
   31.1311  -21.6578  -11.7548 C   0  0  0  0  0  0  0  0  0  0  0  0
   27.1607  -20.1807  -11.5268 C   0  0  0  0  0  0  0  0  0  0  0  0
   26.9106  -18.9456  -11.5114 O   0  0  0  0  0  0  0  0  0  0  0  0
   26.7473  -21.0130  -10.4908 N   0  0  0  0  0  0  0  0  0  0  0  0
   26.1513  -20.5401   -9.2132 C   0  0  1  0  0  0  0  0  0  0  0  0
   24.8065  -21.2120   -9.0628 C   0  0  0  0  0  0  0  0  0  0  0  0
   23.6226  -20.4486   -9.3460 C   0  0  0  0  0  0  0  0  0  0  0  0
   23.6808  -19.2549   -9.8055 O   0  0  0  0  0  0  0  0  0  0  0  0
   27.1193  -20.8055   -8.1502 C   0  0  0  0  0  0  0  0  0  0  0  0
   27.8869  -21.8232   -8.3224 O   0  0  0  0  0  0  0  0  0  0  0  0
   22.3090  -20.9136   -9.1564 O   0  0  0  0  0  0  0  0  0  0  0  0
   27.3221  -20.0812   -6.9565 N   0  0  0  0  0  0  0  0  0  0  0  0
   26.6046  -18.8183   -6.6639 C   0  0  0  0  0  0  0  0  0  0  0  0
   27.7986  -17.9329   -6.3573 C   0  0  0  0  0  0  0  0  0  0  0  0
   28.6889  -18.8686   -5.5329 C   0  0  0  0  0  0  0  0  0  0  0  0
   28.1544  -20.2532   -5.8035 C   0  0  1  0  0  0  0  0  0  0  0  0
   27.3445  -20.7437   -4.6205 C   0  0  0  0  0  0  0  0  0  0  0  0
   25.9795  -20.8791   -4.7469 O   0  0  0  0  0  0  0  0  0  0  0  0
   27.9166  -21.0172   -3.5552 O   0  0  0  0  0  0  0  0  0  0  0  0
  2  1  1  6
  2 13  1  0
  2  3  1  0
  3  4  1  0
  4 12  1  0
  4  5  2  0
  5  6  1  0
  7  8  2  0
  7  6  1  0
  9  8  1  0
 10  9  2  0
 11 10  1  0
 11 12  2  0
 12  7  1  0
 13 14  2  0
 15 13  1  0
 15 16  1  0
 16 17  1  1
 17 18  1  0
 18 22  1  0
 19 18  2  0
 20 16  1  0
 21 20  2  0
 23 20  1  0
 23 27  1  0
 24 23  1  0
 25 24  1  0
 25 26  1  0
 26 27  1  0
 27 28  1  1
 28 29  1  0
 30 28  2  0
M  END
$$$$
