WDP.pdb
     RDKit          3D

 30 32  0  0  1  0  0  0  0  0999 V2000
   25.0662  -18.7751   -8.8586 N   0  0  0  0  0  0  0  0  0  0  0  0
   26.0666  -19.6534   -9.3551 C   0  0  1  0  0  0  0  0  0  0  0  0
   26.2127  -20.9688   -8.6714 C   0  0  0  0  0  0  0  0  0  0  0  0
   26.3685  -20.8860   -7.1989 C   0  0  0  0  0  0  0  0  0  0  0  0
   25.4576  -21.2197   -6.2318 C   0  0  0  0  0  0  0  0  0  0  0  0
   25.9801  -20.9736   -5.0431 N   0  0  0  0  0  0  0  0  0  0  0  0
   27.2135  -20.4869   -5.2247 C   0  0  0  0  0  0  0  0  0  0  0  0
   28.1899  -20.0753   -4.3098 C   0  0  0  0  0  0  0  0  0  0  0  0
   29.3967  -19.6165   -4.7889 C   0  0  0  0  0  0  0  0  0  0  0  0
   29.6727  -19.5497   -6.1299 C   0  0  0  0  0  0  0  0  0  0  0  0
   28.7197  -19.9513   -7.0277 C   0  0  0  0  0  0  0  0  0  0  0  0
   27.5073  -20.4119   -6.5642 C   0  0  0  0  0  0  0  0  0  0  0  0
   25.8913  -19.7754  -10.8437 C   0  0  0  0  0  0  0  0  0  0  0  0
   24.7603  -19.4819  -11.3158 O   0  0  0  0  0  0  0  0  0  0  0  0
   26.9302  -20.1953  -11.6691 N   0  0  0  0  0  0  0  0  0  0  0  0
   26.9145  -20.1170  -13.1539 C   0  0  1  0  0  0  0  0  0  0  0  0
   28.2814  -20.5327  -13.6454 C   0  0  0  0  0  0  0  0  0  0  0  0
   28.4924  -20.6588  -15.0611 C   0  0  0  0  0  0  0  0  0  0  0  0
   28.2999  -19.6801  -15.8639 O   0  0  0  0  0  0  0  0  0  0  0  0
   25.7933  -20.9274  -13.6264 C   0  0  0  0  0  0  0  0  0  0  0  0
   25.5897  -22.0337  -13.0027 O   0  0  0  0  0  0  0  0  0  0  0  0
   28.9212  -21.8347  -15.7023 O   0  0  0  0  0  0  0  0  0  0  0  0
   24.8995  -20.6463  -14.6814 N   0  0  0  0  0  0  0  0  0  0  0  0
   25.0282  -19.4378  -15.5288 C   0  0  0  0  0  0  0  0  0  0  0  0
   23.6213  -18.8897  -15.3752 C   0  0  0  0  0  0  0  0  0  0  0  0
   22.7707  -20.1616  -15.4549 C   0  0  0  0  0  0  0  0  0  0  0  0
   23.7395  -21.2934  -15.2177 C   0  0  1  0  0  0  0  0  0  0  0  0
   24.0641  -21.9892  -16.5240 C   0  0  0  0  0  0  0  0  0  0  0  0
   25.2887  -21.7741  -17.1169 O   0  0  0  0  0  0  0  0  0  0  0  0
   23.2274  -22.7421  -17.0435 O   0  0  0  0  0  0  0  0  0  0  0  0
  2  1  1  1
  2 13  1  0
  2  3  1  0
  3  4  1  0
  4 12  1  0
  4  5  2  0
  5  6  1  0
  7  8  2  0
  7  6  1  0
  9  8  1  0
 10  9  2  0
 11 10  1  0
 11 12  2  0
 12  7  1  0
 13 14  2  0
 15 13  1  0
 15 16  1  0
 16 17  1  6
 17 18  1  0
 18 22  1  0
 19 18  2  0
 20 16  1  0
 21 20  2  0
 23 20  1  0
 23 27  1  0
 24 23  1  0
 25 24  1  0
 25 26  1  0
 26 27  1  0
 27 28  1  6
 28 29  1  0
 30 28  2  0
M  END
$$$$
