WDP.pdb
     RDKit          3D

 30 32  0  0  1  0  0  0  0  0999 V2000
   25.2901  -18.6443   -9.1268 N   0  0  0  0  0  0  0  0  0  0  0  0
   26.1918  -19.6630   -9.5370 C   0  0  1  0  0  0  0  0  0  0  0  0
   26.1880  -20.9277   -8.7500 C   0  0  0  0  0  0  0  0  0  0  0  0
   26.2965  -20.7427   -7.2825 C   0  0  0  0  0  0  0  0  0  0  0  0
   25.3185  -20.8970   -6.3358 C   0  0  0  0  0  0  0  0  0  0  0  0
   25.8200  -20.6127   -5.1466 N   0  0  0  0  0  0  0  0  0  0  0  0
   27.1056  -20.2775   -5.3077 C   0  0  0  0  0  0  0  0  0  0  0  0
   28.0865  -19.9002   -4.3829 C   0  0  0  0  0  0  0  0  0  0  0  0
   29.3539  -19.6140   -4.8394 C   0  0  0  0  0  0  0  0  0  0  0  0
   29.6858  -19.6864   -6.1673 C   0  0  0  0  0  0  0  0  0  0  0  0
   28.7286  -20.0550   -7.0748 C   0  0  0  0  0  0  0  0  0  0  0  0
   27.4561  -20.3436   -6.6340 C   0  0  0  0  0  0  0  0  0  0  0  0
   26.0148  -19.8835  -11.0140 C   0  0  0  0  0  0  0  0  0  0  0  0
   24.9234  -19.5136  -11.5242 O   0  0  0  0  0  0  0  0  0  0  0  0
   27.0102  -20.4716  -11.7887 N   0  0  0  0  0  0  0  0  0  0  0  0
   27.0618  -20.4278  -13.2741 C   0  0  1  0  0  0  0  0  0  0  0  0
   28.4138  -20.9527  -13.6976 C   0  0  0  0  0  0  0  0  0  0  0  0
   28.6823  -21.1038  -15.1010 C   0  0  0  0  0  0  0  0  0  0  0  0
   29.1233  -22.2013  -15.5914 O   0  0  0  0  0  0  0  0  0  0  0  0
   25.9048  -21.1662  -13.7775 C   0  0  0  0  0  0  0  0  0  0  0  0
   25.6261  -22.2664  -13.1721 O   0  0  0  0  0  0  0  0  0  0  0  0
   28.4955  -20.0946  -16.0624 O   0  0  0  0  0  0  0  0  0  0  0  0
   25.0488  -20.8213  -14.8447 N   0  0  0  0  0  0  0  0  0  0  0  0
   25.2244  -19.5785  -15.6320 C   0  0  0  0  0  0  0  0  0  0  0  0
   23.8231  -19.0115  -15.4955 C   0  0  0  0  0  0  0  0  0  0  0  0
   22.9534  -20.2624  -15.6584 C   0  0  0  0  0  0  0  0  0  0  0  0
   23.8947  -21.4217  -15.4442 C   0  0  1  0  0  0  0  0  0  0  0  0
   24.2469  -22.0640  -16.7706 C   0  0  0  0  0  0  0  0  0  0  0  0
   23.4637  -23.0897  -17.2527 O   0  0  0  0  0  0  0  0  0  0  0  0
   25.2323  -21.6612  -17.4059 O   0  0  0  0  0  0  0  0  0  0  0  0
  2  1  1  1
  2 13  1  0
  2  3  1  0
  3  4  1  0
  4 12  1  0
  4  5  2  0
  5  6  1  0
  7  8  2  0
  7  6  1  0
  9  8  1  0
 10  9  2  0
 11 10  1  0
 11 12  2  0
 12  7  1  0
 13 14  2  0
 15 13  1  0
 15 16  1  0
 16 17  1  6
 17 18  1  0
 18 22  1  0
 19 18  2  0
 20 16  1  0
 21 20  2  0
 23 20  1  0
 23 27  1  0
 24 23  1  0
 25 24  1  0
 25 26  1  0
 26 27  1  0
 27 28  1  6
 28 29  1  0
 30 28  2  0
M  END
$$$$
