WDP.pdb
     RDKit          3D

 30 32  0  0  1  0  0  0  0  0999 V2000
   26.5253  -22.3281   -9.3185 N   0  0  0  0  0  0  0  0  0  0  0  0
   26.2273  -21.0191   -9.7839 C   0  0  1  0  0  0  0  0  0  0  0  0
   26.7449  -19.8793   -8.9765 C   0  0  0  0  0  0  0  0  0  0  0  0
   26.4694  -19.9765   -7.5225 C   0  0  0  0  0  0  0  0  0  0  0  0
   25.2597  -20.1337   -6.8994 C   0  0  0  0  0  0  0  0  0  0  0  0
   25.4467  -20.1496   -5.5912 N   0  0  0  0  0  0  0  0  0  0  0  0
   26.7565  -20.0060   -5.3574 C   0  0  0  0  0  0  0  0  0  0  0  0
   27.4840  -19.9634   -4.1622 C   0  0  0  0  0  0  0  0  0  0  0  0
   28.8515  -19.8121   -4.2227 C   0  0  0  0  0  0  0  0  0  0  0  0
   29.5224  -19.7022   -5.4129 C   0  0  0  0  0  0  0  0  0  0  0  0
   28.8139  -19.7432   -6.5841 C   0  0  0  0  0  0  0  0  0  0  0  0
   27.4455  -19.8933   -6.5402 C   0  0  0  0  0  0  0  0  0  0  0  0
   26.6066  -20.9368  -11.2367 C   0  0  0  0  0  0  0  0  0  0  0  0
   27.8179  -21.1283  -11.5269 O   0  0  0  0  0  0  0  0  0  0  0  0
   25.6641  -20.6599  -12.2227 N   0  0  0  0  0  0  0  0  0  0  0  0
   25.9749  -20.5003  -13.6680 C   0  0  1  0  0  0  0  0  0  0  0  0
   25.3169  -21.6444  -14.4034 C   0  0  0  0  0  0  0  0  0  0  0  0
   26.0291  -22.8872  -14.5167 C   0  0  0  0  0  0  0  0  0  0  0  0
   25.6632  -23.9373  -13.8820 O   0  0  0  0  0  0  0  0  0  0  0  0
   25.5502  -19.1589  -14.0649 C   0  0  0  0  0  0  0  0  0  0  0  0
   24.5969  -18.6381  -13.3760 O   0  0  0  0  0  0  0  0  0  0  0  0
   27.1715  -23.0826  -15.3133 O   0  0  0  0  0  0  0  0  0  0  0  0
   26.0586  -18.3579  -15.1092 N   0  0  0  0  0  0  0  0  0  0  0  0
   27.1871  -18.7934  -15.9648 C   0  0  0  0  0  0  0  0  0  0  0  0
   28.0923  -17.5870  -15.7953 C   0  0  0  0  0  0  0  0  0  0  0  0
   27.0946  -16.4258  -15.8566 C   0  0  0  0  0  0  0  0  0  0  0  0
   25.7450  -17.0594  -15.6263 C   0  0  1  0  0  0  0  0  0  0  0  0
   24.9856  -17.1669  -16.9331 C   0  0  0  0  0  0  0  0  0  0  0  0
   25.1425  -18.2906  -17.7142 O   0  0  0  0  0  0  0  0  0  0  0  0
   24.2336  -16.2460  -17.2842 O   0  0  0  0  0  0  0  0  0  0  0  0
  2  1  1  1
  2 13  1  0
  2  3  1  0
  3  4  1  0
  4 12  1  0
  4  5  2  0
  5  6  1  0
  7  8  2  0
  7  6  1  0
  9  8  1  0
 10  9  2  0
 11 10  1  0
 11 12  2  0
 12  7  1  0
 13 14  2  0
 15 13  1  0
 15 16  1  0
 16 17  1  6
 17 18  1  0
 18 22  1  0
 19 18  2  0
 20 16  1  0
 21 20  2  0
 23 20  1  0
 23 27  1  0
 24 23  1  0
 25 24  1  0
 25 26  1  0
 26 27  1  0
 27 28  1  6
 28 29  1  0
 30 28  2  0
M  END
$$$$
