ITE.pdb
     RDKit          3D

 25 24  0  0  1  0  0  0  0  0999 V2000
    8.6046  -12.3238   27.6938 C   0  0  0  0  0  0  0  0  0  0  0  0
    7.6996  -13.3717   27.0866 C   0  0  0  0  0  0  0  0  0  0  0  0
    7.0088  -12.8272   25.8739 C   0  0  2  0  0  0  0  0  0  0  0  0
    6.1921  -11.6237   26.2878 C   0  0  0  0  0  0  0  0  0  0  0  0
    6.1709  -13.8802   25.1751 C   0  0  2  0  0  0  0  0  0  0  0  0
    5.3091  -14.4478   26.2238 N   0  0  0  0  0  0  0  0  0  0  0  0
    6.9968  -14.9237   24.5508 C   0  0  0  0  0  0  0  0  0  0  0  0
    7.2148  -15.9655   25.2215 O   0  0  0  0  0  0  0  0  0  0  0  0
    7.1647  -15.4213   20.5335 C   0  0  0  0  0  0  0  0  0  0  0  0
    8.4981  -15.5915   21.1879 C   0  0  1  0  0  0  0  0  0  0  0  0
    9.3422  -14.5341   20.9251 O   0  0  0  0  0  0  0  0  0  0  0  0
    8.3710  -15.8939   22.6706 C   0  0  2  0  0  0  0  0  0  0  0  0
    7.5631  -14.8462   23.2589 N   0  0  0  0  0  0  0  0  0  0  0  0
    9.7205  -15.9019   23.2924 C   0  0  0  0  0  0  0  0  0  0  0  0
   10.1511  -14.8465   23.8551 O   0  0  0  0  0  0  0  0  0  0  0  0
   10.5543  -17.0284   23.2903 N   0  0  0  0  0  0  0  0  0  0  0  0
   11.8181  -17.1163   24.0676 C   0  0  1  0  0  0  0  0  0  0  0  0
   11.7425  -18.4272   24.7489 C   0  0  0  0  0  0  0  0  0  0  0  0
   12.8947  -18.9589   25.4874 C   0  0  0  0  0  0  0  0  0  0  0  0
   12.7402  -19.3380   26.8824 C   0  0  0  0  0  0  0  0  0  0  0  0
   13.7397  -19.6779   27.5650 O   0  0  0  0  0  0  0  0  0  0  0  0
   12.8768  -16.9179   23.0834 C   0  0  0  0  0  0  0  0  0  0  0  0
   13.9869  -16.4324   23.4113 O   0  0  0  0  0  0  0  0  0  0  0  0
   11.5139  -19.3474   27.5335 O   0  0  0  0  0  0  0  0  0  0  0  0
   12.7276  -17.2500   21.7535 O   0  0  0  0  0  0  0  0  0  0  0  0
  2  1  1  0
  2  3  1  0
  3  5  1  0
  3  4  1  1
  5  7  1  0
  5  6  1  1
  7 13  1  0
  7  8  2  0
 10  9  1  1
 10 12  1  0
 10 11  1  0
 12 14  1  0
 12 13  1  1
 14 16  1  0
 15 14  2  0
 16 17  1  0
 17 22  1  0
 17 18  1  6
 18 19  1  0
 19 20  1  0
 20 21  2  0
 20 24  1  0
 22 25  1  0
 23 22  2  0
M  END
$$$$
