ITE.pdb
     RDKit          3D

 25 24  0  0  1  0  0  0  0  0999 V2000
    7.1221  -11.8084   27.7204 C   0  0  0  0  0  0  0  0  0  0  0  0
    6.2969  -12.7763   26.9032 C   0  0  0  0  0  0  0  0  0  0  0  0
    7.1853  -13.6393   26.0604 C   0  0  2  0  0  0  0  0  0  0  0  0
    8.0534  -12.7430   25.2062 C   0  0  0  0  0  0  0  0  0  0  0  0
    6.3943  -14.6344   25.2336 C   0  0  2  0  0  0  0  0  0  0  0  0
    5.6644  -15.4565   26.2114 N   0  0  0  0  0  0  0  0  0  0  0  0
    7.2610  -15.4679   24.3880 C   0  0  0  0  0  0  0  0  0  0  0  0
    7.8029  -16.4679   24.9257 O   0  0  0  0  0  0  0  0  0  0  0  0
    9.3926  -16.1760   19.9247 C   0  0  0  0  0  0  0  0  0  0  0  0
    8.3635  -15.5363   20.8003 C   0  0  1  0  0  0  0  0  0  0  0  0
    7.0954  -15.6424   20.2707 O   0  0  0  0  0  0  0  0  0  0  0  0
    8.4496  -16.0283   22.2344 C   0  0  2  0  0  0  0  0  0  0  0  0
    7.5313  -15.2324   23.0216 N   0  0  0  0  0  0  0  0  0  0  0  0
    9.8359  -15.8477   22.7381 C   0  0  0  0  0  0  0  0  0  0  0  0
   10.3049  -14.6723   22.8574 O   0  0  0  0  0  0  0  0  0  0  0  0
   10.6639  -16.9212   23.0931 N   0  0  0  0  0  0  0  0  0  0  0  0
   12.0228  -16.7540   23.6717 C   0  0  1  0  0  0  0  0  0  0  0  0
   12.1059  -17.7892   24.7252 C   0  0  0  0  0  0  0  0  0  0  0  0
   13.3844  -18.0979   25.3774 C   0  0  0  0  0  0  0  0  0  0  0  0
   13.4421  -19.1454   26.3840 C   0  0  0  0  0  0  0  0  0  0  0  0
   14.1479  -20.1692   26.1988 O   0  0  0  0  0  0  0  0  0  0  0  0
   12.9296  -16.8629   22.5338 C   0  0  0  0  0  0  0  0  0  0  0  0
   12.6305  -17.5508   21.5273 O   0  0  0  0  0  0  0  0  0  0  0  0
   12.7425  -19.0844   27.5818 O   0  0  0  0  0  0  0  0  0  0  0  0
   14.1507  -16.2238   22.4922 O   0  0  0  0  0  0  0  0  0  0  0  0
  2  1  1  0
  2  3  1  0
  3  5  1  0
  3  4  1  6
  5  7  1  0
  5  6  1  1
  7 13  1  0
  7  8  2  0
 10  9  1  6
 10 12  1  0
 10 11  1  0
 12 14  1  0
 12 13  1  1
 14 16  1  0
 15 14  2  0
 16 17  1  0
 17 22  1  0
 17 18  1  1
 18 19  1  0
 19 20  1  0
 20 21  2  0
 20 24  1  0
 22 25  1  0
 23 22  2  0
M  END
$$$$
