ITE.pdb
     RDKit          3D

 25 24  0  0  1  0  0  0  0  0999 V2000
    8.5394  -12.0969   22.0670 C   0  0  0  0  0  0  0  0  0  0  0  0
    8.0319  -13.5009   21.8281 C   0  0  0  0  0  0  0  0  0  0  0  0
    8.3748  -13.9522   20.4413 C   0  0  2  0  0  0  0  0  0  0  0  0
    7.7389  -12.9975   19.4560 C   0  0  0  0  0  0  0  0  0  0  0  0
    7.9679  -15.3919   20.1942 C   0  0  2  0  0  0  0  0  0  0  0  0
    6.5241  -15.4395   20.4732 N   0  0  0  0  0  0  0  0  0  0  0  0
    8.7012  -16.3322   21.0538 C   0  0  0  0  0  0  0  0  0  0  0  0
    8.2966  -16.4683   22.2372 O   0  0  0  0  0  0  0  0  0  0  0  0
    8.7436  -19.7290   21.4274 C   0  0  0  0  0  0  0  0  0  0  0  0
   10.1730  -19.4104   21.1270 C   0  0  1  0  0  0  0  0  0  0  0  0
   10.5036  -19.6981   19.8202 O   0  0  0  0  0  0  0  0  0  0  0  0
   10.5387  -17.9934   21.5324 C   0  0  2  0  0  0  0  0  0  0  0  0
    9.8225  -17.0926   20.6537 N   0  0  0  0  0  0  0  0  0  0  0  0
   12.0030  -17.7952   21.3761 C   0  0  0  0  0  0  0  0  0  0  0  0
   12.4309  -17.0252   20.4597 O   0  0  0  0  0  0  0  0  0  0  0  0
   12.9492  -18.4221   22.1981 N   0  0  0  0  0  0  0  0  0  0  0  0
   14.4159  -18.2247   22.0607 C   0  0  1  0  0  0  0  0  0  0  0  0
   14.7608  -17.2608   23.1286 C   0  0  0  0  0  0  0  0  0  0  0  0
   16.1585  -16.8942   23.3886 C   0  0  0  0  0  0  0  0  0  0  0  0
   16.4705  -15.9812   24.4762 C   0  0  0  0  0  0  0  0  0  0  0  0
   15.6358  -15.7730   25.3929 O   0  0  0  0  0  0  0  0  0  0  0  0
   14.9830  -19.5666   22.1424 C   0  0  0  0  0  0  0  0  0  0  0  0
   14.3666  -20.4995   22.7127 O   0  0  0  0  0  0  0  0  0  0  0  0
   17.6769  -15.3005   24.5714 O   0  0  0  0  0  0  0  0  0  0  0  0
   16.2104  -19.8893   21.6031 O   0  0  0  0  0  0  0  0  0  0  0  0
  2  1  1  0
  2  3  1  0
  3  5  1  0
  3  4  1  6
  5  7  1  0
  5  6  1  1
  7 13  1  0
  7  8  2  0
 10  9  1  6
 10 12  1  0
 10 11  1  0
 12 14  1  0
 12 13  1  6
 14 16  1  0
 15 14  2  0
 16 17  1  0
 17 22  1  0
 17 18  1  1
 18 19  1  0
 19 20  1  0
 20 21  2  0
 20 24  1  0
 22 25  1  0
 23 22  2  0
M  END
$$$$
