ITE.pdb
     RDKit          3D

 25 24  0  0  1  0  0  0  0  0999 V2000
    6.2298  -11.5589   27.4077 C   0  0  0  0  0  0  0  0  0  0  0  0
    5.6663  -12.6631   26.5421 C   0  0  0  0  0  0  0  0  0  0  0  0
    6.7739  -13.4468   25.9071 C   0  0  2  0  0  0  0  0  0  0  0  0
    7.6925  -12.4832   25.1900 C   0  0  0  0  0  0  0  0  0  0  0  0
    6.2487  -14.5340   24.9896 C   0  0  2  0  0  0  0  0  0  0  0  0
    5.3372  -15.3353   25.8213 N   0  0  0  0  0  0  0  0  0  0  0  0
    7.3280  -15.3666   24.4395 C   0  0  0  0  0  0  0  0  0  0  0  0
    7.8629  -16.2029   25.2122 O   0  0  0  0  0  0  0  0  0  0  0  0
    7.2896  -16.1456   20.5459 C   0  0  0  0  0  0  0  0  0  0  0  0
    8.6981  -16.1088   21.0456 C   0  0  1  0  0  0  0  0  0  0  0  0
    9.3914  -15.0211   20.5597 O   0  0  0  0  0  0  0  0  0  0  0  0
    8.7698  -16.2298   22.5577 C   0  0  2  0  0  0  0  0  0  0  0  0
    7.8093  -15.2994   23.1130 N   0  0  0  0  0  0  0  0  0  0  0  0
   10.1383  -15.8798   23.0188 C   0  0  0  0  0  0  0  0  0  0  0  0
   10.3389  -14.7506   23.5670 O   0  0  0  0  0  0  0  0  0  0  0  0
   11.2340  -16.7422   22.8781 N   0  0  0  0  0  0  0  0  0  0  0  0
   12.3914  -16.7585   23.8105 C   0  0  1  0  0  0  0  0  0  0  0  0
   11.8089  -17.1377   25.1163 C   0  0  0  0  0  0  0  0  0  0  0  0
   11.9263  -18.5109   25.6224 C   0  0  0  0  0  0  0  0  0  0  0  0
   11.5477  -18.8047   26.9949 C   0  0  0  0  0  0  0  0  0  0  0  0
   10.4839  -19.4270   27.2434 O   0  0  0  0  0  0  0  0  0  0  0  0
   13.3509  -17.6722   23.1994 C   0  0  0  0  0  0  0  0  0  0  0  0
   14.5837  -17.5530   23.4038 O   0  0  0  0  0  0  0  0  0  0  0  0
   12.3152  -18.4294   28.0895 O   0  0  0  0  0  0  0  0  0  0  0  0
   12.9690  -18.7097   22.3753 O   0  0  0  0  0  0  0  0  0  0  0  0
  2  1  1  0
  2  3  1  0
  3  5  1  0
  3  4  1  6
  5  7  1  0
  5  6  1  1
  7 13  1  0
  7  8  2  0
 10  9  1  1
 10 12  1  0
 10 11  1  0
 12 14  1  0
 12 13  1  1
 14 16  1  0
 15 14  2  0
 16 17  1  0
 17 22  1  0
 17 18  1  1
 18 19  1  0
 19 20  1  0
 20 21  2  0
 20 24  1  0
 22 25  1  0
 23 22  2  0
M  END
$$$$
