ITE.pdb
     RDKit          3D

 25 24  0  0  1  0  0  0  0  0999 V2000
    6.3123  -11.0729   27.3545 C   0  0  0  0  0  0  0  0  0  0  0  0
    5.7138  -12.2359   26.5962 C   0  0  0  0  0  0  0  0  0  0  0  0
    6.7947  -13.0716   25.9817 C   0  0  2  0  0  0  0  0  0  0  0  0
    7.6907  -12.1695   25.1632 C   0  0  0  0  0  0  0  0  0  0  0  0
    6.2325  -14.2199   25.1664 C   0  0  2  0  0  0  0  0  0  0  0  0
    5.3690  -14.9670   26.0942 N   0  0  0  0  0  0  0  0  0  0  0  0
    7.2892  -15.0835   24.6201 C   0  0  0  0  0  0  0  0  0  0  0  0
    7.8907  -15.8397   25.4258 O   0  0  0  0  0  0  0  0  0  0  0  0
    7.1299  -16.1099   20.6907 C   0  0  0  0  0  0  0  0  0  0  0  0
    8.5291  -16.0061   21.2070 C   0  0  1  0  0  0  0  0  0  0  0  0
    9.1773  -14.8896   20.7242 O   0  0  0  0  0  0  0  0  0  0  0  0
    8.5880  -16.1173   22.7203 C   0  0  2  0  0  0  0  0  0  0  0  0
    7.6799  -15.1289   23.2633 N   0  0  0  0  0  0  0  0  0  0  0  0
    9.9725  -15.8415   23.1842 C   0  0  0  0  0  0  0  0  0  0  0  0
   10.3277  -14.6400   23.3983 O   0  0  0  0  0  0  0  0  0  0  0  0
   10.9194  -16.8518   23.4006 N   0  0  0  0  0  0  0  0  0  0  0  0
   12.3119  -16.5898   23.8496 C   0  0  1  0  0  0  0  0  0  0  0  0
   12.6290  -17.7204   24.7494 C   0  0  0  0  0  0  0  0  0  0  0  0
   11.9208  -17.8888   26.0244 C   0  0  0  0  0  0  0  0  0  0  0  0
   12.3009  -18.9698   26.9191 C   0  0  0  0  0  0  0  0  0  0  0  0
   11.4523  -19.4892   27.6877 O   0  0  0  0  0  0  0  0  0  0  0  0
   13.0835  -16.4597   22.6180 C   0  0  0  0  0  0  0  0  0  0  0  0
   12.6174  -16.8378   21.5155 O   0  0  0  0  0  0  0  0  0  0  0  0
   13.5886  -19.4855   26.9800 O   0  0  0  0  0  0  0  0  0  0  0  0
   14.3512  -15.9183   22.5885 O   0  0  0  0  0  0  0  0  0  0  0  0
  2  1  1  0
  2  3  1  0
  3  5  1  0
  3  4  1  6
  5  7  1  0
  5  6  1  1
  7 13  1  0
  7  8  2  0
 10  9  1  1
 10 12  1  0
 10 11  1  0
 12 14  1  0
 12 13  1  1
 14 16  1  0
 15 14  2  0
 16 17  1  0
 17 22  1  0
 17 18  1  1
 18 19  1  0
 19 20  1  0
 20 21  2  0
 20 24  1  0
 22 25  1  0
 23 22  2  0
M  END
$$$$
