ITE.pdb
     RDKit          3D

 25 24  0  0  1  0  0  0  0  0999 V2000
    8.4166  -12.1363   27.5259 C   0  0  0  0  0  0  0  0  0  0  0  0
    7.6672  -13.3614   27.0533 C   0  0  0  0  0  0  0  0  0  0  0  0
    6.8379  -13.0353   25.8491 C   0  0  2  0  0  0  0  0  0  0  0  0
    5.8226  -11.9840   26.2372 C   0  0  0  0  0  0  0  0  0  0  0  0
    6.1905  -14.2698   25.2522 C   0  0  2  0  0  0  0  0  0  0  0  0
    5.4780  -14.9112   26.3682 N   0  0  0  0  0  0  0  0  0  0  0  0
    7.1779  -15.1854   24.6627 C   0  0  0  0  0  0  0  0  0  0  0  0
    7.6594  -16.0747   25.4112 O   0  0  0  0  0  0  0  0  0  0  0  0
    7.2017  -15.8676   20.6685 C   0  0  0  0  0  0  0  0  0  0  0  0
    8.5770  -15.8733   21.2544 C   0  0  1  0  0  0  0  0  0  0  0  0
    9.3006  -14.7592   20.8871 O   0  0  0  0  0  0  0  0  0  0  0  0
    8.5559  -16.0973   22.7563 C   0  0  2  0  0  0  0  0  0  0  0  0
    7.6265  -15.1431   23.3238 N   0  0  0  0  0  0  0  0  0  0  0  0
    9.9157  -15.8704   23.3106 C   0  0  0  0  0  0  0  0  0  0  0  0
   10.2572  -14.6958   23.6563 O   0  0  0  0  0  0  0  0  0  0  0  0
   10.8538  -16.8988   23.4738 N   0  0  0  0  0  0  0  0  0  0  0  0
   12.2264  -16.6823   24.0015 C   0  0  1  0  0  0  0  0  0  0  0  0
   12.4502  -17.8157   24.9254 C   0  0  0  0  0  0  0  0  0  0  0  0
   11.5241  -18.0768   26.0343 C   0  0  0  0  0  0  0  0  0  0  0  0
   11.7475  -19.2222   26.9013 C   0  0  0  0  0  0  0  0  0  0  0  0
   11.8997  -20.3709   26.4134 O   0  0  0  0  0  0  0  0  0  0  0  0
   13.0722  -16.5898   22.8162 C   0  0  0  0  0  0  0  0  0  0  0  0
   14.2660  -16.2104   22.8971 O   0  0  0  0  0  0  0  0  0  0  0  0
   11.8071  -19.1247   28.2851 O   0  0  0  0  0  0  0  0  0  0  0  0
   12.6211  -16.9123   21.5537 O   0  0  0  0  0  0  0  0  0  0  0  0
  2  1  1  0
  2  3  1  0
  3  5  1  0
  3  4  1  1
  5  7  1  0
  5  6  1  1
  7 13  1  0
  7  8  2  0
 10  9  1  1
 10 12  1  0
 10 11  1  0
 12 14  1  0
 12 13  1  1
 14 16  1  0
 15 14  2  0
 16 17  1  0
 17 22  1  0
 17 18  1  1
 18 19  1  0
 19 20  1  0
 20 21  2  0
 20 24  1  0
 22 25  1  0
 23 22  2  0
M  END
$$$$
