ITE.pdb
     RDKit          3D

 25 24  0  0  1  0  0  0  0  0999 V2000
    6.6154  -10.7959   27.1328 C   0  0  0  0  0  0  0  0  0  0  0  0
    5.8978  -11.9335   26.4423 C   0  0  0  0  0  0  0  0  0  0  0  0
    6.8849  -12.9106   25.8808 C   0  0  2  0  0  0  0  0  0  0  0  0
    7.8734  -12.1533   25.0229 C   0  0  0  0  0  0  0  0  0  0  0  0
    6.2053  -14.0343   25.1225 C   0  0  2  0  0  0  0  0  0  0  0  0
    5.3141  -14.6775   26.1006 N   0  0  0  0  0  0  0  0  0  0  0  0
    7.1702  -14.9991   24.5757 C   0  0  0  0  0  0  0  0  0  0  0  0
    7.6715  -15.8306   25.3758 O   0  0  0  0  0  0  0  0  0  0  0  0
    7.2198  -15.7107   20.5364 C   0  0  0  0  0  0  0  0  0  0  0  0
    8.5529  -15.8672   21.1945 C   0  0  1  0  0  0  0  0  0  0  0  0
    9.4071  -14.8303   20.8863 O   0  0  0  0  0  0  0  0  0  0  0  0
    8.4265  -16.1064   22.6889 C   0  0  2  0  0  0  0  0  0  0  0  0
    7.5765  -15.0637   23.2243 N   0  0  0  0  0  0  0  0  0  0  0  0
    9.7709  -16.0362   23.3177 C   0  0  0  0  0  0  0  0  0  0  0  0
   10.2309  -14.9065   23.6753 O   0  0  0  0  0  0  0  0  0  0  0  0
   10.5686  -17.1670   23.5398 N   0  0  0  0  0  0  0  0  0  0  0  0
   11.7401  -17.1789   24.4546 C   0  0  1  0  0  0  0  0  0  0  0  0
   11.3437  -18.0897   25.5508 C   0  0  0  0  0  0  0  0  0  0  0  0
   12.3149  -18.5092   26.5688 C   0  0  0  0  0  0  0  0  0  0  0  0
   11.8570  -19.2384   27.7402 C   0  0  0  0  0  0  0  0  0  0  0  0
   11.2301  -20.3206   27.6126 O   0  0  0  0  0  0  0  0  0  0  0  0
   12.8666  -17.5711   23.6143 C   0  0  0  0  0  0  0  0  0  0  0  0
   12.6870  -18.1388   22.5092 O   0  0  0  0  0  0  0  0  0  0  0  0
   12.0772  -18.8003   29.0392 O   0  0  0  0  0  0  0  0  0  0  0  0
   14.1778  -17.3424   23.9742 O   0  0  0  0  0  0  0  0  0  0  0  0
  2  1  1  0
  2  3  1  0
  3  5  1  0
  3  4  1  6
  5  7  1  0
  5  6  1  1
  7 13  1  0
  7  8  2  0
 10  9  1  1
 10 12  1  0
 10 11  1  0
 12 14  1  0
 12 13  1  1
 14 16  1  0
 15 14  2  0
 16 17  1  0
 17 22  1  0
 17 18  1  1
 18 19  1  0
 19 20  1  0
 20 21  2  0
 20 24  1  0
 22 25  1  0
 23 22  2  0
M  END
$$$$
