NTC.pdb
     RDKit          3D

 22 21  0  0  1  0  0  0  0  0999 V2000
   16.9441  -14.1338  -14.7274 N   0  0  0  0  0  0  0  0  0  0  0  0
   18.2990  -13.7746  -14.9374 C   0  0  0  0  0  0  0  0  0  0  0  0
   19.1906  -14.6260  -14.7920 O   0  0  0  0  0  0  0  0  0  0  0  0
   18.6382  -12.3894  -15.3274 C   0  0  0  0  0  0  0  0  0  0  0  0
   17.3574  -11.5863  -15.2891 C   0  0  2  0  0  0  0  0  0  0  0  0
   16.4626  -12.0281  -16.3132 N   0  0  0  0  0  0  0  0  0  0  0  0
   17.6634  -10.1322  -15.3963 C   0  0  0  0  0  0  0  0  0  0  0  0
   17.7220   -9.6697  -16.5785 O   0  0  0  0  0  0  0  0  0  0  0  0
   15.8309   -7.2029  -14.0787 C   0  0  0  0  0  0  0  0  0  0  0  0
   17.2439   -7.0347  -13.5771 C   0  0  1  0  0  0  0  0  0  0  0  0
   17.3327   -7.3891  -12.2431 O   0  0  0  0  0  0  0  0  0  0  0  0
   18.1882   -7.9006  -14.4050 C   0  0  2  0  0  0  0  0  0  0  0  0
   17.8792   -9.2956  -14.2782 N   0  0  0  0  0  0  0  0  0  0  0  0
   19.5981   -7.5953  -14.0497 C   0  0  0  0  0  0  0  0  0  0  0  0
   20.2257   -8.3733  -13.3164 O   0  0  0  0  0  0  0  0  0  0  0  0
   20.2380   -6.4371  -14.5301 N   0  0  0  0  0  0  0  0  0  0  0  0
   21.5969   -6.0796  -14.3057 C   0  0  1  0  0  0  0  0  0  0  0  0
   22.4214   -5.9815  -15.5628 C   0  0  0  0  0  0  0  0  0  0  0  0
   24.0610   -5.3228  -15.1111 S   0  0  0  0  0  0  0  0  0  0  0  0
   21.6428   -4.7625  -13.6352 C   0  0  0  0  0  0  0  0  0  0  0  0
   20.7485   -3.8897  -13.7552 O   0  0  0  0  0  0  0  0  0  0  0  0
   22.7255   -4.4628  -12.8278 O   0  0  0  0  0  0  0  0  0  0  0  0
  1  2  1  0
  2  4  1  0
  2  3  2  0
  5  4  1  0
  5  6  1  6
  7  5  1  0
  7  8  2  0
 10  9  1  6
 10 12  1  0
 11 10  1  0
 12 13  1  1
 12 14  1  0
 13  7  1  0
 14 16  1  0
 15 14  2  0
 16 17  1  0
 17 20  1  0
 17 18  1  6
 18 19  1  0
 20 21  2  0
 20 22  1  0
M  END
$$$$
