NTC.pdb
     RDKit          3D

 22 21  0  0  1  0  0  0  0  0999 V2000
   13.6897  -12.2631  -12.1231 N   0  0  0  0  0  0  0  0  0  0  0  0
   13.2617  -11.7540  -10.8716 C   0  0  0  0  0  0  0  0  0  0  0  0
   12.1383  -12.0544  -10.4372 O   0  0  0  0  0  0  0  0  0  0  0  0
   14.1565  -10.8697  -10.0951 C   0  0  0  0  0  0  0  0  0  0  0  0
   15.4577  -10.7661  -10.8586 C   0  0  2  0  0  0  0  0  0  0  0  0
   16.2051  -11.9789  -10.7344 N   0  0  0  0  0  0  0  0  0  0  0  0
   16.2286   -9.5786  -10.3947 C   0  0  0  0  0  0  0  0  0  0  0  0
   16.8374   -9.7180   -9.2881 O   0  0  0  0  0  0  0  0  0  0  0  0
   19.2107   -7.9781  -11.5126 C   0  0  0  0  0  0  0  0  0  0  0  0
   18.1906   -6.8667  -11.5426 C   0  0  1  0  0  0  0  0  0  0  0  0
   17.7345   -6.6586  -12.8317 O   0  0  0  0  0  0  0  0  0  0  0  0
   17.0194   -7.2214  -10.6319 C   0  0  2  0  0  0  0  0  0  0  0  0
   16.2983   -8.3641  -11.1136 N   0  0  0  0  0  0  0  0  0  0  0  0
   16.1457   -6.0344  -10.4446 C   0  0  0  0  0  0  0  0  0  0  0  0
   15.3007   -5.7554  -11.3078 O   0  0  0  0  0  0  0  0  0  0  0  0
   16.2580   -5.2176   -9.3037 N   0  0  0  0  0  0  0  0  0  0  0  0
   15.5071   -4.0370   -9.0444 C   0  0  1  0  0  0  0  0  0  0  0  0
   15.3556   -3.7151   -7.5804 C   0  0  0  0  0  0  0  0  0  0  0  0
   14.4306   -5.0776   -6.7968 S   0  0  0  0  0  0  0  0  0  0  0  0
   16.1793   -2.8887   -9.6892 C   0  0  0  0  0  0  0  0  0  0  0  0
   17.3339   -2.9442  -10.1786 O   0  0  0  0  0  0  0  0  0  0  0  0
   15.5097   -1.6804   -9.7641 O   0  0  0  0  0  0  0  0  0  0  0  0
  1  2  1  0
  2  4  1  0
  2  3  2  0
  5  4  1  0
  5  6  1  1
  7  5  1  0
  7  8  2  0
 10  9  1  6
 10 12  1  0
 11 10  1  0
 12 13  1  6
 12 14  1  0
 13  7  1  0
 14 16  1  0
 15 14  2  0
 16 17  1  0
 17 20  1  0
 17 18  1  1
 18 19  1  0
 20 21  2  0
 20 22  1  0
M  END
$$$$
