NTC.pdb
     RDKit          3D

 22 21  0  0  1  0  0  0  0  0999 V2000
   16.4054  -12.6422  -17.4169 N   0  0  0  0  0  0  0  0  0  0  0  0
   16.5595  -12.1725  -16.0886 C   0  0  0  0  0  0  0  0  0  0  0  0
   15.5954  -12.2095  -15.3075 O   0  0  0  0  0  0  0  0  0  0  0  0
   17.8667  -11.6427  -15.6453 C   0  0  0  0  0  0  0  0  0  0  0  0
   18.7875  -11.6594  -16.8448 C   0  0  2  0  0  0  0  0  0  0  0  0
   19.2534  -12.9878  -17.0956 N   0  0  0  0  0  0  0  0  0  0  0  0
   19.9072  -10.6979  -16.6420 C   0  0  0  0  0  0  0  0  0  0  0  0
   20.9576  -11.1823  -16.1157 O   0  0  0  0  0  0  0  0  0  0  0  0
   22.0747   -9.1061  -18.9171 C   0  0  0  0  0  0  0  0  0  0  0  0
   21.4938   -7.9417  -18.1534 C   0  0  1  0  0  0  0  0  0  0  0  0
   20.4895   -7.3323  -18.8837 O   0  0  0  0  0  0  0  0  0  0  0  0
   20.9380   -8.4298  -16.8193 C   0  0  2  0  0  0  0  0  0  0  0  0
   19.8380   -9.3327  -16.9999 N   0  0  0  0  0  0  0  0  0  0  0  0
   20.5865   -7.2687  -15.9616 C   0  0  0  0  0  0  0  0  0  0  0  0
   19.4078   -6.8897  -15.8992 O   0  0  0  0  0  0  0  0  0  0  0  0
   21.5674   -6.5880  -15.2160 N   0  0  0  0  0  0  0  0  0  0  0  0
   21.3317   -5.5276  -14.2968 C   0  0  1  0  0  0  0  0  0  0  0  0
   22.1902   -5.5850  -13.0601 C   0  0  0  0  0  0  0  0  0  0  0  0
   21.7966   -7.1288  -12.1724 S   0  0  0  0  0  0  0  0  0  0  0  0
   21.6007   -4.2391  -14.9705 C   0  0  0  0  0  0  0  0  0  0  0  0
   22.1308   -4.1448  -16.1045 O   0  0  0  0  0  0  0  0  0  0  0  0
   21.2537   -3.0649  -14.3265 O   0  0  0  0  0  0  0  0  0  0  0  0
  1  2  1  0
  2  4  1  0
  2  3  2  0
  5  4  1  0
  5  6  1  1
  7  5  1  0
  7  8  2  0
 10  9  1  6
 10 12  1  0
 11 10  1  0
 12 13  1  6
 12 14  1  0
 13  7  1  0
 14 16  1  0
 15 14  2  0
 16 17  1  0
 17 20  1  0
 17 18  1  1
 18 19  1  0
 20 21  2  0
 20 22  1  0
M  END
$$$$
