NTC.pdb
     RDKit          3D

 22 21  0  0  1  0  0  0  0  0999 V2000
   16.5355  -20.0838    1.8035 N   0  0  0  0  0  0  0  0  0  0  0  0
   17.4352  -19.0641    1.4040 C   0  0  0  0  0  0  0  0  0  0  0  0
   18.2451  -19.2824    0.4889 O   0  0  0  0  0  0  0  0  0  0  0  0
   17.4013  -17.7500    2.0806 C   0  0  0  0  0  0  0  0  0  0  0  0
   16.3290  -17.8209    3.1446 C   0  0  2  0  0  0  0  0  0  0  0  0
   15.0403  -17.9683    2.5427 N   0  0  0  0  0  0  0  0  0  0  0  0
   16.4056  -16.6232    4.0272 C   0  0  0  0  0  0  0  0  0  0  0  0
   15.7680  -15.6014    3.6219 O   0  0  0  0  0  0  0  0  0  0  0  0
   15.2995  -16.2128    7.5423 C   0  0  0  0  0  0  0  0  0  0  0  0
   16.7462  -15.7849    7.5219 C   0  0  1  0  0  0  0  0  0  0  0  0
   17.5587  -16.7902    8.0140 O   0  0  0  0  0  0  0  0  0  0  0  0
   17.1587  -15.4405    6.0941 C   0  0  2  0  0  0  0  0  0  0  0  0
   17.1302  -16.5926    5.2399 N   0  0  0  0  0  0  0  0  0  0  0  0
   18.4831  -14.7672    6.0978 C   0  0  0  0  0  0  0  0  0  0  0  0
   19.4923  -15.4022    5.7585 O   0  0  0  0  0  0  0  0  0  0  0  0
   18.6159  -13.4189    6.4800 N   0  0  0  0  0  0  0  0  0  0  0  0
   19.8327  -12.6837    6.5400 C   0  0  1  0  0  0  0  0  0  0  0  0
   19.7726  -11.3407    5.8599 C   0  0  0  0  0  0  0  0  0  0  0  0
   21.4441  -10.6123    5.9029 S   0  0  0  0  0  0  0  0  0  0  0  0
   20.1856  -12.4536    7.9574 C   0  0  0  0  0  0  0  0  0  0  0  0
   19.3808  -12.6087    8.9082 O   0  0  0  0  0  0  0  0  0  0  0  0
   21.4705  -12.0446    8.2666 O   0  0  0  0  0  0  0  0  0  0  0  0
  1  2  1  0
  2  4  1  0
  2  3  2  0
  5  4  1  0
  5  6  1  6
  7  5  1  0
  7  8  2  0
 10  9  1  6
 10 12  1  0
 11 10  1  0
 12 13  1  6
 12 14  1  0
 13  7  1  0
 14 16  1  0
 15 14  2  0
 16 17  1  0
 17 20  1  0
 17 18  1  6
 18 19  1  0
 20 21  2  0
 20 22  1  0
M  END
$$$$
