NTC.pdb
     RDKit          3D

 22 21  0  0  1  0  0  0  0  0999 V2000
   19.9322  -17.2472  -18.5445 N   0  0  0  0  0  0  0  0  0  0  0  0
   20.9266  -17.1599  -19.5506 C   0  0  0  0  0  0  0  0  0  0  0  0
   21.1058  -18.1152  -20.3228 O   0  0  0  0  0  0  0  0  0  0  0  0
   21.7414  -15.9322  -19.6715 C   0  0  0  0  0  0  0  0  0  0  0  0
   21.3449  -15.0170  -18.5348 C   0  0  2  0  0  0  0  0  0  0  0  0
   19.9523  -14.7016  -18.6129 N   0  0  0  0  0  0  0  0  0  0  0  0
   22.2005  -13.7974  -18.5391 C   0  0  0  0  0  0  0  0  0  0  0  0
   23.4529  -14.0063  -18.5891 O   0  0  0  0  0  0  0  0  0  0  0  0
   22.3389  -11.0126  -21.0130 C   0  0  0  0  0  0  0  0  0  0  0  0
   22.0871  -10.3716  -19.6705 C   0  0  1  0  0  0  0  0  0  0  0  0
   20.7472  -10.0626  -19.5217 O   0  0  0  0  0  0  0  0  0  0  0  0
   22.5242  -11.3210  -18.5593 C   0  0  2  0  0  0  0  0  0  0  0  0
   21.6852  -12.4825  -18.4917 N   0  0  0  0  0  0  0  0  0  0  0  0
   22.5914  -10.5913  -17.2668 C   0  0  0  0  0  0  0  0  0  0  0  0
   21.6222  -10.6259  -16.4945 O   0  0  0  0  0  0  0  0  0  0  0  0
   23.7364   -9.8592  -16.9001 N   0  0  0  0  0  0  0  0  0  0  0  0
   23.9077   -9.1259  -15.6927 C   0  0  1  0  0  0  0  0  0  0  0  0
   25.3344   -8.7323  -15.4107 C   0  0  0  0  0  0  0  0  0  0  0  0
   26.2942  -10.2574  -15.1290 S   0  0  0  0  0  0  0  0  0  0  0  0
   23.1062   -7.8855  -15.7660 C   0  0  0  0  0  0  0  0  0  0  0  0
   22.5497   -7.4783  -16.8150 O   0  0  0  0  0  0  0  0  0  0  0  0
   22.9529   -7.1222  -14.6224 O   0  0  0  0  0  0  0  0  0  0  0  0
  1  2  1  0
  2  4  1  0
  2  3  2  0
  5  4  1  0
  5  6  1  6
  7  5  1  0
  7  8  2  0
 10  9  1  6
 10 12  1  0
 11 10  1  0
 12 13  1  1
 12 14  1  0
 13  7  1  0
 14 16  1  0
 15 14  2  0
 16 17  1  0
 17 20  1  0
 17 18  1  6
 18 19  1  0
 20 21  2  0
 20 22  1  0
M  END
$$$$
