RCG.pdb
     RDKit          3D

 22 21  0  0  1  0  0  0  0  0999 V2000
    6.8045  -19.5900   25.6760 N   0  0  0  0  0  0  0  0  0  0  0  0
    7.2620  -19.0659   24.4163 C   0  0  0  0  0  0  0  0  0  0  0  0
    8.4776  -18.6689   24.2842 N   0  0  0  0  0  0  0  0  0  0  0  0
    6.3915  -18.9743   23.2965 N   0  0  0  0  0  0  0  0  0  0  0  0
    6.8351  -18.3472   22.0305 C   0  0  0  0  0  0  0  0  0  0  0  0
    6.6976  -16.8834   22.2467 C   0  0  0  0  0  0  0  0  0  0  0  0
    6.9804  -15.9821   21.0929 C   0  0  0  0  0  0  0  0  0  0  0  0
    6.8413  -14.5561   21.4497 C   0  0  2  0  0  0  0  0  0  0  0  0
    7.2693  -13.7270   20.3379 N   0  0  0  0  0  0  0  0  0  0  0  0
    7.6590  -14.1978   22.6670 C   0  0  0  0  0  0  0  0  0  0  0  0
    8.8877  -13.9480   22.5860 O   0  0  0  0  0  0  0  0  0  0  0  0
    8.8327  -18.1963   23.4281 N   0  0  0  0  0  0  0  0  0  0  0  0
    7.0804  -14.1254   23.9651 C   0  0  2  0  0  0  0  0  0  0  0  0
    7.8443  -13.8179   25.1504 C   0  0  0  0  0  0  0  0  0  0  0  0
    6.9935  -12.9675   26.0663 S   0  0  0  0  0  0  0  0  0  0  0  0
    7.7011  -12.7524   27.6945 C   0  0  0  0  0  0  0  0  0  0  0  0
    8.2388  -15.0324   25.8963 O   0  0  0  0  0  0  0  0  0  0  0  0
    7.3788  -15.9181   26.1027 N   0  0  0  0  0  0  0  0  0  0  0  0
    9.5492  -15.2384   26.3885 C   0  0  0  0  0  0  0  0  0  0  0  0
   10.2682  -16.4856   26.2130 C   0  0  0  0  0  0  0  0  0  0  0  0
   10.3492  -17.2333   27.5170 O   0  0  0  0  0  0  0  0  0  0  0  0
   11.1002  -18.3955   27.6151 O   0  0  0  0  0  0  0  0  0  0  0  0
  1  2  1  0
  2  3  2  0
  2  4  1  0
  5  4  1  0
  6  5  1  0
  7  8  1  0
  7  6  1  0
  8 10  1  0
  8  9  1  6
 10 11  2  0
 10 12  1  0
 12 13  1  0
 13 14  1  1
 13 16  1  0
 15 14  1  0
 16 17  2  0
 18 16  1  0
 18 19  1  0
 20 21  1  0
 20 19  1  0
 22 20  2  0
M  END
$$$$
