RCG.pdb
     RDKit          3D

 22 21  0  0  1  0  0  0  0  0999 V2000
    8.8193  -20.7996   20.9878 N   0  0  0  0  0  0  0  0  0  0  0  0
    8.0968  -20.4939   19.7813 C   0  0  0  0  0  0  0  0  0  0  0  0
    7.5372  -21.4344   19.1068 N   0  0  0  0  0  0  0  0  0  0  0  0
    7.9839  -19.1584   19.3085 N   0  0  0  0  0  0  0  0  0  0  0  0
    8.6069  -18.0315   20.0398 C   0  0  0  0  0  0  0  0  0  0  0  0
    7.8039  -17.8752   21.2805 C   0  0  0  0  0  0  0  0  0  0  0  0
    8.2819  -16.8951   22.2975 C   0  0  0  0  0  0  0  0  0  0  0  0
    7.8510  -15.5164   21.9918 C   0  0  2  0  0  0  0  0  0  0  0  0
    8.4685  -15.0708   20.7561 N   0  0  0  0  0  0  0  0  0  0  0  0
    8.2193  -14.5537   23.0947 C   0  0  0  0  0  0  0  0  0  0  0  0
    9.3705  -14.0576   23.1799 O   0  0  0  0  0  0  0  0  0  0  0  0
    6.9775  -21.2632   18.2467 N   0  0  0  0  0  0  0  0  0  0  0  0
    7.2830  -14.1605   24.0916 C   0  0  2  0  0  0  0  0  0  0  0  0
    7.6617  -13.4505   25.2897 C   0  0  0  0  0  0  0  0  0  0  0  0
    6.5889  -12.4340   25.6083 S   0  0  0  0  0  0  0  0  0  0  0  0
    6.7135  -11.7664   27.2626 C   0  0  0  0  0  0  0  0  0  0  0  0
    7.7962  -14.3485   26.4570 O   0  0  0  0  0  0  0  0  0  0  0  0
    6.7905  -14.9829   26.8477 N   0  0  0  0  0  0  0  0  0  0  0  0
    9.0150  -14.5230   27.1541 C   0  0  0  0  0  0  0  0  0  0  0  0
    9.1442  -15.3938   28.3066 C   0  0  0  0  0  0  0  0  0  0  0  0
   10.5361  -15.3114   28.8740 O   0  0  0  0  0  0  0  0  0  0  0  0
   10.8818  -16.0483   29.9972 O   0  0  0  0  0  0  0  0  0  0  0  0
  1  2  1  0
  2  3  2  0
  2  4  1  0
  5  4  1  0
  6  5  1  0
  7  8  1  0
  7  6  1  0
  8 10  1  0
  8  9  1  6
 10 11  2  0
 10 12  1  0
 12 13  1  0
 13 14  1  6
 13 16  1  0
 15 14  1  0
 16 17  2  0
 18 16  1  0
 18 19  1  0
 20 21  1  0
 20 19  1  0
 22 20  2  0
M  END
$$$$
