RCG.pdb
     RDKit          3D

 22 21  0  0  1  0  0  0  0  0999 V2000
    8.3014  -12.5606   16.5171 N   0  0  0  0  0  0  0  0  0  0  0  0
    8.6361  -13.9600   16.5412 C   0  0  0  0  0  0  0  0  0  0  0  0
    8.8617  -14.5899   15.4435 N   0  0  0  0  0  0  0  0  0  0  0  0
    8.7251  -14.6752   17.7661 N   0  0  0  0  0  0  0  0  0  0  0  0
    7.5185  -15.2390   18.4135 C   0  0  0  0  0  0  0  0  0  0  0  0
    7.1455  -14.2624   19.4697 C   0  0  0  0  0  0  0  0  0  0  0  0
    8.0634  -14.1174   20.6360 C   0  0  0  0  0  0  0  0  0  0  0  0
    7.8074  -15.1307   21.6789 C   0  0  2  0  0  0  0  0  0  0  0  0
    6.4113  -15.5263   21.6481 N   0  0  0  0  0  0  0  0  0  0  0  0
    8.1368  -14.6143   23.0586 C   0  0  0  0  0  0  0  0  0  0  0  0
    9.2522  -14.0991   23.3211 O   0  0  0  0  0  0  0  0  0  0  0  0
    9.0714  -15.6081   15.4037 N   0  0  0  0  0  0  0  0  0  0  0  0
    7.2022  -14.6850   24.1294 C   0  0  1  0  0  0  0  0  0  0  0  0
    7.5438  -14.3617   25.4939 C   0  0  0  0  0  0  0  0  0  0  0  0
    6.6098  -13.2775   25.9819 S   0  0  0  0  0  0  0  0  0  0  0  0
    6.8580  -12.8482   27.7000 C   0  0  0  0  0  0  0  0  0  0  0  0
    7.4028  -15.5226   26.3992 O   0  0  0  0  0  0  0  0  0  0  0  0
    6.2616  -15.9969   26.5969 N   0  0  0  0  0  0  0  0  0  0  0  0
    8.5042  -16.1228   27.0539 C   0  0  0  0  0  0  0  0  0  0  0  0
    8.3682  -17.2704   27.9302 C   0  0  0  0  0  0  0  0  0  0  0  0
    9.6922  -17.6094   28.5612 O   0  0  0  0  0  0  0  0  0  0  0  0
    9.7866  -18.6385   29.4866 O   0  0  0  0  0  0  0  0  0  0  0  0
  1  2  1  0
  2  3  2  0
  2  4  1  0
  5  4  1  0
  6  5  1  0
  7  8  1  0
  7  6  1  0
  8 10  1  0
  8  9  1  1
 10 11  2  0
 10 12  1  0
 12 13  1  0
 13 14  1  1
 13 16  1  0
 15 14  1  0
 16 17  2  0
 18 16  1  0
 18 19  1  0
 20 21  1  0
 20 19  1  0
 22 20  2  0
M  END
$$$$
