RCG.pdb
     RDKit          3D

 22 21  0  0  1  0  0  0  0  0999 V2000
   11.7759  -23.6863   20.9004 N   0  0  0  0  0  0  0  0  0  0  0  0
   12.4439  -22.7925   19.9917 C   0  0  0  0  0  0  0  0  0  0  0  0
   12.6366  -23.1387   18.7687 N   0  0  0  0  0  0  0  0  0  0  0  0
   12.9035  -21.5168   20.4176 N   0  0  0  0  0  0  0  0  0  0  0  0
   12.7110  -21.0596   21.8128 C   0  0  0  0  0  0  0  0  0  0  0  0
   11.2906  -20.6304   21.8942 C   0  0  0  0  0  0  0  0  0  0  0  0
   10.7770  -20.1790   23.2193 C   0  0  0  0  0  0  0  0  0  0  0  0
   11.6687  -19.1905   23.8579 C   0  0  2  0  0  0  0  0  0  0  0  0
   12.8093  -19.8664   24.4484 N   0  0  0  0  0  0  0  0  0  0  0  0
   10.9589  -18.4037   24.9331 C   0  0  0  0  0  0  0  0  0  0  0  0
    9.8870  -17.7900   24.7023 O   0  0  0  0  0  0  0  0  0  0  0  0
   13.0818  -22.5164   18.0638 N   0  0  0  0  0  0  0  0  0  0  0  0
   11.4671  -18.3175   26.2595 C   0  0  1  0  0  0  0  0  0  0  0  0
   10.8048  -17.5807   27.3090 C   0  0  0  0  0  0  0  0  0  0  0  0
   11.4888  -17.8892   28.6215 S   0  0  0  0  0  0  0  0  0  0  0  0
   10.9564  -16.8341   29.9637 C   0  0  0  0  0  0  0  0  0  0  0  0
   10.8695  -16.1186   27.0969 O   0  0  0  0  0  0  0  0  0  0  0  0
   11.9078  -15.6277   26.5995 N   0  0  0  0  0  0  0  0  0  0  0  0
    9.8064  -15.2471   27.4322 C   0  0  0  0  0  0  0  0  0  0  0  0
    9.8661  -13.8143   27.2161 C   0  0  0  0  0  0  0  0  0  0  0  0
    8.5846  -13.1620   27.6615 O   0  0  0  0  0  0  0  0  0  0  0  0
    8.4745  -11.7796   27.6950 O   0  0  0  0  0  0  0  0  0  0  0  0
  1  2  1  0
  2  3  2  0
  2  4  1  0
  5  4  1  0
  6  5  1  0
  7  8  1  0
  7  6  1  0
  8 10  1  0
  8  9  1  1
 10 11  2  0
 10 12  1  0
 12 13  1  0
 13 14  1  1
 13 16  1  0
 15 14  1  0
 16 17  2  0
 18 16  1  0
 18 19  1  0
 20 21  1  0
 20 19  1  0
 22 20  2  0
M  END
$$$$
