RCG.pdb
     RDKit          3D

 22 21  0  0  1  0  0  0  0  0999 V2000
    7.1166  -15.2969   16.7312 N   0  0  0  0  0  0  0  0  0  0  0  0
    7.7307  -14.0436   16.3805 C   0  0  0  0  0  0  0  0  0  0  0  0
    8.0546  -13.8012   15.1603 N   0  0  0  0  0  0  0  0  0  0  0  0
    7.9927  -13.0510   17.3635 N   0  0  0  0  0  0  0  0  0  0  0  0
    7.4163  -13.1490   18.7239 C   0  0  0  0  0  0  0  0  0  0  0  0
    7.9137  -14.4383   19.2704 C   0  0  0  0  0  0  0  0  0  0  0  0
    8.8061  -14.3878   20.4641 C   0  0  0  0  0  0  0  0  0  0  0  0
    8.2660  -15.1616   21.5996 C   0  0  2  0  0  0  0  0  0  0  0  0
    6.8273  -15.2965   21.4629 N   0  0  0  0  0  0  0  0  0  0  0  0
    8.5696  -14.5041   22.9242 C   0  0  0  0  0  0  0  0  0  0  0  0
    9.7472  -14.2452   23.2774 O   0  0  0  0  0  0  0  0  0  0  0  0
    8.5189  -12.9206   14.8583 N   0  0  0  0  0  0  0  0  0  0  0  0
    7.5392  -14.1453   23.8377 C   0  0  1  0  0  0  0  0  0  0  0  0
    7.7818  -13.8962   25.2385 C   0  0  0  0  0  0  0  0  0  0  0  0
    6.7359  -12.9293   25.7455 S   0  0  0  0  0  0  0  0  0  0  0  0
    6.7741  -12.7097   27.5198 C   0  0  0  0  0  0  0  0  0  0  0  0
    7.6931  -15.1277   26.0524 O   0  0  0  0  0  0  0  0  0  0  0  0
    6.5902  -15.7127   26.1411 N   0  0  0  0  0  0  0  0  0  0  0  0
    8.8031  -15.6759   26.7376 C   0  0  0  0  0  0  0  0  0  0  0  0
    8.7150  -16.8804   27.5406 C   0  0  0  0  0  0  0  0  0  0  0  0
   10.0236  -17.1448   28.2362 O   0  0  0  0  0  0  0  0  0  0  0  0
   10.1483  -18.2083   29.1181 O   0  0  0  0  0  0  0  0  0  0  0  0
  1  2  1  0
  2  3  2  0
  2  4  1  0
  5  4  1  0
  6  5  1  0
  7  8  1  0
  7  6  1  0
  8 10  1  0
  8  9  1  6
 10 11  2  0
 10 12  1  0
 12 13  1  0
 13 14  1  1
 13 16  1  0
 15 14  1  0
 16 17  2  0
 18 16  1  0
 18 19  1  0
 20 21  1  0
 20 19  1  0
 22 20  2  0
M  END
$$$$
