RCG.pdb
     RDKit          3D

 22 21  0  0  1  0  0  0  0  0999 V2000
    5.9995  -19.6107   22.3425 N   0  0  0  0  0  0  0  0  0  0  0  0
    7.1148  -19.8318   21.4603 C   0  0  0  0  0  0  0  0  0  0  0  0
    7.1867  -20.9121   20.7671 N   0  0  0  0  0  0  0  0  0  0  0  0
    8.1553  -18.8720   21.3334 N   0  0  0  0  0  0  0  0  0  0  0  0
    8.1167  -17.5963   22.0842 C   0  0  0  0  0  0  0  0  0  0  0  0
    7.5693  -16.5953   21.1321 C   0  0  0  0  0  0  0  0  0  0  0  0
    6.5937  -15.5979   21.6585 C   0  0  0  0  0  0  0  0  0  0  0  0
    7.2099  -14.2742   21.8778 C   0  0  2  0  0  0  0  0  0  0  0  0
    8.2117  -14.0231   20.8580 N   0  0  0  0  0  0  0  0  0  0  0  0
    7.8620  -14.1746   23.2356 C   0  0  0  0  0  0  0  0  0  0  0  0
    9.0956  -14.3565   23.3898 O   0  0  0  0  0  0  0  0  0  0  0  0
    7.9608  -21.1111   20.1011 N   0  0  0  0  0  0  0  0  0  0  0  0
    7.1136  -13.8703   24.4072 C   0  0  2  0  0  0  0  0  0  0  0  0
    7.6941  -13.8526   25.7284 C   0  0  0  0  0  0  0  0  0  0  0  0
    6.7932  -13.0517   26.6411 S   0  0  0  0  0  0  0  0  0  0  0  0
    6.6273  -11.3401   26.1500 C   0  0  0  0  0  0  0  0  0  0  0  0
    7.8295  -15.2091   26.3016 O   0  0  0  0  0  0  0  0  0  0  0  0
    6.8138  -15.9370   26.3723 N   0  0  0  0  0  0  0  0  0  0  0  0
    9.0600  -15.7223   26.7752 C   0  0  0  0  0  0  0  0  0  0  0  0
    9.2322  -17.1044   27.1795 C   0  0  0  0  0  0  0  0  0  0  0  0
   10.5859  -17.3033   27.8073 O   0  0  0  0  0  0  0  0  0  0  0  0
   10.7164  -17.3811   29.1861 O   0  0  0  0  0  0  0  0  0  0  0  0
  1  2  1  0
  2  3  2  0
  2  4  1  0
  5  4  1  0
  6  5  1  0
  7  8  1  0
  7  6  1  0
  8 10  1  0
  8  9  1  6
 10 11  2  0
 10 12  1  0
 12 13  1  0
 13 14  1  6
 13 16  1  0
 15 14  1  0
 16 17  2  0
 18 16  1  0
 18 19  1  0
 20 21  1  0
 20 19  1  0
 22 20  2  0
M  END
$$$$
