RCG.pdb
     RDKit          3D

 22 21  0  0  1  0  0  0  0  0999 V2000
    8.9414  -18.9433   17.1835 N   0  0  0  0  0  0  0  0  0  0  0  0
    7.7813  -18.1388   16.9048 C   0  0  0  0  0  0  0  0  0  0  0  0
    7.4692  -17.8526   15.6910 N   0  0  0  0  0  0  0  0  0  0  0  0
    6.9584  -17.6444   17.9530 N   0  0  0  0  0  0  0  0  0  0  0  0
    6.5768  -16.2152   18.0180 C   0  0  0  0  0  0  0  0  0  0  0  0
    7.8589  -15.4641   18.0047 C   0  0  0  0  0  0  0  0  0  0  0  0
    8.4754  -15.1203   19.3182 C   0  0  0  0  0  0  0  0  0  0  0  0
    7.7715  -14.0119   19.9937 C   0  0  2  0  0  0  0  0  0  0  0  0
    7.9791  -12.7774   19.2592 N   0  0  0  0  0  0  0  0  0  0  0  0
    8.2519  -13.8211   21.4120 C   0  0  0  0  0  0  0  0  0  0  0  0
    9.4101  -13.4054   21.6658 O   0  0  0  0  0  0  0  0  0  0  0  0
    6.7090  -17.1883   15.4397 N   0  0  0  0  0  0  0  0  0  0  0  0
    7.4187  -14.1021   22.5309 C   0  0  2  0  0  0  0  0  0  0  0  0
    7.9332  -14.2972   23.8651 C   0  0  0  0  0  0  0  0  0  0  0  0
    6.8590  -13.9147   24.8579 S   0  0  0  0  0  0  0  0  0  0  0  0
    6.4355  -12.1779   24.8103 C   0  0  0  0  0  0  0  0  0  0  0  0
    8.3086  -15.7042   24.1232 O   0  0  0  0  0  0  0  0  0  0  0  0
    7.4143  -16.5149   24.4543 N   0  0  0  0  0  0  0  0  0  0  0  0
    9.6378  -16.1762   24.0120 C   0  0  0  0  0  0  0  0  0  0  0  0
   10.2113  -17.1360   24.9356 C   0  0  0  0  0  0  0  0  0  0  0  0
   11.5735  -17.5697   24.4639 O   0  0  0  0  0  0  0  0  0  0  0  0
   11.7668  -18.8441   23.9514 O   0  0  0  0  0  0  0  0  0  0  0  0
  1  2  1  0
  2  3  2  0
  2  4  1  0
  5  4  1  0
  6  5  1  0
  7  8  1  0
  7  6  1  0
  8 10  1  0
  8  9  1  6
 10 11  2  0
 10 12  1  0
 12 13  1  0
 13 14  1  6
 13 16  1  0
 15 14  1  0
 16 17  2  0
 18 16  1  0
 18 19  1  0
 20 21  1  0
 20 19  1  0
 22 20  2  0
M  END
$$$$
