RCG.pdb
     RDKit          3D

 22 21  0  0  1  0  0  0  0  0999 V2000
    8.2123  -12.2144   17.9549 N   0  0  0  0  0  0  0  0  0  0  0  0
    8.4966  -13.5418   17.4774 C   0  0  0  0  0  0  0  0  0  0  0  0
    8.5440  -13.7784   16.2146 N   0  0  0  0  0  0  0  0  0  0  0  0
    8.7299  -14.6151   18.3794 N   0  0  0  0  0  0  0  0  0  0  0  0
    7.6127  -15.4379   18.8964 C   0  0  0  0  0  0  0  0  0  0  0  0
    7.1071  -14.7106   20.0896 C   0  0  0  0  0  0  0  0  0  0  0  0
    8.0338  -14.5461   21.2462 C   0  0  0  0  0  0  0  0  0  0  0  0
    7.9170  -15.6510   22.2185 C   0  0  2  0  0  0  0  0  0  0  0  0
    6.5669  -16.1834   22.1980 N   0  0  0  0  0  0  0  0  0  0  0  0
    8.2420  -15.2022   23.6227 C   0  0  0  0  0  0  0  0  0  0  0  0
    9.3540  -14.6937   23.9118 O   0  0  0  0  0  0  0  0  0  0  0  0
    8.7177  -14.7245   15.8185 N   0  0  0  0  0  0  0  0  0  0  0  0
    7.3071  -15.3322   24.6876 C   0  0  1  0  0  0  0  0  0  0  0  0
    7.6094  -14.9607   26.0491 C   0  0  0  0  0  0  0  0  0  0  0  0
    6.4775  -14.1109   26.5806 S   0  0  0  0  0  0  0  0  0  0  0  0
    6.2545  -12.5826   25.6791 C   0  0  0  0  0  0  0  0  0  0  0  0
    7.7483  -16.1364   26.9354 O   0  0  0  0  0  0  0  0  0  0  0  0
    6.7128  -16.7134   27.3370 N   0  0  0  0  0  0  0  0  0  0  0  0
    9.0037  -16.6396   27.3509 C   0  0  0  0  0  0  0  0  0  0  0  0
    9.1408  -17.8056   28.2024 C   0  0  0  0  0  0  0  0  0  0  0  0
   10.5947  -18.1355   28.4112 O   0  0  0  0  0  0  0  0  0  0  0  0
   10.9724  -19.0805   29.3539 O   0  0  0  0  0  0  0  0  0  0  0  0
  1  2  1  0
  2  3  2  0
  2  4  1  0
  5  4  1  0
  6  5  1  0
  7  8  1  0
  7  6  1  0
  8 10  1  0
  8  9  1  1
 10 11  2  0
 10 12  1  0
 12 13  1  0
 13 14  1  1
 13 16  1  0
 15 14  1  0
 16 17  2  0
 18 16  1  0
 18 19  1  0
 20 21  1  0
 20 19  1  0
 22 20  2  0
M  END
$$$$
