RCG.pdb
     RDKit          3D

 22 21  0  0  1  0  0  0  0  0999 V2000
    7.1204  -17.7028   15.9976 N   0  0  0  0  0  0  0  0  0  0  0  0
    7.7249  -18.4916   17.0384 C   0  0  0  0  0  0  0  0  0  0  0  0
    8.7046  -19.2785   16.7671 N   0  0  0  0  0  0  0  0  0  0  0  0
    7.2598  -18.4224   18.3796 N   0  0  0  0  0  0  0  0  0  0  0  0
    6.7748  -17.1482   18.9576 C   0  0  0  0  0  0  0  0  0  0  0  0
    7.3943  -16.0798   18.1310 C   0  0  0  0  0  0  0  0  0  0  0  0
    8.3596  -15.1590   18.7972 C   0  0  0  0  0  0  0  0  0  0  0  0
    7.6865  -14.0149   19.4438 C   0  0  2  0  0  0  0  0  0  0  0  0
    7.8575  -12.8223   18.6345 N   0  0  0  0  0  0  0  0  0  0  0  0
    8.2326  -13.7479   20.8256 C   0  0  0  0  0  0  0  0  0  0  0  0
    9.4232  -13.3895   21.0063 O   0  0  0  0  0  0  0  0  0  0  0  0
    9.1752  -19.8697   17.4822 N   0  0  0  0  0  0  0  0  0  0  0  0
    7.4279  -13.8886   21.9909 C   0  0  2  0  0  0  0  0  0  0  0  0
    7.9666  -13.8401   23.3289 C   0  0  0  0  0  0  0  0  0  0  0  0
    6.9272  -13.2370   24.2465 S   0  0  0  0  0  0  0  0  0  0  0  0
    7.3942  -13.2804   25.9722 C   0  0  0  0  0  0  0  0  0  0  0  0
    8.3050  -15.1829   23.8481 O   0  0  0  0  0  0  0  0  0  0  0  0
    7.3844  -16.0151   24.0110 N   0  0  0  0  0  0  0  0  0  0  0  0
    9.6273  -15.5700   24.1698 C   0  0  0  0  0  0  0  0  0  0  0  0
    9.9567  -16.8793   24.6994 C   0  0  0  0  0  0  0  0  0  0  0  0
   11.4264  -16.9642   25.0141 O   0  0  0  0  0  0  0  0  0  0  0  0
   11.9542  -18.1041   25.6024 O   0  0  0  0  0  0  0  0  0  0  0  0
  1  2  1  0
  2  3  2  0
  2  4  1  0
  5  4  1  0
  6  5  1  0
  7  8  1  0
  7  6  1  0
  8 10  1  0
  8  9  1  6
 10 11  2  0
 10 12  1  0
 12 13  1  0
 13 14  1  1
 13 16  1  0
 15 14  1  0
 16 17  2  0
 18 16  1  0
 18 19  1  0
 20 21  1  0
 20 19  1  0
 22 20  2  0
M  END
$$$$
