RTD.pdb
     RDKit          3D

 27 26  0  0  1  0  0  0  0  0999 V2000
    8.1613  -14.9625   17.8743 N   0  0  0  0  0  0  0  0  0  0  0  0
    7.8837  -13.7298   18.5426 C   0  0  0  0  0  0  0  0  0  0  0  0
    8.4836  -12.6680   18.1177 N   0  0  0  0  0  0  0  0  0  0  0  0
    6.9837  -13.6543   19.6361 N   0  0  0  0  0  0  0  0  0  0  0  0
    6.5557  -14.7855   20.3870 C   0  0  0  0  0  0  0  0  0  0  0  0
    7.6448  -15.6615   20.8940 C   0  0  0  0  0  0  0  0  0  0  0  0
    7.9873  -15.5626   22.3268 C   0  0  0  0  0  0  0  0  0  0  0  0
    9.2251  -14.7890   22.6543 C   0  0  2  0  0  0  0  0  0  0  0  0
   10.1887  -14.9534   21.6048 N   0  0  0  0  0  0  0  0  0  0  0  0
    9.8298  -15.1711   23.9477 C   0  0  0  0  0  0  0  0  0  0  0  0
   11.0026  -15.6534   23.9837 O   0  0  0  0  0  0  0  0  0  0  0  0
    8.2889  -11.7397   18.5029 C   0  0  0  0  0  0  0  0  0  0  0  0
    9.9083  -14.1966   28.7808 C   0  0  2  0  0  0  0  0  0  0  0  0
    9.2498  -14.2111   27.4200 O   0  0  0  0  0  0  0  0  0  0  0  0
    9.4053  -12.9426   26.8108 C   0  0  1  0  0  0  0  0  0  0  0  0
    9.8868  -15.2146   26.4766 N   0  0  0  0  0  0  0  0  0  0  0  0
    9.1825  -15.0387   25.2064 C   0  0  0  0  0  0  0  0  0  0  0  0
    9.8177  -16.5935   26.9629 O   0  0  0  0  0  0  0  0  0  0  0  0
    8.7059  -17.1773   27.0422 N   0  0  0  0  0  0  0  0  0  0  0  0
   10.9645  -17.3478   27.3669 C   0  0  1  0  0  0  0  0  0  0  0  0
   10.8937  -18.6606   27.9744 C   0  0  0  0  0  0  0  0  0  0  0  0
   12.2248  -19.3561   27.8349 C   0  0  0  0  0  0  0  0  0  0  0  0
   12.7054  -19.4610   26.4558 O   0  0  0  0  0  0  0  0  0  0  0  0
   11.9392  -19.0180   25.5391 C   0  0  0  0  0  0  0  0  0  0  0  0
   10.4514  -18.5917   29.3744 O   0  0  0  0  0  0  0  0  0  0  0  0
   10.0750  -19.7433   30.0318 O   0  0  0  0  0  0  0  0  0  0  0  0
   13.8990  -19.9865   26.0328 O   0  0  0  0  0  0  0  0  0  0  0  0
  2  1  1  0
  3  2  2  0
  4  2  1  0
  5  4  1  0
  6  5  1  0
  7  6  1  0
  8 10  1  0
  8  7  1  0
  8  9  1  6
 10 11  2  0
 13 12  1  1
 13 14  1  0
 15 13  1  0
 16 10  1  0
 15 16  1  1
 17 19  1  0
 17 15  1  0
 18 17  2  0
 20 21  1  1
 20 19  1  0
 21 22  1  0
 22 26  1  0
 22 23  2  0
 24 20  1  0
 24 25  1  0
 27 24  2  0
M  END
$$$$
