RTD.pdb
     RDKit          3D

 27 26  0  0  1  0  0  0  0  0999 V2000
    8.5177  -12.0856   20.8569 N   0  0  0  0  0  0  0  0  0  0  0  0
    8.4976  -11.5491   19.5321 C   0  0  0  0  0  0  0  0  0  0  0  0
    9.1672  -10.4671   19.3122 N   0  0  0  0  0  0  0  0  0  0  0  0
    7.7737  -12.1688   18.4818 N   0  0  0  0  0  0  0  0  0  0  0  0
    6.9414  -13.3099   18.6615 C   0  0  0  0  0  0  0  0  0  0  0  0
    7.3536  -14.5229   17.9070 C   0  0  0  0  0  0  0  0  0  0  0  0
    8.6398  -15.1485   18.2731 C   0  0  0  0  0  0  0  0  0  0  0  0
    9.0887  -16.2825   17.4069 C   0  0  2  0  0  0  0  0  0  0  0  0
    8.0791  -17.3009   17.3835 N   0  0  0  0  0  0  0  0  0  0  0  0
   10.3767  -16.8702   17.8317 C   0  0  0  0  0  0  0  0  0  0  0  0
   10.3932  -17.9351   18.5211 O   0  0  0  0  0  0  0  0  0  0  0  0
    9.2183  -10.0354   18.3853 C   0  0  0  0  0  0  0  0  0  0  0  0
   13.0811  -18.2668   15.9749 C   0  0  2  0  0  0  0  0  0  0  0  0
   13.7321  -17.2139   16.8429 O   0  0  0  0  0  0  0  0  0  0  0  0
   13.8684  -16.0150   16.1023 C   0  0  2  0  0  0  0  0  0  0  0  0
   12.8962  -16.8665   18.0608 N   0  0  0  0  0  0  0  0  0  0  0  0
   11.6505  -16.3212   17.5208 C   0  0  0  0  0  0  0  0  0  0  0  0
   13.5599  -15.9346   18.9739 O   0  0  0  0  0  0  0  0  0  0  0  0
   13.3403  -14.6992   18.8805 N   0  0  0  0  0  0  0  0  0  0  0  0
   14.4701  -16.3451   19.9987 C   0  0  1  0  0  0  0  0  0  0  0  0
   15.0603  -15.4404   20.9634 C   0  0  0  0  0  0  0  0  0  0  0  0
   15.3223  -16.1759   22.2538 C   0  0  0  0  0  0  0  0  0  0  0  0
   14.1222  -16.7316   22.8822 O   0  0  0  0  0  0  0  0  0  0  0  0
   13.1216  -15.9533   23.0111 C   0  0  0  0  0  0  0  0  0  0  0  0
   16.2736  -14.7977   20.4387 O   0  0  0  0  0  0  0  0  0  0  0  0
   16.9312  -13.8527   21.1966 O   0  0  0  0  0  0  0  0  0  0  0  0
   13.9493  -18.0077   23.3525 O   0  0  0  0  0  0  0  0  0  0  0  0
  2  1  1  0
  3  2  2  0
  4  2  1  0
  5  4  1  0
  6  5  1  0
  7  6  1  0
  8 10  1  0
  8  7  1  0
  8  9  1  1
 10 11  2  0
 13 12  1  6
 13 14  1  0
 15 13  1  0
 16 10  1  0
 15 16  1  1
 17 19  1  0
 17 15  1  0
 18 17  2  0
 20 21  1  1
 20 19  1  0
 21 22  1  0
 22 26  1  0
 22 23  2  0
 24 20  1  0
 24 25  1  0
 27 24  2  0
M  END
$$$$
