RTD.pdb
     RDKit          3D

 27 26  0  0  1  0  0  0  0  0999 V2000
    8.2901  -12.5583   21.1346 N   0  0  0  0  0  0  0  0  0  0  0  0
    8.4007  -13.0074   19.7821 C   0  0  0  0  0  0  0  0  0  0  0  0
    8.0363  -12.1941   18.8476 N   0  0  0  0  0  0  0  0  0  0  0  0
    8.8914  -14.2977   19.4569 N   0  0  0  0  0  0  0  0  0  0  0  0
    8.2134  -15.5064   19.7829 C   0  0  0  0  0  0  0  0  0  0  0  0
    6.8042  -15.3450   20.2284 C   0  0  0  0  0  0  0  0  0  0  0  0
    6.4805  -15.7282   21.6170 C   0  0  0  0  0  0  0  0  0  0  0  0
    6.5869  -17.1855   21.9380 C   0  0  2  0  0  0  0  0  0  0  0  0
    5.5288  -17.9016   21.2865 N   0  0  0  0  0  0  0  0  0  0  0  0
    6.5590  -17.4695   23.3882 C   0  0  0  0  0  0  0  0  0  0  0  0
    5.4601  -17.4378   24.0214 O   0  0  0  0  0  0  0  0  0  0  0  0
    8.1725  -12.4061   17.8554 C   0  0  0  0  0  0  0  0  0  0  0  0
    7.5716  -20.0926   27.0991 C   0  0  2  0  0  0  0  0  0  0  0  0
    7.3906  -19.5644   25.6940 O   0  0  0  0  0  0  0  0  0  0  0  0
    6.0524  -19.7755   25.2830 C   0  0  1  0  0  0  0  0  0  0  0  0
    7.6317  -18.0692   25.5996 N   0  0  0  0  0  0  0  0  0  0  0  0
    7.7055  -17.7884   24.1657 C   0  0  0  0  0  0  0  0  0  0  0  0
    8.8308  -17.6282   26.3138 O   0  0  0  0  0  0  0  0  0  0  0  0
    9.9468  -17.6346   25.7326 N   0  0  0  0  0  0  0  0  0  0  0  0
    8.8211  -17.1751   27.6710 C   0  0  1  0  0  0  0  0  0  0  0  0
    9.9994  -16.7164   28.3770 C   0  0  0  0  0  0  0  0  0  0  0  0
    9.7204  -15.3770   29.0120 C   0  0  0  0  0  0  0  0  0  0  0  0
    9.7124  -14.2561   28.0700 O   0  0  0  0  0  0  0  0  0  0  0  0
    9.5060  -13.0948   28.5520 C   0  0  0  0  0  0  0  0  0  0  0  0
   10.4680  -17.7052   29.3583 O   0  0  0  0  0  0  0  0  0  0  0  0
   11.7337  -17.5940   29.8926 O   0  0  0  0  0  0  0  0  0  0  0  0
    9.9042  -14.3132   26.7137 O   0  0  0  0  0  0  0  0  0  0  0  0
  2  1  1  0
  3  2  2  0
  4  2  1  0
  5  4  1  0
  6  5  1  0
  7  6  1  0
  8 10  1  0
  8  7  1  0
  8  9  1  6
 10 11  2  0
 13 12  1  6
 13 14  1  0
 15 13  1  0
 16 10  1  0
 15 16  1  6
 17 19  1  0
 17 15  1  0
 18 17  2  0
 20 21  1  1
 20 19  1  0
 21 22  1  0
 22 26  1  0
 22 23  2  0
 24 20  1  0
 24 25  1  0
 27 24  2  0
M  END
$$$$
