RTD.pdb
     RDKit          3D

 27 26  0  0  1  0  0  0  0  0999 V2000
    8.4651  -11.8751   20.7024 N   0  0  0  0  0  0  0  0  0  0  0  0
    8.7295  -12.5225   19.4557 C   0  0  0  0  0  0  0  0  0  0  0  0
    8.9442  -11.7752   18.4247 N   0  0  0  0  0  0  0  0  0  0  0  0
    8.7596  -13.9352   19.3346 N   0  0  0  0  0  0  0  0  0  0  0  0
    7.5969  -14.7386   19.1625 C   0  0  0  0  0  0  0  0  0  0  0  0
    7.8476  -16.1965   19.0137 C   0  0  0  0  0  0  0  0  0  0  0  0
    9.2476  -16.6586   19.0921 C   0  0  0  0  0  0  0  0  0  0  0  0
    9.5597  -17.6252   20.1904 C   0  0  2  0  0  0  0  0  0  0  0  0
    8.4588  -18.5274   20.3665 N   0  0  0  0  0  0  0  0  0  0  0  0
    9.8743  -16.9688   21.4768 C   0  0  0  0  0  0  0  0  0  0  0  0
   10.8624  -16.1776   21.5621 O   0  0  0  0  0  0  0  0  0  0  0  0
    9.1045  -12.1649   17.4917 C   0  0  0  0  0  0  0  0  0  0  0  0
    7.9095  -14.7496   23.7214 C   0  0  2  0  0  0  0  0  0  0  0  0
    8.3514  -15.9382   24.5447 O   0  0  0  0  0  0  0  0  0  0  0  0
    7.3215  -16.9097   24.5552 C   0  0  2  0  0  0  0  0  0  0  0  0
    9.5746  -16.6243   23.9651 N   0  0  0  0  0  0  0  0  0  0  0  0
    9.1336  -17.1563   22.6755 C   0  0  0  0  0  0  0  0  0  0  0  0
   10.1238  -17.6648   24.8359 O   0  0  0  0  0  0  0  0  0  0  0  0
    9.6479  -18.8291   24.8017 N   0  0  0  0  0  0  0  0  0  0  0  0
   11.1996  -17.4421   25.7526 C   0  0  1  0  0  0  0  0  0  0  0  0
   11.7365  -18.4619   26.6296 C   0  0  0  0  0  0  0  0  0  0  0  0
   13.2237  -18.2644   26.7856 C   0  0  0  0  0  0  0  0  0  0  0  0
   13.9928  -18.5067   25.5634 O   0  0  0  0  0  0  0  0  0  0  0  0
   13.3467  -18.9103   24.5420 C   0  0  0  0  0  0  0  0  0  0  0  0
   11.0445  -18.4873   27.9261 O   0  0  0  0  0  0  0  0  0  0  0  0
   10.1314  -17.5020   28.2351 O   0  0  0  0  0  0  0  0  0  0  0  0
   15.3432  -18.3467   25.3897 O   0  0  0  0  0  0  0  0  0  0  0  0
  2  1  1  0
  3  2  2  0
  4  2  1  0
  5  4  1  0
  6  5  1  0
  7  6  1  0
  8 10  1  0
  8  7  1  0
  8  9  1  1
 10 11  2  0
 13 12  1  1
 13 14  1  0
 15 13  1  0
 16 10  1  0
 15 16  1  1
 17 19  1  0
 17 15  1  0
 18 17  2  0
 20 21  1  1
 20 19  1  0
 21 22  1  0
 22 26  1  0
 22 23  2  0
 24 20  1  0
 24 25  1  0
 27 24  2  0
M  END
$$$$
