RTD.pdb
     RDKit          3D

 27 26  0  0  1  0  0  0  0  0999 V2000
   10.7561  -16.2083   15.8147 N   0  0  0  0  0  0  0  0  0  0  0  0
    9.6442  -17.0639   15.5409 C   0  0  0  0  0  0  0  0  0  0  0  0
    9.8752  -18.3288   15.4207 N   0  0  0  0  0  0  0  0  0  0  0  0
    8.3255  -16.5609   15.4028 N   0  0  0  0  0  0  0  0  0  0  0  0
    7.9014  -15.3030   15.9175 C   0  0  0  0  0  0  0  0  0  0  0  0
    8.4593  -14.9389   17.2467 C   0  0  0  0  0  0  0  0  0  0  0  0
    7.5433  -14.9784   18.4039 C   0  0  0  0  0  0  0  0  0  0  0  0
    7.4305  -13.7142   19.1958 C   0  0  2  0  0  0  0  0  0  0  0  0
    7.9641  -12.6203   18.4370 N   0  0  0  0  0  0  0  0  0  0  0  0
    8.1053  -13.7833   20.5090 C   0  0  0  0  0  0  0  0  0  0  0  0
    9.2493  -13.2572   20.6646 O   0  0  0  0  0  0  0  0  0  0  0  0
    9.1354  -19.0002   15.1974 C   0  0  0  0  0  0  0  0  0  0  0  0
    7.7275  -14.6429   25.3899 C   0  0  2  0  0  0  0  0  0  0  0  0
    7.1849  -14.4372   23.9938 O   0  0  0  0  0  0  0  0  0  0  0  0
    6.5959  -13.1528   23.9048 C   0  0  1  0  0  0  0  0  0  0  0  0
    8.2718  -14.4788   22.9357 N   0  0  0  0  0  0  0  0  0  0  0  0
    7.5592  -14.4146   21.6595 C   0  0  0  0  0  0  0  0  0  0  0  0
    9.1313  -15.6596   23.0324 O   0  0  0  0  0  0  0  0  0  0  0  0
    8.6857  -16.7901   22.7059 N   0  0  0  0  0  0  0  0  0  0  0  0
   10.4874  -15.6154   23.4868 C   0  0  1  0  0  0  0  0  0  0  0  0
   11.3411  -16.7805   23.5930 C   0  0  0  0  0  0  0  0  0  0  0  0
   12.7872  -16.3566   23.5288 C   0  0  0  0  0  0  0  0  0  0  0  0
   13.7416  -17.4635   23.6183 O   0  0  0  0  0  0  0  0  0  0  0  0
   14.7309  -17.3141   24.4073 C   0  0  0  0  0  0  0  0  0  0  0  0
   11.0489  -17.5635   24.8020 O   0  0  0  0  0  0  0  0  0  0  0  0
   11.1881  -18.9347   24.7808 O   0  0  0  0  0  0  0  0  0  0  0  0
   13.6920  -18.6558   22.9434 O   0  0  0  0  0  0  0  0  0  0  0  0
  2  1  1  0
  3  2  2  0
  4  2  1  0
  5  4  1  0
  6  5  1  0
  7  6  1  0
  8 10  1  0
  8  7  1  0
  8  9  1  6
 10 11  2  0
 13 12  1  1
 13 14  1  0
 15 13  1  0
 16 10  1  0
 15 16  1  6
 17 19  1  0
 17 15  1  0
 18 17  2  0
 20 21  1  1
 20 19  1  0
 21 22  1  0
 22 26  1  0
 22 23  2  0
 24 20  1  0
 24 25  1  0
 27 24  2  0
M  END
$$$$
