RTD.pdb
     RDKit          3D

 27 26  0  0  1  0  0  0  0  0999 V2000
    9.4322  -16.1048   11.6313 N   0  0  0  0  0  0  0  0  0  0  0  0
   10.6003  -16.9286   11.6465 C   0  0  0  0  0  0  0  0  0  0  0  0
   11.3811  -16.8824   10.6190 N   0  0  0  0  0  0  0  0  0  0  0  0
   10.9089  -17.7740   12.7426 N   0  0  0  0  0  0  0  0  0  0  0  0
   10.0980  -17.8857   13.9074 C   0  0  0  0  0  0  0  0  0  0  0  0
   10.2041  -16.7551   14.8671 C   0  0  0  0  0  0  0  0  0  0  0  0
    9.4875  -16.8823   16.1516 C   0  0  0  0  0  0  0  0  0  0  0  0
    8.5924  -15.7418   16.5202 C   0  0  2  0  0  0  0  0  0  0  0  0
    8.5149  -14.8165   15.4271 N   0  0  0  0  0  0  0  0  0  0  0  0
    9.0223  -15.0309   17.7427 C   0  0  0  0  0  0  0  0  0  0  0  0
   10.0326  -14.2643   17.7105 O   0  0  0  0  0  0  0  0  0  0  0  0
   12.2325  -17.4472   10.5543 C   0  0  0  0  0  0  0  0  0  0  0  0
    7.1335  -12.7838   20.0320 C   0  0  2  0  0  0  0  0  0  0  0  0
    7.7435  -13.8659   20.8939 O   0  0  0  0  0  0  0  0  0  0  0  0
    6.7814  -14.8785   21.1252 C   0  0  2  0  0  0  0  0  0  0  0  0
    8.9223  -14.5472   20.2239 N   0  0  0  0  0  0  0  0  0  0  0  0
    8.3734  -15.1375   19.0029 C   0  0  0  0  0  0  0  0  0  0  0  0
    9.5784  -15.5415   21.0745 O   0  0  0  0  0  0  0  0  0  0  0  0
   10.0466  -16.5930   20.5661 N   0  0  0  0  0  0  0  0  0  0  0  0
    9.7295  -15.3951   22.4898 C   0  0  1  0  0  0  0  0  0  0  0  0
   10.6092  -16.2154   23.2964 C   0  0  0  0  0  0  0  0  0  0  0  0
   12.0037  -16.1785   22.7230 C   0  0  0  0  0  0  0  0  0  0  0  0
   13.0021  -16.8862   23.5269 O   0  0  0  0  0  0  0  0  0  0  0  0
   12.6381  -17.9775   24.0748 C   0  0  0  0  0  0  0  0  0  0  0  0
   10.5837  -15.8164   24.7108 O   0  0  0  0  0  0  0  0  0  0  0  0
   11.1821  -16.6173   25.6598 O   0  0  0  0  0  0  0  0  0  0  0  0
   14.2984  -16.5056   23.7598 O   0  0  0  0  0  0  0  0  0  0  0  0
  2  1  1  0
  3  2  2  0
  4  2  1  0
  5  4  1  0
  6  5  1  0
  7  6  1  0
  8 10  1  0
  8  7  1  0
  8  9  1  6
 10 11  2  0
 13 12  1  1
 13 14  1  0
 15 13  1  0
 16 10  1  0
 15 16  1  1
 17 19  1  0
 17 15  1  0
 18 17  2  0
 20 21  1  1
 20 19  1  0
 21 22  1  0
 22 26  1  0
 22 23  2  0
 24 20  1  0
 24 25  1  0
 27 24  2  0
M  END
$$$$
