RTD.pdb
     RDKit          3D

 27 26  0  0  1  0  0  0  0  0999 V2000
    9.2925  -12.7687   20.5905 N   0  0  0  0  0  0  0  0  0  0  0  0
    8.5232  -12.2006   19.5280 C   0  0  0  0  0  0  0  0  0  0  0  0
    8.9539  -11.1069   18.9931 N   0  0  0  0  0  0  0  0  0  0  0  0
    7.3259  -12.8018   19.0629 N   0  0  0  0  0  0  0  0  0  0  0  0
    6.7518  -13.9696   19.6404 C   0  0  0  0  0  0  0  0  0  0  0  0
    7.1349  -15.2528   18.9945 C   0  0  0  0  0  0  0  0  0  0  0  0
    8.3340  -15.9433   19.5095 C   0  0  0  0  0  0  0  0  0  0  0  0
    8.6821  -17.2381   18.8459 C   0  0  2  0  0  0  0  0  0  0  0  0
    7.4928  -18.0158   18.6516 N   0  0  0  0  0  0  0  0  0  0  0  0
    9.6773  -18.0322   19.5966 C   0  0  0  0  0  0  0  0  0  0  0  0
    9.2952  -18.8670   20.4722 O   0  0  0  0  0  0  0  0  0  0  0  0
    8.4269  -10.6077   18.2713 C   0  0  0  0  0  0  0  0  0  0  0  0
   12.2885  -20.4104   18.6006 C   0  0  2  0  0  0  0  0  0  0  0  0
   12.9889  -19.3362   19.4014 O   0  0  0  0  0  0  0  0  0  0  0  0
   13.5371  -18.3755   18.5176 C   0  0  2  0  0  0  0  0  0  0  0  0
   12.0409  -18.5798   20.3135 N   0  0  0  0  0  0  0  0  0  0  0  0
   11.0837  -17.9364   19.4134 C   0  0  0  0  0  0  0  0  0  0  0  0
   12.7174  -17.6170   21.1842 O   0  0  0  0  0  0  0  0  0  0  0  0
   12.7065  -16.3924   20.8954 N   0  0  0  0  0  0  0  0  0  0  0  0
   13.4121  -17.9843   22.3799 C   0  0  1  0  0  0  0  0  0  0  0  0
   14.0696  -17.0358   23.2548 C   0  0  0  0  0  0  0  0  0  0  0  0
   14.0225  -17.5398   24.6756 C   0  0  0  0  0  0  0  0  0  0  0  0
   12.6703  -17.6677   25.2225 O   0  0  0  0  0  0  0  0  0  0  0  0
   11.8095  -16.8057   24.8490 C   0  0  0  0  0  0  0  0  0  0  0  0
   15.4429  -16.7491   22.8164 O   0  0  0  0  0  0  0  0  0  0  0  0
   16.1697  -15.7592   23.4425 O   0  0  0  0  0  0  0  0  0  0  0  0
   12.2188  -18.6197   26.0996 O   0  0  0  0  0  0  0  0  0  0  0  0
  2  1  1  0
  3  2  2  0
  4  2  1  0
  5  4  1  0
  6  5  1  0
  7  6  1  0
  8 10  1  0
  8  7  1  0
  8  9  1  1
 10 11  2  0
 13 12  1  6
 13 14  1  0
 15 13  1  0
 16 10  1  0
 15 16  1  1
 17 19  1  0
 17 15  1  0
 18 17  2  0
 20 21  1  1
 20 19  1  0
 21 22  1  0
 22 26  1  0
 22 23  2  0
 24 20  1  0
 24 25  1  0
 27 24  2  0
M  END
$$$$
