LGG.pdb
     RDKit          3D

 17 16  0  0  1  0  0  0  0  0999 V2000
    8.2165  -12.6324   20.1511 C   0  0  0  0  0  0  0  0  0  0  0  0
    8.3543  -13.7014   21.1947 C   0  0  1  0  0  0  0  0  0  0  0  0
    8.3025  -13.0401   22.5482 C   0  0  0  0  0  0  0  0  0  0  0  0
    7.3123  -14.7828   21.0876 C   0  0  0  0  0  0  0  0  0  0  0  0
    7.6221  -15.9002   22.0528 C   0  0  2  0  0  0  0  0  0  0  0  0
    8.4519  -15.3563   23.1121 N   0  0  0  0  0  0  0  0  0  0  0  0
    8.4035  -16.9561   21.3307 C   0  0  0  0  0  0  0  0  0  0  0  0
    7.9315  -17.5082   20.3041 O   0  0  0  0  0  0  0  0  0  0  0  0
    9.6866  -17.3701   21.7674 N   0  0  0  0  0  0  0  0  0  0  0  0
   10.8155  -17.4774   20.8402 C   0  0  0  0  0  0  0  0  0  0  0  0
   12.0252  -16.8383   21.4114 C   0  0  0  0  0  0  0  0  0  0  0  0
   13.1211  -16.9178   20.7996 O   0  0  0  0  0  0  0  0  0  0  0  0
   12.0072  -16.1275   22.6383 N   0  0  0  0  0  0  0  0  0  0  0  0
   13.1751  -15.4666   23.1863 C   0  0  0  0  0  0  0  0  0  0  0  0
   13.9405  -16.4017   24.0306 C   0  0  0  0  0  0  0  0  0  0  0  0
   13.6390  -17.6237   24.0421 O   0  0  0  0  0  0  0  0  0  0  0  0
   14.9901  -15.9300   24.8090 O   0  0  0  0  0  0  0  0  0  0  0  0
  2  1  1  6
  2  3  1  0
  4  5  1  0
  4  2  1  0
  5  6  1  1
  7  5  1  0
  7  8  2  0
  9  7  1  0
 10  9  1  0
 10 11  1  0
 11 13  1  0
 11 12  2  0
 13 14  1  0
 14 15  1  0
 15 16  2  0
 15 17  1  0
M  END
$$$$
