LGG.pdb
     RDKit          3D

 17 16  0  0  1  0  0  0  0  0999 V2000
    7.5249  -11.9428   27.1300 C   0  0  0  0  0  0  0  0  0  0  0  0
    6.9375  -13.2485   26.6817 C   0  0  1  0  0  0  0  0  0  0  0  0
    5.5542  -12.9779   26.1475 C   0  0  0  0  0  0  0  0  0  0  0  0
    7.7764  -13.9634   25.6560 C   0  0  0  0  0  0  0  0  0  0  0  0
    7.0978  -15.2416   25.2293 C   0  0  2  0  0  0  0  0  0  0  0  0
    7.0448  -16.1235   26.3808 N   0  0  0  0  0  0  0  0  0  0  0  0
    7.9290  -15.8954   24.1669 C   0  0  0  0  0  0  0  0  0  0  0  0
    8.7367  -16.8123   24.4640 O   0  0  0  0  0  0  0  0  0  0  0  0
    7.8410  -15.5140   22.8049 N   0  0  0  0  0  0  0  0  0  0  0  0
    8.4137  -16.3384   21.7382 C   0  0  0  0  0  0  0  0  0  0  0  0
    9.8810  -16.1426   21.6552 C   0  0  0  0  0  0  0  0  0  0  0  0
   10.4136  -15.8773   20.5472 O   0  0  0  0  0  0  0  0  0  0  0  0
   10.7306  -16.2416   22.7862 N   0  0  0  0  0  0  0  0  0  0  0  0
   12.1746  -16.1492   22.7007 C   0  0  0  0  0  0  0  0  0  0  0  0
   12.7766  -16.3313   24.0340 C   0  0  0  0  0  0  0  0  0  0  0  0
   12.9027  -15.3431   24.8033 O   0  0  0  0  0  0  0  0  0  0  0  0
   13.2016  -17.5918   24.4346 O   0  0  0  0  0  0  0  0  0  0  0  0
  2  1  1  6
  2  3  1  0
  4  5  1  0
  4  2  1  0
  5  6  1  1
  7  5  1  0
  7  8  2  0
  9  7  1  0
 10  9  1  0
 10 11  1  0
 11 13  1  0
 11 12  2  0
 13 14  1  0
 14 15  1  0
 15 16  2  0
 15 17  1  0
M  END
$$$$
