LGG.pdb
     RDKit          3D

 17 16  0  0  1  0  0  0  0  0999 V2000
    6.6716  -13.0427   19.6820 C   0  0  0  0  0  0  0  0  0  0  0  0
    7.8330  -13.9923   19.6921 C   0  0  1  0  0  0  0  0  0  0  0  0
    8.8382  -13.5095   18.6781 C   0  0  0  0  0  0  0  0  0  0  0  0
    8.4715  -14.1453   21.0471 C   0  0  0  0  0  0  0  0  0  0  0  0
    9.5920  -15.1535   20.9826 C   0  0  2  0  0  0  0  0  0  0  0  0
    9.0099  -16.4470   20.6745 N   0  0  0  0  0  0  0  0  0  0  0  0
   10.2443  -15.2338   22.3298 C   0  0  0  0  0  0  0  0  0  0  0  0
   10.8944  -14.2571   22.7824 O   0  0  0  0  0  0  0  0  0  0  0  0
   10.1574  -16.3952   23.1373 N   0  0  0  0  0  0  0  0  0  0  0  0
   10.7672  -16.4526   24.4679 C   0  0  0  0  0  0  0  0  0  0  0  0
   12.1689  -16.9279   24.3818 C   0  0  0  0  0  0  0  0  0  0  0  0
   12.8112  -17.1712   25.4352 O   0  0  0  0  0  0  0  0  0  0  0  0
   12.8344  -17.1256   23.1453 N   0  0  0  0  0  0  0  0  0  0  0  0
   14.1471  -17.7317   23.0422 C   0  0  0  0  0  0  0  0  0  0  0  0
   15.1829  -16.6885   22.9333 C   0  0  0  0  0  0  0  0  0  0  0  0
   15.2944  -15.8213   23.8388 O   0  0  0  0  0  0  0  0  0  0  0  0
   16.0302  -16.6674   21.8326 O   0  0  0  0  0  0  0  0  0  0  0  0
  2  1  1  1
  2  3  1  0
  4  5  1  0
  4  2  1  0
  5  6  1  1
  7  5  1  0
  7  8  2  0
  9  7  1  0
 10  9  1  0
 10 11  1  0
 11 13  1  0
 11 12  2  0
 13 14  1  0
 14 15  1  0
 15 16  2  0
 15 17  1  0
M  END
$$$$
