LGG.pdb
     RDKit          3D

 17 16  0  0  1  0  0  0  0  0999 V2000
    6.3633  -11.6346   27.1894 C   0  0  0  0  0  0  0  0  0  0  0  0
    6.2902  -12.6997   26.1354 C   0  0  1  0  0  0  0  0  0  0  0  0
    6.7533  -12.0987   24.8330 C   0  0  0  0  0  0  0  0  0  0  0  0
    7.0893  -13.9311   26.4701 C   0  0  0  0  0  0  0  0  0  0  0  0
    6.8627  -14.9970   25.4266 C   0  0  2  0  0  0  0  0  0  0  0  0
    6.4902  -16.2203   26.1132 N   0  0  0  0  0  0  0  0  0  0  0  0
    8.1494  -15.2346   24.6952 C   0  0  0  0  0  0  0  0  0  0  0  0
    9.1747  -15.6146   25.3163 O   0  0  0  0  0  0  0  0  0  0  0  0
    8.2629  -15.0441   23.2955 N   0  0  0  0  0  0  0  0  0  0  0  0
    9.5519  -15.1510   22.6081 C   0  0  0  0  0  0  0  0  0  0  0  0
    9.6829  -16.4691   21.9420 C   0  0  0  0  0  0  0  0  0  0  0  0
    8.9962  -17.4427   22.3444 O   0  0  0  0  0  0  0  0  0  0  0  0
   10.5620  -16.6905   20.8516 N   0  0  0  0  0  0  0  0  0  0  0  0
   12.0054  -16.6664   20.9823 C   0  0  0  0  0  0  0  0  0  0  0  0
   12.4913  -17.9567   21.5039 C   0  0  0  0  0  0  0  0  0  0  0  0
   11.7519  -18.9736   21.4443 O   0  0  0  0  0  0  0  0  0  0  0  0
   13.7621  -18.0441   22.0584 O   0  0  0  0  0  0  0  0  0  0  0  0
  2  1  1  1
  2  3  1  0
  4  5  1  0
  4  2  1  0
  5  6  1  1
  7  5  1  0
  7  8  2  0
  9  7  1  0
 10  9  1  0
 10 11  1  0
 11 13  1  0
 11 12  2  0
 13 14  1  0
 14 15  1  0
 15 16  2  0
 15 17  1  0
M  END
$$$$
