LGG.pdb
     RDKit          3D

 17 16  0  0  1  0  0  0  0  0999 V2000
    5.8856  -11.4635   26.0298 C   0  0  0  0  0  0  0  0  0  0  0  0
    6.8797  -12.5792   26.1630 C   0  0  1  0  0  0  0  0  0  0  0  0
    7.6502  -12.3664   27.4409 C   0  0  0  0  0  0  0  0  0  0  0  0
    6.2528  -13.9479   26.1383 C   0  0  0  0  0  0  0  0  0  0  0  0
    7.2994  -14.9934   25.8422 C   0  0  2  0  0  0  0  0  0  0  0  0
    8.5898  -14.4541   26.2303 N   0  0  0  0  0  0  0  0  0  0  0  0
    7.3161  -15.2520   24.3658 C   0  0  0  0  0  0  0  0  0  0  0  0
    6.3837  -15.8964   23.8210 O   0  0  0  0  0  0  0  0  0  0  0  0
    8.3665  -14.7886   23.5349 N   0  0  0  0  0  0  0  0  0  0  0  0
    8.3869  -15.0654   22.0967 C   0  0  0  0  0  0  0  0  0  0  0  0
    9.6201  -15.7979   21.7215 C   0  0  0  0  0  0  0  0  0  0  0  0
    9.8536  -16.0483   20.5114 O   0  0  0  0  0  0  0  0  0  0  0  0
   10.5683  -16.2391   22.6791 N   0  0  0  0  0  0  0  0  0  0  0  0
   11.8179  -16.8786   22.3178 C   0  0  0  0  0  0  0  0  0  0  0  0
   11.7487  -18.3250   22.5942 C   0  0  0  0  0  0  0  0  0  0  0  0
   11.1561  -19.0880   21.7875 O   0  0  0  0  0  0  0  0  0  0  0  0
   12.3376  -18.8384   23.7430 O   0  0  0  0  0  0  0  0  0  0  0  0
  2  1  1  1
  2  3  1  0
  4  5  1  0
  4  2  1  0
  5  6  1  6
  7  5  1  0
  7  8  2  0
  9  7  1  0
 10  9  1  0
 10 11  1  0
 11 13  1  0
 11 12  2  0
 13 14  1  0
 14 15  1  0
 15 16  2  0
 15 17  1  0
M  END
$$$$
