LGG.pdb
     RDKit          3D

 17 16  0  0  1  0  0  0  0  0999 V2000
    6.7382  -12.5125   20.1011 C   0  0  0  0  0  0  0  0  0  0  0  0
    7.4186  -13.8493   20.1306 C   0  0  1  0  0  0  0  0  0  0  0  0
    8.4965  -13.8466   19.0770 C   0  0  0  0  0  0  0  0  0  0  0  0
    7.9890  -14.2029   21.4783 C   0  0  0  0  0  0  0  0  0  0  0  0
    8.6788  -15.5433   21.4151 C   0  0  2  0  0  0  0  0  0  0  0  0
    7.7134  -16.5190   20.9433 N   0  0  0  0  0  0  0  0  0  0  0  0
    9.1077  -15.9287   22.7988 C   0  0  0  0  0  0  0  0  0  0  0  0
    8.2581  -16.2949   23.6505 O   0  0  0  0  0  0  0  0  0  0  0  0
   10.4668  -15.8972   23.1989 N   0  0  0  0  0  0  0  0  0  0  0  0
   10.8575  -16.0465   24.6027 C   0  0  0  0  0  0  0  0  0  0  0  0
   12.3315  -15.9771   24.7466 C   0  0  0  0  0  0  0  0  0  0  0  0
   12.8564  -16.1378   25.8780 O   0  0  0  0  0  0  0  0  0  0  0  0
   13.1960  -15.7336   23.6492 N   0  0  0  0  0  0  0  0  0  0  0  0
   14.6357  -15.6338   23.7840 C   0  0  0  0  0  0  0  0  0  0  0  0
   15.2629  -16.9445   23.5352 C   0  0  0  0  0  0  0  0  0  0  0  0
   15.0369  -17.9043   24.3175 O   0  0  0  0  0  0  0  0  0  0  0  0
   16.0997  -17.1139   22.4392 O   0  0  0  0  0  0  0  0  0  0  0  0
  2  1  1  1
  2  3  1  0
  4  5  1  0
  4  2  1  0
  5  6  1  1
  7  5  1  0
  7  8  2  0
  9  7  1  0
 10  9  1  0
 10 11  1  0
 11 13  1  0
 11 12  2  0
 13 14  1  0
 14 15  1  0
 15 16  2  0
 15 17  1  0
M  END
$$$$
