LGG.pdb
     RDKit          3D

 17 16  0  0  1  0  0  0  0  0999 V2000
    7.8030  -12.6914   21.3466 C   0  0  0  0  0  0  0  0  0  0  0  0
    8.0628  -13.5252   20.1267 C   0  0  1  0  0  0  0  0  0  0  0  0
    8.2504  -12.5934   18.9569 C   0  0  0  0  0  0  0  0  0  0  0  0
    9.2441  -14.4476   20.2705 C   0  0  0  0  0  0  0  0  0  0  0  0
    9.3224  -15.3798   19.0868 C   0  0  2  0  0  0  0  0  0  0  0  0
    8.0628  -16.0956   18.9996 N   0  0  0  0  0  0  0  0  0  0  0  0
   10.4186  -16.3731   19.3292 C   0  0  0  0  0  0  0  0  0  0  0  0
   10.2991  -17.5622   18.9376 O   0  0  0  0  0  0  0  0  0  0  0  0
   11.6164  -16.0199   19.9991 N   0  0  0  0  0  0  0  0  0  0  0  0
   12.7604  -15.4549   19.2796 C   0  0  0  0  0  0  0  0  0  0  0  0
   13.8298  -15.0566   20.2261 C   0  0  0  0  0  0  0  0  0  0  0  0
   14.8906  -14.5418   19.7888 O   0  0  0  0  0  0  0  0  0  0  0  0
   13.7132  -15.2310   21.6286 N   0  0  0  0  0  0  0  0  0  0  0  0
   14.7479  -14.8348   22.5632 C   0  0  0  0  0  0  0  0  0  0  0  0
   15.8558  -15.8070   22.5391 C   0  0  0  0  0  0  0  0  0  0  0  0
   16.8251  -15.6700   23.3303 O   0  0  0  0  0  0  0  0  0  0  0  0
   15.8246  -16.8690   21.6439 O   0  0  0  0  0  0  0  0  0  0  0  0
  2  1  1  1
  2  3  1  0
  4  5  1  0
  4  2  1  0
  5  6  1  1
  7  5  1  0
  7  8  2  0
  9  7  1  0
 10  9  1  0
 10 11  1  0
 11 13  1  0
 11 12  2  0
 13 14  1  0
 14 15  1  0
 15 16  2  0
 15 17  1  0
M  END
$$$$
