LGG.pdb
     RDKit          3D

 17 16  0  0  1  0  0  0  0  0999 V2000
    7.6537  -12.1334   27.4792 C   0  0  0  0  0  0  0  0  0  0  0  0
    6.9097  -13.1381   26.6498 C   0  0  1  0  0  0  0  0  0  0  0  0
    6.0453  -12.3854   25.6710 C   0  0  0  0  0  0  0  0  0  0  0  0
    7.8098  -14.1085   25.9322 C   0  0  0  0  0  0  0  0  0  0  0  0
    6.9855  -15.0960   25.1437 C   0  0  2  0  0  0  0  0  0  0  0  0
    6.1539  -15.8298   26.0800 N   0  0  0  0  0  0  0  0  0  0  0  0
    7.9105  -16.0636   24.4690 C   0  0  0  0  0  0  0  0  0  0  0  0
    8.1664  -17.1753   24.9984 O   0  0  0  0  0  0  0  0  0  0  0  0
    8.5256  -15.7712   23.2263 N   0  0  0  0  0  0  0  0  0  0  0  0
    9.2118  -16.8046   22.4473 C   0  0  0  0  0  0  0  0  0  0  0  0
   10.6357  -16.9042   22.8484 C   0  0  0  0  0  0  0  0  0  0  0  0
   11.3688  -17.7871   22.3341 O   0  0  0  0  0  0  0  0  0  0  0  0
   11.2235  -16.0355   23.8027 N   0  0  0  0  0  0  0  0  0  0  0  0
   12.5588  -16.2300   24.3320 C   0  0  0  0  0  0  0  0  0  0  0  0
   13.5573  -16.1033   23.2549 C   0  0  0  0  0  0  0  0  0  0  0  0
   13.8012  -14.9726   22.7584 O   0  0  0  0  0  0  0  0  0  0  0  0
   14.2239  -17.2315   22.7935 O   0  0  0  0  0  0  0  0  0  0  0  0
  2  1  1  6
  2  3  1  0
  4  5  1  0
  4  2  1  0
  5  6  1  1
  7  5  1  0
  7  8  2  0
  9  7  1  0
 10  9  1  0
 10 11  1  0
 11 13  1  0
 11 12  2  0
 13 14  1  0
 14 15  1  0
 15 16  2  0
 15 17  1  0
M  END
$$$$
