LGG.pdb
     RDKit          3D

 17 16  0  0  1  0  0  0  0  0999 V2000
    7.6203  -12.1481   21.0599 C   0  0  0  0  0  0  0  0  0  0  0  0
    7.5334  -13.6288   20.8343 C   0  0  1  0  0  0  0  0  0  0  0  0
    7.1290  -13.8585   19.4006 C   0  0  0  0  0  0  0  0  0  0  0  0
    8.8099  -14.3605   21.1537 C   0  0  0  0  0  0  0  0  0  0  0  0
    8.6149  -15.8462   20.9780 C   0  0  2  0  0  0  0  0  0  0  0  0
    7.5650  -16.2681   21.8871 N   0  0  0  0  0  0  0  0  0  0  0  0
    9.8845  -16.5459   21.3596 C   0  0  0  0  0  0  0  0  0  0  0  0
   10.0981  -16.8715   22.5554 O   0  0  0  0  0  0  0  0  0  0  0  0
   10.8816  -16.8649   20.4044 N   0  0  0  0  0  0  0  0  0  0  0  0
   12.1114  -17.5649   20.7827 C   0  0  0  0  0  0  0  0  0  0  0  0
   12.9904  -16.6823   21.5869 C   0  0  0  0  0  0  0  0  0  0  0  0
   13.7881  -15.9011   21.0083 O   0  0  0  0  0  0  0  0  0  0  0  0
   12.9756  -16.6755   23.0049 N   0  0  0  0  0  0  0  0  0  0  0  0
   13.7712  -15.7607   23.7993 C   0  0  0  0  0  0  0  0  0  0  0  0
   15.0979  -16.3430   24.0711 C   0  0  0  0  0  0  0  0  0  0  0  0
   15.5675  -17.2171   23.2966 O   0  0  0  0  0  0  0  0  0  0  0  0
   15.8228  -15.9247   25.1799 O   0  0  0  0  0  0  0  0  0  0  0  0
  2  1  1  6
  2  3  1  0
  4  5  1  0
  4  2  1  0
  5  6  1  1
  7  5  1  0
  7  8  2  0
  9  7  1  0
 10  9  1  0
 10 11  1  0
 11 13  1  0
 11 12  2  0
 13 14  1  0
 14 15  1  0
 15 16  2  0
 15 17  1  0
M  END
$$$$
