LGG.pdb
     RDKit          3D

 17 16  0  0  1  0  0  0  0  0999 V2000
    7.5013  -12.1674   20.3254 C   0  0  0  0  0  0  0  0  0  0  0  0
    7.7892  -13.6260   20.5268 C   0  0  1  0  0  0  0  0  0  0  0  0
    7.5939  -14.3258   19.2062 C   0  0  0  0  0  0  0  0  0  0  0  0
    9.1644  -13.8960   21.0769 C   0  0  0  0  0  0  0  0  0  0  0  0
    9.3494  -15.3750   21.3103 C   0  0  2  0  0  0  0  0  0  0  0  0
    8.3467  -15.8034   22.2685 N   0  0  0  0  0  0  0  0  0  0  0  0
   10.7056  -15.6014   21.9074 C   0  0  0  0  0  0  0  0  0  0  0  0
   11.7430  -15.2849   21.2709 O   0  0  0  0  0  0  0  0  0  0  0  0
   10.8732  -16.1725   23.1935 N   0  0  0  0  0  0  0  0  0  0  0  0
   12.1841  -16.2261   23.8448 C   0  0  0  0  0  0  0  0  0  0  0  0
   12.0474  -16.6286   25.2652 C   0  0  0  0  0  0  0  0  0  0  0  0
   13.0769  -16.8190   25.9619 O   0  0  0  0  0  0  0  0  0  0  0  0
   10.7876  -16.8132   25.8895 N   0  0  0  0  0  0  0  0  0  0  0  0
   10.6426  -17.1723   27.2863 C   0  0  0  0  0  0  0  0  0  0  0  0
   10.9156  -18.6087   27.4742 C   0  0  0  0  0  0  0  0  0  0  0  0
   11.2823  -19.3087   26.4945 O   0  0  0  0  0  0  0  0  0  0  0  0
   10.7669  -19.1824   28.7307 O   0  0  0  0  0  0  0  0  0  0  0  0
  2  1  1  6
  2  3  1  0
  4  5  1  0
  4  2  1  0
  5  6  1  1
  7  5  1  0
  7  8  2  0
  9  7  1  0
 10  9  1  0
 10 11  1  0
 11 13  1  0
 11 12  2  0
 13 14  1  0
 14 15  1  0
 15 16  2  0
 15 17  1  0
M  END
$$$$
