IEF.pdb
     RDKit          3D

 29 29  0  0  1  0  0  0  0  0999 V2000
    8.1708  -11.6960   22.3423 C   0  0  0  0  0  0  0  0  0  0  0  0
    7.7258  -13.0934   21.9839 C   0  0  0  0  0  0  0  0  0  0  0  0
    8.4379  -13.6380   20.7502 C   0  0  2  0  0  0  0  0  0  0  0  0
    7.9970  -12.8300   19.5617 C   0  0  0  0  0  0  0  0  0  0  0  0
    8.0929  -15.1061   20.6468 C   0  0  2  0  0  0  0  0  0  0  0  0
    6.6514  -15.1917   20.4646 N   0  0  0  0  0  0  0  0  0  0  0  0
    8.5361  -15.8883   21.8203 C   0  0  0  0  0  0  0  0  0  0  0  0
    7.6623  -16.4013   22.5677 O   0  0  0  0  0  0  0  0  0  0  0  0
    9.9071  -16.0993   22.1580 N   0  0  0  0  0  0  0  0  0  0  0  0
   10.3531  -17.0712   23.1150 C   0  0  1  0  0  0  0  0  0  0  0  0
   11.7462  -17.6001   22.8043 C   0  0  0  0  0  0  0  0  0  0  0  0
   11.8065  -18.3711   21.5064 C   0  0  0  0  0  0  0  0  0  0  0  0
   13.2241  -18.7406   21.2959 C   0  0  0  0  0  0  0  0  0  0  0  0
   14.0898  -18.3885   22.1436 O   0  0  0  0  0  0  0  0  0  0  0  0
   10.4167  -16.4380   24.4573 C   0  0  0  0  0  0  0  0  0  0  0  0
   11.1638  -15.4243   24.6509 O   0  0  0  0  0  0  0  0  0  0  0  0
   13.6909  -19.4673   20.1927 O   0  0  0  0  0  0  0  0  0  0  0  0
    9.6716  -16.9119   25.5640 N   0  0  0  0  0  0  0  0  0  0  0  0
    9.7732  -16.3439   26.9040 C   0  0  1  0  0  0  0  0  0  0  0  0
    8.3897  -16.0614   27.4196 C   0  0  0  0  0  0  0  0  0  0  0  0
    7.7414  -14.9334   26.7315 C   0  0  0  0  0  0  0  0  0  0  0  0
    6.7090  -15.1977   25.8442 C   0  0  0  0  0  0  0  0  0  0  0  0
    6.0970  -14.1392   25.2154 C   0  0  0  0  0  0  0  0  0  0  0  0
    6.4369  -12.8307   25.4048 C   0  0  0  0  0  0  0  0  0  0  0  0
    7.4689  -12.5547   26.2920 C   0  0  0  0  0  0  0  0  0  0  0  0
    8.1030  -13.6211   26.9397 C   0  0  0  0  0  0  0  0  0  0  0  0
   10.5404  -17.2001   27.8019 C   0  0  0  0  0  0  0  0  0  0  0  0
   10.8423  -16.9258   28.9660 O   0  0  0  0  0  0  0  0  0  0  0  0
   10.9808  -18.4488   27.3120 O   0  0  0  0  0  0  0  0  0  0  0  0
  2  1  1  0
  2  3  1  0
  3  4  1  6
  5  3  1  0
  5  6  1  1
  7  5  1  0
  7  8  2  0
  9  7  1  0
 10 15  1  0
 10  9  1  0
 10 11  1  6
 12 11  1  0
 12 13  1  0
 13 14  2  0
 15 18  1  0
 16 15  2  0
 17 13  1  0
 18 19  1  0
 19 27  1  0
 20 21  1  0
 19 20  1  1
 21 26  2  0
 22 23  2  0
 22 21  1  0
 23 24  1  0
 24 25  2  0
 26 25  1  0
 27 28  2  0
 27 29  1  0
M  END
$$$$
