IEF.pdb
     RDKit          3D

 29 29  0  0  1  0  0  0  0  0999 V2000
    6.9410  -11.6567   20.1031 C   0  0  0  0  0  0  0  0  0  0  0  0
    7.1677  -13.1403   19.9400 C   0  0  0  0  0  0  0  0  0  0  0  0
    7.5535  -13.8226   21.2483 C   0  0  2  0  0  0  0  0  0  0  0  0
    8.7466  -13.1051   21.8151 C   0  0  0  0  0  0  0  0  0  0  0  0
    7.8144  -15.2778   20.9333 C   0  0  2  0  0  0  0  0  0  0  0  0
    6.5696  -15.8310   20.4207 N   0  0  0  0  0  0  0  0  0  0  0  0
    8.3054  -16.0428   22.0991 C   0  0  0  0  0  0  0  0  0  0  0  0
    7.4673  -16.4721   22.9348 O   0  0  0  0  0  0  0  0  0  0  0  0
    9.6846  -16.3271   22.3343 N   0  0  0  0  0  0  0  0  0  0  0  0
   10.1568  -17.1624   23.4013 C   0  0  1  0  0  0  0  0  0  0  0  0
   11.5453  -17.7249   23.1318 C   0  0  0  0  0  0  0  0  0  0  0  0
   12.0177  -18.6682   24.2134 C   0  0  0  0  0  0  0  0  0  0  0  0
   13.3495  -19.1613   23.7968 C   0  0  0  0  0  0  0  0  0  0  0  0
   13.5797  -20.4018   23.7952 O   0  0  0  0  0  0  0  0  0  0  0  0
   10.2472  -16.3566   24.6460 C   0  0  0  0  0  0  0  0  0  0  0  0
   10.9991  -15.3291   24.6889 O   0  0  0  0  0  0  0  0  0  0  0  0
   14.4051  -18.3306   23.3983 O   0  0  0  0  0  0  0  0  0  0  0  0
    9.5229  -16.6763   25.8199 N   0  0  0  0  0  0  0  0  0  0  0  0
    9.7491  -16.0259   27.1061 C   0  0  1  0  0  0  0  0  0  0  0  0
    8.4287  -15.5674   27.6591 C   0  0  0  0  0  0  0  0  0  0  0  0
    7.9131  -14.3640   26.9868 C   0  0  0  0  0  0  0  0  0  0  0  0
    6.6904  -14.4354   26.3365 C   0  0  0  0  0  0  0  0  0  0  0  0
    6.2065  -13.3042   25.7228 C   0  0  0  0  0  0  0  0  0  0  0  0
    6.8514  -12.1010   25.7081 C   0  0  0  0  0  0  0  0  0  0  0  0
    8.0762  -12.0182   26.3570 C   0  0  0  0  0  0  0  0  0  0  0  0
    8.5834  -13.1610   26.9860 C   0  0  0  0  0  0  0  0  0  0  0  0
   10.4741  -16.8885   28.0326 C   0  0  0  0  0  0  0  0  0  0  0  0
   10.7733  -18.0672   27.8259 O   0  0  0  0  0  0  0  0  0  0  0  0
   10.8725  -16.3430   29.2724 O   0  0  0  0  0  0  0  0  0  0  0  0
  2  1  1  0
  2  3  1  0
  3  4  1  6
  5  3  1  0
  5  6  1  1
  7  5  1  0
  7  8  2  0
  9  7  1  0
 10 15  1  0
 10  9  1  0
 10 11  1  6
 12 11  1  0
 12 13  1  0
 13 14  2  0
 15 18  1  0
 16 15  2  0
 17 13  1  0
 18 19  1  0
 19 27  1  0
 20 21  1  0
 19 20  1  1
 21 26  2  0
 22 23  2  0
 22 21  1  0
 23 24  1  0
 24 25  2  0
 26 25  1  0
 27 28  2  0
 27 29  1  0
M  END
$$$$
