IEF.pdb
     RDKit          3D

 29 29  0  0  1  0  0  0  0  0999 V2000
    7.4832  -12.0885   18.9605 C   0  0  0  0  0  0  0  0  0  0  0  0
    7.6658  -13.5820   18.8363 C   0  0  0  0  0  0  0  0  0  0  0  0
    8.1297  -14.2270   20.1381 C   0  0  2  0  0  0  0  0  0  0  0  0
    9.3943  -13.5413   20.5743 C   0  0  0  0  0  0  0  0  0  0  0  0
    8.3032  -15.7041   19.8679 C   0  0  2  0  0  0  0  0  0  0  0  0
    7.0035  -16.2165   19.4597 N   0  0  0  0  0  0  0  0  0  0  0  0
    8.8351  -16.4461   21.0305 C   0  0  0  0  0  0  0  0  0  0  0  0
    8.0288  -16.8440   21.9119 O   0  0  0  0  0  0  0  0  0  0  0  0
   10.2198  -16.7418   21.2137 N   0  0  0  0  0  0  0  0  0  0  0  0
   10.7472  -17.4105   22.3687 C   0  0  1  0  0  0  0  0  0  0  0  0
   12.1424  -17.9715   22.1323 C   0  0  0  0  0  0  0  0  0  0  0  0
   12.2127  -18.8864   20.9320 C   0  0  0  0  0  0  0  0  0  0  0  0
   13.6299  -18.9230   20.5068 C   0  0  0  0  0  0  0  0  0  0  0  0
   14.5232  -18.4906   21.2859 O   0  0  0  0  0  0  0  0  0  0  0  0
   10.8521  -16.4389   23.4874 C   0  0  0  0  0  0  0  0  0  0  0  0
   11.2881  -15.2613   23.2724 O   0  0  0  0  0  0  0  0  0  0  0  0
   14.0656  -19.4101   19.2675 O   0  0  0  0  0  0  0  0  0  0  0  0
   10.4832  -16.7582   24.8166 N   0  0  0  0  0  0  0  0  0  0  0  0
    9.9550  -15.7799   25.7613 C   0  0  1  0  0  0  0  0  0  0  0  0
    8.7837  -15.0784   25.1322 C   0  0  0  0  0  0  0  0  0  0  0  0
    8.1585  -14.0920   26.0278 C   0  0  0  0  0  0  0  0  0  0  0  0
    6.7842  -13.9162   25.9710 C   0  0  0  0  0  0  0  0  0  0  0  0
    6.2036  -13.0041   26.8203 C   0  0  0  0  0  0  0  0  0  0  0  0
    6.8918  -12.2502   27.7268 C   0  0  0  0  0  0  0  0  0  0  0  0
    8.2685  -12.4190   27.7927 C   0  0  0  0  0  0  0  0  0  0  0  0
    8.8753  -13.3429   26.9342 C   0  0  0  0  0  0  0  0  0  0  0  0
    9.6194  -16.3876   27.0443 C   0  0  0  0  0  0  0  0  0  0  0  0
   10.1169  -16.0827   28.1310 O   0  0  0  0  0  0  0  0  0  0  0  0
    8.6466  -17.4108   27.0590 O   0  0  0  0  0  0  0  0  0  0  0  0
  2  1  1  0
  2  3  1  0
  3  4  1  6
  5  3  1  0
  5  6  1  1
  7  5  1  0
  7  8  2  0
  9  7  1  0
 10 15  1  0
 10  9  1  0
 10 11  1  6
 12 11  1  0
 12 13  1  0
 13 14  2  0
 15 18  1  0
 16 15  2  0
 17 13  1  0
 18 19  1  0
 19 27  1  0
 20 21  1  0
 19 20  1  6
 21 26  2  0
 22 23  2  0
 22 21  1  0
 23 24  1  0
 24 25  2  0
 26 25  1  0
 27 28  2  0
 27 29  1  0
M  END
$$$$
