IEF.pdb
     RDKit          3D

 29 29  0  0  1  0  0  0  0  0999 V2000
    7.5131  -12.5183   18.1090 C   0  0  0  0  0  0  0  0  0  0  0  0
    8.3736  -13.4397   18.9395 C   0  0  0  0  0  0  0  0  0  0  0  0
    7.6617  -13.9363   20.1935 C   0  0  2  0  0  0  0  0  0  0  0  0
    7.2891  -12.7398   21.0237 C   0  0  0  0  0  0  0  0  0  0  0  0
    8.6024  -14.8905   20.8931 C   0  0  2  0  0  0  0  0  0  0  0  0
    8.8769  -15.9750   19.9621 N   0  0  0  0  0  0  0  0  0  0  0  0
    8.0636  -15.4002   22.1719 C   0  0  0  0  0  0  0  0  0  0  0  0
    7.7655  -14.5727   23.0729 O   0  0  0  0  0  0  0  0  0  0  0  0
    7.8582  -16.7859   22.4471 N   0  0  0  0  0  0  0  0  0  0  0  0
    7.3775  -17.2877   23.7027 C   0  0  1  0  0  0  0  0  0  0  0  0
    7.3141  -18.8081   23.7382 C   0  0  0  0  0  0  0  0  0  0  0  0
    6.7003  -19.3415   25.0116 C   0  0  0  0  0  0  0  0  0  0  0  0
    6.6488  -20.8143   24.8753 C   0  0  0  0  0  0  0  0  0  0  0  0
    5.9011  -21.3310   24.0001 O   0  0  0  0  0  0  0  0  0  0  0  0
    8.3058  -16.8650   24.7826 C   0  0  0  0  0  0  0  0  0  0  0  0
    9.5638  -16.8676   24.5814 O   0  0  0  0  0  0  0  0  0  0  0  0
    7.3841  -21.7029   25.6709 O   0  0  0  0  0  0  0  0  0  0  0  0
    7.8568  -16.4470   26.0588 N   0  0  0  0  0  0  0  0  0  0  0  0
    8.7562  -16.0584   27.1398 C   0  0  1  0  0  0  0  0  0  0  0  0
    8.1555  -14.8956   27.8790 C   0  0  0  0  0  0  0  0  0  0  0  0
    7.8732  -13.7456   27.0051 C   0  0  0  0  0  0  0  0  0  0  0  0
    8.9136  -12.8930   26.6677 C   0  0  0  0  0  0  0  0  0  0  0  0
    8.6473  -11.8287   25.8390 C   0  0  0  0  0  0  0  0  0  0  0  0
    7.4171  -11.5481   25.3179 C   0  0  0  0  0  0  0  0  0  0  0  0
    6.3684  -12.3960   25.6486 C   0  0  0  0  0  0  0  0  0  0  0  0
    6.6224  -13.4836   26.4920 C   0  0  0  0  0  0  0  0  0  0  0  0
    9.0671  -17.1798   28.0195 C   0  0  0  0  0  0  0  0  0  0  0  0
    9.8562  -17.1470   28.9670 O   0  0  0  0  0  0  0  0  0  0  0  0
    8.4191  -18.4109   27.7786 O   0  0  0  0  0  0  0  0  0  0  0  0
  2  1  1  0
  2  3  1  0
  3  4  1  1
  5  3  1  0
  5  6  1  6
  7  5  1  0
  7  8  2  0
  9  7  1  0
 10 15  1  0
 10  9  1  0
 10 11  1  6
 12 11  1  0
 12 13  1  0
 13 14  2  0
 15 18  1  0
 16 15  2  0
 17 13  1  0
 18 19  1  0
 19 27  1  0
 20 21  1  0
 19 20  1  1
 21 26  2  0
 22 23  2  0
 22 21  1  0
 23 24  1  0
 24 25  2  0
 26 25  1  0
 27 28  2  0
 27 29  1  0
M  END
$$$$
