IEF.pdb
     RDKit          3D

 29 29  0  0  1  0  0  0  0  0999 V2000
    6.6487  -12.1079   19.9888 C   0  0  0  0  0  0  0  0  0  0  0  0
    7.3570  -13.4210   19.7579 C   0  0  0  0  0  0  0  0  0  0  0  0
    7.5959  -14.1945   21.0504 C   0  0  2  0  0  0  0  0  0  0  0  0
    8.3698  -13.3099   21.9877 C   0  0  0  0  0  0  0  0  0  0  0  0
    8.3213  -15.4683   20.6813 C   0  0  2  0  0  0  0  0  0  0  0  0
    7.4733  -16.1814   19.7376 N   0  0  0  0  0  0  0  0  0  0  0  0
    8.6491  -16.3074   21.8534 C   0  0  0  0  0  0  0  0  0  0  0  0
    7.7525  -17.0499   22.3329 O   0  0  0  0  0  0  0  0  0  0  0  0
    9.9330  -16.3269   22.4776 N   0  0  0  0  0  0  0  0  0  0  0  0
   10.2963  -17.2350   23.5277 C   0  0  1  0  0  0  0  0  0  0  0  0
   11.6589  -17.8745   23.3012 C   0  0  0  0  0  0  0  0  0  0  0  0
   11.7208  -18.6929   22.0327 C   0  0  0  0  0  0  0  0  0  0  0  0
   13.1259  -19.1307   21.8763 C   0  0  0  0  0  0  0  0  0  0  0  0
   13.6417  -19.8846   22.7466 O   0  0  0  0  0  0  0  0  0  0  0  0
   10.3727  -16.4895   24.8103 C   0  0  0  0  0  0  0  0  0  0  0  0
   11.2323  -15.5611   24.9597 O   0  0  0  0  0  0  0  0  0  0  0  0
   13.9510  -18.7559   20.8077 O   0  0  0  0  0  0  0  0  0  0  0  0
    9.5185  -16.7611   25.9064 N   0  0  0  0  0  0  0  0  0  0  0  0
    9.7554  -16.2562   27.2545 C   0  0  1  0  0  0  0  0  0  0  0  0
    8.5175  -15.5521   27.7356 C   0  0  0  0  0  0  0  0  0  0  0  0
    8.2273  -14.3232   26.9795 C   0  0  0  0  0  0  0  0  0  0  0  0
    9.0122  -13.2019   27.2024 C   0  0  0  0  0  0  0  0  0  0  0  0
    8.7462  -12.0611   26.4827 C   0  0  0  0  0  0  0  0  0  0  0  0
    7.7528  -11.9521   25.5527 C   0  0  0  0  0  0  0  0  0  0  0  0
    6.9613  -13.0692   25.3210 C   0  0  0  0  0  0  0  0  0  0  0  0
    7.2184  -14.2384   26.0461 C   0  0  0  0  0  0  0  0  0  0  0  0
   10.1869  -17.3122   28.1636 C   0  0  0  0  0  0  0  0  0  0  0  0
   10.2605  -18.5110   27.8825 O   0  0  0  0  0  0  0  0  0  0  0  0
   10.5536  -16.9472   29.4773 O   0  0  0  0  0  0  0  0  0  0  0  0
  2  1  1  0
  2  3  1  0
  3  4  1  1
  5  3  1  0
  5  6  1  6
  7  5  1  0
  7  8  2  0
  9  7  1  0
 10 15  1  0
 10  9  1  0
 10 11  1  6
 12 11  1  0
 12 13  1  0
 13 14  2  0
 15 18  1  0
 16 15  2  0
 17 13  1  0
 18 19  1  0
 19 27  1  0
 20 21  1  0
 19 20  1  1
 21 26  2  0
 22 23  2  0
 22 21  1  0
 23 24  1  0
 24 25  2  0
 26 25  1  0
 27 28  2  0
 27 29  1  0
M  END
$$$$
