IEF.pdb
     RDKit          3D

 29 29  0  0  1  0  0  0  0  0999 V2000
    7.3887  -11.5241   19.4886 C   0  0  0  0  0  0  0  0  0  0  0  0
    7.6369  -13.0048   19.3299 C   0  0  0  0  0  0  0  0  0  0  0  0
    7.4208  -13.7786   20.6262 C   0  0  2  0  0  0  0  0  0  0  0  0
    8.3741  -13.2399   21.6561 C   0  0  0  0  0  0  0  0  0  0  0  0
    7.6303  -15.2425   20.3130 C   0  0  2  0  0  0  0  0  0  0  0  0
    6.6552  -15.6024   19.2942 N   0  0  0  0  0  0  0  0  0  0  0  0
    7.5129  -16.1111   21.5034 C   0  0  0  0  0  0  0  0  0  0  0  0
    6.3807  -16.2550   22.0353 O   0  0  0  0  0  0  0  0  0  0  0  0
    8.6157  -16.8030   22.0893 N   0  0  0  0  0  0  0  0  0  0  0  0
    8.5005  -17.6712   23.2261 C   0  0  1  0  0  0  0  0  0  0  0  0
    9.2372  -18.9889   23.0316 C   0  0  0  0  0  0  0  0  0  0  0  0
    9.1718  -19.8841   24.2470 C   0  0  0  0  0  0  0  0  0  0  0  0
    9.8280  -21.1573   23.8740 C   0  0  0  0  0  0  0  0  0  0  0  0
   10.9890  -21.4056   24.3011 O   0  0  0  0  0  0  0  0  0  0  0  0
    9.1035  -17.0054   24.4093 C   0  0  0  0  0  0  0  0  0  0  0  0
   10.2285  -16.4164   24.3068 O   0  0  0  0  0  0  0  0  0  0  0  0
    9.2428  -22.1319   23.0551 O   0  0  0  0  0  0  0  0  0  0  0  0
    8.4790  -16.9885   25.6799 N   0  0  0  0  0  0  0  0  0  0  0  0
    9.1476  -16.5446   26.8983 C   0  0  1  0  0  0  0  0  0  0  0  0
    8.2329  -15.6141   27.6446 C   0  0  0  0  0  0  0  0  0  0  0  0
    8.0727  -14.3118   26.9780 C   0  0  0  0  0  0  0  0  0  0  0  0
    9.0366  -13.3357   27.1807 C   0  0  0  0  0  0  0  0  0  0  0  0
    8.8897  -12.1261   26.5437 C   0  0  0  0  0  0  0  0  0  0  0  0
    7.8504  -11.8138   25.7156 C   0  0  0  0  0  0  0  0  0  0  0  0
    6.8799  -12.7843   25.5049 C   0  0  0  0  0  0  0  0  0  0  0  0
    7.0140  -14.0208   26.1467 C   0  0  0  0  0  0  0  0  0  0  0  0
    9.5912  -17.6679   27.7164 C   0  0  0  0  0  0  0  0  0  0  0  0
    9.3690  -18.8575   27.4774 O   0  0  0  0  0  0  0  0  0  0  0  0
   10.3372  -17.3858   28.8814 O   0  0  0  0  0  0  0  0  0  0  0  0
  2  1  1  0
  2  3  1  0
  3  4  1  1
  5  3  1  0
  5  6  1  6
  7  5  1  0
  7  8  2  0
  9  7  1  0
 10 15  1  0
 10  9  1  0
 10 11  1  6
 12 11  1  0
 12 13  1  0
 13 14  2  0
 15 18  1  0
 16 15  2  0
 17 13  1  0
 18 19  1  0
 19 27  1  0
 20 21  1  0
 19 20  1  1
 21 26  2  0
 22 23  2  0
 22 21  1  0
 23 24  1  0
 24 25  2  0
 26 25  1  0
 27 28  2  0
 27 29  1  0
M  END
$$$$
