IEF.pdb
     RDKit          3D

 29 29  0  0  1  0  0  0  0  0999 V2000
    7.1023  -12.1368   19.6346 C   0  0  0  0  0  0  0  0  0  0  0  0
    7.6991  -13.4913   19.3373 C   0  0  0  0  0  0  0  0  0  0  0  0
    7.8802  -14.3410   20.5907 C   0  0  2  0  0  0  0  0  0  0  0  0
    8.7374  -13.5716   21.5566 C   0  0  0  0  0  0  0  0  0  0  0  0
    8.4870  -15.6554   20.1556 C   0  0  2  0  0  0  0  0  0  0  0  0
    7.5986  -16.2212   19.1511 N   0  0  0  0  0  0  0  0  0  0  0  0
    8.6999  -16.5936   21.2780 C   0  0  0  0  0  0  0  0  0  0  0  0
    8.2091  -17.7503   21.1981 O   0  0  0  0  0  0  0  0  0  0  0  0
    9.4363  -16.2635   22.4557 N   0  0  0  0  0  0  0  0  0  0  0  0
    9.9820  -17.2391   23.3557 C   0  0  1  0  0  0  0  0  0  0  0  0
   10.9723  -18.1727   22.6742 C   0  0  0  0  0  0  0  0  0  0  0  0
   11.9462  -17.4441   21.7778 C   0  0  0  0  0  0  0  0  0  0  0  0
   13.1883  -18.2486   21.7554 C   0  0  0  0  0  0  0  0  0  0  0  0
   13.2535  -19.3091   22.4360 O   0  0  0  0  0  0  0  0  0  0  0  0
   10.7174  -16.5412   24.4414 C   0  0  0  0  0  0  0  0  0  0  0  0
   11.9352  -16.8313   24.6774 O   0  0  0  0  0  0  0  0  0  0  0  0
   14.3310  -17.9087   21.0193 O   0  0  0  0  0  0  0  0  0  0  0  0
   10.1228  -15.5431   25.2507 N   0  0  0  0  0  0  0  0  0  0  0  0
    9.3467  -15.8379   26.4504 C   0  0  1  0  0  0  0  0  0  0  0  0
    7.8903  -15.6095   26.1567 C   0  0  0  0  0  0  0  0  0  0  0  0
    7.5382  -14.1825   26.0814 C   0  0  0  0  0  0  0  0  0  0  0  0
    8.5485  -13.2393   26.1948 C   0  0  0  0  0  0  0  0  0  0  0  0
    8.2161  -11.9080   26.1088 C   0  0  0  0  0  0  0  0  0  0  0  0
    6.9471  -11.4426   25.9170 C   0  0  0  0  0  0  0  0  0  0  0  0
    5.9279  -12.3785   25.8012 C   0  0  0  0  0  0  0  0  0  0  0  0
    6.2493  -13.7379   25.8875 C   0  0  0  0  0  0  0  0  0  0  0  0
    9.6115  -17.1810   26.9541 C   0  0  0  0  0  0  0  0  0  0  0  0
   10.1954  -17.4467   28.0077 O   0  0  0  0  0  0  0  0  0  0  0  0
    9.1690  -18.2776   26.1826 O   0  0  0  0  0  0  0  0  0  0  0  0
  2  1  1  0
  2  3  1  0
  3  4  1  1
  5  3  1  0
  5  6  1  6
  7  5  1  0
  7  8  2  0
  9  7  1  0
 10 15  1  0
 10  9  1  0
 10 11  1  6
 12 11  1  0
 12 13  1  0
 13 14  2  0
 15 18  1  0
 16 15  2  0
 17 13  1  0
 18 19  1  0
 19 27  1  0
 20 21  1  0
 19 20  1  6
 21 26  2  0
 22 23  2  0
 22 21  1  0
 23 24  1  0
 24 25  2  0
 26 25  1  0
 27 28  2  0
 27 29  1  0
M  END
$$$$
