IEF.pdb
     RDKit          3D

 29 29  0  0  1  0  0  0  0  0999 V2000
    7.6641  -11.8448   18.9099 C   0  0  0  0  0  0  0  0  0  0  0  0
    7.9607  -13.3238   18.8479 C   0  0  0  0  0  0  0  0  0  0  0  0
    8.0272  -13.9678   20.2287 C   0  0  2  0  0  0  0  0  0  0  0  0
    9.0924  -13.2634   21.0217 C   0  0  0  0  0  0  0  0  0  0  0  0
    8.2989  -15.4404   20.0224 C   0  0  2  0  0  0  0  0  0  0  0  0
    7.1893  -15.9719   19.2448 N   0  0  0  0  0  0  0  0  0  0  0  0
    8.4722  -16.1796   21.2908 C   0  0  0  0  0  0  0  0  0  0  0  0
    7.4451  -16.5392   21.9242 O   0  0  0  0  0  0  0  0  0  0  0  0
    9.7454  -16.5140   21.8435 N   0  0  0  0  0  0  0  0  0  0  0  0
    9.9180  -17.2854   23.0412 C   0  0  1  0  0  0  0  0  0  0  0  0
   10.9364  -18.4041   22.8735 C   0  0  0  0  0  0  0  0  0  0  0  0
   10.5567  -19.3876   21.7911 C   0  0  0  0  0  0  0  0  0  0  0  0
   11.6879  -20.3327   21.6584 C   0  0  0  0  0  0  0  0  0  0  0  0
   12.7243  -20.1626   22.3577 O   0  0  0  0  0  0  0  0  0  0  0  0
   10.4190  -16.3987   24.1226 C   0  0  0  0  0  0  0  0  0  0  0  0
   11.2022  -15.4329   23.8457 O   0  0  0  0  0  0  0  0  0  0  0  0
   11.6969  -21.4293   20.7864 O   0  0  0  0  0  0  0  0  0  0  0  0
   10.0634  -16.5724   25.4821 N   0  0  0  0  0  0  0  0  0  0  0  0
   10.5340  -15.7012   26.5536 C   0  0  1  0  0  0  0  0  0  0  0  0
   10.1549  -14.2830   26.2303 C   0  0  0  0  0  0  0  0  0  0  0  0
    8.7427  -13.9874   26.5205 C   0  0  0  0  0  0  0  0  0  0  0  0
    8.4404  -13.1676   27.5974 C   0  0  0  0  0  0  0  0  0  0  0  0
    7.1203  -12.8826   27.8550 C   0  0  0  0  0  0  0  0  0  0  0  0
    6.0731  -13.3545   27.1172 C   0  0  0  0  0  0  0  0  0  0  0  0
    6.3645  -14.1756   26.0360 C   0  0  0  0  0  0  0  0  0  0  0  0
    7.7034  -14.4762   25.7607 C   0  0  0  0  0  0  0  0  0  0  0  0
   10.0414  -16.1279   27.8586 C   0  0  0  0  0  0  0  0  0  0  0  0
   10.3220  -15.5977   28.9365 O   0  0  0  0  0  0  0  0  0  0  0  0
    9.1708  -17.2383   27.9080 O   0  0  0  0  0  0  0  0  0  0  0  0
  2  1  1  0
  2  3  1  0
  3  4  1  1
  5  3  1  0
  5  6  1  1
  7  5  1  0
  7  8  2  0
  9  7  1  0
 10 15  1  0
 10  9  1  0
 10 11  1  6
 12 11  1  0
 12 13  1  0
 13 14  2  0
 15 18  1  0
 16 15  2  0
 17 13  1  0
 18 19  1  0
 19 27  1  0
 20 21  1  0
 19 20  1  6
 21 26  2  0
 22 23  2  0
 22 21  1  0
 23 24  1  0
 24 25  2  0
 26 25  1  0
 27 28  2  0
 27 29  1  0
M  END
$$$$
