IEF.pdb
     RDKit          3D

 29 29  0  0  1  0  0  0  0  0999 V2000
    6.6488  -12.0881   19.2923 C   0  0  0  0  0  0  0  0  0  0  0  0
    7.2078  -13.4663   19.0329 C   0  0  0  0  0  0  0  0  0  0  0  0
    7.7157  -14.1424   20.3020 C   0  0  2  0  0  0  0  0  0  0  0  0
    8.7557  -13.2512   20.9216 C   0  0  0  0  0  0  0  0  0  0  0  0
    8.2418  -15.5024   19.9040 C   0  0  2  0  0  0  0  0  0  0  0  0
    7.1368  -16.2211   19.2871 N   0  0  0  0  0  0  0  0  0  0  0  0
    8.8098  -16.2580   21.0405 C   0  0  0  0  0  0  0  0  0  0  0  0
    8.0229  -16.8583   21.8187 O   0  0  0  0  0  0  0  0  0  0  0  0
   10.2091  -16.3493   21.3090 N   0  0  0  0  0  0  0  0  0  0  0  0
   10.7620  -17.0452   22.4356 C   0  0  1  0  0  0  0  0  0  0  0  0
   12.2635  -17.2606   22.3094 C   0  0  0  0  0  0  0  0  0  0  0  0
   12.6474  -18.0027   21.0506 C   0  0  0  0  0  0  0  0  0  0  0  0
   14.1248  -17.9693   20.9701 C   0  0  0  0  0  0  0  0  0  0  0  0
   14.8082  -18.5529   21.8558 O   0  0  0  0  0  0  0  0  0  0  0  0
   10.5392  -16.2382   23.6627 C   0  0  0  0  0  0  0  0  0  0  0  0
   10.6374  -14.9687   23.6192 O   0  0  0  0  0  0  0  0  0  0  0  0
   14.8417  -17.3153   19.9594 O   0  0  0  0  0  0  0  0  0  0  0  0
   10.2141  -16.8183   24.9127 N   0  0  0  0  0  0  0  0  0  0  0  0
    9.4335  -16.1339   25.9378 C   0  0  1  0  0  0  0  0  0  0  0  0
    8.1631  -15.6197   25.3204 C   0  0  0  0  0  0  0  0  0  0  0  0
    7.7209  -14.3416   25.9008 C   0  0  0  0  0  0  0  0  0  0  0  0
    6.3646  -14.1340   26.1019 C   0  0  0  0  0  0  0  0  0  0  0  0
    5.9581  -12.9442   26.6581 C   0  0  0  0  0  0  0  0  0  0  0  0
    6.8047  -11.9404   27.0315 C   0  0  0  0  0  0  0  0  0  0  0  0
    8.1650  -12.1381   26.8354 C   0  0  0  0  0  0  0  0  0  0  0  0
    8.5953  -13.3436   26.2693 C   0  0  0  0  0  0  0  0  0  0  0  0
    9.1873  -16.9870   27.0951 C   0  0  0  0  0  0  0  0  0  0  0  0
    8.8469  -16.5931   28.2134 O   0  0  0  0  0  0  0  0  0  0  0  0
    9.3480  -18.3808   26.9376 O   0  0  0  0  0  0  0  0  0  0  0  0
  2  1  1  0
  2  3  1  0
  3  4  1  6
  5  3  1  0
  5  6  1  1
  7  5  1  0
  7  8  2  0
  9  7  1  0
 10 15  1  0
 10  9  1  0
 10 11  1  6
 12 11  1  0
 12 13  1  0
 13 14  2  0
 15 18  1  0
 16 15  2  0
 17 13  1  0
 18 19  1  0
 19 27  1  0
 20 21  1  0
 19 20  1  6
 21 26  2  0
 22 23  2  0
 22 21  1  0
 23 24  1  0
 24 25  2  0
 26 25  1  0
 27 28  2  0
 27 29  1  0
M  END
$$$$
