IEF.pdb
     RDKit          3D

 29 29  0  0  1  0  0  0  0  0999 V2000
    8.1924  -11.9353   20.9544 C   0  0  0  0  0  0  0  0  0  0  0  0
    7.7596  -13.3759   20.8256 C   0  0  0  0  0  0  0  0  0  0  0  0
    8.6364  -14.1685   19.8618 C   0  0  2  0  0  0  0  0  0  0  0  0
    8.5551  -13.5142   18.5109 C   0  0  0  0  0  0  0  0  0  0  0  0
    8.1384  -15.5956   19.8752 C   0  0  2  0  0  0  0  0  0  0  0  0
    6.7829  -15.5772   19.3457 N   0  0  0  0  0  0  0  0  0  0  0  0
    8.1851  -16.2117   21.2182 C   0  0  0  0  0  0  0  0  0  0  0  0
    7.2338  -15.9951   22.0141 O   0  0  0  0  0  0  0  0  0  0  0  0
    9.2526  -17.0457   21.6689 N   0  0  0  0  0  0  0  0  0  0  0  0
    9.3103  -17.6310   22.9779 C   0  0  1  0  0  0  0  0  0  0  0  0
   10.0527  -18.9597   22.9912 C   0  0  0  0  0  0  0  0  0  0  0  0
   10.1849  -19.5456   24.3776 C   0  0  0  0  0  0  0  0  0  0  0  0
   10.9019  -20.8319   24.2299 C   0  0  0  0  0  0  0  0  0  0  0  0
   12.1517  -20.8297   24.0569 O   0  0  0  0  0  0  0  0  0  0  0  0
   10.0423  -16.7138   23.8887 C   0  0  0  0  0  0  0  0  0  0  0  0
   11.1334  -16.1751   23.5116 O   0  0  0  0  0  0  0  0  0  0  0  0
   10.2790  -22.0865   24.2630 O   0  0  0  0  0  0  0  0  0  0  0  0
    9.5809  -16.3960   25.1891 N   0  0  0  0  0  0  0  0  0  0  0  0
   10.3661  -15.6388   26.1579 C   0  0  1  0  0  0  0  0  0  0  0  0
   10.2226  -14.1721   25.8614 C   0  0  0  0  0  0  0  0  0  0  0  0
    8.8419  -13.6881   26.0208 C   0  0  0  0  0  0  0  0  0  0  0  0
    8.5451  -12.8590   27.0920 C   0  0  0  0  0  0  0  0  0  0  0  0
    7.2570  -12.3978   27.2277 C   0  0  0  0  0  0  0  0  0  0  0  0
    6.2370  -12.7010   26.3725 C   0  0  0  0  0  0  0  0  0  0  0  0
    6.5234  -13.5298   25.2959 C   0  0  0  0  0  0  0  0  0  0  0  0
    7.8296  -14.0088   25.1439 C   0  0  0  0  0  0  0  0  0  0  0  0
   10.0027  -15.9697   27.5313 C   0  0  0  0  0  0  0  0  0  0  0  0
    9.0921  -16.7317   27.8656 O   0  0  0  0  0  0  0  0  0  0  0  0
   10.7457  -15.3762   28.5750 O   0  0  0  0  0  0  0  0  0  0  0  0
  2  1  1  0
  2  3  1  0
  3  4  1  6
  5  3  1  0
  5  6  1  1
  7  5  1  0
  7  8  2  0
  9  7  1  0
 10 15  1  0
 10  9  1  0
 10 11  1  6
 12 11  1  0
 12 13  1  0
 13 14  2  0
 15 18  1  0
 16 15  2  0
 17 13  1  0
 18 19  1  0
 19 27  1  0
 20 21  1  0
 19 20  1  6
 21 26  2  0
 22 23  2  0
 22 21  1  0
 23 24  1  0
 24 25  2  0
 26 25  1  0
 27 28  2  0
 27 29  1  0
M  END
$$$$
