IEF.pdb
     RDKit          3D

 29 29  0  0  1  0  0  0  0  0999 V2000
    9.3876  -12.6760   19.3198 C   0  0  0  0  0  0  0  0  0  0  0  0
    8.6376  -13.4226   20.3965 C   0  0  0  0  0  0  0  0  0  0  0  0
    7.5093  -14.2829   19.8373 C   0  0  2  0  0  0  0  0  0  0  0  0
    6.4859  -13.3691   19.2229 C   0  0  0  0  0  0  0  0  0  0  0  0
    6.9721  -15.1135   20.9803 C   0  0  2  0  0  0  0  0  0  0  0  0
    6.5192  -14.1838   22.0045 N   0  0  0  0  0  0  0  0  0  0  0  0
    7.9648  -16.0676   21.5183 C   0  0  0  0  0  0  0  0  0  0  0  0
    8.2077  -17.1167   20.8658 O   0  0  0  0  0  0  0  0  0  0  0  0
    8.6711  -15.8675   22.7428 N   0  0  0  0  0  0  0  0  0  0  0  0
    9.3555  -16.9122   23.4495 C   0  0  1  0  0  0  0  0  0  0  0  0
   10.6522  -17.3259   22.7680 C   0  0  0  0  0  0  0  0  0  0  0  0
   11.5361  -16.1502   22.4228 C   0  0  0  0  0  0  0  0  0  0  0  0
   12.7545  -16.7043   21.7911 C   0  0  0  0  0  0  0  0  0  0  0  0
   13.8773  -16.5123   22.3337 O   0  0  0  0  0  0  0  0  0  0  0  0
    9.7125  -16.4275   24.8075 C   0  0  0  0  0  0  0  0  0  0  0  0
   10.2821  -15.2973   24.9534 O   0  0  0  0  0  0  0  0  0  0  0  0
   12.7555  -17.4418   20.5998 O   0  0  0  0  0  0  0  0  0  0  0  0
    9.4466  -17.1730   25.9815 N   0  0  0  0  0  0  0  0  0  0  0  0
    9.6795  -16.6620   27.3281 C   0  0  1  0  0  0  0  0  0  0  0  0
    8.3911  -16.1070   27.8681 C   0  0  0  0  0  0  0  0  0  0  0  0
    8.0312  -14.8108   27.2712 C   0  0  0  0  0  0  0  0  0  0  0  0
    8.7844  -13.6934   27.5986 C   0  0  0  0  0  0  0  0  0  0  0  0
    8.4530  -12.4880   27.0265 C   0  0  0  0  0  0  0  0  0  0  0  0
    7.4231  -12.3103   26.1482 C   0  0  0  0  0  0  0  0  0  0  0  0
    6.6629  -13.4227   25.8127 C   0  0  0  0  0  0  0  0  0  0  0  0
    6.9865  -14.6573   26.3871 C   0  0  0  0  0  0  0  0  0  0  0  0
   10.2618  -17.6747   28.2018 C   0  0  0  0  0  0  0  0  0  0  0  0
   10.3484  -18.8775   27.9427 O   0  0  0  0  0  0  0  0  0  0  0  0
   10.7723  -17.2586   29.4507 O   0  0  0  0  0  0  0  0  0  0  0  0
  2  1  1  0
  2  3  1  0
  3  4  1  1
  5  3  1  0
  5  6  1  1
  7  5  1  0
  7  8  2  0
  9  7  1  0
 10 15  1  0
 10  9  1  0
 10 11  1  6
 12 11  1  0
 12 13  1  0
 13 14  2  0
 15 18  1  0
 16 15  2  0
 17 13  1  0
 18 19  1  0
 19 27  1  0
 20 21  1  0
 19 20  1  1
 21 26  2  0
 22 23  2  0
 22 21  1  0
 23 24  1  0
 24 25  2  0
 26 25  1  0
 27 28  2  0
 27 29  1  0
M  END
$$$$
