IEF.pdb
     RDKit          3D

 29 29  0  0  1  0  0  0  0  0999 V2000
    7.1030  -11.9190   19.4005 C   0  0  0  0  0  0  0  0  0  0  0  0
    7.2218  -13.4208   19.3011 C   0  0  0  0  0  0  0  0  0  0  0  0
    7.7132  -14.0579   20.5967 C   0  0  2  0  0  0  0  0  0  0  0  0
    9.0396  -13.4426   20.9459 C   0  0  0  0  0  0  0  0  0  0  0  0
    7.7795  -15.5499   20.3638 C   0  0  2  0  0  0  0  0  0  0  0  0
    6.4276  -15.9919   20.0551 N   0  0  0  0  0  0  0  0  0  0  0  0
    8.3400  -16.2904   21.5140 C   0  0  0  0  0  0  0  0  0  0  0  0
    7.5633  -16.6436   22.4399 O   0  0  0  0  0  0  0  0  0  0  0  0
    9.7206  -16.6326   21.6371 N   0  0  0  0  0  0  0  0  0  0  0  0
   10.2552  -17.4195   22.7116 C   0  0  1  0  0  0  0  0  0  0  0  0
   11.7054  -17.8186   22.4777 C   0  0  0  0  0  0  0  0  0  0  0  0
   11.8816  -18.7164   21.2753 C   0  0  0  0  0  0  0  0  0  0  0  0
   13.3319  -18.7571   20.9830 C   0  0  0  0  0  0  0  0  0  0  0  0
   14.1239  -19.2424   21.8369 O   0  0  0  0  0  0  0  0  0  0  0  0
   10.2196  -16.6208   23.9635 C   0  0  0  0  0  0  0  0  0  0  0  0
   10.4128  -15.3621   23.9243 O   0  0  0  0  0  0  0  0  0  0  0  0
   13.9080  -18.2788   19.7988 O   0  0  0  0  0  0  0  0  0  0  0  0
    9.9754  -17.1974   25.2334 N   0  0  0  0  0  0  0  0  0  0  0  0
    9.2273  -16.5258   26.2907 C   0  0  1  0  0  0  0  0  0  0  0  0
    7.9549  -15.9731   25.7115 C   0  0  0  0  0  0  0  0  0  0  0  0
    7.7679  -14.5424   26.0014 C   0  0  0  0  0  0  0  0  0  0  0  0
    6.5088  -14.0963   26.3737 C   0  0  0  0  0  0  0  0  0  0  0  0
    6.3430  -12.7613   26.6578 C   0  0  0  0  0  0  0  0  0  0  0  0
    7.3417  -11.8324   26.5992 C   0  0  0  0  0  0  0  0  0  0  0  0
    8.6067  -12.2684   26.2283 C   0  0  0  0  0  0  0  0  0  0  0  0
    8.7921  -13.6243   25.9349 C   0  0  0  0  0  0  0  0  0  0  0  0
    8.9875  -17.4039   27.4306 C   0  0  0  0  0  0  0  0  0  0  0  0
    9.1360  -17.0935   28.6151 O   0  0  0  0  0  0  0  0  0  0  0  0
    8.5490  -18.7209   27.1722 O   0  0  0  0  0  0  0  0  0  0  0  0
  2  1  1  0
  2  3  1  0
  3  4  1  6
  5  3  1  0
  5  6  1  1
  7  5  1  0
  7  8  2  0
  9  7  1  0
 10 15  1  0
 10  9  1  0
 10 11  1  6
 12 11  1  0
 12 13  1  0
 13 14  2  0
 15 18  1  0
 16 15  2  0
 17 13  1  0
 18 19  1  0
 19 27  1  0
 20 21  1  0
 19 20  1  6
 21 26  2  0
 22 23  2  0
 22 21  1  0
 23 24  1  0
 24 25  2  0
 26 25  1  0
 27 28  2  0
 27 29  1  0
M  END
$$$$
