IEF.pdb
     RDKit          3D

 29 29  0  0  1  0  0  0  0  0999 V2000
    7.1009  -12.1125   18.7644 C   0  0  0  0  0  0  0  0  0  0  0  0
    7.6575  -13.4916   18.5046 C   0  0  0  0  0  0  0  0  0  0  0  0
    7.9499  -14.2585   19.7900 C   0  0  2  0  0  0  0  0  0  0  0  0
    8.9001  -13.4383   20.6172 C   0  0  0  0  0  0  0  0  0  0  0  0
    8.5033  -15.6070   19.3898 C   0  0  2  0  0  0  0  0  0  0  0  0
    7.4652  -16.2816   18.6245 N   0  0  0  0  0  0  0  0  0  0  0  0
    8.9367  -16.4204   20.5456 C   0  0  0  0  0  0  0  0  0  0  0  0
    8.0567  -16.9265   21.2904 O   0  0  0  0  0  0  0  0  0  0  0  0
   10.3049  -16.6691   20.8688 N   0  0  0  0  0  0  0  0  0  0  0  0
   10.7344  -17.3301   22.0679 C   0  0  1  0  0  0  0  0  0  0  0  0
   12.2049  -17.7209   22.0246 C   0  0  0  0  0  0  0  0  0  0  0  0
   12.6684  -18.4077   23.2881 C   0  0  0  0  0  0  0  0  0  0  0  0
   14.0328  -18.9151   23.0212 C   0  0  0  0  0  0  0  0  0  0  0  0
   14.9247  -18.1173   22.6212 O   0  0  0  0  0  0  0  0  0  0  0  0
   10.5625  -16.4078   23.2197 C   0  0  0  0  0  0  0  0  0  0  0  0
   10.9787  -15.2062   23.1438 O   0  0  0  0  0  0  0  0  0  0  0  0
   14.4178  -20.2531   23.1783 O   0  0  0  0  0  0  0  0  0  0  0  0
    9.9436  -16.8017   24.4308 N   0  0  0  0  0  0  0  0  0  0  0  0
    9.4305  -15.8558   25.4159 C   0  0  1  0  0  0  0  0  0  0  0  0
    8.5341  -14.8683   24.7223 C   0  0  0  0  0  0  0  0  0  0  0  0
    7.9926  -13.8478   25.6341 C   0  0  0  0  0  0  0  0  0  0  0  0
    8.8740  -12.9875   26.2714 C   0  0  0  0  0  0  0  0  0  0  0  0
    8.3617  -12.0265   27.1106 C   0  0  0  0  0  0  0  0  0  0  0  0
    7.0311  -11.8562   27.3640 C   0  0  0  0  0  0  0  0  0  0  0  0
    6.1396  -12.7117   26.7303 C   0  0  0  0  0  0  0  0  0  0  0  0
    6.6450  -13.6963   25.8735 C   0  0  0  0  0  0  0  0  0  0  0  0
    8.7659  -16.5312   26.5250 C   0  0  0  0  0  0  0  0  0  0  0  0
    7.9966  -17.4897   26.4199 O   0  0  0  0  0  0  0  0  0  0  0  0
    9.0137  -16.0598   27.8326 O   0  0  0  0  0  0  0  0  0  0  0  0
  2  1  1  0
  2  3  1  0
  3  4  1  1
  5  3  1  0
  5  6  1  1
  7  5  1  0
  7  8  2  0
  9  7  1  0
 10 15  1  0
 10  9  1  0
 10 11  1  6
 12 11  1  0
 12 13  1  0
 13 14  2  0
 15 18  1  0
 16 15  2  0
 17 13  1  0
 18 19  1  0
 19 27  1  0
 20 21  1  0
 19 20  1  6
 21 26  2  0
 22 23  2  0
 22 21  1  0
 23 24  1  0
 24 25  2  0
 26 25  1  0
 27 28  2  0
 27 29  1  0
M  END
$$$$
