IEF.pdb
     RDKit          3D

 29 29  0  0  1  0  0  0  0  0999 V2000
    6.8183  -11.8372   19.7112 C   0  0  0  0  0  0  0  0  0  0  0  0
    7.1677  -13.2892   19.4900 C   0  0  0  0  0  0  0  0  0  0  0  0
    7.5180  -14.0128   20.7859 C   0  0  2  0  0  0  0  0  0  0  0  0
    8.6482  -13.2714   21.4439 C   0  0  0  0  0  0  0  0  0  0  0  0
    7.8592  -15.4399   20.4228 C   0  0  2  0  0  0  0  0  0  0  0  0
    6.6532  -16.0366   19.8679 N   0  0  0  0  0  0  0  0  0  0  0  0
    8.3704  -16.2217   21.5685 C   0  0  0  0  0  0  0  0  0  0  0  0
    7.5433  -16.7043   22.3860 O   0  0  0  0  0  0  0  0  0  0  0  0
    9.7574  -16.4652   21.8037 N   0  0  0  0  0  0  0  0  0  0  0  0
   10.2538  -17.2901   22.8679 C   0  0  1  0  0  0  0  0  0  0  0  0
   11.7340  -17.6109   22.7162 C   0  0  0  0  0  0  0  0  0  0  0  0
   12.2589  -18.5006   23.8188 C   0  0  0  0  0  0  0  0  0  0  0  0
   13.6727  -18.7932   23.4933 C   0  0  0  0  0  0  0  0  0  0  0  0
   13.9561  -19.8319   22.8354 O   0  0  0  0  0  0  0  0  0  0  0  0
   10.0940  -16.5692   24.1568 C   0  0  0  0  0  0  0  0  0  0  0  0
   10.5837  -15.4020   24.3012 O   0  0  0  0  0  0  0  0  0  0  0  0
   14.7505  -17.9841   23.8763 O   0  0  0  0  0  0  0  0  0  0  0  0
    9.4078  -17.1231   25.2645 N   0  0  0  0  0  0  0  0  0  0  0  0
    9.4061  -16.5195   26.5927 C   0  0  1  0  0  0  0  0  0  0  0  0
    8.0089  -16.0746   26.9238 C   0  0  0  0  0  0  0  0  0  0  0  0
    7.8109  -14.6275   26.7433 C   0  0  0  0  0  0  0  0  0  0  0  0
    6.6292  -14.1822   26.1702 C   0  0  0  0  0  0  0  0  0  0  0  0
    6.4431  -12.8286   26.0176 C   0  0  0  0  0  0  0  0  0  0  0  0
    7.3494  -11.8799   26.3948 C   0  0  0  0  0  0  0  0  0  0  0  0
    8.5358  -12.3147   26.9706 C   0  0  0  0  0  0  0  0  0  0  0  0
    8.7413  -13.6896   27.1323 C   0  0  0  0  0  0  0  0  0  0  0  0
    9.9602  -17.4175   27.5999 C   0  0  0  0  0  0  0  0  0  0  0  0
   10.1193  -17.1428   28.7919 O   0  0  0  0  0  0  0  0  0  0  0  0
   10.3516  -18.7111   27.1916 O   0  0  0  0  0  0  0  0  0  0  0  0
  2  1  1  0
  2  3  1  0
  3  4  1  6
  5  3  1  0
  5  6  1  1
  7  5  1  0
  7  8  2  0
  9  7  1  0
 10 15  1  0
 10  9  1  0
 10 11  1  6
 12 11  1  0
 12 13  1  0
 13 14  2  0
 15 18  1  0
 16 15  2  0
 17 13  1  0
 18 19  1  0
 19 27  1  0
 20 21  1  0
 19 20  1  1
 21 26  2  0
 22 23  2  0
 22 21  1  0
 23 24  1  0
 24 25  2  0
 26 25  1  0
 27 28  2  0
 27 29  1  0
M  END
$$$$
