QYG.pdb
     RDKit          3D

 26 26  0  0  1  0  0  0  0  0999 V2000
    9.3822  -13.6359   17.5986 N   0  0  0  0  0  0  0  0  0  0  0  0
    7.9416  -13.5740   17.4517 C   0  0  0  0  0  0  0  0  0  0  0  0
    7.4886  -13.7843   16.3113 O   0  0  0  0  0  0  0  0  0  0  0  0
    7.0946  -13.2754   18.6241 C   0  0  0  0  0  0  0  0  0  0  0  0
    7.7810  -13.2698   19.9323 C   0  0  0  0  0  0  0  0  0  0  0  0
    8.2701  -14.5611   20.4679 C   0  0  2  0  0  0  0  0  0  0  0  0
    7.3942  -15.6788   20.3842 N   0  0  0  0  0  0  0  0  0  0  0  0
    8.8490  -14.4210   21.8464 C   0  0  0  0  0  0  0  0  0  0  0  0
    9.5298  -13.4039   22.1391 O   0  0  0  0  0  0  0  0  0  0  0  0
   10.5966  -14.5699   30.3846 O   0  0  0  0  0  0  0  0  0  0  0  0
   10.0280  -14.6229   29.1120 C   0  0  0  0  0  0  0  0  0  0  0  0
    9.8050  -15.8546   28.5462 C   0  0  0  0  0  0  0  0  0  0  0  0
    9.2383  -15.9595   27.2750 C   0  0  0  0  0  0  0  0  0  0  0  0
    8.8875  -14.8422   26.5521 C   0  0  0  0  0  0  0  0  0  0  0  0
    8.2951  -14.9273   25.2009 C   0  0  0  0  0  0  0  0  0  0  0  0
    9.3144  -15.2520   24.1368 C   0  0  2  0  0  0  0  0  0  0  0  0
    8.6474  -15.4128   22.8367 N   0  0  0  0  0  0  0  0  0  0  0  0
   10.0556  -16.5004   24.4402 C   0  0  0  0  0  0  0  0  0  0  0  0
    9.4901  -17.6178   24.5160 O   0  0  0  0  0  0  0  0  0  0  0  0
    9.1218  -13.5983   27.1441 C   0  0  0  0  0  0  0  0  0  0  0  0
    9.6818  -13.5067   28.4002 C   0  0  0  0  0  0  0  0  0  0  0  0
   11.4805  -16.4853   24.6650 N   0  0  0  0  0  0  0  0  0  0  0  0
   12.4134  -16.1096   23.6273 C   0  0  0  0  0  0  0  0  0  0  0  0
   13.6718  -16.8851   23.7011 C   0  0  0  0  0  0  0  0  0  0  0  0
   14.8986  -16.2540   23.8096 O   0  0  0  0  0  0  0  0  0  0  0  0
   13.6546  -18.1395   23.6669 O   0  0  0  0  0  0  0  0  0  0  0  0
  1  2  1  0
  2  3  2  0
  4  2  1  0
  5  4  1  0
  6  5  1  0
  6  8  1  0
  6  7  1  1
  8  9  2  0
 10 11  1  0
 11 12  2  0
 12 13  1  0
 14 13  2  0
 14 15  1  0
 16 15  1  1
 16 18  1  0
 17  8  1  0
 17 16  1  0
 18 22  1  0
 19 18  2  0
 20 14  1  0
 21 11  1  0
 21 20  2  0
 22 23  1  0
 24 25  1  0
 24 23  1  0
 26 24  2  0
M  END
$$$$
