QYG.pdb
     RDKit          3D

 26 26  0  0  1  0  0  0  0  0999 V2000
    8.3101  -18.3283   17.6618 N   0  0  0  0  0  0  0  0  0  0  0  0
    9.2291  -17.3086   17.1965 C   0  0  0  0  0  0  0  0  0  0  0  0
   10.1449  -17.6864   16.4426 O   0  0  0  0  0  0  0  0  0  0  0  0
    9.0472  -15.9056   17.6203 C   0  0  0  0  0  0  0  0  0  0  0  0
    7.8269  -15.6200   18.4025 C   0  0  0  0  0  0  0  0  0  0  0  0
    7.5771  -14.2203   18.8172 C   0  0  2  0  0  0  0  0  0  0  0  0
    7.9133  -13.1931   17.8923 N   0  0  0  0  0  0  0  0  0  0  0  0
    8.1249  -13.9271   20.1843 C   0  0  0  0  0  0  0  0  0  0  0  0
    9.0303  -13.0643   20.3242 O   0  0  0  0  0  0  0  0  0  0  0  0
    7.2426  -11.5342   28.5322 O   0  0  0  0  0  0  0  0  0  0  0  0
    7.0950  -12.1647   27.2968 C   0  0  0  0  0  0  0  0  0  0  0  0
    7.5102  -13.4684   27.1742 C   0  0  0  0  0  0  0  0  0  0  0  0
    7.3834  -14.1423   25.9586 C   0  0  0  0  0  0  0  0  0  0  0  0
    6.8432  -13.5286   24.8516 C   0  0  0  0  0  0  0  0  0  0  0  0
    6.7073  -14.2178   23.5515 C   0  0  0  0  0  0  0  0  0  0  0  0
    7.9017  -14.0094   22.6534 C   0  0  2  0  0  0  0  0  0  0  0  0
    7.6451  -14.6021   21.3328 N   0  0  0  0  0  0  0  0  0  0  0  0
    9.1305  -14.6246   23.2117 C   0  0  0  0  0  0  0  0  0  0  0  0
    9.6259  -14.2646   24.3068 O   0  0  0  0  0  0  0  0  0  0  0  0
    6.4264  -12.2026   24.9956 C   0  0  0  0  0  0  0  0  0  0  0  0
    6.5563  -11.5470   26.2011 C   0  0  0  0  0  0  0  0  0  0  0  0
    9.8209  -15.6792   22.5104 N   0  0  0  0  0  0  0  0  0  0  0  0
   10.9410  -16.3799   23.0958 C   0  0  0  0  0  0  0  0  0  0  0  0
   10.5073  -17.4485   24.0234 C   0  0  0  0  0  0  0  0  0  0  0  0
   10.7341  -18.7833   23.7371 O   0  0  0  0  0  0  0  0  0  0  0  0
    9.9208  -17.1667   25.0965 O   0  0  0  0  0  0  0  0  0  0  0  0
  1  2  1  0
  2  3  2  0
  4  2  1  0
  5  4  1  0
  6  5  1  0
  6  8  1  0
  6  7  1  6
  8  9  2  0
 10 11  1  0
 11 12  2  0
 12 13  1  0
 14 13  2  0
 14 15  1  0
 16 15  1  1
 16 18  1  0
 17  8  1  0
 17 16  1  0
 18 22  1  0
 19 18  2  0
 20 14  1  0
 21 11  1  0
 21 20  2  0
 22 23  1  0
 24 25  1  0
 24 23  1  0
 26 24  2  0
M  END
$$$$
