QYG.pdb
     RDKit          3D

 26 26  0  0  1  0  0  0  0  0999 V2000
    7.9760  -12.8409   17.4727 N   0  0  0  0  0  0  0  0  0  0  0  0
    7.9085  -13.9752   16.5730 C   0  0  0  0  0  0  0  0  0  0  0  0
    7.8468  -13.7180   15.3564 O   0  0  0  0  0  0  0  0  0  0  0  0
    7.9171  -15.3479   17.1176 C   0  0  0  0  0  0  0  0  0  0  0  0
    9.1550  -15.7602   17.8107 C   0  0  0  0  0  0  0  0  0  0  0  0
    9.0269  -16.5926   19.0289 C   0  0  2  0  0  0  0  0  0  0  0  0
    7.9569  -17.5290   19.0730 N   0  0  0  0  0  0  0  0  0  0  0  0
    9.0892  -15.7728   20.2855 C   0  0  0  0  0  0  0  0  0  0  0  0
    9.9327  -14.8443   20.3862 O   0  0  0  0  0  0  0  0  0  0  0  0
    7.0827  -11.3500   27.5827 O   0  0  0  0  0  0  0  0  0  0  0  0
    7.0430  -12.1758   26.4592 C   0  0  0  0  0  0  0  0  0  0  0  0
    7.5536  -11.6969   25.2773 C   0  0  0  0  0  0  0  0  0  0  0  0
    7.5367  -12.4853   24.1257 C   0  0  0  0  0  0  0  0  0  0  0  0
    7.0121  -13.7577   24.1357 C   0  0  0  0  0  0  0  0  0  0  0  0
    6.9742  -14.6078   22.9276 C   0  0  0  0  0  0  0  0  0  0  0  0
    8.3270  -15.1711   22.5681 C   0  0  2  0  0  0  0  0  0  0  0  0
    8.2151  -16.0185   21.3721 N   0  0  0  0  0  0  0  0  0  0  0  0
    8.8991  -15.9862   23.6674 C   0  0  0  0  0  0  0  0  0  0  0  0
    8.1906  -16.7092   24.4086 O   0  0  0  0  0  0  0  0  0  0  0  0
    6.4976  -14.2275   25.3470 C   0  0  0  0  0  0  0  0  0  0  0  0
    6.5198  -13.4400   26.4781 C   0  0  0  0  0  0  0  0  0  0  0  0
   10.3162  -15.9837   23.9374 N   0  0  0  0  0  0  0  0  0  0  0  0
   10.8946  -16.7884   24.9891 C   0  0  0  0  0  0  0  0  0  0  0  0
   12.3537  -16.5754   25.1161 C   0  0  0  0  0  0  0  0  0  0  0  0
   13.0896  -17.2143   26.0985 O   0  0  0  0  0  0  0  0  0  0  0  0
   12.9598  -15.8062   24.3312 O   0  0  0  0  0  0  0  0  0  0  0  0
  1  2  1  0
  2  3  2  0
  4  2  1  0
  5  4  1  0
  6  5  1  0
  6  8  1  0
  6  7  1  6
  8  9  2  0
 10 11  1  0
 11 12  2  0
 12 13  1  0
 14 13  2  0
 14 15  1  0
 16 15  1  1
 16 18  1  0
 17  8  1  0
 17 16  1  0
 18 22  1  0
 19 18  2  0
 20 14  1  0
 21 11  1  0
 21 20  2  0
 22 23  1  0
 24 25  1  0
 24 23  1  0
 26 24  2  0
M  END
$$$$
