QYG.pdb
     RDKit          3D

 26 26  0  0  1  0  0  0  0  0999 V2000
    9.7186  -13.4484   17.8592 N   0  0  0  0  0  0  0  0  0  0  0  0
    8.3210  -13.7851   17.6749 C   0  0  0  0  0  0  0  0  0  0  0  0
    7.9454  -13.9824   16.5045 O   0  0  0  0  0  0  0  0  0  0  0  0
    7.4264  -13.8797   18.8462 C   0  0  0  0  0  0  0  0  0  0  0  0
    8.0798  -13.7840   20.1677 C   0  0  0  0  0  0  0  0  0  0  0  0
    8.3829  -15.0423   20.8876 C   0  0  2  0  0  0  0  0  0  0  0  0
    7.3934  -16.0641   20.8659 N   0  0  0  0  0  0  0  0  0  0  0  0
    8.8817  -14.7925   22.2818 C   0  0  0  0  0  0  0  0  0  0  0  0
    9.6246  -13.8034   22.5131 O   0  0  0  0  0  0  0  0  0  0  0  0
    5.7017  -10.5677   26.8089 O   0  0  0  0  0  0  0  0  0  0  0  0
    6.3536  -11.7762   26.5637 C   0  0  0  0  0  0  0  0  0  0  0  0
    5.6224  -12.8225   26.0560 C   0  0  0  0  0  0  0  0  0  0  0  0
    6.2296  -14.0515   25.7940 C   0  0  0  0  0  0  0  0  0  0  0  0
    7.5695  -14.2547   26.0335 C   0  0  0  0  0  0  0  0  0  0  0  0
    8.2329  -15.5493   25.7733 C   0  0  0  0  0  0  0  0  0  0  0  0
    9.2271  -15.4778   24.6406 C   0  0  2  0  0  0  0  0  0  0  0  0
    8.5350  -15.6486   23.3550 N   0  0  0  0  0  0  0  0  0  0  0  0
   10.2724  -16.5242   24.7522 C   0  0  0  0  0  0  0  0  0  0  0  0
   11.0005  -16.6431   25.7670 O   0  0  0  0  0  0  0  0  0  0  0  0
    8.2969  -13.1790   26.5497 C   0  0  0  0  0  0  0  0  0  0  0  0
    7.6866  -11.9695   26.8045 C   0  0  0  0  0  0  0  0  0  0  0  0
   10.5020  -17.4654   23.6834 N   0  0  0  0  0  0  0  0  0  0  0  0
   11.5035  -18.5026   23.7811 C   0  0  0  0  0  0  0  0  0  0  0  0
   11.0645  -19.6223   24.6435 C   0  0  0  0  0  0  0  0  0  0  0  0
   11.8978  -20.1502   25.6140 O   0  0  0  0  0  0  0  0  0  0  0  0
    9.9203  -20.1212   24.5134 O   0  0  0  0  0  0  0  0  0  0  0  0
  1  2  1  0
  2  3  2  0
  4  2  1  0
  5  4  1  0
  6  5  1  0
  6  8  1  0
  6  7  1  1
  8  9  2  0
 10 11  1  0
 11 12  2  0
 12 13  1  0
 14 13  2  0
 14 15  1  0
 16 15  1  1
 16 18  1  0
 17  8  1  0
 17 16  1  0
 18 22  1  0
 19 18  2  0
 20 14  1  0
 21 11  1  0
 21 20  2  0
 22 23  1  0
 24 25  1  0
 24 23  1  0
 26 24  2  0
M  END
$$$$
