QYG.pdb
     RDKit          3D

 26 26  0  0  1  0  0  0  0  0999 V2000
    8.5706  -12.8690   16.1797 N   0  0  0  0  0  0  0  0  0  0  0  0
    8.1770  -14.2509   15.9895 C   0  0  0  0  0  0  0  0  0  0  0  0
    7.8033  -14.5711   14.8460 O   0  0  0  0  0  0  0  0  0  0  0  0
    8.2349  -15.1951   17.1236 C   0  0  0  0  0  0  0  0  0  0  0  0
    8.6550  -14.6235   18.4195 C   0  0  0  0  0  0  0  0  0  0  0  0
    9.0777  -15.5573   19.4885 C   0  0  2  0  0  0  0  0  0  0  0  0
    8.4484  -16.8323   19.5311 N   0  0  0  0  0  0  0  0  0  0  0  0
    9.0859  -14.9051   20.8411 C   0  0  0  0  0  0  0  0  0  0  0  0
    9.7718  -13.8673   21.0317 O   0  0  0  0  0  0  0  0  0  0  0  0
    6.5322  -11.1892   28.2746 O   0  0  0  0  0  0  0  0  0  0  0  0
    6.6112  -11.9829   27.1303 C   0  0  0  0  0  0  0  0  0  0  0  0
    7.0870  -11.4161   25.9730 C   0  0  0  0  0  0  0  0  0  0  0  0
    7.1849  -12.1693   24.8020 C   0  0  0  0  0  0  0  0  0  0  0  0
    6.8112  -13.4934   24.7679 C   0  0  0  0  0  0  0  0  0  0  0  0
    6.8965  -14.3087   23.5385 C   0  0  0  0  0  0  0  0  0  0  0  0
    8.3140  -14.6897   23.1887 C   0  0  2  0  0  0  0  0  0  0  0  0
    8.3347  -15.4317   21.9197 N   0  0  0  0  0  0  0  0  0  0  0  0
    8.9362  -15.5360   24.2359 C   0  0  0  0  0  0  0  0  0  0  0  0
    8.9689  -15.1975   25.4436 O   0  0  0  0  0  0  0  0  0  0  0  0
    6.3300  -14.0524   25.9548 C   0  0  0  0  0  0  0  0  0  0  0  0
    6.2377  -13.2990   27.1054 C   0  0  0  0  0  0  0  0  0  0  0  0
    9.5405  -16.8040   23.9078 N   0  0  0  0  0  0  0  0  0  0  0  0
   10.0551  -17.6911   24.9260 C   0  0  0  0  0  0  0  0  0  0  0  0
   11.5103  -17.5181   25.1330 C   0  0  0  0  0  0  0  0  0  0  0  0
   12.1956  -18.2670   26.0735 O   0  0  0  0  0  0  0  0  0  0  0  0
   12.1592  -16.6837   24.4565 O   0  0  0  0  0  0  0  0  0  0  0  0
  1  2  1  0
  2  3  2  0
  4  2  1  0
  5  4  1  0
  6  5  1  0
  6  8  1  0
  6  7  1  1
  8  9  2  0
 10 11  1  0
 11 12  2  0
 12 13  1  0
 14 13  2  0
 14 15  1  0
 16 15  1  1
 16 18  1  0
 17  8  1  0
 17 16  1  0
 18 22  1  0
 19 18  2  0
 20 14  1  0
 21 11  1  0
 21 20  2  0
 22 23  1  0
 24 25  1  0
 24 23  1  0
 26 24  2  0
M  END
$$$$
