QYG.pdb
     RDKit          3D

 26 26  0  0  1  0  0  0  0  0999 V2000
    7.8904  -12.7332   16.2092 N   0  0  0  0  0  0  0  0  0  0  0  0
    7.9852  -14.1216   15.8041 C   0  0  0  0  0  0  0  0  0  0  0  0
    8.0726  -14.3402   14.5816 O   0  0  0  0  0  0  0  0  0  0  0  0
    7.9768  -15.1882   16.8255 C   0  0  0  0  0  0  0  0  0  0  0  0
    8.9888  -15.0667   17.8949 C   0  0  0  0  0  0  0  0  0  0  0  0
    8.9912  -16.0848   18.9705 C   0  0  2  0  0  0  0  0  0  0  0  0
    7.9954  -17.0991   18.9147 N   0  0  0  0  0  0  0  0  0  0  0  0
    9.0671  -15.4666   20.3369 C   0  0  0  0  0  0  0  0  0  0  0  0
    9.9486  -14.6035   20.5855 O   0  0  0  0  0  0  0  0  0  0  0  0
    7.1797  -11.9417   28.1111 O   0  0  0  0  0  0  0  0  0  0  0  0
    7.1128  -12.6617   26.9183 C   0  0  0  0  0  0  0  0  0  0  0  0
    7.4492  -12.0234   25.7494 C   0  0  0  0  0  0  0  0  0  0  0  0
    7.3982  -12.7014   24.5305 C   0  0  0  0  0  0  0  0  0  0  0  0
    7.0120  -14.0204   24.4595 C   0  0  0  0  0  0  0  0  0  0  0  0
    6.9408  -14.7567   23.1802 C   0  0  0  0  0  0  0  0  0  0  0  0
    8.2973  -15.1863   22.6783 C   0  0  2  0  0  0  0  0  0  0  0  0
    8.1639  -15.8320   21.3644 N   0  0  0  0  0  0  0  0  0  0  0  0
    8.9555  -16.1402   23.6040 C   0  0  0  0  0  0  0  0  0  0  0  0
    8.6952  -17.3676   23.6032 O   0  0  0  0  0  0  0  0  0  0  0  0
    6.6737  -14.6529   25.6588 C   0  0  0  0  0  0  0  0  0  0  0  0
    6.7280  -13.9734   26.8568 C   0  0  0  0  0  0  0  0  0  0  0  0
    9.9385  -15.6929   24.5603 N   0  0  0  0  0  0  0  0  0  0  0  0
   10.7224  -16.6223   25.3413 C   0  0  0  0  0  0  0  0  0  0  0  0
   10.0801  -16.9442   26.6351 C   0  0  0  0  0  0  0  0  0  0  0  0
    9.4536  -18.1605   26.8426 O   0  0  0  0  0  0  0  0  0  0  0  0
   10.0892  -16.1167   27.5786 O   0  0  0  0  0  0  0  0  0  0  0  0
  1  2  1  0
  2  3  2  0
  4  2  1  0
  5  4  1  0
  6  5  1  0
  6  8  1  0
  6  7  1  1
  8  9  2  0
 10 11  1  0
 11 12  2  0
 12 13  1  0
 14 13  2  0
 14 15  1  0
 16 15  1  1
 16 18  1  0
 17  8  1  0
 17 16  1  0
 18 22  1  0
 19 18  2  0
 20 14  1  0
 21 11  1  0
 21 20  2  0
 22 23  1  0
 24 25  1  0
 24 23  1  0
 26 24  2  0
M  END
$$$$
