QYG.pdb
     RDKit          3D

 26 26  0  0  1  0  0  0  0  0999 V2000
    7.4013  -13.0554   16.3015 N   0  0  0  0  0  0  0  0  0  0  0  0
    7.9894  -14.3067   15.8668 C   0  0  0  0  0  0  0  0  0  0  0  0
    8.0650  -14.4891   14.6376 O   0  0  0  0  0  0  0  0  0  0  0  0
    8.4625  -15.2843   16.8677 C   0  0  0  0  0  0  0  0  0  0  0  0
    8.1214  -14.9858   18.2738 C   0  0  0  0  0  0  0  0  0  0  0  0
    8.7081  -15.8426   19.3298 C   0  0  2  0  0  0  0  0  0  0  0  0
    8.1349  -17.1302   19.5222 N   0  0  0  0  0  0  0  0  0  0  0  0
    8.8630  -15.1119   20.6325 C   0  0  0  0  0  0  0  0  0  0  0  0
    9.5007  -14.0276   20.6702 O   0  0  0  0  0  0  0  0  0  0  0  0
    6.8807  -11.5389   28.3898 O   0  0  0  0  0  0  0  0  0  0  0  0
    6.9082  -12.3330   27.2434 C   0  0  0  0  0  0  0  0  0  0  0  0
    6.8616  -11.7140   26.0179 C   0  0  0  0  0  0  0  0  0  0  0  0
    6.8866  -12.4653   24.8419 C   0  0  0  0  0  0  0  0  0  0  0  0
    6.9577  -13.8394   24.8705 C   0  0  0  0  0  0  0  0  0  0  0  0
    6.9757  -14.6570   23.6397 C   0  0  0  0  0  0  0  0  0  0  0  0
    8.3539  -14.7725   23.0364 C   0  0  2  0  0  0  0  0  0  0  0  0
    8.3049  -15.6149   21.8327 N   0  0  0  0  0  0  0  0  0  0  0  0
    9.3273  -15.3671   23.9846 C   0  0  0  0  0  0  0  0  0  0  0  0
    9.6143  -14.8287   25.0809 O   0  0  0  0  0  0  0  0  0  0  0  0
    7.0045  -14.4511   26.1261 C   0  0  0  0  0  0  0  0  0  0  0  0
    6.9794  -13.6989   27.2809 C   0  0  0  0  0  0  0  0  0  0  0  0
    9.9971  -16.6088   23.6842 N   0  0  0  0  0  0  0  0  0  0  0  0
   10.9567  -17.1976   24.5903 C   0  0  0  0  0  0  0  0  0  0  0  0
   11.4691  -18.4945   24.0945 C   0  0  0  0  0  0  0  0  0  0  0  0
   12.3680  -19.2417   24.8353 O   0  0  0  0  0  0  0  0  0  0  0  0
   11.0980  -18.9484   22.9848 O   0  0  0  0  0  0  0  0  0  0  0  0
  1  2  1  0
  2  3  2  0
  4  2  1  0
  5  4  1  0
  6  5  1  0
  6  8  1  0
  6  7  1  1
  8  9  2  0
 10 11  1  0
 11 12  2  0
 12 13  1  0
 14 13  2  0
 14 15  1  0
 16 15  1  1
 16 18  1  0
 17  8  1  0
 17 16  1  0
 18 22  1  0
 19 18  2  0
 20 14  1  0
 21 11  1  0
 21 20  2  0
 22 23  1  0
 24 25  1  0
 24 23  1  0
 26 24  2  0
M  END
$$$$
