QYG.pdb
     RDKit          3D

 26 26  0  0  1  0  0  0  0  0999 V2000
    8.7537  -13.1215   15.2986 N   0  0  0  0  0  0  0  0  0  0  0  0
    8.1119  -14.3659   15.6730 C   0  0  0  0  0  0  0  0  0  0  0  0
    8.0983  -15.2661   14.8132 O   0  0  0  0  0  0  0  0  0  0  0  0
    7.5198  -14.5128   17.0180 C   0  0  0  0  0  0  0  0  0  0  0  0
    8.3538  -14.0478   18.1453 C   0  0  0  0  0  0  0  0  0  0  0  0
    8.8862  -15.0631   19.0830 C   0  0  2  0  0  0  0  0  0  0  0  0
    8.4004  -16.3937   18.9527 N   0  0  0  0  0  0  0  0  0  0  0  0
    8.8359  -14.5990   20.5103 C   0  0  0  0  0  0  0  0  0  0  0  0
    9.2521  -13.4498   20.8100 O   0  0  0  0  0  0  0  0  0  0  0  0
    6.9518  -11.4589   28.1234 O   0  0  0  0  0  0  0  0  0  0  0  0
    6.9684  -12.2004   26.9421 C   0  0  0  0  0  0  0  0  0  0  0  0
    6.4389  -13.4678   26.9581 C   0  0  0  0  0  0  0  0  0  0  0  0
    6.4323  -14.2489   25.8015 C   0  0  0  0  0  0  0  0  0  0  0  0
    6.9520  -13.7797   24.6166 C   0  0  0  0  0  0  0  0  0  0  0  0
    6.9653  -14.5910   23.3815 C   0  0  0  0  0  0  0  0  0  0  0  0
    8.3618  -14.9312   22.9224 C   0  0  2  0  0  0  0  0  0  0  0  0
    8.3272  -15.4281   21.5393 N   0  0  0  0  0  0  0  0  0  0  0  0
    8.9903  -15.9680   23.7767 C   0  0  0  0  0  0  0  0  0  0  0  0
    8.3846  -17.0093   24.1275 O   0  0  0  0  0  0  0  0  0  0  0  0
    7.4860  -12.4883   24.6198 C   0  0  0  0  0  0  0  0  0  0  0  0
    7.4869  -11.7259   25.7681 C   0  0  0  0  0  0  0  0  0  0  0  0
   10.3454  -15.8233   24.2494 N   0  0  0  0  0  0  0  0  0  0  0  0
   10.6882  -15.9781   25.6447 C   0  0  0  0  0  0  0  0  0  0  0  0
   11.0154  -17.3805   25.9865 C   0  0  0  0  0  0  0  0  0  0  0  0
   11.8102  -17.6868   27.0770 O   0  0  0  0  0  0  0  0  0  0  0  0
   10.5768  -18.3287   25.2911 O   0  0  0  0  0  0  0  0  0  0  0  0
  1  2  1  0
  2  3  2  0
  4  2  1  0
  5  4  1  0
  6  5  1  0
  6  8  1  0
  6  7  1  1
  8  9  2  0
 10 11  1  0
 11 12  2  0
 12 13  1  0
 14 13  2  0
 14 15  1  0
 16 15  1  1
 16 18  1  0
 17  8  1  0
 17 16  1  0
 18 22  1  0
 19 18  2  0
 20 14  1  0
 21 11  1  0
 21 20  2  0
 22 23  1  0
 24 25  1  0
 24 23  1  0
 26 24  2  0
M  END
$$$$
