NEF.pdb
     RDKit          3D

 29 29  0  0  1  0  0  0  0  0999 V2000
    3.8869  -17.8625   20.1472 N   0  0  0  0  0  0  0  0  0  0  0  0
    4.0442  -18.4384   21.4386 C   0  0  0  0  0  0  0  0  0  0  0  0
    3.7110  -19.6545   21.6055 O   0  0  0  0  0  0  0  0  0  0  0  0
    4.5847  -17.6531   22.5831 C   0  0  0  0  0  0  0  0  0  0  0  0
    5.8475  -16.9656   22.1182 C   0  0  2  0  0  0  0  0  0  0  0  0
    5.9621  -17.2056   20.6967 N   0  0  0  0  0  0  0  0  0  0  0  0
    7.0415  -17.4235   22.8638 C   0  0  0  0  0  0  0  0  0  0  0  0
    6.8621  -17.9718   23.9789 O   0  0  0  0  0  0  0  0  0  0  0  0
    8.3750  -17.2806   22.3954 N   0  0  0  0  0  0  0  0  0  0  0  0
    9.5456  -17.7361   23.1136 C   0  0  1  0  0  0  0  0  0  0  0  0
   10.6776  -18.1161   22.2023 C   0  0  0  0  0  0  0  0  0  0  0  0
   10.2490  -18.9864   21.0639 C   0  0  0  0  0  0  0  0  0  0  0  0
   11.2561  -18.9537   19.9723 C   0  0  0  0  0  0  0  0  0  0  0  0
   12.2877  -19.6720   19.9902 O   0  0  0  0  0  0  0  0  0  0  0  0
   10.0216  -16.6106   23.9746 C   0  0  0  0  0  0  0  0  0  0  0  0
   10.4828  -15.5728   23.4457 O   0  0  0  0  0  0  0  0  0  0  0  0
   11.0736  -18.1099   18.8859 O   0  0  0  0  0  0  0  0  0  0  0  0
    9.9723  -16.6686   25.3928 N   0  0  0  0  0  0  0  0  0  0  0  0
   10.6548  -15.7103   26.2609 C   0  0  1  0  0  0  0  0  0  0  0  0
   10.3368  -14.3065   25.8720 C   0  0  0  0  0  0  0  0  0  0  0  0
    8.9425  -13.9293   26.1600 C   0  0  0  0  0  0  0  0  0  0  0  0
    8.6454  -13.3660   27.3798 C   0  0  0  0  0  0  0  0  0  0  0  0
    7.3476  -12.9853   27.7121 C   0  0  0  0  0  0  0  0  0  0  0  0
    6.3513  -13.1887   26.7770 C   0  0  0  0  0  0  0  0  0  0  0  0
    6.6228  -13.7449   25.5630 C   0  0  0  0  0  0  0  0  0  0  0  0
    7.9234  -14.1172   25.2519 C   0  0  0  0  0  0  0  0  0  0  0  0
   10.3210  -15.9998   27.6713 C   0  0  0  0  0  0  0  0  0  0  0  0
   10.8955  -15.3747   28.7642 O   0  0  0  0  0  0  0  0  0  0  0  0
    9.4423  -16.8883   27.9571 O   0  0  0  0  0  0  0  0  0  0  0  0
  1  2  1  0
  2  4  1  0
  2  3  2  0
  4  5  1  0
  5  7  1  0
  5  6  1  6
  7  8  2  0
  9  7  1  0
  9 10  1  0
 10 11  1  6
 11 12  1  0
 12 13  1  0
 13 14  2  0
 13 17  1  0
 15 18  1  0
 15 10  1  0
 16 15  2  0
 19 27  1  0
 19 20  1  6
 19 18  1  0
 20 21  1  0
 21 26  2  0
 21 22  1  0
 22 23  2  0
 23 24  1  0
 25 24  2  0
 26 25  1  0
 27 28  1  0
 29 27  2  0
M  END
$$$$
