NEF.pdb
     RDKit          3D

 29 29  0  0  1  0  0  0  0  0999 V2000
    7.5355  -12.1424   18.2153 N   0  0  0  0  0  0  0  0  0  0  0  0
    7.6539  -13.5473   18.4059 C   0  0  0  0  0  0  0  0  0  0  0  0
    8.1100  -14.2531   17.4511 O   0  0  0  0  0  0  0  0  0  0  0  0
    7.2586  -14.1975   19.6864 C   0  0  0  0  0  0  0  0  0  0  0  0
    8.4260  -14.0910   20.6400 C   0  0  2  0  0  0  0  0  0  0  0  0
    9.6301  -14.2550   19.8559 N   0  0  0  0  0  0  0  0  0  0  0  0
    8.3372  -15.0713   21.7457 C   0  0  0  0  0  0  0  0  0  0  0  0
    7.2563  -15.1434   22.3802 O   0  0  0  0  0  0  0  0  0  0  0  0
    9.3984  -15.9333   22.1316 N   0  0  0  0  0  0  0  0  0  0  0  0
    9.3177  -16.8951   23.2096 C   0  0  1  0  0  0  0  0  0  0  0  0
   10.2442  -18.0621   23.0203 C   0  0  0  0  0  0  0  0  0  0  0  0
   11.5463  -17.6826   22.3897 C   0  0  0  0  0  0  0  0  0  0  0  0
   12.4140  -18.8767   22.2219 C   0  0  0  0  0  0  0  0  0  0  0  0
   12.8901  -19.5026   23.2027 O   0  0  0  0  0  0  0  0  0  0  0  0
    9.7202  -16.2031   24.4720 C   0  0  0  0  0  0  0  0  0  0  0  0
   10.7254  -15.4553   24.4800 O   0  0  0  0  0  0  0  0  0  0  0  0
   12.7230  -19.3357   20.9493 O   0  0  0  0  0  0  0  0  0  0  0  0
    8.9985  -16.3600   25.6850 N   0  0  0  0  0  0  0  0  0  0  0  0
    9.3976  -15.7343   26.9449 C   0  0  1  0  0  0  0  0  0  0  0  0
    8.2577  -15.0057   27.5718 C   0  0  0  0  0  0  0  0  0  0  0  0
    7.7681  -13.8845   26.7517 C   0  0  0  0  0  0  0  0  0  0  0  0
    8.4352  -12.6822   26.8046 C   0  0  0  0  0  0  0  0  0  0  0  0
    8.0243  -11.5849   26.0519 C   0  0  0  0  0  0  0  0  0  0  0  0
    6.9166  -11.7323   25.2397 C   0  0  0  0  0  0  0  0  0  0  0  0
    6.2408  -12.9137   25.1718 C   0  0  0  0  0  0  0  0  0  0  0  0
    6.6672  -13.9951   25.9304 C   0  0  0  0  0  0  0  0  0  0  0  0
    9.9805  -16.7567   27.8389 C   0  0  0  0  0  0  0  0  0  0  0  0
   10.0228  -18.1130   27.5673 O   0  0  0  0  0  0  0  0  0  0  0  0
   10.4960  -16.4140   28.9613 O   0  0  0  0  0  0  0  0  0  0  0  0
  1  2  1  0
  2  4  1  0
  2  3  2  0
  4  5  1  0
  5  7  1  0
  5  6  1  6
  7  8  2  0
  9  7  1  0
  9 10  1  0
 10 11  1  6
 11 12  1  0
 12 13  1  0
 13 14  2  0
 13 17  1  0
 15 18  1  0
 15 10  1  0
 16 15  2  0
 19 27  1  0
 19 20  1  1
 19 18  1  0
 20 21  1  0
 21 26  2  0
 21 22  1  0
 22 23  2  0
 23 24  1  0
 25 24  2  0
 26 25  1  0
 27 28  1  0
 29 27  2  0
M  END
$$$$
