NEF.pdb
     RDKit          3D

 29 29  0  0  1  0  0  0  0  0999 V2000
    8.3291  -12.3813   17.2916 N   0  0  0  0  0  0  0  0  0  0  0  0
    7.6869  -13.6328   17.5044 C   0  0  0  0  0  0  0  0  0  0  0  0
    7.6105  -14.4489   16.5317 O   0  0  0  0  0  0  0  0  0  0  0  0
    7.1102  -13.9994   18.8279 C   0  0  0  0  0  0  0  0  0  0  0  0
    8.2273  -14.5500   19.6837 C   0  0  2  0  0  0  0  0  0  0  0  0
    8.8735  -15.5927   18.9178 N   0  0  0  0  0  0  0  0  0  0  0  0
    7.7413  -15.0348   20.9952 C   0  0  0  0  0  0  0  0  0  0  0  0
    7.1605  -14.2128   21.7458 O   0  0  0  0  0  0  0  0  0  0  0  0
    7.8918  -16.3704   21.4551 N   0  0  0  0  0  0  0  0  0  0  0  0
    7.4058  -16.8546   22.7291 C   0  0  1  0  0  0  0  0  0  0  0  0
    7.0765  -18.3200   22.7087 C   0  0  0  0  0  0  0  0  0  0  0  0
    6.6236  -18.8392   24.0364 C   0  0  0  0  0  0  0  0  0  0  0  0
    6.3441  -20.2963   23.9605 C   0  0  0  0  0  0  0  0  0  0  0  0
    6.0467  -20.8665   22.8803 O   0  0  0  0  0  0  0  0  0  0  0  0
    8.4889  -16.6524   23.7394 C   0  0  0  0  0  0  0  0  0  0  0  0
    9.6862  -16.6204   23.3720 O   0  0  0  0  0  0  0  0  0  0  0  0
    6.4076  -21.0749   25.1074 O   0  0  0  0  0  0  0  0  0  0  0  0
    8.2134  -16.4921   25.1233 N   0  0  0  0  0  0  0  0  0  0  0  0
    9.2347  -16.1492   26.1120 C   0  0  1  0  0  0  0  0  0  0  0  0
    9.5784  -14.6995   26.0539 C   0  0  0  0  0  0  0  0  0  0  0  0
    8.4231  -13.8217   26.3071 C   0  0  0  0  0  0  0  0  0  0  0  0
    8.5919  -12.7169   27.1098 C   0  0  0  0  0  0  0  0  0  0  0  0
    7.5402  -11.8466   27.3856 C   0  0  0  0  0  0  0  0  0  0  0  0
    6.3066  -12.1209   26.8277 C   0  0  0  0  0  0  0  0  0  0  0  0
    6.1167  -13.2093   26.0299 C   0  0  0  0  0  0  0  0  0  0  0  0
    7.1785  -14.0640   25.7677 C   0  0  0  0  0  0  0  0  0  0  0  0
    8.7827  -16.5738   27.4535 C   0  0  0  0  0  0  0  0  0  0  0  0
    7.5615  -17.1650   27.7261 O   0  0  0  0  0  0  0  0  0  0  0  0
    9.5397  -16.4024   28.4737 O   0  0  0  0  0  0  0  0  0  0  0  0
  1  2  1  0
  2  4  1  0
  2  3  2  0
  4  5  1  0
  5  7  1  0
  5  6  1  6
  7  8  2  0
  9  7  1  0
  9 10  1  0
 10 11  1  6
 11 12  1  0
 12 13  1  0
 13 14  2  0
 13 17  1  0
 15 18  1  0
 15 10  1  0
 16 15  2  0
 19 27  1  0
 19 20  1  1
 19 18  1  0
 20 21  1  0
 21 26  2  0
 21 22  1  0
 22 23  2  0
 23 24  1  0
 25 24  2  0
 26 25  1  0
 27 28  1  0
 29 27  2  0
M  END
$$$$
