NEF.pdb
     RDKit          3D

 29 29  0  0  1  0  0  0  0  0999 V2000
    7.9129  -12.7301   17.0943 N   0  0  0  0  0  0  0  0  0  0  0  0
    8.5138  -13.6721   17.9749 C   0  0  0  0  0  0  0  0  0  0  0  0
    9.5152  -14.3377   17.5602 O   0  0  0  0  0  0  0  0  0  0  0  0
    7.9980  -13.8899   19.3552 C   0  0  0  0  0  0  0  0  0  0  0  0
    7.8578  -15.3793   19.5681 C   0  0  2  0  0  0  0  0  0  0  0  0
    6.8411  -15.8447   18.6509 N   0  0  0  0  0  0  0  0  0  0  0  0
    7.5433  -15.7170   20.9746 C   0  0  0  0  0  0  0  0  0  0  0  0
    6.9142  -14.8696   21.6546 O   0  0  0  0  0  0  0  0  0  0  0  0
    7.9093  -16.9387   21.6002 N   0  0  0  0  0  0  0  0  0  0  0  0
    7.5685  -17.2929   22.9612 C   0  0  1  0  0  0  0  0  0  0  0  0
    7.4559  -18.7766   23.1668 C   0  0  0  0  0  0  0  0  0  0  0  0
    7.2976  -19.1606   24.6037 C   0  0  0  0  0  0  0  0  0  0  0  0
    7.2468  -20.6383   24.7477 C   0  0  0  0  0  0  0  0  0  0  0  0
    8.1274  -21.3902   24.2581 O   0  0  0  0  0  0  0  0  0  0  0  0
    8.6634  -16.7987   23.8510 C   0  0  0  0  0  0  0  0  0  0  0  0
    9.8599  -16.9766   23.5251 O   0  0  0  0  0  0  0  0  0  0  0  0
    6.2019  -21.2316   25.4417 O   0  0  0  0  0  0  0  0  0  0  0  0
    8.4001  -16.1238   25.0725 N   0  0  0  0  0  0  0  0  0  0  0  0
    9.4471  -15.7209   26.0103 C   0  0  1  0  0  0  0  0  0  0  0  0
    9.7312  -14.2607   25.9088 C   0  0  0  0  0  0  0  0  0  0  0  0
    8.5661  -13.4216   26.2372 C   0  0  0  0  0  0  0  0  0  0  0  0
    7.6501  -13.1413   25.2494 C   0  0  0  0  0  0  0  0  0  0  0  0
    6.5264  -12.3565   25.4963 C   0  0  0  0  0  0  0  0  0  0  0  0
    6.3494  -11.8587   26.7726 C   0  0  0  0  0  0  0  0  0  0  0  0
    7.2438  -12.1235   27.7661 C   0  0  0  0  0  0  0  0  0  0  0  0
    8.3572  -12.9082   27.4987 C   0  0  0  0  0  0  0  0  0  0  0  0
    9.0677  -16.1333   27.3779 C   0  0  0  0  0  0  0  0  0  0  0  0
    9.8845  -16.0297   28.4902 O   0  0  0  0  0  0  0  0  0  0  0  0
    7.9083  -16.6312   27.6035 O   0  0  0  0  0  0  0  0  0  0  0  0
  1  2  1  0
  2  4  1  0
  2  3  2  0
  4  5  1  0
  5  7  1  0
  5  6  1  6
  7  8  2  0
  9  7  1  0
  9 10  1  0
 10 11  1  6
 11 12  1  0
 12 13  1  0
 13 14  2  0
 13 17  1  0
 15 18  1  0
 15 10  1  0
 16 15  2  0
 19 27  1  0
 19 20  1  1
 19 18  1  0
 20 21  1  0
 21 26  2  0
 21 22  1  0
 22 23  2  0
 23 24  1  0
 25 24  2  0
 26 25  1  0
 27 28  1  0
 29 27  2  0
M  END
$$$$
