NEF.pdb
     RDKit          3D

 29 29  0  0  1  0  0  0  0  0999 V2000
    7.8426  -12.1303   17.3206 N   0  0  0  0  0  0  0  0  0  0  0  0
    7.9152  -13.5437   17.4655 C   0  0  0  0  0  0  0  0  0  0  0  0
    8.3378  -14.2335   16.4839 O   0  0  0  0  0  0  0  0  0  0  0  0
    7.5106  -14.2209   18.7290 C   0  0  0  0  0  0  0  0  0  0  0  0
    8.7009  -14.2148   19.6598 C   0  0  2  0  0  0  0  0  0  0  0  0
    9.8522  -14.6090   18.8783 N   0  0  0  0  0  0  0  0  0  0  0  0
    8.4954  -15.0876   20.8376 C   0  0  0  0  0  0  0  0  0  0  0  0
    7.4776  -14.8879   21.5451 O   0  0  0  0  0  0  0  0  0  0  0  0
    9.3777  -16.1349   21.2152 N   0  0  0  0  0  0  0  0  0  0  0  0
    9.1952  -16.9765   22.3781 C   0  0  1  0  0  0  0  0  0  0  0  0
    9.7922  -18.3442   22.2074 C   0  0  0  0  0  0  0  0  0  0  0  0
    9.2731  -19.0663   21.0048 C   0  0  0  0  0  0  0  0  0  0  0  0
    9.9805  -20.3602   20.8257 C   0  0  0  0  0  0  0  0  0  0  0  0
   10.8842  -20.7445   21.6107 O   0  0  0  0  0  0  0  0  0  0  0  0
    9.8907  -16.3241   23.5294 C   0  0  0  0  0  0  0  0  0  0  0  0
   11.0260  -15.8197   23.3674 O   0  0  0  0  0  0  0  0  0  0  0  0
    9.6500  -21.1897   19.7635 O   0  0  0  0  0  0  0  0  0  0  0  0
    9.3086  -16.2504   24.8227 N   0  0  0  0  0  0  0  0  0  0  0  0
    9.9893  -15.6691   25.9788 C   0  0  1  0  0  0  0  0  0  0  0  0
    9.9036  -14.1806   25.9648 C   0  0  0  0  0  0  0  0  0  0  0  0
    8.5209  -13.6811   26.0532 C   0  0  0  0  0  0  0  0  0  0  0  0
    8.1940  -12.8068   27.0642 C   0  0  0  0  0  0  0  0  0  0  0  0
    6.9054  -12.2965   27.2008 C   0  0  0  0  0  0  0  0  0  0  0  0
    5.9493  -12.6932   26.2861 C   0  0  0  0  0  0  0  0  0  0  0  0
    6.2507  -13.5581   25.2771 C   0  0  0  0  0  0  0  0  0  0  0  0
    7.5415  -14.0549   25.1589 C   0  0  0  0  0  0  0  0  0  0  0  0
    9.4433  -16.2591   27.2190 C   0  0  0  0  0  0  0  0  0  0  0  0
    9.9389  -16.0269   28.4901 O   0  0  0  0  0  0  0  0  0  0  0  0
    8.4378  -17.0526   27.1677 O   0  0  0  0  0  0  0  0  0  0  0  0
  1  2  1  0
  2  4  1  0
  2  3  2  0
  4  5  1  0
  5  7  1  0
  5  6  1  6
  7  8  2  0
  9  7  1  0
  9 10  1  0
 10 11  1  6
 11 12  1  0
 12 13  1  0
 13 14  2  0
 13 17  1  0
 15 18  1  0
 15 10  1  0
 16 15  2  0
 19 27  1  0
 19 20  1  1
 19 18  1  0
 20 21  1  0
 21 26  2  0
 21 22  1  0
 22 23  2  0
 23 24  1  0
 25 24  2  0
 26 25  1  0
 27 28  1  0
 29 27  2  0
M  END
$$$$
