TVD.pdb
     RDKit          3D

 23 22  0  0  1  0  0  0  0  0999 V2000
   25.1422   -6.6809  -18.9655 C   0  0  0  0  0  0  0  0  0  0  0  0
   24.7310   -7.6584  -20.0497 C   0  0  1  0  0  0  0  0  0  0  0  0
   25.7384   -7.6695  -21.0214 O   0  0  0  0  0  0  0  0  0  0  0  0
   24.6861   -9.0481  -19.4290 C   0  0  2  0  0  0  0  0  0  0  0  0
   24.3558   -9.9833  -20.5044 N   0  0  0  0  0  0  0  0  0  0  0  0
   23.6193   -9.1422  -18.4088 C   0  0  0  0  0  0  0  0  0  0  0  0
   22.3890   -9.1830  -18.7314 O   0  0  0  0  0  0  0  0  0  0  0  0
   23.3648  -11.6835  -15.6862 C   0  0  0  0  0  0  0  0  0  0  0  0
   23.2544  -10.3575  -15.0068 C   0  0  2  0  0  0  0  0  0  0  0  0
   22.0838  -10.3383  -14.0256 C   0  0  0  0  0  0  0  0  0  0  0  0
   22.9698   -9.2769  -16.0320 C   0  0  2  0  0  0  0  0  0  0  0  0
   23.9816   -9.1875  -17.0387 N   0  0  0  0  0  0  0  0  0  0  0  0
   22.8478   -7.9404  -15.3801 C   0  0  0  0  0  0  0  0  0  0  0  0
   23.8852   -7.3508  -14.9155 O   0  0  0  0  0  0  0  0  0  0  0  0
   21.6354   -7.2394  -15.2246 N   0  0  0  0  0  0  0  0  0  0  0  0
   21.5773   -5.8678  -14.6755 C   0  0  1  0  0  0  0  0  0  0  0  0
   22.3912   -4.9532  -15.5455 C   0  0  0  0  0  0  0  0  0  0  0  0
   22.3206   -3.5794  -15.0759 C   0  0  0  0  0  0  0  0  0  0  0  0
   22.2356   -3.2762  -13.8827 O   0  0  0  0  0  0  0  0  0  0  0  0
   20.1702   -5.4140  -14.6988 C   0  0  0  0  0  0  0  0  0  0  0  0
   19.8325   -4.2832  -13.9467 O   0  0  0  0  0  0  0  0  0  0  0  0
   22.3484   -2.5227  -16.0105 O   0  0  0  0  0  0  0  0  0  0  0  0
   19.2891   -5.9695  -15.3357 O   0  0  0  0  0  0  0  0  0  0  0  0
  2  1  1  1
  2  3  1  0
  4  5  1  6
  4  2  1  0
  6  7  2  0
  6  4  1  0
  9  8  1  6
  9 11  1  0
 10  9  1  0
 11 12  1  6
 11 13  1  0
 12  6  1  0
 13 14  2  0
 13 15  1  0
 15 16  1  0
 16 20  1  0
 16 17  1  6
 18 17  1  0
 18 22  1  0
 19 18  2  0
 20 23  2  0
 20 21  1  0
M  END
$$$$
