TVD.pdb
     RDKit          3D

 23 22  0  0  1  0  0  0  0  0999 V2000
   18.9277   -9.7397  -19.0955 C   0  0  0  0  0  0  0  0  0  0  0  0
   18.0776  -10.8194  -18.4540 C   0  0  1  0  0  0  0  0  0  0  0  0
   17.4035  -11.4979  -19.4760 O   0  0  0  0  0  0  0  0  0  0  0  0
   19.0174  -11.8178  -17.7918 C   0  0  2  0  0  0  0  0  0  0  0  0
   18.1881  -12.9131  -17.2892 N   0  0  0  0  0  0  0  0  0  0  0  0
   19.7098  -11.2113  -16.6340 C   0  0  0  0  0  0  0  0  0  0  0  0
   19.0921  -10.9370  -15.5557 O   0  0  0  0  0  0  0  0  0  0  0  0
   23.1603  -12.3335  -15.1708 C   0  0  0  0  0  0  0  0  0  0  0  0
   23.2003  -10.8703  -15.4704 C   0  0  2  0  0  0  0  0  0  0  0  0
   23.8250  -10.0896  -14.3156 C   0  0  0  0  0  0  0  0  0  0  0  0
   21.7887  -10.3398  -15.6300 C   0  0  2  0  0  0  0  0  0  0  0  0
   21.0960  -10.9300  -16.7331 N   0  0  0  0  0  0  0  0  0  0  0  0
   21.7924   -8.8606  -15.8252 C   0  0  0  0  0  0  0  0  0  0  0  0
   22.2617   -8.3522  -16.9027 O   0  0  0  0  0  0  0  0  0  0  0  0
   21.3022   -7.9333  -14.8844 N   0  0  0  0  0  0  0  0  0  0  0  0
   21.3966   -6.4718  -15.0882 C   0  0  1  0  0  0  0  0  0  0  0  0
   20.0195   -5.9147  -15.3095 C   0  0  0  0  0  0  0  0  0  0  0  0
   20.0617   -4.4780  -15.5262 C   0  0  0  0  0  0  0  0  0  0  0  0
   21.0966   -3.8663  -15.8051 O   0  0  0  0  0  0  0  0  0  0  0  0
   21.9610   -5.8645  -13.8638 C   0  0  0  0  0  0  0  0  0  0  0  0
   22.4952   -4.5744  -13.9571 O   0  0  0  0  0  0  0  0  0  0  0  0
   18.8746   -3.7232  -15.4177 O   0  0  0  0  0  0  0  0  0  0  0  0
   21.9871   -6.4245  -12.7792 O   0  0  0  0  0  0  0  0  0  0  0  0
  2  1  1  6
  2  3  1  0
  4  5  1  1
  4  2  1  0
  6  7  2  0
  6  4  1  0
  9  8  1  1
  9 11  1  0
 10  9  1  0
 11 12  1  6
 11 13  1  0
 12  6  1  0
 13 14  2  0
 13 15  1  0
 15 16  1  0
 16 20  1  0
 16 17  1  1
 18 17  1  0
 18 22  1  0
 19 18  2  0
 20 23  2  0
 20 21  1  0
M  END
$$$$
