TVD.pdb
     RDKit          3D

 23 22  0  0  1  0  0  0  0  0999 V2000
   18.3088  -14.4670  -19.8281 C   0  0  0  0  0  0  0  0  0  0  0  0
   18.8402  -13.6456  -18.6693 C   0  0  1  0  0  0  0  0  0  0  0  0
   17.8133  -13.5199  -17.7265 O   0  0  0  0  0  0  0  0  0  0  0  0
   19.9615  -14.4396  -18.0132 C   0  0  2  0  0  0  0  0  0  0  0  0
   19.3581  -15.6552  -17.4669 N   0  0  0  0  0  0  0  0  0  0  0  0
   20.5579  -13.6892  -16.8867 C   0  0  0  0  0  0  0  0  0  0  0  0
   20.1357  -13.8282  -15.6943 O   0  0  0  0  0  0  0  0  0  0  0  0
   24.0467  -13.5622  -15.5728 C   0  0  0  0  0  0  0  0  0  0  0  0
   23.6983  -12.1700  -15.9884 C   0  0  2  0  0  0  0  0  0  0  0  0
   24.1645  -11.1530  -14.9483 C   0  0  0  0  0  0  0  0  0  0  0  0
   22.1919  -12.0238  -16.0830 C   0  0  2  0  0  0  0  0  0  0  0  0
   21.6259  -12.7937  -17.1470 N   0  0  0  0  0  0  0  0  0  0  0  0
   21.8051  -10.5976  -16.2887 C   0  0  0  0  0  0  0  0  0  0  0  0
   21.9251  -10.0554  -17.4425 O   0  0  0  0  0  0  0  0  0  0  0  0
   21.2963   -9.7581  -15.2778 N   0  0  0  0  0  0  0  0  0  0  0  0
   20.8759   -8.3652  -15.5409 C   0  0  1  0  0  0  0  0  0  0  0  0
   19.3867   -8.3272  -15.7327 C   0  0  0  0  0  0  0  0  0  0  0  0
   18.9206   -6.9703  -15.9657 C   0  0  0  0  0  0  0  0  0  0  0  0
   19.2914   -6.2826  -16.9209 O   0  0  0  0  0  0  0  0  0  0  0  0
   21.2218   -7.5418  -14.3624 C   0  0  0  0  0  0  0  0  0  0  0  0
   21.1718   -6.1498  -14.4966 O   0  0  0  0  0  0  0  0  0  0  0  0
   17.9990   -6.3881  -15.0698 O   0  0  0  0  0  0  0  0  0  0  0  0
   21.5481   -8.0076  -13.2820 O   0  0  0  0  0  0  0  0  0  0  0  0
  2  1  1  6
  2  3  1  0
  4  5  1  1
  4  2  1  0
  6  7  2  0
  6  4  1  0
  9  8  1  1
  9 11  1  0
 10  9  1  0
 11 12  1  6
 11 13  1  0
 12  6  1  0
 13 14  2  0
 13 15  1  0
 15 16  1  0
 16 20  1  0
 16 17  1  1
 18 17  1  0
 18 22  1  0
 19 18  2  0
 20 23  2  0
 20 21  1  0
M  END
$$$$
