TVD.pdb
     RDKit          3D

 23 22  0  0  1  0  0  0  0  0999 V2000
   17.7665  -10.9352  -19.8239 C   0  0  0  0  0  0  0  0  0  0  0  0
   18.3128  -10.2601  -18.5805 C   0  0  1  0  0  0  0  0  0  0  0  0
   17.2367   -9.6764  -17.9018 O   0  0  0  0  0  0  0  0  0  0  0  0
   18.8830  -11.3444  -17.6762 C   0  0  2  0  0  0  0  0  0  0  0  0
   17.7563  -12.1683  -17.2382 N   0  0  0  0  0  0  0  0  0  0  0  0
   19.5067  -10.7589  -16.4696 C   0  0  0  0  0  0  0  0  0  0  0  0
   18.8616  -10.6309  -15.3801 O   0  0  0  0  0  0  0  0  0  0  0  0
   22.7607  -11.7637  -14.7019 C   0  0  0  0  0  0  0  0  0  0  0  0
   22.8696  -10.3359  -15.1281 C   0  0  2  0  0  0  0  0  0  0  0  0
   23.4926   -9.4796  -14.0273 C   0  0  0  0  0  0  0  0  0  0  0  0
   21.4862   -9.7677  -15.3794 C   0  0  2  0  0  0  0  0  0  0  0  0
   20.8569  -10.3307  -16.5336 N   0  0  0  0  0  0  0  0  0  0  0  0
   21.5408   -8.2876  -15.5590 C   0  0  0  0  0  0  0  0  0  0  0  0
   22.1332   -7.7813  -16.5751 O   0  0  0  0  0  0  0  0  0  0  0  0
   20.9712   -7.3570  -14.6674 N   0  0  0  0  0  0  0  0  0  0  0  0
   21.0827   -5.8963  -14.8676 C   0  0  1  0  0  0  0  0  0  0  0  0
   19.7171   -5.2791  -14.7687 C   0  0  0  0  0  0  0  0  0  0  0  0
   19.7795   -3.8352  -14.9243 C   0  0  0  0  0  0  0  0  0  0  0  0
   19.2668   -3.0463  -14.1259 O   0  0  0  0  0  0  0  0  0  0  0  0
   21.9317   -5.3403  -13.7921 C   0  0  0  0  0  0  0  0  0  0  0  0
   22.5278   -4.0923  -14.0052 O   0  0  0  0  0  0  0  0  0  0  0  0
   20.4534   -3.2840  -16.0347 O   0  0  0  0  0  0  0  0  0  0  0  0
   22.1411   -5.9080  -12.7317 O   0  0  0  0  0  0  0  0  0  0  0  0
  2  1  1  6
  2  3  1  0
  4  5  1  1
  4  2  1  0
  6  7  2  0
  6  4  1  0
  9  8  1  1
  9 11  1  0
 10  9  1  0
 11 12  1  6
 11 13  1  0
 12  6  1  0
 13 14  2  0
 13 15  1  0
 15 16  1  0
 16 20  1  0
 16 17  1  1
 18 17  1  0
 18 22  1  0
 19 18  2  0
 20 23  2  0
 20 21  1  0
M  END
$$$$
