TVD.pdb
     RDKit          3D

 23 22  0  0  1  0  0  0  0  0999 V2000
   26.6876  -10.2879  -15.4023 C   0  0  0  0  0  0  0  0  0  0  0  0
   26.7267  -11.5222  -16.2828 C   0  0  1  0  0  0  0  0  0  0  0  0
   27.7841  -12.3279  -15.8446 O   0  0  0  0  0  0  0  0  0  0  0  0
   25.4388  -12.2999  -16.0491 C   0  0  2  0  0  0  0  0  0  0  0  0
   25.5309  -13.5237  -16.8453 N   0  0  0  0  0  0  0  0  0  0  0  0
   24.2631  -11.5406  -16.5276 C   0  0  0  0  0  0  0  0  0  0  0  0
   24.0331  -11.3786  -17.7687 O   0  0  0  0  0  0  0  0  0  0  0  0
   20.8081  -12.0953  -16.7074 C   0  0  0  0  0  0  0  0  0  0  0  0
   20.9271  -10.9331  -15.7760 C   0  0  2  0  0  0  0  0  0  0  0  0
   19.8280   -9.9049  -16.0368 C   0  0  0  0  0  0  0  0  0  0  0  0
   22.2441  -10.2190  -16.0112 C   0  0  2  0  0  0  0  0  0  0  0  0
   23.3733  -10.9810  -15.5759 N   0  0  0  0  0  0  0  0  0  0  0  0
   22.2735   -8.9053  -15.3045 C   0  0  0  0  0  0  0  0  0  0  0  0
   22.3878   -8.8595  -14.0300 O   0  0  0  0  0  0  0  0  0  0  0  0
   22.1823   -7.6547  -15.9472 N   0  0  0  0  0  0  0  0  0  0  0  0
   22.3084   -6.3761  -15.2155 C   0  0  1  0  0  0  0  0  0  0  0  0
   22.5345   -5.2645  -16.1999 C   0  0  0  0  0  0  0  0  0  0  0  0
   22.5731   -3.9725  -15.5351 C   0  0  0  0  0  0  0  0  0  0  0  0
   22.5975   -3.8439  -14.3080 O   0  0  0  0  0  0  0  0  0  0  0  0
   21.0411   -6.1211  -14.4975 C   0  0  0  0  0  0  0  0  0  0  0  0
   21.1130   -5.7533  -13.1492 O   0  0  0  0  0  0  0  0  0  0  0  0
   22.5833   -2.7925  -16.3086 O   0  0  0  0  0  0  0  0  0  0  0  0
   19.9387   -6.2137  -15.0140 O   0  0  0  0  0  0  0  0  0  0  0  0
  2  1  1  1
  2  3  1  0
  4  5  1  6
  4  2  1  0
  6  7  2  0
  6  4  1  0
  9  8  1  6
  9 11  1  0
 10  9  1  0
 11 12  1  1
 11 13  1  0
 12  6  1  0
 13 14  2  0
 13 15  1  0
 15 16  1  0
 16 20  1  0
 16 17  1  6
 18 17  1  0
 18 22  1  0
 19 18  2  0
 20 23  2  0
 20 21  1  0
M  END
$$$$
