TVD.pdb
     RDKit          3D

 23 22  0  0  1  0  0  0  0  0999 V2000
   20.9742   -9.5881  -19.7379 C   0  0  0  0  0  0  0  0  0  0  0  0
   20.3575  -10.8803  -19.2378 C   0  0  1  0  0  0  0  0  0  0  0  0
   19.8089  -11.5477  -20.3391 O   0  0  0  0  0  0  0  0  0  0  0  0
   21.4821  -11.7518  -18.6953 C   0  0  2  0  0  0  0  0  0  0  0  0
   20.8884  -13.0418  -18.3442 N   0  0  0  0  0  0  0  0  0  0  0  0
   22.0582  -11.1723  -17.4624 C   0  0  0  0  0  0  0  0  0  0  0  0
   21.3911  -11.1070  -16.3806 O   0  0  0  0  0  0  0  0  0  0  0  0
   25.7716  -11.5565  -15.9803 C   0  0  0  0  0  0  0  0  0  0  0  0
   25.4217  -10.1264  -16.2340 C   0  0  2  0  0  0  0  0  0  0  0  0
   25.8414   -9.2415  -15.0618 C   0  0  0  0  0  0  0  0  0  0  0  0
   23.9177   -9.9803  -16.3620 C   0  0  2  0  0  0  0  0  0  0  0  0
   23.3870  -10.6784  -17.4916 N   0  0  0  0  0  0  0  0  0  0  0  0
   23.5282   -8.5450  -16.4816 C   0  0  0  0  0  0  0  0  0  0  0  0
   23.8036   -7.8872  -17.5451 O   0  0  0  0  0  0  0  0  0  0  0  0
   22.8534   -7.8183  -15.4807 N   0  0  0  0  0  0  0  0  0  0  0  0
   22.4764   -6.3986  -15.6495 C   0  0  1  0  0  0  0  0  0  0  0  0
   21.0136   -6.3125  -15.9793 C   0  0  0  0  0  0  0  0  0  0  0  0
   20.5974   -4.9329  -16.1701 C   0  0  0  0  0  0  0  0  0  0  0  0
   21.3899   -4.0104  -16.3793 O   0  0  0  0  0  0  0  0  0  0  0  0
   22.7146   -5.6962  -14.3703 C   0  0  0  0  0  0  0  0  0  0  0  0
   22.6497   -4.2983  -14.3668 O   0  0  0  0  0  0  0  0  0  0  0  0
   19.2257   -4.6069  -16.1177 O   0  0  0  0  0  0  0  0  0  0  0  0
   22.9643   -6.2664  -13.3199 O   0  0  0  0  0  0  0  0  0  0  0  0
  2  1  1  6
  2  3  1  0
  4  5  1  1
  4  2  1  0
  6  7  2  0
  6  4  1  0
  9  8  1  1
  9 11  1  0
 10  9  1  0
 11 12  1  6
 11 13  1  0
 12  6  1  0
 13 14  2  0
 13 15  1  0
 15 16  1  0
 16 20  1  0
 16 17  1  1
 18 17  1  0
 18 22  1  0
 19 18  2  0
 20 23  2  0
 20 21  1  0
M  END
$$$$
