TVD.pdb
     RDKit          3D

 23 22  0  0  1  0  0  0  0  0999 V2000
   18.1096   -8.9025  -18.3124 C   0  0  0  0  0  0  0  0  0  0  0  0
   17.3835  -10.1276  -17.7909 C   0  0  1  0  0  0  0  0  0  0  0  0
   16.7106  -10.7176  -18.8672 O   0  0  0  0  0  0  0  0  0  0  0  0
   18.4338  -11.1219  -17.3147 C   0  0  2  0  0  0  0  0  0  0  0  0
   17.7140  -12.2908  -16.8089 N   0  0  0  0  0  0  0  0  0  0  0  0
   19.2271  -10.5652  -16.1973 C   0  0  0  0  0  0  0  0  0  0  0  0
   18.7445  -10.4577  -15.0247 O   0  0  0  0  0  0  0  0  0  0  0  0
   22.4676  -11.7636  -14.8144 C   0  0  0  0  0  0  0  0  0  0  0  0
   22.6907  -10.3510  -15.2470 C   0  0  2  0  0  0  0  0  0  0  0  0
   23.4969   -9.5779  -14.2051 C   0  0  0  0  0  0  0  0  0  0  0  0
   21.3594   -9.6359  -15.3733 C   0  0  2  0  0  0  0  0  0  0  0  0
   20.5577  -10.1419  -16.4439 N   0  0  0  0  0  0  0  0  0  0  0  0
   21.5569   -8.1738  -15.5954 C   0  0  0  0  0  0  0  0  0  0  0  0
   22.0375   -7.7476  -16.7032 O   0  0  0  0  0  0  0  0  0  0  0  0
   21.2463   -7.1769  -14.6494 N   0  0  0  0  0  0  0  0  0  0  0  0
   21.5199   -5.7437  -14.8889 C   0  0  1  0  0  0  0  0  0  0  0  0
   20.2251   -5.0331  -15.1613 C   0  0  0  0  0  0  0  0  0  0  0  0
   20.4360   -3.6066  -15.3446 C   0  0  0  0  0  0  0  0  0  0  0  0
   21.4632   -3.1328  -15.8378 O   0  0  0  0  0  0  0  0  0  0  0  0
   22.1245   -5.1723  -13.6664 C   0  0  0  0  0  0  0  0  0  0  0  0
   22.1476   -5.9648  -12.5133 O   0  0  0  0  0  0  0  0  0  0  0  0
   19.4322   -2.6985  -14.9465 O   0  0  0  0  0  0  0  0  0  0  0  0
   22.6031   -4.0506  -13.6073 O   0  0  0  0  0  0  0  0  0  0  0  0
  2  1  1  6
  2  3  1  0
  4  5  1  1
  4  2  1  0
  6  7  2  0
  6  4  1  0
  9  8  1  1
  9 11  1  0
 10  9  1  0
 11 12  1  6
 11 13  1  0
 12  6  1  0
 13 14  2  0
 13 15  1  0
 15 16  1  0
 16 20  1  0
 16 17  1  1
 18 17  1  0
 18 22  1  0
 19 18  2  0
 20 23  2  0
 20 21  1  0
M  END
$$$$
