STP.pdb
     RDKit          3D

 21 21  0  0  1  0  0  0  0  0999 V2000
   13.7967  -18.3707   21.2940 O   0  0  0  0  0  0  0  0  0  0  0  0
   13.1920  -17.3933   22.0572 C   0  0  0  0  0  0  0  0  0  0  0  0
   11.8579  -16.9908   21.4665 C   0  0  2  0  0  0  0  0  0  0  0  0
   12.1033  -16.4719   20.1344 N   0  0  0  0  0  0  0  0  0  0  0  0
   11.1145  -16.0631   22.3163 C   0  0  0  0  0  0  0  0  0  0  0  0
   11.2839  -14.8226   22.2163 O   0  0  0  0  0  0  0  0  0  0  0  0
    7.4389  -15.6076   22.8648 C   0  0  0  0  0  0  0  0  0  0  0  0
    8.0560  -16.1897   24.1448 C   0  0  1  0  0  0  0  0  0  0  0  0
    8.1217  -17.5632   23.9281 O   0  0  0  0  0  0  0  0  0  0  0  0
    9.5111  -15.6908   24.2471 C   0  0  2  0  0  0  0  0  0  0  0  0
   10.1992  -16.5393   23.2580 N   0  0  0  0  0  0  0  0  0  0  0  0
   10.0507  -15.9746   25.5992 C   0  0  0  0  0  0  0  0  0  0  0  0
   10.4705  -17.1489   25.8161 O   0  0  0  0  0  0  0  0  0  0  0  0
   10.1136  -14.9893   26.6446 N   0  0  0  0  0  0  0  0  0  0  0  0
    9.7327  -13.6033   26.5766 C   0  0  0  0  0  0  0  0  0  0  0  0
    9.1061  -13.3737   27.9560 C   0  0  0  0  0  0  0  0  0  0  0  0
   10.2065  -14.0322   28.8104 C   0  0  0  0  0  0  0  0  0  0  0  0
   10.5919  -15.2612   27.9774 C   0  0  1  0  0  0  0  0  0  0  0  0
    9.9830  -16.4762   28.5852 C   0  0  0  0  0  0  0  0  0  0  0  0
   10.4536  -16.9929   29.7734 O   0  0  0  0  0  0  0  0  0  0  0  0
    9.0304  -17.0276   27.9989 O   0  0  0  0  0  0  0  0  0  0  0  0
  1  2  1  0
  2  3  1  0
  3  4  1  6
  5  3  1  0
  6  5  2  0
  8  7  1  6
  8 10  1  0
  9  8  1  0
 10 12  1  0
 10 11  1  6
 11  5  1  0
 12 14  1  0
 13 12  2  0
 14 15  1  0
 14 18  1  0
 15 16  1  0
 16 17  1  0
 18 19  1  1
 18 17  1  0
 19 20  1  0
 21 19  2  0
M  END
$$$$
