STP.pdb
     RDKit          3D

 21 21  0  0  1  0  0  0  0  0999 V2000
   12.7607  -15.6215   15.3326 O   0  0  0  0  0  0  0  0  0  0  0  0
   12.3073  -16.9230   15.2699 C   0  0  0  0  0  0  0  0  0  0  0  0
   10.8798  -16.9773   14.7701 C   0  0  2  0  0  0  0  0  0  0  0  0
   10.8693  -16.4769   13.4086 N   0  0  0  0  0  0  0  0  0  0  0  0
    9.9417  -16.2786   15.6460 C   0  0  0  0  0  0  0  0  0  0  0  0
    9.5920  -15.0971   15.4021 O   0  0  0  0  0  0  0  0  0  0  0  0
    6.9929  -18.2273   16.9114 C   0  0  0  0  0  0  0  0  0  0  0  0
    7.6201  -17.5542   18.1408 C   0  0  1  0  0  0  0  0  0  0  0  0
    8.5634  -18.4618   18.6143 O   0  0  0  0  0  0  0  0  0  0  0  0
    8.4033  -16.3151   17.6634 C   0  0  2  0  0  0  0  0  0  0  0  0
    9.4150  -16.9126   16.7737 N   0  0  0  0  0  0  0  0  0  0  0  0
    9.0801  -15.6685   18.8139 C   0  0  0  0  0  0  0  0  0  0  0  0
   10.0528  -16.2906   19.3328 O   0  0  0  0  0  0  0  0  0  0  0  0
    8.6824  -14.3934   19.3463 N   0  0  0  0  0  0  0  0  0  0  0  0
    7.7240  -13.4685   18.8016 C   0  0  0  0  0  0  0  0  0  0  0  0
    7.0418  -12.9311   20.0641 C   0  0  0  0  0  0  0  0  0  0  0  0
    8.3086  -12.6347   20.8899 C   0  0  0  0  0  0  0  0  0  0  0  0
    9.2134  -13.8293   20.5624 C   0  0  1  0  0  0  0  0  0  0  0  0
    9.2026  -14.7812   21.7070 C   0  0  0  0  0  0  0  0  0  0  0  0
    8.4226  -15.9175   21.6838 O   0  0  0  0  0  0  0  0  0  0  0  0
    9.9166  -14.5347   22.6993 O   0  0  0  0  0  0  0  0  0  0  0  0
  1  2  1  0
  2  3  1  0
  3  4  1  6
  5  3  1  0
  6  5  2  0
  8  7  1  6
  8 10  1  0
  9  8  1  0
 10 12  1  0
 10 11  1  6
 11  5  1  0
 12 14  1  0
 13 12  2  0
 14 15  1  0
 14 18  1  0
 15 16  1  0
 16 17  1  0
 18 19  1  1
 18 17  1  0
 19 20  1  0
 21 19  2  0
M  END
$$$$
