STP.pdb
     RDKit          3D

 21 21  0  0  1  0  0  0  0  0999 V2000
   12.1265  -13.9453   19.2059 O   0  0  0  0  0  0  0  0  0  0  0  0
   11.2036  -13.5379   20.1470 C   0  0  0  0  0  0  0  0  0  0  0  0
    9.7974  -13.9021   19.7219 C   0  0  2  0  0  0  0  0  0  0  0  0
    9.5343  -13.2438   18.4564 N   0  0  0  0  0  0  0  0  0  0  0  0
    8.7968  -13.6024   20.7440 C   0  0  0  0  0  0  0  0  0  0  0  0
    8.0945  -12.5636   20.6715 O   0  0  0  0  0  0  0  0  0  0  0  0
    5.9919  -15.4456   21.2695 C   0  0  0  0  0  0  0  0  0  0  0  0
    6.6914  -15.5620   22.6316 C   0  0  1  0  0  0  0  0  0  0  0  0
    7.5784  -16.6266   22.4983 O   0  0  0  0  0  0  0  0  0  0  0  0
    7.5496  -14.2985   22.8410 C   0  0  2  0  0  0  0  0  0  0  0  0
    8.6021  -14.4674   21.8233 N   0  0  0  0  0  0  0  0  0  0  0  0
    8.1626  -14.3199   24.1914 C   0  0  0  0  0  0  0  0  0  0  0  0
    9.0971  -15.1514   24.3857 O   0  0  0  0  0  0  0  0  0  0  0  0
    7.7457  -13.4519   25.2592 N   0  0  0  0  0  0  0  0  0  0  0  0
    6.7525  -12.4115   25.2155 C   0  0  0  0  0  0  0  0  0  0  0  0
    6.0861  -12.5448   26.5889 C   0  0  0  0  0  0  0  0  0  0  0  0
    7.3636  -12.6251   27.4469 C   0  0  0  0  0  0  0  0  0  0  0  0
    8.2901  -13.5006   26.5934 C   0  0  1  0  0  0  0  0  0  0  0  0
    8.3288  -14.8751   27.1640 C   0  0  0  0  0  0  0  0  0  0  0  0
    9.0322  -15.1503   28.3170 O   0  0  0  0  0  0  0  0  0  0  0  0
    7.7095  -15.7856   26.5786 O   0  0  0  0  0  0  0  0  0  0  0  0
  1  2  1  0
  2  3  1  0
  3  4  1  6
  5  3  1  0
  6  5  2  0
  8  7  1  6
  8 10  1  0
  9  8  1  0
 10 12  1  0
 10 11  1  6
 11  5  1  0
 12 14  1  0
 13 12  2  0
 14 15  1  0
 14 18  1  0
 15 16  1  0
 16 17  1  0
 18 19  1  1
 18 17  1  0
 19 20  1  0
 21 19  2  0
M  END
$$$$
