STP.pdb
     RDKit          3D

 21 21  0  0  1  0  0  0  0  0999 V2000
    5.6086  -20.2483   19.6643 O   0  0  0  0  0  0  0  0  0  0  0  0
    5.8716  -18.9421   19.3063 C   0  0  0  0  0  0  0  0  0  0  0  0
    6.9058  -18.8791   18.2030 C   0  0  2  0  0  0  0  0  0  0  0  0
    6.4258  -19.6911   17.1011 N   0  0  0  0  0  0  0  0  0  0  0  0
    8.2441  -19.2555   18.6534 C   0  0  0  0  0  0  0  0  0  0  0  0
    8.6326  -20.4482   18.5890 O   0  0  0  0  0  0  0  0  0  0  0  0
   11.6039  -18.8808   17.5091 C   0  0  0  0  0  0  0  0  0  0  0  0
   11.3801  -17.9085   18.6763 C   0  0  1  0  0  0  0  0  0  0  0  0
   10.6556  -16.8492   18.1370 O   0  0  0  0  0  0  0  0  0  0  0  0
   10.4573  -18.5943   19.7033 C   0  0  2  0  0  0  0  0  0  0  0  0
    9.1185  -18.2940   19.1652 N   0  0  0  0  0  0  0  0  0  0  0  0
   10.6096  -17.9511   21.0311 C   0  0  0  0  0  0  0  0  0  0  0  0
   10.5065  -16.6903   21.0746 O   0  0  0  0  0  0  0  0  0  0  0  0
   10.8623  -18.6891   22.2391 N   0  0  0  0  0  0  0  0  0  0  0  0
   11.0499  -20.1083   22.3846 C   0  0  0  0  0  0  0  0  0  0  0  0
   12.1377  -20.1804   23.4614 C   0  0  0  0  0  0  0  0  0  0  0  0
   11.5255  -19.1796   24.4605 C   0  0  0  0  0  0  0  0  0  0  0  0
   10.9683  -18.0836   23.5433 C   0  0  1  0  0  0  0  0  0  0  0  0
   11.8806  -16.9075   23.5743 C   0  0  0  0  0  0  0  0  0  0  0  0
   12.7711  -16.6670   22.5500 O   0  0  0  0  0  0  0  0  0  0  0  0
   11.8285  -16.1331   24.5504 O   0  0  0  0  0  0  0  0  0  0  0  0
  1  2  1  0
  2  3  1  0
  3  4  1  6
  5  3  1  0
  6  5  2  0
  8  7  1  6
  8 10  1  0
  9  8  1  0
 10 12  1  0
 10 11  1  6
 11  5  1  0
 12 14  1  0
 13 12  2  0
 14 15  1  0
 14 18  1  0
 15 16  1  0
 16 17  1  0
 18 19  1  6
 18 17  1  0
 19 20  1  0
 21 19  2  0
M  END
$$$$
