STP.pdb
     RDKit          3D

 21 21  0  0  1  0  0  0  0  0999 V2000
   13.1986  -14.6651   21.3399 O   0  0  0  0  0  0  0  0  0  0  0  0
   12.2547  -15.6648   21.2263 C   0  0  0  0  0  0  0  0  0  0  0  0
   11.1255  -15.2441   20.3105 C   0  0  2  0  0  0  0  0  0  0  0  0
   11.7161  -14.6934   19.1055 N   0  0  0  0  0  0  0  0  0  0  0  0
   10.1785  -14.3352   20.9530 C   0  0  0  0  0  0  0  0  0  0  0  0
   10.2396  -13.0965   20.7539 O   0  0  0  0  0  0  0  0  0  0  0  0
    6.7427  -13.9055   20.5101 C   0  0  0  0  0  0  0  0  0  0  0  0
    6.8717  -14.4633   21.9349 C   0  0  1  0  0  0  0  0  0  0  0  0
    6.9776  -15.8427   21.7804 O   0  0  0  0  0  0  0  0  0  0  0  0
    8.2144  -13.9822   22.5200 C   0  0  2  0  0  0  0  0  0  0  0  0
    9.1850  -14.8278   21.8025 N   0  0  0  0  0  0  0  0  0  0  0  0
    8.2740  -14.2868   23.9704 C   0  0  0  0  0  0  0  0  0  0  0  0
    8.7793  -15.3984   24.3043 O   0  0  0  0  0  0  0  0  0  0  0  0
    7.7923  -13.3880   24.9841 N   0  0  0  0  0  0  0  0  0  0  0  0
    7.1098  -12.1344   24.8016 C   0  0  0  0  0  0  0  0  0  0  0  0
    6.0858  -12.1565   25.9413 C   0  0  0  0  0  0  0  0  0  0  0  0
    7.0323  -12.5842   27.0797 C   0  0  0  0  0  0  0  0  0  0  0  0
    7.9314  -13.6245   26.3996 C   0  0  1  0  0  0  0  0  0  0  0  0
    7.5029  -14.9887   26.8138 C   0  0  0  0  0  0  0  0  0  0  0  0
    6.7458  -15.7836   25.9801 O   0  0  0  0  0  0  0  0  0  0  0  0
    7.8415  -15.4086   27.9382 O   0  0  0  0  0  0  0  0  0  0  0  0
  1  2  1  0
  2  3  1  0
  3  4  1  6
  5  3  1  0
  6  5  2  0
  8  7  1  6
  8 10  1  0
  9  8  1  0
 10 12  1  0
 10 11  1  6
 11  5  1  0
 12 14  1  0
 13 12  2  0
 14 15  1  0
 14 18  1  0
 15 16  1  0
 16 17  1  0
 18 19  1  6
 18 17  1  0
 19 20  1  0
 21 19  2  0
M  END
$$$$
