STP.pdb
     RDKit          3D

 21 21  0  0  1  0  0  0  0  0999 V2000
   13.0747  -14.4988   19.6983 O   0  0  0  0  0  0  0  0  0  0  0  0
   12.1717  -14.6943   20.7229 C   0  0  0  0  0  0  0  0  0  0  0  0
   10.8366  -15.1654   20.1878 C   0  0  2  0  0  0  0  0  0  0  0  0
   10.8128  -14.8974   18.7625 N   0  0  0  0  0  0  0  0  0  0  0  0
    9.6999  -14.5858   20.9002 C   0  0  0  0  0  0  0  0  0  0  0  0
    9.0377  -13.6445   20.3971 O   0  0  0  0  0  0  0  0  0  0  0  0
    6.7167  -15.6468   21.1790 C   0  0  0  0  0  0  0  0  0  0  0  0
    7.1259  -15.7049   22.6579 C   0  0  1  0  0  0  0  0  0  0  0  0
    7.8023  -16.9128   22.8039 O   0  0  0  0  0  0  0  0  0  0  0  0
    8.1583  -14.5892   22.9154 C   0  0  2  0  0  0  0  0  0  0  0  0
    9.3273  -15.0686   22.1569 N   0  0  0  0  0  0  0  0  0  0  0  0
    8.4966  -14.5344   24.3584 C   0  0  0  0  0  0  0  0  0  0  0  0
    9.3003  -15.4098   24.7944 O   0  0  0  0  0  0  0  0  0  0  0  0
    7.9597  -13.5477   25.2561 N   0  0  0  0  0  0  0  0  0  0  0  0
    6.9397  -12.5693   24.9859 C   0  0  0  0  0  0  0  0  0  0  0  0
    6.1616  -12.5427   26.3058 C   0  0  0  0  0  0  0  0  0  0  0  0
    7.3619  -12.4464   27.2674 C   0  0  0  0  0  0  0  0  0  0  0  0
    8.3877  -13.3880   26.6236 C   0  0  1  0  0  0  0  0  0  0  0  0
    8.4229  -14.6679   27.3832 C   0  0  0  0  0  0  0  0  0  0  0  0
    9.0776  -14.7632   28.5924 O   0  0  0  0  0  0  0  0  0  0  0  0
    7.8457  -15.6650   26.9060 O   0  0  0  0  0  0  0  0  0  0  0  0
  1  2  1  0
  2  3  1  0
  3  4  1  6
  5  3  1  0
  6  5  2  0
  8  7  1  6
  8 10  1  0
  9  8  1  0
 10 12  1  0
 10 11  1  6
 11  5  1  0
 12 14  1  0
 13 12  2  0
 14 15  1  0
 14 18  1  0
 15 16  1  0
 16 17  1  0
 18 19  1  1
 18 17  1  0
 19 20  1  0
 21 19  2  0
M  END
$$$$
