STP.pdb
     RDKit          3D

 21 21  0  0  1  0  0  0  0  0999 V2000
   11.2866  -15.3725   12.5365 O   0  0  0  0  0  0  0  0  0  0  0  0
   10.4178  -15.0220   13.5494 C   0  0  0  0  0  0  0  0  0  0  0  0
    9.4032  -16.1172   13.7978 C   0  0  2  0  0  0  0  0  0  0  0  0
    8.6220  -16.2786   12.5863 N   0  0  0  0  0  0  0  0  0  0  0  0
    8.5822  -15.8761   14.9826 C   0  0  0  0  0  0  0  0  0  0  0  0
    7.5360  -15.1849   14.9103 O   0  0  0  0  0  0  0  0  0  0  0  0
    7.1153  -18.4302   16.7296 C   0  0  0  0  0  0  0  0  0  0  0  0
    7.9157  -17.7484   17.8488 C   0  0  1  0  0  0  0  0  0  0  0  0
    9.1650  -18.3622   17.8321 O   0  0  0  0  0  0  0  0  0  0  0  0
    8.1436  -16.2770   17.4492 C   0  0  2  0  0  0  0  0  0  0  0  0
    8.9462  -16.4110   16.2206 N   0  0  0  0  0  0  0  0  0  0  0  0
    8.9462  -15.5876   18.4887 C   0  0  0  0  0  0  0  0  0  0  0  0
   10.1246  -16.0090   18.6789 O   0  0  0  0  0  0  0  0  0  0  0  0
    8.4474  -14.4860   19.2667 N   0  0  0  0  0  0  0  0  0  0  0  0
    7.1902  -13.8008   19.1235 C   0  0  0  0  0  0  0  0  0  0  0  0
    6.8058  -13.5257   20.5812 C   0  0  0  0  0  0  0  0  0  0  0  0
    8.1591  -12.9698   21.0649 C   0  0  0  0  0  0  0  0  0  0  0  0
    9.1713  -13.8785   20.3557 C   0  0  1  0  0  0  0  0  0  0  0  0
    9.7092  -14.8675   21.3298 C   0  0  0  0  0  0  0  0  0  0  0  0
   10.6474  -14.5045   22.2721 O   0  0  0  0  0  0  0  0  0  0  0  0
    9.2954  -16.0430   21.2821 O   0  0  0  0  0  0  0  0  0  0  0  0
  1  2  1  0
  2  3  1  0
  3  4  1  6
  5  3  1  0
  6  5  2  0
  8  7  1  6
  8 10  1  0
  9  8  1  0
 10 12  1  0
 10 11  1  6
 11  5  1  0
 12 14  1  0
 13 12  2  0
 14 15  1  0
 14 18  1  0
 15 16  1  0
 16 17  1  0
 18 19  1  1
 18 17  1  0
 19 20  1  0
 21 19  2  0
M  END
$$$$
