EMM.pdb
     RDKit          3D

 26 25  0  0  1  0  0  0  0  0999 V2000
   27.3094  -19.9266  -16.1704 N   0  0  0  0  0  0  0  0  0  0  0  0
   26.7998  -21.2695  -16.2568 C   0  0  1  0  0  0  0  0  0  0  0  0
   27.9080  -22.2758  -16.3770 C   0  0  0  0  0  0  0  0  0  0  0  0
   28.7957  -21.9226  -17.5323 C   0  0  0  0  0  0  0  0  0  0  0  0
   29.8779  -22.9132  -17.6657 C   0  0  0  0  0  0  0  0  0  0  0  0
   30.8471  -22.7902  -18.4837 O   0  0  0  0  0  0  0  0  0  0  0  0
   25.9918  -21.5988  -15.0358 C   0  0  0  0  0  0  0  0  0  0  0  0
   25.3405  -22.6412  -15.0370 O   0  0  0  0  0  0  0  0  0  0  0  0
   29.8946  -24.0623  -16.8831 O   0  0  0  0  0  0  0  0  0  0  0  0
   24.7818  -20.8943   -7.2346 C   0  0  0  0  0  0  0  0  0  0  0  0
   25.6941  -20.4612   -8.7163 S   0  0  0  0  0  0  0  0  0  0  0  0
   24.8432  -20.9556  -10.2430 C   0  0  0  0  0  0  0  0  0  0  0  0
   25.7054  -20.6322  -11.4313 C   0  0  0  0  0  0  0  0  0  0  0  0
   25.1322  -21.0356  -12.7388 C   0  0  2  0  0  0  0  0  0  0  0  0
   25.9549  -20.7543  -13.8907 N   0  0  0  0  0  0  0  0  0  0  0  0
   23.7165  -20.6084  -12.9466 C   0  0  0  0  0  0  0  0  0  0  0  0
   23.3371  -19.4108  -12.9568 O   0  0  0  0  0  0  0  0  0  0  0  0
   19.6217  -23.8802  -16.7053 C   0  0  0  0  0  0  0  0  0  0  0  0
   18.4115  -23.1970  -15.5296 S   0  0  0  0  0  0  0  0  0  0  0  0
   19.1767  -21.9002  -14.5286 C   0  0  0  0  0  0  0  0  0  0  0  0
   20.5886  -22.3031  -14.1661 C   0  0  0  0  0  0  0  0  0  0  0  0
   21.2944  -21.2208  -13.3791 C   0  0  2  0  0  0  0  0  0  0  0  0
   22.6974  -21.5825  -13.1521 N   0  0  0  0  0  0  0  0  0  0  0  0
   20.6003  -20.8374  -12.1535 C   0  0  0  0  0  0  0  0  0  0  0  0
   20.5593  -21.6970  -11.0739 O   0  0  0  0  0  0  0  0  0  0  0  0
   20.0300  -19.7293  -12.0524 O   0  0  0  0  0  0  0  0  0  0  0  0
  2  1  1  1
  2  7  1  0
  3  2  1  0
  4  3  1  0
  4  5  1  0
  5  9  1  0
  5  6  2  0
  7  8  2  0
  7 15  1  0
 10 11  1  0
 11 12  1  0
 13 12  1  0
 14 13  1  1
 15 14  1  0
 16 14  1  0
 16 17  2  0
 18 19  1  0
 19 20  1  0
 20 21  1  0
 22 21  1  1
 22 23  1  0
 23 16  1  0
 24 22  1  0
 25 24  1  0
 26 24  2  0
M  END
$$$$
