YTM.pdb
     RDKit          3D

 28 28  0  0  1  0  0  0  0  0999 V2000
   27.9641  -19.9021   -3.9328 O   0  0  0  0  0  0  0  0  0  0  0  0
   27.8818  -19.8425   -5.3267 C   0  0  0  0  0  0  0  0  0  0  0  0
   27.2272  -20.8141   -6.0507 C   0  0  0  0  0  0  0  0  0  0  0  0
   27.1391  -20.7675   -7.4207 C   0  0  0  0  0  0  0  0  0  0  0  0
   27.7120  -19.7332   -8.1067 C   0  0  0  0  0  0  0  0  0  0  0  0
   27.6003  -19.7096   -9.5849 C   0  0  0  0  0  0  0  0  0  0  0  0
   27.2144  -21.0768  -10.1320 C   0  0  2  0  0  0  0  0  0  0  0  0
   28.4008  -21.8390  -10.2950 N   0  0  0  0  0  0  0  0  0  0  0  0
   26.4491  -20.8522  -11.3648 C   0  0  0  0  0  0  0  0  0  0  0  0
   27.0412  -20.3344  -12.3460 O   0  0  0  0  0  0  0  0  0  0  0  0
   28.3754  -18.7411   -7.4246 C   0  0  0  0  0  0  0  0  0  0  0  0
   28.4462  -18.8155   -6.0582 C   0  0  0  0  0  0  0  0  0  0  0  0
   25.1629  -23.2275  -13.6531 C   0  0  0  0  0  0  0  0  0  0  0  0
   23.9742  -22.3641  -13.2926 C   0  0  1  0  0  0  0  0  0  0  0  0
   23.2563  -22.9387  -12.2232 O   0  0  0  0  0  0  0  0  0  0  0  0
   24.4118  -20.9986  -12.8112 C   0  0  2  0  0  0  0  0  0  0  0  0
   25.0790  -21.1780  -11.5363 N   0  0  0  0  0  0  0  0  0  0  0  0
   23.1926  -20.1685  -12.6336 C   0  0  0  0  0  0  0  0  0  0  0  0
   22.6819  -19.9698  -11.4985 O   0  0  0  0  0  0  0  0  0  0  0  0
   20.8930  -15.8206  -17.1523 C   0  0  0  0  0  0  0  0  0  0  0  0
   19.3866  -16.6013  -16.4882 S   0  0  0  0  0  0  0  0  0  0  0  0
   19.8071  -17.4128  -14.9375 C   0  0  0  0  0  0  0  0  0  0  0  0
   21.1091  -18.2063  -15.0369 C   0  0  0  0  0  0  0  0  0  0  0  0
   21.3446  -18.7894  -13.6550 C   0  0  2  0  0  0  0  0  0  0  0  0
   22.5709  -19.5743  -13.7573 N   0  0  0  0  0  0  0  0  0  0  0  0
   20.2429  -19.6956  -13.2390 C   0  0  0  0  0  0  0  0  0  0  0  0
   19.3517  -19.2631  -12.4799 O   0  0  0  0  0  0  0  0  0  0  0  0
   20.1602  -21.0156  -13.6618 O   0  0  0  0  0  0  0  0  0  0  0  0
  2  1  1  0
  3  2  2  0
  4  3  1  0
  5  4  2  0
  5 11  1  0
  6  5  1  0
  7  6  1  0
  7  9  1  0
  7  8  1  6
  9 10  2  0
 11 12  2  0
 12  2  1  0
 14 13  1  1
 14 16  1  0
 15 14  1  0
 16 17  1  1
 17  9  1  0
 18 16  1  0
 18 19  2  0
 20 21  1  0
 22 21  1  0
 22 23  1  0
 24 23  1  6
 24 25  1  0
 24 26  1  0
 25 18  1  0
 26 28  1  0
 27 26  2  0
M  END
$$$$
