YTM.pdb
     RDKit          3D

 28 28  0  0  1  0  0  0  0  0999 V2000
   18.4321  -15.0055  -18.1089 O   0  0  0  0  0  0  0  0  0  0  0  0
   19.0367  -15.9173  -17.2393 C   0  0  0  0  0  0  0  0  0  0  0  0
   20.1898  -15.6024  -16.5552 C   0  0  0  0  0  0  0  0  0  0  0  0
   20.7942  -16.4893  -15.6978 C   0  0  0  0  0  0  0  0  0  0  0  0
   20.2508  -17.7284  -15.5029 C   0  0  0  0  0  0  0  0  0  0  0  0
   20.9253  -18.6640  -14.5713 C   0  0  0  0  0  0  0  0  0  0  0  0
   22.1273  -19.3279  -15.2286 C   0  0  2  0  0  0  0  0  0  0  0  0
   21.6719  -20.0340  -16.3727 N   0  0  0  0  0  0  0  0  0  0  0  0
   22.7782  -20.1585  -14.2075 C   0  0  0  0  0  0  0  0  0  0  0  0
   22.1864  -21.1989  -13.8218 O   0  0  0  0  0  0  0  0  0  0  0  0
   19.1003  -18.0853  -16.1652 C   0  0  0  0  0  0  0  0  0  0  0  0
   18.5209  -17.1789  -17.0138 C   0  0  0  0  0  0  0  0  0  0  0  0
   25.0267  -22.3074  -14.8846 C   0  0  0  0  0  0  0  0  0  0  0  0
   25.7406  -21.5411  -13.7930 C   0  0  1  0  0  0  0  0  0  0  0  0
   26.5110  -20.4984  -14.3484 O   0  0  0  0  0  0  0  0  0  0  0  0
   24.7582  -20.8758  -12.8551 C   0  0  2  0  0  0  0  0  0  0  0  0
   24.0364  -19.8749  -13.6166 N   0  0  0  0  0  0  0  0  0  0  0  0
   25.5370  -20.2243  -11.7706 C   0  0  0  0  0  0  0  0  0  0  0  0
   25.2735  -19.0589  -11.3693 O   0  0  0  0  0  0  0  0  0  0  0  0
   27.0579  -20.6108   -5.3236 C   0  0  0  0  0  0  0  0  0  0  0  0
   26.8023  -19.1282   -6.3514 S   0  0  0  0  0  0  0  0  0  0  0  0
   27.6124  -19.3929   -7.9369 C   0  0  0  0  0  0  0  0  0  0  0  0
   26.6490  -19.9319   -8.9933 C   0  0  0  0  0  0  0  0  0  0  0  0
   27.5071  -20.2787  -10.1969 C   0  0  2  0  0  0  0  0  0  0  0  0
   26.6094  -20.9139  -11.1566 N   0  0  0  0  0  0  0  0  0  0  0  0
   28.5826  -21.2446   -9.8529 C   0  0  0  0  0  0  0  0  0  0  0  0
   29.5675  -20.8512   -9.1950 O   0  0  0  0  0  0  0  0  0  0  0  0
   28.5400  -22.5788  -10.2349 O   0  0  0  0  0  0  0  0  0  0  0  0
  2  1  1  0
  3  2  2  0
  4  3  1  0
  5  4  2  0
  5 11  1  0
  6  5  1  0
  7  6  1  0
  7  9  1  0
  7  8  1  6
  9 10  2  0
 11 12  2  0
 12  2  1  0
 14 13  1  6
 14 16  1  0
 15 14  1  0
 16 17  1  6
 17  9  1  0
 18 16  1  0
 18 19  2  0
 20 21  1  0
 22 21  1  0
 22 23  1  0
 24 23  1  1
 24 25  1  0
 24 26  1  0
 25 18  1  0
 26 28  1  0
 27 26  2  0
M  END
$$$$
