YTM.pdb
     RDKit          3D

 28 28  0  0  1  0  0  0  0  0999 V2000
   18.9039  -16.3894  -15.9722 O   0  0  0  0  0  0  0  0  0  0  0  0
   19.6837  -17.3729  -15.3576 C   0  0  0  0  0  0  0  0  0  0  0  0
   19.1805  -18.6268  -15.0905 C   0  0  0  0  0  0  0  0  0  0  0  0
   19.9362  -19.6023  -14.4869 C   0  0  0  0  0  0  0  0  0  0  0  0
   21.2303  -19.3415  -14.1321 C   0  0  0  0  0  0  0  0  0  0  0  0
   22.0213  -20.4142  -13.4825 C   0  0  0  0  0  0  0  0  0  0  0  0
   23.2377  -20.7873  -14.3184 C   0  0  2  0  0  0  0  0  0  0  0  0
   22.8067  -21.6341  -15.3731 N   0  0  0  0  0  0  0  0  0  0  0  0
   24.2240  -21.3846  -13.4093 C   0  0  0  0  0  0  0  0  0  0  0  0
   24.2136  -22.6330  -13.2582 O   0  0  0  0  0  0  0  0  0  0  0  0
   21.7737  -18.1034  -14.3798 C   0  0  0  0  0  0  0  0  0  0  0  0
   20.9949  -17.1511  -14.9833 C   0  0  0  0  0  0  0  0  0  0  0  0
   27.9012  -21.3595  -13.5978 C   0  0  0  0  0  0  0  0  0  0  0  0
   27.5341  -20.8571  -12.2189 C   0  0  1  0  0  0  0  0  0  0  0  0
   27.4888  -19.4475  -12.2058 O   0  0  0  0  0  0  0  0  0  0  0  0
   26.1520  -21.3195  -11.8146 C   0  0  2  0  0  0  0  0  0  0  0  0
   25.1980  -20.6543  -12.6808 N   0  0  0  0  0  0  0  0  0  0  0  0
   25.9305  -20.9074  -10.4046 C   0  0  0  0  0  0  0  0  0  0  0  0
   25.0609  -20.0509  -10.0900 O   0  0  0  0  0  0  0  0  0  0  0  0
   28.3233  -21.2282   -4.3685 C   0  0  0  0  0  0  0  0  0  0  0  0
   28.9802  -19.8705   -5.3908 S   0  0  0  0  0  0  0  0  0  0  0  0
   28.6995  -20.2791   -7.1213 C   0  0  0  0  0  0  0  0  0  0  0  0
   27.8467  -21.5363   -7.2855 C   0  0  0  0  0  0  0  0  0  0  0  0
   26.5702  -21.0834   -7.9715 C   0  0  2  0  0  0  0  0  0  0  0  0
   26.7067  -21.4803   -9.3694 N   0  0  0  0  0  0  0  0  0  0  0  0
   26.4044  -19.6077   -7.9187 C   0  0  0  0  0  0  0  0  0  0  0  0
   26.9446  -18.9019   -8.7949 O   0  0  0  0  0  0  0  0  0  0  0  0
   25.6676  -18.9727   -6.9278 O   0  0  0  0  0  0  0  0  0  0  0  0
  2  1  1  0
  3  2  2  0
  4  3  1  0
  5  4  2  0
  5 11  1  0
  6  5  1  0
  7  6  1  0
  7  9  1  0
  7  8  1  6
  9 10  2  0
 11 12  2  0
 12  2  1  0
 14 13  1  6
 14 16  1  0
 15 14  1  0
 16 17  1  6
 17  9  1  0
 18 16  1  0
 18 19  2  0
 20 21  1  0
 22 21  1  0
 22 23  1  0
 24 23  1  1
 24 25  1  0
 24 26  1  0
 25 18  1  0
 26 28  1  0
 27 26  2  0
M  END
$$$$
