YTM.pdb
     RDKit          3D

 28 28  0  0  1  0  0  0  0  0999 V2000
   27.4146  -21.7004   -7.7730 O   0  0  0  0  0  0  0  0  0  0  0  0
   27.2712  -21.2658   -9.0935 C   0  0  0  0  0  0  0  0  0  0  0  0
   26.0314  -21.0097   -9.6357 C   0  0  0  0  0  0  0  0  0  0  0  0
   25.8766  -20.5822  -10.9319 C   0  0  0  0  0  0  0  0  0  0  0  0
   26.9742  -20.3988  -11.7259 C   0  0  0  0  0  0  0  0  0  0  0  0
   26.7759  -19.9364  -13.1205 C   0  0  0  0  0  0  0  0  0  0  0  0
   26.1798  -21.0362  -13.9880 C   0  0  2  0  0  0  0  0  0  0  0  0
   27.2337  -21.6404  -14.7224 N   0  0  0  0  0  0  0  0  0  0  0  0
   25.1276  -20.4220  -14.8075 C   0  0  0  0  0  0  0  0  0  0  0  0
   25.4467  -19.9498  -15.9284 O   0  0  0  0  0  0  0  0  0  0  0  0
   28.2313  -20.6424  -11.2259 C   0  0  0  0  0  0  0  0  0  0  0  0
   28.3533  -21.0679   -9.9291 C   0  0  0  0  0  0  0  0  0  0  0  0
   23.9174  -21.2563  -17.1057 C   0  0  0  0  0  0  0  0  0  0  0  0
   22.6028  -20.9837  -16.4085 C   0  0  1  0  0  0  0  0  0  0  0  0
   22.1710  -22.1298  -15.7090 O   0  0  0  0  0  0  0  0  0  0  0  0
   22.7465  -19.8941  -15.3695 C   0  0  2  0  0  0  0  0  0  0  0  0
   23.7643  -20.3195  -14.4283 N   0  0  0  0  0  0  0  0  0  0  0  0
   21.4403  -19.7543  -14.6757 C   0  0  0  0  0  0  0  0  0  0  0  0
   21.3471  -19.7862  -13.4191 O   0  0  0  0  0  0  0  0  0  0  0  0
   19.6066  -14.3371  -14.4172 C   0  0  0  0  0  0  0  0  0  0  0  0
   19.8524  -15.3354  -12.9128 S   0  0  0  0  0  0  0  0  0  0  0  0
   19.4158  -17.0408  -13.2885 C   0  0  0  0  0  0  0  0  0  0  0  0
   19.6418  -17.3826  -14.7605 C   0  0  0  0  0  0  0  0  0  0  0  0
   19.1219  -18.7976  -14.9409 C   0  0  2  0  0  0  0  0  0  0  0  0
   20.2544  -19.5792  -15.4276 N   0  0  0  0  0  0  0  0  0  0  0  0
   18.0369  -18.8662  -15.9539 C   0  0  0  0  0  0  0  0  0  0  0  0
   16.8682  -18.5893  -15.6148 O   0  0  0  0  0  0  0  0  0  0  0  0
   18.2681  -19.2282  -17.2743 O   0  0  0  0  0  0  0  0  0  0  0  0
  2  1  1  0
  3  2  2  0
  4  3  1  0
  5  4  2  0
  5 11  1  0
  6  5  1  0
  7  6  1  0
  7  9  1  0
  7  8  1  6
  9 10  2  0
 11 12  2  0
 12  2  1  0
 14 13  1  1
 14 16  1  0
 15 14  1  0
 16 17  1  1
 17  9  1  0
 18 16  1  0
 18 19  2  0
 20 21  1  0
 22 21  1  0
 22 23  1  0
 24 23  1  6
 24 25  1  0
 24 26  1  0
 25 18  1  0
 26 28  1  0
 27 26  2  0
M  END
$$$$
