YTM.pdb
     RDKit          3D

 28 28  0  0  1  0  0  0  0  0999 V2000
   17.2139  -15.1266  -13.5303 O   0  0  0  0  0  0  0  0  0  0  0  0
   18.0470  -16.2255  -13.3031 C   0  0  0  0  0  0  0  0  0  0  0  0
   19.4027  -16.1606  -13.5370 C   0  0  0  0  0  0  0  0  0  0  0  0
   20.2326  -17.2331  -13.3180 C   0  0  0  0  0  0  0  0  0  0  0  0
   19.7175  -18.4110  -12.8534 C   0  0  0  0  0  0  0  0  0  0  0  0
   20.6377  -19.5511  -12.6262 C   0  0  0  0  0  0  0  0  0  0  0  0
   21.1383  -20.1282  -13.9430 C   0  0  2  0  0  0  0  0  0  0  0  0
   20.0574  -20.8015  -14.5702 N   0  0  0  0  0  0  0  0  0  0  0  0
   22.2984  -20.9738  -13.6345 C   0  0  0  0  0  0  0  0  0  0  0  0
   22.0993  -22.0595  -13.0320 O   0  0  0  0  0  0  0  0  0  0  0  0
   18.3697  -18.5206  -12.6061 C   0  0  0  0  0  0  0  0  0  0  0  0
   17.5677  -17.4333  -12.8343 C   0  0  0  0  0  0  0  0  0  0  0  0
   23.9935  -23.0157  -15.6335 C   0  0  0  0  0  0  0  0  0  0  0  0
   25.1195  -22.1947  -15.0449 C   0  0  1  0  0  0  0  0  0  0  0  0
   25.4274  -21.1073  -15.8887 O   0  0  0  0  0  0  0  0  0  0  0  0
   24.7231  -21.5891  -13.7169 C   0  0  2  0  0  0  0  0  0  0  0  0
   23.6407  -20.6572  -13.9676 N   0  0  0  0  0  0  0  0  0  0  0  0
   25.9029  -20.8638  -13.1792 C   0  0  0  0  0  0  0  0  0  0  0  0
   26.0040  -19.6096  -13.2531 O   0  0  0  0  0  0  0  0  0  0  0  0
   30.1715  -20.4149   -7.6051 C   0  0  0  0  0  0  0  0  0  0  0  0
   29.0257  -21.2007   -8.7838 S   0  0  0  0  0  0  0  0  0  0  0  0
   29.8630  -21.3532  -10.3699 C   0  0  0  0  0  0  0  0  0  0  0  0
   28.9880  -22.0359  -11.4201 C   0  0  0  0  0  0  0  0  0  0  0  0
   28.1544  -20.9315  -12.0451 C   0  0  2  0  0  0  0  0  0  0  0  0
   26.9546  -21.5820  -12.5624 N   0  0  0  0  0  0  0  0  0  0  0  0
   28.8579  -20.2784  -13.1794 C   0  0  0  0  0  0  0  0  0  0  0  0
   28.9305  -20.8722  -14.2747 O   0  0  0  0  0  0  0  0  0  0  0  0
   29.4440  -19.0241  -13.0736 O   0  0  0  0  0  0  0  0  0  0  0  0
  2  1  1  0
  3  2  2  0
  4  3  1  0
  5  4  2  0
  5 11  1  0
  6  5  1  0
  7  6  1  0
  7  9  1  0
  7  8  1  1
  9 10  2  0
 11 12  2  0
 12  2  1  0
 14 13  1  6
 14 16  1  0
 15 14  1  0
 16 17  1  6
 17  9  1  0
 18 16  1  0
 18 19  2  0
 20 21  1  0
 22 21  1  0
 22 23  1  0
 24 23  1  6
 24 25  1  0
 24 26  1  0
 25 18  1  0
 26 28  1  0
 27 26  2  0
M  END
$$$$
