YTM.pdb
     RDKit          3D

 28 28  0  0  1  0  0  0  0  0999 V2000
   15.1768  -21.9088   -8.8202 O   0  0  0  0  0  0  0  0  0  0  0  0
   16.3435  -21.9387   -9.5891 C   0  0  0  0  0  0  0  0  0  0  0  0
   16.8212  -20.8089  -10.2152 C   0  0  0  0  0  0  0  0  0  0  0  0
   17.9664  -20.8246  -10.9738 C   0  0  0  0  0  0  0  0  0  0  0  0
   18.6690  -21.9874  -11.1249 C   0  0  0  0  0  0  0  0  0  0  0  0
   19.9013  -21.9736  -11.9492 C   0  0  0  0  0  0  0  0  0  0  0  0
   19.5756  -21.8131  -13.4276 C   0  0  2  0  0  0  0  0  0  0  0  0
   18.5979  -22.7825  -13.7729 N   0  0  0  0  0  0  0  0  0  0  0  0
   20.8404  -21.9197  -14.1660 C   0  0  0  0  0  0  0  0  0  0  0  0
   20.9380  -22.8060  -15.0528 O   0  0  0  0  0  0  0  0  0  0  0  0
   18.2287  -23.1393  -10.5177 C   0  0  0  0  0  0  0  0  0  0  0  0
   17.0830  -23.0918   -9.7675 C   0  0  0  0  0  0  0  0  0  0  0  0
   21.5011  -21.7252  -16.6591 C   0  0  0  0  0  0  0  0  0  0  0  0
   22.6148  -20.7927  -16.2365 C   0  0  1  0  0  0  0  0  0  0  0  0
   22.1447  -19.4646  -16.1703 O   0  0  0  0  0  0  0  0  0  0  0  0
   23.1136  -21.1251  -14.8479 C   0  0  2  0  0  0  0  0  0  0  0  0
   21.9723  -21.0912  -13.9540 N   0  0  0  0  0  0  0  0  0  0  0  0
   24.0957  -20.0811  -14.4570 C   0  0  0  0  0  0  0  0  0  0  0  0
   23.7327  -18.9465  -14.0450 O   0  0  0  0  0  0  0  0  0  0  0  0
   24.3048  -20.3288   -9.2621 C   0  0  0  0  0  0  0  0  0  0  0  0
   25.9333  -21.1142   -9.4880 S   0  0  0  0  0  0  0  0  0  0  0  0
   26.6399  -20.5166  -11.0319 C   0  0  0  0  0  0  0  0  0  0  0  0
   25.7578  -20.8466  -12.2351 C   0  0  0  0  0  0  0  0  0  0  0  0
   26.3937  -20.1413  -13.4198 C   0  0  2  0  0  0  0  0  0  0  0  0
   25.4829  -20.3468  -14.5417 N   0  0  0  0  0  0  0  0  0  0  0  0
   27.7118  -20.7287  -13.7743 C   0  0  0  0  0  0  0  0  0  0  0  0
   28.7489  -20.2422  -13.2788 O   0  0  0  0  0  0  0  0  0  0  0  0
   27.8421  -21.8056  -14.6409 O   0  0  0  0  0  0  0  0  0  0  0  0
  2  1  1  0
  3  2  2  0
  4  3  1  0
  5  4  2  0
  5 11  1  0
  6  5  1  0
  7  6  1  0
  7  9  1  0
  7  8  1  6
  9 10  2  0
 11 12  2  0
 12  2  1  0
 14 13  1  1
 14 16  1  0
 15 14  1  0
 16 17  1  1
 17  9  1  0
 18 16  1  0
 18 19  2  0
 20 21  1  0
 22 21  1  0
 22 23  1  0
 24 23  1  1
 24 25  1  0
 24 26  1  0
 25 18  1  0
 26 28  1  0
 27 26  2  0
M  END
$$$$
