YTM.pdb
     RDKit          3D

 28 28  0  0  1  0  0  0  0  0999 V2000
   15.2500  -20.7055  -18.0864 O   0  0  0  0  0  0  0  0  0  0  0  0
   16.3841  -20.2860  -17.3856 C   0  0  0  0  0  0  0  0  0  0  0  0
   16.3203  -19.9442  -16.0530 C   0  0  0  0  0  0  0  0  0  0  0  0
   17.4272  -19.5302  -15.3526 C   0  0  0  0  0  0  0  0  0  0  0  0
   18.6396  -19.4478  -15.9786 C   0  0  0  0  0  0  0  0  0  0  0  0
   19.8164  -18.9982  -15.1969 C   0  0  0  0  0  0  0  0  0  0  0  0
   20.7838  -20.1462  -14.9447 C   0  0  2  0  0  0  0  0  0  0  0  0
   20.2831  -20.9171  -13.8631 N   0  0  0  0  0  0  0  0  0  0  0  0
   22.1102  -19.5567  -14.7225 C   0  0  0  0  0  0  0  0  0  0  0  0
   22.3681  -19.0849  -13.5857 O   0  0  0  0  0  0  0  0  0  0  0  0
   18.7495  -19.7793  -17.3081 C   0  0  0  0  0  0  0  0  0  0  0  0
   17.6274  -20.1887  -17.9797 C   0  0  0  0  0  0  0  0  0  0  0  0
   25.2214  -21.0895  -14.3035 C   0  0  0  0  0  0  0  0  0  0  0  0
   25.4201  -20.1297  -15.4559 C   0  0  1  0  0  0  0  0  0  0  0  0
   25.1539  -20.7732  -16.6823 O   0  0  0  0  0  0  0  0  0  0  0  0
   24.4530  -18.9694  -15.3786 C   0  0  2  0  0  0  0  0  0  0  0  0
   23.1340  -19.4779  -15.7015 N   0  0  0  0  0  0  0  0  0  0  0  0
   24.8705  -17.9633  -16.3889 C   0  0  0  0  0  0  0  0  0  0  0  0
   24.3280  -17.8956  -17.5246 O   0  0  0  0  0  0  0  0  0  0  0  0
   27.7546  -12.1195  -14.9421 C   0  0  0  0  0  0  0  0  0  0  0  0
   28.6521  -12.7131  -16.4125 S   0  0  0  0  0  0  0  0  0  0  0  0
   27.6550  -13.9823  -17.2093 C   0  0  0  0  0  0  0  0  0  0  0  0
   27.2261  -15.0759  -16.2323 C   0  0  0  0  0  0  0  0  0  0  0  0
   26.3468  -16.0219  -17.0305 C   0  0  2  0  0  0  0  0  0  0  0  0
   25.9045  -17.0452  -16.0884 N   0  0  0  0  0  0  0  0  0  0  0  0
   27.0982  -16.6883  -18.1256 C   0  0  0  0  0  0  0  0  0  0  0  0
   27.7018  -17.7548  -17.8895 O   0  0  0  0  0  0  0  0  0  0  0  0
   27.1591  -16.1718  -19.4130 O   0  0  0  0  0  0  0  0  0  0  0  0
  2  1  1  0
  3  2  2  0
  4  3  1  0
  5  4  2  0
  5 11  1  0
  6  5  1  0
  7  6  1  0
  7  9  1  0
  7  8  1  1
  9 10  2  0
 11 12  2  0
 12  2  1  0
 14 13  1  1
 14 16  1  0
 15 14  1  0
 16 17  1  6
 17  9  1  0
 18 16  1  0
 18 19  2  0
 20 21  1  0
 22 21  1  0
 22 23  1  0
 24 23  1  1
 24 25  1  0
 24 26  1  0
 25 18  1  0
 26 28  1  0
 27 26  2  0
M  END
$$$$
