YTM.pdb
     RDKit          3D

 28 28  0  0  1  0  0  0  0  0999 V2000
   21.1531  -20.1432  -14.0215 O   0  0  0  0  0  0  0  0  0  0  0  0
   21.3178  -18.8645  -14.5610 C   0  0  0  0  0  0  0  0  0  0  0  0
   22.4933  -18.4875  -15.1715 C   0  0  0  0  0  0  0  0  0  0  0  0
   22.6682  -17.2340  -15.7056 C   0  0  0  0  0  0  0  0  0  0  0  0
   21.6567  -16.3169  -15.6400 C   0  0  0  0  0  0  0  0  0  0  0  0
   21.8745  -14.9723  -16.2254 C   0  0  0  0  0  0  0  0  0  0  0  0
   20.9207  -14.7125  -17.3831 C   0  0  2  0  0  0  0  0  0  0  0  0
   21.1717  -15.6820  -18.3892 N   0  0  0  0  0  0  0  0  0  0  0  0
   21.1163  -13.3194  -17.8039 C   0  0  0  0  0  0  0  0  0  0  0  0
   21.5704  -13.1048  -18.9569 O   0  0  0  0  0  0  0  0  0  0  0  0
   20.4658  -16.6503  -15.0396 C   0  0  0  0  0  0  0  0  0  0  0  0
   20.3217  -17.9084  -14.5161 C   0  0  0  0  0  0  0  0  0  0  0  0
   18.4200  -10.8324  -17.9939 C   0  0  0  0  0  0  0  0  0  0  0  0
   19.8015  -10.7388  -18.6032 C   0  0  1  0  0  0  0  0  0  0  0  0
   19.9829   -9.4825  -19.2179 O   0  0  0  0  0  0  0  0  0  0  0  0
   20.8776  -10.8414  -17.5453 C   0  0  2  0  0  0  0  0  0  0  0  0
   20.8292  -12.1849  -17.0018 N   0  0  0  0  0  0  0  0  0  0  0  0
   20.5639   -9.8522  -16.4822 C   0  0  0  0  0  0  0  0  0  0  0  0
   19.7596  -10.1122  -15.5472 O   0  0  0  0  0  0  0  0  0  0  0  0
   22.3912   -2.7817  -13.5499 C   0  0  0  0  0  0  0  0  0  0  0  0
   22.8701   -4.0370  -14.7806 S   0  0  0  0  0  0  0  0  0  0  0  0
   21.7524   -5.4391  -14.6222 C   0  0  0  0  0  0  0  0  0  0  0  0
   21.9885   -6.4896  -15.7064 C   0  0  0  0  0  0  0  0  0  0  0  0
   20.9903   -7.5998  -15.4308 C   0  0  2  0  0  0  0  0  0  0  0  0
   21.1743   -8.5757  -16.5004 N   0  0  0  0  0  0  0  0  0  0  0  0
   19.5879   -7.1112  -15.4802 C   0  0  0  0  0  0  0  0  0  0  0  0
   19.0411   -6.9390  -16.5888 O   0  0  0  0  0  0  0  0  0  0  0  0
   18.8513   -6.8349  -14.3360 O   0  0  0  0  0  0  0  0  0  0  0  0
  2  1  1  0
  3  2  2  0
  4  3  1  0
  5  4  2  0
  5 11  1  0
  6  5  1  0
  7  6  1  0
  7  9  1  0
  7  8  1  6
  9 10  2  0
 11 12  2  0
 12  2  1  0
 14 13  1  1
 14 16  1  0
 15 14  1  0
 16 17  1  1
 17  9  1  0
 18 16  1  0
 18 19  2  0
 20 21  1  0
 22 21  1  0
 22 23  1  0
 24 23  1  6
 24 25  1  0
 24 26  1  0
 25 18  1  0
 26 28  1  0
 27 26  2  0
M  END
$$$$
