YTM.pdb
     RDKit          3D

 28 28  0  0  1  0  0  0  0  0999 V2000
  -36.8205  -44.3430  -43.5648 O   0  0  0  0  0  0  0  0  0  0  0  0
  -36.2262  -44.6785  -44.7844 C   0  0  0  0  0  0  0  0  0  0  0  0
  -34.8589  -44.6589  -44.9475 C   0  0  0  0  0  0  0  0  0  0  0  0
  -34.2621  -44.9862  -46.1408 C   0  0  0  0  0  0  0  0  0  0  0  0
  -35.0309  -45.3454  -47.2125 C   0  0  0  0  0  0  0  0  0  0  0  0
  -34.3586  -45.6936  -48.4872 C   0  0  0  0  0  0  0  0  0  0  0  0
  -32.9834  -45.0476  -48.5813 C   0  0  2  0  0  0  0  0  0  0  0  0
  -32.2466  -45.4049  -47.4219 N   0  0  0  0  0  0  0  0  0  0  0  0
  -33.1915  -43.6053  -48.7621 C   0  0  0  0  0  0  0  0  0  0  0  0
  -34.3441  -43.2045  -49.0660 O   0  0  0  0  0  0  0  0  0  0  0  0
  -36.4001  -45.3786  -47.0947 C   0  0  0  0  0  0  0  0  0  0  0  0
  -36.9658  -45.0468  -45.8916 C   0  0  0  0  0  0  0  0  0  0  0  0
  -30.4040  -40.0871  -47.4491 C   0  0  0  0  0  0  0  0  0  0  0  0
  -31.7617  -40.7179  -47.2322 C   0  0  1  0  0  0  0  0  0  0  0  0
  -32.6557  -40.3206  -48.2481 O   0  0  0  0  0  0  0  0  0  0  0  0
  -31.6870  -42.2264  -47.3132 C   0  0  2  0  0  0  0  0  0  0  0  0
  -32.1820  -42.6189  -48.6184 N   0  0  0  0  0  0  0  0  0  0  0  0
  -32.5636  -42.7814  -46.2499 C   0  0  0  0  0  0  0  0  0  0  0  0
  -32.8923  -43.9980  -46.2257 O   0  0  0  0  0  0  0  0  0  0  0  0
  -27.9289  -40.9865  -43.1899 C   0  0  0  0  0  0  0  0  0  0  0  0
  -29.1783  -42.2665  -42.8426 S   0  0  0  0  0  0  0  0  0  0  0  0
  -30.7236  -41.4475  -42.4169 C   0  0  0  0  0  0  0  0  0  0  0  0
  -31.9202  -42.0623  -43.1413 C   0  0  0  0  0  0  0  0  0  0  0  0
  -32.1755  -41.1739  -44.3458 C   0  0  2  0  0  0  0  0  0  0  0  0
  -33.0547  -41.9380  -45.2253 N   0  0  0  0  0  0  0  0  0  0  0  0
  -30.9240  -40.8686  -45.0864 C   0  0  0  0  0  0  0  0  0  0  0  0
  -30.9345  -40.8861  -46.3343 O   0  0  0  0  0  0  0  0  0  0  0  0
  -29.7313  -40.5614  -44.4452 O   0  0  0  0  0  0  0  0  0  0  0  0
  2  1  1  0
  3  2  2  0
  4  3  1  0
  5  4  2  0
  5 11  1  0
  6  5  1  0
  7  6  1  0
  7  9  1  0
  7  8  1  1
  9 10  2  0
 11 12  2  0
 12  2  1  0
 14 13  1  6
 14 16  1  0
 15 14  1  0
 16 17  1  6
 17  9  1  0
 18 16  1  0
 18 19  2  0
 20 21  1  0
 22 21  1  0
 22 23  1  0
 24 23  1  1
 24 25  1  0
 24 26  1  0
 25 18  1  0
 26 28  1  0
 27 26  2  0
M  END
$$$$
