YTM.pdb
     RDKit          3D

 28 28  0  0  1  0  0  0  0  0999 V2000
   16.8995  -18.2315  -16.3711 O   0  0  0  0  0  0  0  0  0  0  0  0
   17.4357  -16.9593  -16.5884 C   0  0  0  0  0  0  0  0  0  0  0  0
   17.2179  -15.9264  -15.7039 C   0  0  0  0  0  0  0  0  0  0  0  0
   17.7389  -14.6715  -15.9057 C   0  0  0  0  0  0  0  0  0  0  0  0
   18.5002  -14.4184  -17.0125 C   0  0  0  0  0  0  0  0  0  0  0  0
   19.0493  -13.0545  -17.2033 C   0  0  0  0  0  0  0  0  0  0  0  0
   17.9395  -12.0404  -17.4432 C   0  0  2  0  0  0  0  0  0  0  0  0
   17.2620  -12.4004  -18.6375 N   0  0  0  0  0  0  0  0  0  0  0  0
   18.5617  -10.7105  -17.4618 C   0  0  0  0  0  0  0  0  0  0  0  0
   19.2698  -10.3993  -18.4534 O   0  0  0  0  0  0  0  0  0  0  0  0
   18.7433  -15.4200  -17.9220 C   0  0  0  0  0  0  0  0  0  0  0  0
   18.2099  -16.6612  -17.6930 C   0  0  0  0  0  0  0  0  0  0  0  0
   16.9941   -7.3003  -17.2876 C   0  0  0  0  0  0  0  0  0  0  0  0
   18.0443   -7.3914  -16.2026 C   0  0  1  0  0  0  0  0  0  0  0  0
   17.4567   -7.7850  -14.9823 O   0  0  0  0  0  0  0  0  0  0  0  0
   19.0777   -8.4479  -16.5243 C   0  0  2  0  0  0  0  0  0  0  0  0
   18.4239   -9.7393  -16.4368 N   0  0  0  0  0  0  0  0  0  0  0  0
   20.1544   -8.3540  -15.5051 C   0  0  0  0  0  0  0  0  0  0  0  0
   20.4342   -9.3170  -14.7414 O   0  0  0  0  0  0  0  0  0  0  0  0
   27.0637   -9.2800  -14.2431 C   0  0  0  0  0  0  0  0  0  0  0  0
   25.5672   -9.3127  -15.2821 S   0  0  0  0  0  0  0  0  0  0  0  0
   24.4026   -8.1027  -14.6340 C   0  0  0  0  0  0  0  0  0  0  0  0
   23.0623   -8.1434  -15.3663 C   0  0  0  0  0  0  0  0  0  0  0  0
   22.1871   -7.1067  -14.6848 C   0  0  2  0  0  0  0  0  0  0  0  0
   20.8999   -7.1587  -15.3708 N   0  0  0  0  0  0  0  0  0  0  0  0
   22.7377   -5.7340  -14.8278 C   0  0  0  0  0  0  0  0  0  0  0  0
   22.5161   -5.0945  -15.8764 O   0  0  0  0  0  0  0  0  0  0  0  0
   23.4955   -5.1250  -13.8364 O   0  0  0  0  0  0  0  0  0  0  0  0
  2  1  1  0
  3  2  2  0
  4  3  1  0
  5  4  2  0
  5 11  1  0
  6  5  1  0
  7  6  1  0
  7  9  1  0
  7  8  1  6
  9 10  2  0
 11 12  2  0
 12  2  1  0
 14 13  1  6
 14 16  1  0
 15 14  1  0
 16 17  1  1
 17  9  1  0
 18 16  1  0
 18 19  2  0
 20 21  1  0
 22 21  1  0
 22 23  1  0
 24 23  1  6
 24 25  1  0
 24 26  1  0
 25 18  1  0
 26 28  1  0
 27 26  2  0
M  END
$$$$
