YTM.pdb
     RDKit          3D

 28 28  0  0  1  0  0  0  0  0999 V2000
   16.7380  -17.0392  -12.1680 O   0  0  0  0  0  0  0  0  0  0  0  0
   17.8738  -17.8163  -11.9245 C   0  0  0  0  0  0  0  0  0  0  0  0
   19.1398  -17.3409  -12.1851 C   0  0  0  0  0  0  0  0  0  0  0  0
   20.2642  -18.0943  -11.9505 C   0  0  0  0  0  0  0  0  0  0  0  0
   20.1455  -19.3579  -11.4428 C   0  0  0  0  0  0  0  0  0  0  0  0
   21.3769  -20.1471  -11.1997 C   0  0  0  0  0  0  0  0  0  0  0  0
   22.1551  -20.3682  -12.4892 C   0  0  2  0  0  0  0  0  0  0  0  0
   21.3007  -21.0226  -13.4149 N   0  0  0  0  0  0  0  0  0  0  0  0
   23.3734  -21.1101  -12.1406 C   0  0  0  0  0  0  0  0  0  0  0  0
   23.2613  -22.3221  -11.8245 O   0  0  0  0  0  0  0  0  0  0  0  0
   18.9010  -19.8729  -11.1677 C   0  0  0  0  0  0  0  0  0  0  0  0
   17.7984  -19.0971  -11.4124 C   0  0  0  0  0  0  0  0  0  0  0  0
   25.7997  -22.1641  -14.3018 C   0  0  0  0  0  0  0  0  0  0  0  0
   26.6037  -21.4499  -13.2379 C   0  0  1  0  0  0  0  0  0  0  0  0
   26.8334  -20.1099  -13.6128 O   0  0  0  0  0  0  0  0  0  0  0  0
   25.8514  -21.3900  -11.9272 C   0  0  2  0  0  0  0  0  0  0  0  0
   24.6808  -20.5593  -12.1329 N   0  0  0  0  0  0  0  0  0  0  0  0
   26.7462  -20.7655  -10.9190 C   0  0  0  0  0  0  0  0  0  0  0  0
   26.4121  -19.7298  -10.2830 O   0  0  0  0  0  0  0  0  0  0  0  0
   27.6256  -19.2074   -5.2578 C   0  0  0  0  0  0  0  0  0  0  0  0
   28.6633  -20.6671   -5.5928 S   0  0  0  0  0  0  0  0  0  0  0  0
   29.2982  -20.5359   -7.2721 C   0  0  0  0  0  0  0  0  0  0  0  0
   28.2850  -21.0156   -8.3103 C   0  0  0  0  0  0  0  0  0  0  0  0
   28.9326  -20.7746   -9.6622 C   0  0  2  0  0  0  0  0  0  0  0  0
   28.0140  -21.3331  -10.6493 N   0  0  0  0  0  0  0  0  0  0  0  0
   30.2362  -21.4768   -9.7870 C   0  0  0  0  0  0  0  0  0  0  0  0
   30.3071  -22.5116  -10.4811 O   0  0  0  0  0  0  0  0  0  0  0  0
   31.3906  -21.0281   -9.1593 O   0  0  0  0  0  0  0  0  0  0  0  0
  2  1  1  0
  3  2  2  0
  4  3  1  0
  5  4  2  0
  5 11  1  0
  6  5  1  0
  7  6  1  0
  7  9  1  0
  7  8  1  6
  9 10  2  0
 11 12  2  0
 12  2  1  0
 14 13  1  6
 14 16  1  0
 15 14  1  0
 16 17  1  6
 17  9  1  0
 18 16  1  0
 18 19  2  0
 20 21  1  0
 22 21  1  0
 22 23  1  0
 24 23  1  1
 24 25  1  0
 24 26  1  0
 25 18  1  0
 26 28  1  0
 27 26  2  0
M  END
$$$$
