NHF.pdb
     RDKit          3D

 30 31  0  0  1  0  0  0  0  0999 V2000
    9.0805  -12.9236   17.0816 N   0  0  0  0  0  0  0  0  0  0  0  0
    7.8798  -13.5935   17.3205 C   0  0  0  0  0  0  0  0  0  0  0  0
    7.0206  -13.6731   16.4037 O   0  0  0  0  0  0  0  0  0  0  0  0
    7.5192  -14.2399   18.6047 C   0  0  0  0  0  0  0  0  0  0  0  0
    8.4619  -13.8989   19.7135 C   0  0  2  0  0  0  0  0  0  0  0  0
    9.8399  -13.8579   19.2481 N   0  0  0  0  0  0  0  0  0  0  0  0
    8.3562  -14.9104   20.7844 C   0  0  0  0  0  0  0  0  0  0  0  0
    7.2303  -15.2080   21.3123 O   0  0  0  0  0  0  0  0  0  0  0  0
    9.4605  -15.6202   21.3068 N   0  0  0  0  0  0  0  0  0  0  0  0
    9.3448  -16.7116   22.2778 C   0  0  1  0  0  0  0  0  0  0  0  0
   10.2590  -17.8302   21.9525 C   0  0  0  0  0  0  0  0  0  0  0  0
    9.8347  -18.5438   20.7394 C   0  0  0  0  0  0  0  0  0  0  0  0
    8.8005  -19.5120   20.7171 C   0  0  0  0  0  0  0  0  0  0  0  0
    8.6469  -19.9832   19.4707 N   0  0  0  0  0  0  0  0  0  0  0  0
    9.5379  -19.3575   18.6972 C   0  0  0  0  0  0  0  0  0  0  0  0
   10.2238  -18.5185   19.4595 N   0  0  0  0  0  0  0  0  0  0  0  0
    9.5232  -16.1188   23.6243 C   0  0  0  0  0  0  0  0  0  0  0  0
   10.4402  -15.3245   23.9179 O   0  0  0  0  0  0  0  0  0  0  0  0
    8.5952  -16.4692   24.6606 N   0  0  0  0  0  0  0  0  0  0  0  0
    8.7030  -15.9336   26.0084 C   0  0  1  0  0  0  0  0  0  0  0  0
    7.3405  -15.5006   26.5062 C   0  0  0  0  0  0  0  0  0  0  0  0
    7.1212  -14.0483   26.3397 C   0  0  0  0  0  0  0  0  0  0  0  0
    5.9412  -13.5650   25.8215 C   0  0  0  0  0  0  0  0  0  0  0  0
    5.7205  -12.2141   25.6616 C   0  0  0  0  0  0  0  0  0  0  0  0
    6.6848  -11.3051   26.0199 C   0  0  0  0  0  0  0  0  0  0  0  0
    7.8745  -11.7679   26.5412 C   0  0  0  0  0  0  0  0  0  0  0  0
    8.0856  -13.1315   26.6975 C   0  0  0  0  0  0  0  0  0  0  0  0
    9.3399  -16.9246   26.8800 C   0  0  0  0  0  0  0  0  0  0  0  0
    9.6242  -18.2133   26.4531 O   0  0  0  0  0  0  0  0  0  0  0  0
    9.6451  -16.6153   28.0538 O   0  0  0  0  0  0  0  0  0  0  0  0
  2  1  1  0
  3  2  2  0
  4  2  1  0
  4  5  1  0
  5  6  1  6
  7  5  1  0
  7  8  2  0
  9  7  1  0
 10  9  1  0
 10 11  1  6
 12 11  1  0
 12 13  2  0
 14 13  1  0
 15 16  2  0
 15 14  1  0
 16 12  1  0
 17 10  1  0
 18 17  2  0
 19 17  1  0
 20 19  1  0
 20 21  1  1
 22 21  1  0
 23 22  2  0
 24 23  1  0
 25 26  1  0
 25 24  2  0
 26 27  2  0
 27 22  1  0
 28 20  1  0
 29 28  1  0
 30 28  2  0
M  END
$$$$
