NHF.pdb
     RDKit          3D

 30 31  0  0  1  0  0  0  0  0999 V2000
    4.8937  -20.6367   20.6384 N   0  0  0  0  0  0  0  0  0  0  0  0
    5.4557  -19.9097   19.5880 C   0  0  0  0  0  0  0  0  0  0  0  0
    5.1073  -20.1594   18.4043 O   0  0  0  0  0  0  0  0  0  0  0  0
    6.4614  -18.8335   19.7544 C   0  0  0  0  0  0  0  0  0  0  0  0
    6.7957  -18.5647   21.1863 C   0  0  2  0  0  0  0  0  0  0  0  0
    5.6232  -18.1424   21.9374 N   0  0  0  0  0  0  0  0  0  0  0  0
    7.8157  -17.4998   21.2670 C   0  0  0  0  0  0  0  0  0  0  0  0
    8.9986  -17.6730   20.8133 O   0  0  0  0  0  0  0  0  0  0  0  0
    7.5813  -16.2286   21.8376 N   0  0  0  0  0  0  0  0  0  0  0  0
    8.6082  -15.1920   21.9730 C   0  0  1  0  0  0  0  0  0  0  0  0
    8.1374  -13.8871   21.4551 C   0  0  0  0  0  0  0  0  0  0  0  0
    8.2927  -13.7932   19.9963 C   0  0  0  0  0  0  0  0  0  0  0  0
    8.9496  -14.7720   19.2102 C   0  0  0  0  0  0  0  0  0  0  0  0
    8.9299  -14.4058   17.9201 N   0  0  0  0  0  0  0  0  0  0  0  0
    8.2892  -13.2361   17.8492 C   0  0  0  0  0  0  0  0  0  0  0  0
    7.9240  -12.8946   19.0761 N   0  0  0  0  0  0  0  0  0  0  0  0
    9.0439  -15.1915   23.3895 C   0  0  0  0  0  0  0  0  0  0  0  0
    9.9048  -14.4147   23.8515 O   0  0  0  0  0  0  0  0  0  0  0  0
    8.4500  -16.1332   24.2940 N   0  0  0  0  0  0  0  0  0  0  0  0
    8.6632  -16.0651   25.7310 C   0  0  1  0  0  0  0  0  0  0  0  0
    7.3833  -15.6546   26.4275 C   0  0  0  0  0  0  0  0  0  0  0  0
    7.2665  -14.1871   26.5612 C   0  0  0  0  0  0  0  0  0  0  0  0
    6.0871  -13.5409   26.2683 C   0  0  0  0  0  0  0  0  0  0  0  0
    5.9615  -12.1738   26.3895 C   0  0  0  0  0  0  0  0  0  0  0  0
    7.0237  -11.4129   26.8106 C   0  0  0  0  0  0  0  0  0  0  0  0
    8.2147  -12.0403   27.1093 C   0  0  0  0  0  0  0  0  0  0  0  0
    8.3294  -13.4185   26.9834 C   0  0  0  0  0  0  0  0  0  0  0  0
    9.1870  -17.3472   26.2100 C   0  0  0  0  0  0  0  0  0  0  0  0
    9.7429  -17.4957   27.4721 O   0  0  0  0  0  0  0  0  0  0  0  0
    9.1395  -18.3543   25.4684 O   0  0  0  0  0  0  0  0  0  0  0  0
  2  1  1  0
  3  2  2  0
  4  2  1  0
  4  5  1  0
  5  6  1  1
  7  5  1  0
  7  8  2  0
  9  7  1  0
 10  9  1  0
 10 11  1  1
 12 11  1  0
 12 13  2  0
 14 13  1  0
 15 16  2  0
 15 14  1  0
 16 12  1  0
 17 10  1  0
 18 17  2  0
 19 17  1  0
 20 19  1  0
 20 21  1  1
 22 21  1  0
 23 22  2  0
 24 23  1  0
 25 26  1  0
 25 24  2  0
 26 27  2  0
 27 22  1  0
 28 20  1  0
 29 28  1  0
 30 28  2  0
M  END
$$$$
