NHF.pdb
     RDKit          3D

 30 31  0  0  1  0  0  0  0  0999 V2000
   10.1102  -13.5565   17.6494 N   0  0  0  0  0  0  0  0  0  0  0  0
    9.8694  -12.8253   18.8135 C   0  0  0  0  0  0  0  0  0  0  0  0
   10.3641  -11.6742   18.9366 O   0  0  0  0  0  0  0  0  0  0  0  0
    9.0541  -13.3058   19.9543 C   0  0  0  0  0  0  0  0  0  0  0  0
    8.4246  -14.6377   19.7004 C   0  0  2  0  0  0  0  0  0  0  0  0
    7.2637  -14.5217   18.8307 N   0  0  0  0  0  0  0  0  0  0  0  0
    7.9963  -15.2370   20.9804 C   0  0  0  0  0  0  0  0  0  0  0  0
    6.9047  -14.8889   21.5480 O   0  0  0  0  0  0  0  0  0  0  0  0
    8.7352  -16.2220   21.6732 N   0  0  0  0  0  0  0  0  0  0  0  0
    8.2369  -16.9405   22.8492 C   0  0  1  0  0  0  0  0  0  0  0  0
    8.2583  -18.4065   22.6421 C   0  0  0  0  0  0  0  0  0  0  0  0
    7.7230  -19.1278   23.8059 C   0  0  0  0  0  0  0  0  0  0  0  0
    8.4426  -20.1205   24.5157 C   0  0  0  0  0  0  0  0  0  0  0  0
    7.6920  -20.5928   25.5219 N   0  0  0  0  0  0  0  0  0  0  0  0
    6.5250  -19.9444   25.4847 C   0  0  0  0  0  0  0  0  0  0  0  0
    6.5634  -19.0906   24.4723 N   0  0  0  0  0  0  0  0  0  0  0  0
    9.0088  -16.4543   24.0172 C   0  0  0  0  0  0  0  0  0  0  0  0
   10.2139  -16.1329   23.9687 O   0  0  0  0  0  0  0  0  0  0  0  0
    8.3450  -16.3414   25.2838 N   0  0  0  0  0  0  0  0  0  0  0  0
    9.0314  -15.8726   26.4772 C   0  0  1  0  0  0  0  0  0  0  0  0
    8.0306  -15.3176   27.4683 C   0  0  0  0  0  0  0  0  0  0  0  0
    7.3593  -14.1018   26.9621 C   0  0  0  0  0  0  0  0  0  0  0  0
    8.0890  -13.0144   26.5382 C   0  0  0  0  0  0  0  0  0  0  0  0
    7.4784  -11.8743   26.0621 C   0  0  0  0  0  0  0  0  0  0  0  0
    6.1095  -11.7940   25.9981 C   0  0  0  0  0  0  0  0  0  0  0  0
    5.3593  -12.8722   26.4178 C   0  0  0  0  0  0  0  0  0  0  0  0
    5.9858  -14.0158   26.8957 C   0  0  0  0  0  0  0  0  0  0  0  0
    9.8431  -16.9582   27.0341 C   0  0  0  0  0  0  0  0  0  0  0  0
    9.8567  -18.2311   26.4833 O   0  0  0  0  0  0  0  0  0  0  0  0
   10.5554  -16.7480   28.0416 O   0  0  0  0  0  0  0  0  0  0  0  0
  2  1  1  0
  3  2  2  0
  4  2  1  0
  4  5  1  0
  5  6  1  6
  7  5  1  0
  7  8  2  0
  9  7  1  0
 10  9  1  0
 10 11  1  6
 12 11  1  0
 12 13  2  0
 14 13  1  0
 15 16  2  0
 15 14  1  0
 16 12  1  0
 17 10  1  0
 18 17  2  0
 19 17  1  0
 20 19  1  0
 20 21  1  1
 22 21  1  0
 23 22  2  0
 24 23  1  0
 25 26  1  0
 25 24  2  0
 26 27  2  0
 27 22  1  0
 28 20  1  0
 29 28  1  0
 30 28  2  0
M  END
$$$$
