NHF.pdb
     RDKit          3D

 30 31  0  0  1  0  0  0  0  0999 V2000
    8.9524  -20.4205   19.1652 N   0  0  0  0  0  0  0  0  0  0  0  0
    9.5963  -19.3981   18.4667 C   0  0  0  0  0  0  0  0  0  0  0  0
    9.9400  -19.5850   17.2702 O   0  0  0  0  0  0  0  0  0  0  0  0
    9.9203  -18.0675   19.0340 C   0  0  0  0  0  0  0  0  0  0  0  0
    9.6069  -17.9636   20.4919 C   0  0  2  0  0  0  0  0  0  0  0  0
    8.2540  -18.4152   20.7798 N   0  0  0  0  0  0  0  0  0  0  0  0
    9.7379  -16.5591   20.9294 C   0  0  0  0  0  0  0  0  0  0  0  0
   10.8262  -15.9081   20.7661 O   0  0  0  0  0  0  0  0  0  0  0  0
    8.6998  -15.8294   21.5509 N   0  0  0  0  0  0  0  0  0  0  0  0
    8.8307  -14.4388   21.9941 C   0  0  1  0  0  0  0  0  0  0  0  0
    7.8473  -13.5579   21.3236 C   0  0  0  0  0  0  0  0  0  0  0  0
    7.9382  -13.6569   19.8597 C   0  0  0  0  0  0  0  0  0  0  0  0
    8.5153  -12.6576   19.0377 C   0  0  0  0  0  0  0  0  0  0  0  0
    8.4501  -13.0342   17.7520 N   0  0  0  0  0  0  0  0  0  0  0  0
    7.8566  -14.2301   17.7183 C   0  0  0  0  0  0  0  0  0  0  0  0
    7.5646  -14.5772   18.9632 N   0  0  0  0  0  0  0  0  0  0  0  0
    8.7696  -14.4449   23.4748 C   0  0  0  0  0  0  0  0  0  0  0  0
    8.2097  -13.5575   24.1508 O   0  0  0  0  0  0  0  0  0  0  0  0
    9.3853  -15.5279   24.1859 N   0  0  0  0  0  0  0  0  0  0  0  0
    9.2699  -15.6701   25.6287 C   0  0  1  0  0  0  0  0  0  0  0  0
    7.8124  -15.6526   26.0378 C   0  0  0  0  0  0  0  0  0  0  0  0
    7.3459  -14.2930   26.3827 C   0  0  0  0  0  0  0  0  0  0  0  0
    6.0245  -13.9384   26.2328 C   0  0  0  0  0  0  0  0  0  0  0  0
    5.5734  -12.6757   26.5514 C   0  0  0  0  0  0  0  0  0  0  0  0
    6.4424  -11.7281   27.0325 C   0  0  0  0  0  0  0  0  0  0  0  0
    7.7708  -12.0625   27.1904 C   0  0  0  0  0  0  0  0  0  0  0  0
    8.2137  -13.3380   26.8658 C   0  0  0  0  0  0  0  0  0  0  0  0
    9.9681  -16.8846   26.0588 C   0  0  0  0  0  0  0  0  0  0  0  0
   10.2234  -17.1593   27.3942 O   0  0  0  0  0  0  0  0  0  0  0  0
   10.3550  -17.7145   25.2054 O   0  0  0  0  0  0  0  0  0  0  0  0
  2  1  1  0
  3  2  2  0
  4  2  1  0
  4  5  1  0
  5  6  1  6
  7  5  1  0
  7  8  2  0
  9  7  1  0
 10  9  1  0
 10 11  1  6
 12 11  1  0
 12 13  2  0
 14 13  1  0
 15 16  2  0
 15 14  1  0
 16 12  1  0
 17 10  1  0
 18 17  2  0
 19 17  1  0
 20 19  1  0
 20 21  1  6
 22 21  1  0
 23 22  2  0
 24 23  1  0
 25 26  1  0
 25 24  2  0
 26 27  2  0
 27 22  1  0
 28 20  1  0
 29 28  1  0
 30 28  2  0
M  END
$$$$
