NHF.pdb
     RDKit          3D

 30 31  0  0  1  0  0  0  0  0999 V2000
    9.3102  -15.3511   17.7343 N   0  0  0  0  0  0  0  0  0  0  0  0
    8.2707  -14.5347   17.2865 C   0  0  0  0  0  0  0  0  0  0  0  0
    7.7740  -14.7316   16.1466 O   0  0  0  0  0  0  0  0  0  0  0  0
    7.6835  -13.4186   18.0654 C   0  0  0  0  0  0  0  0  0  0  0  0
    8.2906  -13.2734   19.4237 C   0  0  2  0  0  0  0  0  0  0  0  0
    9.7373  -13.4231   19.3800 N   0  0  0  0  0  0  0  0  0  0  0  0
    7.7376  -14.3021   20.3277 C   0  0  0  0  0  0  0  0  0  0  0  0
    6.4775  -14.4257   20.5062 O   0  0  0  0  0  0  0  0  0  0  0  0
    8.5307  -15.2166   21.0562 N   0  0  0  0  0  0  0  0  0  0  0  0
    7.9860  -16.2149   21.9804 C   0  0  1  0  0  0  0  0  0  0  0  0
    8.1269  -17.5882   21.4447 C   0  0  0  0  0  0  0  0  0  0  0  0
    9.4298  -17.7866   20.7935 C   0  0  0  0  0  0  0  0  0  0  0  0
   10.5665  -16.9792   21.0453 C   0  0  0  0  0  0  0  0  0  0  0  0
   11.5993  -17.4057   20.3034 N   0  0  0  0  0  0  0  0  0  0  0  0
   11.1708  -18.4499   19.5895 C   0  0  0  0  0  0  0  0  0  0  0  0
    9.8974  -18.6569   19.8913 N   0  0  0  0  0  0  0  0  0  0  0  0
    8.6205  -15.9812   23.2991 C   0  0  0  0  0  0  0  0  0  0  0  0
    9.7325  -15.4339   23.4480 O   0  0  0  0  0  0  0  0  0  0  0  0
    7.9278  -16.4031   24.4823 N   0  0  0  0  0  0  0  0  0  0  0  0
    8.4670  -16.1808   25.8145 C   0  0  1  0  0  0  0  0  0  0  0  0
    7.3934  -15.6203   26.7229 C   0  0  0  0  0  0  0  0  0  0  0  0
    7.2635  -14.1534   26.5944 C   0  0  0  0  0  0  0  0  0  0  0  0
    8.3336  -13.3235   26.8400 C   0  0  0  0  0  0  0  0  0  0  0  0
    8.2294  -11.9542   26.7230 C   0  0  0  0  0  0  0  0  0  0  0  0
    7.0399  -11.3769   26.3537 C   0  0  0  0  0  0  0  0  0  0  0  0
    5.9550  -12.1901   26.1028 C   0  0  0  0  0  0  0  0  0  0  0  0
    6.0721  -13.5686   26.2241 C   0  0  0  0  0  0  0  0  0  0  0  0
    9.0496  -17.4262   26.3215 C   0  0  0  0  0  0  0  0  0  0  0  0
    8.9421  -18.6275   25.6366 O   0  0  0  0  0  0  0  0  0  0  0  0
    9.6695  -17.4250   27.4089 O   0  0  0  0  0  0  0  0  0  0  0  0
  2  1  1  0
  3  2  2  0
  4  2  1  0
  4  5  1  0
  5  6  1  6
  7  5  1  0
  7  8  2  0
  9  7  1  0
 10  9  1  0
 10 11  1  6
 12 11  1  0
 12 13  2  0
 14 13  1  0
 15 16  2  0
 15 14  1  0
 16 12  1  0
 17 10  1  0
 18 17  2  0
 19 17  1  0
 20 19  1  0
 20 21  1  1
 22 21  1  0
 23 22  2  0
 24 23  1  0
 25 26  1  0
 25 24  2  0
 26 27  2  0
 27 22  1  0
 28 20  1  0
 29 28  1  0
 30 28  2  0
M  END
$$$$
