NHF.pdb
     RDKit          3D

 30 31  0  0  1  0  0  0  0  0999 V2000
    9.5854  -12.8954   17.2245 N   0  0  0  0  0  0  0  0  0  0  0  0
    8.2923  -13.4173   17.2796 C   0  0  0  0  0  0  0  0  0  0  0  0
    7.5777  -13.4152   16.2431 O   0  0  0  0  0  0  0  0  0  0  0  0
    7.6691  -13.9922   18.4954 C   0  0  0  0  0  0  0  0  0  0  0  0
    8.5310  -13.8609   19.7096 C   0  0  2  0  0  0  0  0  0  0  0  0
    9.9125  -14.2173   19.4239 N   0  0  0  0  0  0  0  0  0  0  0  0
    8.0261  -14.7492   20.7759 C   0  0  0  0  0  0  0  0  0  0  0  0
    6.8303  -14.6488   21.2175 O   0  0  0  0  0  0  0  0  0  0  0  0
    8.7990  -15.7621   21.3866 N   0  0  0  0  0  0  0  0  0  0  0  0
    8.2765  -16.6978   22.3860 C   0  0  1  0  0  0  0  0  0  0  0  0
    8.4573  -18.1052   21.9625 C   0  0  0  0  0  0  0  0  0  0  0  0
    7.5836  -18.4490   20.8314 C   0  0  0  0  0  0  0  0  0  0  0  0
    6.1771  -18.2781   20.8432 C   0  0  0  0  0  0  0  0  0  0  0  0
    5.6613  -18.6805   19.6722 N   0  0  0  0  0  0  0  0  0  0  0  0
    6.6776  -19.1005   18.9143 C   0  0  0  0  0  0  0  0  0  0  0  0
    7.7949  -18.9566   19.6117 N   0  0  0  0  0  0  0  0  0  0  0  0
    8.8974  -16.3421   23.6838 C   0  0  0  0  0  0  0  0  0  0  0  0
   10.0983  -16.0289   23.8170 O   0  0  0  0  0  0  0  0  0  0  0  0
    8.0826  -16.3539   24.8644 N   0  0  0  0  0  0  0  0  0  0  0  0
    8.6204  -16.0375   26.1781 C   0  0  1  0  0  0  0  0  0  0  0  0
    7.5414  -15.4300   27.0489 C   0  0  0  0  0  0  0  0  0  0  0  0
    7.2553  -14.0261   26.6853 C   0  0  0  0  0  0  0  0  0  0  0  0
    8.2615  -13.0883   26.6358 C   0  0  0  0  0  0  0  0  0  0  0  0
    8.0116  -11.7760   26.2969 C   0  0  0  0  0  0  0  0  0  0  0  0
    6.7362  -11.3665   25.9966 C   0  0  0  0  0  0  0  0  0  0  0  0
    5.7132  -12.2901   26.0401 C   0  0  0  0  0  0  0  0  0  0  0  0
    5.9772  -13.6097   26.3830 C   0  0  0  0  0  0  0  0  0  0  0  0
    9.2175  -17.2399   26.7657 C   0  0  0  0  0  0  0  0  0  0  0  0
   10.0958  -17.1832   27.8377 O   0  0  0  0  0  0  0  0  0  0  0  0
    8.9367  -18.3660   26.2970 O   0  0  0  0  0  0  0  0  0  0  0  0
  2  1  1  0
  3  2  2  0
  4  2  1  0
  4  5  1  0
  5  6  1  6
  7  5  1  0
  7  8  2  0
  9  7  1  0
 10  9  1  0
 10 11  1  6
 12 11  1  0
 12 13  2  0
 14 13  1  0
 15 16  2  0
 15 14  1  0
 16 12  1  0
 17 10  1  0
 18 17  2  0
 19 17  1  0
 20 19  1  0
 20 21  1  1
 22 21  1  0
 23 22  2  0
 24 23  1  0
 25 26  1  0
 25 24  2  0
 26 27  2  0
 27 22  1  0
 28 20  1  0
 29 28  1  0
 30 28  2  0
M  END
$$$$
