NHF.pdb
     RDKit          3D

 30 31  0  0  1  0  0  0  0  0999 V2000
    7.5438  -20.7608   19.5419 N   0  0  0  0  0  0  0  0  0  0  0  0
    7.9359  -19.6908   18.7362 C   0  0  0  0  0  0  0  0  0  0  0  0
    7.8794  -19.8040   17.4837 O   0  0  0  0  0  0  0  0  0  0  0  0
    8.4295  -18.3903   19.2480 C   0  0  0  0  0  0  0  0  0  0  0  0
    8.5025  -18.3412   20.7403 C   0  0  2  0  0  0  0  0  0  0  0  0
    7.1833  -18.4591   21.3428 N   0  0  0  0  0  0  0  0  0  0  0  0
    9.1025  -17.0608   21.1666 C   0  0  0  0  0  0  0  0  0  0  0  0
   10.2764  -16.7171   20.7939 O   0  0  0  0  0  0  0  0  0  0  0  0
    8.4499  -16.1266   22.0019 N   0  0  0  0  0  0  0  0  0  0  0  0
    9.0443  -14.8568   22.4280 C   0  0  1  0  0  0  0  0  0  0  0  0
    8.2678  -13.6976   21.9322 C   0  0  0  0  0  0  0  0  0  0  0  0
    8.2263  -13.6593   20.4632 C   0  0  0  0  0  0  0  0  0  0  0  0
    7.0308  -13.7409   19.7073 C   0  0  0  0  0  0  0  0  0  0  0  0
    7.3165  -13.6794   18.3983 N   0  0  0  0  0  0  0  0  0  0  0  0
    8.6422  -13.5622   18.2865 C   0  0  0  0  0  0  0  0  0  0  0  0
    9.1565  -13.5523   19.5075 N   0  0  0  0  0  0  0  0  0  0  0  0
    9.2116  -14.9249   23.8990 C   0  0  0  0  0  0  0  0  0  0  0  0
    9.5712  -13.9589   24.6029 O   0  0  0  0  0  0  0  0  0  0  0  0
    8.9480  -16.1670   24.5662 N   0  0  0  0  0  0  0  0  0  0  0  0
    8.9592  -16.2835   26.0158 C   0  0  1  0  0  0  0  0  0  0  0  0
    7.5698  -16.0439   26.5673 C   0  0  0  0  0  0  0  0  0  0  0  0
    7.2389  -14.6051   26.6408 C   0  0  0  0  0  0  0  0  0  0  0  0
    6.0964  -14.1103   26.0541 C   0  0  0  0  0  0  0  0  0  0  0  0
    5.7729  -12.7720   26.1151 C   0  0  0  0  0  0  0  0  0  0  0  0
    6.5929  -11.8880   26.7712 C   0  0  0  0  0  0  0  0  0  0  0  0
    7.7427  -12.3628   27.3661 C   0  0  0  0  0  0  0  0  0  0  0  0
    8.0584  -13.7134   27.2979 C   0  0  0  0  0  0  0  0  0  0  0  0
    9.5074  -17.5875   26.3985 C   0  0  0  0  0  0  0  0  0  0  0  0
    9.8184  -17.9040   27.7126 O   0  0  0  0  0  0  0  0  0  0  0  0
    9.7086  -18.4586   25.5225 O   0  0  0  0  0  0  0  0  0  0  0  0
  2  1  1  0
  3  2  2  0
  4  2  1  0
  4  5  1  0
  5  6  1  1
  7  5  1  0
  7  8  2  0
  9  7  1  0
 10  9  1  0
 10 11  1  1
 12 11  1  0
 12 13  2  0
 14 13  1  0
 15 16  2  0
 15 14  1  0
 16 12  1  0
 17 10  1  0
 18 17  2  0
 19 17  1  0
 20 19  1  0
 20 21  1  6
 22 21  1  0
 23 22  2  0
 24 23  1  0
 25 26  1  0
 25 24  2  0
 26 27  2  0
 27 22  1  0
 28 20  1  0
 29 28  1  0
 30 28  2  0
M  END
$$$$
