NHF.pdb
     RDKit          3D

 30 31  0  0  1  0  0  0  0  0999 V2000
    8.2576  -12.4066   17.6450 N   0  0  0  0  0  0  0  0  0  0  0  0
    7.8005  -13.7113   17.8357 C   0  0  0  0  0  0  0  0  0  0  0  0
    7.7442  -14.4986   16.8550 O   0  0  0  0  0  0  0  0  0  0  0  0
    7.3609  -14.2657   19.1382 C   0  0  0  0  0  0  0  0  0  0  0  0
    8.3900  -15.1431   19.7751 C   0  0  2  0  0  0  0  0  0  0  0  0
    8.6243  -16.3460   18.9907 N   0  0  0  0  0  0  0  0  0  0  0  0
    7.9382  -15.5407   21.1238 C   0  0  0  0  0  0  0  0  0  0  0  0
    7.6479  -14.6698   22.0139 O   0  0  0  0  0  0  0  0  0  0  0  0
    7.7904  -16.8830   21.5392 N   0  0  0  0  0  0  0  0  0  0  0  0
    7.5060  -17.2843   22.9196 C   0  0  1  0  0  0  0  0  0  0  0  0
    7.1007  -18.7062   23.0016 C   0  0  0  0  0  0  0  0  0  0  0  0
    7.0103  -19.1662   24.3949 C   0  0  0  0  0  0  0  0  0  0  0  0
    6.2243  -18.5269   25.3853 C   0  0  0  0  0  0  0  0  0  0  0  0
    6.3473  -19.1772   26.5519 N   0  0  0  0  0  0  0  0  0  0  0  0
    7.1776  -20.2033   26.3486 C   0  0  0  0  0  0  0  0  0  0  0  0
    7.5547  -20.1792   25.0787 N   0  0  0  0  0  0  0  0  0  0  0  0
    8.6877  -16.9144   23.7340 C   0  0  0  0  0  0  0  0  0  0  0  0
    9.8633  -17.1895   23.4176 O   0  0  0  0  0  0  0  0  0  0  0  0
    8.4835  -16.1982   24.9599 N   0  0  0  0  0  0  0  0  0  0  0  0
    9.5910  -15.7807   25.8051 C   0  0  1  0  0  0  0  0  0  0  0  0
    9.8301  -14.2938   25.6518 C   0  0  0  0  0  0  0  0  0  0  0  0
    8.6342  -13.4974   25.9993 C   0  0  0  0  0  0  0  0  0  0  0  0
    7.6229  -13.3030   25.0862 C   0  0  0  0  0  0  0  0  0  0  0  0
    6.5009  -12.5648   25.3952 C   0  0  0  0  0  0  0  0  0  0  0  0
    6.3626  -11.9976   26.6376 C   0  0  0  0  0  0  0  0  0  0  0  0
    7.3642  -12.1800   27.5676 C   0  0  0  0  0  0  0  0  0  0  0  0
    8.4902  -12.9259   27.2448 C   0  0  0  0  0  0  0  0  0  0  0  0
    9.3255  -16.1755   27.1912 C   0  0  0  0  0  0  0  0  0  0  0  0
   10.3062  -16.1442   28.1715 O   0  0  0  0  0  0  0  0  0  0  0  0
    8.1797  -16.5570   27.5203 O   0  0  0  0  0  0  0  0  0  0  0  0
  2  1  1  0
  3  2  2  0
  4  2  1  0
  4  5  1  0
  5  6  1  6
  7  5  1  0
  7  8  2  0
  9  7  1  0
 10  9  1  0
 10 11  1  6
 12 11  1  0
 12 13  2  0
 14 13  1  0
 15 16  2  0
 15 14  1  0
 16 12  1  0
 17 10  1  0
 18 17  2  0
 19 17  1  0
 20 19  1  0
 20 21  1  1
 22 21  1  0
 23 22  2  0
 24 23  1  0
 25 26  1  0
 25 24  2  0
 26 27  2  0
 27 22  1  0
 28 20  1  0
 29 28  1  0
 30 28  2  0
M  END
$$$$
