DIN.pdb
     RDKit          3D

 25 24  0  0  1  0  0  0  0  0999 V2000
   17.3888  -11.8493  -15.2786 N   0  0  0  0  0  0  0  0  0  0  0  0
   17.7560  -10.7237  -16.1199 C   0  0  1  0  0  0  0  0  0  0  0  0
   16.5294  -10.0260  -16.6668 C   0  0  0  0  0  0  0  0  0  0  0  0
   15.7879  -10.8946  -17.6163 C   0  0  0  0  0  0  0  0  0  0  0  0
   16.1341  -12.0619  -17.9275 O   0  0  0  0  0  0  0  0  0  0  0  0
   18.6051   -9.8200  -15.3274 C   0  0  0  0  0  0  0  0  0  0  0  0
   18.3643   -9.5548  -14.1024 O   0  0  0  0  0  0  0  0  0  0  0  0
   14.6363  -10.3724  -18.1933 O   0  0  0  0  0  0  0  0  0  0  0  0
   23.6861  -10.4681  -14.4704 C   0  0  0  0  0  0  0  0  0  0  0  0
   22.2068  -10.1134  -14.3461 C   0  0  0  0  0  0  0  0  0  0  0  0
   22.0019   -8.8094  -15.0301 C   0  0  2  0  0  0  0  0  0  0  0  0
   22.8961   -7.7697  -14.3402 C   0  0  0  0  0  0  0  0  0  0  0  0
   20.5954   -8.3000  -15.0754 C   0  0  2  0  0  0  0  0  0  0  0  0
   19.7523   -9.1800  -15.8723 N   0  0  0  0  0  0  0  0  0  0  0  0
   20.5035   -6.9009  -15.5521 C   0  0  0  0  0  0  0  0  0  0  0  0
   20.9124   -6.6513  -16.7341 O   0  0  0  0  0  0  0  0  0  0  0  0
   19.5411   -1.7008  -15.8342 N   0  0  0  0  0  0  0  0  0  0  0  0
   18.5368   -2.4002  -15.0666 C   0  0  0  0  0  0  0  0  0  0  0  0
   17.5576   -1.7080  -14.7276 O   0  0  0  0  0  0  0  0  0  0  0  0
   18.6989   -3.8175  -14.7343 C   0  0  0  0  0  0  0  0  0  0  0  0
   19.9462   -4.4767  -15.2402 C   0  0  2  0  0  0  0  0  0  0  0  0
   19.9977   -5.8551  -14.7645 N   0  0  0  0  0  0  0  0  0  0  0  0
   21.1658   -3.7428  -14.8663 C   0  0  0  0  0  0  0  0  0  0  0  0
   21.7757   -3.8754  -13.7961 O   0  0  0  0  0  0  0  0  0  0  0  0
   21.7438   -2.7962  -15.7443 O   0  0  0  0  0  0  0  0  0  0  0  0
  2  3  1  0
  2  1  1  1
  3  4  1  0
  4  5  2  0
  4  8  1  0
  6  2  1  0
  7  6  2  0
  9 10  1  0
 11 10  1  0
 11 13  1  0
 11 12  1  1
 13 15  1  0
 13 14  1  6
 14  6  1  0
 15 16  2  0
 18 17  1  0
 18 19  2  0
 21 20  1  1
 20 18  1  0
 22 21  1  0
 22 15  1  0
 23 21  1  0
 24 23  2  0
 25 23  1  0
M  END
$$$$
