DIN.pdb
     RDKit          3D

 25 24  0  0  1  0  0  0  0  0999 V2000
   14.6272  -14.2177  -14.2619 N   0  0  0  0  0  0  0  0  0  0  0  0
   14.5439  -13.1005  -15.1862 C   0  0  1  0  0  0  0  0  0  0  0  0
   13.2469  -12.3405  -15.0108 C   0  0  0  0  0  0  0  0  0  0  0  0
   12.0701  -13.1995  -15.2990 C   0  0  0  0  0  0  0  0  0  0  0  0
   11.9855  -13.9797  -16.2807 O   0  0  0  0  0  0  0  0  0  0  0  0
   15.7238  -12.2464  -14.9767 C   0  0  0  0  0  0  0  0  0  0  0  0
   16.0193  -11.7566  -13.8358 O   0  0  0  0  0  0  0  0  0  0  0  0
   10.9970  -13.1284  -14.4188 O   0  0  0  0  0  0  0  0  0  0  0  0
   20.5636  -13.4317  -17.0291 C   0  0  0  0  0  0  0  0  0  0  0  0
   19.3867  -13.0350  -16.1417 C   0  0  0  0  0  0  0  0  0  0  0  0
   18.9820  -11.6574  -16.5271 C   0  0  2  0  0  0  0  0  0  0  0  0
   20.1921  -10.7356  -16.3207 C   0  0  0  0  0  0  0  0  0  0  0  0
   17.7992  -11.0895  -15.8073 C   0  0  2  0  0  0  0  0  0  0  0  0
   16.6159  -11.9079  -16.0314 N   0  0  0  0  0  0  0  0  0  0  0  0
   17.5389   -9.6731  -16.1526 C   0  0  0  0  0  0  0  0  0  0  0  0
   17.2285   -9.4068  -17.3606 O   0  0  0  0  0  0  0  0  0  0  0  0
   16.8530   -4.4226  -15.7197 N   0  0  0  0  0  0  0  0  0  0  0  0
   15.9875   -5.2584  -14.9201 C   0  0  0  0  0  0  0  0  0  0  0  0
   15.0492   -4.6596  -14.3599 O   0  0  0  0  0  0  0  0  0  0  0  0
   16.2325   -6.6979  -14.8046 C   0  0  0  0  0  0  0  0  0  0  0  0
   17.3935   -7.2357  -15.5850 C   0  0  2  0  0  0  0  0  0  0  0  0
   17.6251   -8.6290  -15.2187 N   0  0  0  0  0  0  0  0  0  0  0  0
   18.6144   -6.4331  -15.4087 C   0  0  0  0  0  0  0  0  0  0  0  0
   19.5442   -6.7123  -14.6390 O   0  0  0  0  0  0  0  0  0  0  0  0
   18.8115   -5.2377  -16.1389 O   0  0  0  0  0  0  0  0  0  0  0  0
  2  3  1  0
  2  1  1  1
  3  4  1  0
  4  5  2  0
  4  8  1  0
  6  2  1  0
  7  6  2  0
  9 10  1  0
 11 10  1  0
 11 13  1  0
 11 12  1  1
 13 15  1  0
 13 14  1  6
 14  6  1  0
 15 16  2  0
 18 17  1  0
 18 19  2  0
 21 20  1  1
 20 18  1  0
 22 21  1  0
 22 15  1  0
 23 21  1  0
 24 23  2  0
 25 23  1  0
M  END
$$$$
