DIN.pdb
     RDKit          3D

 25 24  0  0  1  0  0  0  0  0999 V2000
   17.7685  -12.6291  -16.4930 N   0  0  0  0  0  0  0  0  0  0  0  0
   18.5133  -11.5737  -17.1570 C   0  0  1  0  0  0  0  0  0  0  0  0
   17.6476  -10.8391  -18.1577 C   0  0  0  0  0  0  0  0  0  0  0  0
   17.2150  -11.7331  -19.2620 C   0  0  0  0  0  0  0  0  0  0  0  0
   16.0653  -11.7273  -19.7696 O   0  0  0  0  0  0  0  0  0  0  0  0
   19.0541  -10.6772  -16.1228 C   0  0  0  0  0  0  0  0  0  0  0  0
   18.3801  -10.3348  -15.0945 O   0  0  0  0  0  0  0  0  0  0  0  0
   18.1511  -12.6317  -19.7598 O   0  0  0  0  0  0  0  0  0  0  0  0
   24.1210  -11.1366  -14.3831 C   0  0  0  0  0  0  0  0  0  0  0  0
   22.6089  -11.0019  -14.5424 C   0  0  0  0  0  0  0  0  0  0  0  0
   22.3193   -9.5793  -14.8630 C   0  0  2  0  0  0  0  0  0  0  0  0
   22.7982   -8.7232  -13.6822 C   0  0  0  0  0  0  0  0  0  0  0  0
   20.8922   -9.2473  -15.1679 C   0  0  2  0  0  0  0  0  0  0  0  0
   20.3648  -10.1306  -16.1985 N   0  0  0  0  0  0  0  0  0  0  0  0
   20.6962   -7.8260  -15.5350 C   0  0  0  0  0  0  0  0  0  0  0  0
   21.5224   -7.3088  -16.3576 O   0  0  0  0  0  0  0  0  0  0  0  0
   18.3492   -4.3551  -18.9562 N   0  0  0  0  0  0  0  0  0  0  0  0
   18.7991   -4.4234  -17.5851 C   0  0  0  0  0  0  0  0  0  0  0  0
   18.8898   -3.3236  -17.0061 O   0  0  0  0  0  0  0  0  0  0  0  0
   19.1143   -5.7112  -16.9624 C   0  0  0  0  0  0  0  0  0  0  0  0
   19.3974   -5.6824  -15.4909 C   0  0  2  0  0  0  0  0  0  0  0  0
   19.6572   -7.0375  -15.0168 N   0  0  0  0  0  0  0  0  0  0  0  0
   18.3154   -5.0507  -14.7188 C   0  0  0  0  0  0  0  0  0  0  0  0
   18.2353   -3.8406  -14.4655 O   0  0  0  0  0  0  0  0  0  0  0  0
   17.2516   -5.8202  -14.1924 O   0  0  0  0  0  0  0  0  0  0  0  0
  2  3  1  0
  2  1  1  1
  3  4  1  0
  4  5  2  0
  4  8  1  0
  6  2  1  0
  7  6  2  0
  9 10  1  0
 11 10  1  0
 11 13  1  0
 11 12  1  1
 13 15  1  0
 13 14  1  6
 14  6  1  0
 15 16  2  0
 18 17  1  0
 18 19  2  0
 21 20  1  6
 20 18  1  0
 22 21  1  0
 22 15  1  0
 23 21  1  0
 24 23  2  0
 25 23  1  0
M  END
$$$$
