DIN.pdb
     RDKit          3D

 25 24  0  0  1  0  0  0  0  0999 V2000
   18.1350  -12.6162  -17.7169 N   0  0  0  0  0  0  0  0  0  0  0  0
   19.0198  -11.5434  -18.1362 C   0  0  1  0  0  0  0  0  0  0  0  0
   18.2810  -10.5189  -18.9700 C   0  0  0  0  0  0  0  0  0  0  0  0
   17.7926  -11.1050  -20.2443 C   0  0  0  0  0  0  0  0  0  0  0  0
   18.2430  -12.1599  -20.7578 O   0  0  0  0  0  0  0  0  0  0  0  0
   19.6226  -10.9521  -16.9309 C   0  0  0  0  0  0  0  0  0  0  0  0
   19.0366  -10.9646  -15.7971 O   0  0  0  0  0  0  0  0  0  0  0  0
   16.7695  -10.4348  -20.9044 O   0  0  0  0  0  0  0  0  0  0  0  0
   22.7099  -10.4395  -12.9363 C   0  0  0  0  0  0  0  0  0  0  0  0
   23.4425   -9.9034  -14.1633 C   0  0  0  0  0  0  0  0  0  0  0  0
   22.7421  -10.4276  -15.3653 C   0  0  2  0  0  0  0  0  0  0  0  0
   23.7279  -10.3846  -16.5413 C   0  0  0  0  0  0  0  0  0  0  0  0
   21.4785   -9.7258  -15.7533 C   0  0  2  0  0  0  0  0  0  0  0  0
   20.8994  -10.3260  -16.9469 N   0  0  0  0  0  0  0  0  0  0  0  0
   21.6590   -8.2662  -15.9266 C   0  0  0  0  0  0  0  0  0  0  0  0
   22.2724   -7.8664  -16.9709 O   0  0  0  0  0  0  0  0  0  0  0  0
   21.3158   -3.0362  -15.4777 N   0  0  0  0  0  0  0  0  0  0  0  0
   20.1061   -3.7905  -15.7118 C   0  0  0  0  0  0  0  0  0  0  0  0
   19.1154   -3.1078  -16.0363 O   0  0  0  0  0  0  0  0  0  0  0  0
   20.0910   -5.2479  -15.5668 C   0  0  0  0  0  0  0  0  0  0  0  0
   21.3907   -5.8875  -15.1820 C   0  0  2  0  0  0  0  0  0  0  0  0
   21.1941   -7.3216  -14.9984 N   0  0  0  0  0  0  0  0  0  0  0  0
   21.9882   -5.2783  -13.9830 C   0  0  0  0  0  0  0  0  0  0  0  0
   21.8705   -5.7150  -12.8296 O   0  0  0  0  0  0  0  0  0  0  0  0
   22.7684   -4.1021  -14.0759 O   0  0  0  0  0  0  0  0  0  0  0  0
  2  3  1  0
  2  1  1  1
  3  4  1  0
  4  5  2  0
  4  8  1  0
  6  2  1  0
  7  6  2  0
  9 10  1  0
 11 10  1  0
 11 13  1  0
 11 12  1  6
 13 15  1  0
 13 14  1  6
 14  6  1  0
 15 16  2  0
 18 17  1  0
 18 19  2  0
 21 20  1  1
 20 18  1  0
 22 21  1  0
 22 15  1  0
 23 21  1  0
 24 23  2  0
 25 23  1  0
M  END
$$$$
