DIN.pdb
     RDKit          3D

 25 24  0  0  1  0  0  0  0  0999 V2000
   19.5579  -12.9024  -15.6836 N   0  0  0  0  0  0  0  0  0  0  0  0
   19.8884  -11.8861  -16.6671 C   0  0  1  0  0  0  0  0  0  0  0  0
   18.6463  -11.3751  -17.3647 C   0  0  0  0  0  0  0  0  0  0  0  0
   18.0081  -12.4359  -18.1851 C   0  0  0  0  0  0  0  0  0  0  0  0
   17.3586  -13.4027  -17.7129 O   0  0  0  0  0  0  0  0  0  0  0  0
   20.6259  -10.8120  -15.9829 C   0  0  0  0  0  0  0  0  0  0  0  0
   20.2210  -10.2944  -14.8888 O   0  0  0  0  0  0  0  0  0  0  0  0
   18.1438  -12.3440  -19.5652 O   0  0  0  0  0  0  0  0  0  0  0  0
   25.9879  -10.7060  -15.2188 C   0  0  0  0  0  0  0  0  0  0  0  0
   24.4699  -10.6307  -15.0782 C   0  0  0  0  0  0  0  0  0  0  0  0
   24.0130   -9.4238  -15.8163 C   0  0  2  0  0  0  0  0  0  0  0  0
   24.7203   -8.2041  -15.2092 C   0  0  0  0  0  0  0  0  0  0  0  0
   22.5365   -9.1801  -15.8362 C   0  0  2  0  0  0  0  0  0  0  0  0
   21.8404  -10.2769  -16.4940 N   0  0  0  0  0  0  0  0  0  0  0  0
   22.1745   -7.8796  -16.4453 C   0  0  0  0  0  0  0  0  0  0  0  0
   22.5893   -7.6453  -17.6284 O   0  0  0  0  0  0  0  0  0  0  0  0
   19.9011   -3.2222  -17.4365 N   0  0  0  0  0  0  0  0  0  0  0  0
   19.0894   -4.4159  -17.3809 C   0  0  0  0  0  0  0  0  0  0  0  0
   17.9438   -4.2954  -17.8564 O   0  0  0  0  0  0  0  0  0  0  0  0
   19.6146   -5.6536  -16.7998 C   0  0  0  0  0  0  0  0  0  0  0  0
   21.0588   -5.6352  -16.3993 C   0  0  2  0  0  0  0  0  0  0  0  0
   21.4102   -6.9086  -15.7798 N   0  0  0  0  0  0  0  0  0  0  0  0
   21.3856   -4.5077  -15.5117 C   0  0  0  0  0  0  0  0  0  0  0  0
   21.2086   -3.3125  -15.7857 O   0  0  0  0  0  0  0  0  0  0  0  0
   21.9489   -4.7275  -14.2329 O   0  0  0  0  0  0  0  0  0  0  0  0
  2  3  1  0
  2  1  1  1
  3  4  1  0
  4  5  2  0
  4  8  1  0
  6  2  1  0
  7  6  2  0
  9 10  1  0
 11 10  1  0
 11 13  1  0
 11 12  1  1
 13 15  1  0
 13 14  1  6
 14  6  1  0
 15 16  2  0
 18 17  1  0
 18 19  2  0
 21 20  1  1
 20 18  1  0
 22 21  1  0
 22 15  1  0
 23 21  1  0
 24 23  2  0
 25 23  1  0
M  END
$$$$
