DIN.pdb
     RDKit          3D

 25 24  0  0  1  0  0  0  0  0999 V2000
   20.3086  -20.2099  -13.1432 N   0  0  0  0  0  0  0  0  0  0  0  0
   21.2719  -21.2958  -13.1909 C   0  0  1  0  0  0  0  0  0  0  0  0
   21.1133  -22.1130  -14.4549 C   0  0  0  0  0  0  0  0  0  0  0  0
   19.8107  -22.8259  -14.4817 C   0  0  0  0  0  0  0  0  0  0  0  0
   18.9076  -22.6847  -13.6192 O   0  0  0  0  0  0  0  0  0  0  0  0
   22.6188  -20.7163  -13.0664 C   0  0  0  0  0  0  0  0  0  0  0  0
   22.9345  -19.5999  -13.5983 O   0  0  0  0  0  0  0  0  0  0  0  0
   19.5856  -23.7049  -15.5345 O   0  0  0  0  0  0  0  0  0  0  0  0
   25.4643  -21.0051   -8.4507 C   0  0  0  0  0  0  0  0  0  0  0  0
   24.7631  -20.5454   -9.7262 C   0  0  0  0  0  0  0  0  0  0  0  0
   25.5702  -21.0282  -10.8776 C   0  0  2  0  0  0  0  0  0  0  0  0
   26.9561  -20.3740  -10.7890 C   0  0  0  0  0  0  0  0  0  0  0  0
   24.9944  -20.7848  -12.2373 C   0  0  2  0  0  0  0  0  0  0  0  0
   23.6613  -21.3607  -12.3449 N   0  0  0  0  0  0  0  0  0  0  0  0
   25.8709  -21.2661  -13.3297 C   0  0  0  0  0  0  0  0  0  0  0  0
   26.2929  -22.4677  -13.2628 O   0  0  0  0  0  0  0  0  0  0  0  0
   25.8330  -22.9023  -18.5092 N   0  0  0  0  0  0  0  0  0  0  0  0
   26.6712  -22.7956  -17.3374 C   0  0  0  0  0  0  0  0  0  0  0  0
   27.8223  -23.2539  -17.4709 O   0  0  0  0  0  0  0  0  0  0  0  0
   26.1642  -22.1867  -16.1055 C   0  0  0  0  0  0  0  0  0  0  0  0
   26.9303  -21.0075  -15.5870 C   0  0  2  0  0  0  0  0  0  0  0  0
   26.2537  -20.4624  -14.4148 N   0  0  0  0  0  0  0  0  0  0  0  0
   27.1329  -19.9697  -16.6105 C   0  0  0  0  0  0  0  0  0  0  0  0
   28.1216  -19.8857  -17.3523 O   0  0  0  0  0  0  0  0  0  0  0  0
   26.1686  -18.9563  -16.8205 O   0  0  0  0  0  0  0  0  0  0  0  0
  2  3  1  0
  2  1  1  6
  3  4  1  0
  4  5  2  0
  4  8  1  0
  6  2  1  0
  7  6  2  0
  9 10  1  0
 11 10  1  0
 11 13  1  0
 11 12  1  6
 13 15  1  0
 13 14  1  1
 14  6  1  0
 15 16  2  0
 18 17  1  0
 18 19  2  0
 21 20  1  6
 20 18  1  0
 22 21  1  0
 22 15  1  0
 23 21  1  0
 24 23  2  0
 25 23  1  0
M  END
$$$$
