DIN.pdb
     RDKit          3D

 25 24  0  0  1  0  0  0  0  0999 V2000
   23.8479  -12.0636  -20.9880 N   0  0  0  0  0  0  0  0  0  0  0  0
   24.5481  -10.8428  -20.6291 C   0  0  1  0  0  0  0  0  0  0  0  0
   24.1278   -9.6901  -21.5151 C   0  0  0  0  0  0  0  0  0  0  0  0
   24.5324   -9.9136  -22.9266 C   0  0  0  0  0  0  0  0  0  0  0  0
   24.0869   -9.2605  -23.9035 O   0  0  0  0  0  0  0  0  0  0  0  0
   24.2939  -10.5733  -19.2048 C   0  0  0  0  0  0  0  0  0  0  0  0
   23.1751  -10.8343  -18.6488 O   0  0  0  0  0  0  0  0  0  0  0  0
   25.4660  -10.9134  -23.1724 O   0  0  0  0  0  0  0  0  0  0  0  0
   27.9397  -12.0590  -15.6718 C   0  0  0  0  0  0  0  0  0  0  0  0
   26.6352  -11.7945  -16.4188 C   0  0  0  0  0  0  0  0  0  0  0  0
   26.2482  -10.3836  -16.1547 C   0  0  2  0  0  0  0  0  0  0  0  0
   25.9831  -10.2415  -14.6494 C   0  0  0  0  0  0  0  0  0  0  0  0
   25.0673   -9.8680  -16.9158 C   0  0  2  0  0  0  0  0  0  0  0  0
   25.2776  -10.0034  -18.3503 N   0  0  0  0  0  0  0  0  0  0  0  0
   24.7149   -8.4744  -16.5596 C   0  0  0  0  0  0  0  0  0  0  0  0
   25.5164   -7.5510  -16.9225 O   0  0  0  0  0  0  0  0  0  0  0  0
   22.1857   -4.0493  -15.6672 N   0  0  0  0  0  0  0  0  0  0  0  0
   22.4456   -4.7077  -16.9265 C   0  0  0  0  0  0  0  0  0  0  0  0
   22.2073   -4.0201  -17.9382 O   0  0  0  0  0  0  0  0  0  0  0  0
   22.9509   -6.0820  -16.9642 C   0  0  0  0  0  0  0  0  0  0  0  0
   23.1441   -6.7520  -15.6376 C   0  0  2  0  0  0  0  0  0  0  0  0
   23.5553   -8.1365  -15.8448 N   0  0  0  0  0  0  0  0  0  0  0  0
   21.9456   -6.6784  -14.7865 C   0  0  0  0  0  0  0  0  0  0  0  0
   21.1343   -7.5997  -14.6196 O   0  0  0  0  0  0  0  0  0  0  0  0
   21.6297   -5.4976  -14.0746 O   0  0  0  0  0  0  0  0  0  0  0  0
  2  3  1  0
  2  1  1  6
  3  4  1  0
  4  5  2  0
  4  8  1  0
  6  2  1  0
  7  6  2  0
  9 10  1  0
 11 10  1  0
 11 13  1  0
 11 12  1  1
 13 15  1  0
 13 14  1  6
 14  6  1  0
 15 16  2  0
 18 17  1  0
 18 19  2  0
 21 20  1  6
 20 18  1  0
 22 21  1  0
 22 15  1  0
 23 21  1  0
 24 23  2  0
 25 23  1  0
M  END
$$$$
