QWP.pdb
     RDKit          3D

 31 33  0  0  1  0  0  0  0  0999 V2000
   13.2129  -21.3012    7.7192 N   0  0  0  0  0  0  0  0  0  0  0  0
   12.9592  -21.3148    6.3047 C   0  0  0  0  0  0  0  0  0  0  0  0
   12.0819  -22.1182    5.9247 O   0  0  0  0  0  0  0  0  0  0  0  0
   13.6784  -20.4523    5.3687 C   0  0  0  0  0  0  0  0  0  0  0  0
   14.7185  -19.5528    5.9579 C   0  0  0  0  0  0  0  0  0  0  0  0
   15.3485  -18.6963    4.9232 C   0  0  2  0  0  0  0  0  0  0  0  0
   15.4763  -19.2354    3.6201 N   0  0  0  0  0  0  0  0  0  0  0  0
   16.6644  -18.1519    5.3690 C   0  0  0  0  0  0  0  0  0  0  0  0
   17.6859  -18.5174    4.7432 O   0  0  0  0  0  0  0  0  0  0  0  0
   16.7750  -17.2570    6.4537 N   0  0  0  0  0  0  0  0  0  0  0  0
   18.1546  -16.8290    6.8716 C   0  0  1  0  0  0  0  0  0  0  0  0
   18.0006  -15.4342    7.4250 C   0  0  0  0  0  0  0  0  0  0  0  0
   18.0938  -14.3451    6.4660 C   0  0  0  0  0  0  0  0  0  0  0  0
   17.1874  -13.9430    5.4955 C   0  0  0  0  0  0  0  0  0  0  0  0
   17.6835  -12.8995    4.8193 N   0  0  0  0  0  0  0  0  0  0  0  0
   18.9101  -12.5646    5.2931 C   0  0  0  0  0  0  0  0  0  0  0  0
   19.8080  -11.5845    4.9376 C   0  0  0  0  0  0  0  0  0  0  0  0
   20.9910  -11.5104    5.6322 C   0  0  0  0  0  0  0  0  0  0  0  0
   21.2916  -12.3894    6.6667 C   0  0  0  0  0  0  0  0  0  0  0  0
   20.3765  -13.3572    6.9994 C   0  0  0  0  0  0  0  0  0  0  0  0
   19.1727  -13.4621    6.3207 C   0  0  0  0  0  0  0  0  0  0  0  0
   18.5689  -17.7614    7.9332 C   0  0  0  0  0  0  0  0  0  0  0  0
   17.6155  -18.3154    8.6274 O   0  0  0  0  0  0  0  0  0  0  0  0
   19.8532  -18.1530    8.3114 N   0  0  0  0  0  0  0  0  0  0  0  0
   21.1086  -17.6122    7.7559 C   0  0  0  0  0  0  0  0  0  0  0  0
   22.1754  -18.6285    8.0324 C   0  0  0  0  0  0  0  0  0  0  0  0
   21.4856  -19.7763    8.7384 C   0  0  0  0  0  0  0  0  0  0  0  0
   20.2731  -19.0722    9.3173 C   0  0  1  0  0  0  0  0  0  0  0  0
   20.7853  -18.3573   10.5352 C   0  0  0  0  0  0  0  0  0  0  0  0
   20.9743  -17.1239   10.5587 O   0  0  0  0  0  0  0  0  0  0  0  0
   21.0508  -19.1159   11.6624 O   0  0  0  0  0  0  0  0  0  0  0  0
  2  1  1  0
  3  2  2  0
  4  2  1  0
  5  4  1  0
  6  5  1  0
  6  7  1  6
  8  6  1  0
  8  9  2  0
 10  8  1  0
 11 10  1  0
 11 12  1  1
 13 12  1  0
 13 14  2  0
 15 14  1  0
 16 21  2  0
 16 15  1  0
 17 16  1  0
 18 19  1  0
 18 17  2  0
 19 20  2  0
 20 21  1  0
 21 13  1  0
 22 11  1  0
 23 22  2  0
 24 22  1  0
 24 25  1  0
 26 25  1  0
 27 28  1  0
 27 26  1  0
 28 24  1  0
 28 29  1  1
 30 29  2  0
 31 29  1  0
M  END
$$$$
