QWP.pdb
     RDKit          3D

 31 33  0  0  1  0  0  0  0  0999 V2000
   15.9720  -21.6445   -1.1516 N   0  0  0  0  0  0  0  0  0  0  0  0
   15.7604  -22.5659   -0.0692 C   0  0  0  0  0  0  0  0  0  0  0  0
   15.9385  -23.7703   -0.3473 O   0  0  0  0  0  0  0  0  0  0  0  0
   15.3600  -22.1298    1.2675 C   0  0  0  0  0  0  0  0  0  0  0  0
   15.0589  -20.6733    1.4295 C   0  0  0  0  0  0  0  0  0  0  0  0
   14.9080  -20.3033    2.8582 C   0  0  2  0  0  0  0  0  0  0  0  0
   13.9793  -19.2815    3.1723 N   0  0  0  0  0  0  0  0  0  0  0  0
   16.2195  -20.0002    3.5021 C   0  0  0  0  0  0  0  0  0  0  0  0
   17.1708  -20.7837    3.2787 O   0  0  0  0  0  0  0  0  0  0  0  0
   16.4019  -18.8769    4.3355 N   0  0  0  0  0  0  0  0  0  0  0  0
   17.7895  -18.5986    4.8436 C   0  0  1  0  0  0  0  0  0  0  0  0
   17.8212  -17.1245    5.1617 C   0  0  0  0  0  0  0  0  0  0  0  0
   17.9965  -16.2240    4.0335 C   0  0  0  0  0  0  0  0  0  0  0  0
   17.8149  -16.4604    2.6785 C   0  0  0  0  0  0  0  0  0  0  0  0
   18.1039  -15.3527    1.9844 N   0  0  0  0  0  0  0  0  0  0  0  0
   18.4813  -14.3522    2.8197 C   0  0  0  0  0  0  0  0  0  0  0  0
   18.8680  -13.0509    2.5960 C   0  0  0  0  0  0  0  0  0  0  0  0
   19.1947  -12.2786    3.6842 C   0  0  0  0  0  0  0  0  0  0  0  0
   19.1429  -12.7774    4.9810 C   0  0  0  0  0  0  0  0  0  0  0  0
   18.7535  -14.0797    5.1738 C   0  0  0  0  0  0  0  0  0  0  0  0
   18.4166  -14.8884    4.0999 C   0  0  0  0  0  0  0  0  0  0  0  0
   17.9431  -19.3944    6.0729 C   0  0  0  0  0  0  0  0  0  0  0  0
   16.8519  -19.6680    6.7304 O   0  0  0  0  0  0  0  0  0  0  0  0
   19.1027  -19.9143    6.6480 N   0  0  0  0  0  0  0  0  0  0  0  0
   20.4691  -19.7419    6.1184 C   0  0  0  0  0  0  0  0  0  0  0  0
   21.3000  -20.8447    6.7024 C   0  0  0  0  0  0  0  0  0  0  0  0
   20.3606  -21.6661    7.5594 C   0  0  0  0  0  0  0  0  0  0  0  0
   19.2774  -20.6472    7.8585 C   0  0  1  0  0  0  0  0  0  0  0  0
   19.8484  -19.7829    8.9464 C   0  0  0  0  0  0  0  0  0  0  0  0
   20.0299  -20.2002   10.1084 O   0  0  0  0  0  0  0  0  0  0  0  0
   20.1785  -18.4775    8.6245 O   0  0  0  0  0  0  0  0  0  0  0  0
  2  1  1  0
  3  2  2  0
  4  2  1  0
  5  4  1  0
  6  5  1  0
  6  7  1  6
  8  6  1  0
  8  9  2  0
 10  8  1  0
 11 10  1  0
 11 12  1  1
 13 12  1  0
 13 14  2  0
 15 14  1  0
 16 21  2  0
 16 15  1  0
 17 16  1  0
 18 19  1  0
 18 17  2  0
 19 20  2  0
 20 21  1  0
 21 13  1  0
 22 11  1  0
 23 22  2  0
 24 22  1  0
 24 25  1  0
 26 25  1  0
 27 28  1  0
 27 26  1  0
 28 24  1  0
 28 29  1  1
 30 29  2  0
 31 29  1  0
M  END
$$$$
