QWP.pdb
     RDKit          3D

 31 33  0  0  1  0  0  0  0  0999 V2000
   23.5356  -20.0722  -16.3012 N   0  0  0  0  0  0  0  0  0  0  0  0
   22.3531  -19.8375  -15.5190 C   0  0  0  0  0  0  0  0  0  0  0  0
   21.2709  -19.9961  -16.1219 O   0  0  0  0  0  0  0  0  0  0  0  0
   22.4065  -19.4362  -14.1143 C   0  0  0  0  0  0  0  0  0  0  0  0
   23.7692  -19.3122  -13.5093 C   0  0  0  0  0  0  0  0  0  0  0  0
   24.0082  -20.3580  -12.4846 C   0  0  2  0  0  0  0  0  0  0  0  0
   22.9009  -20.7721  -11.7052 N   0  0  0  0  0  0  0  0  0  0  0  0
   25.1496  -20.0148  -11.5867 C   0  0  0  0  0  0  0  0  0  0  0  0
   26.0215  -19.2323  -12.0293 O   0  0  0  0  0  0  0  0  0  0  0  0
   25.2607  -20.5422  -10.2832 N   0  0  0  0  0  0  0  0  0  0  0  0
   26.5293  -20.2709   -9.5228 C   0  0  1  0  0  0  0  0  0  0  0  0
   26.1249  -20.1742   -8.0729 C   0  0  0  0  0  0  0  0  0  0  0  0
   27.0184  -19.4277   -7.2017 C   0  0  0  0  0  0  0  0  0  0  0  0
   27.3605  -18.0833   -7.2306 C   0  0  0  0  0  0  0  0  0  0  0  0
   28.2314  -17.8181   -6.2490 N   0  0  0  0  0  0  0  0  0  0  0  0
   28.5043  -18.9411   -5.5381 C   0  0  0  0  0  0  0  0  0  0  0  0
   29.3195  -19.1810   -4.4560 C   0  0  0  0  0  0  0  0  0  0  0  0
   29.3744  -20.4611   -3.9605 C   0  0  0  0  0  0  0  0  0  0  0  0
   28.6364  -21.4978   -4.5208 C   0  0  0  0  0  0  0  0  0  0  0  0
   27.8315  -21.2289   -5.5999 C   0  0  0  0  0  0  0  0  0  0  0  0
   27.7510  -19.9495   -6.1266 C   0  0  0  0  0  0  0  0  0  0  0  0
   27.3951  -21.4421   -9.7391 C   0  0  0  0  0  0  0  0  0  0  0  0
   26.7955  -22.5772   -9.9621 O   0  0  0  0  0  0  0  0  0  0  0  0
   28.7879  -21.5200   -9.7468 N   0  0  0  0  0  0  0  0  0  0  0  0
   29.7040  -20.4681   -9.2660 C   0  0  0  0  0  0  0  0  0  0  0  0
   31.0309  -20.7220   -9.9159 C   0  0  0  0  0  0  0  0  0  0  0  0
   30.8365  -21.9341  -10.8019 C   0  0  0  0  0  0  0  0  0  0  0  0
   29.6446  -22.5922  -10.1332 C   0  0  1  0  0  0  0  0  0  0  0  0
   30.2137  -23.2993   -8.9362 C   0  0  0  0  0  0  0  0  0  0  0  0
   30.0627  -22.8749   -7.7723 O   0  0  0  0  0  0  0  0  0  0  0  0
   30.9290  -24.4638   -9.1568 O   0  0  0  0  0  0  0  0  0  0  0  0
  2  1  1  0
  3  2  2  0
  4  2  1  0
  5  4  1  0
  6  5  1  0
  6  7  1  1
  8  6  1  0
  8  9  2  0
 10  8  1  0
 11 10  1  0
 11 12  1  1
 13 12  1  0
 13 14  2  0
 15 14  1  0
 16 21  2  0
 16 15  1  0
 17 16  1  0
 18 19  1  0
 18 17  2  0
 19 20  2  0
 20 21  1  0
 21 13  1  0
 22 11  1  0
 23 22  2  0
 24 22  1  0
 24 25  1  0
 26 25  1  0
 27 28  1  0
 27 26  1  0
 28 24  1  0
 28 29  1  1
 30 29  2  0
 31 29  1  0
M  END
$$$$
