QWP.pdb
     RDKit          3D

 31 33  0  0  1  0  0  0  0  0999 V2000
   27.4856  -17.9549  -18.5426 N   0  0  0  0  0  0  0  0  0  0  0  0
   28.2996  -18.7954  -19.3771 C   0  0  0  0  0  0  0  0  0  0  0  0
   28.9974  -18.1973  -20.2227 O   0  0  0  0  0  0  0  0  0  0  0  0
   28.3113  -20.2519  -19.2525 C   0  0  0  0  0  0  0  0  0  0  0  0
   27.5490  -20.8271  -18.1007 C   0  0  0  0  0  0  0  0  0  0  0  0
   28.4575  -21.3055  -17.0299 C   0  0  2  0  0  0  0  0  0  0  0  0
   29.3436  -22.3624  -17.3508 N   0  0  0  0  0  0  0  0  0  0  0  0
   27.7218  -21.6354  -15.7743 C   0  0  0  0  0  0  0  0  0  0  0  0
   27.0105  -22.6662  -15.7719 O   0  0  0  0  0  0  0  0  0  0  0  0
   27.8111  -20.8282  -14.6210 N   0  0  0  0  0  0  0  0  0  0  0  0
   26.9675  -21.2048  -13.4346 C   0  0  1  0  0  0  0  0  0  0  0  0
   27.5239  -20.4221  -12.2714 C   0  0  0  0  0  0  0  0  0  0  0  0
   26.8078  -20.5409  -11.0114 C   0  0  0  0  0  0  0  0  0  0  0  0
   25.4416  -20.5825  -10.7727 C   0  0  0  0  0  0  0  0  0  0  0  0
   25.2162  -20.6827   -9.4569 N   0  0  0  0  0  0  0  0  0  0  0  0
   26.3883  -20.7122   -8.7738 C   0  0  0  0  0  0  0  0  0  0  0  0
   26.6802  -20.8052   -7.4325 C   0  0  0  0  0  0  0  0  0  0  0  0
   28.0021  -20.8093   -7.0584 C   0  0  0  0  0  0  0  0  0  0  0  0
   29.0295  -20.7231   -7.9912 C   0  0  0  0  0  0  0  0  0  0  0  0
   28.7082  -20.6313   -9.3228 C   0  0  0  0  0  0  0  0  0  0  0  0
   27.3857  -20.6242   -9.7371 C   0  0  0  0  0  0  0  0  0  0  0  0
   25.5990  -20.7601  -13.7470 C   0  0  0  0  0  0  0  0  0  0  0  0
   25.4752  -19.5653  -14.2518 O   0  0  0  0  0  0  0  0  0  0  0  0
   24.3921  -21.4407  -13.5861 N   0  0  0  0  0  0  0  0  0  0  0  0
   24.2153  -22.6990  -12.8361 C   0  0  0  0  0  0  0  0  0  0  0  0
   22.9507  -23.3271  -13.3398 C   0  0  0  0  0  0  0  0  0  0  0  0
   22.4262  -22.4027  -14.4178 C   0  0  0  0  0  0  0  0  0  0  0  0
   23.0782  -21.0930  -14.0173 C   0  0  1  0  0  0  0  0  0  0  0  0
   22.2448  -20.5778  -12.8786 C   0  0  0  0  0  0  0  0  0  0  0  0
   22.6480  -20.5812  -11.6975 O   0  0  0  0  0  0  0  0  0  0  0  0
   20.9853  -20.0854  -13.1745 O   0  0  0  0  0  0  0  0  0  0  0  0
  2  1  1  0
  3  2  2  0
  4  2  1  0
  5  4  1  0
  6  5  1  0
  6  7  1  6
  8  6  1  0
  8  9  2  0
 10  8  1  0
 11 10  1  0
 11 12  1  1
 13 12  1  0
 13 14  2  0
 15 14  1  0
 16 21  2  0
 16 15  1  0
 17 16  1  0
 18 19  1  0
 18 17  2  0
 19 20  2  0
 20 21  1  0
 21 13  1  0
 22 11  1  0
 23 22  2  0
 24 22  1  0
 24 25  1  0
 26 25  1  0
 27 28  1  0
 27 26  1  0
 28 24  1  0
 28 29  1  1
 30 29  2  0
 31 29  1  0
M  END
$$$$
