LAC.pdb
     RDKit          3D

 20 19  0  0  1  0  0  0  0  0999 V2000
    5.8426  -12.6454   25.4547 C   0  0  0  0  0  0  0  0  0  0  0  0
    6.9999  -13.4190   26.0342 C   0  0  1  0  0  0  0  0  0  0  0  0
    7.5622  -12.6112   27.1811 C   0  0  0  0  0  0  0  0  0  0  0  0
    6.5721  -14.7593   26.5608 C   0  0  0  0  0  0  0  0  0  0  0  0
    6.3491  -15.7850   25.4730 C   0  0  2  0  0  0  0  0  0  0  0  0
    5.8095  -16.9938   26.0288 N   0  0  0  0  0  0  0  0  0  0  0  0
    7.6445  -16.0245   24.7816 C   0  0  0  0  0  0  0  0  0  0  0  0
    8.4067  -16.9586   25.1481 O   0  0  0  0  0  0  0  0  0  0  0  0
    9.3978  -14.7515   21.6657 C   0  0  0  0  0  0  0  0  0  0  0  0
    9.2575  -15.5995   22.9111 C   0  0  2  0  0  0  0  0  0  0  0  0
    8.1002  -15.2376   23.6891 N   0  0  0  0  0  0  0  0  0  0  0  0
   10.4929  -15.6529   23.6988 C   0  0  0  0  0  0  0  0  0  0  0  0
   11.5903  -15.8113   23.1217 O   0  0  0  0  0  0  0  0  0  0  0  0
   10.4510  -15.5275   25.0944 N   0  0  0  0  0  0  0  0  0  0  0  0
   11.5812  -15.7409   25.9691 C   0  0  1  0  0  0  0  0  0  0  0  0
   11.1113  -15.5097   27.3907 C   0  0  0  0  0  0  0  0  0  0  0  0
   10.5631  -13.8012   27.5345 S   0  0  0  0  0  0  0  0  0  0  0  0
   12.1925  -17.0630   25.8068 C   0  0  0  0  0  0  0  0  0  0  0  0
   11.6677  -17.8593   24.9864 O   0  0  0  0  0  0  0  0  0  0  0  0
   13.3139  -17.5096   26.4922 O   0  0  0  0  0  0  0  0  0  0  0  0
  2  4  1  0
  2  1  1  1
  3  2  1  0
  4  5  1  0
  5  7  1  0
  5  6  1  1
  7  8  2  0
 10  9  1  6
 10 12  1  0
 11 10  1  0
 11  7  1  0
 12 14  1  0
 13 12  2  0
 14 15  1  0
 15 16  1  1
 16 17  1  0
 18 20  1  0
 18 15  1  0
 19 18  2  0
M  END
$$$$
