LAC.pdb
     RDKit          3D

 20 19  0  0  1  0  0  0  0  0999 V2000
    8.1189  -12.5364   27.5409 C   0  0  0  0  0  0  0  0  0  0  0  0
    7.0641  -13.4393   26.9527 C   0  0  1  0  0  0  0  0  0  0  0  0
    6.1757  -12.5919   26.0713 C   0  0  0  0  0  0  0  0  0  0  0  0
    7.6640  -14.5317   26.1139 C   0  0  0  0  0  0  0  0  0  0  0  0
    6.6301  -15.3770   25.4055 C   0  0  2  0  0  0  0  0  0  0  0  0
    6.2702  -16.5079   26.2134 N   0  0  0  0  0  0  0  0  0  0  0  0
    7.1858  -15.7922   24.0893 C   0  0  0  0  0  0  0  0  0  0  0  0
    7.7087  -16.9290   23.9412 O   0  0  0  0  0  0  0  0  0  0  0  0
    7.3853  -14.4081   20.5587 C   0  0  0  0  0  0  0  0  0  0  0  0
    7.7008  -15.3849   21.6707 C   0  0  2  0  0  0  0  0  0  0  0  0
    7.1662  -14.9580   22.9386 N   0  0  0  0  0  0  0  0  0  0  0  0
    9.1237  -15.7331   21.7283 C   0  0  0  0  0  0  0  0  0  0  0  0
    9.7532  -15.9478   20.6698 O   0  0  0  0  0  0  0  0  0  0  0  0
    9.7824  -15.8267   22.9622 N   0  0  0  0  0  0  0  0  0  0  0  0
   11.1670  -16.2071   23.1235 C   0  0  1  0  0  0  0  0  0  0  0  0
   11.5031  -16.1019   24.5969 C   0  0  0  0  0  0  0  0  0  0  0  0
   10.9818  -14.4814   25.1819 S   0  0  0  0  0  0  0  0  0  0  0  0
   11.4628  -17.5406   22.5922 C   0  0  0  0  0  0  0  0  0  0  0  0
   10.5016  -18.2358   22.1738 O   0  0  0  0  0  0  0  0  0  0  0  0
   12.7301  -18.1016   22.5135 O   0  0  0  0  0  0  0  0  0  0  0  0
  2  4  1  0
  2  1  1  6
  3  2  1  0
  4  5  1  0
  5  7  1  0
  5  6  1  1
  7  8  2  0
 10  9  1  6
 10 12  1  0
 11 10  1  0
 11  7  1  0
 12 14  1  0
 13 12  2  0
 14 15  1  0
 15 16  1  1
 16 17  1  0
 18 20  1  0
 18 15  1  0
 19 18  2  0
M  END
$$$$
