LAC.pdb
     RDKit          3D

 20 19  0  0  1  0  0  0  0  0999 V2000
    7.5878  -12.0177   20.2454 C   0  0  0  0  0  0  0  0  0  0  0  0
    7.8255  -13.3916   19.6714 C   0  0  1  0  0  0  0  0  0  0  0  0
    8.9887  -13.2920   18.7118 C   0  0  0  0  0  0  0  0  0  0  0  0
    8.1713  -14.3931   20.7363 C   0  0  0  0  0  0  0  0  0  0  0  0
    8.3484  -15.7961   20.2021 C   0  0  2  0  0  0  0  0  0  0  0  0
    7.1440  -16.2426   19.5609 N   0  0  0  0  0  0  0  0  0  0  0  0
    8.7345  -16.6831   21.3325 C   0  0  0  0  0  0  0  0  0  0  0  0
    7.8946  -17.0023   22.2160 O   0  0  0  0  0  0  0  0  0  0  0  0
   11.7607  -18.6944   22.4282 C   0  0  0  0  0  0  0  0  0  0  0  0
   10.4000  -18.0566   22.6056 C   0  0  2  0  0  0  0  0  0  0  0  0
   10.0421  -17.2176   21.4904 N   0  0  0  0  0  0  0  0  0  0  0  0
   10.2545  -17.3904   23.9034 C   0  0  0  0  0  0  0  0  0  0  0  0
   10.8837  -16.3348   24.1329 O   0  0  0  0  0  0  0  0  0  0  0  0
    9.4148  -17.9294   24.8880 N   0  0  0  0  0  0  0  0  0  0  0  0
    9.3600  -17.4704   26.2571 C   0  0  1  0  0  0  0  0  0  0  0  0
    7.9115  -17.1681   26.5821 C   0  0  0  0  0  0  0  0  0  0  0  0
    7.3129  -15.9405   25.4097 S   0  0  0  0  0  0  0  0  0  0  0  0
    9.9431  -18.4224   27.2067 C   0  0  0  0  0  0  0  0  0  0  0  0
    9.9240  -18.1240   28.4285 O   0  0  0  0  0  0  0  0  0  0  0  0
   10.5194  -19.6372   26.8615 O   0  0  0  0  0  0  0  0  0  0  0  0
  2  4  1  0
  2  1  1  1
  3  2  1  0
  4  5  1  0
  5  7  1  0
  5  6  1  1
  7  8  2  0
 10  9  1  6
 10 12  1  0
 11 10  1  0
 11  7  1  0
 12 14  1  0
 13 12  2  0
 14 15  1  0
 15 16  1  1
 16 17  1  0
 18 20  1  0
 18 15  1  0
 19 18  2  0
M  END
$$$$
