LAC.pdb
     RDKit          3D

 20 19  0  0  1  0  0  0  0  0999 V2000
    6.0743  -11.7194   26.3408 C   0  0  0  0  0  0  0  0  0  0  0  0
    6.0113  -12.8773   25.3769 C   0  0  1  0  0  0  0  0  0  0  0  0
    6.2735  -12.3343   23.9912 C   0  0  0  0  0  0  0  0  0  0  0  0
    7.0481  -13.9202   25.6835 C   0  0  0  0  0  0  0  0  0  0  0  0
    6.9332  -15.1508   24.8131 C   0  0  2  0  0  0  0  0  0  0  0  0
    5.7350  -15.8762   25.1287 N   0  0  0  0  0  0  0  0  0  0  0  0
    8.1512  -15.9817   25.0125 C   0  0  0  0  0  0  0  0  0  0  0  0
    8.3066  -16.6532   26.0673 O   0  0  0  0  0  0  0  0  0  0  0  0
   11.2509  -16.9493   23.0412 C   0  0  0  0  0  0  0  0  0  0  0  0
   10.3694  -16.8806   24.2693 C   0  0  2  0  0  0  0  0  0  0  0  0
    9.1959  -16.0733   24.0531 N   0  0  0  0  0  0  0  0  0  0  0  0
   11.1135  -16.5114   25.4773 C   0  0  0  0  0  0  0  0  0  0  0  0
   11.6500  -15.3851   25.5555 O   0  0  0  0  0  0  0  0  0  0  0  0
   11.2268  -17.4131   26.5447 N   0  0  0  0  0  0  0  0  0  0  0  0
   11.7916  -17.0872   27.8342 C   0  0  1  0  0  0  0  0  0  0  0  0
   10.7211  -16.3777   28.6378 C   0  0  0  0  0  0  0  0  0  0  0  0
   11.5281  -15.2339   29.7695 S   0  0  0  0  0  0  0  0  0  0  0  0
   12.3185  -18.2565   28.5435 C   0  0  0  0  0  0  0  0  0  0  0  0
   11.7127  -19.3507   28.4093 O   0  0  0  0  0  0  0  0  0  0  0  0
   13.4424  -18.2519   29.3582 O   0  0  0  0  0  0  0  0  0  0  0  0
  2  4  1  0
  2  1  1  1
  3  2  1  0
  4  5  1  0
  5  7  1  0
  5  6  1  1
  7  8  2  0
 10  9  1  6
 10 12  1  0
 11 10  1  0
 11  7  1  0
 12 14  1  0
 13 12  2  0
 14 15  1  0
 15 16  1  1
 16 17  1  0
 18 20  1  0
 18 15  1  0
 19 18  2  0
M  END
$$$$
