LAC.pdb
     RDKit          3D

 20 19  0  0  1  0  0  0  0  0999 V2000
    7.3897  -12.2864   19.6679 C   0  0  0  0  0  0  0  0  0  0  0  0
    8.0562  -13.6287   19.5015 C   0  0  1  0  0  0  0  0  0  0  0  0
    9.4414  -13.3867   18.9478 C   0  0  0  0  0  0  0  0  0  0  0  0
    8.1868  -14.3569   20.8090 C   0  0  0  0  0  0  0  0  0  0  0  0
    8.9255  -15.6704   20.6901 C   0  0  2  0  0  0  0  0  0  0  0  0
    8.1490  -16.6141   19.9366 N   0  0  0  0  0  0  0  0  0  0  0  0
    9.2218  -16.1675   22.0608 C   0  0  0  0  0  0  0  0  0  0  0  0
    8.3019  -16.2934   22.9127 O   0  0  0  0  0  0  0  0  0  0  0  0
   11.9489  -18.0521   23.7827 C   0  0  0  0  0  0  0  0  0  0  0  0
   10.7784  -17.0930   23.7932 C   0  0  2  0  0  0  0  0  0  0  0  0
   10.5278  -16.5253   22.4930 N   0  0  0  0  0  0  0  0  0  0  0  0
   10.8829  -16.0877   24.8552 C   0  0  0  0  0  0  0  0  0  0  0  0
   11.5237  -15.0339   24.6511 O   0  0  0  0  0  0  0  0  0  0  0  0
   10.2691  -16.3007   26.0974 N   0  0  0  0  0  0  0  0  0  0  0  0
   10.3469  -15.3885   27.2153 C   0  0  1  0  0  0  0  0  0  0  0  0
    9.0318  -14.6401   27.2892 C   0  0  0  0  0  0  0  0  0  0  0  0
    9.1261  -13.4631   28.6478 S   0  0  0  0  0  0  0  0  0  0  0  0
   10.6648  -16.0556   28.4810 C   0  0  0  0  0  0  0  0  0  0  0  0
   10.2859  -17.2455   28.6324 O   0  0  0  0  0  0  0  0  0  0  0  0
   11.3564  -15.4734   29.5344 O   0  0  0  0  0  0  0  0  0  0  0  0
  2  4  1  0
  2  1  1  1
  3  2  1  0
  4  5  1  0
  5  7  1  0
  5  6  1  1
  7  8  2  0
 10  9  1  6
 10 12  1  0
 11 10  1  0
 11  7  1  0
 12 14  1  0
 13 12  2  0
 14 15  1  0
 15 16  1  1
 16 17  1  0
 18 20  1  0
 18 15  1  0
 19 18  2  0
M  END
$$$$
