LAC.pdb
     RDKit          3D

 20 19  0  0  1  0  0  0  0  0999 V2000
    6.3019  -12.5226   25.1085 C   0  0  0  0  0  0  0  0  0  0  0  0
    7.1778  -13.3601   26.0057 C   0  0  1  0  0  0  0  0  0  0  0  0
    7.4029  -12.5821   27.2817 C   0  0  0  0  0  0  0  0  0  0  0  0
    6.5332  -14.6712   26.3551 C   0  0  0  0  0  0  0  0  0  0  0  0
    6.3743  -15.5938   25.1682 C   0  0  2  0  0  0  0  0  0  0  0  0
    5.6086  -16.7519   25.5341 N   0  0  0  0  0  0  0  0  0  0  0  0
    7.7292  -15.9603   24.6744 C   0  0  0  0  0  0  0  0  0  0  0  0
    8.4246  -16.8189   25.2803 O   0  0  0  0  0  0  0  0  0  0  0  0
   10.0505  -14.9666   21.8319 C   0  0  0  0  0  0  0  0  0  0  0  0
    9.6506  -15.7166   23.0840 C   0  0  2  0  0  0  0  0  0  0  0  0
    8.3175  -15.3830   23.5164 N   0  0  0  0  0  0  0  0  0  0  0  0
   10.6510  -15.6077   24.1501 C   0  0  0  0  0  0  0  0  0  0  0  0
   11.7856  -15.1508   23.8919 O   0  0  0  0  0  0  0  0  0  0  0  0
   10.3434  -16.0125   25.4565 N   0  0  0  0  0  0  0  0  0  0  0  0
   11.0362  -15.5550   26.6391 C   0  0  1  0  0  0  0  0  0  0  0  0
   10.4051  -14.2444   27.0624 C   0  0  0  0  0  0  0  0  0  0  0  0
   11.2310  -13.6754   28.5571 S   0  0  0  0  0  0  0  0  0  0  0  0
   11.0293  -16.5379   27.7262 C   0  0  0  0  0  0  0  0  0  0  0  0
   11.7346  -16.3011   28.7405 O   0  0  0  0  0  0  0  0  0  0  0  0
   10.3000  -17.7190   27.7251 O   0  0  0  0  0  0  0  0  0  0  0  0
  2  4  1  0
  2  1  1  6
  3  2  1  0
  4  5  1  0
  5  7  1  0
  5  6  1  1
  7  8  2  0
 10  9  1  6
 10 12  1  0
 11 10  1  0
 11  7  1  0
 12 14  1  0
 13 12  2  0
 14 15  1  0
 15 16  1  1
 16 17  1  0
 18 20  1  0
 18 15  1  0
 19 18  2  0
M  END
$$$$
