LAC.pdb
     RDKit          3D

 20 19  0  0  1  0  0  0  0  0999 V2000
    5.9096  -11.9829   26.5761 C   0  0  0  0  0  0  0  0  0  0  0  0
    6.0912  -12.9294   25.4163 C   0  0  1  0  0  0  0  0  0  0  0  0
    6.8025  -12.1751   24.3168 C   0  0  0  0  0  0  0  0  0  0  0  0
    6.9234  -14.1228   25.7903 C   0  0  0  0  0  0  0  0  0  0  0  0
    6.8902  -15.2227   24.7538 C   0  0  2  0  0  0  0  0  0  0  0  0
    5.6891  -15.9979   24.8859 N   0  0  0  0  0  0  0  0  0  0  0  0
    8.1093  -16.0595   24.9188 C   0  0  0  0  0  0  0  0  0  0  0  0
    8.2750  -16.7583   25.9542 O   0  0  0  0  0  0  0  0  0  0  0  0
   11.2465  -16.8940   22.9441 C   0  0  0  0  0  0  0  0  0  0  0  0
   10.3674  -16.8523   24.1751 C   0  0  2  0  0  0  0  0  0  0  0  0
    9.1438  -16.1271   23.9464 N   0  0  0  0  0  0  0  0  0  0  0  0
   11.0913  -16.4074   25.3699 C   0  0  0  0  0  0  0  0  0  0  0  0
   11.7054  -15.3187   25.3537 O   0  0  0  0  0  0  0  0  0  0  0  0
   11.0989  -17.1948   26.5297 N   0  0  0  0  0  0  0  0  0  0  0  0
   11.5040  -16.7248   27.8347 C   0  0  1  0  0  0  0  0  0  0  0  0
   10.5924  -15.5750   28.2117 C   0  0  0  0  0  0  0  0  0  0  0  0
   11.3997  -14.6121   29.5005 S   0  0  0  0  0  0  0  0  0  0  0  0
   11.4989  -17.7790   28.8529 C   0  0  0  0  0  0  0  0  0  0  0  0
   10.7366  -18.7644   28.6784 O   0  0  0  0  0  0  0  0  0  0  0  0
   12.2750  -17.7761   30.0037 O   0  0  0  0  0  0  0  0  0  0  0  0
  2  4  1  0
  2  1  1  1
  3  2  1  0
  4  5  1  0
  5  7  1  0
  5  6  1  1
  7  8  2  0
 10  9  1  6
 10 12  1  0
 11 10  1  0
 11  7  1  0
 12 14  1  0
 13 12  2  0
 14 15  1  0
 15 16  1  1
 16 17  1  0
 18 20  1  0
 18 15  1  0
 19 18  2  0
M  END
$$$$
