GDE.pdb
     RDKit          3D

 22 21  0  0  1  0  0  0  0  0999 V2000
   13.8013  -11.2842  -15.9448 N   0  0  0  0  0  0  0  0  0  0  0  0
   14.1245  -10.1028  -16.7109 C   0  0  0  0  0  0  0  0  0  0  0  0
   15.3375   -9.4310  -16.1888 C   0  0  0  0  0  0  0  0  0  0  0  0
   15.2868   -8.8133  -15.1194 O   0  0  0  0  0  0  0  0  0  0  0  0
   16.5443   -9.4948  -16.9069 N   0  0  0  0  0  0  0  0  0  0  0  0
   17.7803   -8.8675  -16.4860 C   0  0  1  0  0  0  0  0  0  0  0  0
   18.9909   -9.5442  -17.0680 C   0  0  0  0  0  0  0  0  0  0  0  0
   20.2679   -9.0074  -16.6209 C   0  0  0  0  0  0  0  0  0  0  0  0
   20.3479   -8.5890  -15.4156 O   0  0  0  0  0  0  0  0  0  0  0  0
   17.7298   -7.4141  -16.7719 C   0  0  0  0  0  0  0  0  0  0  0  0
   16.9485   -6.9811  -17.6541 O   0  0  0  0  0  0  0  0  0  0  0  0
   21.4205   -8.9008  -17.3738 O   0  0  0  0  0  0  0  0  0  0  0  0
   18.5285   -6.4595  -16.0944 N   0  0  0  0  0  0  0  0  0  0  0  0
   18.3589   -5.0000  -16.3059 C   0  0  1  0  0  0  0  0  0  0  0  0
   16.9482   -4.7286  -15.9437 C   0  0  0  0  0  0  0  0  0  0  0  0
   16.4859   -3.3315  -15.7962 C   0  0  0  0  0  0  0  0  0  0  0  0
   15.1355   -3.1408  -15.2649 C   0  0  0  0  0  0  0  0  0  0  0  0
   14.3424   -4.1051  -15.1957 O   0  0  0  0  0  0  0  0  0  0  0  0
   19.4147   -4.2405  -15.6780 C   0  0  0  0  0  0  0  0  0  0  0  0
   19.5478   -2.8839  -15.9325 O   0  0  0  0  0  0  0  0  0  0  0  0
   14.7278   -1.8993  -14.8330 O   0  0  0  0  0  0  0  0  0  0  0  0
   20.2768   -4.7189  -14.8832 O   0  0  0  0  0  0  0  0  0  0  0  0
  2  1  1  0
  3  2  1  0
  4  3  2  0
  5  3  1  0
  6 10  1  0
  6  5  1  0
  6  7  1  6
  8  7  1  0
  9  8  2  0
 10 13  1  0
 11 10  2  0
 12  8  1  0
 13 14  1  0
 14 19  1  0
 14 15  1  1
 16 15  1  0
 16 17  1  0
 17 18  2  0
 19 22  2  0
 19 20  1  0
 21 17  1  0
M  END
$$$$
