GDE.pdb
     RDKit          3D

 22 21  0  0  1  0  0  0  0  0999 V2000
   28.7841  -10.9522  -18.0030 N   0  0  0  0  0  0  0  0  0  0  0  0
   30.1512  -10.5474  -18.2354 C   0  0  0  0  0  0  0  0  0  0  0  0
   30.4646   -9.2714  -17.5503 C   0  0  0  0  0  0  0  0  0  0  0  0
   29.5484   -8.5680  -17.1106 O   0  0  0  0  0  0  0  0  0  0  0  0
   31.8004   -8.8603  -17.4000 N   0  0  0  0  0  0  0  0  0  0  0  0
   32.2108   -7.6430  -16.7305 C   0  0  1  0  0  0  0  0  0  0  0  0
   33.4487   -7.8384  -15.8988 C   0  0  0  0  0  0  0  0  0  0  0  0
   33.8601   -6.6741  -15.1282 C   0  0  0  0  0  0  0  0  0  0  0  0
   35.1114   -6.5056  -14.9277 O   0  0  0  0  0  0  0  0  0  0  0  0
   32.3375   -6.5443  -17.7170 C   0  0  0  0  0  0  0  0  0  0  0  0
   33.0683   -6.6967  -18.7264 O   0  0  0  0  0  0  0  0  0  0  0  0
   33.0279   -5.7171  -14.5822 O   0  0  0  0  0  0  0  0  0  0  0  0
   31.6684   -5.3017  -17.5882 N   0  0  0  0  0  0  0  0  0  0  0  0
   31.8148   -4.2215  -18.5959 C   0  0  1  0  0  0  0  0  0  0  0  0
   30.4265   -3.8196  -18.9213 C   0  0  0  0  0  0  0  0  0  0  0  0
   30.1880   -2.6354  -19.7747 C   0  0  0  0  0  0  0  0  0  0  0  0
   28.7907   -2.2896  -20.0399 C   0  0  0  0  0  0  0  0  0  0  0  0
   28.4900   -1.1469  -20.4492 O   0  0  0  0  0  0  0  0  0  0  0  0
   32.7665   -3.2202  -18.1746 C   0  0  0  0  0  0  0  0  0  0  0  0
   32.8339   -2.8342  -16.8445 O   0  0  0  0  0  0  0  0  0  0  0  0
   27.7958   -3.2202  -19.8450 O   0  0  0  0  0  0  0  0  0  0  0  0
   33.5810   -2.6270  -18.9417 O   0  0  0  0  0  0  0  0  0  0  0  0
  2  1  1  0
  3  2  1  0
  4  3  2  0
  5  3  1  0
  6 10  1  0
  6  5  1  0
  6  7  1  6
  8  7  1  0
  9  8  2  0
 10 13  1  0
 11 10  2  0
 12  8  1  0
 13 14  1  0
 14 19  1  0
 14 15  1  1
 16 15  1  0
 16 17  1  0
 17 18  2  0
 19 22  2  0
 19 20  1  0
 21 17  1  0
M  END
$$$$
