GDE.pdb
     RDKit          3D

 22 21  0  0  1  0  0  0  0  0999 V2000
   23.0652  -10.9455  -16.7513 N   0  0  0  0  0  0  0  0  0  0  0  0
   21.8004  -11.4069  -17.2752 C   0  0  0  0  0  0  0  0  0  0  0  0
   20.7214  -10.4190  -17.0403 C   0  0  0  0  0  0  0  0  0  0  0  0
   20.7046   -9.3622  -17.6810 O   0  0  0  0  0  0  0  0  0  0  0  0
   19.7182  -10.6815  -16.0913 N   0  0  0  0  0  0  0  0  0  0  0  0
   18.5862   -9.8142  -15.8371 C   0  0  1  0  0  0  0  0  0  0  0  0
   17.4859  -10.5159  -15.0893 C   0  0  0  0  0  0  0  0  0  0  0  0
   16.8205  -11.5773  -15.8306 C   0  0  0  0  0  0  0  0  0  0  0  0
   17.0753  -12.7851  -15.4976 O   0  0  0  0  0  0  0  0  0  0  0  0
   19.0437   -8.5713  -15.1719 C   0  0  0  0  0  0  0  0  0  0  0  0
   19.9441   -8.6291  -14.2988 O   0  0  0  0  0  0  0  0  0  0  0  0
   15.9289  -11.4145  -16.8722 O   0  0  0  0  0  0  0  0  0  0  0  0
   18.5148   -7.2903  -15.4676 N   0  0  0  0  0  0  0  0  0  0  0  0
   19.2039   -6.0411  -15.0573 C   0  0  1  0  0  0  0  0  0  0  0  0
   20.5905   -6.1950  -15.5557 C   0  0  0  0  0  0  0  0  0  0  0  0
   21.5881   -5.1376  -15.2834 C   0  0  0  0  0  0  0  0  0  0  0  0
   22.1444   -5.0945  -13.9303 C   0  0  0  0  0  0  0  0  0  0  0  0
   23.0115   -5.9236  -13.5776 O   0  0  0  0  0  0  0  0  0  0  0  0
   18.4440   -4.8665  -15.4158 C   0  0  0  0  0  0  0  0  0  0  0  0
   17.8746   -4.7587  -16.6756 O   0  0  0  0  0  0  0  0  0  0  0  0
   21.7212   -4.1385  -13.0353 O   0  0  0  0  0  0  0  0  0  0  0  0
   18.2430   -3.8740  -14.6554 O   0  0  0  0  0  0  0  0  0  0  0  0
  2  1  1  0
  3  2  1  0
  4  3  2  0
  5  3  1  0
  6 10  1  0
  6  5  1  0
  6  7  1  1
  8  7  1  0
  9  8  2  0
 10 13  1  0
 11 10  2  0
 12  8  1  0
 13 14  1  0
 14 19  1  0
 14 15  1  6
 16 15  1  0
 16 17  1  0
 17 18  2  0
 19 22  2  0
 19 20  1  0
 21 17  1  0
M  END
$$$$
