GDE.pdb
     RDKit          3D

 22 21  0  0  1  0  0  0  0  0999 V2000
   26.4837  -32.8880   -8.5655 N   0  0  0  0  0  0  0  0  0  0  0  0
   25.1796  -33.3673   -8.1696 C   0  0  0  0  0  0  0  0  0  0  0  0
   24.9717  -33.2341   -6.7086 C   0  0  0  0  0  0  0  0  0  0  0  0
   25.7661  -32.5718   -6.0319 O   0  0  0  0  0  0  0  0  0  0  0  0
   23.8740  -33.8590   -6.0917 N   0  0  0  0  0  0  0  0  0  0  0  0
   23.6520  -33.8957   -4.6608 C   0  0  1  0  0  0  0  0  0  0  0  0
   22.2221  -34.2066   -4.3127 C   0  0  0  0  0  0  0  0  0  0  0  0
   21.3293  -33.0570   -4.3029 C   0  0  0  0  0  0  0  0  0  0  0  0
   20.1003  -33.2561   -4.5935 O   0  0  0  0  0  0  0  0  0  0  0  0
   24.6217  -34.8183   -4.0244 C   0  0  0  0  0  0  0  0  0  0  0  0
   24.9809  -35.8573   -4.6309 O   0  0  0  0  0  0  0  0  0  0  0  0
   21.6754  -31.7532   -4.0083 O   0  0  0  0  0  0  0  0  0  0  0  0
   25.1824  -34.5948   -2.7422 N   0  0  0  0  0  0  0  0  0  0  0  0
   26.2753  -35.4426   -2.2032 C   0  0  1  0  0  0  0  0  0  0  0  0
   27.3238  -35.4151   -3.2495 C   0  0  0  0  0  0  0  0  0  0  0  0
   28.2576  -36.5546   -3.3804 C   0  0  0  0  0  0  0  0  0  0  0  0
   29.6608  -36.2258   -3.6358 C   0  0  0  0  0  0  0  0  0  0  0  0
   29.9913  -35.6483   -4.6945 O   0  0  0  0  0  0  0  0  0  0  0  0
   26.6133  -35.0834   -0.8459 C   0  0  0  0  0  0  0  0  0  0  0  0
   27.4735  -35.8792   -0.1046 O   0  0  0  0  0  0  0  0  0  0  0  0
   30.6286  -36.5457   -2.7111 O   0  0  0  0  0  0  0  0  0  0  0  0
   26.1733  -34.0649   -0.2353 O   0  0  0  0  0  0  0  0  0  0  0  0
  2  1  1  0
  3  2  1  0
  4  3  2  0
  5  3  1  0
  6 10  1  0
  6  5  1  0
  6  7  1  6
  8  7  1  0
  9  8  2  0
 10 13  1  0
 11 10  2  0
 12  8  1  0
 13 14  1  0
 14 19  1  0
 14 15  1  6
 16 15  1  0
 16 17  1  0
 17 18  2  0
 19 22  2  0
 19 20  1  0
 21 17  1  0
M  END
$$$$
