GDE.pdb
     RDKit          3D

 22 21  0  0  1  0  0  0  0  0999 V2000
   22.7519  -18.7580    7.4980 N   0  0  0  0  0  0  0  0  0  0  0  0
   21.8766  -19.2455    8.5388 C   0  0  0  0  0  0  0  0  0  0  0  0
   20.5114  -19.5044    8.0243 C   0  0  0  0  0  0  0  0  0  0  0  0
   20.1417  -18.9784    6.9686 O   0  0  0  0  0  0  0  0  0  0  0  0
   19.6372  -20.3460    8.7338 N   0  0  0  0  0  0  0  0  0  0  0  0
   18.2736  -20.6303    8.3364 C   0  0  1  0  0  0  0  0  0  0  0  0
   17.7416  -21.8828    8.9770 C   0  0  0  0  0  0  0  0  0  0  0  0
   18.5536  -23.0723    8.7661 C   0  0  0  0  0  0  0  0  0  0  0  0
   18.7404  -23.8494    9.7639 O   0  0  0  0  0  0  0  0  0  0  0  0
   17.4206  -19.4428    8.5788 C   0  0  0  0  0  0  0  0  0  0  0  0
   17.6323  -18.7203    9.5836 O   0  0  0  0  0  0  0  0  0  0  0  0
   19.1530  -23.4558    7.5828 O   0  0  0  0  0  0  0  0  0  0  0  0
   16.3547  -19.0629    7.7257 N   0  0  0  0  0  0  0  0  0  0  0  0
   15.6027  -17.7981    7.9221 C   0  0  1  0  0  0  0  0  0  0  0  0
   16.4395  -16.7590    7.2779 C   0  0  0  0  0  0  0  0  0  0  0  0
   15.9547  -15.3630    7.2162 C   0  0  0  0  0  0  0  0  0  0  0  0
   16.8065  -14.4042    6.5110 C   0  0  0  0  0  0  0  0  0  0  0  0
   17.8780  -14.7785    5.9863 O   0  0  0  0  0  0  0  0  0  0  0  0
   14.2162  -17.9336    7.5415 C   0  0  0  0  0  0  0  0  0  0  0  0
   13.8211  -18.9516    6.6868 O   0  0  0  0  0  0  0  0  0  0  0  0
   16.4338  -13.0828    6.4156 O   0  0  0  0  0  0  0  0  0  0  0  0
   13.2815  -17.1711    7.9270 O   0  0  0  0  0  0  0  0  0  0  0  0
  2  1  1  0
  3  2  1  0
  4  3  2  0
  5  3  1  0
  6 10  1  0
  6  5  1  0
  6  7  1  1
  8  7  1  0
  9  8  2  0
 10 13  1  0
 11 10  2  0
 12  8  1  0
 13 14  1  0
 14 19  1  0
 14 15  1  6
 16 15  1  0
 16 17  1  0
 17 18  2  0
 19 22  2  0
 19 20  1  0
 21 17  1  0
M  END
$$$$
