GDE.pdb
     RDKit          3D

 22 21  0  0  1  0  0  0  0  0999 V2000
   11.8102  -10.7015  -10.7461 N   0  0  0  0  0  0  0  0  0  0  0  0
   12.4195   -9.4921  -11.2494 C   0  0  0  0  0  0  0  0  0  0  0  0
   13.2236   -9.7539  -12.4661 C   0  0  0  0  0  0  0  0  0  0  0  0
   13.0436  -10.7929  -13.1108 O   0  0  0  0  0  0  0  0  0  0  0  0
   14.1895   -8.8236  -12.8876 N   0  0  0  0  0  0  0  0  0  0  0  0
   14.9317   -8.9208  -14.1278 C   0  0  1  0  0  0  0  0  0  0  0  0
   14.0330   -9.1252  -15.3164 C   0  0  0  0  0  0  0  0  0  0  0  0
   14.7245   -9.3790  -16.5718 C   0  0  0  0  0  0  0  0  0  0  0  0
   14.1875   -8.9402  -17.6458 O   0  0  0  0  0  0  0  0  0  0  0  0
   15.8304   -7.7508  -14.2695 C   0  0  0  0  0  0  0  0  0  0  0  0
   15.3817   -6.5951  -14.0715 O   0  0  0  0  0  0  0  0  0  0  0  0
   15.9186  -10.0548  -16.7275 O   0  0  0  0  0  0  0  0  0  0  0  0
   17.1984   -7.8586  -14.6233 N   0  0  0  0  0  0  0  0  0  0  0  0
   18.0685   -6.6652  -14.7725 C   0  0  1  0  0  0  0  0  0  0  0  0
   19.4475   -7.2061  -14.8011 C   0  0  0  0  0  0  0  0  0  0  0  0
   20.0243   -7.8058  -13.5784 C   0  0  0  0  0  0  0  0  0  0  0  0
   21.4015   -8.2921  -13.6741 C   0  0  0  0  0  0  0  0  0  0  0  0
   21.8255   -9.1497  -12.8688 O   0  0  0  0  0  0  0  0  0  0  0  0
   17.6187   -5.8033  -15.8404 C   0  0  0  0  0  0  0  0  0  0  0  0
   18.0140   -4.4748  -15.8815 O   0  0  0  0  0  0  0  0  0  0  0  0
   22.2409   -7.8129  -14.6537 O   0  0  0  0  0  0  0  0  0  0  0  0
   16.8555   -6.1598  -16.7860 O   0  0  0  0  0  0  0  0  0  0  0  0
  2  1  1  0
  3  2  1  0
  4  3  2  0
  5  3  1  0
  6 10  1  0
  6  5  1  0
  6  7  1  6
  8  7  1  0
  9  8  2  0
 10 13  1  0
 11 10  2  0
 12  8  1  0
 13 14  1  0
 14 19  1  0
 14 15  1  6
 16 15  1  0
 16 17  1  0
 17 18  2  0
 19 22  2  0
 19 20  1  0
 21 17  1  0
M  END
$$$$
