DDI.pdb
     RDKit          3D

 25 24  0  0  1  0  0  0  0  0999 V2000
   27.2078  -22.1193  -15.7543 N   0  0  0  0  0  0  0  0  0  0  0  0
   27.4545  -20.7577  -15.3426 C   0  0  1  0  0  0  0  0  0  0  0  0
   27.1104  -19.8665  -16.5123 C   0  0  0  0  0  0  0  0  0  0  0  0
   27.8854  -20.2184  -17.7237 C   0  0  0  0  0  0  0  0  0  0  0  0
   27.3734  -20.0970  -18.8650 O   0  0  0  0  0  0  0  0  0  0  0  0
   26.5839  -20.3367  -14.2180 C   0  0  0  0  0  0  0  0  0  0  0  0
   26.4517  -19.0818  -14.0744 O   0  0  0  0  0  0  0  0  0  0  0  0
   29.1870  -20.6889  -17.6538 O   0  0  0  0  0  0  0  0  0  0  0  0
   25.9287  -21.2163  -13.3445 N   0  0  0  0  0  0  0  0  0  0  0  0
   25.0528  -20.6362  -12.3094 C   0  0  1  0  0  0  0  0  0  0  0  0
   23.6680  -21.0587  -12.6704 C   0  0  0  0  0  0  0  0  0  0  0  0
   23.1819  -20.4220  -13.8759 C   0  0  0  0  0  0  0  0  0  0  0  0
   22.8897  -19.2061  -13.9144 O   0  0  0  0  0  0  0  0  0  0  0  0
   25.5139  -21.1195  -10.9803 C   0  0  0  0  0  0  0  0  0  0  0  0
   25.9356  -22.2706  -10.7831 O   0  0  0  0  0  0  0  0  0  0  0  0
   23.0371  -21.2095  -15.0396 O   0  0  0  0  0  0  0  0  0  0  0  0
   28.4626  -18.7203   -7.0624 C   0  0  0  0  0  0  0  0  0  0  0  0
   27.8026  -19.6976   -8.0035 C   0  0  0  0  0  0  0  0  0  0  0  0
   26.3687  -19.8643   -7.5629 C   0  0  2  0  0  0  0  0  0  0  0  0
   26.3542  -20.5076   -6.1799 C   0  0  0  0  0  0  0  0  0  0  0  0
   25.5985  -20.7768   -8.4861 C   0  0  2  0  0  0  0  0  0  0  0  0
   25.4982  -20.2641   -9.8217 N   0  0  0  0  0  0  0  0  0  0  0  0
   24.2936  -21.0659   -7.8529 C   0  0  0  0  0  0  0  0  0  0  0  0
   23.2685  -20.5281   -8.2989 O   0  0  0  0  0  0  0  0  0  0  0  0
   24.2234  -21.9305   -6.7715 O   0  0  0  0  0  0  0  0  0  0  0  0
  2  1  1  6
  2  3  1  0
  3  4  1  0
  4  5  2  0
  6  2  1  0
  7  6  2  0
  8  4  1  0
  9  6  1  0
 10 14  1  0
 10  9  1  0
 10 11  1  6
 12 11  1  0
 12 13  2  0
 14 22  1  0
 15 14  2  0
 16 12  1  0
 18 17  1  0
 19 18  1  0
 19 20  1  1
 21 19  1  0
 21 23  1  0
 21 22  1  6
 23 24  2  0
 23 25  1  0
M  END
$$$$
