DDI.pdb
     RDKit          3D

 25 24  0  0  1  0  0  0  0  0999 V2000
   15.0611  -13.4743  -14.8504 N   0  0  0  0  0  0  0  0  0  0  0  0
   14.4171  -12.1823  -14.8758 C   0  0  1  0  0  0  0  0  0  0  0  0
   13.5620  -12.0835  -13.6349 C   0  0  0  0  0  0  0  0  0  0  0  0
   12.2962  -12.8388  -13.7727 C   0  0  0  0  0  0  0  0  0  0  0  0
   11.7717  -13.0023  -14.9031 O   0  0  0  0  0  0  0  0  0  0  0  0
   15.3868  -11.0618  -14.8132 C   0  0  0  0  0  0  0  0  0  0  0  0
   16.2013  -11.1028  -13.8398 O   0  0  0  0  0  0  0  0  0  0  0  0
   11.6450  -13.3893  -12.6803 O   0  0  0  0  0  0  0  0  0  0  0  0
   15.4462  -10.0066  -15.7347 N   0  0  0  0  0  0  0  0  0  0  0  0
   16.3950   -8.9096  -15.4674 C   0  0  1  0  0  0  0  0  0  0  0  0
   16.6432   -8.2608  -16.7880 C   0  0  0  0  0  0  0  0  0  0  0  0
   17.3978   -9.1002  -17.6942 C   0  0  0  0  0  0  0  0  0  0  0  0
   18.4026   -9.7458  -17.3217 O   0  0  0  0  0  0  0  0  0  0  0  0
   15.7957   -8.0097  -14.4458 C   0  0  0  0  0  0  0  0  0  0  0  0
   14.6177   -7.6199  -14.4890 O   0  0  0  0  0  0  0  0  0  0  0  0
   16.9761   -9.1845  -19.0396 O   0  0  0  0  0  0  0  0  0  0  0  0
   16.1396   -8.9329   -9.2659 C   0  0  0  0  0  0  0  0  0  0  0  0
   15.8265   -8.5650  -10.6952 C   0  0  0  0  0  0  0  0  0  0  0  0
   16.2879   -7.1452  -10.9169 C   0  0  2  0  0  0  0  0  0  0  0  0
   15.5224   -6.2290   -9.9677 C   0  0  0  0  0  0  0  0  0  0  0  0
   15.9996   -6.6722  -12.3209 C   0  0  2  0  0  0  0  0  0  0  0  0
   16.5614   -7.5287  -13.3248 N   0  0  0  0  0  0  0  0  0  0  0  0
   16.4330   -5.2618  -12.4220 C   0  0  0  0  0  0  0  0  0  0  0  0
   15.6724   -4.3623  -12.0332 O   0  0  0  0  0  0  0  0  0  0  0  0
   17.6786   -4.9546  -12.9474 O   0  0  0  0  0  0  0  0  0  0  0  0
  2  1  1  1
  2  3  1  0
  3  4  1  0
  4  5  2  0
  6  2  1  0
  7  6  2  0
  8  4  1  0
  9  6  1  0
 10 14  1  0
 10  9  1  0
 10 11  1  6
 12 11  1  0
 12 13  2  0
 14 22  1  0
 15 14  2  0
 16 12  1  0
 18 17  1  0
 19 18  1  0
 19 20  1  1
 21 19  1  0
 21 23  1  0
 21 22  1  6
 23 24  2  0
 23 25  1  0
M  END
$$$$
