DDI.pdb
     RDKit          3D

 25 24  0  0  1  0  0  0  0  0999 V2000
   18.3619  -13.1853  -17.3041 N   0  0  0  0  0  0  0  0  0  0  0  0
   19.5227  -12.4009  -16.9551 C   0  0  1  0  0  0  0  0  0  0  0  0
   20.4603  -12.4372  -18.1386 C   0  0  0  0  0  0  0  0  0  0  0  0
   20.9242  -13.8113  -18.4359 C   0  0  0  0  0  0  0  0  0  0  0  0
   21.4483  -14.5154  -17.5363 O   0  0  0  0  0  0  0  0  0  0  0  0
   19.1948  -10.9741  -16.7172 C   0  0  0  0  0  0  0  0  0  0  0  0
   18.4116  -10.4482  -17.5674 O   0  0  0  0  0  0  0  0  0  0  0  0
   20.8031  -14.3722  -19.6973 O   0  0  0  0  0  0  0  0  0  0  0  0
   19.6847  -10.2112  -15.6476 N   0  0  0  0  0  0  0  0  0  0  0  0
   19.2449   -8.8074  -15.5428 C   0  0  1  0  0  0  0  0  0  0  0  0
   18.1520   -8.8023  -14.5269 C   0  0  0  0  0  0  0  0  0  0  0  0
   17.6857   -7.4694  -14.2090 C   0  0  0  0  0  0  0  0  0  0  0  0
   18.1186   -6.8307  -13.2242 O   0  0  0  0  0  0  0  0  0  0  0  0
   20.4220   -7.9731  -15.1805 C   0  0  0  0  0  0  0  0  0  0  0  0
   21.1871   -8.2464  -14.2417 O   0  0  0  0  0  0  0  0  0  0  0  0
   16.7103   -6.8821  -15.0450 O   0  0  0  0  0  0  0  0  0  0  0  0
   24.9303   -5.4653  -16.8628 C   0  0  0  0  0  0  0  0  0  0  0  0
   23.7551   -4.5691  -16.5594 C   0  0  0  0  0  0  0  0  0  0  0  0
   22.4955   -5.3414  -16.8673 C   0  0  2  0  0  0  0  0  0  0  0  0
   21.4393   -4.3685  -17.3814 C   0  0  0  0  0  0  0  0  0  0  0  0
   21.9274   -6.0055  -15.6367 C   0  0  2  0  0  0  0  0  0  0  0  0
   20.7496   -6.7763  -15.9118 N   0  0  0  0  0  0  0  0  0  0  0  0
   21.7365   -4.9623  -14.6059 C   0  0  0  0  0  0  0  0  0  0  0  0
   22.7144   -4.5644  -13.9546 O   0  0  0  0  0  0  0  0  0  0  0  0
   20.4741   -4.4382  -14.3744 O   0  0  0  0  0  0  0  0  0  0  0  0
  2  1  1  6
  2  3  1  0
  3  4  1  0
  4  5  2  0
  6  2  1  0
  7  6  2  0
  8  4  1  0
  9  6  1  0
 10 14  1  0
 10  9  1  0
 10 11  1  1
 12 11  1  0
 12 13  2  0
 14 22  1  0
 15 14  2  0
 16 12  1  0
 18 17  1  0
 19 18  1  0
 19 20  1  1
 21 19  1  0
 21 23  1  0
 21 22  1  6
 23 24  2  0
 23 25  1  0
M  END
$$$$
