DDI.pdb
     RDKit          3D

 25 24  0  0  1  0  0  0  0  0999 V2000
   16.3280  -11.4461  -17.7157 N   0  0  0  0  0  0  0  0  0  0  0  0
   16.3629  -10.7483  -16.4522 C   0  0  1  0  0  0  0  0  0  0  0  0
   17.0745  -11.6435  -15.4656 C   0  0  0  0  0  0  0  0  0  0  0  0
   16.2043  -12.7407  -14.9855 C   0  0  0  0  0  0  0  0  0  0  0  0
   16.6883  -13.6961  -14.3277 O   0  0  0  0  0  0  0  0  0  0  0  0
   17.1416   -9.4878  -16.5196 C   0  0  0  0  0  0  0  0  0  0  0  0
   18.1953   -9.5380  -17.2266 O   0  0  0  0  0  0  0  0  0  0  0  0
   14.8415  -12.7625  -15.2357 O   0  0  0  0  0  0  0  0  0  0  0  0
   16.7875   -8.2964  -15.8705 N   0  0  0  0  0  0  0  0  0  0  0  0
   17.6650   -7.1249  -16.0512 C   0  0  1  0  0  0  0  0  0  0  0  0
   16.7748   -5.9330  -15.9357 C   0  0  0  0  0  0  0  0  0  0  0  0
   17.4894   -4.6817  -16.0720 C   0  0  0  0  0  0  0  0  0  0  0  0
   17.0062   -3.5944  -15.6857 O   0  0  0  0  0  0  0  0  0  0  0  0
   18.7440   -7.1851  -15.0291 C   0  0  0  0  0  0  0  0  0  0  0  0
   18.5308   -7.4083  -13.8264 O   0  0  0  0  0  0  0  0  0  0  0  0
   18.7726   -4.7023  -16.6621 O   0  0  0  0  0  0  0  0  0  0  0  0
   24.0024   -9.5603  -13.8871 C   0  0  0  0  0  0  0  0  0  0  0  0
   23.1611   -8.3463  -13.5793 C   0  0  0  0  0  0  0  0  0  0  0  0
   22.1261   -8.2147  -14.6700 C   0  0  2  0  0  0  0  0  0  0  0  0
   22.8389   -7.9310  -15.9882 C   0  0  0  0  0  0  0  0  0  0  0  0
   21.1844   -7.0628  -14.4165 C   0  0  2  0  0  0  0  0  0  0  0  0
   20.1260   -6.9844  -15.3812 N   0  0  0  0  0  0  0  0  0  0  0  0
   21.9944   -5.8300  -14.3104 C   0  0  0  0  0  0  0  0  0  0  0  0
   22.0946   -5.0812  -15.2944 O   0  0  0  0  0  0  0  0  0  0  0  0
   22.6333   -5.5198  -13.1198 O   0  0  0  0  0  0  0  0  0  0  0  0
  2  1  1  6
  2  3  1  0
  3  4  1  0
  4  5  2  0
  6  2  1  0
  7  6  2  0
  8  4  1  0
  9  6  1  0
 10 14  1  0
 10  9  1  0
 10 11  1  1
 12 11  1  0
 12 13  2  0
 14 22  1  0
 15 14  2  0
 16 12  1  0
 18 17  1  0
 19 18  1  0
 19 20  1  6
 21 19  1  0
 21 23  1  0
 21 22  1  6
 23 24  2  0
 23 25  1  0
M  END
$$$$
