DDI.pdb
     RDKit          3D

 25 24  0  0  1  0  0  0  0  0999 V2000
   28.3813  -22.7976  -16.1128 N   0  0  0  0  0  0  0  0  0  0  0  0
   28.6945  -21.4339  -15.7568 C   0  0  1  0  0  0  0  0  0  0  0  0
   28.8136  -20.6512  -17.0430 C   0  0  0  0  0  0  0  0  0  0  0  0
   28.2965  -21.4108  -18.2037 C   0  0  0  0  0  0  0  0  0  0  0  0
   27.8034  -20.8086  -19.1906 O   0  0  0  0  0  0  0  0  0  0  0  0
   27.6170  -20.7902  -14.9667 C   0  0  0  0  0  0  0  0  0  0  0  0
   27.7752  -19.5502  -14.7424 O   0  0  0  0  0  0  0  0  0  0  0  0
   28.3327  -22.7953  -18.2526 O   0  0  0  0  0  0  0  0  0  0  0  0
   26.4827  -21.4533  -14.4771 N   0  0  0  0  0  0  0  0  0  0  0  0
   25.5630  -20.6969  -13.6068 C   0  0  1  0  0  0  0  0  0  0  0  0
   24.2239  -20.7898  -14.2583 C   0  0  0  0  0  0  0  0  0  0  0  0
   23.1439  -20.3822  -13.3850 C   0  0  0  0  0  0  0  0  0  0  0  0
   22.1868  -21.1404  -13.1126 O   0  0  0  0  0  0  0  0  0  0  0  0
   25.6218  -21.2829  -12.2408 C   0  0  0  0  0  0  0  0  0  0  0  0
   25.6428  -22.5053  -12.0247 O   0  0  0  0  0  0  0  0  0  0  0  0
   23.1835  -19.0844  -12.8290 O   0  0  0  0  0  0  0  0  0  0  0  0
   28.7759  -19.7678   -8.1028 C   0  0  0  0  0  0  0  0  0  0  0  0
   27.8873  -20.7979   -8.7551 C   0  0  0  0  0  0  0  0  0  0  0  0
   26.4796  -20.2535   -8.7623 C   0  0  2  0  0  0  0  0  0  0  0  0
   25.8747  -20.4452   -7.3753 C   0  0  0  0  0  0  0  0  0  0  0  0
   25.5959  -20.9906   -9.7389 C   0  0  2  0  0  0  0  0  0  0  0  0
   25.6586  -20.4505  -11.0660 N   0  0  0  0  0  0  0  0  0  0  0  0
   24.2310  -21.0347   -9.1711 C   0  0  0  0  0  0  0  0  0  0  0  0
   23.3588  -20.2779   -9.6242 O   0  0  0  0  0  0  0  0  0  0  0  0
   23.9356  -21.9157   -8.1422 O   0  0  0  0  0  0  0  0  0  0  0  0
  2  1  1  6
  2  3  1  0
  3  4  1  0
  4  5  2  0
  6  2  1  0
  7  6  2  0
  8  4  1  0
  9  6  1  0
 10 14  1  0
 10  9  1  0
 10 11  1  6
 12 11  1  0
 12 13  2  0
 14 22  1  0
 15 14  2  0
 16 12  1  0
 18 17  1  0
 19 18  1  0
 19 20  1  1
 21 19  1  0
 21 23  1  0
 21 22  1  6
 23 24  2  0
 23 25  1  0
M  END
$$$$
