DDI.pdb
     RDKit          3D

 25 24  0  0  1  0  0  0  0  0999 V2000
   14.4381  -12.5086  -15.3964 N   0  0  0  0  0  0  0  0  0  0  0  0
   14.5523  -12.5992  -13.9600 C   0  0  1  0  0  0  0  0  0  0  0  0
   15.1386  -13.9542  -13.6418 C   0  0  0  0  0  0  0  0  0  0  0  0
   14.1077  -15.0167  -13.6369 C   0  0  0  0  0  0  0  0  0  0  0  0
   12.9160  -14.7494  -13.9337 O   0  0  0  0  0  0  0  0  0  0  0  0
   15.4842  -11.5912  -13.3986 C   0  0  0  0  0  0  0  0  0  0  0  0
   15.6558  -11.6513  -12.1417 O   0  0  0  0  0  0  0  0  0  0  0  0
   14.4061  -16.3301  -13.3107 O   0  0  0  0  0  0  0  0  0  0  0  0
   16.1554  -10.6185  -14.1532 N   0  0  0  0  0  0  0  0  0  0  0  0
   16.9635   -9.6195  -13.4292 C   0  0  1  0  0  0  0  0  0  0  0  0
   17.8074   -8.9561  -14.4657 C   0  0  0  0  0  0  0  0  0  0  0  0
   18.7804   -8.0457  -13.9005 C   0  0  0  0  0  0  0  0  0  0  0  0
   18.8994   -7.8819  -12.6660 O   0  0  0  0  0  0  0  0  0  0  0  0
   16.0400   -8.7007  -12.7111 C   0  0  0  0  0  0  0  0  0  0  0  0
   14.9905   -8.2634  -13.2099 O   0  0  0  0  0  0  0  0  0  0  0  0
   19.6163   -7.3247  -14.7818 O   0  0  0  0  0  0  0  0  0  0  0  0
   12.7727   -7.5078   -8.8734 C   0  0  0  0  0  0  0  0  0  0  0  0
   14.1399   -6.9512   -8.5617 C   0  0  0  0  0  0  0  0  0  0  0  0
   15.1607   -7.8271   -9.2463 C   0  0  2  0  0  0  0  0  0  0  0  0
   16.4756   -7.7366   -8.4785 C   0  0  0  0  0  0  0  0  0  0  0  0
   15.4377   -7.3709  -10.6581 C   0  0  2  0  0  0  0  0  0  0  0  0
   16.3142   -8.2560  -11.3689 N   0  0  0  0  0  0  0  0  0  0  0  0
   15.9148   -5.9724  -10.5973 C   0  0  0  0  0  0  0  0  0  0  0  0
   15.1281   -5.0753  -10.2579 O   0  0  0  0  0  0  0  0  0  0  0  0
   17.2301   -5.6733  -10.9178 O   0  0  0  0  0  0  0  0  0  0  0  0
  2  1  1  6
  2  3  1  0
  3  4  1  0
  4  5  2  0
  6  2  1  0
  7  6  2  0
  8  4  1  0
  9  6  1  0
 10 14  1  0
 10  9  1  0
 10 11  1  6
 12 11  1  0
 12 13  2  0
 14 22  1  0
 15 14  2  0
 16 12  1  0
 18 17  1  0
 19 18  1  0
 19 20  1  1
 21 19  1  0
 21 23  1  0
 21 22  1  1
 23 24  2  0
 23 25  1  0
M  END
$$$$
