DDI.pdb
     RDKit          3D

 25 24  0  0  1  0  0  0  0  0999 V2000
   16.3770  -12.5939  -15.0693 N   0  0  0  0  0  0  0  0  0  0  0  0
   15.6314  -11.3620  -14.9642 C   0  0  1  0  0  0  0  0  0  0  0  0
   14.2849  -11.7025  -14.3710 C   0  0  0  0  0  0  0  0  0  0  0  0
   13.3826  -12.3251  -15.3660 C   0  0  0  0  0  0  0  0  0  0  0  0
   13.1331  -11.7432  -16.4517 O   0  0  0  0  0  0  0  0  0  0  0  0
   16.2671  -10.3890  -14.0428 C   0  0  0  0  0  0  0  0  0  0  0  0
   16.4211  -10.7931  -12.8487 O   0  0  0  0  0  0  0  0  0  0  0  0
   12.7837  -13.5557  -15.1480 O   0  0  0  0  0  0  0  0  0  0  0  0
   16.6879   -9.1024  -14.4086 N   0  0  0  0  0  0  0  0  0  0  0  0
   17.4123   -8.3016  -13.4040 C   0  0  1  0  0  0  0  0  0  0  0  0
   18.4317   -7.5240  -14.1674 C   0  0  0  0  0  0  0  0  0  0  0  0
   19.1607   -6.5872  -13.3392 C   0  0  0  0  0  0  0  0  0  0  0  0
   19.2645   -6.7349  -12.1012 O   0  0  0  0  0  0  0  0  0  0  0  0
   16.4251   -7.4639  -12.6715 C   0  0  0  0  0  0  0  0  0  0  0  0
   15.6247   -6.7026  -13.2384 O   0  0  0  0  0  0  0  0  0  0  0  0
   19.7698   -5.4745  -13.9606 O   0  0  0  0  0  0  0  0  0  0  0  0
   12.4303   -6.8145   -8.8215 C   0  0  0  0  0  0  0  0  0  0  0  0
   13.8361   -6.2911   -8.6595 C   0  0  0  0  0  0  0  0  0  0  0  0
   14.7674   -7.2469   -9.3646 C   0  0  2  0  0  0  0  0  0  0  0  0
   15.8165   -7.7307   -8.3687 C   0  0  0  0  0  0  0  0  0  0  0  0
   15.5055   -6.5796  -10.4994 C   0  0  2  0  0  0  0  0  0  0  0  0
   16.3380   -7.4874  -11.2341 N   0  0  0  0  0  0  0  0  0  0  0  0
   16.2281   -5.4136   -9.9467 C   0  0  0  0  0  0  0  0  0  0  0  0
   17.4491   -5.4949   -9.7437 O   0  0  0  0  0  0  0  0  0  0  0  0
   15.5415   -4.2437   -9.6604 O   0  0  0  0  0  0  0  0  0  0  0  0
  2  1  1  1
  2  3  1  0
  3  4  1  0
  4  5  2  0
  6  2  1  0
  7  6  2  0
  8  4  1  0
  9  6  1  0
 10 14  1  0
 10  9  1  0
 10 11  1  6
 12 11  1  0
 12 13  2  0
 14 22  1  0
 15 14  2  0
 16 12  1  0
 18 17  1  0
 19 18  1  0
 19 20  1  1
 21 19  1  0
 21 23  1  0
 21 22  1  1
 23 24  2  0
 23 25  1  0
M  END
$$$$
