DDI.pdb
     RDKit          3D

 25 24  0  0  1  0  0  0  0  0999 V2000
   27.2625  -18.8848  -17.0516 N   0  0  0  0  0  0  0  0  0  0  0  0
   26.2139  -19.8655  -16.8999 C   0  0  1  0  0  0  0  0  0  0  0  0
   26.7306  -20.9329  -15.9647 C   0  0  0  0  0  0  0  0  0  0  0  0
   27.0449  -22.1908  -16.6792 C   0  0  0  0  0  0  0  0  0  0  0  0
   27.4655  -23.1935  -16.0489 O   0  0  0  0  0  0  0  0  0  0  0  0
   24.9951  -19.3026  -16.2693 C   0  0  0  0  0  0  0  0  0  0  0  0
   25.1763  -18.7396  -15.1455 O   0  0  0  0  0  0  0  0  0  0  0  0
   26.8917  -22.3161  -18.0508 O   0  0  0  0  0  0  0  0  0  0  0  0
   23.7102  -19.3586  -16.8277 N   0  0  0  0  0  0  0  0  0  0  0  0
   22.6226  -18.6486  -16.1290 C   0  0  1  0  0  0  0  0  0  0  0  0
   21.8722  -17.9163  -17.1908 C   0  0  0  0  0  0  0  0  0  0  0  0
   20.7633  -17.1474  -16.6674 C   0  0  0  0  0  0  0  0  0  0  0  0
   20.7047  -16.7967  -15.4679 O   0  0  0  0  0  0  0  0  0  0  0  0
   21.8115  -19.6491  -15.3849 C   0  0  0  0  0  0  0  0  0  0  0  0
   21.3907  -20.6999  -15.8953 O   0  0  0  0  0  0  0  0  0  0  0  0
   19.7201  -16.7878  -17.5492 O   0  0  0  0  0  0  0  0  0  0  0  0
   21.3673  -19.3618   -9.6595 C   0  0  0  0  0  0  0  0  0  0  0  0
   20.8242  -19.2264  -11.0606 C   0  0  0  0  0  0  0  0  0  0  0  0
   21.1463  -20.4995  -11.8044 C   0  0  2  0  0  0  0  0  0  0  0  0
   22.6575  -20.7058  -11.7880 C   0  0  0  0  0  0  0  0  0  0  0  0
   20.7226  -20.4288  -13.2513 C   0  0  2  0  0  0  0  0  0  0  0  0
   21.4600  -19.4542  -14.0019 N   0  0  0  0  0  0  0  0  0  0  0  0
   19.2573  -20.2319  -13.2854 C   0  0  0  0  0  0  0  0  0  0  0  0
   18.7971  -19.1607  -13.7093 O   0  0  0  0  0  0  0  0  0  0  0  0
   18.4114  -21.2388  -12.8465 O   0  0  0  0  0  0  0  0  0  0  0  0
  2  1  1  1
  2  3  1  0
  3  4  1  0
  4  5  2  0
  6  2  1  0
  7  6  2  0
  8  4  1  0
  9  6  1  0
 10 14  1  0
 10  9  1  0
 10 11  1  6
 12 11  1  0
 12 13  2  0
 14 22  1  0
 15 14  2  0
 16 12  1  0
 18 17  1  0
 19 18  1  0
 19 20  1  6
 21 19  1  0
 21 23  1  0
 21 22  1  1
 23 24  2  0
 23 25  1  0
M  END
$$$$
