IDF.pdb
     RDKit          3D

 28 28  0  0  1  0  0  0  0  0999 V2000
    6.8551  -12.2034   19.8335 C   0  0  0  0  0  0  0  0  0  0  0  0
    7.8590  -13.3195   19.6412 C   0  0  0  0  0  0  0  0  0  0  0  0
    7.7650  -14.3457   20.7476 C   0  0  2  0  0  0  0  0  0  0  0  0
    8.0979  -13.7316   22.0881 C   0  0  0  0  0  0  0  0  0  0  0  0
    8.7016  -15.5026   20.5293 C   0  0  2  0  0  0  0  0  0  0  0  0
    8.6059  -16.0427   19.1909 N   0  0  0  0  0  0  0  0  0  0  0  0
    8.5410  -16.5739   21.5131 C   0  0  0  0  0  0  0  0  0  0  0  0
    8.0135  -17.6549   21.1687 O   0  0  0  0  0  0  0  0  0  0  0  0
    8.9930  -16.3550   22.8451 N   0  0  0  0  0  0  0  0  0  0  0  0
   10.2955  -16.7814   23.2398 C   0  0  1  0  0  0  0  0  0  0  0  0
   11.4091  -16.2193   22.3975 C   0  0  0  0  0  0  0  0  0  0  0  0
   12.7082  -16.8325   22.7364 C   0  0  0  0  0  0  0  0  0  0  0  0
   13.7276  -16.0984   22.9383 O   0  0  0  0  0  0  0  0  0  0  0  0
   10.5245  -16.4550   24.6696 C   0  0  0  0  0  0  0  0  0  0  0  0
   11.6828  -16.6175   25.1787 O   0  0  0  0  0  0  0  0  0  0  0  0
   12.9308  -18.1966   22.8608 O   0  0  0  0  0  0  0  0  0  0  0  0
    9.5331  -15.9633   25.5415 N   0  0  0  0  0  0  0  0  0  0  0  0
    9.6548  -15.9980   26.9784 C   0  0  1  0  0  0  0  0  0  0  0  0
    8.4318  -15.4450   27.6705 C   0  0  0  0  0  0  0  0  0  0  0  0
    7.8692  -14.2446   26.9973 C   0  0  0  0  0  0  0  0  0  0  0  0
    6.7346  -14.3524   26.1811 C   0  0  0  0  0  0  0  0  0  0  0  0
    6.2071  -13.2492   25.5479 C   0  0  0  0  0  0  0  0  0  0  0  0
    6.7684  -12.0007   25.6888 C   0  0  0  0  0  0  0  0  0  0  0  0
    7.8838  -11.8766   26.4872 C   0  0  0  0  0  0  0  0  0  0  0  0
    8.4236  -12.9918   27.1320 C   0  0  0  0  0  0  0  0  0  0  0  0
    9.8446  -17.3930   27.3915 C   0  0  0  0  0  0  0  0  0  0  0  0
    9.7078  -18.4218   26.4831 O   0  0  0  0  0  0  0  0  0  0  0  0
   10.1315  -17.6648   28.5722 O   0  0  0  0  0  0  0  0  0  0  0  0
  2  1  1  0
  3  5  1  0
  3  2  1  0
  3  4  1  1
  5  6  1  6
  7  5  1  0
  7  8  2  0
  9  7  1  0
 10  9  1  0
 10 11  1  6
 12 11  1  0
 12 16  1  0
 13 12  2  0
 14 10  1  0
 15 14  2  0
 17 14  1  0
 18 17  1  0
 18 26  1  0
 18 19  1  1
 20 25  2  0
 20 19  1  0
 21 20  1  0
 22 23  1  0
 22 21  2  0
 23 24  2  0
 24 25  1  0
 26 28  2  0
 26 27  1  0
M  END
$$$$
