IDF.pdb
     RDKit          3D

 28 28  0  0  1  0  0  0  0  0999 V2000
    7.3819  -11.6928   19.8991 C   0  0  0  0  0  0  0  0  0  0  0  0
    7.6954  -13.1361   19.5690 C   0  0  0  0  0  0  0  0  0  0  0  0
    7.9451  -13.9486   20.8195 C   0  0  2  0  0  0  0  0  0  0  0  0
    9.0428  -13.3333   21.6570 C   0  0  0  0  0  0  0  0  0  0  0  0
    8.3481  -15.3636   20.5055 C   0  0  2  0  0  0  0  0  0  0  0  0
    7.4019  -16.0242   19.6334 N   0  0  0  0  0  0  0  0  0  0  0  0
    8.5826  -16.1792   21.6975 C   0  0  0  0  0  0  0  0  0  0  0  0
    7.6081  -16.6445   22.3292 O   0  0  0  0  0  0  0  0  0  0  0  0
    9.9236  -16.4225   22.1088 N   0  0  0  0  0  0  0  0  0  0  0  0
   10.1884  -17.2571   23.2346 C   0  0  1  0  0  0  0  0  0  0  0  0
   11.4765  -18.0297   23.1389 C   0  0  0  0  0  0  0  0  0  0  0  0
   11.3591  -19.1664   22.2047 C   0  0  0  0  0  0  0  0  0  0  0  0
   10.6510  -19.0583   21.1531 O   0  0  0  0  0  0  0  0  0  0  0  0
   10.1707  -16.4497   24.4800 C   0  0  0  0  0  0  0  0  0  0  0  0
   10.9116  -15.4158   24.5752 O   0  0  0  0  0  0  0  0  0  0  0  0
   11.9771  -20.3974   22.3747 O   0  0  0  0  0  0  0  0  0  0  0  0
    9.3748  -16.7414   25.6054 N   0  0  0  0  0  0  0  0  0  0  0  0
    9.5793  -16.1350   26.8981 C   0  0  1  0  0  0  0  0  0  0  0  0
    8.2871  -15.6612   27.5195 C   0  0  0  0  0  0  0  0  0  0  0  0
    7.6513  -14.5445   26.7715 C   0  0  0  0  0  0  0  0  0  0  0  0
    8.1151  -13.2305   26.9240 C   0  0  0  0  0  0  0  0  0  0  0  0
    7.5315  -12.1869   26.2410 C   0  0  0  0  0  0  0  0  0  0  0  0
    6.4736  -12.3886   25.3843 C   0  0  0  0  0  0  0  0  0  0  0  0
    6.0050  -13.6736   25.2226 C   0  0  0  0  0  0  0  0  0  0  0  0
    6.5927  -14.7363   25.9126 C   0  0  0  0  0  0  0  0  0  0  0  0
   10.1947  -17.1310   27.7825 C   0  0  0  0  0  0  0  0  0  0  0  0
   10.3969  -18.4259   27.3527 O   0  0  0  0  0  0  0  0  0  0  0  0
   10.5419  -16.8170   28.9363 O   0  0  0  0  0  0  0  0  0  0  0  0
  2  1  1  0
  3  5  1  0
  3  2  1  0
  3  4  1  6
  5  6  1  1
  7  5  1  0
  7  8  2  0
  9  7  1  0
 10  9  1  0
 10 11  1  6
 12 11  1  0
 12 16  1  0
 13 12  2  0
 14 10  1  0
 15 14  2  0
 17 14  1  0
 18 17  1  0
 18 26  1  0
 18 19  1  1
 20 25  2  0
 20 19  1  0
 21 20  1  0
 22 23  1  0
 22 21  2  0
 23 24  2  0
 24 25  1  0
 26 28  2  0
 26 27  1  0
M  END
$$$$
