IDF.pdb
     RDKit          3D

 28 28  0  0  1  0  0  0  0  0999 V2000
    7.2047  -11.8840   19.3391 C   0  0  0  0  0  0  0  0  0  0  0  0
    7.6703  -13.2981   19.0674 C   0  0  0  0  0  0  0  0  0  0  0  0
    7.8438  -14.0801   20.3498 C   0  0  2  0  0  0  0  0  0  0  0  0
    8.8707  -13.4294   21.2481 C   0  0  0  0  0  0  0  0  0  0  0  0
    8.2891  -15.4945   20.0958 C   0  0  2  0  0  0  0  0  0  0  0  0
    7.3454  -16.2306   19.2835 N   0  0  0  0  0  0  0  0  0  0  0  0
    8.5824  -16.2401   21.3203 C   0  0  0  0  0  0  0  0  0  0  0  0
    7.6928  -16.9506   21.8390 O   0  0  0  0  0  0  0  0  0  0  0  0
    9.8820  -16.1356   21.8919 N   0  0  0  0  0  0  0  0  0  0  0  0
   10.2973  -17.0530   22.9018 C   0  0  1  0  0  0  0  0  0  0  0  0
   11.7262  -17.5076   22.7709 C   0  0  0  0  0  0  0  0  0  0  0  0
   12.1020  -18.4349   23.8559 C   0  0  0  0  0  0  0  0  0  0  0  0
   11.4234  -19.4925   24.0558 O   0  0  0  0  0  0  0  0  0  0  0  0
   10.0717  -16.4644   24.2457 C   0  0  0  0  0  0  0  0  0  0  0  0
   10.5813  -15.3312   24.5345 O   0  0  0  0  0  0  0  0  0  0  0  0
   13.1748  -18.2520   24.7170 O   0  0  0  0  0  0  0  0  0  0  0  0
    9.3145  -17.0756   25.2645 N   0  0  0  0  0  0  0  0  0  0  0  0
    9.2901  -16.6003   26.6262 C   0  0  1  0  0  0  0  0  0  0  0  0
    7.9353  -16.0632   27.0213 C   0  0  0  0  0  0  0  0  0  0  0  0
    7.7555  -14.6246   26.6915 C   0  0  0  0  0  0  0  0  0  0  0  0
    8.6847  -13.6718   27.1320 C   0  0  0  0  0  0  0  0  0  0  0  0
    8.5267  -12.3359   26.8377 C   0  0  0  0  0  0  0  0  0  0  0  0
    7.4557  -11.8819   26.1025 C   0  0  0  0  0  0  0  0  0  0  0  0
    6.5329  -12.8045   25.6617 C   0  0  0  0  0  0  0  0  0  0  0  0
    6.6875  -14.1608   25.9570 C   0  0  0  0  0  0  0  0  0  0  0  0
    9.6345  -17.7188   27.5111 C   0  0  0  0  0  0  0  0  0  0  0  0
    9.8777  -18.9753   26.9969 O   0  0  0  0  0  0  0  0  0  0  0  0
    9.7104  -17.5455   28.7418 O   0  0  0  0  0  0  0  0  0  0  0  0
  2  1  1  0
  3  5  1  0
  3  2  1  0
  3  4  1  1
  5  6  1  1
  7  5  1  0
  7  8  2  0
  9  7  1  0
 10  9  1  0
 10 11  1  6
 12 11  1  0
 12 16  1  0
 13 12  2  0
 14 10  1  0
 15 14  2  0
 17 14  1  0
 18 17  1  0
 18 26  1  0
 18 19  1  1
 20 25  2  0
 20 19  1  0
 21 20  1  0
 22 23  1  0
 22 21  2  0
 23 24  2  0
 24 25  1  0
 26 28  2  0
 26 27  1  0
M  END
$$$$
