IDF.pdb
     RDKit          3D

 28 28  0  0  1  0  0  0  0  0999 V2000
    8.0353  -11.8056   19.3435 C   0  0  0  0  0  0  0  0  0  0  0  0
    7.9924  -13.3075   19.1614 C   0  0  0  0  0  0  0  0  0  0  0  0
    8.0731  -14.0287   20.4878 C   0  0  2  0  0  0  0  0  0  0  0  0
    9.3358  -13.6584   21.2317 C   0  0  0  0  0  0  0  0  0  0  0  0
    8.0619  -15.5239   20.3221 C   0  0  2  0  0  0  0  0  0  0  0  0
    6.9044  -15.9872   19.5888 N   0  0  0  0  0  0  0  0  0  0  0  0
    8.1749  -16.2497   21.5877 C   0  0  0  0  0  0  0  0  0  0  0  0
    7.1588  -16.4128   22.2992 O   0  0  0  0  0  0  0  0  0  0  0  0
    9.4477  -16.7542   21.9773 N   0  0  0  0  0  0  0  0  0  0  0  0
    9.5902  -17.4746   23.2000 C   0  0  1  0  0  0  0  0  0  0  0  0
   10.2408  -18.8232   23.0479 C   0  0  0  0  0  0  0  0  0  0  0  0
   10.3948  -19.5012   24.3499 C   0  0  0  0  0  0  0  0  0  0  0  0
    9.4295  -19.5196   25.1785 O   0  0  0  0  0  0  0  0  0  0  0  0
   10.3393  -16.6566   24.1864 C   0  0  0  0  0  0  0  0  0  0  0  0
   11.5118  -16.2409   23.9044 O   0  0  0  0  0  0  0  0  0  0  0  0
   11.5467  -20.1493   24.7731 O   0  0  0  0  0  0  0  0  0  0  0  0
    9.8447  -16.2885   25.4533 N   0  0  0  0  0  0  0  0  0  0  0  0
   10.5998  -15.5061   26.4011 C   0  0  1  0  0  0  0  0  0  0  0  0
   10.3703  -14.0232   26.2317 C   0  0  0  0  0  0  0  0  0  0  0  0
    8.9342  -13.6418   26.2862 C   0  0  0  0  0  0  0  0  0  0  0  0
    8.1345  -13.7135   25.1370 C   0  0  0  0  0  0  0  0  0  0  0  0
    6.8046  -13.3582   25.1731 C   0  0  0  0  0  0  0  0  0  0  0  0
    6.2073  -12.9199   26.3328 C   0  0  0  0  0  0  0  0  0  0  0  0
    6.9783  -12.8432   27.4714 C   0  0  0  0  0  0  0  0  0  0  0  0
    8.3278  -13.2021   27.4412 C   0  0  0  0  0  0  0  0  0  0  0  0
   10.1896  -15.8990   27.7539 C   0  0  0  0  0  0  0  0  0  0  0  0
   10.8313  -15.3858   28.8618 O   0  0  0  0  0  0  0  0  0  0  0  0
    9.2543  -16.7043   27.9174 O   0  0  0  0  0  0  0  0  0  0  0  0
  2  1  1  0
  3  5  1  0
  3  2  1  0
  3  4  1  6
  5  6  1  1
  7  5  1  0
  7  8  2  0
  9  7  1  0
 10  9  1  0
 10 11  1  6
 12 11  1  0
 12 16  1  0
 13 12  2  0
 14 10  1  0
 15 14  2  0
 17 14  1  0
 18 17  1  0
 18 26  1  0
 18 19  1  6
 20 25  2  0
 20 19  1  0
 21 20  1  0
 22 23  1  0
 22 21  2  0
 23 24  2  0
 24 25  1  0
 26 28  2  0
 26 27  1  0
M  END
$$$$
