IDF.pdb
     RDKit          3D

 28 28  0  0  1  0  0  0  0  0999 V2000
    7.5294  -11.7934   19.5119 C   0  0  0  0  0  0  0  0  0  0  0  0
    7.7440  -13.2549   19.1828 C   0  0  0  0  0  0  0  0  0  0  0  0
    7.8245  -14.0985   20.4349 C   0  0  2  0  0  0  0  0  0  0  0  0
    8.9669  -13.6521   21.3184 C   0  0  0  0  0  0  0  0  0  0  0  0
    8.0291  -15.5563   20.1245 C   0  0  2  0  0  0  0  0  0  0  0  0
    6.9998  -16.0833   19.2557 N   0  0  0  0  0  0  0  0  0  0  0  0
    8.1517  -16.3931   21.3187 C   0  0  0  0  0  0  0  0  0  0  0  0
    7.1224  -16.7303   21.9450 O   0  0  0  0  0  0  0  0  0  0  0  0
    9.4486  -16.8035   21.7381 N   0  0  0  0  0  0  0  0  0  0  0  0
    9.6091  -17.5594   22.9368 C   0  0  1  0  0  0  0  0  0  0  0  0
   10.4330  -18.8081   22.7717 C   0  0  0  0  0  0  0  0  0  0  0  0
   11.7415  -18.5170   22.1540 C   0  0  0  0  0  0  0  0  0  0  0  0
   11.8141  -18.2319   20.9161 O   0  0  0  0  0  0  0  0  0  0  0  0
   10.1896  -16.7041   24.0021 C   0  0  0  0  0  0  0  0  0  0  0  0
   11.1497  -15.9113   23.7249 O   0  0  0  0  0  0  0  0  0  0  0  0
   12.9544  -18.5259   22.8284 O   0  0  0  0  0  0  0  0  0  0  0  0
    9.7521  -16.6952   25.3413 N   0  0  0  0  0  0  0  0  0  0  0  0
   10.3351  -15.8556   26.3590 C   0  0  1  0  0  0  0  0  0  0  0  0
   10.2540  -14.3892   26.0076 C   0  0  0  0  0  0  0  0  0  0  0  0
    8.8859  -13.8255   26.1544 C   0  0  0  0  0  0  0  0  0  0  0  0
    7.8659  -14.1919   25.2654 C   0  0  0  0  0  0  0  0  0  0  0  0
    6.5963  -13.6730   25.3874 C   0  0  0  0  0  0  0  0  0  0  0  0
    6.2766  -12.7774   26.3821 C   0  0  0  0  0  0  0  0  0  0  0  0
    7.2669  -12.4063   27.2645 C   0  0  0  0  0  0  0  0  0  0  0  0
    8.5566  -12.9291   27.1459 C   0  0  0  0  0  0  0  0  0  0  0  0
    9.6120  -16.0839   27.6151 C   0  0  0  0  0  0  0  0  0  0  0  0
   10.0290  -15.4875   28.7868 O   0  0  0  0  0  0  0  0  0  0  0  0
    8.6101  -16.8228   27.6375 O   0  0  0  0  0  0  0  0  0  0  0  0
  2  1  1  0
  3  5  1  0
  3  2  1  0
  3  4  1  1
  5  6  1  1
  7  5  1  0
  7  8  2  0
  9  7  1  0
 10  9  1  0
 10 11  1  6
 12 11  1  0
 12 16  1  0
 13 12  2  0
 14 10  1  0
 15 14  2  0
 17 14  1  0
 18 17  1  0
 18 26  1  0
 18 19  1  6
 20 25  2  0
 20 19  1  0
 21 20  1  0
 22 23  1  0
 22 21  2  0
 23 24  2  0
 24 25  1  0
 26 28  2  0
 26 27  1  0
M  END
$$$$
