IDF.pdb
     RDKit          3D

 28 28  0  0  1  0  0  0  0  0999 V2000
    4.5581  -21.2570   20.4830 C   0  0  0  0  0  0  0  0  0  0  0  0
    4.9040  -20.4847   21.7378 C   0  0  0  0  0  0  0  0  0  0  0  0
    6.2936  -19.8941   21.6591 C   0  0  2  0  0  0  0  0  0  0  0  0
    7.3199  -20.9592   21.3474 C   0  0  0  0  0  0  0  0  0  0  0  0
    6.7010  -19.2292   22.9457 C   0  0  2  0  0  0  0  0  0  0  0  0
    5.7971  -18.1657   23.3253 N   0  0  0  0  0  0  0  0  0  0  0  0
    8.0779  -18.7341   22.9333 C   0  0  0  0  0  0  0  0  0  0  0  0
    9.0270  -19.5486   22.9013 O   0  0  0  0  0  0  0  0  0  0  0  0
    8.3013  -17.3284   22.9581 N   0  0  0  0  0  0  0  0  0  0  0  0
    9.6307  -16.8140   23.0046 C   0  0  1  0  0  0  0  0  0  0  0  0
    9.8845  -15.6766   22.0521 C   0  0  0  0  0  0  0  0  0  0  0  0
   10.7765  -16.0823   20.9482 C   0  0  0  0  0  0  0  0  0  0  0  0
   11.5708  -15.2369   20.4254 O   0  0  0  0  0  0  0  0  0  0  0  0
    9.9669  -16.4018   24.3904 C   0  0  0  0  0  0  0  0  0  0  0  0
   11.1032  -15.8771   24.6371 O   0  0  0  0  0  0  0  0  0  0  0  0
   10.8314  -17.3574   20.4032 O   0  0  0  0  0  0  0  0  0  0  0  0
    9.1042  -16.5473   25.4947 N   0  0  0  0  0  0  0  0  0  0  0  0
    9.4761  -16.1914   26.8421 C   0  0  1  0  0  0  0  0  0  0  0  0
    8.3528  -15.5085   27.5851 C   0  0  0  0  0  0  0  0  0  0  0  0
    7.8226  -14.3133   26.8772 C   0  0  0  0  0  0  0  0  0  0  0  0
    6.6781  -14.4114   26.0737 C   0  0  0  0  0  0  0  0  0  0  0  0
    6.1801  -13.3132   25.4087 C   0  0  0  0  0  0  0  0  0  0  0  0
    6.7817  -12.0793   25.5043 C   0  0  0  0  0  0  0  0  0  0  0  0
    7.9074  -11.9648   26.2895 C   0  0  0  0  0  0  0  0  0  0  0  0
    8.4173  -13.0750   26.9664 C   0  0  0  0  0  0  0  0  0  0  0  0
    9.8429  -17.4182   27.5584 C   0  0  0  0  0  0  0  0  0  0  0  0
    9.6860  -18.6539   26.9661 O   0  0  0  0  0  0  0  0  0  0  0  0
   10.3012  -17.3571   28.7146 O   0  0  0  0  0  0  0  0  0  0  0  0
  2  1  1  0
  3  5  1  0
  3  2  1  0
  3  4  1  1
  5  6  1  6
  7  5  1  0
  7  8  2  0
  9  7  1  0
 10  9  1  0
 10 11  1  6
 12 11  1  0
 12 16  1  0
 13 12  2  0
 14 10  1  0
 15 14  2  0
 17 14  1  0
 18 17  1  0
 18 26  1  0
 18 19  1  1
 20 25  2  0
 20 19  1  0
 21 20  1  0
 22 23  1  0
 22 21  2  0
 23 24  2  0
 24 25  1  0
 26 28  2  0
 26 27  1  0
M  END
$$$$
