IDF.pdb
     RDKit          3D

 28 28  0  0  1  0  0  0  0  0999 V2000
    6.6090  -13.6863   17.8429 C   0  0  0  0  0  0  0  0  0  0  0  0
    7.9045  -14.2115   18.4228 C   0  0  0  0  0  0  0  0  0  0  0  0
    8.3779  -13.3614   19.5802 C   0  0  2  0  0  0  0  0  0  0  0  0
    8.6279  -11.9367   19.1414 C   0  0  0  0  0  0  0  0  0  0  0  0
    9.6528  -13.8844   20.1839 C   0  0  2  0  0  0  0  0  0  0  0  0
   10.6567  -14.1736   19.1835 N   0  0  0  0  0  0  0  0  0  0  0  0
    9.4528  -15.0518   21.0431 C   0  0  0  0  0  0  0  0  0  0  0  0
    8.4890  -15.0740   21.8406 O   0  0  0  0  0  0  0  0  0  0  0  0
   10.3673  -16.1385   20.9471 N   0  0  0  0  0  0  0  0  0  0  0  0
   10.3031  -17.2147   21.8808 C   0  0  1  0  0  0  0  0  0  0  0  0
   11.1323  -18.4114   21.4991 C   0  0  0  0  0  0  0  0  0  0  0  0
   10.4446  -19.2511   20.4989 C   0  0  0  0  0  0  0  0  0  0  0  0
    9.2555  -18.9738   20.1412 O   0  0  0  0  0  0  0  0  0  0  0  0
   10.6899  -16.7377   23.2321 C   0  0  0  0  0  0  0  0  0  0  0  0
   11.6605  -15.9202   23.3615 O   0  0  0  0  0  0  0  0  0  0  0  0
   10.9996  -20.3652   19.8850 O   0  0  0  0  0  0  0  0  0  0  0  0
   10.0510  -17.1272   24.4259 N   0  0  0  0  0  0  0  0  0  0  0  0
    9.7033  -16.2016   25.4761 C   0  0  1  0  0  0  0  0  0  0  0  0
    8.8152  -15.0839   24.9838 C   0  0  0  0  0  0  0  0  0  0  0  0
    8.4409  -14.1186   26.0511 C   0  0  0  0  0  0  0  0  0  0  0  0
    7.1444  -13.5886   26.1087 C   0  0  0  0  0  0  0  0  0  0  0  0
    6.7868  -12.6899   27.0888 C   0  0  0  0  0  0  0  0  0  0  0  0
    7.6823  -12.2761   28.0482 C   0  0  0  0  0  0  0  0  0  0  0  0
    8.9608  -12.7868   28.0065 C   0  0  0  0  0  0  0  0  0  0  0  0
    9.3296  -13.6986   27.0149 C   0  0  0  0  0  0  0  0  0  0  0  0
    8.9970  -16.9416   26.5278 C   0  0  0  0  0  0  0  0  0  0  0  0
    9.4023  -16.8561   27.8435 O   0  0  0  0  0  0  0  0  0  0  0  0
    8.0201  -17.6591   26.2429 O   0  0  0  0  0  0  0  0  0  0  0  0
  2  1  1  0
  3  5  1  0
  3  2  1  0
  3  4  1  6
  5  6  1  6
  7  5  1  0
  7  8  2  0
  9  7  1  0
 10  9  1  0
 10 11  1  6
 12 11  1  0
 12 16  1  0
 13 12  2  0
 14 10  1  0
 15 14  2  0
 17 14  1  0
 18 17  1  0
 18 26  1  0
 18 19  1  6
 20 25  2  0
 20 19  1  0
 21 20  1  0
 22 23  1  0
 22 21  2  0
 23 24  2  0
 24 25  1  0
 26 28  2  0
 26 27  1  0
M  END
$$$$
