IDF.pdb
     RDKit          3D

 28 28  0  0  1  0  0  0  0  0999 V2000
    7.2323  -11.7236   19.6659 C   0  0  0  0  0  0  0  0  0  0  0  0
    7.5286  -13.1658   19.3157 C   0  0  0  0  0  0  0  0  0  0  0  0
    7.6764  -14.0177   20.5561 C   0  0  2  0  0  0  0  0  0  0  0  0
    8.7656  -13.4817   21.4568 C   0  0  0  0  0  0  0  0  0  0  0  0
    8.0171  -15.4455   20.2264 C   0  0  2  0  0  0  0  0  0  0  0  0
    6.9602  -16.1079   19.4939 N   0  0  0  0  0  0  0  0  0  0  0  0
    8.3870  -16.2401   21.3980 C   0  0  0  0  0  0  0  0  0  0  0  0
    7.5046  -16.8748   22.0176 O   0  0  0  0  0  0  0  0  0  0  0  0
    9.7512  -16.2694   21.8037 N   0  0  0  0  0  0  0  0  0  0  0  0
   10.1882  -17.2089   22.7837 C   0  0  1  0  0  0  0  0  0  0  0  0
   11.5952  -17.7027   22.5792 C   0  0  0  0  0  0  0  0  0  0  0  0
   11.9630  -18.7229   23.5804 C   0  0  0  0  0  0  0  0  0  0  0  0
   13.0756  -18.6448   24.1927 O   0  0  0  0  0  0  0  0  0  0  0  0
   10.0452  -16.6283   24.1423 C   0  0  0  0  0  0  0  0  0  0  0  0
   10.6632  -15.5528   24.4397 O   0  0  0  0  0  0  0  0  0  0  0  0
   11.1725  -19.8081   23.9315 O   0  0  0  0  0  0  0  0  0  0  0  0
    9.2552  -17.1868   25.1666 N   0  0  0  0  0  0  0  0  0  0  0  0
    9.2836  -16.7209   26.5314 C   0  0  1  0  0  0  0  0  0  0  0  0
    7.9619  -16.1322   26.9634 C   0  0  0  0  0  0  0  0  0  0  0  0
    7.8475  -14.6769   26.6812 C   0  0  0  0  0  0  0  0  0  0  0  0
    8.8168  -13.7817   27.1545 C   0  0  0  0  0  0  0  0  0  0  0  0
    8.7196  -12.4310   26.9045 C   0  0  0  0  0  0  0  0  0  0  0  0
    7.6722  -11.9056   26.1830 C   0  0  0  0  0  0  0  0  0  0  0  0
    6.7106  -12.7710   25.7103 C   0  0  0  0  0  0  0  0  0  0  0  0
    6.8036  -14.1419   25.9607 C   0  0  0  0  0  0  0  0  0  0  0  0
    9.6039  -17.8588   27.4005 C   0  0  0  0  0  0  0  0  0  0  0  0
    9.7963  -17.6793   28.7544 O   0  0  0  0  0  0  0  0  0  0  0  0
    9.7069  -19.0041   26.9231 O   0  0  0  0  0  0  0  0  0  0  0  0
  2  1  1  0
  3  5  1  0
  3  2  1  0
  3  4  1  1
  5  6  1  1
  7  5  1  0
  7  8  2  0
  9  7  1  0
 10  9  1  0
 10 11  1  6
 12 11  1  0
 12 16  1  0
 13 12  2  0
 14 10  1  0
 15 14  2  0
 17 14  1  0
 18 17  1  0
 18 26  1  0
 18 19  1  1
 20 25  2  0
 20 19  1  0
 21 20  1  0
 22 23  1  0
 22 21  2  0
 23 24  2  0
 24 25  1  0
 26 28  2  0
 26 27  1  0
M  END
$$$$
