YMG.pdb
     RDKit          3D

 25 25  0  0  1  0  0  0  0  0999 V2000
   27.8823  -15.0695  -17.8210 O   0  0  0  0  0  0  0  0  0  0  0  0
   27.4613  -16.0131  -16.9042 C   0  0  0  0  0  0  0  0  0  0  0  0
   27.4359  -15.7631  -15.5423 C   0  0  0  0  0  0  0  0  0  0  0  0
   27.0122  -16.7146  -14.6270 C   0  0  0  0  0  0  0  0  0  0  0  0
   26.6074  -17.9448  -15.1189 C   0  0  0  0  0  0  0  0  0  0  0  0
   26.1482  -18.9926  -14.2047 C   0  0  0  0  0  0  0  0  0  0  0  0
   27.2912  -19.7840  -13.6031 C   0  0  2  0  0  0  0  0  0  0  0  0
   28.0199  -20.5287  -14.5848 N   0  0  0  0  0  0  0  0  0  0  0  0
   26.7414  -20.7108  -12.5484 C   0  0  0  0  0  0  0  0  0  0  0  0
   26.5458  -21.9009  -12.8683 O   0  0  0  0  0  0  0  0  0  0  0  0
   26.6320  -18.1962  -16.4773 C   0  0  0  0  0  0  0  0  0  0  0  0
   27.0536  -17.2492  -17.3874 C   0  0  0  0  0  0  0  0  0  0  0  0
   27.0765  -18.8434   -6.5297 C   0  0  0  0  0  0  0  0  0  0  0  0
   27.9391  -20.3865   -6.9198 S   0  0  0  0  0  0  0  0  0  0  0  0
   27.4206  -21.0191   -8.5528 C   0  0  0  0  0  0  0  0  0  0  0  0
   26.0096  -20.6395   -8.8456 C   0  0  0  0  0  0  0  0  0  0  0  0
   25.5948  -20.8741  -10.2913 C   0  0  2  0  0  0  0  0  0  0  0  0
   26.4628  -20.2292  -11.2449 N   0  0  0  0  0  0  0  0  0  0  0  0
   24.1987  -20.4585  -10.4294 C   0  0  0  0  0  0  0  0  0  0  0  0
   23.6676  -19.8358   -9.4653 O   0  0  0  0  0  0  0  0  0  0  0  0
   23.3763  -20.6962  -11.5666 N   0  0  0  0  0  0  0  0  0  0  0  0
   21.9437  -20.8095  -11.4914 C   0  0  0  0  0  0  0  0  0  0  0  0
   21.3880  -21.7044  -12.5256 C   0  0  0  0  0  0  0  0  0  0  0  0
   20.0915  -21.6061  -12.9909 O   0  0  0  0  0  0  0  0  0  0  0  0
   22.1246  -22.5966  -13.0063 O   0  0  0  0  0  0  0  0  0  0  0  0
  2  1  1  0
  3  2  2  0
  4  3  1  0
  5  4  2  0
  5 11  1  0
  6  5  1  0
  7  9  1  0
  7  6  1  0
  7  8  1  6
  9 18  1  0
 10  9  2  0
 11 12  2  0
 12  2  1  0
 14 13  1  0
 15 14  1  0
 17 16  1  1
 16 15  1  0
 17 19  1  0
 18 17  1  0
 19 20  2  0
 19 21  1  0
 21 22  1  0
 23 22  1  0
 23 24  1  0
 25 23  2  0
M  END
$$$$
