YMG.pdb
     RDKit          3D

 25 25  0  0  1  0  0  0  0  0999 V2000
   17.6307  -24.5487  -15.3745 O   0  0  0  0  0  0  0  0  0  0  0  0
   18.7454  -23.8090  -15.0305 C   0  0  0  0  0  0  0  0  0  0  0  0
   18.8220  -22.4425  -15.2422 C   0  0  0  0  0  0  0  0  0  0  0  0
   19.9439  -21.7055  -14.8946 C   0  0  0  0  0  0  0  0  0  0  0  0
   21.0060  -22.3837  -14.3193 C   0  0  0  0  0  0  0  0  0  0  0  0
   22.2198  -21.6632  -13.9290 C   0  0  0  0  0  0  0  0  0  0  0  0
   22.1397  -21.1035  -12.5236 C   0  0  2  0  0  0  0  0  0  0  0  0
   21.0797  -20.1537  -12.3705 N   0  0  0  0  0  0  0  0  0  0  0  0
   23.4622  -20.4691  -12.1746 C   0  0  0  0  0  0  0  0  0  0  0  0
   23.6189  -19.2639  -12.4572 O   0  0  0  0  0  0  0  0  0  0  0  0
   20.9316  -23.7470  -14.1072 C   0  0  0  0  0  0  0  0  0  0  0  0
   19.8153  -24.4796  -14.4533 C   0  0  0  0  0  0  0  0  0  0  0  0
   25.5676  -19.6328   -7.1232 C   0  0  0  0  0  0  0  0  0  0  0  0
   27.2759  -20.0892   -7.5111 S   0  0  0  0  0  0  0  0  0  0  0  0
   27.4435  -20.5137   -9.2795 C   0  0  0  0  0  0  0  0  0  0  0  0
   26.2148  -21.1909   -9.7816 C   0  0  0  0  0  0  0  0  0  0  0  0
   25.7743  -20.7258  -11.1625 C   0  0  2  0  0  0  0  0  0  0  0  0
   24.4799  -21.2306  -11.5477 N   0  0  0  0  0  0  0  0  0  0  0  0
   26.8259  -21.0877  -12.1133 C   0  0  0  0  0  0  0  0  0  0  0  0
   27.9765  -20.5920  -11.9413 O   0  0  0  0  0  0  0  0  0  0  0  0
   26.6658  -21.9586  -13.2276 N   0  0  0  0  0  0  0  0  0  0  0  0
   26.1960  -21.5133  -14.5129 C   0  0  0  0  0  0  0  0  0  0  0  0
   27.2302  -20.7889  -15.2777 C   0  0  0  0  0  0  0  0  0  0  0  0
   28.3862  -20.2969  -14.7047 O   0  0  0  0  0  0  0  0  0  0  0  0
   27.0541  -20.6101  -16.5052 O   0  0  0  0  0  0  0  0  0  0  0  0
  2  1  1  0
  3  2  2  0
  4  3  1  0
  5  4  2  0
  5 11  1  0
  6  5  1  0
  7  9  1  0
  7  6  1  0
  7  8  1  6
  9 18  1  0
 10  9  2  0
 11 12  2  0
 12  2  1  0
 14 13  1  0
 15 14  1  0
 17 16  1  1
 16 15  1  0
 17 19  1  0
 18 17  1  0
 19 20  2  0
 19 21  1  0
 21 22  1  0
 23 22  1  0
 23 24  1  0
 25 23  2  0
M  END
$$$$
