YMG.pdb
     RDKit          3D

 25 25  0  0  1  0  0  0  0  0999 V2000
   17.2548  -23.9116  -15.1129 O   0  0  0  0  0  0  0  0  0  0  0  0
   18.3813  -23.2260  -14.7018 C   0  0  0  0  0  0  0  0  0  0  0  0
   19.5576  -23.8716  -14.3593 C   0  0  0  0  0  0  0  0  0  0  0  0
   20.6852  -23.1777  -13.9473 C   0  0  0  0  0  0  0  0  0  0  0  0
   20.6033  -21.7961  -13.8859 C   0  0  0  0  0  0  0  0  0  0  0  0
   21.7591  -21.0046  -13.4590 C   0  0  0  0  0  0  0  0  0  0  0  0
   21.7752  -20.7542  -11.9651 C   0  0  2  0  0  0  0  0  0  0  0  0
   20.7160  -19.8891  -11.5420 N   0  0  0  0  0  0  0  0  0  0  0  0
   23.1108  -20.1682  -11.5827 C   0  0  0  0  0  0  0  0  0  0  0  0
   23.3262  -18.9755  -11.8792 O   0  0  0  0  0  0  0  0  0  0  0  0
   19.4306  -21.1501  -14.2273 C   0  0  0  0  0  0  0  0  0  0  0  0
   18.3093  -21.8410  -14.6370 C   0  0  0  0  0  0  0  0  0  0  0  0
   28.6677  -19.0954   -6.3840 C   0  0  0  0  0  0  0  0  0  0  0  0
   27.1935  -20.0267   -6.8705 S   0  0  0  0  0  0  0  0  0  0  0  0
   27.0282  -20.0670   -8.6889 C   0  0  0  0  0  0  0  0  0  0  0  0
   25.7311  -20.6807   -9.0906 C   0  0  0  0  0  0  0  0  0  0  0  0
   25.4089  -20.5296  -10.5706 C   0  0  2  0  0  0  0  0  0  0  0  0
   24.0753  -20.9595  -10.9102 N   0  0  0  0  0  0  0  0  0  0  0  0
   26.4398  -21.2399  -11.3280 C   0  0  0  0  0  0  0  0  0  0  0  0
   26.6715  -22.4459  -11.0263 O   0  0  0  0  0  0  0  0  0  0  0  0
   27.2137  -20.6864  -12.3866 N   0  0  0  0  0  0  0  0  0  0  0  0
   27.3153  -21.2935  -13.6874 C   0  0  0  0  0  0  0  0  0  0  0  0
   28.0724  -20.4641  -14.6456 C   0  0  0  0  0  0  0  0  0  0  0  0
   28.4484  -19.1615  -14.3833 O   0  0  0  0  0  0  0  0  0  0  0  0
   28.3906  -20.9623  -15.7502 O   0  0  0  0  0  0  0  0  0  0  0  0
  2  1  1  0
  3  2  2  0
  4  3  1  0
  5  4  2  0
  5 11  1  0
  6  5  1  0
  7  9  1  0
  7  6  1  0
  7  8  1  6
  9 18  1  0
 10  9  2  0
 11 12  2  0
 12  2  1  0
 14 13  1  0
 15 14  1  0
 17 16  1  1
 16 15  1  0
 17 19  1  0
 18 17  1  0
 19 20  2  0
 19 21  1  0
 21 22  1  0
 23 22  1  0
 23 24  1  0
 25 23  2  0
M  END
$$$$
