YMG.pdb
     RDKit          3D

 25 25  0  0  1  0  0  0  0  0999 V2000
   23.4902  -17.8448  -17.6942 O   0  0  0  0  0  0  0  0  0  0  0  0
   23.6972  -18.5079  -16.5002 C   0  0  0  0  0  0  0  0  0  0  0  0
   23.5174  -19.8750  -16.3711 C   0  0  0  0  0  0  0  0  0  0  0  0
   23.7268  -20.5348  -15.1697 C   0  0  0  0  0  0  0  0  0  0  0  0
   24.1282  -19.7774  -14.0814 C   0  0  0  0  0  0  0  0  0  0  0  0
   24.3666  -20.4140  -12.7843 C   0  0  0  0  0  0  0  0  0  0  0  0
   25.8396  -20.5133  -12.4451 C   0  0  2  0  0  0  0  0  0  0  0  0
   26.5496  -21.3848  -13.3315 N   0  0  0  0  0  0  0  0  0  0  0  0
   25.9817  -20.9897  -11.0216 C   0  0  0  0  0  0  0  0  0  0  0  0
   25.6089  -22.1514  -10.7597 O   0  0  0  0  0  0  0  0  0  0  0  0
   24.3081  -18.4133  -14.2081 C   0  0  0  0  0  0  0  0  0  0  0  0
   24.0996  -17.7575  -15.4036 C   0  0  0  0  0  0  0  0  0  0  0  0
   28.2787  -20.1456   -3.9189 C   0  0  0  0  0  0  0  0  0  0  0  0
   28.3556  -19.8571   -5.7043 S   0  0  0  0  0  0  0  0  0  0  0  0
   26.7431  -19.2732   -6.3325 C   0  0  0  0  0  0  0  0  0  0  0  0
   26.7892  -19.0728   -7.8084 C   0  0  0  0  0  0  0  0  0  0  0  0
   26.3144  -20.2768   -8.6097 C   0  0  2  0  0  0  0  0  0  0  0  0
   26.5221  -20.1342  -10.0293 N   0  0  0  0  0  0  0  0  0  0  0  0
   24.9126  -20.5180   -8.2669 C   0  0  0  0  0  0  0  0  0  0  0  0
   24.0429  -19.7314   -8.7403 O   0  0  0  0  0  0  0  0  0  0  0  0
   24.4362  -21.5725   -7.4380 N   0  0  0  0  0  0  0  0  0  0  0  0
   23.0528  -21.7197   -7.0696 C   0  0  0  0  0  0  0  0  0  0  0  0
   22.8400  -21.6384   -5.6111 C   0  0  0  0  0  0  0  0  0  0  0  0
   21.7109  -22.1284   -4.9850 O   0  0  0  0  0  0  0  0  0  0  0  0
   23.7235  -21.0999   -4.9046 O   0  0  0  0  0  0  0  0  0  0  0  0
  2  1  1  0
  3  2  2  0
  4  3  1  0
  5  4  2  0
  5 11  1  0
  6  5  1  0
  7  9  1  0
  7  6  1  0
  7  8  1  6
  9 18  1  0
 10  9  2  0
 11 12  2  0
 12  2  1  0
 14 13  1  0
 15 14  1  0
 17 16  1  1
 16 15  1  0
 17 19  1  0
 18 17  1  0
 19 20  2  0
 19 21  1  0
 21 22  1  0
 23 22  1  0
 23 24  1  0
 25 23  2  0
M  END
$$$$
