YMG.pdb
     RDKit          3D

 25 25  0  0  1  0  0  0  0  0999 V2000
   19.5571  -12.4587  -16.0310 O   0  0  0  0  0  0  0  0  0  0  0  0
   18.8184  -11.4309  -15.4779 C   0  0  0  0  0  0  0  0  0  0  0  0
   19.3255  -10.6014  -14.4918 C   0  0  0  0  0  0  0  0  0  0  0  0
   18.5788   -9.5712  -13.9405 C   0  0  0  0  0  0  0  0  0  0  0  0
   17.2884   -9.3895  -14.4104 C   0  0  0  0  0  0  0  0  0  0  0  0
   16.4479   -8.3189  -13.8699 C   0  0  0  0  0  0  0  0  0  0  0  0
   15.7947   -8.6967  -12.5564 C   0  0  2  0  0  0  0  0  0  0  0  0
   14.9147   -9.8187  -12.6836 N   0  0  0  0  0  0  0  0  0  0  0  0
   15.0433   -7.5030  -12.0237 C   0  0  0  0  0  0  0  0  0  0  0  0
   13.8784   -7.3221  -12.4330 O   0  0  0  0  0  0  0  0  0  0  0  0
   16.7805  -10.2160  -15.3943 C   0  0  0  0  0  0  0  0  0  0  0  0
   17.5239  -11.2407  -15.9423 C   0  0  0  0  0  0  0  0  0  0  0  0
   12.8568   -3.3031   -5.9308 C   0  0  0  0  0  0  0  0  0  0  0  0
   13.7887   -4.6853   -6.6366 S   0  0  0  0  0  0  0  0  0  0  0  0
   14.0563   -4.4347   -8.4258 C   0  0  0  0  0  0  0  0  0  0  0  0
   14.8133   -5.5754   -9.0143 C   0  0  0  0  0  0  0  0  0  0  0  0
   15.0307   -5.4623  -10.5166 C   0  0  2  0  0  0  0  0  0  0  0  0
   15.6546   -6.6281  -11.0914 N   0  0  0  0  0  0  0  0  0  0  0  0
   15.7883   -4.2361  -10.7682 C   0  0  0  0  0  0  0  0  0  0  0  0
   17.0283   -4.2442  -10.5200 O   0  0  0  0  0  0  0  0  0  0  0  0
   15.2461   -3.0209  -11.2735 N   0  0  0  0  0  0  0  0  0  0  0  0
   16.0464   -1.8572  -11.5495 C   0  0  0  0  0  0  0  0  0  0  0  0
   16.3562   -1.0777  -10.3347 C   0  0  0  0  0  0  0  0  0  0  0  0
   17.1855    0.0264  -10.3379 O   0  0  0  0  0  0  0  0  0  0  0  0
   15.8442   -1.4319   -9.2475 O   0  0  0  0  0  0  0  0  0  0  0  0
  2  1  1  0
  3  2  2  0
  4  3  1  0
  5  4  2  0
  5 11  1  0
  6  5  1  0
  7  9  1  0
  7  6  1  0
  7  8  1  6
  9 18  1  0
 10  9  2  0
 11 12  2  0
 12  2  1  0
 14 13  1  0
 15 14  1  0
 17 16  1  1
 16 15  1  0
 17 19  1  0
 18 17  1  0
 19 20  2  0
 19 21  1  0
 21 22  1  0
 23 22  1  0
 23 24  1  0
 25 23  2  0
M  END
$$$$
