YMG.pdb
     RDKit          3D

 25 25  0  0  1  0  0  0  0  0999 V2000
   17.5903  -23.9137  -14.4529 O   0  0  0  0  0  0  0  0  0  0  0  0
   18.7961  -23.3270  -14.1218 C   0  0  0  0  0  0  0  0  0  0  0  0
   19.8197  -24.0315  -13.5103 C   0  0  0  0  0  0  0  0  0  0  0  0
   21.0280  -23.4366  -13.1804 C   0  0  0  0  0  0  0  0  0  0  0  0
   21.1881  -22.0944  -13.4838 C   0  0  0  0  0  0  0  0  0  0  0  0
   22.4406  -21.4073  -13.1618 C   0  0  0  0  0  0  0  0  0  0  0  0
   22.4717  -20.8869  -11.7395 C   0  0  2  0  0  0  0  0  0  0  0  0
   21.3989  -19.9802  -11.4631 N   0  0  0  0  0  0  0  0  0  0  0  0
   23.7986  -20.2141  -11.4947 C   0  0  0  0  0  0  0  0  0  0  0  0
   23.9784  -19.0871  -11.9994 O   0  0  0  0  0  0  0  0  0  0  0  0
   20.1681  -21.3898  -14.0938 C   0  0  0  0  0  0  0  0  0  0  0  0
   18.9663  -21.9821  -14.4218 C   0  0  0  0  0  0  0  0  0  0  0  0
   28.4757  -19.1627   -6.4725 C   0  0  0  0  0  0  0  0  0  0  0  0
   27.0618  -20.2916   -6.5342 S   0  0  0  0  0  0  0  0  0  0  0  0
   26.1083  -20.0462   -8.0724 C   0  0  0  0  0  0  0  0  0  0  0  0
   26.7634  -20.7367   -9.2190 C   0  0  0  0  0  0  0  0  0  0  0  0
   26.1549  -20.3981  -10.5726 C   0  0  2  0  0  0  0  0  0  0  0  0
   24.7948  -20.8544  -10.7160 N   0  0  0  0  0  0  0  0  0  0  0  0
   27.0404  -20.9322  -11.6077 C   0  0  0  0  0  0  0  0  0  0  0  0
   27.1826  -22.1869  -11.6762 O   0  0  0  0  0  0  0  0  0  0  0  0
   27.7641  -20.1548  -12.5552 N   0  0  0  0  0  0  0  0  0  0  0  0
   28.6158  -20.7331  -13.5608 C   0  0  0  0  0  0  0  0  0  0  0  0
   27.9634  -20.8132  -14.8826 C   0  0  0  0  0  0  0  0  0  0  0  0
   26.6209  -21.0924  -15.0456 O   0  0  0  0  0  0  0  0  0  0  0  0
   28.6576  -20.6191  -15.9073 O   0  0  0  0  0  0  0  0  0  0  0  0
  2  1  1  0
  3  2  2  0
  4  3  1  0
  5  4  2  0
  5 11  1  0
  6  5  1  0
  7  9  1  0
  7  6  1  0
  7  8  1  6
  9 18  1  0
 10  9  2  0
 11 12  2  0
 12  2  1  0
 14 13  1  0
 15 14  1  0
 17 16  1  1
 16 15  1  0
 17 19  1  0
 18 17  1  0
 19 20  2  0
 19 21  1  0
 21 22  1  0
 23 22  1  0
 23 24  1  0
 25 23  2  0
M  END
$$$$
