YNI.pdb
     RDKit          3D

 29 29  0  0  1  0  0  0  0  0999 V2000
    9.2009  -12.2535   18.1924 O   0  0  0  0  0  0  0  0  0  0  0  0
    8.3035  -13.0725   18.8680 C   0  0  0  0  0  0  0  0  0  0  0  0
    7.9800  -12.9306   20.1934 C   0  0  0  0  0  0  0  0  0  0  0  0
    7.0678  -13.7968   20.7957 C   0  0  0  0  0  0  0  0  0  0  0  0
    6.4610  -14.8168   20.0972 C   0  0  0  0  0  0  0  0  0  0  0  0
    5.4920  -15.7525   20.6993 C   0  0  0  0  0  0  0  0  0  0  0  0
    6.0705  -17.1656   20.8108 C   0  0  2  0  0  0  0  0  0  0  0  0
    5.2744  -18.0960   20.0417 N   0  0  0  0  0  0  0  0  0  0  0  0
    6.0936  -17.4777   22.2602 C   0  0  0  0  0  0  0  0  0  0  0  0
    5.1429  -18.1725   22.7032 O   0  0  0  0  0  0  0  0  0  0  0  0
    6.7867  -14.9615   18.7594 C   0  0  0  0  0  0  0  0  0  0  0  0
    7.7005  -14.0923   18.1607 C   0  0  0  0  0  0  0  0  0  0  0  0
    6.6074  -18.8193   27.1399 N   0  0  0  0  0  0  0  0  0  0  0  0
    7.4706  -19.3185   26.1207 C   0  0  0  0  0  0  0  0  0  0  0  0
    8.4200  -20.0420   26.4646 O   0  0  0  0  0  0  0  0  0  0  0  0
    7.2462  -18.9891   24.6982 C   0  0  0  0  0  0  0  0  0  0  0  0
    7.1133  -17.4876   24.5587 C   0  0  2  0  0  0  0  0  0  0  0  0
    7.0795  -17.0659   23.1747 N   0  0  0  0  0  0  0  0  0  0  0  0
    8.2155  -16.8640   25.3121 C   0  0  0  0  0  0  0  0  0  0  0  0
    9.4386  -17.0906   25.0997 O   0  0  0  0  0  0  0  0  0  0  0  0
    6.5697  -11.8470   27.8174 C   0  0  0  0  0  0  0  0  0  0  0  0
    6.9941  -13.2699   27.6939 C   0  0  0  0  0  0  0  0  0  0  0  0
    8.0699  -13.5525   26.6930 C   0  0  2  0  0  0  0  0  0  0  0  0
    7.6022  -13.1104   25.3364 C   0  0  0  0  0  0  0  0  0  0  0  0
    8.7544  -14.8590   26.7775 C   0  0  2  0  0  0  0  0  0  0  0  0
    7.8836  -15.9501   26.3406 N   0  0  0  0  0  0  0  0  0  0  0  0
    9.4257  -15.2268   28.0222 C   0  0  0  0  0  0  0  0  0  0  0  0
    8.9905  -16.2349   28.6745 O   0  0  0  0  0  0  0  0  0  0  0  0
   10.5125  -14.5984   28.5952 O   0  0  0  0  0  0  0  0  0  0  0  0
  2  1  1  0
  3  2  2  0
  4  3  1  0
  5 11  1  0
  5  4  2  0
  6  5  1  0
  7  8  1  6
  7  6  1  0
  9  7  1  0
 10  9  2  0
 11 12  2  0
 12  2  1  0
 13 14  1  0
 14 15  2  0
 16 14  1  0
 17 16  1  6
 17 18  1  0
 18  9  1  0
 19 26  1  0
 19 17  1  0
 20 19  2  0
 22 21  1  0
 23 22  1  0
 23 24  1  6
 25 23  1  0
 25 26  1  1
 27 25  1  0
 28 27  2  0
 29 27  1  0
M  END
$$$$
