YNI.pdb
     RDKit          3D

 29 29  0  0  1  0  0  0  0  0999 V2000
    9.4607  -12.9002   18.9420 O   0  0  0  0  0  0  0  0  0  0  0  0
    8.5836  -13.7888   19.5535 C   0  0  0  0  0  0  0  0  0  0  0  0
    7.2836  -13.4896   19.8726 C   0  0  0  0  0  0  0  0  0  0  0  0
    6.4688  -14.4409   20.4860 C   0  0  0  0  0  0  0  0  0  0  0  0
    6.9263  -15.7029   20.7934 C   0  0  0  0  0  0  0  0  0  0  0  0
    6.0950  -16.7351   21.4418 C   0  0  0  0  0  0  0  0  0  0  0  0
    6.0951  -16.5812   22.9651 C   0  0  2  0  0  0  0  0  0  0  0  0
    6.5437  -15.2576   23.3359 N   0  0  0  0  0  0  0  0  0  0  0  0
    6.9741  -17.6595   23.4783 C   0  0  0  0  0  0  0  0  0  0  0  0
    6.8504  -18.7914   22.9431 O   0  0  0  0  0  0  0  0  0  0  0  0
    8.2383  -16.0063   20.4720 C   0  0  0  0  0  0  0  0  0  0  0  0
    9.0504  -15.0510   19.8583 C   0  0  0  0  0  0  0  0  0  0  0  0
   11.8169  -17.9755   22.1602 N   0  0  0  0  0  0  0  0  0  0  0  0
   11.1443  -16.8564   22.7330 C   0  0  0  0  0  0  0  0  0  0  0  0
   11.8291  -15.8782   23.0755 O   0  0  0  0  0  0  0  0  0  0  0  0
    9.6782  -16.8551   22.9143 C   0  0  0  0  0  0  0  0  0  0  0  0
    9.3521  -17.4485   24.2683 C   0  0  2  0  0  0  0  0  0  0  0  0
    7.9264  -17.5259   24.5046 N   0  0  0  0  0  0  0  0  0  0  0  0
   10.0515  -16.6518   25.2917 C   0  0  0  0  0  0  0  0  0  0  0  0
   11.3028  -16.4960   25.3381 O   0  0  0  0  0  0  0  0  0  0  0  0
    6.7046  -12.9106   27.1704 C   0  0  0  0  0  0  0  0  0  0  0  0
    8.0169  -13.4603   26.7280 C   0  0  0  0  0  0  0  0  0  0  0  0
    8.8310  -14.1488   27.7779 C   0  0  2  0  0  0  0  0  0  0  0  0
    9.2914  -13.1322   28.7825 C   0  0  0  0  0  0  0  0  0  0  0  0
    9.8215  -15.1479   27.3272 C   0  0  2  0  0  0  0  0  0  0  0  0
    9.2712  -16.0179   26.2880 N   0  0  0  0  0  0  0  0  0  0  0  0
   10.5226  -15.9501   28.3273 C   0  0  0  0  0  0  0  0  0  0  0  0
   11.5427  -15.4458   28.9071 O   0  0  0  0  0  0  0  0  0  0  0  0
   10.2024  -17.2279   28.7383 O   0  0  0  0  0  0  0  0  0  0  0  0
  2  1  1  0
  3  2  2  0
  4  3  1  0
  5 11  1  0
  5  4  2  0
  6  5  1  0
  7  8  1  6
  7  6  1  0
  9  7  1  0
 10  9  2  0
 11 12  2  0
 12  2  1  0
 13 14  1  0
 14 15  2  0
 16 14  1  0
 17 16  1  6
 17 18  1  0
 18  9  1  0
 19 26  1  0
 19 17  1  0
 20 19  2  0
 22 21  1  0
 23 22  1  0
 23 24  1  6
 25 23  1  0
 25 26  1  6
 27 25  1  0
 28 27  2  0
 29 27  1  0
M  END
$$$$
