YNI.pdb
     RDKit          3D

 29 29  0  0  1  0  0  0  0  0999 V2000
    8.6056  -12.4455   16.3850 O   0  0  0  0  0  0  0  0  0  0  0  0
    8.2039  -13.0968   17.5456 C   0  0  0  0  0  0  0  0  0  0  0  0
    9.0662  -13.6848   18.4356 C   0  0  0  0  0  0  0  0  0  0  0  0
    8.5796  -14.3189   19.5785 C   0  0  0  0  0  0  0  0  0  0  0  0
    7.2329  -14.3815   19.8598 C   0  0  0  0  0  0  0  0  0  0  0  0
    6.6808  -15.0429   21.0575 C   0  0  0  0  0  0  0  0  0  0  0  0
    7.0478  -16.5287   21.0981 C   0  0  2  0  0  0  0  0  0  0  0  0
    6.3060  -17.2567   20.0927 N   0  0  0  0  0  0  0  0  0  0  0  0
    6.7524  -16.9784   22.4798 C   0  0  0  0  0  0  0  0  0  0  0  0
    5.9604  -17.9485   22.6006 O   0  0  0  0  0  0  0  0  0  0  0  0
    6.3613  -13.7885   18.9623 C   0  0  0  0  0  0  0  0  0  0  0  0
    6.8528  -13.1551   17.8195 C   0  0  0  0  0  0  0  0  0  0  0  0
    6.6127  -19.7728   26.7231 N   0  0  0  0  0  0  0  0  0  0  0  0
    7.7344  -18.9859   26.3286 C   0  0  0  0  0  0  0  0  0  0  0  0
    8.6298  -18.7872   27.1665 O   0  0  0  0  0  0  0  0  0  0  0  0
    7.8338  -18.4234   24.9663 C   0  0  0  0  0  0  0  0  0  0  0  0
    7.1909  -17.0529   24.9547 C   0  0  2  0  0  0  0  0  0  0  0  0
    7.2774  -16.4170   23.6576 N   0  0  0  0  0  0  0  0  0  0  0  0
    7.8176  -16.2502   26.0198 C   0  0  0  0  0  0  0  0  0  0  0  0
    7.8418  -16.5807   27.2374 O   0  0  0  0  0  0  0  0  0  0  0  0
    6.4012  -11.6300   28.0648 C   0  0  0  0  0  0  0  0  0  0  0  0
    7.1192  -12.9130   27.8223 C   0  0  0  0  0  0  0  0  0  0  0  0
    8.1836  -12.8843   26.7710 C   0  0  2  0  0  0  0  0  0  0  0  0
    7.6178  -12.2752   25.5206 C   0  0  0  0  0  0  0  0  0  0  0  0
    9.0201  -14.0918   26.6138 C   0  0  2  0  0  0  0  0  0  0  0  0
    8.4343  -15.0294   25.6560 N   0  0  0  0  0  0  0  0  0  0  0  0
    9.4570  -14.8103   27.8089 C   0  0  0  0  0  0  0  0  0  0  0  0
   10.1550  -14.1835   28.6757 O   0  0  0  0  0  0  0  0  0  0  0  0
    9.1941  -16.1270   28.1273 O   0  0  0  0  0  0  0  0  0  0  0  0
  2  1  1  0
  3  2  2  0
  4  3  1  0
  5 11  1  0
  5  4  2  0
  6  5  1  0
  7  8  1  6
  7  6  1  0
  9  7  1  0
 10  9  2  0
 11 12  2  0
 12  2  1  0
 13 14  1  0
 14 15  2  0
 16 14  1  0
 17 16  1  6
 17 18  1  0
 18  9  1  0
 19 26  1  0
 19 17  1  0
 20 19  2  0
 22 21  1  0
 23 22  1  0
 23 24  1  6
 25 23  1  0
 25 26  1  6
 27 25  1  0
 28 27  2  0
 29 27  1  0
M  END
$$$$
