PPK.pdb
     RDKit          3D

 24 25  0  0  1  0  0  0  0  0999 V2000
   28.3932  -20.9431  -15.7921 N   0  0  0  0  0  0  0  0  0  0  0  0
   27.6348  -19.8937  -16.3968 C   0  0  0  0  0  0  0  0  0  0  0  0
   28.1605  -18.5928  -15.8360 C   0  0  0  0  0  0  0  0  0  0  0  0
   28.8184  -19.0300  -14.5669 C   0  0  0  0  0  0  0  0  0  0  0  0
   28.8144  -20.5162  -14.4820 C   0  0  1  0  0  0  0  0  0  0  0  0
   27.8922  -21.0245  -13.4150 C   0  0  0  0  0  0  0  0  0  0  0  0
   26.7063  -21.1991  -13.7545 O   0  0  0  0  0  0  0  0  0  0  0  0
   28.3182  -21.2932  -12.1090 N   0  0  0  0  0  0  0  0  0  0  0  0
   29.6580  -21.8917  -11.8532 C   0  0  0  0  0  0  0  0  0  0  0  0
   30.1732  -20.8535  -10.8692 C   0  0  0  0  0  0  0  0  0  0  0  0
   28.9243  -20.2869  -10.1713 C   0  0  0  0  0  0  0  0  0  0  0  0
   27.8539  -21.1663  -10.8015 C   0  0  1  0  0  0  0  0  0  0  0  0
   26.5073  -20.7522  -10.4972 C   0  0  0  0  0  0  0  0  0  0  0  0
   26.2507  -20.0366   -9.5120 O   0  0  0  0  0  0  0  0  0  0  0  0
   25.3808  -21.1343  -11.3034 N   0  0  0  0  0  0  0  0  0  0  0  0
   24.0880  -20.4935  -11.2685 C   0  0  1  0  0  0  0  0  0  0  0  0
   23.2777  -20.7140  -12.4798 C   0  0  0  0  0  0  0  0  0  0  0  0
   21.9496  -20.0676  -12.5722 C   0  0  0  0  0  0  0  0  0  0  0  0
   20.8188  -21.0010  -12.9103 C   0  0  0  0  0  0  0  0  0  0  0  0
   19.5296  -20.2169  -13.0484 C   0  0  0  0  0  0  0  0  0  0  0  0
   18.4399  -21.1573  -13.2833 N   0  0  0  0  0  0  0  0  0  0  0  0
   23.3312  -20.8186  -10.0420 C   0  0  0  0  0  0  0  0  0  0  0  0
   23.7057  -21.9172   -9.2902 O   0  0  0  0  0  0  0  0  0  0  0  0
   22.3462  -20.1732   -9.6005 O   0  0  0  0  0  0  0  0  0  0  0  0
  1  2  1  0
  3  2  1  0
  4  5  1  0
  4  3  1  0
  5  1  1  0
  6  7  2  0
  5  6  1  1
  8  6  1  0
  9  8  1  0
 10  9  1  0
 11 10  1  0
 11 12  1  0
 12  8  1  0
 12 13  1  6
 14 13  2  0
 15 13  1  0
 16 22  1  0
 16 15  1  0
 17 18  1  0
 16 17  1  6
 18 19  1  0
 20 19  1  0
 20 21  1  0
 22 23  1  0
 24 22  2  0
M  END
$$$$
