PPK.pdb
     RDKit          3D

 24 25  0  0  1  0  0  0  0  0999 V2000
   21.6999  -16.2319  -18.1846 N   0  0  0  0  0  0  0  0  0  0  0  0
   20.7883  -16.0534  -19.2703 C   0  0  0  0  0  0  0  0  0  0  0  0
   21.5395  -15.3225  -20.3588 C   0  0  0  0  0  0  0  0  0  0  0  0
   22.6587  -14.6802  -19.6042 C   0  0  0  0  0  0  0  0  0  0  0  0
   22.6474  -15.1463  -18.1905 C   0  0  1  0  0  0  0  0  0  0  0  0
   22.2477  -14.0622  -17.2352 C   0  0  0  0  0  0  0  0  0  0  0  0
   21.0487  -13.7247  -17.2615 O   0  0  0  0  0  0  0  0  0  0  0  0
   23.1521  -13.4528  -16.3579 N   0  0  0  0  0  0  0  0  0  0  0  0
   24.1706  -14.2613  -15.6315 C   0  0  0  0  0  0  0  0  0  0  0  0
   25.4052  -13.4793  -16.0507 C   0  0  0  0  0  0  0  0  0  0  0  0
   24.9217  -12.0388  -16.2941 C   0  0  0  0  0  0  0  0  0  0  0  0
   23.4640  -12.1814  -15.8806 C   0  0  1  0  0  0  0  0  0  0  0  0
   22.6581  -11.0248  -16.1811 C   0  0  0  0  0  0  0  0  0  0  0  0
   22.5698  -10.5726  -17.3371 O   0  0  0  0  0  0  0  0  0  0  0  0
   21.9095  -10.3225  -15.1756 N   0  0  0  0  0  0  0  0  0  0  0  0
   21.1738   -9.1011  -15.3996 C   0  0  1  0  0  0  0  0  0  0  0  0
   19.7168   -9.2925  -15.5149 C   0  0  0  0  0  0  0  0  0  0  0  0
   18.8753   -8.1304  -15.8775 C   0  0  0  0  0  0  0  0  0  0  0  0
   17.3998   -8.4187  -15.9409 C   0  0  0  0  0  0  0  0  0  0  0  0
   16.6585   -7.1948  -16.4394 C   0  0  0  0  0  0  0  0  0  0  0  0
   15.2262   -7.4578  -16.3590 N   0  0  0  0  0  0  0  0  0  0  0  0
   21.5077   -8.0534  -14.4128 C   0  0  0  0  0  0  0  0  0  0  0  0
   22.1289   -8.4140  -13.2311 O   0  0  0  0  0  0  0  0  0  0  0  0
   21.2734   -6.8250  -14.5462 O   0  0  0  0  0  0  0  0  0  0  0  0
  1  2  1  0
  3  2  1  0
  4  5  1  0
  4  3  1  0
  5  1  1  0
  6  7  2  0
  5  6  1  1
  8  6  1  0
  9  8  1  0
 10  9  1  0
 11 10  1  0
 11 12  1  0
 12  8  1  0
 12 13  1  6
 14 13  2  0
 15 13  1  0
 16 22  1  0
 16 15  1  0
 17 18  1  0
 16 17  1  1
 18 19  1  0
 20 19  1  0
 20 21  1  0
 22 23  1  0
 24 22  2  0
M  END
$$$$
