PPK.pdb
     RDKit          3D

 24 25  0  0  1  0  0  0  0  0999 V2000
   26.2203  -19.9726  -10.9827 N   0  0  0  0  0  0  0  0  0  0  0  0
   25.2347  -20.8841  -10.4932 C   0  0  0  0  0  0  0  0  0  0  0  0
   25.4403  -22.1890  -11.2270 C   0  0  0  0  0  0  0  0  0  0  0  0
   26.1856  -21.7587  -12.4494 C   0  0  0  0  0  0  0  0  0  0  0  0
   26.5321  -20.3145  -12.3473 C   0  0  1  0  0  0  0  0  0  0  0  0
   25.7580  -19.4720  -13.3160 C   0  0  0  0  0  0  0  0  0  0  0  0
   24.5785  -19.2218  -13.0025 O   0  0  0  0  0  0  0  0  0  0  0  0
   26.3091  -18.9854  -14.5071 N   0  0  0  0  0  0  0  0  0  0  0  0
   27.6211  -18.2801  -14.5067 C   0  0  0  0  0  0  0  0  0  0  0  0
   28.3211  -19.1269  -15.5576 C   0  0  0  0  0  0  0  0  0  0  0  0
   27.2056  -19.6516  -16.4787 C   0  0  0  0  0  0  0  0  0  0  0  0
   26.0078  -18.9396  -15.8667 C   0  0  1  0  0  0  0  0  0  0  0  0
   24.7393  -19.3788  -16.3916 C   0  0  0  0  0  0  0  0  0  0  0  0
   24.3579  -20.5578  -16.2771 O   0  0  0  0  0  0  0  0  0  0  0  0
   23.8382  -18.4933  -17.0759 N   0  0  0  0  0  0  0  0  0  0  0  0
   22.5314  -18.8639  -17.5639 C   0  0  1  0  0  0  0  0  0  0  0  0
   21.6919  -17.7179  -17.9572 C   0  0  0  0  0  0  0  0  0  0  0  0
   20.2897  -17.9700  -18.3574 C   0  0  0  0  0  0  0  0  0  0  0  0
   19.5225  -16.7418  -18.7661 C   0  0  0  0  0  0  0  0  0  0  0  0
   18.1145  -17.1274  -19.1724 C   0  0  0  0  0  0  0  0  0  0  0  0
   17.4041  -15.9202  -19.5787 N   0  0  0  0  0  0  0  0  0  0  0  0
   22.5971  -19.8814  -18.6331 C   0  0  0  0  0  0  0  0  0  0  0  0
   21.6982  -20.9322  -18.6198 O   0  0  0  0  0  0  0  0  0  0  0  0
   23.4186  -19.8863  -19.5854 O   0  0  0  0  0  0  0  0  0  0  0  0
  1  2  1  0
  3  2  1  0
  4  5  1  0
  4  3  1  0
  5  1  1  0
  6  7  2  0
  5  6  1  6
  8  6  1  0
  9  8  1  0
 10  9  1  0
 11 10  1  0
 11 12  1  0
 12  8  1  0
 12 13  1  1
 14 13  2  0
 15 13  1  0
 16 22  1  0
 16 15  1  0
 17 18  1  0
 16 17  1  6
 18 19  1  0
 20 19  1  0
 20 21  1  0
 22 23  1  0
 24 22  2  0
M  END
$$$$
