PPK.pdb
     RDKit          3D

 24 25  0  0  1  0  0  0  0  0999 V2000
   28.1764  -19.8685  -15.6316 N   0  0  0  0  0  0  0  0  0  0  0  0
   27.7849  -18.7553  -16.4374 C   0  0  0  0  0  0  0  0  0  0  0  0
   27.7694  -17.5436  -15.5347 C   0  0  0  0  0  0  0  0  0  0  0  0
   27.6433  -18.1541  -14.1760 C   0  0  0  0  0  0  0  0  0  0  0  0
   27.7444  -19.6359  -14.2769 C   0  0  1  0  0  0  0  0  0  0  0  0
   26.4404  -20.3178  -13.9906 C   0  0  0  0  0  0  0  0  0  0  0  0
   25.5836  -20.2609  -14.8932 O   0  0  0  0  0  0  0  0  0  0  0  0
   26.1810  -20.9842  -12.7873 N   0  0  0  0  0  0  0  0  0  0  0  0
   27.2015  -21.8826  -12.1792 C   0  0  0  0  0  0  0  0  0  0  0  0
   27.2515  -21.2481  -10.7984 C   0  0  0  0  0  0  0  0  0  0  0  0
   25.8577  -20.6366  -10.5716 C   0  0  0  0  0  0  0  0  0  0  0  0
   25.1619  -21.0985  -11.8440 C   0  0  1  0  0  0  0  0  0  0  0  0
   23.8593  -20.5135  -12.0399 C   0  0  0  0  0  0  0  0  0  0  0  0
   23.6118  -19.3417  -11.7017 O   0  0  0  0  0  0  0  0  0  0  0  0
   22.7689  -21.2371  -12.6332 N   0  0  0  0  0  0  0  0  0  0  0  0
   21.4812  -20.6693  -12.9536 C   0  0  1  0  0  0  0  0  0  0  0  0
   20.9632  -21.0679  -14.2748 C   0  0  0  0  0  0  0  0  0  0  0  0
   19.6326  -20.5735  -14.6935 C   0  0  0  0  0  0  0  0  0  0  0  0
   19.6578  -19.5886  -15.8308 C   0  0  0  0  0  0  0  0  0  0  0  0
   18.2456  -19.1509  -16.1625 C   0  0  0  0  0  0  0  0  0  0  0  0
   18.2998  -18.2376  -17.2983 N   0  0  0  0  0  0  0  0  0  0  0  0
   20.4840  -20.8976  -11.8876 C   0  0  0  0  0  0  0  0  0  0  0  0
   19.4925  -19.9563  -11.6794 O   0  0  0  0  0  0  0  0  0  0  0  0
   20.4479  -21.8969  -11.1249 O   0  0  0  0  0  0  0  0  0  0  0  0
  1  2  1  0
  3  2  1  0
  4  5  1  0
  4  3  1  0
  5  1  1  0
  6  7  2  0
  5  6  1  6
  8  6  1  0
  9  8  1  0
 10  9  1  0
 11 10  1  0
 11 12  1  0
 12  8  1  0
 12 13  1  6
 14 13  2  0
 15 13  1  0
 16 22  1  0
 16 15  1  0
 17 18  1  0
 16 17  1  6
 18 19  1  0
 20 19  1  0
 20 21  1  0
 22 23  1  0
 24 22  2  0
M  END
$$$$
