PPK.pdb
     RDKit          3D

 24 25  0  0  1  0  0  0  0  0999 V2000
   28.3836  -20.6596  -15.0309 N   0  0  0  0  0  0  0  0  0  0  0  0
   28.1096  -19.7767  -16.1204 C   0  0  0  0  0  0  0  0  0  0  0  0
   27.9033  -18.4012  -15.5298 C   0  0  0  0  0  0  0  0  0  0  0  0
   27.5574  -18.7082  -14.1082 C   0  0  0  0  0  0  0  0  0  0  0  0
   27.7146  -20.1664  -13.8539 C   0  0  1  0  0  0  0  0  0  0  0  0
   26.3994  -20.8536  -13.6402 C   0  0  0  0  0  0  0  0  0  0  0  0
   25.8495  -21.3118  -14.6599 O   0  0  0  0  0  0  0  0  0  0  0  0
   25.8076  -20.9833  -12.3784 N   0  0  0  0  0  0  0  0  0  0  0  0
   26.6152  -21.3980  -11.1976 C   0  0  0  0  0  0  0  0  0  0  0  0
   26.2571  -20.2434  -10.2756 C   0  0  0  0  0  0  0  0  0  0  0  0
   24.8524  -19.7872  -10.7077 C   0  0  0  0  0  0  0  0  0  0  0  0
   24.5596  -20.8284  -11.7783 C   0  0  1  0  0  0  0  0  0  0  0  0
   23.3651  -20.5607  -12.5391 C   0  0  0  0  0  0  0  0  0  0  0  0
   23.1668  -19.4560  -13.0768 O   0  0  0  0  0  0  0  0  0  0  0  0
   22.3323  -21.5420  -12.7262 N   0  0  0  0  0  0  0  0  0  0  0  0
   21.0710  -21.2952  -13.3831 C   0  0  1  0  0  0  0  0  0  0  0  0
   20.3033  -22.5171  -13.6835 C   0  0  0  0  0  0  0  0  0  0  0  0
   19.0099  -22.3863  -14.3906 C   0  0  0  0  0  0  0  0  0  0  0  0
   18.3112  -23.6896  -14.6685 C   0  0  0  0  0  0  0  0  0  0  0  0
   17.0077  -23.4287  -15.3956 C   0  0  0  0  0  0  0  0  0  0  0  0
   16.2704  -24.6837  -15.4869 N   0  0  0  0  0  0  0  0  0  0  0  0
   20.2482  -20.2991  -12.6665 C   0  0  0  0  0  0  0  0  0  0  0  0
   19.5776  -19.3314  -13.3921 O   0  0  0  0  0  0  0  0  0  0  0  0
   20.0935  -20.2424  -11.4197 O   0  0  0  0  0  0  0  0  0  0  0  0
  1  2  1  0
  3  2  1  0
  4  5  1  0
  4  3  1  0
  5  1  1  0
  6  7  2  0
  5  6  1  6
  8  6  1  0
  9  8  1  0
 10  9  1  0
 11 10  1  0
 11 12  1  0
 12  8  1  0
 12 13  1  6
 14 13  2  0
 15 13  1  0
 16 22  1  0
 16 15  1  0
 17 18  1  0
 16 17  1  1
 18 19  1  0
 20 19  1  0
 20 21  1  0
 22 23  1  0
 24 22  2  0
M  END
$$$$
