PPK.pdb
     RDKit          3D

 24 25  0  0  1  0  0  0  0  0999 V2000
   29.0133  -21.0253  -12.5449 N   0  0  0  0  0  0  0  0  0  0  0  0
   29.7764  -20.3124  -11.5695 C   0  0  0  0  0  0  0  0  0  0  0  0
   29.4616  -20.9315  -10.2275 C   0  0  0  0  0  0  0  0  0  0  0  0
   28.1491  -21.6009  -10.4799 C   0  0  0  0  0  0  0  0  0  0  0  0
   27.8064  -21.5112  -11.9258 C   0  0  1  0  0  0  0  0  0  0  0  0
   26.6488  -20.5937  -12.1821 C   0  0  0  0  0  0  0  0  0  0  0  0
   25.8023  -20.5134  -11.2716 O   0  0  0  0  0  0  0  0  0  0  0  0
   26.5090  -19.8618  -13.3670 N   0  0  0  0  0  0  0  0  0  0  0  0
   27.6132  -18.9919  -13.8595 C   0  0  0  0  0  0  0  0  0  0  0  0
   27.7304  -19.5661  -15.2623 C   0  0  0  0  0  0  0  0  0  0  0  0
   26.3280  -20.0931  -15.6139 C   0  0  0  0  0  0  0  0  0  0  0  0
   25.5667  -19.6525  -14.3719 C   0  0  1  0  0  0  0  0  0  0  0  0
   24.2263  -20.1766  -14.2946 C   0  0  0  0  0  0  0  0  0  0  0  0
   23.7849  -20.9699  -15.1458 O   0  0  0  0  0  0  0  0  0  0  0  0
   23.3177  -19.8216  -13.2395 N   0  0  0  0  0  0  0  0  0  0  0  0
   22.0974  -20.5280  -12.9311 C   0  0  1  0  0  0  0  0  0  0  0  0
   21.6822  -20.4183  -11.5211 C   0  0  0  0  0  0  0  0  0  0  0  0
   20.4040  -21.0391  -11.1078 C   0  0  0  0  0  0  0  0  0  0  0  0
   20.5191  -22.0150   -9.9683 C   0  0  0  0  0  0  0  0  0  0  0  0
   19.1573  -22.6003   -9.6538 C   0  0  0  0  0  0  0  0  0  0  0  0
   19.3010  -23.5330   -8.5419 N   0  0  0  0  0  0  0  0  0  0  0  0
   20.9956  -20.1770  -13.8508 C   0  0  0  0  0  0  0  0  0  0  0  0
   20.1611  -21.1771  -14.3155 O   0  0  0  0  0  0  0  0  0  0  0  0
   20.7343  -19.0195  -14.2672 O   0  0  0  0  0  0  0  0  0  0  0  0
  1  2  1  0
  3  2  1  0
  4  5  1  0
  4  3  1  0
  5  1  1  0
  6  7  2  0
  5  6  1  1
  8  6  1  0
  9  8  1  0
 10  9  1  0
 11 10  1  0
 11 12  1  0
 12  8  1  0
 12 13  1  1
 14 13  2  0
 15 13  1  0
 16 22  1  0
 16 15  1  0
 17 18  1  0
 16 17  1  1
 18 19  1  0
 20 19  1  0
 20 21  1  0
 22 23  1  0
 24 22  2  0
M  END
$$$$
