FLF.pdb
     RDKit          3D

 31 32  0  0  1  0  0  0  0  0999 V2000
   25.1410  -18.8678  -18.6630 N   0  0  0  0  0  0  0  0  0  0  0  0
   24.2728  -18.5946  -17.5629 C   0  0  1  0  0  0  0  0  0  0  0  0
   22.8841  -18.3439  -18.0523 C   0  0  0  0  0  0  0  0  0  0  0  0
   22.9278  -17.0927  -18.8814 C   0  0  0  0  0  0  0  0  0  0  0  0
   22.5876  -17.1017  -20.2118 C   0  0  0  0  0  0  0  0  0  0  0  0
   22.6131  -15.9778  -21.0110 C   0  0  0  0  0  0  0  0  0  0  0  0
   23.0040  -14.7825  -20.4306 C   0  0  0  0  0  0  0  0  0  0  0  0
   23.3574  -14.7255  -19.0864 C   0  0  0  0  0  0  0  0  0  0  0  0
   23.3139  -15.8829  -18.3311 C   0  0  0  0  0  0  0  0  0  0  0  0
   24.3485  -19.6095  -16.4871 C   0  0  0  0  0  0  0  0  0  0  0  0
   23.9433  -20.7816  -16.7216 O   0  0  0  0  0  0  0  0  0  0  0  0
   27.7394  -21.3983  -14.5350 C   0  0  0  0  0  0  0  0  0  0  0  0
   27.4314  -20.0431  -13.8708 C   0  0  2  0  0  0  0  0  0  0  0  0
   28.5648  -19.8441  -12.8897 C   0  0  0  0  0  0  0  0  0  0  0  0
   26.0989  -20.1828  -13.2355 C   0  0  0  0  0  0  0  0  0  0  0  0
   24.9175  -20.3135  -14.1137 C   0  0  2  0  0  0  0  0  0  0  0  0
   24.8529  -19.3524  -15.1902 N   0  0  0  0  0  0  0  0  0  0  0  0
   23.6588  -20.3207  -13.3581 C   0  0  0  0  0  0  0  0  0  0  0  0
   23.3672  -19.4902  -12.4633 O   0  0  0  0  0  0  0  0  0  0  0  0
   22.6834  -21.3163  -13.6346 N   0  0  0  0  0  0  0  0  0  0  0  0
   21.4394  -21.4109  -12.8866 C   0  0  1  0  0  0  0  0  0  0  0  0
   20.7597  -20.0480  -13.1087 C   0  0  0  0  0  0  0  0  0  0  0  0
   20.0813  -19.9515  -14.4010 C   0  0  0  0  0  0  0  0  0  0  0  0
   20.7516  -19.4777  -15.5054 C   0  0  0  0  0  0  0  0  0  0  0  0
   20.0975  -19.3939  -16.7123 C   0  0  0  0  0  0  0  0  0  0  0  0
   18.7759  -19.7719  -16.8620 C   0  0  0  0  0  0  0  0  0  0  0  0
   18.1428  -20.2417  -15.7256 C   0  0  0  0  0  0  0  0  0  0  0  0
   18.7501  -20.3442  -14.5017 C   0  0  0  0  0  0  0  0  0  0  0  0
   20.5731  -22.5124  -13.2929 C   0  0  0  0  0  0  0  0  0  0  0  0
   19.4506  -22.9186  -12.5747 O   0  0  0  0  0  0  0  0  0  0  0  0
   20.8112  -23.1704  -14.3506 O   0  0  0  0  0  0  0  0  0  0  0  0
  2  1  1  6
  3  4  1  0
  3  2  1  0
  4  9  1  0
  4  5  2  0
  5  6  1  0
  6  7  2  0
  8  7  1  0
  9  8  2  0
 10 11  2  0
 10  2  1  0
 13 12  1  1
 13 14  1  0
 13 15  1  0
 16 15  1  1
 16 17  1  0
 17 10  1  0
 18 16  1  0
 19 18  2  0
 20 18  1  0
 21 20  1  0
 21 22  1  6
 22 23  1  0
 23 28  1  0
 24 23  2  0
 24 25  1  0
 25 26  2  0
 26 27  1  0
 28 27  2  0
 29 30  1  0
 29 21  1  0
 31 29  2  0
M  END
$$$$
