FLF.pdb
     RDKit          3D

 31 32  0  0  1  0  0  0  0  0999 V2000
   39.4484    0.0585   -1.3890 N   0  0  0  0  0  0  0  0  0  0  0  0
   38.7515   -0.3105   -2.5793 C   0  0  1  0  0  0  0  0  0  0  0  0
   38.0167   -1.5938   -2.3695 C   0  0  0  0  0  0  0  0  0  0  0  0
   39.0375   -2.6948   -2.3889 C   0  0  0  0  0  0  0  0  0  0  0  0
   39.7296   -3.0112   -3.5321 C   0  0  0  0  0  0  0  0  0  0  0  0
   40.6749   -4.0135   -3.5960 C   0  0  0  0  0  0  0  0  0  0  0  0
   40.9317   -4.7325   -2.4404 C   0  0  0  0  0  0  0  0  0  0  0  0
   40.2550   -4.4473   -1.2590 C   0  0  0  0  0  0  0  0  0  0  0  0
   39.3169   -3.4315   -1.2511 C   0  0  0  0  0  0  0  0  0  0  0  0
   37.9055    0.7749   -3.1266 C   0  0  0  0  0  0  0  0  0  0  0  0
   37.4408    1.6450   -2.3393 O   0  0  0  0  0  0  0  0  0  0  0  0
   38.4248    4.4282   -5.7335 C   0  0  0  0  0  0  0  0  0  0  0  0
   38.5286    3.0820   -6.4747 C   0  0  2  0  0  0  0  0  0  0  0  0
   38.9306    3.4629   -7.8819 C   0  0  0  0  0  0  0  0  0  0  0  0
   37.1917    2.4481   -6.3782 C   0  0  0  0  0  0  0  0  0  0  0  0
   36.7492    1.9500   -5.0591 C   0  0  2  0  0  0  0  0  0  0  0  0
   37.5755    0.9073   -4.4963 N   0  0  0  0  0  0  0  0  0  0  0  0
   35.3395    1.5403   -5.0616 C   0  0  0  0  0  0  0  0  0  0  0  0
   34.9144    0.4749   -5.5713 O   0  0  0  0  0  0  0  0  0  0  0  0
   34.3669    2.3786   -4.4531 N   0  0  0  0  0  0  0  0  0  0  0  0
   32.9455    2.0726   -4.4947 C   0  0  1  0  0  0  0  0  0  0  0  0
   32.5392    1.9597   -3.0146 C   0  0  0  0  0  0  0  0  0  0  0  0
   32.8156    0.6410   -2.4450 C   0  0  0  0  0  0  0  0  0  0  0  0
   33.9772    0.4157   -1.7427 C   0  0  0  0  0  0  0  0  0  0  0  0
   34.2202   -0.8307   -1.2143 C   0  0  0  0  0  0  0  0  0  0  0  0
   33.3319   -1.8799   -1.3627 C   0  0  0  0  0  0  0  0  0  0  0  0
   32.1785   -1.6072   -2.0756 C   0  0  0  0  0  0  0  0  0  0  0  0
   31.8906   -0.3837   -2.6211 C   0  0  0  0  0  0  0  0  0  0  0  0
   32.1353    3.0622   -5.1970 C   0  0  0  0  0  0  0  0  0  0  0  0
   30.8310    2.8291   -5.6273 O   0  0  0  0  0  0  0  0  0  0  0  0
   32.5970    4.2147   -5.4560 O   0  0  0  0  0  0  0  0  0  0  0  0
  2  1  1  1
  3  4  1  0
  3  2  1  0
  4  9  1  0
  4  5  2  0
  5  6  1  0
  6  7  2  0
  8  7  1  0
  9  8  2  0
 10 11  2  0
 10  2  1  0
 13 12  1  1
 13 14  1  0
 13 15  1  0
 16 15  1  6
 16 17  1  0
 17 10  1  0
 18 16  1  0
 19 18  2  0
 20 18  1  0
 21 20  1  0
 21 22  1  1
 22 23  1  0
 23 28  1  0
 24 23  2  0
 24 25  1  0
 25 26  2  0
 26 27  1  0
 28 27  2  0
 29 30  1  0
 29 21  1  0
 31 29  2  0
M  END
$$$$
