FLF.pdb
     RDKit          3D

 31 32  0  0  1  0  0  0  0  0999 V2000
   21.7907  -18.8844  -19.1919 N   0  0  0  0  0  0  0  0  0  0  0  0
   22.3507  -18.2006  -18.0705 C   0  0  1  0  0  0  0  0  0  0  0  0
   21.2695  -17.5521  -17.2698 C   0  0  0  0  0  0  0  0  0  0  0  0
   20.7249  -16.4231  -18.0966 C   0  0  0  0  0  0  0  0  0  0  0  0
   19.5522  -16.5499  -18.7999 C   0  0  0  0  0  0  0  0  0  0  0  0
   19.0153  -15.5407  -19.5716 C   0  0  0  0  0  0  0  0  0  0  0  0
   19.7035  -14.3402  -19.6332 C   0  0  0  0  0  0  0  0  0  0  0  0
   20.8954  -14.1661  -18.9374 C   0  0  0  0  0  0  0  0  0  0  0  0
   21.3887  -15.2115  -18.1786 C   0  0  0  0  0  0  0  0  0  0  0  0
   23.2631  -19.0426  -17.2633 C   0  0  0  0  0  0  0  0  0  0  0  0
   22.8997  -20.2089  -16.9460 O   0  0  0  0  0  0  0  0  0  0  0  0
   29.2238  -19.2123  -15.6275 C   0  0  0  0  0  0  0  0  0  0  0  0
   27.8437  -19.8217  -15.3169 C   0  0  2  0  0  0  0  0  0  0  0  0
   27.9875  -21.2788  -15.6949 C   0  0  0  0  0  0  0  0  0  0  0  0
   26.8629  -19.0766  -16.1425 C   0  0  0  0  0  0  0  0  0  0  0  0
   25.4299  -19.4027  -15.9875 C   0  0  2  0  0  0  0  0  0  0  0  0
   24.5378  -18.6233  -16.8143 N   0  0  0  0  0  0  0  0  0  0  0  0
   24.9964  -19.3598  -14.5855 C   0  0  0  0  0  0  0  0  0  0  0  0
   24.7519  -18.3032  -13.9536 O   0  0  0  0  0  0  0  0  0  0  0  0
   24.8292  -20.5750  -13.8683 N   0  0  0  0  0  0  0  0  0  0  0  0
   24.4345  -20.6002  -12.4685 C   0  0  1  0  0  0  0  0  0  0  0  0
   22.9016  -20.4680  -12.5049 C   0  0  0  0  0  0  0  0  0  0  0  0
   22.2926  -20.5101  -11.1756 C   0  0  0  0  0  0  0  0  0  0  0  0
   22.0682  -19.3470  -10.4756 C   0  0  0  0  0  0  0  0  0  0  0  0
   21.4945  -19.4060   -9.2270 C   0  0  0  0  0  0  0  0  0  0  0  0
   21.1295  -20.6034   -8.6396 C   0  0  0  0  0  0  0  0  0  0  0  0
   21.3738  -21.7460   -9.3797 C   0  0  0  0  0  0  0  0  0  0  0  0
   21.9423  -21.7398  -10.6263 C   0  0  0  0  0  0  0  0  0  0  0  0
   24.8503  -21.7975  -11.7456 C   0  0  0  0  0  0  0  0  0  0  0  0
   25.2774  -21.7909  -10.4196 O   0  0  0  0  0  0  0  0  0  0  0  0
   24.8421  -22.9332  -12.3101 O   0  0  0  0  0  0  0  0  0  0  0  0
  2  1  1  6
  3  4  1  0
  3  2  1  0
  4  9  1  0
  4  5  2  0
  5  6  1  0
  6  7  2  0
  8  7  1  0
  9  8  2  0
 10 11  2  0
 10  2  1  0
 13 12  1  6
 13 14  1  0
 13 15  1  0
 16 15  1  1
 16 17  1  0
 17 10  1  0
 18 16  1  0
 19 18  2  0
 20 18  1  0
 21 20  1  0
 21 22  1  6
 22 23  1  0
 23 28  1  0
 24 23  2  0
 24 25  1  0
 25 26  2  0
 26 27  1  0
 28 27  2  0
 29 30  1  0
 29 21  1  0
 31 29  2  0
M  END
$$$$
