FLF.pdb
     RDKit          3D

 31 32  0  0  1  0  0  0  0  0999 V2000
   25.5310  -18.4920   -9.4603 N   0  0  0  0  0  0  0  0  0  0  0  0
   26.1992  -19.5529  -10.1435 C   0  0  1  0  0  0  0  0  0  0  0  0
   26.1425  -20.8051   -9.3314 C   0  0  0  0  0  0  0  0  0  0  0  0
   27.1261  -20.6473   -8.2079 C   0  0  0  0  0  0  0  0  0  0  0  0
   26.8535  -19.8515   -7.1224 C   0  0  0  0  0  0  0  0  0  0  0  0
   27.7263  -19.6772   -6.0688 C   0  0  0  0  0  0  0  0  0  0  0  0
   28.9389  -20.3447   -6.1186 C   0  0  0  0  0  0  0  0  0  0  0  0
   29.2583  -21.1616   -7.1983 C   0  0  0  0  0  0  0  0  0  0  0  0
   28.3460  -21.3007   -8.2280 C   0  0  0  0  0  0  0  0  0  0  0  0
   25.7445  -19.7312  -11.5415 C   0  0  0  0  0  0  0  0  0  0  0  0
   24.7033  -19.1315  -11.9278 O   0  0  0  0  0  0  0  0  0  0  0  0
   28.7273  -21.7770  -12.9876 C   0  0  0  0  0  0  0  0  0  0  0  0
   28.0440  -22.1876  -14.3056 C   0  0  2  0  0  0  0  0  0  0  0  0
   29.1914  -22.5508  -15.2213 C   0  0  0  0  0  0  0  0  0  0  0  0
   27.2612  -21.0109  -14.7542 C   0  0  0  0  0  0  0  0  0  0  0  0
   26.1347  -20.5596  -13.9109 C   0  0  2  0  0  0  0  0  0  0  0  0
   26.4080  -20.5423  -12.4925 N   0  0  0  0  0  0  0  0  0  0  0  0
   24.8995  -21.3043  -14.1848 C   0  0  0  0  0  0  0  0  0  0  0  0
   24.5803  -21.7526  -15.3129 O   0  0  0  0  0  0  0  0  0  0  0  0
   23.9852  -21.5548  -13.1264 N   0  0  0  0  0  0  0  0  0  0  0  0
   22.6098  -21.9605  -13.3706 C   0  0  1  0  0  0  0  0  0  0  0  0
   22.2284  -22.7760  -12.1224 C   0  0  0  0  0  0  0  0  0  0  0  0
   20.8124  -23.1414  -12.0892 C   0  0  0  0  0  0  0  0  0  0  0  0
   20.3519  -24.2105  -12.8228 C   0  0  0  0  0  0  0  0  0  0  0  0
   19.0171  -24.5393  -12.7793 C   0  0  0  0  0  0  0  0  0  0  0  0
   18.1077  -23.8289  -12.0176 C   0  0  0  0  0  0  0  0  0  0  0  0
   18.6155  -22.7630  -11.2972 C   0  0  0  0  0  0  0  0  0  0  0  0
   19.9354  -22.3957  -11.3072 C   0  0  0  0  0  0  0  0  0  0  0  0
   21.6840  -20.8542  -13.5893 C   0  0  0  0  0  0  0  0  0  0  0  0
   20.5146  -20.9612  -14.3390 O   0  0  0  0  0  0  0  0  0  0  0  0
   21.9099  -19.7097  -13.0919 O   0  0  0  0  0  0  0  0  0  0  0  0
  2  1  1  1
  3  4  1  0
  3  2  1  0
  4  9  1  0
  4  5  2  0
  5  6  1  0
  6  7  2  0
  8  7  1  0
  9  8  2  0
 10 11  2  0
 10  2  1  0
 13 12  1  1
 13 14  1  0
 13 15  1  0
 16 15  1  6
 16 17  1  0
 17 10  1  0
 18 16  1  0
 19 18  2  0
 20 18  1  0
 21 20  1  0
 21 22  1  1
 22 23  1  0
 23 28  1  0
 24 23  2  0
 24 25  1  0
 25 26  2  0
 26 27  1  0
 28 27  2  0
 29 30  1  0
 29 21  1  0
 31 29  2  0
M  END
$$$$
