FLF.pdb
     RDKit          3D

 31 32  0  0  1  0  0  0  0  0999 V2000
   21.8569  -18.0269  -16.6671 N   0  0  0  0  0  0  0  0  0  0  0  0
   23.0343  -18.6576  -16.1625 C   0  0  1  0  0  0  0  0  0  0  0  0
   24.2518  -18.0140  -16.7406 C   0  0  0  0  0  0  0  0  0  0  0  0
   24.3353  -18.4395  -18.1782 C   0  0  0  0  0  0  0  0  0  0  0  0
   24.7732  -19.6923  -18.5311 C   0  0  0  0  0  0  0  0  0  0  0  0
   24.8661  -20.1255  -19.8373 C   0  0  0  0  0  0  0  0  0  0  0  0
   24.4956  -19.2421  -20.8377 C   0  0  0  0  0  0  0  0  0  0  0  0
   24.0460  -17.9628  -20.5275 C   0  0  0  0  0  0  0  0  0  0  0  0
   23.9725  -17.5803  -19.2007 C   0  0  0  0  0  0  0  0  0  0  0  0
   23.0611  -18.7582  -14.6852 C   0  0  0  0  0  0  0  0  0  0  0  0
   23.0209  -17.7000  -13.9987 O   0  0  0  0  0  0  0  0  0  0  0  0
   21.4982  -19.1414  -10.1737 C   0  0  0  0  0  0  0  0  0  0  0  0
   20.7979  -19.7043  -11.4248 C   0  0  2  0  0  0  0  0  0  0  0  0
   19.5445  -20.3571  -10.8867 C   0  0  0  0  0  0  0  0  0  0  0  0
   21.7537  -20.6515  -12.0476 C   0  0  0  0  0  0  0  0  0  0  0  0
   23.0413  -20.1199  -12.5410 C   0  0  2  0  0  0  0  0  0  0  0  0
   23.1300  -19.9809  -13.9761 N   0  0  0  0  0  0  0  0  0  0  0  0
   24.1903  -20.8764  -12.0284 C   0  0  0  0  0  0  0  0  0  0  0  0
   24.5508  -21.9963  -12.4659 O   0  0  0  0  0  0  0  0  0  0  0  0
   24.9689  -20.3336  -10.9710 N   0  0  0  0  0  0  0  0  0  0  0  0
   25.9825  -21.1123  -10.2767 C   0  0  1  0  0  0  0  0  0  0  0  0
   27.2199  -20.1973  -10.2639 C   0  0  0  0  0  0  0  0  0  0  0  0
   27.5666  -19.7234   -8.9241 C   0  0  0  0  0  0  0  0  0  0  0  0
   28.5015  -20.3935   -8.1690 C   0  0  0  0  0  0  0  0  0  0  0  0
   28.8147  -19.9333   -6.9113 C   0  0  0  0  0  0  0  0  0  0  0  0
   28.2196  -18.8095   -6.3685 C   0  0  0  0  0  0  0  0  0  0  0  0
   27.2864  -18.1686   -7.1632 C   0  0  0  0  0  0  0  0  0  0  0  0
   26.9402  -18.5871   -8.4210 C   0  0  0  0  0  0  0  0  0  0  0  0
   25.6085  -21.5238   -8.9277 C   0  0  0  0  0  0  0  0  0  0  0  0
   26.2840  -22.5031   -8.2028 O   0  0  0  0  0  0  0  0  0  0  0  0
   24.6203  -20.9923   -8.3366 O   0  0  0  0  0  0  0  0  0  0  0  0
  2  1  1  1
  3  4  1  0
  3  2  1  0
  4  9  1  0
  4  5  2  0
  5  6  1  0
  6  7  2  0
  8  7  1  0
  9  8  2  0
 10 11  2  0
 10  2  1  0
 13 12  1  1
 13 14  1  0
 13 15  1  0
 16 15  1  6
 16 17  1  0
 17 10  1  0
 18 16  1  0
 19 18  2  0
 20 18  1  0
 21 20  1  0
 21 22  1  1
 22 23  1  0
 23 28  1  0
 24 23  2  0
 24 25  1  0
 25 26  2  0
 26 27  1  0
 28 27  2  0
 29 30  1  0
 29 21  1  0
 31 29  2  0
M  END
$$$$
