FLF.pdb
     RDKit          3D

 31 32  0  0  1  0  0  0  0  0999 V2000
   25.3956  -19.0896  -18.1476 N   0  0  0  0  0  0  0  0  0  0  0  0
   25.1256  -18.9265  -16.7550 C   0  0  1  0  0  0  0  0  0  0  0  0
   23.7501  -18.3790  -16.5574 C   0  0  0  0  0  0  0  0  0  0  0  0
   23.7255  -17.0126  -17.1798 C   0  0  0  0  0  0  0  0  0  0  0  0
   23.0929  -16.7808  -18.3764 C   0  0  0  0  0  0  0  0  0  0  0  0
   23.0452  -15.5437  -18.9843 C   0  0  0  0  0  0  0  0  0  0  0  0
   23.6718  -14.4865  -18.3454 C   0  0  0  0  0  0  0  0  0  0  0  0
   24.3251  -14.6742  -17.1317 C   0  0  0  0  0  0  0  0  0  0  0  0
   24.3421  -15.9360  -16.5665 C   0  0  0  0  0  0  0  0  0  0  0  0
   25.4006  -20.1424  -15.9557 C   0  0  0  0  0  0  0  0  0  0  0  0
   24.9633  -21.2543  -16.3624 O   0  0  0  0  0  0  0  0  0  0  0  0
   28.6708  -19.2028  -14.0851 C   0  0  0  0  0  0  0  0  0  0  0  0
   28.2546  -19.9625  -12.8114 C   0  0  2  0  0  0  0  0  0  0  0  0
   29.5254  -20.0445  -11.9959 C   0  0  0  0  0  0  0  0  0  0  0  0
   27.7377  -21.2779  -13.2600 C   0  0  0  0  0  0  0  0  0  0  0  0
   26.4330  -21.3154  -13.9530 C   0  0  2  0  0  0  0  0  0  0  0  0
   26.1332  -20.1451  -14.7451 N   0  0  0  0  0  0  0  0  0  0  0  0
   25.3237  -21.6119  -13.0383 C   0  0  0  0  0  0  0  0  0  0  0  0
   25.3187  -22.5627  -12.2188 O   0  0  0  0  0  0  0  0  0  0  0  0
   24.1668  -20.7871  -13.0523 N   0  0  0  0  0  0  0  0  0  0  0  0
   23.0238  -21.0413  -12.1892 C   0  0  1  0  0  0  0  0  0  0  0  0
   23.1395  -19.9761  -11.0844 C   0  0  0  0  0  0  0  0  0  0  0  0
   22.0160  -19.9994  -10.1480 C   0  0  0  0  0  0  0  0  0  0  0  0
   22.1261  -20.6578   -8.9448 C   0  0  0  0  0  0  0  0  0  0  0  0
   21.0592  -20.6691   -8.0769 C   0  0  0  0  0  0  0  0  0  0  0  0
   19.8647  -20.0370   -8.3693 C   0  0  0  0  0  0  0  0  0  0  0  0
   19.7998  -19.3885   -9.5893 C   0  0  0  0  0  0  0  0  0  0  0  0
   20.8338  -19.3484  -10.4873 C   0  0  0  0  0  0  0  0  0  0  0  0
   21.7315  -20.9735  -12.8633 C   0  0  0  0  0  0  0  0  0  0  0  0
   20.6146  -21.7071  -12.4695 O   0  0  0  0  0  0  0  0  0  0  0  0
   21.5623  -20.2208  -13.8698 O   0  0  0  0  0  0  0  0  0  0  0  0
  2  1  1  6
  3  4  1  0
  3  2  1  0
  4  9  1  0
  4  5  2  0
  5  6  1  0
  6  7  2  0
  8  7  1  0
  9  8  2  0
 10 11  2  0
 10  2  1  0
 13 12  1  6
 13 14  1  0
 13 15  1  0
 16 15  1  1
 16 17  1  0
 17 10  1  0
 18 16  1  0
 19 18  2  0
 20 18  1  0
 21 20  1  0
 21 22  1  1
 22 23  1  0
 23 28  1  0
 24 23  2  0
 24 25  1  0
 25 26  2  0
 26 27  1  0
 28 27  2  0
 29 30  1  0
 29 21  1  0
 31 29  2  0
M  END
$$$$
