FLF.pdb
     RDKit          3D

 31 32  0  0  1  0  0  0  0  0999 V2000
   23.6383  -18.8088  -12.8951 N   0  0  0  0  0  0  0  0  0  0  0  0
   23.3044  -20.1946  -12.9776 C   0  0  1  0  0  0  0  0  0  0  0  0
   22.5662  -20.4723  -14.2459 C   0  0  0  0  0  0  0  0  0  0  0  0
   21.4252  -19.4986  -14.3144 C   0  0  0  0  0  0  0  0  0  0  0  0
   21.4572  -18.4142  -15.1565 C   0  0  0  0  0  0  0  0  0  0  0  0
   20.4333  -17.4951  -15.2522 C   0  0  0  0  0  0  0  0  0  0  0  0
   19.3187  -17.6856  -14.4522 C   0  0  0  0  0  0  0  0  0  0  0  0
   19.2421  -18.7698  -13.5841 C   0  0  0  0  0  0  0  0  0  0  0  0
   20.2978  -19.6611  -13.5283 C   0  0  0  0  0  0  0  0  0  0  0  0
   24.4606  -21.0928  -12.7552 C   0  0  0  0  0  0  0  0  0  0  0  0
   24.3200  -22.3317  -12.9511 O   0  0  0  0  0  0  0  0  0  0  0  0
   27.9414  -19.2905  -14.5853 C   0  0  0  0  0  0  0  0  0  0  0  0
   28.4711  -19.8025  -13.2326 C   0  0  2  0  0  0  0  0  0  0  0  0
   29.9723  -19.6575  -13.3426 C   0  0  0  0  0  0  0  0  0  0  0  0
   28.0065  -21.2050  -13.1061 C   0  0  0  0  0  0  0  0  0  0  0  0
   26.9000  -21.4916  -12.1694 C   0  0  2  0  0  0  0  0  0  0  0  0
   25.7361  -20.6511  -12.3304 N   0  0  0  0  0  0  0  0  0  0  0  0
   27.3406  -21.4926  -10.7691 C   0  0  0  0  0  0  0  0  0  0  0  0
   28.2698  -22.2079  -10.3213 O   0  0  0  0  0  0  0  0  0  0  0  0
   26.6977  -20.6379   -9.8336 N   0  0  0  0  0  0  0  0  0  0  0  0
   26.8475  -20.8098   -8.3969 C   0  0  1  0  0  0  0  0  0  0  0  0
   27.7284  -19.6245   -7.9637 C   0  0  0  0  0  0  0  0  0  0  0  0
   28.0746  -19.6590   -6.5429 C   0  0  0  0  0  0  0  0  0  0  0  0
   28.7444  -20.7391   -6.0156 C   0  0  0  0  0  0  0  0  0  0  0  0
   29.0615  -20.7541   -4.6774 C   0  0  0  0  0  0  0  0  0  0  0  0
   28.7297  -19.7133   -3.8298 C   0  0  0  0  0  0  0  0  0  0  0  0
   28.0573  -18.6494   -4.4035 C   0  0  0  0  0  0  0  0  0  0  0  0
   27.7190  -18.5871   -5.7297 C   0  0  0  0  0  0  0  0  0  0  0  0
   25.5897  -20.8387   -7.6580 C   0  0  0  0  0  0  0  0  0  0  0  0
   24.3684  -20.4366   -8.1944 O   0  0  0  0  0  0  0  0  0  0  0  0
   25.5509  -21.2430   -6.4566 O   0  0  0  0  0  0  0  0  0  0  0  0
  2  1  1  6
  3  4  1  0
  3  2  1  0
  4  9  1  0
  4  5  2  0
  5  6  1  0
  6  7  2  0
  8  7  1  0
  9  8  2  0
 10 11  2  0
 10  2  1  0
 13 12  1  6
 13 14  1  0
 13 15  1  0
 16 15  1  6
 16 17  1  0
 17 10  1  0
 18 16  1  0
 19 18  2  0
 20 18  1  0
 21 20  1  0
 21 22  1  1
 22 23  1  0
 23 28  1  0
 24 23  2  0
 24 25  1  0
 25 26  2  0
 26 27  1  0
 28 27  2  0
 29 30  1  0
 29 21  1  0
 31 29  2  0
M  END
$$$$
