FLF.pdb
     RDKit          3D

 31 32  0  0  1  0  0  0  0  0999 V2000
   26.6283  -18.5828   -8.1600 N   0  0  0  0  0  0  0  0  0  0  0  0
   26.9655  -19.7691   -8.8794 C   0  0  1  0  0  0  0  0  0  0  0  0
   26.8538  -20.9620   -7.9876 C   0  0  0  0  0  0  0  0  0  0  0  0
   27.7802  -20.7342   -6.8280 C   0  0  0  0  0  0  0  0  0  0  0  0
   29.1443  -20.7571   -6.9846 C   0  0  0  0  0  0  0  0  0  0  0  0
   30.0322  -20.5534   -5.9489 C   0  0  0  0  0  0  0  0  0  0  0  0
   29.5094  -20.3141   -4.6888 C   0  0  0  0  0  0  0  0  0  0  0  0
   28.1341  -20.2818   -4.4827 C   0  0  0  0  0  0  0  0  0  0  0  0
   27.2891  -20.4926   -5.5569 C   0  0  0  0  0  0  0  0  0  0  0  0
   26.2298  -19.9122  -10.1566 C   0  0  0  0  0  0  0  0  0  0  0  0
   24.9879  -19.6877  -10.1762 O   0  0  0  0  0  0  0  0  0  0  0  0
   28.4775  -19.3889  -15.6699 C   0  0  0  0  0  0  0  0  0  0  0  0
   27.3308  -19.0591  -14.6958 C   0  0  2  0  0  0  0  0  0  0  0  0
   27.8011  -17.8151  -13.9760 C   0  0  0  0  0  0  0  0  0  0  0  0
   27.1753  -20.2437  -13.8177 C   0  0  0  0  0  0  0  0  0  0  0  0
   26.2299  -20.1535  -12.6853 C   0  0  2  0  0  0  0  0  0  0  0  0
   26.8329  -20.2901  -11.3797 N   0  0  0  0  0  0  0  0  0  0  0  0
   25.1001  -21.0802  -12.8266 C   0  0  0  0  0  0  0  0  0  0  0  0
   25.1541  -22.3056  -12.5606 O   0  0  0  0  0  0  0  0  0  0  0  0
   23.8486  -20.5910  -13.2886 N   0  0  0  0  0  0  0  0  0  0  0  0
   22.7088  -21.4670  -13.5107 C   0  0  1  0  0  0  0  0  0  0  0  0
   21.5504  -20.7762  -12.7694 C   0  0  0  0  0  0  0  0  0  0  0  0
   21.4229  -21.2095  -11.3781 C   0  0  0  0  0  0  0  0  0  0  0  0
   20.6732  -22.3188  -11.0605 C   0  0  0  0  0  0  0  0  0  0  0  0
   20.5646  -22.7115   -9.7469 C   0  0  0  0  0  0  0  0  0  0  0  0
   21.1869  -22.0268   -8.7193 C   0  0  0  0  0  0  0  0  0  0  0  0
   21.9292  -20.9187   -9.0856 C   0  0  0  0  0  0  0  0  0  0  0  0
   22.0681  -20.4875  -10.3787 C   0  0  0  0  0  0  0  0  0  0  0  0
   22.3852  -21.6921  -14.9155 C   0  0  0  0  0  0  0  0  0  0  0  0
   21.6393  -22.7761  -15.3731 O   0  0  0  0  0  0  0  0  0  0  0  0
   22.7817  -20.8863  -15.8109 O   0  0  0  0  0  0  0  0  0  0  0  0
  2  1  1  1
  3  4  1  0
  3  2  1  0
  4  9  1  0
  4  5  2  0
  5  6  1  0
  6  7  2  0
  8  7  1  0
  9  8  2  0
 10 11  2  0
 10  2  1  0
 13 12  1  6
 13 14  1  0
 13 15  1  0
 16 15  1  6
 16 17  1  0
 17 10  1  0
 18 16  1  0
 19 18  2  0
 20 18  1  0
 21 20  1  0
 21 22  1  1
 22 23  1  0
 23 28  1  0
 24 23  2  0
 24 25  1  0
 25 26  2  0
 26 27  1  0
 28 27  2  0
 29 30  1  0
 29 21  1  0
 31 29  2  0
M  END
$$$$
