FLF.pdb
     RDKit          3D

 31 32  0  0  1  0  0  0  0  0999 V2000
   23.8806  -18.9126  -19.4088 N   0  0  0  0  0  0  0  0  0  0  0  0
   23.8942  -18.3589  -18.0928 C   0  0  1  0  0  0  0  0  0  0  0  0
   22.7208  -17.4548  -17.9019 C   0  0  0  0  0  0  0  0  0  0  0  0
   22.9200  -16.2757  -18.8102 C   0  0  0  0  0  0  0  0  0  0  0  0
   22.0908  -16.0469  -19.8807 C   0  0  0  0  0  0  0  0  0  0  0  0
   22.2362  -14.9782  -20.7404 C   0  0  0  0  0  0  0  0  0  0  0  0
   23.2767  -14.0956  -20.5021 C   0  0  0  0  0  0  0  0  0  0  0  0
   24.1417  -14.2873  -19.4298 C   0  0  0  0  0  0  0  0  0  0  0  0
   23.9500  -15.3759  -18.5989 C   0  0  0  0  0  0  0  0  0  0  0  0
   24.0381  -19.3771  -17.0272 C   0  0  0  0  0  0  0  0  0  0  0  0
   23.2330  -20.3485  -16.9959 O   0  0  0  0  0  0  0  0  0  0  0  0
   28.6708  -21.2168  -13.9218 C   0  0  0  0  0  0  0  0  0  0  0  0
   27.3282  -21.4510  -14.6396 C   0  0  2  0  0  0  0  0  0  0  0  0
   27.6930  -21.4880  -16.1067 C   0  0  0  0  0  0  0  0  0  0  0  0
   26.4502  -20.3170  -14.2631 C   0  0  0  0  0  0  0  0  0  0  0  0
   25.1150  -20.2302  -14.8906 C   0  0  2  0  0  0  0  0  0  0  0  0
   25.0340  -19.3365  -16.0227 N   0  0  0  0  0  0  0  0  0  0  0  0
   24.0604  -19.9201  -13.9175 C   0  0  0  0  0  0  0  0  0  0  0  0
   23.9886  -18.8461  -13.2717 O   0  0  0  0  0  0  0  0  0  0  0  0
   23.0366  -20.8735  -13.6688 N   0  0  0  0  0  0  0  0  0  0  0  0
   21.9397  -20.6105  -12.7504 C   0  0  1  0  0  0  0  0  0  0  0  0
   21.2930  -19.3232  -13.2920 C   0  0  0  0  0  0  0  0  0  0  0  0
   20.4126  -19.5632  -14.4352 C   0  0  0  0  0  0  0  0  0  0  0  0
   19.0740  -19.8163  -14.2419 C   0  0  0  0  0  0  0  0  0  0  0  0
   18.2613  -20.0396  -15.3288 C   0  0  0  0  0  0  0  0  0  0  0  0
   18.7424  -20.0196  -16.6250 C   0  0  0  0  0  0  0  0  0  0  0  0
   20.0933  -19.7613  -16.7710 C   0  0  0  0  0  0  0  0  0  0  0  0
   20.9436  -19.5327  -15.7212 C   0  0  0  0  0  0  0  0  0  0  0  0
   20.9675  -21.6935  -12.6456 C   0  0  0  0  0  0  0  0  0  0  0  0
   19.9302  -21.7140  -11.7158 O   0  0  0  0  0  0  0  0  0  0  0  0
   21.0255  -22.6962  -13.4199 O   0  0  0  0  0  0  0  0  0  0  0  0
  2  1  1  6
  3  4  1  0
  3  2  1  0
  4  9  1  0
  4  5  2  0
  5  6  1  0
  6  7  2  0
  8  7  1  0
  9  8  2  0
 10 11  2  0
 10  2  1  0
 13 12  1  1
 13 14  1  0
 13 15  1  0
 16 15  1  1
 16 17  1  0
 17 10  1  0
 18 16  1  0
 19 18  2  0
 20 18  1  0
 21 20  1  0
 21 22  1  6
 22 23  1  0
 23 28  1  0
 24 23  2  0
 24 25  1  0
 25 26  2  0
 26 27  1  0
 28 27  2  0
 29 30  1  0
 29 21  1  0
 31 29  2  0
M  END
$$$$
