FLF.pdb
     RDKit          3D

 31 32  0  0  1  0  0  0  0  0999 V2000
   23.4427  -22.4065  -16.4297 N   0  0  0  0  0  0  0  0  0  0  0  0
   23.5019  -21.4418  -15.3787 C   0  0  1  0  0  0  0  0  0  0  0  0
   22.1672  -21.3137  -14.7209 C   0  0  0  0  0  0  0  0  0  0  0  0
   21.2899  -20.5278  -15.6523 C   0  0  0  0  0  0  0  0  0  0  0  0
   21.5247  -19.1993  -15.9089 C   0  0  0  0  0  0  0  0  0  0  0  0
   20.7459  -18.4391  -16.7562 C   0  0  0  0  0  0  0  0  0  0  0  0
   19.6730  -19.0585  -17.3756 C   0  0  0  0  0  0  0  0  0  0  0  0
   19.3968  -20.4024  -17.1458 C   0  0  0  0  0  0  0  0  0  0  0  0
   20.2104  -21.1176  -16.2865 C   0  0  0  0  0  0  0  0  0  0  0  0
   24.6124  -21.6754  -14.4272 C   0  0  0  0  0  0  0  0  0  0  0  0
   24.7343  -22.8139  -13.8962 O   0  0  0  0  0  0  0  0  0  0  0  0
   29.0572  -21.2589  -14.7079 C   0  0  0  0  0  0  0  0  0  0  0  0
   28.4022  -19.8832  -14.4816 C   0  0  2  0  0  0  0  0  0  0  0  0
   29.5571  -18.9085  -14.5369 C   0  0  0  0  0  0  0  0  0  0  0  0
   27.7317  -19.9523  -13.1609 C   0  0  0  0  0  0  0  0  0  0  0  0
   26.5538  -20.8340  -13.0217 C   0  0  2  0  0  0  0  0  0  0  0  0
   25.5643  -20.6931  -14.0648 N   0  0  0  0  0  0  0  0  0  0  0  0
   25.9243  -20.7195  -11.7005 C   0  0  0  0  0  0  0  0  0  0  0  0
   24.9335  -19.9904  -11.4508 O   0  0  0  0  0  0  0  0  0  0  0  0
   26.4425  -21.4715  -10.6119 N   0  0  0  0  0  0  0  0  0  0  0  0
   25.8570  -21.4129   -9.2816 C   0  0  1  0  0  0  0  0  0  0  0  0
   26.9615  -21.9559   -8.3577 C   0  0  0  0  0  0  0  0  0  0  0  0
   27.7971  -20.9009   -7.7846 C   0  0  0  0  0  0  0  0  0  0  0  0
   29.1575  -20.9012   -7.9911 C   0  0  0  0  0  0  0  0  0  0  0  0
   29.9274  -19.9011   -7.4444 C   0  0  0  0  0  0  0  0  0  0  0  0
   29.3815  -18.8822   -6.6857 C   0  0  0  0  0  0  0  0  0  0  0  0
   28.0109  -18.9228   -6.5047 C   0  0  0  0  0  0  0  0  0  0  0  0
   27.2013  -19.8965   -7.0279 C   0  0  0  0  0  0  0  0  0  0  0  0
   25.4237  -20.0815   -8.8710 C   0  0  0  0  0  0  0  0  0  0  0  0
   25.9193  -18.9025   -9.4232 O   0  0  0  0  0  0  0  0  0  0  0  0
   24.5497  -19.9335   -7.9640 O   0  0  0  0  0  0  0  0  0  0  0  0
  2  1  1  6
  3  4  1  0
  3  2  1  0
  4  9  1  0
  4  5  2  0
  5  6  1  0
  6  7  2  0
  8  7  1  0
  9  8  2  0
 10 11  2  0
 10  2  1  0
 13 12  1  1
 13 14  1  0
 13 15  1  0
 16 15  1  6
 16 17  1  0
 17 10  1  0
 18 16  1  0
 19 18  2  0
 20 18  1  0
 21 20  1  0
 21 22  1  1
 22 23  1  0
 23 28  1  0
 24 23  2  0
 24 25  1  0
 25 26  2  0
 26 27  1  0
 28 27  2  0
 29 30  1  0
 29 21  1  0
 31 29  2  0
M  END
$$$$
