QRM.pdb
     RDKit          3D

 29 28  0  0  1  0  0  0  0  0999 V2000
   22.1664  -20.2635  -10.2078 N   0  0  0  0  0  0  0  0  0  0  0  0
   20.8746  -20.6520  -10.7011 C   0  0  0  0  0  0  0  0  0  0  0  0
   20.0908  -21.3906  -10.0253 O   0  0  0  0  0  0  0  0  0  0  0  0
   20.4262  -20.3059  -12.0492 C   0  0  0  0  0  0  0  0  0  0  0  0
   21.4705  -19.4125  -12.7384 C   0  0  0  0  0  0  0  0  0  0  0  0
   21.6198  -19.9960  -14.0660 C   0  0  2  0  0  0  0  0  0  0  0  0
   22.3514  -21.3099  -13.8516 N   0  0  0  0  0  0  0  0  0  0  0  0
   22.5666  -19.3823  -15.0679 C   0  0  0  0  0  0  0  0  0  0  0  0
   22.5106  -18.2631  -15.5521 O   0  0  0  0  0  0  0  0  0  0  0  0
   28.7812  -20.9159  -12.3744 N   0  0  0  0  0  0  0  0  0  0  0  0
   28.7155  -21.1736  -13.7138 C   0  0  0  0  0  0  0  0  0  0  0  0
   28.8240  -22.2340  -14.2668 N   0  0  0  0  0  0  0  0  0  0  0  0
   28.3722  -20.0900  -14.6711 N   0  0  0  0  0  0  0  0  0  0  0  0
   27.4098  -19.0265  -14.2642 C   0  0  0  0  0  0  0  0  0  0  0  0
   26.1684  -19.1466  -14.8795 C   0  0  0  0  0  0  0  0  0  0  0  0
   25.7537  -19.0584  -16.2824 C   0  0  0  0  0  0  0  0  0  0  0  0
   24.3957  -19.2039  -16.5697 C   0  0  2  0  0  0  0  0  0  0  0  0
   23.7494  -20.2365  -15.6051 N   0  0  0  0  0  0  0  0  0  0  0  0
   23.7590  -19.3317  -17.8197 C   0  0  0  0  0  0  0  0  0  0  0  0
   23.1249  -20.5059  -18.0985 O   0  0  0  0  0  0  0  0  0  0  0  0
   28.7851  -22.6031  -15.2946 C   0  0  0  0  0  0  0  0  0  0  0  0
   19.4480  -16.1239  -20.7207 S   0  0  0  0  0  0  0  0  0  0  0  0
   20.3556  -16.6048  -22.2034 C   0  0  0  0  0  0  0  0  0  0  0  0
   21.5969  -17.9013  -21.9054 C   0  0  0  0  0  0  0  0  0  0  0  0
   22.1686  -17.6923  -20.5965 C   0  0  2  0  0  0  0  0  0  0  0  0
   23.2606  -18.8272  -20.1878 N   0  0  0  0  0  0  0  0  0  0  0  0
   23.4839  -18.4143  -18.8727 C   0  0  0  0  0  0  0  0  0  0  0  0
   24.2719  -18.8007  -21.1990 O   0  0  0  0  0  0  0  0  0  0  0  0
   24.0974  -19.5282  -22.3763 O   0  0  0  0  0  0  0  0  0  0  0  0
  1  2  1  0
  2  3  2  0
  4  2  1  0
  4  5  1  0
  6  5  1  0
  6  7  1  1
  8  6  1  0
  8  9  2  0
 10 11  1  0
 11 13  1  0
 11 12  2  0
 13 14  1  0
 14 15  1  0
 16 15  1  0
 17 16  1  6
 18 17  1  0
 18  8  1  0
 19 20  2  0
 19 17  1  0
 22 23  1  0
 22 21  1  0
 23 24  1  0
 25 24  1  1
 25 26  1  0
 25 27  1  0
 26 19  1  0
 27 28  1  0
 29 27  2  0
M  END
$$$$
