QRM.pdb
     RDKit          3D

 29 28  0  0  1  0  0  0  0  0999 V2000
   30.5893  -20.9115   -8.7305 N   0  0  0  0  0  0  0  0  0  0  0  0
   30.4424  -21.2241  -10.1247 C   0  0  0  0  0  0  0  0  0  0  0  0
   31.4216  -21.1668  -10.9336 O   0  0  0  0  0  0  0  0  0  0  0  0
   29.1397  -21.5277  -10.7155 C   0  0  0  0  0  0  0  0  0  0  0  0
   28.0361  -21.3955   -9.6532 C   0  0  0  0  0  0  0  0  0  0  0  0
   26.8044  -21.6772  -10.3803 C   0  0  2  0  0  0  0  0  0  0  0  0
   26.8181  -23.1744  -10.6366 N   0  0  0  0  0  0  0  0  0  0  0  0
   26.6369  -21.2151  -11.8069 C   0  0  0  0  0  0  0  0  0  0  0  0
   26.7977  -21.8723  -12.8230 O   0  0  0  0  0  0  0  0  0  0  0  0
   19.3515  -21.8719  -11.9098 N   0  0  0  0  0  0  0  0  0  0  0  0
   19.5176  -22.0297  -13.2560 C   0  0  0  0  0  0  0  0  0  0  0  0
   18.7546  -22.5249  -14.0400 N   0  0  0  0  0  0  0  0  0  0  0  0
   20.7099  -21.4615  -13.9372 N   0  0  0  0  0  0  0  0  0  0  0  0
   22.0641  -21.6782  -13.3525 C   0  0  0  0  0  0  0  0  0  0  0  0
   22.5979  -20.5346  -12.7684 C   0  0  0  0  0  0  0  0  0  0  0  0
   23.8858  -20.2708  -12.1206 C   0  0  0  0  0  0  0  0  0  0  0  0
   24.9727  -19.9563  -12.9377 C   0  0  2  0  0  0  0  0  0  0  0  0
   26.2468  -19.7345  -12.0763 N   0  0  0  0  0  0  0  0  0  0  0  0
   25.0376  -19.0704  -14.0308 C   0  0  0  0  0  0  0  0  0  0  0  0
   24.9619  -17.7332  -13.7769 O   0  0  0  0  0  0  0  0  0  0  0  0
   18.7114  -22.6756  -15.1215 C   0  0  0  0  0  0  0  0  0  0  0  0
   29.5490  -15.8831  -19.0851 S   0  0  0  0  0  0  0  0  0  0  0  0
   28.9358  -17.2606  -18.0953 C   0  0  0  0  0  0  0  0  0  0  0  0
   27.1709  -17.1226  -17.6749 C   0  0  0  0  0  0  0  0  0  0  0  0
   26.8484  -18.1548  -16.7188 C   0  0  2  0  0  0  0  0  0  0  0  0
   25.2686  -18.1955  -16.3313 N   0  0  0  0  0  0  0  0  0  0  0  0
   25.3226  -19.2471  -15.4142 C   0  0  0  0  0  0  0  0  0  0  0  0
   24.5494  -18.2694  -17.5654 O   0  0  0  0  0  0  0  0  0  0  0  0
   24.0022  -17.1133  -18.1218 O   0  0  0  0  0  0  0  0  0  0  0  0
  1  2  1  0
  2  3  2  0
  4  2  1  0
  4  5  1  0
  6  5  1  0
  6  7  1  6
  8  6  1  0
  8  9  2  0
 10 11  1  0
 11 13  1  0
 11 12  2  0
 13 14  1  0
 14 15  1  0
 16 15  1  0
 17 16  1  1
 18 17  1  0
 18  8  1  0
 19 20  2  0
 19 17  1  0
 22 23  1  0
 22 21  1  0
 23 24  1  0
 25 24  1  1
 25 26  1  0
 25 27  1  0
 26 19  1  0
 27 28  1  0
 29 27  2  0
M  END
$$$$
