QRM.pdb
     RDKit          3D

 29 28  0  0  1  0  0  0  0  0999 V2000
   17.0074  -21.7243  -12.0716 N   0  0  0  0  0  0  0  0  0  0  0  0
   18.0325  -22.0854  -13.0107 C   0  0  0  0  0  0  0  0  0  0  0  0
   17.7577  -22.4793  -14.1880 O   0  0  0  0  0  0  0  0  0  0  0  0
   19.4459  -22.1188  -12.6371 C   0  0  0  0  0  0  0  0  0  0  0  0
   20.0017  -20.6880  -12.5511 C   0  0  0  0  0  0  0  0  0  0  0  0
   20.6631  -20.4837  -13.8341 C   0  0  2  0  0  0  0  0  0  0  0  0
   21.0563  -21.8705  -14.3130 N   0  0  0  0  0  0  0  0  0  0  0  0
   22.0258  -19.8387  -13.8968 C   0  0  0  0  0  0  0  0  0  0  0  0
   22.3971  -18.8317  -13.3152 O   0  0  0  0  0  0  0  0  0  0  0  0
   26.4622  -21.1902  -10.4625 N   0  0  0  0  0  0  0  0  0  0  0  0
   27.6040  -21.5877  -11.0973 C   0  0  0  0  0  0  0  0  0  0  0  0
   28.5437  -22.1703  -10.6285 N   0  0  0  0  0  0  0  0  0  0  0  0
   27.7472  -21.4108  -12.5659 N   0  0  0  0  0  0  0  0  0  0  0  0
   27.8243  -20.0359  -13.1371 C   0  0  0  0  0  0  0  0  0  0  0  0
   26.6121  -19.5872  -13.6503 C   0  0  0  0  0  0  0  0  0  0  0  0
   25.3198  -20.2511  -13.8428 C   0  0  0  0  0  0  0  0  0  0  0  0
   24.3064  -19.5308  -14.4769 C   0  0  2  0  0  0  0  0  0  0  0  0
   23.1124  -20.4659  -14.8150 N   0  0  0  0  0  0  0  0  0  0  0  0
   24.4044  -18.5751  -15.5071 C   0  0  0  0  0  0  0  0  0  0  0  0
   23.8172  -18.8609  -16.7038 O   0  0  0  0  0  0  0  0  0  0  0  0
   29.4854  -22.5863  -10.9948 C   0  0  0  0  0  0  0  0  0  0  0  0
   26.2702  -12.4820  -14.7979 S   0  0  0  0  0  0  0  0  0  0  0  0
   26.9816  -12.8685  -16.4097 C   0  0  0  0  0  0  0  0  0  0  0  0
   26.2333  -14.3254  -17.2022 C   0  0  0  0  0  0  0  0  0  0  0  0
   25.8084  -15.2385  -16.1680 C   0  0  1  0  0  0  0  0  0  0  0  0
   24.9743  -16.5116  -16.7433 N   0  0  0  0  0  0  0  0  0  0  0  0
   24.8823  -17.2351  -15.5525 C   0  0  0  0  0  0  0  0  0  0  0  0
   25.6883  -16.9803  -17.8907 O   0  0  0  0  0  0  0  0  0  0  0  0
   26.8042  -17.8012  -17.7278 O   0  0  0  0  0  0  0  0  0  0  0  0
  1  2  1  0
  2  3  2  0
  4  2  1  0
  4  5  1  0
  6  5  1  0
  6  7  1  1
  8  6  1  0
  8  9  2  0
 10 11  1  0
 11 13  1  0
 11 12  2  0
 13 14  1  0
 14 15  1  0
 16 15  1  0
 17 16  1  6
 18 17  1  0
 18  8  1  0
 19 20  2  0
 19 17  1  0
 22 23  1  0
 22 21  1  0
 23 24  1  0
 25 24  1  1
 25 26  1  0
 25 27  1  0
 26 19  1  0
 27 28  1  0
 29 27  2  0
M  END
$$$$
