QRM.pdb
     RDKit          3D

 29 28  0  0  1  0  0  0  0  0999 V2000
   18.1367  -24.8748  -12.0825 N   0  0  0  0  0  0  0  0  0  0  0  0
   17.1938  -23.9886  -11.4591 C   0  0  0  0  0  0  0  0  0  0  0  0
   16.3008  -24.4114  -10.6589 O   0  0  0  0  0  0  0  0  0  0  0  0
   17.1399  -22.5641  -11.7852 C   0  0  0  0  0  0  0  0  0  0  0  0
   18.2841  -22.2002  -12.7456 C   0  0  0  0  0  0  0  0  0  0  0  0
   18.8389  -20.9713  -12.1913 C   0  0  2  0  0  0  0  0  0  0  0  0
   17.9642  -19.8523  -12.7300 N   0  0  0  0  0  0  0  0  0  0  0  0
   20.1728  -20.4522  -12.6686 C   0  0  0  0  0  0  0  0  0  0  0  0
   20.4018  -19.3812  -13.2079 O   0  0  0  0  0  0  0  0  0  0  0  0
   26.5252  -20.1534  -11.7988 N   0  0  0  0  0  0  0  0  0  0  0  0
   26.4781  -21.1674  -10.8855 C   0  0  0  0  0  0  0  0  0  0  0  0
   27.3018  -22.0178  -10.6847 N   0  0  0  0  0  0  0  0  0  0  0  0
   25.3585  -21.2495   -9.9116 N   0  0  0  0  0  0  0  0  0  0  0  0
   24.3675  -20.1383   -9.8346 C   0  0  0  0  0  0  0  0  0  0  0  0
   23.4728  -20.1276  -10.8992 C   0  0  0  0  0  0  0  0  0  0  0  0
   23.6445  -20.3903  -12.3308 C   0  0  0  0  0  0  0  0  0  0  0  0
   22.5006  -20.4125  -13.1300 C   0  0  2  0  0  0  0  0  0  0  0  0
   21.4300  -21.3532  -12.5108 N   0  0  0  0  0  0  0  0  0  0  0  0
   22.3954  -20.5109  -14.5311 C   0  0  0  0  0  0  0  0  0  0  0  0
   21.5472  -21.4460  -15.0457 O   0  0  0  0  0  0  0  0  0  0  0  0
   27.4417  -22.8389   -9.9774 C   0  0  0  0  0  0  0  0  0  0  0  0
   17.9364  -20.7388  -17.0658 S   0  0  0  0  0  0  0  0  0  0  0  0
   18.8161  -19.8346  -18.3548 C   0  0  0  0  0  0  0  0  0  0  0  0
   20.6080  -20.1505  -18.3683 C   0  0  0  0  0  0  0  0  0  0  0  0
   21.1298  -19.8701  -17.0519 C   0  0  1  0  0  0  0  0  0  0  0  0
   22.7385  -20.0888  -16.9426 N   0  0  0  0  0  0  0  0  0  0  0  0
   22.8922  -19.7193  -15.6048 C   0  0  0  0  0  0  0  0  0  0  0  0
   23.3220  -19.3618  -18.0274 O   0  0  0  0  0  0  0  0  0  0  0  0
   23.2281  -19.8582  -19.3276 O   0  0  0  0  0  0  0  0  0  0  0  0
  1  2  1  0
  2  3  2  0
  4  2  1  0
  4  5  1  0
  6  5  1  0
  6  7  1  6
  8  6  1  0
  8  9  2  0
 10 11  1  0
 11 13  1  0
 11 12  2  0
 13 14  1  0
 14 15  1  0
 16 15  1  0
 17 16  1  1
 18 17  1  0
 18  8  1  0
 19 20  2  0
 19 17  1  0
 22 23  1  0
 22 21  1  0
 23 24  1  0
 25 24  1  1
 25 26  1  0
 25 27  1  0
 26 19  1  0
 27 28  1  0
 29 27  2  0
M  END
$$$$
