QRM.pdb
     RDKit          3D

 29 28  0  0  1  0  0  0  0  0999 V2000
   25.6093  -15.2255  -15.6518 N   0  0  0  0  0  0  0  0  0  0  0  0
   24.5849  -14.9611  -16.6233 C   0  0  0  0  0  0  0  0  0  0  0  0
   24.8371  -14.3797  -17.7255 O   0  0  0  0  0  0  0  0  0  0  0  0
   23.1764  -15.2527  -16.3598 C   0  0  0  0  0  0  0  0  0  0  0  0
   23.0377  -16.0343  -15.0431 C   0  0  0  0  0  0  0  0  0  0  0  0
   22.8784  -17.4205  -15.4653 C   0  0  2  0  0  0  0  0  0  0  0  0
   21.3792  -17.6469  -15.5563 N   0  0  0  0  0  0  0  0  0  0  0  0
   23.2108  -18.5495  -14.5210 C   0  0  0  0  0  0  0  0  0  0  0  0
   22.5149  -18.9932  -13.6216 O   0  0  0  0  0  0  0  0  0  0  0  0
   24.5140  -26.4105  -15.1827 N   0  0  0  0  0  0  0  0  0  0  0  0
   23.4336  -25.8172  -14.5949 C   0  0  0  0  0  0  0  0  0  0  0  0
   22.2872  -26.1729  -14.6302 N   0  0  0  0  0  0  0  0  0  0  0  0
   23.6148  -24.6429  -13.7024 N   0  0  0  0  0  0  0  0  0  0  0  0
   24.8546  -23.8217  -13.8097 C   0  0  0  0  0  0  0  0  0  0  0  0
   24.6369  -22.5737  -14.3833 C   0  0  0  0  0  0  0  0  0  0  0  0
   23.8074  -21.4358  -13.9768 C   0  0  0  0  0  0  0  0  0  0  0  0
   24.4558  -20.2946  -13.5024 C   0  0  2  0  0  0  0  0  0  0  0  0
   24.5966  -19.2444  -14.6389 N   0  0  0  0  0  0  0  0  0  0  0  0
   25.5992  -20.1951  -12.6859 C   0  0  0  0  0  0  0  0  0  0  0  0
   26.7621  -19.7756  -13.2606 O   0  0  0  0  0  0  0  0  0  0  0  0
   21.3488  -25.8824  -14.1514 C   0  0  0  0  0  0  0  0  0  0  0  0
   25.6155  -20.4534   -6.1821 S   0  0  0  0  0  0  0  0  0  0  0  0
   27.3147  -20.0915   -6.6669 C   0  0  0  0  0  0  0  0  0  0  0  0
   27.7685  -20.7803   -8.2887 C   0  0  0  0  0  0  0  0  0  0  0  0
   26.6432  -20.6270   -9.1797 C   0  0  1  0  0  0  0  0  0  0  0  0
   27.0815  -20.2885  -10.7098 N   0  0  0  0  0  0  0  0  0  0  0  0
   25.8078  -20.3016  -11.2819 C   0  0  0  0  0  0  0  0  0  0  0  0
   28.1048  -21.2259  -11.0561 O   0  0  0  0  0  0  0  0  0  0  0  0
   29.4450  -20.9015  -10.8461 O   0  0  0  0  0  0  0  0  0  0  0  0
  1  2  1  0
  2  3  2  0
  4  2  1  0
  4  5  1  0
  6  5  1  0
  6  7  1  1
  8  6  1  0
  8  9  2  0
 10 11  1  0
 11 13  1  0
 11 12  2  0
 13 14  1  0
 14 15  1  0
 16 15  1  0
 17 16  1  6
 18 17  1  0
 18  8  1  0
 19 20  2  0
 19 17  1  0
 22 23  1  0
 22 21  1  0
 23 24  1  0
 25 24  1  1
 25 26  1  0
 25 27  1  0
 26 19  1  0
 27 28  1  0
 29 27  2  0
M  END
$$$$
