QRM.pdb
     RDKit          3D

 29 28  0  0  1  0  0  0  0  0999 V2000
   14.0987   -9.8469  -16.4151 N   0  0  0  0  0  0  0  0  0  0  0  0
   13.6033  -10.2711  -15.1353 C   0  0  0  0  0  0  0  0  0  0  0  0
   12.3877  -10.6000  -14.9600 O   0  0  0  0  0  0  0  0  0  0  0  0
   14.4417  -10.2529  -13.9374 C   0  0  0  0  0  0  0  0  0  0  0  0
   15.8815   -9.8613  -14.3082 C   0  0  0  0  0  0  0  0  0  0  0  0
   16.5620   -9.7440  -13.0244 C   0  0  2  0  0  0  0  0  0  0  0  0
   15.6938  -10.5015  -12.0345 N   0  0  0  0  0  0  0  0  0  0  0  0
   16.6081   -8.4198  -12.3026 C   0  0  0  0  0  0  0  0  0  0  0  0
   16.7370   -7.3105  -12.7956 O   0  0  0  0  0  0  0  0  0  0  0  0
   12.7178   -6.0674   -7.4709 N   0  0  0  0  0  0  0  0  0  0  0  0
   13.5228   -5.4943   -6.5285 C   0  0  0  0  0  0  0  0  0  0  0  0
   13.3949   -5.5210   -5.3347 N   0  0  0  0  0  0  0  0  0  0  0  0
   14.7863   -4.8220   -6.9285 N   0  0  0  0  0  0  0  0  0  0  0  0
   14.9359   -4.3040   -8.3184 C   0  0  0  0  0  0  0  0  0  0  0  0
   15.8061   -5.0618   -9.0946 C   0  0  0  0  0  0  0  0  0  0  0  0
   15.8153   -6.4809   -9.4607 C   0  0  0  0  0  0  0  0  0  0  0  0
   16.6604   -6.8800  -10.4972 C   0  0  2  0  0  0  0  0  0  0  0  0
   16.5174   -8.4063  -10.7505 N   0  0  0  0  0  0  0  0  0  0  0  0
   18.0050   -6.5329  -10.7331 C   0  0  0  0  0  0  0  0  0  0  0  0
   18.9388   -6.9339   -9.8245 O   0  0  0  0  0  0  0  0  0  0  0  0
   13.9599   -5.1741   -4.4660 C   0  0  0  0  0  0  0  0  0  0  0  0
   23.7042   -9.8913  -13.1805 S   0  0  0  0  0  0  0  0  0  0  0  0
   21.9910   -9.4155  -12.8778 C   0  0  0  0  0  0  0  0  0  0  0  0
   21.7808   -7.6408  -12.5359 C   0  0  0  0  0  0  0  0  0  0  0  0
   20.4064   -7.4091  -12.1602 C   0  0  1  0  0  0  0  0  0  0  0  0
   20.0723   -5.8385  -11.8971 N   0  0  0  0  0  0  0  0  0  0  0  0
   18.6812   -5.9449  -11.8391 C   0  0  0  0  0  0  0  0  0  0  0  0
   20.7593   -5.1014  -12.9123 O   0  0  0  0  0  0  0  0  0  0  0  0
   22.1246   -4.8469  -12.7835 O   0  0  0  0  0  0  0  0  0  0  0  0
  1  2  1  0
  2  3  2  0
  4  2  1  0
  4  5  1  0
  6  5  1  0
  6  7  1  1
  8  6  1  0
  8  9  2  0
 10 11  1  0
 11 13  1  0
 11 12  2  0
 13 14  1  0
 14 15  1  0
 16 15  1  0
 17 16  1  1
 18 17  1  0
 18  8  1  0
 19 20  2  0
 19 17  1  0
 22 23  1  0
 22 21  1  0
 23 24  1  0
 25 24  1  1
 25 26  1  0
 25 27  1  0
 26 19  1  0
 27 28  1  0
 29 27  2  0
M  END
$$$$
