QRM.pdb
     RDKit          3D

 29 28  0  0  1  0  0  0  0  0999 V2000
   17.2199  -19.6063  -16.4775 N   0  0  0  0  0  0  0  0  0  0  0  0
   17.5940  -18.7251  -17.5483 C   0  0  0  0  0  0  0  0  0  0  0  0
   17.1535  -18.8791  -18.7310 O   0  0  0  0  0  0  0  0  0  0  0  0
   18.5809  -17.6618  -17.3650 C   0  0  0  0  0  0  0  0  0  0  0  0
   19.9394  -18.1001  -17.9360 C   0  0  0  0  0  0  0  0  0  0  0  0
   20.8712  -17.9044  -16.8321 C   0  0  2  0  0  0  0  0  0  0  0  0
   22.0216  -17.0986  -17.4103 N   0  0  0  0  0  0  0  0  0  0  0  0
   21.6700  -19.0651  -16.2920 C   0  0  0  0  0  0  0  0  0  0  0  0
   21.4707  -19.6862  -15.2602 O   0  0  0  0  0  0  0  0  0  0  0  0
   27.2012  -23.9674  -17.5166 N   0  0  0  0  0  0  0  0  0  0  0  0
   26.4602  -25.0274  -17.0783 C   0  0  0  0  0  0  0  0  0  0  0  0
   26.5493  -26.1775  -17.4121 N   0  0  0  0  0  0  0  0  0  0  0  0
   25.4696  -24.8502  -15.9848 N   0  0  0  0  0  0  0  0  0  0  0  0
   24.9223  -23.4928  -15.7009 C   0  0  0  0  0  0  0  0  0  0  0  0
   23.7928  -23.1893  -16.4534 C   0  0  0  0  0  0  0  0  0  0  0  0
   23.3144  -21.9380  -17.0478 C   0  0  0  0  0  0  0  0  0  0  0  0
   23.2867  -20.8017  -16.2379 C   0  0  2  0  0  0  0  0  0  0  0  0
   22.9193  -19.5492  -17.0807 N   0  0  0  0  0  0  0  0  0  0  0  0
   24.1982  -20.3946  -15.2442 C   0  0  0  0  0  0  0  0  0  0  0  0
   24.9593  -19.2898  -15.4871 O   0  0  0  0  0  0  0  0  0  0  0  0
   26.0575  -27.1199  -17.1587 C   0  0  0  0  0  0  0  0  0  0  0  0
   26.0471  -20.5561   -7.5768 S   0  0  0  0  0  0  0  0  0  0  0  0
   25.0251  -20.8911   -9.0248 C   0  0  0  0  0  0  0  0  0  0  0  0
   25.8148  -20.4195  -10.5947 C   0  0  0  0  0  0  0  0  0  0  0  0
   24.8782  -20.6609  -11.6662 C   0  0  1  0  0  0  0  0  0  0  0  0
   25.4864  -20.3170  -13.1357 N   0  0  0  0  0  0  0  0  0  0  0  0
   24.4276  -20.8088  -13.9018 C   0  0  0  0  0  0  0  0  0  0  0  0
   26.8031  -20.8744  -13.1711 O   0  0  0  0  0  0  0  0  0  0  0  0
   27.0188  -22.1108  -13.7797 O   0  0  0  0  0  0  0  0  0  0  0  0
  1  2  1  0
  2  3  2  0
  4  2  1  0
  4  5  1  0
  6  5  1  0
  6  7  1  6
  8  6  1  0
  8  9  2  0
 10 11  1  0
 11 13  1  0
 11 12  2  0
 13 14  1  0
 14 15  1  0
 16 15  1  0
 17 16  1  6
 18 17  1  0
 18  8  1  0
 19 20  2  0
 19 17  1  0
 22 23  1  0
 22 21  1  0
 23 24  1  0
 25 24  1  1
 25 26  1  0
 25 27  1  0
 26 19  1  0
 27 28  1  0
 29 27  2  0
M  END
$$$$
