QRM.pdb
     RDKit          3D

 29 28  0  0  1  0  0  0  0  0999 V2000
   29.4854  -22.9886  -15.7048 N   0  0  0  0  0  0  0  0  0  0  0  0
   29.5856  -22.5273  -17.0614 C   0  0  0  0  0  0  0  0  0  0  0  0
   30.0323  -23.2687  -17.9927 O   0  0  0  0  0  0  0  0  0  0  0  0
   29.2760  -21.1474  -17.4332 C   0  0  0  0  0  0  0  0  0  0  0  0
   28.7737  -20.3711  -16.2048 C   0  0  0  0  0  0  0  0  0  0  0  0
   27.3213  -20.4548  -16.2982 C   0  0  2  0  0  0  0  0  0  0  0  0
   26.9096  -19.3304  -17.2328 N   0  0  0  0  0  0  0  0  0  0  0  0
   26.4573  -20.0828  -15.1184 C   0  0  0  0  0  0  0  0  0  0  0  0
   26.3472  -18.9846  -14.5969 O   0  0  0  0  0  0  0  0  0  0  0  0
   20.0987  -22.2610  -16.0283 N   0  0  0  0  0  0  0  0  0  0  0  0
   19.9726  -22.7724  -14.7684 C   0  0  0  0  0  0  0  0  0  0  0  0
   19.5481  -23.8493  -14.4488 N   0  0  0  0  0  0  0  0  0  0  0  0
   20.4890  -22.0182  -13.5966 N   0  0  0  0  0  0  0  0  0  0  0  0
   21.2418  -20.7495  -13.8120 C   0  0  0  0  0  0  0  0  0  0  0  0
   22.6057  -20.8741  -13.5707 C   0  0  0  0  0  0  0  0  0  0  0  0
   23.7094  -19.9128  -13.6454 C   0  0  0  0  0  0  0  0  0  0  0  0
   24.9820  -20.3536  -13.2792 C   0  0  2  0  0  0  0  0  0  0  0  0
   25.6126  -21.1899  -14.4269 N   0  0  0  0  0  0  0  0  0  0  0  0
   25.4146  -20.9094  -12.0594 C   0  0  0  0  0  0  0  0  0  0  0  0
   25.4172  -22.2675  -11.9395 O   0  0  0  0  0  0  0  0  0  0  0  0
   19.3725  -24.3906  -13.5159 C   0  0  0  0  0  0  0  0  0  0  0  0
   29.7944  -19.9736   -6.8479 S   0  0  0  0  0  0  0  0  0  0  0  0
   28.1807  -19.1957   -6.6379 C   0  0  0  0  0  0  0  0  0  0  0  0
   26.8166  -20.1438   -7.3802 C   0  0  0  0  0  0  0  0  0  0  0  0
   26.8062  -19.8904   -8.8012 C   0  0  1  0  0  0  0  0  0  0  0  0
   25.7886  -20.8640   -9.6162 N   0  0  0  0  0  0  0  0  0  0  0  0
   26.0215  -20.3571  -10.8963 C   0  0  0  0  0  0  0  0  0  0  0  0
   24.5228  -20.7722   -8.9565 O   0  0  0  0  0  0  0  0  0  0  0  0
   23.4901  -20.0327   -9.5329 O   0  0  0  0  0  0  0  0  0  0  0  0
  1  2  1  0
  2  3  2  0
  4  2  1  0
  4  5  1  0
  6  5  1  0
  6  7  1  6
  8  6  1  0
  8  9  2  0
 10 11  1  0
 11 13  1  0
 11 12  2  0
 13 14  1  0
 14 15  1  0
 16 15  1  0
 17 16  1  1
 18 17  1  0
 18  8  1  0
 19 20  2  0
 19 17  1  0
 22 23  1  0
 22 21  1  0
 23 24  1  0
 25 24  1  6
 25 26  1  0
 25 27  1  0
 26 19  1  0
 27 28  1  0
 29 27  2  0
M  END
$$$$
