QRM.pdb
     RDKit          3D

 29 28  0  0  1  0  0  0  0  0999 V2000
   29.5714  -21.4302  -20.7289 N   0  0  0  0  0  0  0  0  0  0  0  0
   30.2891  -21.9954  -19.6205 C   0  0  0  0  0  0  0  0  0  0  0  0
   31.3804  -22.6283  -19.7783 O   0  0  0  0  0  0  0  0  0  0  0  0
   29.7568  -21.9647  -18.2589 C   0  0  0  0  0  0  0  0  0  0  0  0
   28.4239  -21.1988  -18.2317 C   0  0  0  0  0  0  0  0  0  0  0  0
   27.6435  -21.8757  -17.2031 C   0  0  2  0  0  0  0  0  0  0  0  0
   27.0829  -23.1190  -17.8719 N   0  0  0  0  0  0  0  0  0  0  0  0
   26.3422  -21.2849  -16.7191 C   0  0  0  0  0  0  0  0  0  0  0  0
   25.5269  -20.6525  -17.3714 O   0  0  0  0  0  0  0  0  0  0  0  0
   20.4265  -23.8384  -19.3326 N   0  0  0  0  0  0  0  0  0  0  0  0
   21.4121  -24.4874  -18.6455 C   0  0  0  0  0  0  0  0  0  0  0  0
   21.9070  -25.5525  -18.8961 N   0  0  0  0  0  0  0  0  0  0  0  0
   22.0835  -23.8294  -17.4946 N   0  0  0  0  0  0  0  0  0  0  0  0
   21.5371  -22.5506  -16.9570 C   0  0  0  0  0  0  0  0  0  0  0  0
   22.5052  -21.5648  -16.7991 C   0  0  0  0  0  0  0  0  0  0  0  0
   23.9495  -21.6343  -16.5601 C   0  0  0  0  0  0  0  0  0  0  0  0
   24.4256  -21.2010  -15.3218 C   0  0  2  0  0  0  0  0  0  0  0  0
   25.9575  -21.4404  -15.2207 N   0  0  0  0  0  0  0  0  0  0  0  0
   23.8779  -21.3977  -14.0391 C   0  0  0  0  0  0  0  0  0  0  0  0
   24.0826  -22.6016  -13.4331 O   0  0  0  0  0  0  0  0  0  0  0  0
   22.6704  -26.1985  -18.4557 C   0  0  0  0  0  0  0  0  0  0  0  0
   26.9053  -20.9078   -9.2144 S   0  0  0  0  0  0  0  0  0  0  0  0
   25.3792  -20.0947   -8.7016 C   0  0  0  0  0  0  0  0  0  0  0  0
   23.9018  -20.7155   -9.5633 C   0  0  0  0  0  0  0  0  0  0  0  0
   24.0641  -20.4742  -10.9772 C   0  0  1  0  0  0  0  0  0  0  0  0
   22.7909  -20.9710  -11.8602 N   0  0  0  0  0  0  0  0  0  0  0  0
   23.2390  -20.5315  -13.1076 C   0  0  0  0  0  0  0  0  0  0  0  0
   21.6236  -20.4489  -11.2195 O   0  0  0  0  0  0  0  0  0  0  0  0
   21.1004  -21.0910  -10.0972 O   0  0  0  0  0  0  0  0  0  0  0  0
  1  2  1  0
  2  3  2  0
  4  2  1  0
  4  5  1  0
  6  5  1  0
  6  7  1  6
  8  6  1  0
  8  9  2  0
 10 11  1  0
 11 13  1  0
 11 12  2  0
 13 14  1  0
 14 15  1  0
 16 15  1  0
 17 16  1  6
 18 17  1  0
 18  8  1  0
 19 20  2  0
 19 17  1  0
 22 23  1  0
 22 21  1  0
 23 24  1  0
 25 24  1  6
 25 26  1  0
 25 27  1  0
 26 19  1  0
 27 28  1  0
 29 27  2  0
M  END
$$$$
