QRM.pdb
     RDKit          3D

 29 28  0  0  1  0  0  0  0  0999 V2000
   21.4638  -16.3769  -19.5195 N   0  0  0  0  0  0  0  0  0  0  0  0
   21.4999  -17.8023  -19.3463 C   0  0  0  0  0  0  0  0  0  0  0  0
   20.4492  -18.5150  -19.4149 O   0  0  0  0  0  0  0  0  0  0  0  0
   22.7288  -18.5054  -18.9807 C   0  0  0  0  0  0  0  0  0  0  0  0
   23.9158  -17.5282  -18.9850 C   0  0  0  0  0  0  0  0  0  0  0  0
   25.0370  -18.3255  -18.5029 C   0  0  2  0  0  0  0  0  0  0  0  0
   25.0020  -19.6079  -19.3163 N   0  0  0  0  0  0  0  0  0  0  0  0
   25.0000  -18.9415  -17.1260 C   0  0  0  0  0  0  0  0  0  0  0  0
   24.8495  -20.1197  -16.8445 O   0  0  0  0  0  0  0  0  0  0  0  0
   29.0204  -21.9507  -10.4230 N   0  0  0  0  0  0  0  0  0  0  0  0
   29.2140  -21.6649  -11.7442 C   0  0  0  0  0  0  0  0  0  0  0  0
   29.6993  -22.3689  -12.5874 N   0  0  0  0  0  0  0  0  0  0  0  0
   28.7039  -20.3935  -12.3201 N   0  0  0  0  0  0  0  0  0  0  0  0
   27.4307  -19.8120  -11.8068 C   0  0  0  0  0  0  0  0  0  0  0  0
   26.4344  -19.7355  -12.7740 C   0  0  0  0  0  0  0  0  0  0  0  0
   26.3523  -19.0124  -14.0462 C   0  0  0  0  0  0  0  0  0  0  0  0
   25.1570  -19.0896  -14.7625 C   0  0  2  0  0  0  0  0  0  0  0  0
   25.1318  -18.0150  -15.8845 N   0  0  0  0  0  0  0  0  0  0  0  0
   23.8405  -19.2371  -14.2839 C   0  0  0  0  0  0  0  0  0  0  0  0
   23.0016  -18.1665  -14.3765 O   0  0  0  0  0  0  0  0  0  0  0  0
   29.9276  -22.2921  -13.6533 C   0  0  0  0  0  0  0  0  0  0  0  0
   17.5244  -18.1639  -16.4289 S   0  0  0  0  0  0  0  0  0  0  0  0
   19.1896  -18.8569  -16.4112 C   0  0  0  0  0  0  0  0  0  0  0  0
   19.7841  -19.2732  -14.7427 C   0  0  0  0  0  0  0  0  0  0  0  0
   21.1285  -19.7870  -14.8533 C   0  0  2  0  0  0  0  0  0  0  0  0
   21.7552  -20.2493  -13.4246 N   0  0  0  0  0  0  0  0  0  0  0  0
   23.0888  -20.3554  -13.8250 C   0  0  0  0  0  0  0  0  0  0  0  0
   20.9793  -21.3668  -12.9831 O   0  0  0  0  0  0  0  0  0  0  0  0
   19.8274  -21.1575  -12.2248 O   0  0  0  0  0  0  0  0  0  0  0  0
  1  2  1  0
  2  3  2  0
  4  2  1  0
  4  5  1  0
  6  5  1  0
  6  7  1  6
  8  6  1  0
  8  9  2  0
 10 11  1  0
 11 13  1  0
 11 12  2  0
 13 14  1  0
 14 15  1  0
 16 15  1  0
 17 16  1  1
 18 17  1  0
 18  8  1  0
 19 20  2  0
 19 17  1  0
 22 23  1  0
 22 21  1  0
 23 24  1  0
 25 24  1  1
 25 26  1  0
 25 27  1  0
 26 19  1  0
 27 28  1  0
 29 27  2  0
M  END
$$$$
