QRM.pdb
     RDKit          3D

 29 28  0  0  1  0  0  0  0  0999 V2000
   16.5898  -18.2559  -19.7613 N   0  0  0  0  0  0  0  0  0  0  0  0
   16.3100  -17.3248  -18.7039 C   0  0  0  0  0  0  0  0  0  0  0  0
   15.7330  -16.2131  -18.9218 O   0  0  0  0  0  0  0  0  0  0  0  0
   16.7621  -17.5546  -17.3323 C   0  0  0  0  0  0  0  0  0  0  0  0
   17.3729  -18.9600  -17.2077 C   0  0  0  0  0  0  0  0  0  0  0  0
   18.6405  -18.7394  -16.5224 C   0  0  2  0  0  0  0  0  0  0  0  0
   19.7078  -18.8532  -17.5973 N   0  0  0  0  0  0  0  0  0  0  0  0
   19.1832  -19.7747  -15.5682 C   0  0  0  0  0  0  0  0  0  0  0  0
   19.3399  -20.9669  -15.7782 O   0  0  0  0  0  0  0  0  0  0  0  0
   25.4912  -22.4423  -16.0154 N   0  0  0  0  0  0  0  0  0  0  0  0
   25.0855  -22.6167  -14.7233 C   0  0  0  0  0  0  0  0  0  0  0  0
   25.7029  -23.1041  -13.8160 N   0  0  0  0  0  0  0  0  0  0  0  0
   23.7767  -22.0795  -14.2681 N   0  0  0  0  0  0  0  0  0  0  0  0
   23.3856  -22.2113  -12.8355 C   0  0  0  0  0  0  0  0  0  0  0  0
   22.1462  -21.6477  -12.5520 C   0  0  0  0  0  0  0  0  0  0  0  0
   21.4451  -20.4853  -13.1045 C   0  0  0  0  0  0  0  0  0  0  0  0
   20.1552  -20.6790  -13.6009 C   0  0  2  0  0  0  0  0  0  0  0  0
   19.5748  -19.3376  -14.1284 N   0  0  0  0  0  0  0  0  0  0  0  0
   19.0900  -21.4161  -13.0478 C   0  0  0  0  0  0  0  0  0  0  0  0
   18.0987  -20.7300  -12.4112 O   0  0  0  0  0  0  0  0  0  0  0  0
   25.5375  -23.2951  -12.7528 C   0  0  0  0  0  0  0  0  0  0  0  0
   15.3002  -28.3421  -12.9273 S   0  0  0  0  0  0  0  0  0  0  0  0
   16.6919  -27.2631  -13.3174 C   0  0  0  0  0  0  0  0  0  0  0  0
   16.6342  -25.6635  -12.4521 C   0  0  0  0  0  0  0  0  0  0  0  0
   17.6819  -24.8223  -12.9797 C   0  0  2  0  0  0  0  0  0  0  0  0
   17.6562  -23.3131  -12.3719 N   0  0  0  0  0  0  0  0  0  0  0  0
   18.7082  -22.7853  -13.1232 C   0  0  0  0  0  0  0  0  0  0  0  0
   17.7012  -23.4475  -10.9486 O   0  0  0  0  0  0  0  0  0  0  0  0
   18.9235  -23.6486  -10.3074 O   0  0  0  0  0  0  0  0  0  0  0  0
  1  2  1  0
  2  3  2  0
  4  2  1  0
  4  5  1  0
  6  5  1  0
  6  7  1  6
  8  6  1  0
  8  9  2  0
 10 11  1  0
 11 13  1  0
 11 12  2  0
 13 14  1  0
 14 15  1  0
 16 15  1  0
 17 16  1  1
 18 17  1  0
 18  8  1  0
 19 20  2  0
 19 17  1  0
 22 23  1  0
 22 21  1  0
 23 24  1  0
 25 24  1  6
 25 26  1  0
 25 27  1  0
 26 19  1  0
 27 28  1  0
 29 27  2  0
M  END
$$$$
