WVY.pdb
     RDKit          3D

 34 36  0  0  1  0  0  0  0  0999 V2000
   23.8450  -19.7511  -15.9310 N   0  0  0  0  0  0  0  0  0  0  0  0
   22.6330  -19.1937  -15.4156 C   0  0  1  0  0  0  0  0  0  0  0  0
   21.5534  -18.9997  -16.4348 C   0  0  0  0  0  0  0  0  0  0  0  0
   21.9186  -18.0559  -17.5196 C   0  0  0  0  0  0  0  0  0  0  0  0
   23.0741  -17.9957  -18.2637 C   0  0  0  0  0  0  0  0  0  0  0  0
   22.9907  -16.9945  -19.1366 N   0  0  0  0  0  0  0  0  0  0  0  0
   21.7969  -16.3597  -19.0098 C   0  0  0  0  0  0  0  0  0  0  0  0
   21.2254  -15.2876  -19.6566 C   0  0  0  0  0  0  0  0  0  0  0  0
   19.9602  -14.8587  -19.2972 C   0  0  0  0  0  0  0  0  0  0  0  0
   19.2790  -15.5122  -18.2891 C   0  0  0  0  0  0  0  0  0  0  0  0
   19.8745  -16.5786  -17.6619 C   0  0  0  0  0  0  0  0  0  0  0  0
   21.1338  -17.0204  -18.0059 C   0  0  0  0  0  0  0  0  0  0  0  0
   22.0777  -20.0393  -14.3279 C   0  0  0  0  0  0  0  0  0  0  0  0
   22.7061  -21.0465  -13.9130 O   0  0  0  0  0  0  0  0  0  0  0  0
   20.8975  -21.0756  -10.2994 C   0  0  0  0  0  0  0  0  0  0  0  0
   21.3432  -20.2340  -11.4817 C   0  0  2  0  0  0  0  0  0  0  0  0
   21.2525  -18.7717  -11.0777 C   0  0  0  0  0  0  0  0  0  0  0  0
   20.3758  -20.5064  -12.6137 C   0  0  2  0  0  0  0  0  0  0  0  0
   20.8185  -19.7014  -13.7516 N   0  0  0  0  0  0  0  0  0  0  0  0
   19.0120  -20.0707  -12.1759 C   0  0  0  0  0  0  0  0  0  0  0  0
   18.7223  -18.8679  -11.9535 O   0  0  0  0  0  0  0  0  0  0  0  0
   14.5416  -23.2748  -18.6723 O   0  0  0  0  0  0  0  0  0  0  0  0
   15.3337  -22.8956  -17.5936 C   0  0  0  0  0  0  0  0  0  0  0  0
   15.4811  -21.5814  -17.2806 C   0  0  0  0  0  0  0  0  0  0  0  0
   16.2759  -21.2039  -16.1985 C   0  0  0  0  0  0  0  0  0  0  0  0
   16.9380  -22.1157  -15.4081 C   0  0  0  0  0  0  0  0  0  0  0  0
   17.7834  -21.7550  -14.2694 C   0  0  0  0  0  0  0  0  0  0  0  0
   17.0129  -21.3223  -13.0557 C   0  0  2  0  0  0  0  0  0  0  0  0
   17.9805  -21.0312  -11.9955 N   0  0  0  0  0  0  0  0  0  0  0  0
   16.0739  -22.3380  -12.5693 C   0  0  0  0  0  0  0  0  0  0  0  0
   16.4485  -23.1759  -11.7178 O   0  0  0  0  0  0  0  0  0  0  0  0
   16.7761  -23.4611  -15.7429 C   0  0  0  0  0  0  0  0  0  0  0  0
   15.9902  -23.8304  -16.8124 C   0  0  0  0  0  0  0  0  0  0  0  0
   14.7822  -22.3883  -13.0321 O   0  0  0  0  0  0  0  0  0  0  0  0
  2  1  1  6
  2 13  1  0
  2  3  1  0
  4  3  1  0
  4  5  2  0
  6  5  1  0
  7  6  1  0
  8  7  2  0
  9  8  1  0
 10  9  2  0
 10 11  1  0
 11 12  2  0
 12  7  1  0
 12  4  1  0
 13 19  1  0
 14 13  2  0
 16 15  1  1
 17 16  1  0
 18 16  1  0
 18 19  1  6
 20 21  2  0
 20 18  1  0
 22 23  1  0
 23 24  2  0
 23 33  1  0
 24 25  1  0
 25 26  2  0
 26 27  1  0
 28 27  1  6
 28 29  1  0
 29 20  1  0
 30 28  1  0
 30 34  1  0
 31 30  2  0
 32 26  1  0
 33 32  2  0
M  END
$$$$
