WVY.pdb
     RDKit          3D

 34 36  0  0  1  0  0  0  0  0999 V2000
   27.7339  -19.3026  -10.2562 N   0  0  0  0  0  0  0  0  0  0  0  0
   26.7693  -20.3418  -10.0696 C   0  0  1  0  0  0  0  0  0  0  0  0
   26.0014  -20.2565   -8.7870 C   0  0  0  0  0  0  0  0  0  0  0  0
   26.7845  -19.6970   -7.6580 C   0  0  0  0  0  0  0  0  0  0  0  0
   26.6210  -18.5011   -6.9980 C   0  0  0  0  0  0  0  0  0  0  0  0
   27.5403  -18.3900   -6.0421 N   0  0  0  0  0  0  0  0  0  0  0  0
   28.3383  -19.4887   -6.0286 C   0  0  0  0  0  0  0  0  0  0  0  0
   29.4138  -19.8638   -5.2559 C   0  0  0  0  0  0  0  0  0  0  0  0
   30.0395  -21.0761   -5.4853 C   0  0  0  0  0  0  0  0  0  0  0  0
   29.5781  -21.9024   -6.4911 C   0  0  0  0  0  0  0  0  0  0  0  0
   28.5033  -21.5017   -7.2457 C   0  0  0  0  0  0  0  0  0  0  0  0
   27.8672  -20.2980   -7.0321 C   0  0  0  0  0  0  0  0  0  0  0  0
   25.7854  -20.3619  -11.1822 C   0  0  0  0  0  0  0  0  0  0  0  0
   25.2953  -19.2919  -11.6255 O   0  0  0  0  0  0  0  0  0  0  0  0
   24.9744  -23.9173  -13.1870 C   0  0  0  0  0  0  0  0  0  0  0  0
   24.8933  -22.5692  -13.8805 C   0  0  2  0  0  0  0  0  0  0  0  0
   26.2889  -22.2019  -14.3573 C   0  0  0  0  0  0  0  0  0  0  0  0
   24.4310  -21.5631  -12.8483 C   0  0  2  0  0  0  0  0  0  0  0  0
   25.3956  -21.6099  -11.7500 N   0  0  0  0  0  0  0  0  0  0  0  0
   23.0785  -21.9825  -12.3621 C   0  0  0  0  0  0  0  0  0  0  0  0
   22.8695  -22.3662  -11.1834 O   0  0  0  0  0  0  0  0  0  0  0  0
   19.6230  -15.9274  -13.3030 O   0  0  0  0  0  0  0  0  0  0  0  0
   19.7959  -17.2458  -12.8950 C   0  0  0  0  0  0  0  0  0  0  0  0
   21.0309  -17.7024  -12.5585 C   0  0  0  0  0  0  0  0  0  0  0  0
   21.2015  -19.0249  -12.1497 C   0  0  0  0  0  0  0  0  0  0  0  0
   20.1576  -19.9182  -12.0664 C   0  0  0  0  0  0  0  0  0  0  0  0
   20.3011  -21.3128  -11.6469 C   0  0  0  0  0  0  0  0  0  0  0  0
   20.6101  -22.2557  -12.7736 C   0  0  2  0  0  0  0  0  0  0  0  0
   21.9646  -21.9572  -13.2440 N   0  0  0  0  0  0  0  0  0  0  0  0
   19.6832  -22.1367  -13.9034 C   0  0  0  0  0  0  0  0  0  0  0  0
   18.4719  -22.4124  -13.7473 O   0  0  0  0  0  0  0  0  0  0  0  0
   18.8960  -19.4335  -12.4154 C   0  0  0  0  0  0  0  0  0  0  0  0
   18.7311  -18.1266  -12.8186 C   0  0  0  0  0  0  0  0  0  0  0  0
   20.1203  -21.7251  -15.1382 O   0  0  0  0  0  0  0  0  0  0  0  0
  2  1  1  6
  2 13  1  0
  2  3  1  0
  4  3  1  0
  4  5  2  0
  6  5  1  0
  7  6  1  0
  8  7  2  0
  9  8  1  0
 10  9  2  0
 10 11  1  0
 11 12  2  0
 12  7  1  0
 12  4  1  0
 13 19  1  0
 14 13  2  0
 16 15  1  1
 17 16  1  0
 18 16  1  0
 18 19  1  1
 20 21  2  0
 20 18  1  0
 22 23  1  0
 23 24  2  0
 23 33  1  0
 24 25  1  0
 25 26  2  0
 26 27  1  0
 28 27  1  1
 28 29  1  0
 29 20  1  0
 30 28  1  0
 30 34  1  0
 31 30  2  0
 32 26  1  0
 33 32  2  0
M  END
$$$$
