WVY.pdb
     RDKit          3D

 34 36  0  0  1  0  0  0  0  0999 V2000
   22.8341  -21.2227  -15.6000 N   0  0  0  0  0  0  0  0  0  0  0  0
   23.4886  -20.4025  -14.6283 C   0  0  1  0  0  0  0  0  0  0  0  0
   22.6046  -19.9267  -13.5174 C   0  0  0  0  0  0  0  0  0  0  0  0
   21.4804  -19.0723  -13.9727 C   0  0  0  0  0  0  0  0  0  0  0  0
   20.1387  -19.1809  -13.6885 C   0  0  0  0  0  0  0  0  0  0  0  0
   19.4729  -18.2047  -14.3008 N   0  0  0  0  0  0  0  0  0  0  0  0
   20.3304  -17.4216  -15.0047 C   0  0  0  0  0  0  0  0  0  0  0  0
   20.1584  -16.3072  -15.7940 C   0  0  0  0  0  0  0  0  0  0  0  0
   21.2524  -15.7123  -16.3967 C   0  0  0  0  0  0  0  0  0  0  0  0
   22.5120  -16.2434  -16.2004 C   0  0  0  0  0  0  0  0  0  0  0  0
   22.6529  -17.3557  -15.4078 C   0  0  0  0  0  0  0  0  0  0  0  0
   21.5752  -17.9621  -14.7993 C   0  0  0  0  0  0  0  0  0  0  0  0
   24.6371  -21.1170  -14.0142 C   0  0  0  0  0  0  0  0  0  0  0  0
   24.5568  -22.3402  -13.7338 O   0  0  0  0  0  0  0  0  0  0  0  0
   28.2543  -19.1278  -13.2793 C   0  0  0  0  0  0  0  0  0  0  0  0
   28.2019  -20.6350  -13.4531 C   0  0  2  0  0  0  0  0  0  0  0  0
   28.3165  -20.9406  -14.9375 C   0  0  0  0  0  0  0  0  0  0  0  0
   26.8528  -21.0965  -12.9449 C   0  0  2  0  0  0  0  0  0  0  0  0
   25.8408  -20.4038  -13.7419 N   0  0  0  0  0  0  0  0  0  0  0  0
   26.7354  -20.6976  -11.5067 C   0  0  0  0  0  0  0  0  0  0  0  0
   26.7962  -19.5008  -11.1268 O   0  0  0  0  0  0  0  0  0  0  0  0
   28.6023  -18.8270   -3.5087 O   0  0  0  0  0  0  0  0  0  0  0  0
   28.4220  -19.2490   -4.8218 C   0  0  0  0  0  0  0  0  0  0  0  0
   27.5507  -18.5983   -5.6369 C   0  0  0  0  0  0  0  0  0  0  0  0
   27.3719  -19.0235   -6.9531 C   0  0  0  0  0  0  0  0  0  0  0  0
   28.0487  -20.0967   -7.4865 C   0  0  0  0  0  0  0  0  0  0  0  0
   27.8819  -20.5729   -8.8602 C   0  0  0  0  0  0  0  0  0  0  0  0
   26.6216  -21.3584   -9.0803 C   0  0  2  0  0  0  0  0  0  0  0  0
   26.5466  -21.6880  -10.5054 N   0  0  0  0  0  0  0  0  0  0  0  0
   25.4072  -20.6291   -8.7019 C   0  0  0  0  0  0  0  0  0  0  0  0
   24.7457  -20.0244   -9.5761 O   0  0  0  0  0  0  0  0  0  0  0  0
   28.9397  -20.7539   -6.6364 C   0  0  0  0  0  0  0  0  0  0  0  0
   29.1139  -20.3312   -5.3369 C   0  0  0  0  0  0  0  0  0  0  0  0
   24.9775  -20.5966   -7.3982 O   0  0  0  0  0  0  0  0  0  0  0  0
  2  1  1  6
  2 13  1  0
  2  3  1  0
  4  3  1  0
  4  5  2  0
  6  5  1  0
  7  6  1  0
  8  7  2  0
  9  8  1  0
 10  9  2  0
 10 11  1  0
 11 12  2  0
 12  7  1  0
 12  4  1  0
 13 19  1  0
 14 13  2  0
 16 15  1  6
 17 16  1  0
 18 16  1  0
 18 19  1  6
 20 21  2  0
 20 18  1  0
 22 23  1  0
 23 24  2  0
 23 33  1  0
 24 25  1  0
 25 26  2  0
 26 27  1  0
 28 27  1  6
 28 29  1  0
 29 20  1  0
 30 28  1  0
 30 34  1  0
 31 30  2  0
 32 26  1  0
 33 32  2  0
M  END
$$$$
