WVY.pdb
     RDKit          3D

 34 36  0  0  1  0  0  0  0  0999 V2000
   28.3362  -19.7347  -10.0262 N   0  0  0  0  0  0  0  0  0  0  0  0
   27.1383  -20.4572   -9.7290 C   0  0  1  0  0  0  0  0  0  0  0  0
   26.4180  -19.9918   -8.5016 C   0  0  0  0  0  0  0  0  0  0  0  0
   27.3112  -19.4123   -7.4685 C   0  0  0  0  0  0  0  0  0  0  0  0
   28.0883  -18.2788   -7.5312 C   0  0  0  0  0  0  0  0  0  0  0  0
   28.7362  -18.1181   -6.3799 N   0  0  0  0  0  0  0  0  0  0  0  0
   28.4213  -19.1211   -5.5203 C   0  0  0  0  0  0  0  0  0  0  0  0
   28.8085  -19.4163   -4.2329 C   0  0  0  0  0  0  0  0  0  0  0  0
   28.3042  -20.5385   -3.6002 C   0  0  0  0  0  0  0  0  0  0  0  0
   27.4134  -21.3557   -4.2681 C   0  0  0  0  0  0  0  0  0  0  0  0
   27.0454  -21.0359   -5.5516 C   0  0  0  0  0  0  0  0  0  0  0  0
   27.5370  -19.9226   -6.1982 C   0  0  0  0  0  0  0  0  0  0  0  0
   26.1815  -20.3925  -10.8634 C   0  0  0  0  0  0  0  0  0  0  0  0
   25.5187  -19.3471  -11.0857 O   0  0  0  0  0  0  0  0  0  0  0  0
   27.1919  -21.2933  -14.2036 C   0  0  0  0  0  0  0  0  0  0  0  0
   25.8632  -22.0098  -14.0423 C   0  0  2  0  0  0  0  0  0  0  0  0
   25.0555  -21.7920  -15.3112 C   0  0  0  0  0  0  0  0  0  0  0  0
   25.1489  -21.3678  -12.8722 C   0  0  2  0  0  0  0  0  0  0  0  0
   26.0164  -21.5303  -11.7060 N   0  0  0  0  0  0  0  0  0  0  0  0
   23.8585  -22.0960  -12.6579 C   0  0  0  0  0  0  0  0  0  0  0  0
   23.6554  -22.8399  -11.6651 O   0  0  0  0  0  0  0  0  0  0  0  0
   15.6877  -21.5217  -10.3518 O   0  0  0  0  0  0  0  0  0  0  0  0
   17.0122  -21.4600  -10.7719 C   0  0  0  0  0  0  0  0  0  0  0  0
   17.9863  -22.0863  -10.0607 C   0  0  0  0  0  0  0  0  0  0  0  0
   19.3137  -22.0229  -10.4842 C   0  0  0  0  0  0  0  0  0  0  0  0
   19.7018  -21.3410  -11.6151 C   0  0  0  0  0  0  0  0  0  0  0  0
   21.0846  -21.2495  -12.0852 C   0  0  0  0  0  0  0  0  0  0  0  0
   21.4047  -22.1881  -13.2124 C   0  0  2  0  0  0  0  0  0  0  0  0
   22.7999  -21.9620  -13.5962 N   0  0  0  0  0  0  0  0  0  0  0  0
   20.5552  -21.9934  -14.3915 C   0  0  0  0  0  0  0  0  0  0  0  0
   20.8472  -21.1118  -15.2311 O   0  0  0  0  0  0  0  0  0  0  0  0
   18.6894  -20.7034  -12.3340 C   0  0  0  0  0  0  0  0  0  0  0  0
   17.3794  -20.7682  -11.9129 C   0  0  0  0  0  0  0  0  0  0  0  0
   19.4379  -22.7651  -14.5951 O   0  0  0  0  0  0  0  0  0  0  0  0
  2  1  1  6
  2 13  1  0
  2  3  1  0
  4  3  1  0
  4  5  2  0
  6  5  1  0
  7  6  1  0
  8  7  2  0
  9  8  1  0
 10  9  2  0
 10 11  1  0
 11 12  2  0
 12  7  1  0
 12  4  1  0
 13 19  1  0
 14 13  2  0
 16 15  1  6
 17 16  1  0
 18 16  1  0
 18 19  1  1
 20 21  2  0
 20 18  1  0
 22 23  1  0
 23 24  2  0
 23 33  1  0
 24 25  1  0
 25 26  2  0
 26 27  1  0
 28 27  1  1
 28 29  1  0
 29 20  1  0
 30 28  1  0
 30 34  1  0
 31 30  2  0
 32 26  1  0
 33 32  2  0
M  END
$$$$
