WVY.pdb
     RDKit          3D

 34 36  0  0  1  0  0  0  0  0999 V2000
   28.8093  -20.6389   -9.2676 N   0  0  0  0  0  0  0  0  0  0  0  0
   27.5382  -21.1676   -9.6552 C   0  0  1  0  0  0  0  0  0  0  0  0
   26.4455  -20.9615   -8.6525 C   0  0  0  0  0  0  0  0  0  0  0  0
   26.8113  -20.0364   -7.5519 C   0  0  0  0  0  0  0  0  0  0  0  0
   26.6444  -18.6731   -7.4738 C   0  0  0  0  0  0  0  0  0  0  0  0
   27.1103  -18.2329   -6.3075 N   0  0  0  0  0  0  0  0  0  0  0  0
   27.5973  -19.2682   -5.5759 C   0  0  0  0  0  0  0  0  0  0  0  0
   28.1775  -19.3525   -4.3306 C   0  0  0  0  0  0  0  0  0  0  0  0
   28.5838  -20.5804   -3.8398 C   0  0  0  0  0  0  0  0  0  0  0  0
   28.4032  -21.7151   -4.6061 C   0  0  0  0  0  0  0  0  0  0  0  0
   27.8216  -21.6002   -5.8446 C   0  0  0  0  0  0  0  0  0  0  0  0
   27.4105  -20.3859   -6.3504 C   0  0  0  0  0  0  0  0  0  0  0  0
   27.0854  -20.5781  -10.9412 C   0  0  0  0  0  0  0  0  0  0  0  0
   27.3535  -19.3839  -11.2300 O   0  0  0  0  0  0  0  0  0  0  0  0
   27.7404  -22.0325  -14.2529 C   0  0  0  0  0  0  0  0  0  0  0  0
   27.2651  -20.6282  -13.9257 C   0  0  2  0  0  0  0  0  0  0  0  0
   28.3258  -19.9624  -13.0647 C   0  0  0  0  0  0  0  0  0  0  0  0
   25.9829  -20.7642  -13.1328 C   0  0  2  0  0  0  0  0  0  0  0  0
   26.3391  -21.3788  -11.8543 N   0  0  0  0  0  0  0  0  0  0  0  0
   25.0574  -21.6618  -13.8939 C   0  0  0  0  0  0  0  0  0  0  0  0
   25.2091  -22.9087  -13.9435 O   0  0  0  0  0  0  0  0  0  0  0  0
   17.3748  -21.2928  -10.3432 O   0  0  0  0  0  0  0  0  0  0  0  0
   18.6355  -21.1891  -10.9216 C   0  0  0  0  0  0  0  0  0  0  0  0
   19.4584  -22.2697  -10.9690 C   0  0  0  0  0  0  0  0  0  0  0  0
   20.7221  -22.1631  -11.5495 C   0  0  0  0  0  0  0  0  0  0  0  0
   21.1946  -20.9897  -12.0921 C   0  0  0  0  0  0  0  0  0  0  0  0
   22.5157  -20.8409  -12.7038 C   0  0  0  0  0  0  0  0  0  0  0  0
   22.5775  -21.3006  -14.1317 C   0  0  2  0  0  0  0  0  0  0  0  0
   23.9527  -21.1134  -14.5995 N   0  0  0  0  0  0  0  0  0  0  0  0
   21.6740  -20.5632  -15.0205 C   0  0  0  0  0  0  0  0  0  0  0  0
   20.7293  -21.1611  -15.5839 O   0  0  0  0  0  0  0  0  0  0  0  0
   20.3374  -19.8896  -12.0354 C   0  0  0  0  0  0  0  0  0  0  0  0
   19.0898  -19.9986  -11.4613 C   0  0  0  0  0  0  0  0  0  0  0  0
   21.8444  -19.2200  -15.2482 O   0  0  0  0  0  0  0  0  0  0  0  0
  2  1  1  1
  2 13  1  0
  2  3  1  0
  4  3  1  0
  4  5  2  0
  6  5  1  0
  7  6  1  0
  8  7  2  0
  9  8  1  0
 10  9  2  0
 10 11  1  0
 11 12  2  0
 12  7  1  0
 12  4  1  0
 13 19  1  0
 14 13  2  0
 16 15  1  1
 17 16  1  0
 18 16  1  0
 18 19  1  1
 20 21  2  0
 20 18  1  0
 22 23  1  0
 23 24  2  0
 23 33  1  0
 24 25  1  0
 25 26  2  0
 26 27  1  0
 28 27  1  1
 28 29  1  0
 29 20  1  0
 30 28  1  0
 30 34  1  0
 31 30  2  0
 32 26  1  0
 33 32  2  0
M  END
$$$$
