WVY.pdb
     RDKit          3D

 34 36  0  0  1  0  0  0  0  0999 V2000
   28.7076  -24.3744  -17.0808 N   0  0  0  0  0  0  0  0  0  0  0  0
   27.5492  -23.5499  -16.9267 C   0  0  1  0  0  0  0  0  0  0  0  0
   26.3799  -24.2314  -16.2862 C   0  0  0  0  0  0  0  0  0  0  0  0
   25.9566  -25.4715  -16.9819 C   0  0  0  0  0  0  0  0  0  0  0  0
   26.1308  -26.7819  -16.6009 C   0  0  0  0  0  0  0  0  0  0  0  0
   25.5960  -27.5870  -17.5157 N   0  0  0  0  0  0  0  0  0  0  0  0
   25.0542  -26.8568  -18.5243 C   0  0  0  0  0  0  0  0  0  0  0  0
   24.3961  -27.1944  -19.6851 C   0  0  0  0  0  0  0  0  0  0  0  0
   23.9488  -26.2021  -20.5390 C   0  0  0  0  0  0  0  0  0  0  0  0
   24.1671  -24.8766  -20.2182 C   0  0  0  0  0  0  0  0  0  0  0  0
   24.8264  -24.5702  -19.0534 C   0  0  0  0  0  0  0  0  0  0  0  0
   25.2793  -25.5446  -18.1905 C   0  0  0  0  0  0  0  0  0  0  0  0
   27.8594  -22.3395  -16.1235 C   0  0  0  0  0  0  0  0  0  0  0  0
   28.7660  -22.3619  -15.2523 O   0  0  0  0  0  0  0  0  0  0  0  0
   26.7085  -18.6810  -17.4240 C   0  0  0  0  0  0  0  0  0  0  0  0
   27.8493  -18.8688  -16.4401 C   0  0  2  0  0  0  0  0  0  0  0  0
   29.0853  -19.2741  -17.2262 C   0  0  0  0  0  0  0  0  0  0  0  0
   27.4533  -19.9927  -15.5065 C   0  0  2  0  0  0  0  0  0  0  0  0
   27.1185  -21.1423  -16.3464 N   0  0  0  0  0  0  0  0  0  0  0  0
   26.2489  -19.5535  -14.7333 C   0  0  0  0  0  0  0  0  0  0  0  0
   25.7344  -18.4143  -14.8670 O   0  0  0  0  0  0  0  0  0  0  0  0
   17.8485  -19.9063  -13.4030 O   0  0  0  0  0  0  0  0  0  0  0  0
   19.2088  -19.9423  -13.6911 C   0  0  0  0  0  0  0  0  0  0  0  0
   19.8121  -18.8780  -14.2829 C   0  0  0  0  0  0  0  0  0  0  0  0
   21.1763  -18.9167  -14.5706 C   0  0  0  0  0  0  0  0  0  0  0  0
   21.9671  -20.0050  -14.2799 C   0  0  0  0  0  0  0  0  0  0  0  0
   23.3989  -20.0817  -14.5722 C   0  0  0  0  0  0  0  0  0  0  0  0
   24.2591  -20.2380  -13.3517 C   0  0  2  0  0  0  0  0  0  0  0  0
   25.6383  -20.4366  -13.8026 N   0  0  0  0  0  0  0  0  0  0  0  0
   23.8721  -21.3731  -12.5080 C   0  0  0  0  0  0  0  0  0  0  0  0
   24.4052  -22.4919  -12.6860 O   0  0  0  0  0  0  0  0  0  0  0  0
   21.3323  -21.0896  -13.6723 C   0  0  0  0  0  0  0  0  0  0  0  0
   19.9847  -21.0479  -13.3895 C   0  0  0  0  0  0  0  0  0  0  0  0
   22.9304  -21.2322  -11.5188 O   0  0  0  0  0  0  0  0  0  0  0  0
  2  1  1  1
  2 13  1  0
  2  3  1  0
  4  3  1  0
  4  5  2  0
  6  5  1  0
  7  6  1  0
  8  7  2  0
  9  8  1  0
 10  9  2  0
 10 11  1  0
 11 12  2  0
 12  7  1  0
 12  4  1  0
 13 19  1  0
 14 13  2  0
 16 15  1  6
 17 16  1  0
 18 16  1  0
 18 19  1  6
 20 21  2  0
 20 18  1  0
 22 23  1  0
 23 24  2  0
 23 33  1  0
 24 25  1  0
 25 26  2  0
 26 27  1  0
 28 27  1  6
 28 29  1  0
 29 20  1  0
 30 28  1  0
 30 34  1  0
 31 30  2  0
 32 26  1  0
 33 32  2  0
M  END
$$$$
