WVY.pdb
     RDKit          3D

 34 36  0  0  1  0  0  0  0  0999 V2000
   25.2508  -18.4775  -18.6502 N   0  0  0  0  0  0  0  0  0  0  0  0
   24.2989  -19.4634  -18.2410 C   0  0  1  0  0  0  0  0  0  0  0  0
   24.8746  -20.8252  -18.0047 C   0  0  0  0  0  0  0  0  0  0  0  0
   25.3877  -21.4785  -19.2339 C   0  0  0  0  0  0  0  0  0  0  0  0
   26.6897  -21.6869  -19.6259 C   0  0  0  0  0  0  0  0  0  0  0  0
   26.7070  -22.3130  -20.8001 N   0  0  0  0  0  0  0  0  0  0  0  0
   25.4389  -22.5420  -21.2286 C   0  0  0  0  0  0  0  0  0  0  0  0
   24.9167  -23.1410  -22.3524 C   0  0  0  0  0  0  0  0  0  0  0  0
   23.5456  -23.2279  -22.5148 C   0  0  0  0  0  0  0  0  0  0  0  0
   22.7097  -22.7110  -21.5445 C   0  0  0  0  0  0  0  0  0  0  0  0
   23.2593  -22.1191  -20.4342 C   0  0  0  0  0  0  0  0  0  0  0  0
   24.6224  -22.0233  -20.2549 C   0  0  0  0  0  0  0  0  0  0  0  0
   23.6023  -19.0476  -16.9967 C   0  0  0  0  0  0  0  0  0  0  0  0
   24.2113  -18.4044  -16.1040 O   0  0  0  0  0  0  0  0  0  0  0  0
   19.5643  -18.9262  -16.8858 C   0  0  0  0  0  0  0  0  0  0  0  0
   20.4097  -18.1260  -15.9112 C   0  0  2  0  0  0  0  0  0  0  0  0
   20.8758  -16.8649  -16.6198 C   0  0  0  0  0  0  0  0  0  0  0  0
   21.6091  -18.9786  -15.5561 C   0  0  2  0  0  0  0  0  0  0  0  0
   22.2287  -19.3837  -16.8174 N   0  0  0  0  0  0  0  0  0  0  0  0
   21.1207  -20.1834  -14.8135 C   0  0  0  0  0  0  0  0  0  0  0  0
   20.7286  -21.2266  -15.3950 O   0  0  0  0  0  0  0  0  0  0  0  0
   27.0600  -22.1445  -13.2738 O   0  0  0  0  0  0  0  0  0  0  0  0
   25.7489  -21.9850  -12.8376 C   0  0  0  0  0  0  0  0  0  0  0  0
   25.4366  -21.0039  -11.9505 C   0  0  0  0  0  0  0  0  0  0  0  0
   24.1211  -20.8462  -11.5148 C   0  0  0  0  0  0  0  0  0  0  0  0
   23.0929  -21.6531  -11.9464 C   0  0  0  0  0  0  0  0  0  0  0  0
   21.7036  -21.5193  -11.5066 C   0  0  0  0  0  0  0  0  0  0  0  0
   20.7221  -21.3781  -12.6339 C   0  0  2  0  0  0  0  0  0  0  0  0
   21.0868  -20.1798  -13.3930 N   0  0  0  0  0  0  0  0  0  0  0  0
   19.3331  -21.2449  -12.1835 C   0  0  0  0  0  0  0  0  0  0  0  0
   18.7854  -20.1190  -12.1776 O   0  0  0  0  0  0  0  0  0  0  0  0
   23.4304  -22.6556  -12.8572 C   0  0  0  0  0  0  0  0  0  0  0  0
   24.7307  -22.8085  -13.2854 C   0  0  0  0  0  0  0  0  0  0  0  0
   18.6157  -22.3385  -11.7658 O   0  0  0  0  0  0  0  0  0  0  0  0
  2  1  1  1
  2 13  1  0
  2  3  1  0
  4  3  1  0
  4  5  2  0
  6  5  1  0
  7  6  1  0
  8  7  2  0
  9  8  1  0
 10  9  2  0
 10 11  1  0
 11 12  2  0
 12  7  1  0
 12  4  1  0
 13 19  1  0
 14 13  2  0
 16 15  1  6
 17 16  1  0
 18 16  1  0
 18 19  1  6
 20 21  2  0
 20 18  1  0
 22 23  1  0
 23 24  2  0
 23 33  1  0
 24 25  1  0
 25 26  2  0
 26 27  1  0
 28 27  1  1
 28 29  1  0
 29 20  1  0
 30 28  1  0
 30 34  1  0
 31 30  2  0
 32 26  1  0
 33 32  2  0
M  END
$$$$
