ERA.pdb
     RDKit          3D

 26 25  0  0  1  0  0  0  0  0999 V2000
   28.4418  -21.8590  -17.6194 N   0  0  0  0  0  0  0  0  0  0  0  0
   27.9037  -20.7760  -16.8555 C   0  0  1  0  0  0  0  0  0  0  0  0
   27.3901  -19.6553  -17.6718 C   0  0  0  0  0  0  0  0  0  0  0  0
   26.2058  -19.9697  -18.5231 C   0  0  0  0  0  0  0  0  0  0  0  0
   25.7004  -18.9072  -19.3864 C   0  0  0  0  0  0  0  0  0  0  0  0
   26.1285  -17.7343  -19.4894 O   0  0  0  0  0  0  0  0  0  0  0  0
   26.9223  -21.2463  -15.8320 C   0  0  0  0  0  0  0  0  0  0  0  0
   26.1440  -22.2132  -16.0518 O   0  0  0  0  0  0  0  0  0  0  0  0
   24.6038  -19.2221  -20.2051 O   0  0  0  0  0  0  0  0  0  0  0  0
   26.5986  -20.4432   -7.0105 N   0  0  0  0  0  0  0  0  0  0  0  0
   25.2674  -20.7863   -7.3184 C   0  0  0  0  0  0  0  0  0  0  0  0
   24.3624  -20.9251   -6.4161 N   0  0  0  0  0  0  0  0  0  0  0  0
   24.9028  -20.9899   -8.6830 N   0  0  0  0  0  0  0  0  0  0  0  0
   25.8482  -20.6679   -9.7316 C   0  0  0  0  0  0  0  0  0  0  0  0
   25.3484  -21.1136  -11.0880 C   0  0  0  0  0  0  0  0  0  0  0  0
   26.3095  -20.6732  -12.1414 C   0  0  0  0  0  0  0  0  0  0  0  0
   25.9183  -21.1023  -13.5261 C   0  0  2  0  0  0  0  0  0  0  0  0
   26.8092  -20.6329  -14.5548 N   0  0  0  0  0  0  0  0  0  0  0  0
   24.5630  -20.5682  -13.8117 C   0  0  0  0  0  0  0  0  0  0  0  0
   24.3988  -19.3216  -13.9304 O   0  0  0  0  0  0  0  0  0  0  0  0
   23.3874  -21.2064   -6.7193 C   0  0  0  0  0  0  0  0  0  0  0  0
   21.3830  -22.0258  -15.0299 C   0  0  1  0  0  0  0  0  0  0  0  0
   22.0906  -20.9305  -14.2368 N   0  0  0  0  0  0  0  0  0  0  0  0
   23.4265  -21.4080  -13.9595 C   0  0  0  0  0  0  0  0  0  0  0  0
   21.3491  -20.5645  -13.0308 O   0  0  0  0  0  0  0  0  0  0  0  0
   21.7455  -20.9627  -11.9115 O   0  0  0  0  0  0  0  0  0  0  0  0
  2  1  1  6
  3  2  1  0
  4  3  1  0
  5  4  1  0
  5  6  2  0
  7  2  1  0
  7  8  2  0
  9  5  1  0
 10 11  1  0
 11 12  2  0
 13 11  1  0
 13 14  1  0
 14 15  1  0
 17 16  1  1
 16 15  1  0
 17 18  1  0
 18  7  1  0
 19 17  1  0
 20 19  2  0
 22 21  1  6
 22 23  1  0
 23 19  1  0
 24 26  1  0
 24 22  1  0
 25 24  2  0
M  END
$$$$
