ERA.pdb
     RDKit          3D

 26 25  0  0  1  0  0  0  0  0999 V2000
   18.3157  -11.9337  -14.5532 N   0  0  0  0  0  0  0  0  0  0  0  0
   18.6878  -11.3699  -15.8140 C   0  0  1  0  0  0  0  0  0  0  0  0
   17.5859  -11.3056  -16.7978 C   0  0  0  0  0  0  0  0  0  0  0  0
   16.3270  -10.6685  -16.3125 C   0  0  0  0  0  0  0  0  0  0  0  0
   15.2153  -10.5796  -17.2538 C   0  0  0  0  0  0  0  0  0  0  0  0
   14.8042   -9.5639  -17.8610 O   0  0  0  0  0  0  0  0  0  0  0  0
   19.4017  -10.0672  -15.6559 C   0  0  0  0  0  0  0  0  0  0  0  0
   19.1220   -9.2643  -14.7253 O   0  0  0  0  0  0  0  0  0  0  0  0
   14.5131  -11.7661  -17.5207 O   0  0  0  0  0  0  0  0  0  0  0  0
   26.8875  -11.5559  -16.2526 N   0  0  0  0  0  0  0  0  0  0  0  0
   26.5900  -10.1804  -16.1901 C   0  0  0  0  0  0  0  0  0  0  0  0
   27.3407   -9.2850  -16.7260 N   0  0  0  0  0  0  0  0  0  0  0  0
   25.4110   -9.7574  -15.5061 N   0  0  0  0  0  0  0  0  0  0  0  0
   24.1445   -9.7394  -16.2080 C   0  0  0  0  0  0  0  0  0  0  0  0
   23.7072   -8.3278  -16.5312 C   0  0  0  0  0  0  0  0  0  0  0  0
   22.4062   -8.3653  -17.2614 C   0  0  0  0  0  0  0  0  0  0  0  0
   21.2132   -8.4623  -16.3547 C   0  0  2  0  0  0  0  0  0  0  0  0
   20.4346   -9.6584  -16.5427 N   0  0  0  0  0  0  0  0  0  0  0  0
   20.3348   -7.2948  -16.6176 C   0  0  0  0  0  0  0  0  0  0  0  0
   19.3694   -7.4127  -17.4234 O   0  0  0  0  0  0  0  0  0  0  0  0
   27.0341   -8.2727  -16.6732 C   0  0  0  0  0  0  0  0  0  0  0  0
   18.2622   -5.3429  -15.7382 C   0  0  2  0  0  0  0  0  0  0  0  0
   19.6587   -4.8950  -16.1610 N   0  0  0  0  0  0  0  0  0  0  0  0
   20.5340   -6.0333  -15.9949 C   0  0  0  0  0  0  0  0  0  0  0  0
   20.1018   -3.7160  -15.4182 O   0  0  0  0  0  0  0  0  0  0  0  0
   21.1198   -3.7842  -14.6920 O   0  0  0  0  0  0  0  0  0  0  0  0
  2  1  1  1
  3  2  1  0
  4  3  1  0
  5  4  1  0
  5  6  2  0
  7  2  1  0
  7  8  2  0
  9  5  1  0
 10 11  1  0
 11 12  2  0
 13 11  1  0
 13 14  1  0
 14 15  1  0
 17 16  1  6
 16 15  1  0
 17 18  1  0
 18  7  1  0
 19 17  1  0
 20 19  2  0
 22 21  1  6
 22 23  1  0
 23 19  1  0
 24 26  1  0
 24 22  1  0
 25 24  2  0
M  END
$$$$
