ERA.pdb
     RDKit          3D

 26 25  0  0  1  0  0  0  0  0999 V2000
   25.6291  -19.3711  -19.5278 N   0  0  0  0  0  0  0  0  0  0  0  0
   24.6062  -18.6777  -18.8074 C   0  0  1  0  0  0  0  0  0  0  0  0
   23.6574  -17.9363  -19.6653 C   0  0  0  0  0  0  0  0  0  0  0  0
   24.2420  -16.8040  -20.4415 C   0  0  0  0  0  0  0  0  0  0  0  0
   24.9519  -15.7734  -19.6910 C   0  0  0  0  0  0  0  0  0  0  0  0
   26.1731  -15.4974  -19.7344 O   0  0  0  0  0  0  0  0  0  0  0  0
   23.9233  -19.5613  -17.8151 C   0  0  0  0  0  0  0  0  0  0  0  0
   23.6881  -20.7758  -18.0572 O   0  0  0  0  0  0  0  0  0  0  0  0
   24.1883  -14.9894  -18.8110 O   0  0  0  0  0  0  0  0  0  0  0  0
   25.0475  -20.7286   -9.2871 N   0  0  0  0  0  0  0  0  0  0  0  0
   23.6615  -20.9574   -9.3936 C   0  0  0  0  0  0  0  0  0  0  0  0
   22.9079  -21.1307   -8.3667 N   0  0  0  0  0  0  0  0  0  0  0  0
   23.0644  -21.0002  -10.6891 N   0  0  0  0  0  0  0  0  0  0  0  0
   23.7571  -20.4103  -11.8157 C   0  0  0  0  0  0  0  0  0  0  0  0
   22.9755  -20.5784  -13.0999 C   0  0  0  0  0  0  0  0  0  0  0  0
   23.6359  -19.8009  -14.1893 C   0  0  0  0  0  0  0  0  0  0  0  0
   22.9546  -19.9378  -15.5204 C   0  0  2  0  0  0  0  0  0  0  0  0
   23.5002  -19.0856  -16.5442 N   0  0  0  0  0  0  0  0  0  0  0  0
   21.5221  -19.5895  -15.3461 C   0  0  0  0  0  0  0  0  0  0  0  0
   21.2002  -18.3965  -15.0848 O   0  0  0  0  0  0  0  0  0  0  0  0
   21.8845  -21.3526   -8.5243 C   0  0  0  0  0  0  0  0  0  0  0  0
   18.2919  -21.4202  -15.8479 C   0  0  1  0  0  0  0  0  0  0  0  0
   19.0836  -20.2710  -15.2297 N   0  0  0  0  0  0  0  0  0  0  0  0
   20.4825  -20.5511  -15.4618 C   0  0  0  0  0  0  0  0  0  0  0  0
   18.7614  -20.0853  -13.8155 O   0  0  0  0  0  0  0  0  0  0  0  0
   19.3967  -20.7215  -12.9437 O   0  0  0  0  0  0  0  0  0  0  0  0
  2  1  1  6
  3  2  1  0
  4  3  1  0
  5  4  1  0
  5  6  2  0
  7  2  1  0
  7  8  2  0
  9  5  1  0
 10 11  1  0
 11 12  2  0
 13 11  1  0
 13 14  1  0
 14 15  1  0
 17 16  1  1
 16 15  1  0
 17 18  1  0
 18  7  1  0
 19 17  1  0
 20 19  2  0
 22 21  1  6
 22 23  1  0
 23 19  1  0
 24 26  1  0
 24 22  1  0
 25 24  2  0
M  END
$$$$
