ERA.pdb
     RDKit          3D

 26 25  0  0  1  0  0  0  0  0999 V2000
   26.9200  -19.8953  -18.8665 N   0  0  0  0  0  0  0  0  0  0  0  0
   26.3374  -19.2706  -17.7192 C   0  0  1  0  0  0  0  0  0  0  0  0
   25.7722  -17.9296  -17.9810 C   0  0  0  0  0  0  0  0  0  0  0  0
   24.4354  -17.9134  -18.6436 C   0  0  0  0  0  0  0  0  0  0  0  0
   23.9070  -16.6165  -19.0539 C   0  0  0  0  0  0  0  0  0  0  0  0
   24.3113  -15.8841  -19.9864 O   0  0  0  0  0  0  0  0  0  0  0  0
   25.3812  -20.1760  -17.0138 C   0  0  0  0  0  0  0  0  0  0  0  0
   24.5942  -20.9330  -17.6437 O   0  0  0  0  0  0  0  0  0  0  0  0
   22.8149  -16.1168  -18.3260 O   0  0  0  0  0  0  0  0  0  0  0  0
   25.8495  -19.6497   -9.2878 N   0  0  0  0  0  0  0  0  0  0  0  0
   24.9982  -20.7673   -9.3919 C   0  0  0  0  0  0  0  0  0  0  0  0
   24.0309  -20.9791   -8.5722 N   0  0  0  0  0  0  0  0  0  0  0  0
   25.2129  -21.7052  -10.4459 N   0  0  0  0  0  0  0  0  0  0  0  0
   26.1747  -21.4047  -11.4859 C   0  0  0  0  0  0  0  0  0  0  0  0
   25.5226  -20.7189  -12.6661 C   0  0  0  0  0  0  0  0  0  0  0  0
   25.0862  -21.7448  -13.6583 C   0  0  0  0  0  0  0  0  0  0  0  0
   24.4540  -21.1582  -14.8874 C   0  0  2  0  0  0  0  0  0  0  0  0
   25.3031  -20.2366  -15.5958 N   0  0  0  0  0  0  0  0  0  0  0  0
   23.2271  -20.4309  -14.4757 C   0  0  0  0  0  0  0  0  0  0  0  0
   23.3316  -19.3029  -13.9173 O   0  0  0  0  0  0  0  0  0  0  0  0
   23.4747  -21.8750   -8.6696 C   0  0  0  0  0  0  0  0  0  0  0  0
   19.7002  -20.4154  -15.3734 C   0  0  1  0  0  0  0  0  0  0  0  0
   20.7069  -20.3172  -14.2304 N   0  0  0  0  0  0  0  0  0  0  0  0
   21.9226  -20.9538  -14.6846 C   0  0  0  0  0  0  0  0  0  0  0  0
   20.1844  -20.8935  -12.9922 O   0  0  0  0  0  0  0  0  0  0  0  0
   20.5907  -22.0137  -12.6070 O   0  0  0  0  0  0  0  0  0  0  0  0
  2  1  1  6
  3  2  1  0
  4  3  1  0
  5  4  1  0
  5  6  2  0
  7  2  1  0
  7  8  2  0
  9  5  1  0
 10 11  1  0
 11 12  2  0
 13 11  1  0
 13 14  1  0
 14 15  1  0
 17 16  1  1
 16 15  1  0
 17 18  1  0
 18  7  1  0
 19 17  1  0
 20 19  2  0
 22 21  1  6
 22 23  1  0
 23 19  1  0
 24 26  1  0
 24 22  1  0
 25 24  2  0
M  END
$$$$
