ERA.pdb
     RDKit          3D

 26 25  0  0  1  0  0  0  0  0999 V2000
   28.1940  -21.3171  -16.3464 N   0  0  0  0  0  0  0  0  0  0  0  0
   27.5906  -20.2825  -15.5643 C   0  0  1  0  0  0  0  0  0  0  0  0
   27.2174  -19.0785  -16.3371 C   0  0  0  0  0  0  0  0  0  0  0  0
   26.8212  -19.3215  -17.7549 C   0  0  0  0  0  0  0  0  0  0  0  0
   27.5080  -18.5481  -18.7843 C   0  0  0  0  0  0  0  0  0  0  0  0
   27.3689  -17.3317  -19.0500 O   0  0  0  0  0  0  0  0  0  0  0  0
   26.4725  -20.7995  -14.7191 C   0  0  0  0  0  0  0  0  0  0  0  0
   25.5813  -21.5585  -15.1868 O   0  0  0  0  0  0  0  0  0  0  0  0
   28.4387  -19.2357  -19.5799 O   0  0  0  0  0  0  0  0  0  0  0  0
   26.2219  -18.7987   -7.7461 N   0  0  0  0  0  0  0  0  0  0  0  0
   26.6592  -20.0182   -7.1927 C   0  0  0  0  0  0  0  0  0  0  0  0
   26.9935  -20.1369   -5.9572 N   0  0  0  0  0  0  0  0  0  0  0  0
   26.7370  -21.1705   -8.0310 N   0  0  0  0  0  0  0  0  0  0  0  0
   27.2709  -21.0452   -9.3713 C   0  0  0  0  0  0  0  0  0  0  0  0
   26.3811  -21.7216  -10.3906 C   0  0  0  0  0  0  0  0  0  0  0  0
   25.5043  -20.7028  -11.0390 C   0  0  0  0  0  0  0  0  0  0  0  0
   25.2827  -20.9485  -12.5037 C   0  0  2  0  0  0  0  0  0  0  0  0
   26.3487  -20.4669  -13.3427 N   0  0  0  0  0  0  0  0  0  0  0  0
   24.0319  -20.2575  -12.9058 C   0  0  0  0  0  0  0  0  0  0  0  0
   24.1008  -19.1691  -13.5429 O   0  0  0  0  0  0  0  0  0  0  0  0
   27.3577  -21.0729   -5.6213 C   0  0  0  0  0  0  0  0  0  0  0  0
   21.7749  -20.6277  -14.7805 C   0  0  2  0  0  0  0  0  0  0  0  0
   21.5306  -20.3940  -13.2921 N   0  0  0  0  0  0  0  0  0  0  0  0
   22.7431  -20.7726  -12.6021 C   0  0  0  0  0  0  0  0  0  0  0  0
   20.3493  -21.1110  -12.8140 O   0  0  0  0  0  0  0  0  0  0  0  0
   19.2125  -20.7787  -13.2208 O   0  0  0  0  0  0  0  0  0  0  0  0
  2  1  1  6
  3  2  1  0
  4  3  1  0
  5  4  1  0
  5  6  2  0
  7  2  1  0
  7  8  2  0
  9  5  1  0
 10 11  1  0
 11 12  2  0
 13 11  1  0
 13 14  1  0
 14 15  1  0
 17 16  1  1
 16 15  1  0
 17 18  1  0
 18  7  1  0
 19 17  1  0
 20 19  2  0
 22 21  1  6
 22 23  1  0
 23 19  1  0
 24 26  1  0
 24 22  1  0
 25 24  2  0
M  END
$$$$
