ERA.pdb
     RDKit          3D

 26 25  0  0  1  0  0  0  0  0999 V2000
   23.2464  -41.0320  -10.8335 N   0  0  0  0  0  0  0  0  0  0  0  0
   22.7001  -40.5331   -9.6092 C   0  0  1  0  0  0  0  0  0  0  0  0
   22.4119  -41.5784   -8.6040 C   0  0  0  0  0  0  0  0  0  0  0  0
   23.6050  -42.2748   -8.0403 C   0  0  0  0  0  0  0  0  0  0  0  0
   23.3624  -43.4185   -7.1670 C   0  0  0  0  0  0  0  0  0  0  0  0
   22.2583  -43.9053   -6.8303 O   0  0  0  0  0  0  0  0  0  0  0  0
   23.5051  -39.4024   -9.0567 C   0  0  0  0  0  0  0  0  0  0  0  0
   24.7633  -39.3832   -9.1311 O   0  0  0  0  0  0  0  0  0  0  0  0
   24.4915  -44.0601   -6.6328 O   0  0  0  0  0  0  0  0  0  0  0  0
   25.6762  -31.9931   -7.5844 N   0  0  0  0  0  0  0  0  0  0  0  0
   25.6759  -32.2753   -8.9646 C   0  0  0  0  0  0  0  0  0  0  0  0
   26.6806  -32.0172   -9.7238 N   0  0  0  0  0  0  0  0  0  0  0  0
   24.5179  -32.8702   -9.5493 N   0  0  0  0  0  0  0  0  0  0  0  0
   23.4820  -33.4106   -8.6937 C   0  0  0  0  0  0  0  0  0  0  0  0
   23.9430  -34.6656   -7.9860 C   0  0  0  0  0  0  0  0  0  0  0  0
   23.2371  -35.8482   -8.5608 C   0  0  0  0  0  0  0  0  0  0  0  0
   23.6444  -37.1511   -7.9351 C   0  0  2  0  0  0  0  0  0  0  0  0
   22.9012  -38.2859   -8.4170 N   0  0  0  0  0  0  0  0  0  0  0  0
   23.4302  -37.0487   -6.4698 C   0  0  0  0  0  0  0  0  0  0  0  0
   22.2524  -37.0145   -6.0149 O   0  0  0  0  0  0  0  0  0  0  0  0
   26.6033  -32.2421  -10.7558 C   0  0  0  0  0  0  0  0  0  0  0  0
   24.9524  -38.0559   -3.4549 C   0  0  1  0  0  0  0  0  0  0  0  0
   24.3433  -36.8225   -4.1161 N   0  0  0  0  0  0  0  0  0  0  0  0
   24.5055  -36.9867   -5.5431 C   0  0  0  0  0  0  0  0  0  0  0  0
   24.9334  -35.5843   -3.6093 O   0  0  0  0  0  0  0  0  0  0  0  0
   25.9072  -35.0694   -4.2051 O   0  0  0  0  0  0  0  0  0  0  0  0
  2  1  1  6
  3  2  1  0
  4  3  1  0
  5  4  1  0
  5  6  2  0
  7  2  1  0
  7  8  2  0
  9  5  1  0
 10 11  1  0
 11 12  2  0
 13 11  1  0
 13 14  1  0
 14 15  1  0
 17 16  1  6
 16 15  1  0
 17 18  1  0
 18  7  1  0
 19 17  1  0
 20 19  2  0
 22 21  1  6
 22 23  1  0
 23 19  1  0
 24 26  1  0
 24 22  1  0
 25 24  2  0
M  END
$$$$
