ERA.pdb
     RDKit          3D

 26 25  0  0  1  0  0  0  0  0999 V2000
   28.6360  -20.9957  -17.8758 N   0  0  0  0  0  0  0  0  0  0  0  0
   28.0566  -21.7373  -16.7985 C   0  0  1  0  0  0  0  0  0  0  0  0
   29.0196  -22.5765  -16.0539 C   0  0  0  0  0  0  0  0  0  0  0  0
   29.4448  -23.8309  -16.7407 C   0  0  0  0  0  0  0  0  0  0  0  0
   28.3930  -24.7242  -17.2155 C   0  0  0  0  0  0  0  0  0  0  0  0
   28.0680  -24.9636  -18.4015 O   0  0  0  0  0  0  0  0  0  0  0  0
   27.2281  -20.8725  -15.9054 C   0  0  0  0  0  0  0  0  0  0  0  0
   27.5113  -19.6609  -15.7036 O   0  0  0  0  0  0  0  0  0  0  0  0
   27.6478  -25.4033  -16.2381 O   0  0  0  0  0  0  0  0  0  0  0  0
   18.9820  -18.9948  -16.2215 N   0  0  0  0  0  0  0  0  0  0  0  0
   19.3442  -18.2963  -15.0530 C   0  0  0  0  0  0  0  0  0  0  0  0
   18.5514  -17.4725  -14.4655 N   0  0  0  0  0  0  0  0  0  0  0  0
   20.6408  -18.5063  -14.4948 N   0  0  0  0  0  0  0  0  0  0  0  0
   21.5795  -19.3752  -15.1735 C   0  0  0  0  0  0  0  0  0  0  0  0
   22.8855  -19.4826  -14.4177 C   0  0  0  0  0  0  0  0  0  0  0  0
   23.8468  -20.3124  -15.2015 C   0  0  0  0  0  0  0  0  0  0  0  0
   25.1620  -20.5211  -14.5078 C   0  0  2  0  0  0  0  0  0  0  0  0
   26.0760  -21.3639  -15.2334 N   0  0  0  0  0  0  0  0  0  0  0  0
   24.8968  -21.1550  -13.1919 C   0  0  0  0  0  0  0  0  0  0  0  0
   24.1552  -22.1756  -13.1323 O   0  0  0  0  0  0  0  0  0  0  0  0
   18.8495  -17.0622  -13.5358 C   0  0  0  0  0  0  0  0  0  0  0  0
   25.9790  -20.4128   -9.6646 C   0  0  1  0  0  0  0  0  0  0  0  0
   25.0583  -21.1096  -10.6628 N   0  0  0  0  0  0  0  0  0  0  0  0
   25.4472  -20.6583  -11.9798 C   0  0  0  0  0  0  0  0  0  0  0  0
   23.6474  -20.8665  -10.3653 O   0  0  0  0  0  0  0  0  0  0  0  0
   23.0923  -21.4886   -9.4307 O   0  0  0  0  0  0  0  0  0  0  0  0
  2  1  1  6
  3  2  1  0
  4  3  1  0
  5  4  1  0
  5  6  2  0
  7  2  1  0
  7  8  2  0
  9  5  1  0
 10 11  1  0
 11 12  2  0
 13 11  1  0
 13 14  1  0
 14 15  1  0
 17 16  1  6
 16 15  1  0
 17 18  1  0
 18  7  1  0
 19 17  1  0
 20 19  2  0
 22 21  1  6
 22 23  1  0
 23 19  1  0
 24 26  1  0
 24 22  1  0
 25 24  2  0
M  END
$$$$
