NAS.pdb
     RDKit          3D

 20 19  0  0  1  0  0  0  0  0999 V2000
   15.6879  -12.9004  -15.7345 N   0  0  0  0  0  0  0  0  0  0  0  0
   16.1464  -11.9248  -16.6409 C   0  0  0  0  0  0  0  0  0  0  0  0
   15.5616  -11.7383  -17.7245 O   0  0  0  0  0  0  0  0  0  0  0  0
   17.3377  -11.1323  -16.2685 C   0  0  0  0  0  0  0  0  0  0  0  0
   18.4294  -11.2484  -17.3407 C   0  0  2  0  0  0  0  0  0  0  0  0
   19.0898  -12.5322  -17.2520 N   0  0  0  0  0  0  0  0  0  0  0  0
   19.4219  -10.1961  -17.0232 C   0  0  0  0  0  0  0  0  0  0  0  0
   20.1351  -10.3296  -16.0021 O   0  0  0  0  0  0  0  0  0  0  0  0
   20.8370   -7.1510  -18.5923 C   0  0  0  0  0  0  0  0  0  0  0  0
   20.6387   -8.1139  -17.4469 C   0  0  2  0  0  0  0  0  0  0  0  0
   19.6000   -9.0421  -17.8265 N   0  0  0  0  0  0  0  0  0  0  0  0
   20.3557   -7.4324  -16.1748 C   0  0  0  0  0  0  0  0  0  0  0  0
   19.1634   -7.2428  -15.8447 O   0  0  0  0  0  0  0  0  0  0  0  0
   21.1805   -6.7036  -11.7902 O   0  0  0  0  0  0  0  0  0  0  0  0
   21.3891   -7.3574  -12.9999 C   0  0  0  0  0  0  0  0  0  0  0  0
   21.2296   -6.3184  -14.0928 C   0  0  2  0  0  0  0  0  0  0  0  0
   21.4273   -7.0069  -15.3534 N   0  0  0  0  0  0  0  0  0  0  0  0
   22.2075   -5.2206  -13.9152 C   0  0  0  0  0  0  0  0  0  0  0  0
   23.2966   -5.2846  -14.5499 O   0  0  0  0  0  0  0  0  0  0  0  0
   21.9821   -4.1342  -13.0895 O   0  0  0  0  0  0  0  0  0  0  0  0
  2  1  1  0
  3  2  2  0
  4  5  1  0
  4  2  1  0
  5  6  1  1
  7  8  2  0
  7  5  1  0
 10  9  1  6
 10 12  1  0
 10 11  1  0
 11  7  1  0
 12 13  2  0
 15 14  1  0
 16 15  1  1
 17 12  1  0
 17 16  1  0
 18 20  1  0
 18 16  1  0
 19 18  2  0
M  END
$$$$
