NAS.pdb
     RDKit          3D

 20 19  0  0  1  0  0  0  0  0999 V2000
   13.2502  -10.8983   -9.4606 N   0  0  0  0  0  0  0  0  0  0  0  0
   14.3797  -11.1714  -10.2564 C   0  0  0  0  0  0  0  0  0  0  0  0
   14.6687  -12.3413  -10.5708 O   0  0  0  0  0  0  0  0  0  0  0  0
   15.2082  -10.0321  -10.7053 C   0  0  0  0  0  0  0  0  0  0  0  0
   14.6958   -8.7142  -10.1090 C   0  0  2  0  0  0  0  0  0  0  0  0
   13.3978   -8.3838  -10.6550 N   0  0  0  0  0  0  0  0  0  0  0  0
   15.6567   -7.6737  -10.5417 C   0  0  0  0  0  0  0  0  0  0  0  0
   15.6867   -7.3473  -11.7508 O   0  0  0  0  0  0  0  0  0  0  0  0
   17.8411   -5.1211   -9.0357 C   0  0  0  0  0  0  0  0  0  0  0  0
   17.4159   -6.0093  -10.1797 C   0  0  2  0  0  0  0  0  0  0  0  0
   16.5457   -7.0300   -9.6451 N   0  0  0  0  0  0  0  0  0  0  0  0
   18.5575   -6.5660  -10.9210 C   0  0  0  0  0  0  0  0  0  0  0  0
   18.9397   -7.7279  -10.6559 O   0  0  0  0  0  0  0  0  0  0  0  0
   20.6496   -7.1568  -14.8885 O   0  0  0  0  0  0  0  0  0  0  0  0
   19.6442   -6.6050  -14.1016 C   0  0  0  0  0  0  0  0  0  0  0  0
   20.2638   -6.2956  -12.7526 C   0  0  2  0  0  0  0  0  0  0  0  0
   19.1981   -5.7848  -11.9127 N   0  0  0  0  0  0  0  0  0  0  0  0
   21.3605   -5.3109  -12.8961 C   0  0  0  0  0  0  0  0  0  0  0  0
   21.0635   -4.0842  -12.8960 O   0  0  0  0  0  0  0  0  0  0  0  0
   22.6887   -5.6733  -13.0296 O   0  0  0  0  0  0  0  0  0  0  0  0
  2  1  1  0
  3  2  2  0
  4  5  1  0
  4  2  1  0
  5  6  1  6
  7  8  2  0
  7  5  1  0
 10  9  1  1
 10 12  1  0
 10 11  1  0
 11  7  1  0
 12 13  2  0
 15 14  1  0
 16 15  1  6
 17 12  1  0
 17 16  1  0
 18 20  1  0
 18 16  1  0
 19 18  2  0
M  END
$$$$
