NAS.pdb
     RDKit          3D

 20 19  0  0  1  0  0  0  0  0999 V2000
   27.6272  -18.2136  -17.8969 N   0  0  0  0  0  0  0  0  0  0  0  0
   27.4422  -17.0786  -17.0839 C   0  0  0  0  0  0  0  0  0  0  0  0
   28.4044  -16.3469  -16.7842 O   0  0  0  0  0  0  0  0  0  0  0  0
   26.0770  -16.7834  -16.5990 C   0  0  0  0  0  0  0  0  0  0  0  0
   25.0515  -17.7260  -17.2431 C   0  0  2  0  0  0  0  0  0  0  0  0
   24.8186  -17.3531  -18.6211 N   0  0  0  0  0  0  0  0  0  0  0  0
   23.7910  -17.5267  -16.4919 C   0  0  0  0  0  0  0  0  0  0  0  0
   23.7527  -17.8522  -15.2829 O   0  0  0  0  0  0  0  0  0  0  0  0
   20.6045  -15.7471  -16.7818 C   0  0  0  0  0  0  0  0  0  0  0  0
   21.4351  -16.8978  -16.2676 C   0  0  2  0  0  0  0  0  0  0  0  0
   22.6235  -16.9824  -17.0831 N   0  0  0  0  0  0  0  0  0  0  0  0
   20.6860  -18.1625  -16.2207 C   0  0  0  0  0  0  0  0  0  0  0  0
   20.9338  -19.0419  -17.0760 O   0  0  0  0  0  0  0  0  0  0  0  0
   17.8894  -21.0087  -13.6259 O   0  0  0  0  0  0  0  0  0  0  0  0
   18.6586  -19.8516  -13.6873 C   0  0  0  0  0  0  0  0  0  0  0  0
   18.8685  -19.5425  -15.1569 C   0  0  2  0  0  0  0  0  0  0  0  0
   19.7067  -18.3610  -15.2179 N   0  0  0  0  0  0  0  0  0  0  0  0
   17.5700  -19.3218  -15.8338 C   0  0  0  0  0  0  0  0  0  0  0  0
   17.1135  -18.1460  -15.8779 O   0  0  0  0  0  0  0  0  0  0  0  0
   16.8390  -20.3410  -16.4168 O   0  0  0  0  0  0  0  0  0  0  0  0
  2  1  1  0
  3  2  2  0
  4  5  1  0
  4  2  1  0
  5  6  1  6
  7  8  2  0
  7  5  1  0
 10  9  1  6
 10 12  1  0
 10 11  1  0
 11  7  1  0
 12 13  2  0
 15 14  1  0
 16 15  1  1
 17 12  1  0
 17 16  1  0
 18 20  1  0
 18 16  1  0
 19 18  2  0
M  END
$$$$
