NAS.pdb
     RDKit          3D

 20 19  0  0  1  0  0  0  0  0999 V2000
   17.7859  -15.5435  -15.3019 N   0  0  0  0  0  0  0  0  0  0  0  0
   18.7698  -14.5402  -15.2075 C   0  0  0  0  0  0  0  0  0  0  0  0
   19.9066  -14.8029  -14.7721 O   0  0  0  0  0  0  0  0  0  0  0  0
   18.4136  -13.1717  -15.6391 C   0  0  0  0  0  0  0  0  0  0  0  0
   16.9394  -13.0961  -16.0583 C   0  0  2  0  0  0  0  0  0  0  0  0
   16.7337  -13.7927  -17.3091 N   0  0  0  0  0  0  0  0  0  0  0  0
   16.6543  -11.6596  -16.2779 C   0  0  0  0  0  0  0  0  0  0  0  0
   17.0651  -11.1183  -17.3303 O   0  0  0  0  0  0  0  0  0  0  0  0
   14.5881   -8.9783  -14.7961 C   0  0  0  0  0  0  0  0  0  0  0  0
   15.7003   -9.4845  -15.6821 C   0  0  2  0  0  0  0  0  0  0  0  0
   15.9352  -10.8691  -15.3470 N   0  0  0  0  0  0  0  0  0  0  0  0
   16.9168   -8.6630  -15.5918 C   0  0  0  0  0  0  0  0  0  0  0  0
   17.8486   -9.0454  -14.8488 O   0  0  0  0  0  0  0  0  0  0  0  0
   19.4278   -5.1821  -17.6813 O   0  0  0  0  0  0  0  0  0  0  0  0
   18.3020   -5.9985  -17.6992 C   0  0  0  0  0  0  0  0  0  0  0  0
   18.1832   -6.6114  -16.3173 C   0  0  2  0  0  0  0  0  0  0  0  0
   17.0115   -7.4651  -16.3402 N   0  0  0  0  0  0  0  0  0  0  0  0
   18.0641   -5.5547  -15.2867 C   0  0  0  0  0  0  0  0  0  0  0  0
   16.9074   -5.1779  -14.9507 O   0  0  0  0  0  0  0  0  0  0  0  0
   19.1580   -4.9651  -14.6792 O   0  0  0  0  0  0  0  0  0  0  0  0
  2  1  1  0
  3  2  2  0
  4  5  1  0
  4  2  1  0
  5  6  1  6
  7  8  2  0
  7  5  1  0
 10  9  1  1
 10 12  1  0
 10 11  1  0
 11  7  1  0
 12 13  2  0
 15 14  1  0
 16 15  1  6
 17 12  1  0
 17 16  1  0
 18 20  1  0
 18 16  1  0
 19 18  2  0
M  END
$$$$
