NAS.pdb
     RDKit          3D

 20 19  0  0  1  0  0  0  0  0999 V2000
   15.0207  -11.9594  -14.6249 N   0  0  0  0  0  0  0  0  0  0  0  0
   16.3325  -11.8820  -14.1182 C   0  0  0  0  0  0  0  0  0  0  0  0
   16.7727  -12.7620  -13.3548 O   0  0  0  0  0  0  0  0  0  0  0  0
   17.1676  -10.7295  -14.5185 C   0  0  0  0  0  0  0  0  0  0  0  0
   16.3659   -9.7461  -15.3816 C   0  0  2  0  0  0  0  0  0  0  0  0
   16.1618  -10.2878  -16.7071 N   0  0  0  0  0  0  0  0  0  0  0  0
   17.2085   -8.5344  -15.5032 C   0  0  0  0  0  0  0  0  0  0  0  0
   18.4499   -8.6716  -15.6003 O   0  0  0  0  0  0  0  0  0  0  0  0
   16.7495   -4.8966  -16.0366 C   0  0  0  0  0  0  0  0  0  0  0  0
   17.5777   -6.1269  -15.7562 C   0  0  2  0  0  0  0  0  0  0  0  0
   16.6700   -7.2234  -15.5144 N   0  0  0  0  0  0  0  0  0  0  0  0
   18.5356   -5.9285  -14.6581 C   0  0  0  0  0  0  0  0  0  0  0  0
   18.1737   -6.1877  -13.4883 O   0  0  0  0  0  0  0  0  0  0  0  0
   22.9370   -5.9175  -13.2005 O   0  0  0  0  0  0  0  0  0  0  0  0
   21.9657   -6.1796  -14.1608 C   0  0  0  0  0  0  0  0  0  0  0  0
   20.8293   -5.2070  -13.9114 C   0  0  2  0  0  0  0  0  0  0  0  0
   19.8384   -5.4523  -14.9410 N   0  0  0  0  0  0  0  0  0  0  0  0
   21.3200   -3.8103  -13.9527 C   0  0  0  0  0  0  0  0  0  0  0  0
   21.2024   -3.1694  -15.0336 O   0  0  0  0  0  0  0  0  0  0  0  0
   21.8982   -3.1802  -12.8657 O   0  0  0  0  0  0  0  0  0  0  0  0
  2  1  1  0
  3  2  2  0
  4  5  1  0
  4  2  1  0
  5  6  1  6
  7  8  2  0
  7  5  1  0
 10  9  1  1
 10 12  1  0
 10 11  1  0
 11  7  1  0
 12 13  2  0
 15 14  1  0
 16 15  1  6
 17 12  1  0
 17 16  1  0
 18 20  1  0
 18 16  1  0
 19 18  2  0
M  END
$$$$
