NAS.pdb
     RDKit          3D

 20 19  0  0  1  0  0  0  0  0999 V2000
   13.7605   -8.7954   -9.0081 N   0  0  0  0  0  0  0  0  0  0  0  0
   15.1205   -8.6242   -8.6848 C   0  0  0  0  0  0  0  0  0  0  0  0
   15.5108   -8.7162   -7.5058 O   0  0  0  0  0  0  0  0  0  0  0  0
   16.0668   -8.3330   -9.7830 C   0  0  0  0  0  0  0  0  0  0  0  0
   15.3390   -8.2793  -11.1329 C   0  0  2  0  0  0  0  0  0  0  0  0
   14.9627   -9.6099  -11.5570 N   0  0  0  0  0  0  0  0  0  0  0  0
   16.3238   -7.7473  -12.1026 C   0  0  0  0  0  0  0  0  0  0  0  0
   17.1984   -8.5200  -12.5577 O   0  0  0  0  0  0  0  0  0  0  0  0
   16.9107   -4.6539  -14.0550 C   0  0  0  0  0  0  0  0  0  0  0  0
   17.3090   -6.0055  -13.5139 C   0  0  2  0  0  0  0  0  0  0  0  0
   16.3194   -6.3988  -12.5388 N   0  0  0  0  0  0  0  0  0  0  0  0
   18.6769   -6.0204  -12.9741 C   0  0  0  0  0  0  0  0  0  0  0  0
   18.8383   -5.9131  -11.7377 O   0  0  0  0  0  0  0  0  0  0  0  0
   21.4139   -8.4616  -13.9451 O   0  0  0  0  0  0  0  0  0  0  0  0
   21.8718   -7.1955  -14.2938 C   0  0  0  0  0  0  0  0  0  0  0  0
   21.1519   -6.2069  -13.3972 C   0  0  2  0  0  0  0  0  0  0  0  0
   19.7771   -6.1549  -13.8548 N   0  0  0  0  0  0  0  0  0  0  0  0
   21.7969   -4.8756  -13.4655 C   0  0  0  0  0  0  0  0  0  0  0  0
   21.3726   -4.0513  -14.3219 O   0  0  0  0  0  0  0  0  0  0  0  0
   22.8379   -4.4971  -12.6372 O   0  0  0  0  0  0  0  0  0  0  0  0
  2  1  1  0
  3  2  2  0
  4  5  1  0
  4  2  1  0
  5  6  1  6
  7  8  2  0
  7  5  1  0
 10  9  1  1
 10 12  1  0
 10 11  1  0
 11  7  1  0
 12 13  2  0
 15 14  1  0
 16 15  1  6
 17 12  1  0
 17 16  1  0
 18 20  1  0
 18 16  1  0
 19 18  2  0
M  END
$$$$
