NAS.pdb
     RDKit          3D

 20 19  0  0  1  0  0  0  0  0999 V2000
   16.2983  -13.8327  -14.8453 N   0  0  0  0  0  0  0  0  0  0  0  0
   17.5817  -13.3907  -15.2208 C   0  0  0  0  0  0  0  0  0  0  0  0
   18.4235  -14.1903  -15.6714 O   0  0  0  0  0  0  0  0  0  0  0  0
   17.8979  -11.9548  -15.0647 C   0  0  0  0  0  0  0  0  0  0  0  0
   16.7127  -11.1968  -14.4519 C   0  0  2  0  0  0  0  0  0  0  0  0
   15.7434  -10.8648  -15.4728 N   0  0  0  0  0  0  0  0  0  0  0  0
   17.2723   -9.9335  -13.9189 C   0  0  0  0  0  0  0  0  0  0  0  0
   17.5597   -9.0162  -14.7220 O   0  0  0  0  0  0  0  0  0  0  0  0
   17.9421   -8.3573  -10.6269 C   0  0  0  0  0  0  0  0  0  0  0  0
   18.0094   -8.4289  -12.1331 C   0  0  2  0  0  0  0  0  0  0  0  0
   17.4973   -9.7173  -12.5363 N   0  0  0  0  0  0  0  0  0  0  0  0
   19.3590   -8.1646  -12.6544 C   0  0  0  0  0  0  0  0  0  0  0  0
   20.0351   -9.1231  -13.0908 O   0  0  0  0  0  0  0  0  0  0  0  0
   22.0990   -6.4215  -15.4243 O   0  0  0  0  0  0  0  0  0  0  0  0
   20.9334   -6.8216  -14.7796 C   0  0  0  0  0  0  0  0  0  0  0  0
   21.1007   -6.4703  -13.3140 C   0  0  2  0  0  0  0  0  0  0  0  0
   19.8648   -6.8424  -12.6533 N   0  0  0  0  0  0  0  0  0  0  0  0
   21.3880   -5.0264  -13.1535 C   0  0  0  0  0  0  0  0  0  0  0  0
   20.4208   -4.2172  -13.2055 O   0  0  0  0  0  0  0  0  0  0  0  0
   22.6619   -4.5276  -12.9502 O   0  0  0  0  0  0  0  0  0  0  0  0
  2  1  1  0
  3  2  2  0
  4  5  1  0
  4  2  1  0
  5  6  1  6
  7  8  2  0
  7  5  1  0
 10  9  1  1
 10 12  1  0
 10 11  1  0
 11  7  1  0
 12 13  2  0
 15 14  1  0
 16 15  1  6
 17 12  1  0
 17 16  1  0
 18 20  1  0
 18 16  1  0
 19 18  2  0
M  END
$$$$
