SDF.pdb
     RDKit          3D

 26 26  0  0  1  0  0  0  0  0999 V2000
    9.0302  -17.9527   23.1975 O   0  0  0  0  0  0  0  0  0  0  0  0
    8.8698  -17.6502   21.8551 C   0  0  0  0  0  0  0  0  0  0  0  0
    9.8043  -18.4988   20.9812 C   0  0  2  0  0  0  0  0  0  0  0  0
    9.4161  -19.8781   21.1520 N   0  0  0  0  0  0  0  0  0  0  0  0
   11.1760  -18.2249   21.4763 C   0  0  0  0  0  0  0  0  0  0  0  0
   11.7901  -19.1906   22.0007 O   0  0  0  0  0  0  0  0  0  0  0  0
   11.7597  -16.9192   21.3562 N   0  0  0  0  0  0  0  0  0  0  0  0
   13.0894  -16.7473   21.8545 C   0  0  1  0  0  0  0  0  0  0  0  0
   13.7313  -15.5155   21.2509 C   0  0  0  0  0  0  0  0  0  0  0  0
   14.1642  -15.8182   19.8767 C   0  0  0  0  0  0  0  0  0  0  0  0
   14.2620  -14.8550   19.0475 O   0  0  0  0  0  0  0  0  0  0  0  0
   13.0904  -16.4899   23.3410 C   0  0  0  0  0  0  0  0  0  0  0  0
   14.1660  -16.3663   23.9766 O   0  0  0  0  0  0  0  0  0  0  0  0
   14.4773  -17.0734   19.4023 O   0  0  0  0  0  0  0  0  0  0  0  0
   11.8781  -16.3832   24.0463 N   0  0  0  0  0  0  0  0  0  0  0  0
   11.7690  -16.0238   25.4471 C   0  0  1  0  0  0  0  0  0  0  0  0
   10.3596  -15.5152   25.6342 C   0  0  0  0  0  0  0  0  0  0  0  0
   10.1355  -15.0095   26.9965 C   0  0  0  0  0  0  0  0  0  0  0  0
   10.1938  -15.8344   28.0801 C   0  0  0  0  0  0  0  0  0  0  0  0
    9.9940  -15.3704   29.3637 C   0  0  0  0  0  0  0  0  0  0  0  0
    9.7255  -14.0218   29.5517 C   0  0  0  0  0  0  0  0  0  0  0  0
    9.6607  -13.1680   28.4768 C   0  0  0  0  0  0  0  0  0  0  0  0
    9.8654  -13.6658   27.2109 C   0  0  0  0  0  0  0  0  0  0  0  0
   11.9825  -17.1759   26.3391 C   0  0  0  0  0  0  0  0  0  0  0  0
   12.5581  -17.1836   27.4288 O   0  0  0  0  0  0  0  0  0  0  0  0
   11.4719  -18.4146   25.9012 O   0  0  0  0  0  0  0  0  0  0  0  0
  2  1  1  0
  3  5  1  0
  3  4  1  1
  3  2  1  0
  5  6  2  0
  7  8  1  0
  7  5  1  0
  8 12  1  0
  8  9  1  6
 10  9  1  0
 11 10  2  0
 12 13  2  0
 12 15  1  0
 14 10  1  0
 15 16  1  0
 16 24  1  0
 16 17  1  6
 18 17  1  0
 19 18  2  0
 20 19  1  0
 21 20  2  0
 21 22  1  0
 22 23  2  0
 23 18  1  0
 24 25  2  0
 24 26  1  0
M  END
$$$$
