SDF.pdb
     RDKit          3D

 26 26  0  0  1  0  0  0  0  0999 V2000
    5.8135  -15.2877   21.5380 O   0  0  0  0  0  0  0  0  0  0  0  0
    6.6756  -15.0890   20.4719 C   0  0  0  0  0  0  0  0  0  0  0  0
    7.4068  -16.3873   20.1022 C   0  0  2  0  0  0  0  0  0  0  0  0
    6.4112  -17.4273   20.0046 N   0  0  0  0  0  0  0  0  0  0  0  0
    8.3789  -16.6267   21.1974 C   0  0  0  0  0  0  0  0  0  0  0  0
    8.0556  -17.4828   22.0619 O   0  0  0  0  0  0  0  0  0  0  0  0
    9.6212  -15.9102   21.2547 N   0  0  0  0  0  0  0  0  0  0  0  0
   10.4867  -16.1863   22.3596 C   0  0  1  0  0  0  0  0  0  0  0  0
   11.8461  -15.5542   22.1446 C   0  0  0  0  0  0  0  0  0  0  0  0
   12.5379  -16.2530   21.0489 C   0  0  0  0  0  0  0  0  0  0  0  0
   12.3944  -17.5159   20.9513 O   0  0  0  0  0  0  0  0  0  0  0  0
    9.9708  -15.5607   23.6317 C   0  0  0  0  0  0  0  0  0  0  0  0
    9.6029  -14.3606   23.6609 O   0  0  0  0  0  0  0  0  0  0  0  0
   13.3402  -15.6496   20.1051 O   0  0  0  0  0  0  0  0  0  0  0  0
    9.8922  -16.3156   24.8160 N   0  0  0  0  0  0  0  0  0  0  0  0
    9.3214  -15.8383   26.0609 C   0  0  1  0  0  0  0  0  0  0  0  0
    7.8670  -15.5578   25.7674 C   0  0  0  0  0  0  0  0  0  0  0  0
    7.5370  -14.1356   25.9410 C   0  0  0  0  0  0  0  0  0  0  0  0
    7.0515  -13.6569   27.1213 C   0  0  0  0  0  0  0  0  0  0  0  0
    6.7464  -12.3234   27.2992 C   0  0  0  0  0  0  0  0  0  0  0  0
    6.9412  -11.4471   26.2407 C   0  0  0  0  0  0  0  0  0  0  0  0
    7.4291  -11.9032   25.0396 C   0  0  0  0  0  0  0  0  0  0  0  0
    7.7226  -13.2396   24.8983 C   0  0  0  0  0  0  0  0  0  0  0  0
    9.4063  -16.8405   27.1365 C   0  0  0  0  0  0  0  0  0  0  0  0
    9.5272  -18.0610   27.0159 O   0  0  0  0  0  0  0  0  0  0  0  0
    9.3426  -16.3534   28.4576 O   0  0  0  0  0  0  0  0  0  0  0  0
  2  1  1  0
  3  5  1  0
  3  4  1  1
  3  2  1  0
  5  6  2  0
  7  8  1  0
  7  5  1  0
  8 12  1  0
  8  9  1  6
 10  9  1  0
 11 10  2  0
 12 13  2  0
 12 15  1  0
 14 10  1  0
 15 16  1  0
 16 24  1  0
 16 17  1  6
 18 17  1  0
 19 18  2  0
 20 19  1  0
 21 20  2  0
 21 22  1  0
 22 23  2  0
 23 18  1  0
 24 25  2  0
 24 26  1  0
M  END
$$$$
