SDF.pdb
     RDKit          3D

 26 26  0  0  1  0  0  0  0  0999 V2000
    8.8257  -11.9116   19.5115 O   0  0  0  0  0  0  0  0  0  0  0  0
    8.5137  -12.8241   20.5061 C   0  0  0  0  0  0  0  0  0  0  0  0
    8.0615  -14.1632   19.9064 C   0  0  2  0  0  0  0  0  0  0  0  0
    6.7236  -13.9758   19.3991 N   0  0  0  0  0  0  0  0  0  0  0  0
    8.1194  -15.1420   21.0201 C   0  0  0  0  0  0  0  0  0  0  0  0
    7.0890  -15.2441   21.7360 O   0  0  0  0  0  0  0  0  0  0  0  0
    9.2983  -15.9258   21.2567 N   0  0  0  0  0  0  0  0  0  0  0  0
    9.2595  -16.8569   22.3418 C   0  0  1  0  0  0  0  0  0  0  0  0
   10.3194  -17.9247   22.1680 C   0  0  0  0  0  0  0  0  0  0  0  0
   10.0237  -18.7089   20.9576 C   0  0  0  0  0  0  0  0  0  0  0  0
    8.9038  -19.3139   20.8877 O   0  0  0  0  0  0  0  0  0  0  0  0
    9.6000  -16.1894   23.6512 C   0  0  0  0  0  0  0  0  0  0  0  0
   10.5824  -15.4136   23.7470 O   0  0  0  0  0  0  0  0  0  0  0  0
   10.8670  -18.8475   19.8768 O   0  0  0  0  0  0  0  0  0  0  0  0
    8.8176  -16.4260   24.7960 N   0  0  0  0  0  0  0  0  0  0  0  0
    9.1540  -15.9723   26.1318 C   0  0  1  0  0  0  0  0  0  0  0  0
    7.8483  -15.5615   26.7693 C   0  0  0  0  0  0  0  0  0  0  0  0
    7.3952  -14.2465   26.2927 C   0  0  0  0  0  0  0  0  0  0  0  0
    6.3207  -14.1219   25.4633 C   0  0  0  0  0  0  0  0  0  0  0  0
    5.8807  -12.8932   25.0164 C   0  0  0  0  0  0  0  0  0  0  0  0
    6.5566  -11.7526   25.4266 C   0  0  0  0  0  0  0  0  0  0  0  0
    7.6433  -11.8495   26.2623 C   0  0  0  0  0  0  0  0  0  0  0  0
    8.0538  -13.0914   26.6882 C   0  0  0  0  0  0  0  0  0  0  0  0
    9.7687  -17.0344   26.9458 C   0  0  0  0  0  0  0  0  0  0  0  0
    9.9098  -18.2215   26.6462 O   0  0  0  0  0  0  0  0  0  0  0  0
   10.2532  -16.6553   28.2140 O   0  0  0  0  0  0  0  0  0  0  0  0
  2  1  1  0
  3  5  1  0
  3  4  1  1
  3  2  1  0
  5  6  2  0
  7  8  1  0
  7  5  1  0
  8 12  1  0
  8  9  1  6
 10  9  1  0
 11 10  2  0
 12 13  2  0
 12 15  1  0
 14 10  1  0
 15 16  1  0
 16 24  1  0
 16 17  1  1
 18 17  1  0
 19 18  2  0
 20 19  1  0
 21 20  2  0
 21 22  1  0
 22 23  2  0
 23 18  1  0
 24 25  2  0
 24 26  1  0
M  END
$$$$
