SDF.pdb
     RDKit          3D

 26 26  0  0  1  0  0  0  0  0999 V2000
    6.4581  -18.8718   24.6929 O   0  0  0  0  0  0  0  0  0  0  0  0
    6.5984  -19.7565   23.6361 C   0  0  0  0  0  0  0  0  0  0  0  0
    6.9610  -19.0174   22.3401 C   0  0  2  0  0  0  0  0  0  0  0  0
    7.0268  -20.0032   21.2883 N   0  0  0  0  0  0  0  0  0  0  0  0
    8.2704  -18.3697   22.6001 C   0  0  0  0  0  0  0  0  0  0  0  0
    9.2545  -19.1354   22.7725 O   0  0  0  0  0  0  0  0  0  0  0  0
    8.3928  -16.9405   22.6495 N   0  0  0  0  0  0  0  0  0  0  0  0
    9.7058  -16.4007   22.8242 C   0  0  1  0  0  0  0  0  0  0  0  0
    9.8522  -15.0960   22.0693 C   0  0  0  0  0  0  0  0  0  0  0  0
    9.8229  -15.3670   20.6226 C   0  0  0  0  0  0  0  0  0  0  0  0
    8.7595  -15.0893   19.9767 O   0  0  0  0  0  0  0  0  0  0  0  0
    9.9643  -16.0396   24.2660 C   0  0  0  0  0  0  0  0  0  0  0  0
   11.0102  -15.4335   24.6049 O   0  0  0  0  0  0  0  0  0  0  0  0
   10.8626  -15.9039   19.8951 O   0  0  0  0  0  0  0  0  0  0  0  0
    9.0318  -16.3780   25.2633 N   0  0  0  0  0  0  0  0  0  0  0  0
    9.2163  -16.1329   26.6808 C   0  0  1  0  0  0  0  0  0  0  0  0
    7.8688  -15.6949   27.2029 C   0  0  0  0  0  0  0  0  0  0  0  0
    7.4742  -14.3829   26.6694 C   0  0  0  0  0  0  0  0  0  0  0  0
    6.3918  -14.2432   25.8528 C   0  0  0  0  0  0  0  0  0  0  0  0
    6.0064  -13.0166   25.3529 C   0  0  0  0  0  0  0  0  0  0  0  0
    6.7472  -11.8939   25.6950 C   0  0  0  0  0  0  0  0  0  0  0  0
    7.8432  -12.0062   26.5164 C   0  0  0  0  0  0  0  0  0  0  0  0
    8.1982  -13.2455   26.9963 C   0  0  0  0  0  0  0  0  0  0  0  0
    9.6394  -17.3417   27.4077 C   0  0  0  0  0  0  0  0  0  0  0  0
    9.9514  -17.4307   28.5966 O   0  0  0  0  0  0  0  0  0  0  0  0
    9.6954  -18.5372   26.6630 O   0  0  0  0  0  0  0  0  0  0  0  0
  2  1  1  0
  3  5  1  0
  3  4  1  6
  3  2  1  0
  5  6  2  0
  7  8  1  0
  7  5  1  0
  8 12  1  0
  8  9  1  6
 10  9  1  0
 11 10  2  0
 12 13  2  0
 12 15  1  0
 14 10  1  0
 15 16  1  0
 16 24  1  0
 16 17  1  1
 18 17  1  0
 19 18  2  0
 20 19  1  0
 21 20  2  0
 21 22  1  0
 22 23  2  0
 23 18  1  0
 24 25  2  0
 24 26  1  0
M  END
$$$$
