SDF.pdb
     RDKit          3D

 26 26  0  0  1  0  0  0  0  0999 V2000
   10.2415  -19.1799   19.4981 O   0  0  0  0  0  0  0  0  0  0  0  0
    8.9539  -19.4534   19.0665 C   0  0  0  0  0  0  0  0  0  0  0  0
    8.1067  -18.1744   19.0072 C   0  0  2  0  0  0  0  0  0  0  0  0
    8.8142  -17.2295   18.1770 N   0  0  0  0  0  0  0  0  0  0  0  0
    7.9743  -17.7149   20.4119 C   0  0  0  0  0  0  0  0  0  0  0  0
    7.9977  -16.4710   20.6034 O   0  0  0  0  0  0  0  0  0  0  0  0
    7.8276  -18.6539   21.4875 N   0  0  0  0  0  0  0  0  0  0  0  0
    7.4636  -18.1316   22.7684 C   0  0  1  0  0  0  0  0  0  0  0  0
    6.9709  -19.2389   23.6767 C   0  0  0  0  0  0  0  0  0  0  0  0
    6.5099  -18.6549   24.9470 C   0  0  0  0  0  0  0  0  0  0  0  0
    6.0588  -19.4395   25.8448 O   0  0  0  0  0  0  0  0  0  0  0  0
    8.6578  -17.5518   23.4851 C   0  0  0  0  0  0  0  0  0  0  0  0
    9.7526  -18.1653   23.5215 O   0  0  0  0  0  0  0  0  0  0  0  0
    6.5240  -17.3116   25.2537 O   0  0  0  0  0  0  0  0  0  0  0  0
    8.5655  -16.3051   24.1299 N   0  0  0  0  0  0  0  0  0  0  0  0
    9.6764  -15.6211   24.7635 C   0  0  1  0  0  0  0  0  0  0  0  0
    9.4283  -14.1468   24.5518 C   0  0  0  0  0  0  0  0  0  0  0  0
    8.3328  -13.6483   25.3963 C   0  0  0  0  0  0  0  0  0  0  0  0
    8.5757  -12.8869   26.5005 C   0  0  0  0  0  0  0  0  0  0  0  0
    7.5562  -12.4061   27.2957 C   0  0  0  0  0  0  0  0  0  0  0  0
    6.2452  -12.7104   26.9567 C   0  0  0  0  0  0  0  0  0  0  0  0
    5.9720  -13.4764   25.8489 C   0  0  0  0  0  0  0  0  0  0  0  0
    7.0139  -13.9386   25.0789 C   0  0  0  0  0  0  0  0  0  0  0  0
    9.7481  -15.8898   26.2096 C   0  0  0  0  0  0  0  0  0  0  0  0
    8.9206  -16.4834   26.9036 O   0  0  0  0  0  0  0  0  0  0  0  0
   10.8926  -15.4160   26.8823 O   0  0  0  0  0  0  0  0  0  0  0  0
  2  1  1  0
  3  5  1  0
  3  4  1  6
  3  2  1  0
  5  6  2  0
  7  8  1  0
  7  5  1  0
  8 12  1  0
  8  9  1  1
 10  9  1  0
 11 10  2  0
 12 13  2  0
 12 15  1  0
 14 10  1  0
 15 16  1  0
 16 24  1  0
 16 17  1  1
 18 17  1  0
 19 18  2  0
 20 19  1  0
 21 20  2  0
 21 22  1  0
 22 23  2  0
 23 18  1  0
 24 25  2  0
 24 26  1  0
M  END
$$$$
