SDF.pdb
     RDKit          3D

 26 26  0  0  1  0  0  0  0  0999 V2000
    9.9334  -19.3799   23.4883 O   0  0  0  0  0  0  0  0  0  0  0  0
    9.3324  -19.9577   22.3819 C   0  0  0  0  0  0  0  0  0  0  0  0
    9.7485  -19.2417   21.0891 C   0  0  2  0  0  0  0  0  0  0  0  0
   11.1161  -19.6119   20.8150 N   0  0  0  0  0  0  0  0  0  0  0  0
    9.5924  -17.7921   21.3647 C   0  0  0  0  0  0  0  0  0  0  0  0
   10.6459  -17.1469   21.6069 O   0  0  0  0  0  0  0  0  0  0  0  0
    8.2985  -17.1711   21.3524 N   0  0  0  0  0  0  0  0  0  0  0  0
    8.2561  -15.7430   21.4234 C   0  0  1  0  0  0  0  0  0  0  0  0
    6.8903  -15.2281   21.0197 C   0  0  0  0  0  0  0  0  0  0  0  0
    5.9688  -16.3661   20.8670 C   0  0  0  0  0  0  0  0  0  0  0  0
    4.7764  -16.2410   21.3002 O   0  0  0  0  0  0  0  0  0  0  0  0
    8.4451  -15.2573   22.8391 C   0  0  0  0  0  0  0  0  0  0  0  0
    8.6427  -14.0424   23.0865 O   0  0  0  0  0  0  0  0  0  0  0  0
    6.2898  -17.5741   20.2871 O   0  0  0  0  0  0  0  0  0  0  0  0
    8.4032  -16.1629   23.9146 N   0  0  0  0  0  0  0  0  0  0  0  0
    8.6530  -15.8099   25.2989 C   0  0  1  0  0  0  0  0  0  0  0  0
    7.3086  -15.4434   25.8805 C   0  0  0  0  0  0  0  0  0  0  0  0
    7.1994  -14.0008   26.1427 C   0  0  0  0  0  0  0  0  0  0  0  0
    6.0001  -13.3558   26.0838 C   0  0  0  0  0  0  0  0  0  0  0  0
    5.8835  -12.0046   26.3361 C   0  0  0  0  0  0  0  0  0  0  0  0
    7.0254  -11.2849   26.6591 C   0  0  0  0  0  0  0  0  0  0  0  0
    8.2474  -11.9103   26.7252 C   0  0  0  0  0  0  0  0  0  0  0  0
    8.3260  -13.2592   26.4674 C   0  0  0  0  0  0  0  0  0  0  0  0
    9.2164  -16.9311   26.0698 C   0  0  0  0  0  0  0  0  0  0  0  0
    9.4957  -16.9500   27.2700 O   0  0  0  0  0  0  0  0  0  0  0  0
    9.4669  -18.1217   25.3582 O   0  0  0  0  0  0  0  0  0  0  0  0
  2  1  1  0
  3  5  1  0
  3  4  1  1
  3  2  1  0
  5  6  2  0
  7  8  1  0
  7  5  1  0
  8 12  1  0
  8  9  1  1
 10  9  1  0
 11 10  2  0
 12 13  2  0
 12 15  1  0
 14 10  1  0
 15 16  1  0
 16 24  1  0
 16 17  1  1
 18 17  1  0
 19 18  2  0
 20 19  1  0
 21 20  2  0
 21 22  1  0
 22 23  2  0
 23 18  1  0
 24 25  2  0
 24 26  1  0
M  END
$$$$
