PMF.pdb
     RDKit          3D

 27 28  0  0  1  0  0  0  0  0999 V2000
   27.4726  -20.9197  -15.5245 N   0  0  0  0  0  0  0  0  0  0  0  0
   28.1916  -20.7496  -16.7791 C   0  0  0  0  0  0  0  0  0  0  0  0
   28.2312  -19.2663  -17.0651 C   0  0  0  0  0  0  0  0  0  0  0  0
   27.5423  -18.6498  -15.8393 C   0  0  0  0  0  0  0  0  0  0  0  0
   27.8203  -19.7295  -14.8140 C   0  0  1  0  0  0  0  0  0  0  0  0
   27.0542  -19.5563  -13.5639 C   0  0  0  0  0  0  0  0  0  0  0  0
   27.1990  -18.5301  -12.8623 O   0  0  0  0  0  0  0  0  0  0  0  0
   21.8377  -22.9412  -13.6282 C   0  0  0  0  0  0  0  0  0  0  0  0
   21.4081  -21.2324  -13.2137 S   0  0  0  0  0  0  0  0  0  0  0  0
   22.9841  -20.2842  -13.1439 C   0  0  0  0  0  0  0  0  0  0  0  0
   23.8786  -21.0317  -12.2217 C   0  0  0  0  0  0  0  0  0  0  0  0
   25.2462  -20.4485  -12.0134 C   0  0  2  0  0  0  0  0  0  0  0  0
   26.1374  -20.5500  -13.1317 N   0  0  0  0  0  0  0  0  0  0  0  0
   25.8232  -20.8248  -10.7090 C   0  0  0  0  0  0  0  0  0  0  0  0
   26.4191  -21.9440  -10.6576 O   0  0  0  0  0  0  0  0  0  0  0  0
   25.7760  -20.0720   -9.5197 N   0  0  0  0  0  0  0  0  0  0  0  0
   26.4055  -20.5501   -8.2768 C   0  0  1  0  0  0  0  0  0  0  0  0
   27.0992  -19.3602   -7.6768 C   0  0  0  0  0  0  0  0  0  0  0  0
   27.6696  -19.6086   -6.3483 C   0  0  0  0  0  0  0  0  0  0  0  0
   27.1149  -20.4142   -5.3826 C   0  0  0  0  0  0  0  0  0  0  0  0
   27.7306  -20.6041   -4.1429 C   0  0  0  0  0  0  0  0  0  0  0  0
   28.9143  -19.9779   -3.8719 C   0  0  0  0  0  0  0  0  0  0  0  0
   29.4733  -19.1717   -4.8317 C   0  0  0  0  0  0  0  0  0  0  0  0
   28.8781  -18.9753   -6.0582 C   0  0  0  0  0  0  0  0  0  0  0  0
   25.3474  -21.0153   -7.3547 C   0  0  0  0  0  0  0  0  0  0  0  0
   25.6163  -21.8351   -6.2682 O   0  0  0  0  0  0  0  0  0  0  0  0
   24.1649  -20.6533   -7.5660 O   0  0  0  0  0  0  0  0  0  0  0  0
  1  5  1  0
  1  2  1  0
  2  3  1  0
  4  3  1  0
  5  4  1  0
  5  6  1  1
  7  6  2  0
  8  9  1  0
 10  9  1  0
 11 10  1  0
 12 11  1  6
 12 13  1  0
 13  6  1  0
 14 12  1  0
 14 15  2  0
 16 14  1  0
 17 16  1  0
 17 18  1  1
 19 20  2  0
 19 18  1  0
 21 20  1  0
 22 21  2  0
 23 22  1  0
 23 24  2  0
 24 19  1  0
 25 17  1  0
 26 25  1  0
 27 25  2  0
M  END
$$$$
