PMF.pdb
     RDKit          3D

 27 28  0  0  1  0  0  0  0  0999 V2000
   24.5580  -20.8438  -15.4415 N   0  0  0  0  0  0  0  0  0  0  0  0
   24.4653  -20.6865  -16.8859 C   0  0  0  0  0  0  0  0  0  0  0  0
   24.4578  -19.2017  -17.1667 C   0  0  0  0  0  0  0  0  0  0  0  0
   24.6226  -18.5763  -15.7742 C   0  0  0  0  0  0  0  0  0  0  0  0
   25.3374  -19.7071  -15.0639 C   0  0  1  0  0  0  0  0  0  0  0  0
   25.4162  -19.5185  -13.6017 C   0  0  0  0  0  0  0  0  0  0  0  0
   26.0656  -18.5663  -13.1140 O   0  0  0  0  0  0  0  0  0  0  0  0
   20.2393  -21.3002  -11.1994 C   0  0  0  0  0  0  0  0  0  0  0  0
   20.6983  -20.6402   -9.5777 S   0  0  0  0  0  0  0  0  0  0  0  0
   22.4306  -20.0339   -9.7152 C   0  0  0  0  0  0  0  0  0  0  0  0
   22.9094  -20.4451  -11.0610 C   0  0  0  0  0  0  0  0  0  0  0  0
   24.3414  -20.1238  -11.3775 C   0  0  2  0  0  0  0  0  0  0  0  0
   24.7571  -20.4132  -12.7186 N   0  0  0  0  0  0  0  0  0  0  0  0
   25.2641  -20.5746  -10.3185 C   0  0  0  0  0  0  0  0  0  0  0  0
   25.5007  -21.8203  -10.2693 O   0  0  0  0  0  0  0  0  0  0  0  0
   25.9028  -19.7656   -9.3588 N   0  0  0  0  0  0  0  0  0  0  0  0
   26.7493  -20.3432   -8.3009 C   0  0  1  0  0  0  0  0  0  0  0  0
   27.5215  -19.1965   -7.7127 C   0  0  0  0  0  0  0  0  0  0  0  0
   28.3023  -19.5504   -6.5223 C   0  0  0  0  0  0  0  0  0  0  0  0
   29.3028  -20.4919   -6.4784 C   0  0  0  0  0  0  0  0  0  0  0  0
   30.0050  -20.7620   -5.3012 C   0  0  0  0  0  0  0  0  0  0  0  0
   29.6980  -20.0796   -4.1580 C   0  0  0  0  0  0  0  0  0  0  0  0
   28.6996  -19.1387   -4.1949 C   0  0  0  0  0  0  0  0  0  0  0  0
   27.9990  -18.8615   -5.3480 C   0  0  0  0  0  0  0  0  0  0  0  0
   25.8781  -20.9304   -7.2604 C   0  0  0  0  0  0  0  0  0  0  0  0
   26.3417  -21.8602   -6.3410 O   0  0  0  0  0  0  0  0  0  0  0  0
   24.6767  -20.5723   -7.2108 O   0  0  0  0  0  0  0  0  0  0  0  0
  1  5  1  0
  1  2  1  0
  2  3  1  0
  4  3  1  0
  5  4  1  0
  5  6  1  1
  7  6  2  0
  8  9  1  0
 10  9  1  0
 11 10  1  0
 12 11  1  1
 12 13  1  0
 13  6  1  0
 14 12  1  0
 14 15  2  0
 16 14  1  0
 17 16  1  0
 17 18  1  1
 19 20  2  0
 19 18  1  0
 21 20  1  0
 22 21  2  0
 23 22  1  0
 23 24  2  0
 24 19  1  0
 25 17  1  0
 26 25  1  0
 27 25  2  0
M  END
$$$$
