PMF.pdb
     RDKit          3D

 27 28  0  0  1  0  0  0  0  0999 V2000
   27.2476  -19.7765  -19.5842 N   0  0  0  0  0  0  0  0  0  0  0  0
   28.4791  -19.9714  -20.3359 C   0  0  0  0  0  0  0  0  0  0  0  0
   29.0780  -18.6024  -20.5608 C   0  0  0  0  0  0  0  0  0  0  0  0
   28.1147  -17.6669  -19.8163 C   0  0  0  0  0  0  0  0  0  0  0  0
   27.5580  -18.6306  -18.7889 C   0  0  1  0  0  0  0  0  0  0  0  0
   26.3892  -18.0957  -18.0623 C   0  0  0  0  0  0  0  0  0  0  0  0
   26.4944  -17.0755  -17.3452 O   0  0  0  0  0  0  0  0  0  0  0  0
   20.5384  -18.3675  -20.4073 C   0  0  0  0  0  0  0  0  0  0  0  0
   21.4086  -16.7814  -20.3501 S   0  0  0  0  0  0  0  0  0  0  0  0
   23.0287  -17.0867  -19.5318 C   0  0  0  0  0  0  0  0  0  0  0  0
   22.7563  -18.0159  -18.4040 C   0  0  0  0  0  0  0  0  0  0  0  0
   23.9182  -18.3156  -17.5018 C   0  0  2  0  0  0  0  0  0  0  0  0
   25.1222  -18.7276  -18.1620 N   0  0  0  0  0  0  0  0  0  0  0  0
   23.5267  -19.1294  -16.3354 C   0  0  0  0  0  0  0  0  0  0  0  0
   23.5066  -20.3867  -16.5060 O   0  0  0  0  0  0  0  0  0  0  0  0
   23.1708  -18.6532  -15.0587 N   0  0  0  0  0  0  0  0  0  0  0  0
   22.8533  -19.5716  -13.9519 C   0  0  1  0  0  0  0  0  0  0  0  0
   23.2867  -18.8737  -12.6940 C   0  0  0  0  0  0  0  0  0  0  0  0
   22.9581  -19.6017  -11.4636 C   0  0  0  0  0  0  0  0  0  0  0  0
   21.7744  -19.5010  -10.7721 C   0  0  0  0  0  0  0  0  0  0  0  0
   21.5387  -20.2393   -9.6096 C   0  0  0  0  0  0  0  0  0  0  0  0
   22.5020  -21.0858   -9.1381 C   0  0  0  0  0  0  0  0  0  0  0  0
   23.6864  -21.1905   -9.8237 C   0  0  0  0  0  0  0  0  0  0  0  0
   23.9328  -20.4693  -10.9710 C   0  0  0  0  0  0  0  0  0  0  0  0
   21.3905  -19.7845  -13.9135 C   0  0  0  0  0  0  0  0  0  0  0  0
   20.4977  -18.9226  -14.5338 O   0  0  0  0  0  0  0  0  0  0  0  0
   20.9448  -20.7819  -13.2966 O   0  0  0  0  0  0  0  0  0  0  0  0
  1  5  1  0
  1  2  1  0
  2  3  1  0
  4  3  1  0
  5  4  1  0
  5  6  1  6
  7  6  2  0
  8  9  1  0
 10  9  1  0
 11 10  1  0
 12 11  1  6
 12 13  1  0
 13  6  1  0
 14 12  1  0
 14 15  2  0
 16 14  1  0
 17 16  1  0
 17 18  1  1
 19 20  2  0
 19 18  1  0
 21 20  1  0
 22 21  2  0
 23 22  1  0
 23 24  2  0
 24 19  1  0
 25 17  1  0
 26 25  1  0
 27 25  2  0
M  END
$$$$
