PMF.pdb
     RDKit          3D

 27 28  0  0  1  0  0  0  0  0999 V2000
   29.1316  -35.1527   -6.1979 N   0  0  0  0  0  0  0  0  0  0  0  0
   28.7184  -35.0449   -7.5897 C   0  0  0  0  0  0  0  0  0  0  0  0
   27.3142  -35.5964   -7.6752 C   0  0  0  0  0  0  0  0  0  0  0  0
   26.9797  -35.9435   -6.2175 C   0  0  0  0  0  0  0  0  0  0  0  0
   27.8965  -34.9730   -5.5020 C   0  0  1  0  0  0  0  0  0  0  0  0
   28.0044  -35.2348   -4.0529 C   0  0  0  0  0  0  0  0  0  0  0  0
   26.9864  -35.2306   -3.3250 O   0  0  0  0  0  0  0  0  0  0  0  0
   33.9803  -36.3795   -1.8180 C   0  0  0  0  0  0  0  0  0  0  0  0
   33.0338  -37.9041   -2.0543 S   0  0  0  0  0  0  0  0  0  0  0  0
   31.3813  -37.4157   -2.7010 C   0  0  0  0  0  0  0  0  0  0  0  0
   30.8604  -36.3797   -1.7710 C   0  0  0  0  0  0  0  0  0  0  0  0
   29.4942  -35.8412   -2.0828 C   0  0  2  0  0  0  0  0  0  0  0  0
   29.2649  -35.4967   -3.4554 N   0  0  0  0  0  0  0  0  0  0  0  0
   29.0483  -34.8389   -1.0966 C   0  0  0  0  0  0  0  0  0  0  0  0
   29.7163  -33.7612   -1.0462 O   0  0  0  0  0  0  0  0  0  0  0  0
   27.9633  -34.9591   -0.2069 N   0  0  0  0  0  0  0  0  0  0  0  0
   27.5439  -33.8416    0.6562 C   0  0  1  0  0  0  0  0  0  0  0  0
   26.0850  -33.6213    0.3731 C   0  0  0  0  0  0  0  0  0  0  0  0
   25.8236  -32.8325   -0.8357 C   0  0  0  0  0  0  0  0  0  0  0  0
   25.7040  -33.3414   -2.1070 C   0  0  0  0  0  0  0  0  0  0  0  0
   25.4447  -32.5180   -3.2055 C   0  0  0  0  0  0  0  0  0  0  0  0
   25.3049  -31.1711   -3.0241 C   0  0  0  0  0  0  0  0  0  0  0  0
   25.4237  -30.6565   -1.7573 C   0  0  0  0  0  0  0  0  0  0  0  0
   25.6789  -31.4557   -0.6649 C   0  0  0  0  0  0  0  0  0  0  0  0
   27.7126  -34.2414    2.0697 C   0  0  0  0  0  0  0  0  0  0  0  0
   28.0886  -35.5247    2.4392 O   0  0  0  0  0  0  0  0  0  0  0  0
   27.5071  -33.3861    2.9643 O   0  0  0  0  0  0  0  0  0  0  0  0
  1  5  1  0
  1  2  1  0
  2  3  1  0
  4  3  1  0
  5  4  1  0
  5  6  1  1
  7  6  2  0
  8  9  1  0
 10  9  1  0
 11 10  1  0
 12 11  1  6
 12 13  1  0
 13  6  1  0
 14 12  1  0
 14 15  2  0
 16 14  1  0
 17 16  1  0
 17 18  1  1
 19 20  2  0
 19 18  1  0
 21 20  1  0
 22 21  2  0
 23 22  1  0
 23 24  2  0
 24 19  1  0
 25 17  1  0
 26 25  1  0
 27 25  2  0
M  END
$$$$
