PMF.pdb
     RDKit          3D

 27 28  0  0  1  0  0  0  0  0999 V2000
   27.8221  -19.6584  -15.4772 N   0  0  0  0  0  0  0  0  0  0  0  0
   28.7929  -19.5098  -16.5519 C   0  0  0  0  0  0  0  0  0  0  0  0
   29.6260  -20.7704  -16.5689 C   0  0  0  0  0  0  0  0  0  0  0  0
   28.9868  -21.6331  -15.4714 C   0  0  0  0  0  0  0  0  0  0  0  0
   27.5819  -21.0671  -15.4805 C   0  0  1  0  0  0  0  0  0  0  0  0
   26.7651  -21.5183  -14.3363 C   0  0  0  0  0  0  0  0  0  0  0  0
   26.0591  -22.5481  -14.4216 O   0  0  0  0  0  0  0  0  0  0  0  0
   27.4572  -20.9834   -7.5265 C   0  0  0  0  0  0  0  0  0  0  0  0
   26.1460  -19.8754   -8.1002 S   0  0  0  0  0  0  0  0  0  0  0  0
   25.3670  -20.6770   -9.5625 C   0  0  0  0  0  0  0  0  0  0  0  0
   26.3055  -20.4736  -10.6972 C   0  0  0  0  0  0  0  0  0  0  0  0
   25.8325  -20.9556  -12.0380 C   0  0  2  0  0  0  0  0  0  0  0  0
   26.7636  -20.7936  -13.1159 N   0  0  0  0  0  0  0  0  0  0  0  0
   24.4491  -20.5342  -12.3290 C   0  0  0  0  0  0  0  0  0  0  0  0
   24.2470  -19.2846  -12.4175 O   0  0  0  0  0  0  0  0  0  0  0  0
   23.3348  -21.3753  -12.5137 N   0  0  0  0  0  0  0  0  0  0  0  0
   22.0181  -20.8403  -12.9005 C   0  0  1  0  0  0  0  0  0  0  0  0
   21.6835  -21.4720  -14.2219 C   0  0  0  0  0  0  0  0  0  0  0  0
   20.3583  -21.1118  -14.7376 C   0  0  0  0  0  0  0  0  0  0  0  0
   19.2405  -21.9100  -14.6848 C   0  0  0  0  0  0  0  0  0  0  0  0
   18.0106  -21.4848  -15.1932 C   0  0  0  0  0  0  0  0  0  0  0  0
   17.9040  -20.2462  -15.7601 C   0  0  0  0  0  0  0  0  0  0  0  0
   19.0165  -19.4444  -15.8163 C   0  0  0  0  0  0  0  0  0  0  0  0
   20.2354  -19.8499  -15.3191 C   0  0  0  0  0  0  0  0  0  0  0  0
   21.0194  -21.2568  -11.8928 C   0  0  0  0  0  0  0  0  0  0  0  0
   20.9875  -22.5390  -11.3640 O   0  0  0  0  0  0  0  0  0  0  0  0
   20.1718  -20.4171  -11.5047 O   0  0  0  0  0  0  0  0  0  0  0  0
  1  5  1  0
  1  2  1  0
  2  3  1  0
  4  3  1  0
  5  4  1  0
  5  6  1  1
  7  6  2  0
  8  9  1  0
 10  9  1  0
 11 10  1  0
 12 11  1  1
 12 13  1  0
 13  6  1  0
 14 12  1  0
 14 15  2  0
 16 14  1  0
 17 16  1  0
 17 18  1  6
 19 20  2  0
 19 18  1  0
 21 20  1  0
 22 21  2  0
 23 22  1  0
 23 24  2  0
 24 19  1  0
 25 17  1  0
 26 25  1  0
 27 25  2  0
M  END
$$$$
