PMF.pdb
     RDKit          3D

 27 28  0  0  1  0  0  0  0  0999 V2000
   27.3152  -21.5324  -15.2516 N   0  0  0  0  0  0  0  0  0  0  0  0
   27.7606  -21.6237  -16.6346 C   0  0  0  0  0  0  0  0  0  0  0  0
   27.5170  -20.2721  -17.2649 C   0  0  0  0  0  0  0  0  0  0  0  0
   26.9732  -19.4307  -16.1014 C   0  0  0  0  0  0  0  0  0  0  0  0
   27.5960  -20.1677  -14.9339 C   0  0  1  0  0  0  0  0  0  0  0  0
   27.0505  -19.7532  -13.6260 C   0  0  0  0  0  0  0  0  0  0  0  0
   27.1334  -18.5634  -13.2469 O   0  0  0  0  0  0  0  0  0  0  0  0
   20.3115  -20.5702  -10.0733 C   0  0  0  0  0  0  0  0  0  0  0  0
   21.4760  -20.9533  -11.4049 S   0  0  0  0  0  0  0  0  0  0  0  0
   23.1375  -20.3960  -10.8425 C   0  0  0  0  0  0  0  0  0  0  0  0
   24.0865  -20.7562  -11.9284 C   0  0  0  0  0  0  0  0  0  0  0  0
   25.5242  -20.3925  -11.6946 C   0  0  2  0  0  0  0  0  0  0  0  0
   26.4205  -20.6954  -12.7716 N   0  0  0  0  0  0  0  0  0  0  0  0
   25.9915  -20.7889  -10.3528 C   0  0  0  0  0  0  0  0  0  0  0  0
   26.0939  -22.0351  -10.1365 O   0  0  0  0  0  0  0  0  0  0  0  0
   26.3301  -19.9273   -9.2914 N   0  0  0  0  0  0  0  0  0  0  0  0
   26.8926  -20.4388   -8.0299 C   0  0  1  0  0  0  0  0  0  0  0  0
   27.7186  -19.3214   -7.4587 C   0  0  0  0  0  0  0  0  0  0  0  0
   28.3168  -19.6272   -6.1547 C   0  0  0  0  0  0  0  0  0  0  0  0
   29.2740  -20.5864   -5.9241 C   0  0  0  0  0  0  0  0  0  0  0  0
   29.7987  -20.8075   -4.6483 C   0  0  0  0  0  0  0  0  0  0  0  0
   29.3566  -20.0579   -3.5951 C   0  0  0  0  0  0  0  0  0  0  0  0
   28.4006  -19.0989   -3.8184 C   0  0  0  0  0  0  0  0  0  0  0  0
   27.8743  -18.8694   -5.0705 C   0  0  0  0  0  0  0  0  0  0  0  0
   25.7824  -20.7488   -7.1037 C   0  0  0  0  0  0  0  0  0  0  0  0
   25.9544  -21.5369   -5.9750 O   0  0  0  0  0  0  0  0  0  0  0  0
   24.6452  -20.2801   -7.3512 O   0  0  0  0  0  0  0  0  0  0  0  0
  1  5  1  0
  1  2  1  0
  2  3  1  0
  4  3  1  0
  5  4  1  0
  5  6  1  1
  7  6  2  0
  8  9  1  0
 10  9  1  0
 11 10  1  0
 12 11  1  6
 12 13  1  0
 13  6  1  0
 14 12  1  0
 14 15  2  0
 16 14  1  0
 17 16  1  0
 17 18  1  1
 19 20  2  0
 19 18  1  0
 21 20  1  0
 22 21  2  0
 23 22  1  0
 23 24  2  0
 24 19  1  0
 25 17  1  0
 26 25  1  0
 27 25  2  0
M  END
$$$$
