PMF.pdb
     RDKit          3D

 27 28  0  0  1  0  0  0  0  0999 V2000
   27.0648  -20.5458  -15.6421 N   0  0  0  0  0  0  0  0  0  0  0  0
   27.7232  -20.3227  -16.9213 C   0  0  0  0  0  0  0  0  0  0  0  0
   28.4746  -19.0167  -16.8069 C   0  0  0  0  0  0  0  0  0  0  0  0
   28.2274  -18.5912  -15.3525 C   0  0  0  0  0  0  0  0  0  0  0  0
   27.9805  -19.9465  -14.7231 C   0  0  1  0  0  0  0  0  0  0  0  0
   27.4494  -19.8618  -13.3481 C   0  0  0  0  0  0  0  0  0  0  0  0
   28.0871  -19.2644  -12.4522 O   0  0  0  0  0  0  0  0  0  0  0  0
   21.3807  -21.5510  -11.7346 C   0  0  0  0  0  0  0  0  0  0  0  0
   21.5001  -20.0975  -12.8066 S   0  0  0  0  0  0  0  0  0  0  0  0
   23.2887  -19.6947  -12.9682 C   0  0  0  0  0  0  0  0  0  0  0  0
   23.9853  -20.4603  -11.9013 C   0  0  0  0  0  0  0  0  0  0  0  0
   25.4685  -20.2503  -11.8010 C   0  0  2  0  0  0  0  0  0  0  0  0
   26.2045  -20.4562  -13.0137 N   0  0  0  0  0  0  0  0  0  0  0  0
   26.0436  -20.8807  -10.5977 C   0  0  0  0  0  0  0  0  0  0  0  0
   26.2523  -22.1308  -10.6609 O   0  0  0  0  0  0  0  0  0  0  0  0
   26.3790  -20.2383   -9.3902 N   0  0  0  0  0  0  0  0  0  0  0  0
   26.8956  -20.9887   -8.2329 C   0  0  1  0  0  0  0  0  0  0  0  0
   28.2042  -20.3460   -7.8700 C   0  0  0  0  0  0  0  0  0  0  0  0
   28.3140  -19.9719   -6.4558 C   0  0  0  0  0  0  0  0  0  0  0  0
   27.8124  -18.8209   -5.8964 C   0  0  0  0  0  0  0  0  0  0  0  0
   27.9535  -18.5453   -4.5340 C   0  0  0  0  0  0  0  0  0  0  0  0
   28.6052  -19.4348   -3.7273 C   0  0  0  0  0  0  0  0  0  0  0  0
   29.1088  -20.5858   -4.2797 C   0  0  0  0  0  0  0  0  0  0  0  0
   28.9772  -20.8711   -5.6208 C   0  0  0  0  0  0  0  0  0  0  0  0
   25.9491  -20.8398   -7.1067 C   0  0  0  0  0  0  0  0  0  0  0  0
   25.9720  -21.6774   -6.0010 O   0  0  0  0  0  0  0  0  0  0  0  0
   25.0958  -19.9213   -7.1570 O   0  0  0  0  0  0  0  0  0  0  0  0
  1  5  1  0
  1  2  1  0
  2  3  1  0
  4  3  1  0
  5  4  1  0
  5  6  1  1
  7  6  2  0
  8  9  1  0
 10  9  1  0
 11 10  1  0
 12 11  1  6
 12 13  1  0
 13  6  1  0
 14 12  1  0
 14 15  2  0
 16 14  1  0
 17 16  1  0
 17 18  1  1
 19 20  2  0
 19 18  1  0
 21 20  1  0
 22 21  2  0
 23 22  1  0
 23 24  2  0
 24 19  1  0
 25 17  1  0
 26 25  1  0
 27 25  2  0
M  END
$$$$
