PMF.pdb
     RDKit          3D

 27 28  0  0  1  0  0  0  0  0999 V2000
   25.0208  -23.2503  -17.4537 N   0  0  0  0  0  0  0  0  0  0  0  0
   24.8284  -24.1193  -18.6059 C   0  0  0  0  0  0  0  0  0  0  0  0
   26.1758  -24.2688  -19.2734 C   0  0  0  0  0  0  0  0  0  0  0  0
   27.1163  -23.4735  -18.3567 C   0  0  0  0  0  0  0  0  0  0  0  0
   26.3536  -23.5731  -17.0518 C   0  0  1  0  0  0  0  0  0  0  0  0
   26.8758  -22.6755  -16.0023 C   0  0  0  0  0  0  0  0  0  0  0  0
   27.9812  -22.9007  -15.4604 O   0  0  0  0  0  0  0  0  0  0  0  0
   27.1707  -16.6798  -16.7372 C   0  0  0  0  0  0  0  0  0  0  0  0
   26.6652  -16.4617  -15.0130 S   0  0  0  0  0  0  0  0  0  0  0  0
   26.9186  -18.0782  -14.1703 C   0  0  0  0  0  0  0  0  0  0  0  0
   26.4450  -19.1202  -15.1187 C   0  0  0  0  0  0  0  0  0  0  0  0
   26.5704  -20.5417  -14.6524 C   0  0  2  0  0  0  0  0  0  0  0  0
   26.1350  -21.5385  -15.5862 N   0  0  0  0  0  0  0  0  0  0  0  0
   26.0937  -20.7214  -13.2680 C   0  0  0  0  0  0  0  0  0  0  0  0
   24.8489  -20.9191  -13.1212 O   0  0  0  0  0  0  0  0  0  0  0  0
   26.8772  -20.6920  -12.0981 N   0  0  0  0  0  0  0  0  0  0  0  0
   26.2714  -20.7929  -10.7593 C   0  0  1  0  0  0  0  0  0  0  0  0
   27.3539  -20.4279   -9.7836 C   0  0  0  0  0  0  0  0  0  0  0  0
   26.8846  -20.2685   -8.4029 C   0  0  0  0  0  0  0  0  0  0  0  0
   26.2065  -21.2198   -7.6786 C   0  0  0  0  0  0  0  0  0  0  0  0
   25.8023  -20.9889   -6.3613 C   0  0  0  0  0  0  0  0  0  0  0  0
   26.0819  -19.7906   -5.7675 C   0  0  0  0  0  0  0  0  0  0  0  0
   26.7582  -18.8363   -6.4854 C   0  0  0  0  0  0  0  0  0  0  0  0
   27.1633  -19.0497   -7.7845 C   0  0  0  0  0  0  0  0  0  0  0  0
   25.1710  -19.8104  -10.6585 C   0  0  0  0  0  0  0  0  0  0  0  0
   24.0277  -20.0495   -9.9096 O   0  0  0  0  0  0  0  0  0  0  0  0
   25.2790  -18.7225  -11.2739 O   0  0  0  0  0  0  0  0  0  0  0  0
  1  5  1  0
  1  2  1  0
  2  3  1  0
  4  3  1  0
  5  4  1  0
  5  6  1  1
  7  6  2  0
  8  9  1  0
 10  9  1  0
 11 10  1  0
 12 11  1  6
 12 13  1  0
 13  6  1  0
 14 12  1  0
 14 15  2  0
 16 14  1  0
 17 16  1  0
 17 18  1  1
 19 20  2  0
 19 18  1  0
 21 20  1  0
 22 21  2  0
 23 22  1  0
 23 24  2  0
 24 19  1  0
 25 17  1  0
 26 25  1  0
 27 25  2  0
M  END
$$$$
