PMF.pdb
     RDKit          3D

 27 28  0  0  1  0  0  0  0  0999 V2000
   27.5233  -22.5474  -16.6971 N   0  0  0  0  0  0  0  0  0  0  0  0
   28.9408  -22.7122  -16.9858 C   0  0  0  0  0  0  0  0  0  0  0  0
   29.4490  -21.3742  -17.4705 C   0  0  0  0  0  0  0  0  0  0  0  0
   28.2180  -20.4639  -17.3551 C   0  0  0  0  0  0  0  0  0  0  0  0
   27.4605  -21.1878  -16.2613 C   0  0  1  0  0  0  0  0  0  0  0  0
   26.0784  -20.6981  -16.0882 C   0  0  0  0  0  0  0  0  0  0  0  0
   25.8583  -19.5498  -15.6419 O   0  0  0  0  0  0  0  0  0  0  0  0
   21.5829  -22.3566  -20.0803 C   0  0  0  0  0  0  0  0  0  0  0  0
   20.4126  -22.0933  -18.7249 S   0  0  0  0  0  0  0  0  0  0  0  0
   21.3050  -21.1500  -17.4204 C   0  0  0  0  0  0  0  0  0  0  0  0
   22.7042  -21.6516  -17.4282 C   0  0  0  0  0  0  0  0  0  0  0  0
   23.5876  -21.1573  -16.3196 C   0  0  2  0  0  0  0  0  0  0  0  0
   24.9707  -21.5195  -16.4243 N   0  0  0  0  0  0  0  0  0  0  0  0
   22.9813  -21.3551  -14.9894 C   0  0  0  0  0  0  0  0  0  0  0  0
   23.0627  -22.5233  -14.5005 O   0  0  0  0  0  0  0  0  0  0  0  0
   22.3209  -20.3833  -14.2131 N   0  0  0  0  0  0  0  0  0  0  0  0
   21.9264  -20.6453  -12.8184 C   0  0  1  0  0  0  0  0  0  0  0  0
   22.5456  -19.5500  -11.9974 C   0  0  0  0  0  0  0  0  0  0  0  0
   23.7337  -19.9667  -11.2446 C   0  0  0  0  0  0  0  0  0  0  0  0
   23.7663  -20.2408   -9.8981 C   0  0  0  0  0  0  0  0  0  0  0  0
   24.9423  -20.6418   -9.2592 C   0  0  0  0  0  0  0  0  0  0  0  0
   26.0957  -20.7678   -9.9807 C   0  0  0  0  0  0  0  0  0  0  0  0
   26.0700  -20.4952  -11.3256 C   0  0  0  0  0  0  0  0  0  0  0  0
   24.9183  -20.0992  -11.9690 C   0  0  0  0  0  0  0  0  0  0  0  0
   20.4538  -20.5604  -12.7153 C   0  0  0  0  0  0  0  0  0  0  0  0
   19.6657  -20.0488  -13.7361 O   0  0  0  0  0  0  0  0  0  0  0  0
   19.9009  -20.9669  -11.6650 O   0  0  0  0  0  0  0  0  0  0  0  0
  1  5  1  0
  1  2  1  0
  2  3  1  0
  4  3  1  0
  5  4  1  0
  5  6  1  6
  7  6  2  0
  8  9  1  0
 10  9  1  0
 11 10  1  0
 12 11  1  6
 12 13  1  0
 13  6  1  0
 14 12  1  0
 14 15  2  0
 16 14  1  0
 17 16  1  0
 17 18  1  1
 19 20  2  0
 19 18  1  0
 21 20  1  0
 22 21  2  0
 23 22  1  0
 23 24  2  0
 24 19  1  0
 25 17  1  0
 26 25  1  0
 27 25  2  0
M  END
$$$$
