PNI.pdb
     RDKit          3D

 24 24  0  0  1  0  0  0  0  0999 V2000
   27.8427  -16.9466  -18.4507 N   0  0  0  0  0  0  0  0  0  0  0  0
   29.2845  -17.2138  -18.6312 C   0  0  0  0  0  0  0  0  0  0  0  0
   29.5865  -17.8355  -17.2699 C   0  0  0  0  0  0  0  0  0  0  0  0
   28.4352  -18.8400  -17.1586 C   0  0  0  0  0  0  0  0  0  0  0  0
   27.3474  -18.2168  -17.9611 C   0  0  1  0  0  0  0  0  0  0  0  0
   26.0509  -18.1169  -17.2525 C   0  0  0  0  0  0  0  0  0  0  0  0
   25.2624  -17.2089  -17.6189 O   0  0  0  0  0  0  0  0  0  0  0  0
   21.8967  -18.5110  -14.4455 N   0  0  0  0  0  0  0  0  0  0  0  0
   21.9553  -18.7455  -15.8346 C   0  0  0  0  0  0  0  0  0  0  0  0
   20.8920  -18.7761  -16.4879 O   0  0  0  0  0  0  0  0  0  0  0  0
   23.2502  -18.9483  -16.4938 C   0  0  0  0  0  0  0  0  0  0  0  0
   24.4436  -18.9324  -15.5751 C   0  0  2  0  0  0  0  0  0  0  0  0
   25.7092  -19.0075  -16.2018 N   0  0  0  0  0  0  0  0  0  0  0  0
   24.2133  -19.9020  -14.4878 C   0  0  0  0  0  0  0  0  0  0  0  0
   24.0801  -21.1111  -14.8138 O   0  0  0  0  0  0  0  0  0  0  0  0
   26.8467  -21.3928  -11.4840 C   0  0  0  0  0  0  0  0  0  0  0  0
   26.2353  -20.0824  -10.9675 C   0  0  0  0  0  0  0  0  0  0  0  0
   24.7468  -20.3012  -10.8134 C   0  0  2  0  0  0  0  0  0  0  0  0
   24.4962  -21.4569   -9.8302 C   0  0  0  0  0  0  0  0  0  0  0  0
   24.0319  -20.6100  -12.0659 C   0  0  2  0  0  0  0  0  0  0  0  0
   24.1229  -19.6003  -13.1074 N   0  0  0  0  0  0  0  0  0  0  0  0
   22.5697  -20.8138  -11.7279 C   0  0  0  0  0  0  0  0  0  0  0  0
   21.8487  -19.8154  -11.5534 O   0  0  0  0  0  0  0  0  0  0  0  0
   22.0403  -22.0813  -11.6141 O   0  0  0  0  0  0  0  0  0  0  0  0
  1  2  1  0
  2  3  1  0
  4  3  1  0
  5  4  1  0
  5  1  1  0
  6  7  2  0
  5  6  1  1
  9 10  2  0
  9  8  1  0
 11  9  1  0
 12 11  1  6
 12 13  1  0
 13  6  1  0
 14 12  1  0
 15 14  2  0
 17 16  1  0
 18 17  1  0
 18 20  1  0
 18 19  1  1
 20 21  1  6
 21 14  1  0
 22 20  1  0
 22 24  1  0
 23 22  2  0
M  END
$$$$
