PNI.pdb
     RDKit          3D

 24 24  0  0  1  0  0  0  0  0999 V2000
   27.7127  -16.9555  -18.5521 N   0  0  0  0  0  0  0  0  0  0  0  0
   28.9941  -17.4134  -19.1274 C   0  0  0  0  0  0  0  0  0  0  0  0
   29.5334  -18.1886  -17.9278 C   0  0  0  0  0  0  0  0  0  0  0  0
   28.3022  -19.0202  -17.5546 C   0  0  0  0  0  0  0  0  0  0  0  0
   27.1605  -18.1777  -18.0044 C   0  0  1  0  0  0  0  0  0  0  0  0
   26.1272  -17.9518  -16.9680 C   0  0  0  0  0  0  0  0  0  0  0  0
   26.2757  -16.9576  -16.2131 O   0  0  0  0  0  0  0  0  0  0  0  0
   22.6549  -15.6309  -16.6973 N   0  0  0  0  0  0  0  0  0  0  0  0
   22.7442  -16.9305  -17.2369 C   0  0  0  0  0  0  0  0  0  0  0  0
   22.8689  -17.0651  -18.4717 O   0  0  0  0  0  0  0  0  0  0  0  0
   22.6917  -18.1006  -16.3534 C   0  0  0  0  0  0  0  0  0  0  0  0
   24.0269  -18.5771  -15.8453 C   0  0  2  0  0  0  0  0  0  0  0  0
   25.0135  -18.8204  -16.8291 N   0  0  0  0  0  0  0  0  0  0  0  0
   23.8010  -19.6743  -14.8858 C   0  0  0  0  0  0  0  0  0  0  0  0
   23.6595  -20.8326  -15.3593 O   0  0  0  0  0  0  0  0  0  0  0  0
   26.3144  -20.5580   -9.9935 C   0  0  0  0  0  0  0  0  0  0  0  0
   25.7236  -20.7901  -11.3916 C   0  0  0  0  0  0  0  0  0  0  0  0
   24.2261  -20.6031  -11.2926 C   0  0  2  0  0  0  0  0  0  0  0  0
   23.6340  -21.6781  -10.3658 C   0  0  0  0  0  0  0  0  0  0  0  0
   23.5062  -20.6680  -12.5781 C   0  0  2  0  0  0  0  0  0  0  0  0
   23.7231  -19.5472  -13.4778 N   0  0  0  0  0  0  0  0  0  0  0  0
   22.0245  -20.7556  -12.2767 C   0  0  0  0  0  0  0  0  0  0  0  0
   21.3717  -19.7031  -12.1613 O   0  0  0  0  0  0  0  0  0  0  0  0
   21.4036  -21.9775  -12.1314 O   0  0  0  0  0  0  0  0  0  0  0  0
  1  2  1  0
  2  3  1  0
  4  3  1  0
  5  4  1  0
  5  1  1  0
  6  7  2  0
  5  6  1  1
  9 10  2  0
  9  8  1  0
 11  9  1  0
 12 11  1  6
 12 13  1  0
 13  6  1  0
 14 12  1  0
 15 14  2  0
 17 16  1  0
 18 17  1  0
 18 20  1  0
 18 19  1  1
 20 21  1  6
 21 14  1  0
 22 20  1  0
 22 24  1  0
 23 22  2  0
M  END
$$$$
