PNI.pdb
     RDKit          3D

 24 24  0  0  1  0  0  0  0  0999 V2000
   27.8612  -19.6741  -15.6826 N   0  0  0  0  0  0  0  0  0  0  0  0
   28.6594  -19.1001  -16.7855 C   0  0  0  0  0  0  0  0  0  0  0  0
   27.6805  -18.0282  -17.2586 C   0  0  0  0  0  0  0  0  0  0  0  0
   27.2989  -17.3866  -15.9208 C   0  0  0  0  0  0  0  0  0  0  0  0
   27.4578  -18.4965  -14.9417 C   0  0  1  0  0  0  0  0  0  0  0  0
   26.2778  -18.7144  -14.0740 C   0  0  0  0  0  0  0  0  0  0  0  0
   25.8464  -17.7256  -13.4287 O   0  0  0  0  0  0  0  0  0  0  0  0
   21.6831  -19.8658  -12.4831 N   0  0  0  0  0  0  0  0  0  0  0  0
   22.0951  -20.9957  -13.2192 C   0  0  0  0  0  0  0  0  0  0  0  0
   21.3339  -21.9828  -13.2880 O   0  0  0  0  0  0  0  0  0  0  0  0
   23.3991  -21.0021  -13.8913 C   0  0  0  0  0  0  0  0  0  0  0  0
   24.4556  -20.1466  -13.2429 C   0  0  2  0  0  0  0  0  0  0  0  0
   25.6568  -19.9865  -13.9720 N   0  0  0  0  0  0  0  0  0  0  0  0
   24.6145  -20.5770  -11.8412 C   0  0  0  0  0  0  0  0  0  0  0  0
   23.5668  -20.8705  -11.2071 O   0  0  0  0  0  0  0  0  0  0  0  0
   28.1849  -19.9499   -6.8592 C   0  0  0  0  0  0  0  0  0  0  0  0
   27.0469  -20.7581   -7.4990 C   0  0  0  0  0  0  0  0  0  0  0  0
   26.9344  -20.3257   -8.9438 C   0  0  2  0  0  0  0  0  0  0  0  0
   26.5817  -18.8300   -9.0068 C   0  0  0  0  0  0  0  0  0  0  0  0
   25.9302  -21.0607   -9.7352 C   0  0  2  0  0  0  0  0  0  0  0  0
   25.8379  -20.6874  -11.1369 N   0  0  0  0  0  0  0  0  0  0  0  0
   24.5770  -20.8351   -9.0933 C   0  0  0  0  0  0  0  0  0  0  0  0
   23.7720  -20.0632   -9.6440 O   0  0  0  0  0  0  0  0  0  0  0  0
   24.2369  -21.4711   -7.9187 O   0  0  0  0  0  0  0  0  0  0  0  0
  1  2  1  0
  2  3  1  0
  4  3  1  0
  5  4  1  0
  5  1  1  0
  6  7  2  0
  5  6  1  6
  9 10  2  0
  9  8  1  0
 11  9  1  0
 12 11  1  6
 12 13  1  0
 13  6  1  0
 14 12  1  0
 15 14  2  0
 17 16  1  0
 18 17  1  0
 18 20  1  0
 18 19  1  1
 20 21  1  6
 21 14  1  0
 22 20  1  0
 22 24  1  0
 23 22  2  0
M  END
$$$$
