PNI.pdb
     RDKit          3D

 24 24  0  0  1  0  0  0  0  0999 V2000
   21.6735  -12.6867  -17.9556 N   0  0  0  0  0  0  0  0  0  0  0  0
   21.6823  -13.7034  -19.0275 C   0  0  0  0  0  0  0  0  0  0  0  0
   20.3414  -13.3767  -19.6803 C   0  0  0  0  0  0  0  0  0  0  0  0
   20.4543  -11.8542  -19.8066 C   0  0  0  0  0  0  0  0  0  0  0  0
   21.3455  -11.4738  -18.6767 C   0  0  1  0  0  0  0  0  0  0  0  0
   20.8076  -10.3962  -17.8152 C   0  0  0  0  0  0  0  0  0  0  0  0
   20.5676   -9.2888  -18.3596 O   0  0  0  0  0  0  0  0  0  0  0  0
   17.3927  -10.3604  -16.1955 N   0  0  0  0  0  0  0  0  0  0  0  0
   17.8206  -10.4492  -14.8550 C   0  0  0  0  0  0  0  0  0  0  0  0
   17.0375  -10.9118  -13.9998 O   0  0  0  0  0  0  0  0  0  0  0  0
   19.1672  -10.0037  -14.4801 C   0  0  0  0  0  0  0  0  0  0  0  0
   20.0375   -9.5661  -15.6288 C   0  0  2  0  0  0  0  0  0  0  0  0
   20.5719  -10.6012  -16.4308 N   0  0  0  0  0  0  0  0  0  0  0  0
   21.0136   -8.5791  -15.1302 C   0  0  0  0  0  0  0  0  0  0  0  0
   22.0707   -9.0264  -14.6122 O   0  0  0  0  0  0  0  0  0  0  0  0
   23.3546   -3.1112  -16.4862 C   0  0  0  0  0  0  0  0  0  0  0  0
   23.2240   -4.1494  -15.3625 C   0  0  0  0  0  0  0  0  0  0  0  0
   22.1666   -5.1464  -15.7810 C   0  0  2  0  0  0  0  0  0  0  0  0
   20.8301   -4.4174  -15.9983 C   0  0  0  0  0  0  0  0  0  0  0  0
   21.9332   -6.2426  -14.8223 C   0  0  2  0  0  0  0  0  0  0  0  0
   20.8719   -7.1711  -15.1748 N   0  0  0  0  0  0  0  0  0  0  0  0
   21.5969   -5.6233  -13.4816 C   0  0  0  0  0  0  0  0  0  0  0  0
   20.4240   -5.6790  -13.0714 O   0  0  0  0  0  0  0  0  0  0  0  0
   22.5693   -5.0068  -12.7238 O   0  0  0  0  0  0  0  0  0  0  0  0
  1  2  1  0
  2  3  1  0
  4  3  1  0
  5  4  1  0
  5  1  1  0
  6  7  2  0
  5  6  1  1
  9 10  2  0
  9  8  1  0
 11  9  1  0
 12 11  1  1
 12 13  1  0
 13  6  1  0
 14 12  1  0
 15 14  2  0
 17 16  1  0
 18 17  1  0
 18 20  1  0
 18 19  1  1
 20 21  1  6
 21 14  1  0
 22 20  1  0
 22 24  1  0
 23 22  2  0
M  END
$$$$
