PNI.pdb
     RDKit          3D

 24 24  0  0  1  0  0  0  0  0999 V2000
   16.6114  -12.4630  -15.3932 N   0  0  0  0  0  0  0  0  0  0  0  0
   16.0016  -13.7249  -15.8606 C   0  0  0  0  0  0  0  0  0  0  0  0
   15.4426  -13.2419  -17.1967 C   0  0  0  0  0  0  0  0  0  0  0  0
   16.6608  -12.5033  -17.7600 C   0  0  0  0  0  0  0  0  0  0  0  0
   17.3857  -12.0441  -16.5437 C   0  0  1  0  0  0  0  0  0  0  0  0
   17.7186  -10.6012  -16.5437 C   0  0  0  0  0  0  0  0  0  0  0  0
   18.5328  -10.1975  -17.4122 O   0  0  0  0  0  0  0  0  0  0  0  0
   14.9596   -6.1067  -16.9257 N   0  0  0  0  0  0  0  0  0  0  0  0
   15.2969   -7.3277  -16.3065 C   0  0  0  0  0  0  0  0  0  0  0  0
   14.6727   -8.3604  -16.6263 O   0  0  0  0  0  0  0  0  0  0  0  0
   16.3669   -7.3747  -15.3038 C   0  0  0  0  0  0  0  0  0  0  0  0
   17.4861   -8.3350  -15.6093 C   0  0  2  0  0  0  0  0  0  0  0  0
   17.1443   -9.7074  -15.6027 N   0  0  0  0  0  0  0  0  0  0  0  0
   18.6579   -7.9671  -14.7926 C   0  0  0  0  0  0  0  0  0  0  0  0
   18.6070   -8.2302  -13.5621 O   0  0  0  0  0  0  0  0  0  0  0  0
   23.2684  -10.1018  -14.5984 C   0  0  0  0  0  0  0  0  0  0  0  0
   21.9569   -9.3639  -14.2932 C   0  0  0  0  0  0  0  0  0  0  0  0
   22.1652   -7.9034  -14.6260 C   0  0  2  0  0  0  0  0  0  0  0  0
   23.3129   -7.3401  -13.7712 C   0  0  0  0  0  0  0  0  0  0  0  0
   20.9838   -7.0451  -14.4190 C   0  0  2  0  0  0  0  0  0  0  0  0
   19.8370   -7.3395  -15.2621 N   0  0  0  0  0  0  0  0  0  0  0  0
   21.4021   -5.6111  -14.6694 C   0  0  0  0  0  0  0  0  0  0  0  0
   21.1839   -5.1080  -15.7858 O   0  0  0  0  0  0  0  0  0  0  0  0
   22.0146   -4.8705  -13.6814 O   0  0  0  0  0  0  0  0  0  0  0  0
  1  2  1  0
  2  3  1  0
  4  3  1  0
  5  4  1  0
  5  1  1  0
  6  7  2  0
  5  6  1  6
  9 10  2  0
  9  8  1  0
 11  9  1  0
 12 11  1  1
 12 13  1  0
 13  6  1  0
 14 12  1  0
 15 14  2  0
 17 16  1  0
 18 17  1  0
 18 20  1  0
 18 19  1  1
 20 21  1  6
 21 14  1  0
 22 20  1  0
 22 24  1  0
 23 22  2  0
M  END
$$$$
