PNI.pdb
     RDKit          3D

 24 24  0  0  1  0  0  0  0  0999 V2000
   27.9931  -19.7503  -16.2241 N   0  0  0  0  0  0  0  0  0  0  0  0
   28.4317  -19.2659  -17.5491 C   0  0  0  0  0  0  0  0  0  0  0  0
   27.3862  -18.1744  -17.7646 C   0  0  0  0  0  0  0  0  0  0  0  0
   27.4506  -17.4536  -16.4144 C   0  0  0  0  0  0  0  0  0  0  0  0
   27.8696  -18.5219  -15.4663 C   0  0  1  0  0  0  0  0  0  0  0  0
   27.0058  -18.6449  -14.2698 C   0  0  0  0  0  0  0  0  0  0  0  0
   26.8482  -17.6163  -13.5645 O   0  0  0  0  0  0  0  0  0  0  0  0
   22.1243  -19.3546  -12.2627 N   0  0  0  0  0  0  0  0  0  0  0  0
   22.9713  -20.4729  -12.4041 C   0  0  0  0  0  0  0  0  0  0  0  0
   22.8020  -21.4579  -11.6560 O   0  0  0  0  0  0  0  0  0  0  0  0
   24.0317  -20.4708  -13.4179 C   0  0  0  0  0  0  0  0  0  0  0  0
   25.3534  -19.9142  -12.9579 C   0  0  2  0  0  0  0  0  0  0  0  0
   26.3803  -19.8725  -13.9295 N   0  0  0  0  0  0  0  0  0  0  0  0
   25.7135  -20.5535  -11.6785 C   0  0  0  0  0  0  0  0  0  0  0  0
   26.4360  -21.5835  -11.7333 O   0  0  0  0  0  0  0  0  0  0  0  0
   27.9216  -18.1931   -7.4548 C   0  0  0  0  0  0  0  0  0  0  0  0
   27.5891  -19.2343   -8.5333 C   0  0  0  0  0  0  0  0  0  0  0  0
   26.3057  -19.9224   -8.1250 C   0  0  2  0  0  0  0  0  0  0  0  0
   26.5594  -20.7850   -6.8774 C   0  0  0  0  0  0  0  0  0  0  0  0
   25.7093  -20.7879   -9.1596 C   0  0  2  0  0  0  0  0  0  0  0  0
   25.3185  -20.1199  -10.3898 N   0  0  0  0  0  0  0  0  0  0  0  0
   24.4810  -21.4444   -8.5643 C   0  0  0  0  0  0  0  0  0  0  0  0
   23.3717  -20.9074   -8.7328 O   0  0  0  0  0  0  0  0  0  0  0  0
   24.5834  -22.6168   -7.8470 O   0  0  0  0  0  0  0  0  0  0  0  0
  1  2  1  0
  2  3  1  0
  4  3  1  0
  5  4  1  0
  5  1  1  0
  6  7  2  0
  5  6  1  1
  9 10  2  0
  9  8  1  0
 11  9  1  0
 12 11  1  6
 12 13  1  0
 13  6  1  0
 14 12  1  0
 15 14  2  0
 17 16  1  0
 18 17  1  0
 18 20  1  0
 18 19  1  1
 20 21  1  6
 21 14  1  0
 22 20  1  0
 22 24  1  0
 23 22  2  0
M  END
$$$$
