PNI.pdb
     RDKit          3D

 24 24  0  0  1  0  0  0  0  0999 V2000
   27.2801  -18.7667  -16.9937 N   0  0  0  0  0  0  0  0  0  0  0  0
   28.4654  -18.1433  -17.6176 C   0  0  0  0  0  0  0  0  0  0  0  0
   28.7089  -17.0247  -16.6075 C   0  0  0  0  0  0  0  0  0  0  0  0
   28.6216  -17.8086  -15.2943 C   0  0  0  0  0  0  0  0  0  0  0  0
   27.7012  -18.9330  -15.6176 C   0  0  1  0  0  0  0  0  0  0  0  0
   26.5774  -19.0907  -14.6662 C   0  0  0  0  0  0  0  0  0  0  0  0
   25.4714  -18.5902  -14.9926 O   0  0  0  0  0  0  0  0  0  0  0  0
   22.6554  -20.1392  -11.7305 N   0  0  0  0  0  0  0  0  0  0  0  0
   23.3569  -21.1418  -12.4312 C   0  0  0  0  0  0  0  0  0  0  0  0
   23.0072  -22.3323  -12.2943 O   0  0  0  0  0  0  0  0  0  0  0  0
   24.4783  -20.7822  -13.3061 C   0  0  0  0  0  0  0  0  0  0  0  0
   25.6197  -20.0759  -12.6230 C   0  0  2  0  0  0  0  0  0  0  0  0
   26.7387  -19.7776  -13.4349 N   0  0  0  0  0  0  0  0  0  0  0  0
   25.9186  -20.7767  -11.3602 C   0  0  0  0  0  0  0  0  0  0  0  0
   26.4275  -21.9254  -11.4462 O   0  0  0  0  0  0  0  0  0  0  0  0
   28.5868  -19.9370   -6.0796 C   0  0  0  0  0  0  0  0  0  0  0  0
   27.5845  -20.8670   -6.7782 C   0  0  0  0  0  0  0  0  0  0  0  0
   27.0940  -20.1599   -8.0219 C   0  0  2  0  0  0  0  0  0  0  0  0
   26.4024  -18.8445   -7.6263 C   0  0  0  0  0  0  0  0  0  0  0  0
   26.1498  -20.9372   -8.8461 C   0  0  2  0  0  0  0  0  0  0  0  0
   25.6822  -20.2803  -10.0554 N   0  0  0  0  0  0  0  0  0  0  0  0
   24.9458  -21.2658   -7.9879 C   0  0  0  0  0  0  0  0  0  0  0  0
   23.8717  -20.6790   -8.2099 O   0  0  0  0  0  0  0  0  0  0  0  0
   25.0318  -22.1980   -6.9763 O   0  0  0  0  0  0  0  0  0  0  0  0
  1  2  1  0
  2  3  1  0
  4  3  1  0
  5  4  1  0
  5  1  1  0
  6  7  2  0
  5  6  1  1
  9 10  2  0
  9  8  1  0
 11  9  1  0
 12 11  1  6
 12 13  1  0
 13  6  1  0
 14 12  1  0
 15 14  2  0
 17 16  1  0
 18 17  1  0
 18 20  1  0
 18 19  1  1
 20 21  1  6
 21 14  1  0
 22 20  1  0
 22 24  1  0
 23 22  2  0
M  END
$$$$
