EPR.pdb
     RDKit          3D

 28 28  0  0  1  0  0  0  0  0999 V2000
   29.1657  -22.1913  -17.9986 N   0  0  0  0  0  0  0  0  0  0  0  0
   28.4460  -21.1291  -17.2726 C   0  0  1  0  0  0  0  0  0  0  0  0
   27.5108  -20.4820  -18.2998 C   0  0  0  0  0  0  0  0  0  0  0  0
   26.2388  -21.2619  -18.4335 C   0  0  0  0  0  0  0  0  0  0  0  0
   25.3088  -20.5245  -19.3178 C   0  0  0  0  0  0  0  0  0  0  0  0
   25.6120  -19.3749  -19.7153 O   0  0  0  0  0  0  0  0  0  0  0  0
   27.5707  -21.7081  -16.2313 C   0  0  0  0  0  0  0  0  0  0  0  0
   27.3903  -22.9737  -16.2816 O   0  0  0  0  0  0  0  0  0  0  0  0
   24.0918  -21.0637  -19.7329 O   0  0  0  0  0  0  0  0  0  0  0  0
   26.9632  -20.9319  -15.2348 N   0  0  0  0  0  0  0  0  0  0  0  0
   26.8186  -19.4958  -15.2596 C   0  0  0  0  0  0  0  0  0  0  0  0
   26.7433  -19.0898  -13.8066 C   0  0  0  0  0  0  0  0  0  0  0  0
   26.9354  -20.3881  -13.0153 C   0  0  0  0  0  0  0  0  0  0  0  0
   26.3541  -21.3910  -14.0231 C   0  0  1  0  0  0  0  0  0  0  0  0
   24.8712  -21.1660  -14.1472 C   0  0  0  0  0  0  0  0  0  0  0  0
   24.3866  -20.2249  -14.8345 O   0  0  0  0  0  0  0  0  0  0  0  0
   17.2772  -23.8987   -9.3687 N   0  0  0  0  0  0  0  0  0  0  0  0
   18.0155  -24.4107  -10.4616 C   0  0  0  0  0  0  0  0  0  0  0  0
   18.0034  -25.6933  -10.7279 N   0  0  0  0  0  0  0  0  0  0  0  0
   18.7829  -23.5877  -11.2994 N   0  0  0  0  0  0  0  0  0  0  0  0
   19.5493  -24.0599  -12.4231 C   0  0  0  0  0  0  0  0  0  0  0  0
   20.3003  -22.9708  -13.0914 C   0  0  0  0  0  0  0  0  0  0  0  0
   21.7584  -22.9285  -13.1166 C   0  0  0  0  0  0  0  0  0  0  0  0
   22.4561  -21.7673  -13.7063 C   0  0  2  0  0  0  0  0  0  0  0  0
   23.9397  -22.0032  -13.4957 N   0  0  0  0  0  0  0  0  0  0  0  0
   22.2603  -20.4870  -13.0132 C   0  0  0  0  0  0  0  0  0  0  0  0
   22.9784  -20.1124  -12.0888 O   0  0  0  0  0  0  0  0  0  0  0  0
   21.2207  -19.6087  -13.3814 O   0  0  0  0  0  0  0  0  0  0  0  0
  2  1  1  6
  2  7  1  0
  2  3  1  0
  3  4  1  0
  5  9  1  0
  5  4  1  0
  6  5  2  0
  7  8  2  0
 10  7  1  0
 10 11  1  0
 12 11  1  0
 13 14  1  0
 13 12  1  0
 14 10  1  0
 15 25  1  0
 14 15  1  6
 16 15  2  0
 17 18  1  0
 18 19  2  0
 20 21  1  0
 20 18  1  0
 21 22  1  0
 23 22  1  0
 24 23  1  1
 24 25  1  0
 26 28  1  0
 26 24  1  0
 27 26  2  0
M  END
$$$$
