EPR.pdb
     RDKit          3D

 28 28  0  0  1  0  0  0  0  0999 V2000
   20.1146  -10.3666  -15.8758 N   0  0  0  0  0  0  0  0  0  0  0  0
   20.1417   -8.9316  -15.5391 C   0  0  1  0  0  0  0  0  0  0  0  0
   18.8689   -8.3358  -16.1502 C   0  0  0  0  0  0  0  0  0  0  0  0
   18.9407   -8.3376  -17.6466 C   0  0  0  0  0  0  0  0  0  0  0  0
   17.7415   -7.6613  -18.1900 C   0  0  0  0  0  0  0  0  0  0  0  0
   16.7519   -8.3443  -18.5446 O   0  0  0  0  0  0  0  0  0  0  0  0
   20.0244   -8.7348  -14.0787 C   0  0  0  0  0  0  0  0  0  0  0  0
   19.7662   -9.7783  -13.3848 O   0  0  0  0  0  0  0  0  0  0  0  0
   17.6663   -6.2756  -18.3257 O   0  0  0  0  0  0  0  0  0  0  0  0
   20.1843   -7.4836  -13.4675 N   0  0  0  0  0  0  0  0  0  0  0  0
   20.2716   -6.2175  -14.1554 C   0  0  0  0  0  0  0  0  0  0  0  0
   21.0621   -5.3266  -13.2265 C   0  0  0  0  0  0  0  0  0  0  0  0
   21.4523   -6.2218  -12.0453 C   0  0  0  0  0  0  0  0  0  0  0  0
   20.2708   -7.2031  -12.0662 C   0  0  1  0  0  0  0  0  0  0  0  0
   19.0145   -6.4748  -11.6710 C   0  0  0  0  0  0  0  0  0  0  0  0
   18.4362   -5.6596  -12.4415 O   0  0  0  0  0  0  0  0  0  0  0  0
   12.1590  -10.1673   -7.2536 N   0  0  0  0  0  0  0  0  0  0  0  0
   11.8281   -8.8524   -7.6574 C   0  0  0  0  0  0  0  0  0  0  0  0
   10.6282   -8.3736   -7.4401 N   0  0  0  0  0  0  0  0  0  0  0  0
   12.7495   -8.0107   -8.2983 N   0  0  0  0  0  0  0  0  0  0  0  0
   14.1234   -8.3555   -8.5563 C   0  0  0  0  0  0  0  0  0  0  0  0
   14.8707   -7.2503   -9.2021 C   0  0  0  0  0  0  0  0  0  0  0  0
   16.2803   -7.3648   -9.5601 C   0  0  0  0  0  0  0  0  0  0  0  0
   16.9791   -6.2272  -10.1928 C   0  0  2  0  0  0  0  0  0  0  0  0
   18.4144   -6.6685  -10.4077 N   0  0  0  0  0  0  0  0  0  0  0  0
   17.1596   -5.0400   -9.3468 C   0  0  0  0  0  0  0  0  0  0  0  0
   18.1220   -4.8962   -8.5960 O   0  0  0  0  0  0  0  0  0  0  0  0
   16.2212   -3.9878   -9.3550 O   0  0  0  0  0  0  0  0  0  0  0  0
  2  1  1  1
  2  7  1  0
  2  3  1  0
  3  4  1  0
  5  9  1  0
  5  4  1  0
  6  5  2  0
  7  8  2  0
 10  7  1  0
 10 11  1  0
 12 11  1  0
 13 14  1  0
 13 12  1  0
 14 10  1  0
 15 25  1  0
 14 15  1  6
 16 15  2  0
 17 18  1  0
 18 19  2  0
 20 21  1  0
 20 18  1  0
 21 22  1  0
 23 22  1  0
 24 23  1  1
 24 25  1  0
 26 28  1  0
 26 24  1  0
 27 26  2  0
M  END
$$$$
