EPR.pdb
     RDKit          3D

 28 28  0  0  1  0  0  0  0  0999 V2000
   14.5531  -19.3847    6.9686 N   0  0  0  0  0  0  0  0  0  0  0  0
   16.0045  -19.6206    6.8647 C   0  0  1  0  0  0  0  0  0  0  0  0
   16.4688  -18.8291    5.6373 C   0  0  0  0  0  0  0  0  0  0  0  0
   16.5311  -19.7069    4.4250 C   0  0  0  0  0  0  0  0  0  0  0  0
   17.0076  -18.9091    3.2730 C   0  0  0  0  0  0  0  0  0  0  0  0
   17.3428  -17.7132    3.4435 O   0  0  0  0  0  0  0  0  0  0  0  0
   16.7140  -19.0339    8.0213 C   0  0  0  0  0  0  0  0  0  0  0  0
   16.0954  -18.1125    8.6581 O   0  0  0  0  0  0  0  0  0  0  0  0
   17.1004  -19.4407    1.9873 O   0  0  0  0  0  0  0  0  0  0  0  0
   17.9929  -19.4497    8.4162 N   0  0  0  0  0  0  0  0  0  0  0  0
   18.8086  -20.4240    7.7310 C   0  0  0  0  0  0  0  0  0  0  0  0
   19.7053  -20.9991    8.8018 C   0  0  0  0  0  0  0  0  0  0  0  0
   19.2592  -20.3263   10.1046 C   0  0  0  0  0  0  0  0  0  0  0  0
   18.7493  -18.9910    9.5420 C   0  0  1  0  0  0  0  0  0  0  0  0
   19.9144  -18.1986    9.0132 C   0  0  0  0  0  0  0  0  0  0  0  0
   20.4485  -18.4469    7.8970 O   0  0  0  0  0  0  0  0  0  0  0  0
   21.0659  -11.0902    5.0114 N   0  0  0  0  0  0  0  0  0  0  0  0
   20.2608  -11.8876    5.8585 C   0  0  0  0  0  0  0  0  0  0  0  0
   18.9578  -11.7522    5.8559 N   0  0  0  0  0  0  0  0  0  0  0  0
   20.8055  -12.8451    6.7272 N   0  0  0  0  0  0  0  0  0  0  0  0
   21.2824  -12.5601    8.0556 C   0  0  0  0  0  0  0  0  0  0  0  0
   21.8558  -13.7559    8.7177 C   0  0  0  0  0  0  0  0  0  0  0  0
   21.0279  -14.8619    9.1863 C   0  0  0  0  0  0  0  0  0  0  0  0
   21.5232  -16.2506    9.0909 C   0  0  2  0  0  0  0  0  0  0  0  0
   20.4734  -17.1286    9.7452 N   0  0  0  0  0  0  0  0  0  0  0  0
   22.7107  -16.5604    9.8980 C   0  0  0  0  0  0  0  0  0  0  0  0
   22.6475  -17.1231   10.9889 O   0  0  0  0  0  0  0  0  0  0  0  0
   24.0050  -16.2220    9.4528 O   0  0  0  0  0  0  0  0  0  0  0  0
  2  1  1  1
  2  7  1  0
  2  3  1  0
  3  4  1  0
  5  9  1  0
  5  4  1  0
  6  5  2  0
  7  8  2  0
 10  7  1  0
 10 11  1  0
 12 11  1  0
 13 14  1  0
 13 12  1  0
 14 10  1  0
 15 25  1  0
 14 15  1  6
 16 15  2  0
 17 18  1  0
 18 19  2  0
 20 21  1  0
 20 18  1  0
 21 22  1  0
 23 22  1  0
 24 23  1  1
 24 25  1  0
 26 28  1  0
 26 24  1  0
 27 26  2  0
M  END
$$$$
