EPR.pdb
     RDKit          3D

 28 28  0  0  1  0  0  0  0  0999 V2000
   20.9351  -21.4048  -13.9966 N   0  0  0  0  0  0  0  0  0  0  0  0
   20.8551  -20.7234  -12.6918 C   0  0  1  0  0  0  0  0  0  0  0  0
   19.4913  -20.0249  -12.6691 C   0  0  0  0  0  0  0  0  0  0  0  0
   18.3835  -21.0031  -12.9145 C   0  0  0  0  0  0  0  0  0  0  0  0
   17.2714  -20.7202  -11.9796 C   0  0  0  0  0  0  0  0  0  0  0  0
   16.9599  -21.5696  -11.1118 O   0  0  0  0  0  0  0  0  0  0  0  0
   20.8284  -21.7073  -11.5888 C   0  0  0  0  0  0  0  0  0  0  0  0
   20.6206  -22.9255  -11.9204 O   0  0  0  0  0  0  0  0  0  0  0  0
   16.5455  -19.5306  -12.0251 O   0  0  0  0  0  0  0  0  0  0  0  0
   21.0187  -21.3474  -10.2477 N   0  0  0  0  0  0  0  0  0  0  0  0
   21.0804  -19.9971   -9.7406 C   0  0  0  0  0  0  0  0  0  0  0  0
   21.9133  -20.0937   -8.4842 C   0  0  0  0  0  0  0  0  0  0  0  0
   22.3512  -21.5602   -8.4032 C   0  0  0  0  0  0  0  0  0  0  0  0
   21.1666  -22.2215   -9.1234 C   0  0  1  0  0  0  0  0  0  0  0  0
   19.9310  -22.0831   -8.2755 C   0  0  0  0  0  0  0  0  0  0  0  0
   19.0976  -21.1505   -8.4444 O   0  0  0  0  0  0  0  0  0  0  0  0
   14.1870  -24.8495  -12.0781 N   0  0  0  0  0  0  0  0  0  0  0  0
   13.8703  -25.3168  -10.7808 C   0  0  0  0  0  0  0  0  0  0  0  0
   12.6495  -25.6931  -10.4907 N   0  0  0  0  0  0  0  0  0  0  0  0
   14.8282  -25.3996   -9.7592 N   0  0  0  0  0  0  0  0  0  0  0  0
   16.1848  -24.9315   -9.8762 C   0  0  0  0  0  0  0  0  0  0  0  0
   17.0106  -25.2955   -8.7005 C   0  0  0  0  0  0  0  0  0  0  0  0
   18.2441  -24.5928   -8.3644 C   0  0  0  0  0  0  0  0  0  0  0  0
   18.2822  -23.6739   -7.2081 C   0  0  2  0  0  0  0  0  0  0  0  0
   19.6393  -22.9971   -7.2397 N   0  0  0  0  0  0  0  0  0  0  0  0
   18.3032  -24.3140   -5.8861 C   0  0  0  0  0  0  0  0  0  0  0  0
   19.3050  -24.8544   -5.4225 O   0  0  0  0  0  0  0  0  0  0  0  0
   17.1545  -24.3399   -5.0689 O   0  0  0  0  0  0  0  0  0  0  0  0
  2  1  1  6
  2  7  1  0
  2  3  1  0
  3  4  1  0
  5  9  1  0
  5  4  1  0
  6  5  2  0
  7  8  2  0
 10  7  1  0
 10 11  1  0
 12 11  1  0
 13 14  1  0
 13 12  1  0
 14 10  1  0
 15 25  1  0
 14 15  1  1
 16 15  2  0
 17 18  1  0
 18 19  2  0
 20 21  1  0
 20 18  1  0
 21 22  1  0
 23 22  1  0
 24 23  1  6
 24 25  1  0
 26 28  1  0
 26 24  1  0
 27 26  2  0
M  END
$$$$
