EPR.pdb
     RDKit          3D

 28 28  0  0  1  0  0  0  0  0999 V2000
   28.6443  -21.6935  -17.5046 N   0  0  0  0  0  0  0  0  0  0  0  0
   28.9437  -20.8626  -16.3244 C   0  0  1  0  0  0  0  0  0  0  0  0
   28.2577  -19.5158  -16.5777 C   0  0  0  0  0  0  0  0  0  0  0  0
   26.7769  -19.6220  -16.3771 C   0  0  0  0  0  0  0  0  0  0  0  0
   26.1593  -18.2986  -16.6174 C   0  0  0  0  0  0  0  0  0  0  0  0
   25.5956  -18.0674  -17.7130 O   0  0  0  0  0  0  0  0  0  0  0  0
   28.3068  -21.4240  -15.1142 C   0  0  0  0  0  0  0  0  0  0  0  0
   27.4054  -22.3112  -15.3074 O   0  0  0  0  0  0  0  0  0  0  0  0
   26.1789  -17.2837  -15.6614 O   0  0  0  0  0  0  0  0  0  0  0  0
   28.6566  -21.0216  -13.8179 N   0  0  0  0  0  0  0  0  0  0  0  0
   29.4572  -19.8679  -13.4834 C   0  0  0  0  0  0  0  0  0  0  0  0
   30.0864  -20.2067  -12.1527 C   0  0  0  0  0  0  0  0  0  0  0  0
   29.6317  -21.6376  -11.8449 C   0  0  0  0  0  0  0  0  0  0  0  0
   28.2844  -21.6426  -12.5826 C   0  0  1  0  0  0  0  0  0  0  0  0
   27.3302  -20.7159  -11.8785 C   0  0  0  0  0  0  0  0  0  0  0  0
   27.3028  -19.4749  -12.1063 O   0  0  0  0  0  0  0  0  0  0  0  0
   19.9226  -21.3299  -14.9097 N   0  0  0  0  0  0  0  0  0  0  0  0
   21.2091  -20.7617  -15.0637 C   0  0  0  0  0  0  0  0  0  0  0  0
   21.6358  -20.3963  -16.2471 N   0  0  0  0  0  0  0  0  0  0  0  0
   22.0764  -20.5643  -13.9788 N   0  0  0  0  0  0  0  0  0  0  0  0
   21.7490  -20.8685  -12.6100 C   0  0  0  0  0  0  0  0  0  0  0  0
   22.7832  -20.3890  -11.6627 C   0  0  0  0  0  0  0  0  0  0  0  0
   24.1404  -20.9241  -11.6511 C   0  0  0  0  0  0  0  0  0  0  0  0
   25.1276  -20.4196  -10.6745 C   0  0  2  0  0  0  0  0  0  0  0  0
   26.4099  -21.1921  -10.9196 N   0  0  0  0  0  0  0  0  0  0  0  0
   24.8541  -20.7419   -9.2677 C   0  0  0  0  0  0  0  0  0  0  0  0
   25.1034  -21.8395   -8.7742 O   0  0  0  0  0  0  0  0  0  0  0  0
   24.2824  -19.7904   -8.3983 O   0  0  0  0  0  0  0  0  0  0  0  0
  2  1  1  6
  2  7  1  0
  2  3  1  0
  3  4  1  0
  5  9  1  0
  5  4  1  0
  6  5  2  0
  7  8  2  0
 10  7  1  0
 10 11  1  0
 12 11  1  0
 13 14  1  0
 13 12  1  0
 14 10  1  0
 15 25  1  0
 14 15  1  1
 16 15  2  0
 17 18  1  0
 18 19  2  0
 20 21  1  0
 20 18  1  0
 21 22  1  0
 23 22  1  0
 24 23  1  6
 24 25  1  0
 26 28  1  0
 26 24  1  0
 27 26  2  0
M  END
$$$$
