EPR.pdb
     RDKit          3D

 28 28  0  0  1  0  0  0  0  0999 V2000
   28.3514  -20.6208  -18.2154 N   0  0  0  0  0  0  0  0  0  0  0  0
   28.1502  -19.8571  -16.9706 C   0  0  1  0  0  0  0  0  0  0  0  0
   27.0042  -18.8819  -17.2605 C   0  0  0  0  0  0  0  0  0  0  0  0
   27.4315  -17.8261  -18.2336 C   0  0  0  0  0  0  0  0  0  0  0  0
   26.3378  -16.8415  -18.3917 C   0  0  0  0  0  0  0  0  0  0  0  0
   26.4197  -15.9614  -19.2807 O   0  0  0  0  0  0  0  0  0  0  0  0
   27.6703  -20.7406  -15.8868 C   0  0  0  0  0  0  0  0  0  0  0  0
   26.9964  -21.7665  -16.2479 O   0  0  0  0  0  0  0  0  0  0  0  0
   25.2036  -16.8527  -17.5806 O   0  0  0  0  0  0  0  0  0  0  0  0
   27.9286  -20.4874  -14.5327 N   0  0  0  0  0  0  0  0  0  0  0  0
   28.5669  -19.3046  -14.0058 C   0  0  0  0  0  0  0  0  0  0  0  0
   29.1951  -19.7506  -12.7065 C   0  0  0  0  0  0  0  0  0  0  0  0
   28.9164  -21.2552  -12.6201 C   0  0  0  0  0  0  0  0  0  0  0  0
   27.6025  -21.3184  -13.4132 C   0  0  1  0  0  0  0  0  0  0  0  0
   26.5187  -20.6239  -12.6333 C   0  0  0  0  0  0  0  0  0  0  0  0
   26.4318  -19.3664  -12.5715 O   0  0  0  0  0  0  0  0  0  0  0  0
   19.1074  -23.2733  -13.1782 N   0  0  0  0  0  0  0  0  0  0  0  0
   18.6797  -22.4365  -12.1207 C   0  0  0  0  0  0  0  0  0  0  0  0
   17.5106  -22.6217  -11.5593 N   0  0  0  0  0  0  0  0  0  0  0  0
   19.4696  -21.3866  -11.6288 N   0  0  0  0  0  0  0  0  0  0  0  0
   20.7805  -21.5540  -11.0572 C   0  0  0  0  0  0  0  0  0  0  0  0
   21.8041  -20.7294  -11.7421 C   0  0  0  0  0  0  0  0  0  0  0  0
   23.1425  -21.2303  -12.0357 C   0  0  0  0  0  0  0  0  0  0  0  0
   24.3210  -20.6214  -11.3849 C   0  0  2  0  0  0  0  0  0  0  0  0
   25.5365  -21.3503  -11.9256 N   0  0  0  0  0  0  0  0  0  0  0  0
   24.4490  -20.8654   -9.9421 C   0  0  0  0  0  0  0  0  0  0  0  0
   23.7395  -20.3101   -9.1062 O   0  0  0  0  0  0  0  0  0  0  0  0
   25.4091  -21.7655   -9.4359 O   0  0  0  0  0  0  0  0  0  0  0  0
  2  1  1  6
  2  7  1  0
  2  3  1  0
  3  4  1  0
  5  9  1  0
  5  4  1  0
  6  5  2  0
  7  8  2  0
 10  7  1  0
 10 11  1  0
 12 11  1  0
 13 14  1  0
 13 12  1  0
 14 10  1  0
 15 25  1  0
 14 15  1  1
 16 15  2  0
 17 18  1  0
 18 19  2  0
 20 21  1  0
 20 18  1  0
 21 22  1  0
 23 22  1  0
 24 23  1  6
 24 25  1  0
 26 28  1  0
 26 24  1  0
 27 26  2  0
M  END
$$$$
