EPR.pdb
     RDKit          3D

 28 28  0  0  1  0  0  0  0  0999 V2000
   27.8135  -19.5033  -19.1770 N   0  0  0  0  0  0  0  0  0  0  0  0
   26.9374  -18.4161  -18.7041 C   0  0  1  0  0  0  0  0  0  0  0  0
   25.7218  -18.4245  -19.6372 C   0  0  0  0  0  0  0  0  0  0  0  0
   24.9941  -19.7316  -19.5584 C   0  0  0  0  0  0  0  0  0  0  0  0
   23.7908  -19.6689  -20.4179 C   0  0  0  0  0  0  0  0  0  0  0  0
   23.8691  -20.0154  -21.6202 O   0  0  0  0  0  0  0  0  0  0  0  0
   26.4171  -18.7139  -17.3528 C   0  0  0  0  0  0  0  0  0  0  0  0
   26.6783  -19.8771  -16.8882 O   0  0  0  0  0  0  0  0  0  0  0  0
   22.5558  -19.2339  -19.9385 O   0  0  0  0  0  0  0  0  0  0  0  0
   25.6773  -17.7879  -16.6047 N   0  0  0  0  0  0  0  0  0  0  0  0
   25.1368  -16.5454  -17.1028 C   0  0  0  0  0  0  0  0  0  0  0  0
   25.0375  -15.6527  -15.8884 C   0  0  0  0  0  0  0  0  0  0  0  0
   25.6306  -16.4719  -14.7369 C   0  0  0  0  0  0  0  0  0  0  0  0
   25.2933  -17.8873  -15.2290 C   0  0  1  0  0  0  0  0  0  0  0  0
   23.8019  -18.0844  -15.1874 C   0  0  0  0  0  0  0  0  0  0  0  0
   23.0490  -17.7413  -16.1404 O   0  0  0  0  0  0  0  0  0  0  0  0
   19.6432  -22.8892  -11.6539 N   0  0  0  0  0  0  0  0  0  0  0  0
   18.3694  -22.3318  -11.3927 C   0  0  0  0  0  0  0  0  0  0  0  0
   17.3930  -23.0857  -10.9514 N   0  0  0  0  0  0  0  0  0  0  0  0
   18.0920  -20.9707  -11.5888 N   0  0  0  0  0  0  0  0  0  0  0  0
   19.0710  -19.9888  -11.9768 C   0  0  0  0  0  0  0  0  0  0  0  0
   20.0858  -20.5405  -12.9057 C   0  0  0  0  0  0  0  0  0  0  0  0
   21.4131  -19.9527  -13.0514 C   0  0  0  0  0  0  0  0  0  0  0  0
   21.6884  -19.0080  -14.1534 C   0  0  2  0  0  0  0  0  0  0  0  0
   23.1644  -18.6678  -14.0710 N   0  0  0  0  0  0  0  0  0  0  0  0
   21.0727  -17.6807  -14.0236 C   0  0  0  0  0  0  0  0  0  0  0  0
   21.5722  -16.7759  -13.3585 O   0  0  0  0  0  0  0  0  0  0  0  0
   19.8567  -17.3735  -14.6677 O   0  0  0  0  0  0  0  0  0  0  0  0
  2  1  1  6
  2  7  1  0
  2  3  1  0
  3  4  1  0
  5  9  1  0
  5  4  1  0
  6  5  2  0
  7  8  2  0
 10  7  1  0
 10 11  1  0
 12 11  1  0
 13 14  1  0
 13 12  1  0
 14 10  1  0
 15 25  1  0
 14 15  1  6
 16 15  2  0
 17 18  1  0
 18 19  2  0
 20 21  1  0
 20 18  1  0
 21 22  1  0
 23 22  1  0
 24 23  1  1
 24 25  1  0
 26 28  1  0
 26 24  1  0
 27 26  2  0
M  END
$$$$
