EPR.pdb
     RDKit          3D

 28 28  0  0  1  0  0  0  0  0999 V2000
   28.9727  -15.7663  -20.1537 N   0  0  0  0  0  0  0  0  0  0  0  0
   27.6564  -15.4935  -19.5488 C   0  0  1  0  0  0  0  0  0  0  0  0
   26.7168  -16.5771  -20.0886 C   0  0  0  0  0  0  0  0  0  0  0  0
   26.4778  -16.3972  -21.5565 C   0  0  0  0  0  0  0  0  0  0  0  0
   25.5676  -17.4625  -22.0334 C   0  0  0  0  0  0  0  0  0  0  0  0
   24.9688  -18.1845  -21.2017 O   0  0  0  0  0  0  0  0  0  0  0  0
   27.7038  -15.6867  -18.0839 C   0  0  0  0  0  0  0  0  0  0  0  0
   28.7996  -16.1441  -17.6074 O   0  0  0  0  0  0  0  0  0  0  0  0
   25.3455  -17.6995  -23.3894 O   0  0  0  0  0  0  0  0  0  0  0  0
   26.6204  -15.3910  -17.2453 N   0  0  0  0  0  0  0  0  0  0  0  0
   25.3213  -14.9356  -17.6797 C   0  0  0  0  0  0  0  0  0  0  0  0
   24.7719  -14.1586  -16.5066 C   0  0  0  0  0  0  0  0  0  0  0  0
   25.8907  -14.1660  -15.4592 C   0  0  0  0  0  0  0  0  0  0  0  0
   26.5690  -15.4966  -15.8183 C   0  0  1  0  0  0  0  0  0  0  0  0
   25.6417  -16.6328  -15.4806 C   0  0  0  0  0  0  0  0  0  0  0  0
   24.7206  -17.0061  -16.2583 O   0  0  0  0  0  0  0  0  0  0  0  0
   25.2458  -21.9548   -8.1466 N   0  0  0  0  0  0  0  0  0  0  0  0
   24.0234  -21.7216   -8.8198 C   0  0  0  0  0  0  0  0  0  0  0  0
   22.8821  -21.9849   -8.2332 N   0  0  0  0  0  0  0  0  0  0  0  0
   23.9719  -21.2067  -10.1238 N   0  0  0  0  0  0  0  0  0  0  0  0
   25.1246  -20.9922  -10.9596 C   0  0  0  0  0  0  0  0  0  0  0  0
   24.7674  -20.4073  -12.2738 C   0  0  0  0  0  0  0  0  0  0  0  0
   25.4238  -19.2169  -12.8036 C   0  0  0  0  0  0  0  0  0  0  0  0
   24.9800  -18.6350  -14.0871 C   0  0  2  0  0  0  0  0  0  0  0  0
   25.7563  -17.3443  -14.2665 N   0  0  0  0  0  0  0  0  0  0  0  0
   23.5933  -18.1518  -14.1219 C   0  0  0  0  0  0  0  0  0  0  0  0
   23.2731  -17.0180  -13.7719 O   0  0  0  0  0  0  0  0  0  0  0  0
   22.5423  -18.9796  -14.5672 O   0  0  0  0  0  0  0  0  0  0  0  0
  2  1  1  6
  2  7  1  0
  2  3  1  0
  3  4  1  0
  5  9  1  0
  5  4  1  0
  6  5  2  0
  7  8  2  0
 10  7  1  0
 10 11  1  0
 12 11  1  0
 13 14  1  0
 13 12  1  0
 14 10  1  0
 15 25  1  0
 14 15  1  6
 16 15  2  0
 17 18  1  0
 18 19  2  0
 20 21  1  0
 20 18  1  0
 21 22  1  0
 23 22  1  0
 24 23  1  1
 24 25  1  0
 26 28  1  0
 26 24  1  0
 27 26  2  0
M  END
$$$$
