EAP.pdb
     RDKit          3D

 22 22  0  0  1  0  0  0  0  0999 V2000
    8.4578  -13.0776   18.5641 N   0  0  0  0  0  0  0  0  0  0  0  0
    9.0764  -13.9585   19.5201 C   0  0  1  0  0  0  0  0  0  0  0  0
   10.5408  -13.6723   19.5290 C   0  0  0  0  0  0  0  0  0  0  0  0
   11.2383  -14.6448   20.4441 C   0  0  0  0  0  0  0  0  0  0  0  0
   12.6826  -14.3515   20.4362 C   0  0  0  0  0  0  0  0  0  0  0  0
   13.2427  -13.9253   21.4800 O   0  0  0  0  0  0  0  0  0  0  0  0
    8.4653  -13.7557   20.8509 C   0  0  0  0  0  0  0  0  0  0  0  0
    8.4522  -12.6479   21.4416 O   0  0  0  0  0  0  0  0  0  0  0  0
   13.4683  -14.5313   19.2959 O   0  0  0  0  0  0  0  0  0  0  0  0
    6.2210  -15.8035   22.9949 C   0  0  0  0  0  0  0  0  0  0  0  0
    7.1959  -14.6880   22.7787 C   0  0  2  0  0  0  0  0  0  0  0  0
    7.8599  -14.8507   21.5091 N   0  0  0  0  0  0  0  0  0  0  0  0
    8.1690  -14.5413   23.8912 C   0  0  0  0  0  0  0  0  0  0  0  0
    9.3386  -14.9457   23.6899 O   0  0  0  0  0  0  0  0  0  0  0  0
    7.8370  -13.9769   25.1394 N   0  0  0  0  0  0  0  0  0  0  0  0
    6.5830  -13.3789   25.4953 C   0  0  0  0  0  0  0  0  0  0  0  0
    6.8131  -12.5956   26.7693 C   0  0  0  0  0  0  0  0  0  0  0  0
    8.3278  -12.5378   26.8693 C   0  0  0  0  0  0  0  0  0  0  0  0
    8.7003  -13.8987   26.2857 C   0  0  1  0  0  0  0  0  0  0  0  0
    8.4563  -14.9945   27.2570 C   0  0  0  0  0  0  0  0  0  0  0  0
    7.4233  -15.7075   27.2559 O   0  0  0  0  0  0  0  0  0  0  0  0
    9.4043  -15.2705   28.2327 O   0  0  0  0  0  0  0  0  0  0  0  0
  2  1  1  6
  2  7  1  0
  3  2  1  0
  4  3  1  0
  5  4  1  0
  6  5  2  0
  7 12  1  0
  8  7  2  0
  9  5  1  0
 11 10  1  1
 11 13  1  0
 12 11  1  0
 13 14  2  0
 13 15  1  0
 15 16  1  0
 16 17  1  0
 18 17  1  0
 19 15  1  0
 19 18  1  0
 19 20  1  1
 21 20  2  0
 22 20  1  0
M  END
$$$$
