EAP.pdb
     RDKit          3D

 22 22  0  0  1  0  0  0  0  0999 V2000
    8.5483  -13.4924   18.8607 N   0  0  0  0  0  0  0  0  0  0  0  0
    9.2529  -14.1283   19.9432 C   0  0  1  0  0  0  0  0  0  0  0  0
   10.6004  -13.4965   20.0490 C   0  0  0  0  0  0  0  0  0  0  0  0
   11.4901  -14.0216   18.9524 C   0  0  0  0  0  0  0  0  0  0  0  0
   12.2567  -15.1684   19.4714 C   0  0  0  0  0  0  0  0  0  0  0  0
   12.2299  -16.2694   18.8617 O   0  0  0  0  0  0  0  0  0  0  0  0
    8.4761  -13.9866   21.1931 C   0  0  0  0  0  0  0  0  0  0  0  0
    8.0569  -12.8839   21.6227 O   0  0  0  0  0  0  0  0  0  0  0  0
   13.0254  -15.0800   20.6339 O   0  0  0  0  0  0  0  0  0  0  0  0
    6.8315  -16.3711   23.5279 C   0  0  0  0  0  0  0  0  0  0  0  0
    7.4443  -15.0462   23.1955 C   0  0  2  0  0  0  0  0  0  0  0  0
    8.1793  -15.1377   21.9583 N   0  0  0  0  0  0  0  0  0  0  0  0
    8.2841  -14.5013   24.2928 C   0  0  0  0  0  0  0  0  0  0  0  0
    9.5280  -14.5443   24.1412 O   0  0  0  0  0  0  0  0  0  0  0  0
    7.7494  -13.9489   25.4742 N   0  0  0  0  0  0  0  0  0  0  0  0
    6.3584  -13.7842   25.7817 C   0  0  0  0  0  0  0  0  0  0  0  0
    6.2752  -12.8309   26.9539 C   0  0  0  0  0  0  0  0  0  0  0  0
    7.6744  -12.2430   27.0197 C   0  0  0  0  0  0  0  0  0  0  0  0
    8.5065  -13.4485   26.5886 C   0  0  1  0  0  0  0  0  0  0  0  0
    8.6332  -14.4438   27.6826 C   0  0  0  0  0  0  0  0  0  0  0  0
    7.9357  -15.4844   27.7603 O   0  0  0  0  0  0  0  0  0  0  0  0
    9.5658  -14.2407   28.6906 O   0  0  0  0  0  0  0  0  0  0  0  0
  2  1  1  6
  2  7  1  0
  3  2  1  0
  4  3  1  0
  5  4  1  0
  6  5  2  0
  7 12  1  0
  8  7  2  0
  9  5  1  0
 11 10  1  1
 11 13  1  0
 12 11  1  0
 13 14  2  0
 13 15  1  0
 15 16  1  0
 16 17  1  0
 18 17  1  0
 19 15  1  0
 19 18  1  0
 19 20  1  1
 21 20  2  0
 22 20  1  0
M  END
$$$$
