EAP.pdb
     RDKit          3D

 22 22  0  0  1  0  0  0  0  0999 V2000
    8.9927  -17.0044   20.7993 N   0  0  0  0  0  0  0  0  0  0  0  0
    8.8704  -15.9615   21.7841 C   0  0  1  0  0  0  0  0  0  0  0  0
    8.8430  -14.6531   21.0674 C   0  0  0  0  0  0  0  0  0  0  0  0
    8.2168  -14.8359   19.7094 C   0  0  0  0  0  0  0  0  0  0  0  0
    8.1708  -13.5297   19.0282 C   0  0  0  0  0  0  0  0  0  0  0  0
    9.2287  -13.0207   18.5737 O   0  0  0  0  0  0  0  0  0  0  0  0
    7.6484  -16.1774   22.5877 C   0  0  0  0  0  0  0  0  0  0  0  0
    6.6216  -16.7454   22.1414 O   0  0  0  0  0  0  0  0  0  0  0  0
    6.9782  -12.8220   18.8642 O   0  0  0  0  0  0  0  0  0  0  0  0
    6.8628  -17.7862   24.9330 C   0  0  0  0  0  0  0  0  0  0  0  0
    6.6963  -16.2991   24.8846 C   0  0  2  0  0  0  0  0  0  0  0  0
    7.6131  -15.7297   23.9282 N   0  0  0  0  0  0  0  0  0  0  0  0
    6.8244  -15.6551   26.2170 C   0  0  0  0  0  0  0  0  0  0  0  0
    6.7894  -16.4025   27.2231 O   0  0  0  0  0  0  0  0  0  0  0  0
    6.9807  -14.2653   26.3921 N   0  0  0  0  0  0  0  0  0  0  0  0
    6.0669  -13.3846   27.0598 C   0  0  0  0  0  0  0  0  0  0  0  0
    6.4554  -11.9729   26.6780 C   0  0  0  0  0  0  0  0  0  0  0  0
    7.4022  -12.1807   25.5083 C   0  0  0  0  0  0  0  0  0  0  0  0
    8.0901  -13.4770   25.9302 C   0  0  1  0  0  0  0  0  0  0  0  0
    9.0996  -13.2387   26.9921 C   0  0  0  0  0  0  0  0  0  0  0  0
    9.0015  -13.6910   28.1589 O   0  0  0  0  0  0  0  0  0  0  0  0
   10.2257  -12.4775   26.7103 O   0  0  0  0  0  0  0  0  0  0  0  0
  2  1  1  6
  2  7  1  0
  3  2  1  0
  4  3  1  0
  5  4  1  0
  6  5  2  0
  7 12  1  0
  8  7  2  0
  9  5  1  0
 11 10  1  1
 11 13  1  0
 12 11  1  0
 13 14  2  0
 13 15  1  0
 15 16  1  0
 16 17  1  0
 18 17  1  0
 19 15  1  0
 19 18  1  0
 19 20  1  1
 21 20  2  0
 22 20  1  0
M  END
$$$$
