EAP.pdb
     RDKit          3D

 22 22  0  0  1  0  0  0  0  0999 V2000
    9.2921  -16.6408   19.7506 N   0  0  0  0  0  0  0  0  0  0  0  0
    9.5394  -17.1297   21.0819 C   0  0  1  0  0  0  0  0  0  0  0  0
   11.0141  -17.1200   21.3089 C   0  0  0  0  0  0  0  0  0  0  0  0
   11.6794  -18.0578   20.3354 C   0  0  0  0  0  0  0  0  0  0  0  0
   12.9597  -17.4669   19.9065 C   0  0  0  0  0  0  0  0  0  0  0  0
   13.8268  -17.1560   20.7646 O   0  0  0  0  0  0  0  0  0  0  0  0
    8.8236  -16.2858   22.0623 C   0  0  0  0  0  0  0  0  0  0  0  0
    8.8655  -15.0311   22.0522 O   0  0  0  0  0  0  0  0  0  0  0  0
   13.2539  -17.2340   18.5614 O   0  0  0  0  0  0  0  0  0  0  0  0
    6.3366  -17.0053   24.7628 C   0  0  0  0  0  0  0  0  0  0  0  0
    7.2799  -16.1208   24.0083 C   0  0  2  0  0  0  0  0  0  0  0  0
    8.0472  -16.9023   23.0702 N   0  0  0  0  0  0  0  0  0  0  0  0
    8.1563  -15.3135   24.8950 C   0  0  0  0  0  0  0  0  0  0  0  0
    9.3909  -15.5217   24.8283 O   0  0  0  0  0  0  0  0  0  0  0  0
    7.6655  -14.3420   25.7905 N   0  0  0  0  0  0  0  0  0  0  0  0
    6.2882  -14.0128   26.0164 C   0  0  0  0  0  0  0  0  0  0  0  0
    6.2652  -12.6928   26.7559 C   0  0  0  0  0  0  0  0  0  0  0  0
    7.6888  -12.1861   26.6006 C   0  0  0  0  0  0  0  0  0  0  0  0
    8.4618  -13.5022   26.6427 C   0  0  1  0  0  0  0  0  0  0  0  0
    8.5649  -14.0307   28.0261 C   0  0  0  0  0  0  0  0  0  0  0  0
    7.8346  -14.9467   28.4768 O   0  0  0  0  0  0  0  0  0  0  0  0
    9.5117  -13.5033   28.8935 O   0  0  0  0  0  0  0  0  0  0  0  0
  2  1  1  6
  2  7  1  0
  3  2  1  0
  4  3  1  0
  5  4  1  0
  6  5  2  0
  7 12  1  0
  8  7  2  0
  9  5  1  0
 11 10  1  1
 11 13  1  0
 12 11  1  0
 13 14  2  0
 13 15  1  0
 15 16  1  0
 16 17  1  0
 18 17  1  0
 19 15  1  0
 19 18  1  0
 19 20  1  1
 21 20  2  0
 22 20  1  0
M  END
$$$$
