EAP.pdb
     RDKit          3D

 22 22  0  0  1  0  0  0  0  0999 V2000
    9.4102  -16.5974   19.5730 N   0  0  0  0  0  0  0  0  0  0  0  0
    9.8135  -16.8728   20.9273 C   0  0  1  0  0  0  0  0  0  0  0  0
   11.2702  -16.5717   21.0437 C   0  0  0  0  0  0  0  0  0  0  0  0
   12.0466  -17.8608   21.1154 C   0  0  0  0  0  0  0  0  0  0  0  0
   12.9904  -17.9100   19.9844 C   0  0  0  0  0  0  0  0  0  0  0  0
   12.5716  -18.1793   18.8281 O   0  0  0  0  0  0  0  0  0  0  0  0
    9.0047  -16.0613   21.8615 C   0  0  0  0  0  0  0  0  0  0  0  0
    8.9814  -14.8062   21.8416 O   0  0  0  0  0  0  0  0  0  0  0  0
   14.3554  -17.6652   20.1480 O   0  0  0  0  0  0  0  0  0  0  0  0
    6.4609  -16.8580   24.4830 C   0  0  0  0  0  0  0  0  0  0  0  0
    7.4462  -15.9612   23.8001 C   0  0  2  0  0  0  0  0  0  0  0  0
    8.2105  -16.7109   22.8341 N   0  0  0  0  0  0  0  0  0  0  0  0
    8.3265  -15.2332   24.7496 C   0  0  0  0  0  0  0  0  0  0  0  0
    9.5487  -15.5121   24.7306 O   0  0  0  0  0  0  0  0  0  0  0  0
    7.8523  -14.2608   25.6530 N   0  0  0  0  0  0  0  0  0  0  0  0
    6.4925  -13.8302   25.8019 C   0  0  0  0  0  0  0  0  0  0  0  0
    6.5216  -12.5425   26.5960 C   0  0  0  0  0  0  0  0  0  0  0  0
    7.9878  -12.1470   26.5575 C   0  0  0  0  0  0  0  0  0  0  0  0
    8.6508  -13.5220   26.5921 C   0  0  1  0  0  0  0  0  0  0  0  0
    8.6164  -14.1105   27.9545 C   0  0  0  0  0  0  0  0  0  0  0  0
    7.7824  -14.9756   28.3174 O   0  0  0  0  0  0  0  0  0  0  0  0
    9.5447  -13.7021   28.9023 O   0  0  0  0  0  0  0  0  0  0  0  0
  2  1  1  6
  2  7  1  0
  3  2  1  0
  4  3  1  0
  5  4  1  0
  6  5  2  0
  7 12  1  0
  8  7  2  0
  9  5  1  0
 11 10  1  1
 11 13  1  0
 12 11  1  0
 13 14  2  0
 13 15  1  0
 15 16  1  0
 16 17  1  0
 18 17  1  0
 19 15  1  0
 19 18  1  0
 19 20  1  1
 21 20  2  0
 22 20  1  0
M  END
$$$$
