EAP.pdb
     RDKit          3D

 22 22  0  0  1  0  0  0  0  0999 V2000
   10.0618  -16.4295   20.2034 N   0  0  0  0  0  0  0  0  0  0  0  0
   10.0238  -17.3022   21.3477 C   0  0  1  0  0  0  0  0  0  0  0  0
   11.3854  -17.8855   21.5268 C   0  0  0  0  0  0  0  0  0  0  0  0
   12.3799  -16.7791   21.7644 C   0  0  0  0  0  0  0  0  0  0  0  0
   13.7178  -17.3726   21.9378 C   0  0  0  0  0  0  0  0  0  0  0  0
   14.2613  -17.3754   23.0734 O   0  0  0  0  0  0  0  0  0  0  0  0
    9.5870  -16.5421   22.5382 C   0  0  0  0  0  0  0  0  0  0  0  0
    9.9274  -15.3543   22.7605 O   0  0  0  0  0  0  0  0  0  0  0  0
   14.4188  -17.9421   20.8728 O   0  0  0  0  0  0  0  0  0  0  0  0
    7.1217  -17.2127   25.2666 C   0  0  0  0  0  0  0  0  0  0  0  0
    8.2333  -16.4421   24.6249 C   0  0  2  0  0  0  0  0  0  0  0  0
    8.7434  -17.1650   23.4863 N   0  0  0  0  0  0  0  0  0  0  0  0
    9.3165  -16.0818   25.5754 C   0  0  0  0  0  0  0  0  0  0  0  0
   10.4329  -16.6277   25.4093 O   0  0  0  0  0  0  0  0  0  0  0  0
    9.1429  -15.1691   26.6353 N   0  0  0  0  0  0  0  0  0  0  0  0
    7.9092  -14.5595   27.0387 C   0  0  0  0  0  0  0  0  0  0  0  0
    8.2647  -13.4002   27.9440 C   0  0  0  0  0  0  0  0  0  0  0  0
    9.7568  -13.2297   27.7154 C   0  0  0  0  0  0  0  0  0  0  0  0
   10.1771  -14.6828   27.5068 C   0  0  1  0  0  0  0  0  0  0  0  0
   10.2335  -15.4245   28.7914 C   0  0  0  0  0  0  0  0  0  0  0  0
   11.1093  -15.2294   29.6692 O   0  0  0  0  0  0  0  0  0  0  0  0
    9.2789  -16.3940   29.0667 O   0  0  0  0  0  0  0  0  0  0  0  0
  2  1  1  6
  2  7  1  0
  3  2  1  0
  4  3  1  0
  5  4  1  0
  6  5  2  0
  7 12  1  0
  8  7  2  0
  9  5  1  0
 11 10  1  1
 11 13  1  0
 12 11  1  0
 13 14  2  0
 13 15  1  0
 15 16  1  0
 16 17  1  0
 18 17  1  0
 19 15  1  0
 19 18  1  0
 19 20  1  1
 21 20  2  0
 22 20  1  0
M  END
$$$$
