YGD.pdb
     RDKit          3D

 25 25  0  0  1  0  0  0  0  0999 V2000
   17.3367  -17.9816  -17.1724 O   0  0  0  0  0  0  0  0  0  0  0  0
   17.5248  -16.6137  -16.9439 C   0  0  0  0  0  0  0  0  0  0  0  0
   16.8804  -15.6781  -17.7149 C   0  0  0  0  0  0  0  0  0  0  0  0
   17.0541  -14.3252  -17.5038 C   0  0  0  0  0  0  0  0  0  0  0  0
   17.8930  -13.8994  -16.4969 C   0  0  0  0  0  0  0  0  0  0  0  0
   18.0762  -12.4461  -16.2744 C   0  0  0  0  0  0  0  0  0  0  0  0
   19.1655  -11.9741  -17.2089 C   0  0  2  0  0  0  0  0  0  0  0  0
   20.4173  -12.4802  -16.6906 N   0  0  0  0  0  0  0  0  0  0  0  0
   19.2009  -10.5282  -17.3762 C   0  0  0  0  0  0  0  0  0  0  0  0
   18.2704   -9.8203  -17.8227 O   0  0  0  0  0  0  0  0  0  0  0  0
   18.5366  -14.8549  -15.7267 C   0  0  0  0  0  0  0  0  0  0  0  0
   18.3713  -16.2137  -15.9280 C   0  0  0  0  0  0  0  0  0  0  0  0
   20.3972   -9.8187  -17.0043 N   0  0  0  0  0  0  0  0  0  0  0  0
   20.5370   -8.4052  -17.1949 C   0  0  0  0  0  0  0  0  0  0  0  0
   20.0972   -7.5506  -16.1108 C   0  0  0  0  0  0  0  0  0  0  0  0
   19.3617   -8.0107  -15.2071 O   0  0  0  0  0  0  0  0  0  0  0  0
   20.4714   -6.1940  -16.0252 N   0  0  0  0  0  0  0  0  0  0  0  0
   20.0592   -5.3776  -14.8843 C   0  0  1  0  0  0  0  0  0  0  0  0
   21.2409   -4.5961  -14.3231 C   0  0  0  0  0  0  0  0  0  0  0  0
   22.0628   -5.4426  -13.4332 C   0  0  0  0  0  0  0  0  0  0  0  0
   21.6843   -6.6222  -13.1633 O   0  0  0  0  0  0  0  0  0  0  0  0
   19.0209   -4.4507  -15.3391 C   0  0  0  0  0  0  0  0  0  0  0  0
   18.3841   -3.7099  -14.5275 O   0  0  0  0  0  0  0  0  0  0  0  0
   23.2536   -4.9735  -12.8774 O   0  0  0  0  0  0  0  0  0  0  0  0
   18.6595   -4.3149  -16.6787 O   0  0  0  0  0  0  0  0  0  0  0  0
  2  1  1  0
  2  3  2  0
  4  3  1  0
  5  4  2  0
  6  5  1  0
  6  7  1  0
  7  8  1  1
  9  7  1  0
  9 13  1  0
 10  9  2  0
 11 12  2  0
 11  5  1  0
 12  2  1  0
 14 13  1  0
 15 14  1  0
 16 15  2  0
 17 15  1  0
 18 19  1  6
 18 17  1  0
 19 20  1  0
 20 24  1  0
 21 20  2  0
 22 18  1  0
 23 22  2  0
 25 22  1  0
M  END
$$$$
