YGD.pdb
     RDKit          3D

 25 25  0  0  1  0  0  0  0  0999 V2000
   14.6639  -20.5290    1.2423 O   0  0  0  0  0  0  0  0  0  0  0  0
   15.6231  -19.8636    2.0142 C   0  0  0  0  0  0  0  0  0  0  0  0
   16.8985  -20.3586    2.1289 C   0  0  0  0  0  0  0  0  0  0  0  0
   17.8571  -19.7156    2.8858 C   0  0  0  0  0  0  0  0  0  0  0  0
   17.5304  -18.5495    3.5433 C   0  0  0  0  0  0  0  0  0  0  0  0
   18.5628  -17.8632    4.3547 C   0  0  0  0  0  0  0  0  0  0  0  0
   18.6275  -18.5575    5.6949 C   0  0  2  0  0  0  0  0  0  0  0  0
   17.3962  -18.2530    6.3898 N   0  0  0  0  0  0  0  0  0  0  0  0
   19.7935  -18.1878    6.4847 C   0  0  0  0  0  0  0  0  0  0  0  0
   20.9850  -18.2625    6.1094 O   0  0  0  0  0  0  0  0  0  0  0  0
   16.2394  -18.0615    3.4184 C   0  0  0  0  0  0  0  0  0  0  0  0
   15.2694  -18.6963    2.6631 C   0  0  0  0  0  0  0  0  0  0  0  0
   19.5932  -17.6881    7.8200 N   0  0  0  0  0  0  0  0  0  0  0  0
   20.6857  -17.4355    8.7125 C   0  0  0  0  0  0  0  0  0  0  0  0
   21.1090  -18.5331    9.5582 C   0  0  0  0  0  0  0  0  0  0  0  0
   21.0819  -19.7076    9.1234 O   0  0  0  0  0  0  0  0  0  0  0  0
   21.5626  -18.3322   10.8779 N   0  0  0  0  0  0  0  0  0  0  0  0
   21.8841  -19.4709   11.7371 C   0  0  1  0  0  0  0  0  0  0  0  0
   23.2406  -20.0599   11.3700 C   0  0  0  0  0  0  0  0  0  0  0  0
   23.5847  -21.1926   12.2546 C   0  0  0  0  0  0  0  0  0  0  0  0
   22.7335  -21.6143   13.0942 O   0  0  0  0  0  0  0  0  0  0  0  0
   21.9039  -19.0030   13.1245 C   0  0  0  0  0  0  0  0  0  0  0  0
   21.6405  -17.7980   13.4273 O   0  0  0  0  0  0  0  0  0  0  0  0
   24.8321  -21.8144   12.1896 O   0  0  0  0  0  0  0  0  0  0  0  0
   22.2093  -19.8346   14.2010 O   0  0  0  0  0  0  0  0  0  0  0  0
  2  1  1  0
  2  3  2  0
  4  3  1  0
  5  4  2  0
  6  5  1  0
  6  7  1  0
  7  8  1  1
  9  7  1  0
  9 13  1  0
 10  9  2  0
 11 12  2  0
 11  5  1  0
 12  2  1  0
 14 13  1  0
 15 14  1  0
 16 15  2  0
 17 15  1  0
 18 19  1  6
 18 17  1  0
 19 20  1  0
 20 24  1  0
 21 20  2  0
 22 18  1  0
 23 22  2  0
 25 22  1  0
M  END
$$$$
