YGD.pdb
     RDKit          3D

 25 25  0  0  1  0  0  0  0  0999 V2000
   33.6802    0.2971   -2.8762 O   0  0  0  0  0  0  0  0  0  0  0  0
   32.3907    0.2797   -3.4199 C   0  0  0  0  0  0  0  0  0  0  0  0
   31.4079   -0.5061   -2.8707 C   0  0  0  0  0  0  0  0  0  0  0  0
   30.1308   -0.5356   -3.3936 C   0  0  0  0  0  0  0  0  0  0  0  0
   29.8312    0.2400   -4.4925 C   0  0  0  0  0  0  0  0  0  0  0  0
   28.4591    0.2046   -5.0503 C   0  0  0  0  0  0  0  0  0  0  0  0
   27.6223    1.1908   -4.2694 C   0  0  2  0  0  0  0  0  0  0  0  0
   27.0559    0.4726   -3.1493 N   0  0  0  0  0  0  0  0  0  0  0  0
   26.5905    1.8372   -5.0679 C   0  0  0  0  0  0  0  0  0  0  0  0
   26.7877    2.5789   -6.0564 O   0  0  0  0  0  0  0  0  0  0  0  0
   30.8331    1.0282   -5.0362 C   0  0  0  0  0  0  0  0  0  0  0  0
   32.1169    1.0668   -4.5218 C   0  0  0  0  0  0  0  0  0  0  0  0
   25.2106    1.6249   -4.7164 N   0  0  0  0  0  0  0  0  0  0  0  0
   24.1388    2.2938   -5.3928 C   0  0  0  0  0  0  0  0  0  0  0  0
   24.3204    2.5617   -6.8051 C   0  0  0  0  0  0  0  0  0  0  0  0
   25.3230    3.2010   -7.1992 O   0  0  0  0  0  0  0  0  0  0  0  0
   23.3988    2.1220   -7.7771 N   0  0  0  0  0  0  0  0  0  0  0  0
   23.6374    2.3724   -9.1979 C   0  0  1  0  0  0  0  0  0  0  0  0
   22.9534    1.3152  -10.0561 C   0  0  0  0  0  0  0  0  0  0  0  0
   23.1353    1.5999  -11.4947 C   0  0  0  0  0  0  0  0  0  0  0  0
   24.0751    2.3640  -11.8693 O   0  0  0  0  0  0  0  0  0  0  0  0
   23.1049    3.6973   -9.5224 C   0  0  0  0  0  0  0  0  0  0  0  0
   22.0547    4.1493   -8.9693 O   0  0  0  0  0  0  0  0  0  0  0  0
   22.2926    1.0457  -12.4589 O   0  0  0  0  0  0  0  0  0  0  0  0
   23.7033    4.5488  -10.4499 O   0  0  0  0  0  0  0  0  0  0  0  0
  2  1  1  0
  2  3  2  0
  4  3  1  0
  5  4  2  0
  6  5  1  0
  6  7  1  0
  7  8  1  1
  9  7  1  0
  9 13  1  0
 10  9  2  0
 11 12  2  0
 11  5  1  0
 12  2  1  0
 14 13  1  0
 15 14  1  0
 16 15  2  0
 17 15  1  0
 18 19  1  6
 18 17  1  0
 19 20  1  0
 20 24  1  0
 21 20  2  0
 22 18  1  0
 23 22  2  0
 25 22  1  0
M  END
$$$$
