YGD.pdb
     RDKit          3D

 25 25  0  0  1  0  0  0  0  0999 V2000
   26.9571  -18.3612  -14.7935 O   0  0  0  0  0  0  0  0  0  0  0  0
   26.0959  -17.2797  -15.0113 C   0  0  0  0  0  0  0  0  0  0  0  0
   26.5598  -15.9891  -14.9476 C   0  0  0  0  0  0  0  0  0  0  0  0
   25.7249  -14.9106  -15.1598 C   0  0  0  0  0  0  0  0  0  0  0  0
   24.3941  -15.1300  -15.4422 C   0  0  0  0  0  0  0  0  0  0  0  0
   23.5020  -13.9691  -15.6688 C   0  0  0  0  0  0  0  0  0  0  0  0
   23.1457  -13.9457  -17.1368 C   0  0  2  0  0  0  0  0  0  0  0  0
   24.3792  -13.7628  -17.8694 N   0  0  0  0  0  0  0  0  0  0  0  0
   22.1633  -12.9272  -17.4799 C   0  0  0  0  0  0  0  0  0  0  0  0
   21.0226  -12.8126  -16.9780 O   0  0  0  0  0  0  0  0  0  0  0  0
   23.9399  -16.4379  -15.5034 C   0  0  0  0  0  0  0  0  0  0  0  0
   24.7662  -17.5275  -15.2927 C   0  0  0  0  0  0  0  0  0  0  0  0
   22.5023  -11.9498  -18.4811 N   0  0  0  0  0  0  0  0  0  0  0  0
   21.5536  -10.9897  -18.9629 C   0  0  0  0  0  0  0  0  0  0  0  0
   21.4810   -9.7275  -18.2554 C   0  0  0  0  0  0  0  0  0  0  0  0
   22.1133   -9.5698  -17.1855 O   0  0  0  0  0  0  0  0  0  0  0  0
   20.7147   -8.6436  -18.7305 N   0  0  0  0  0  0  0  0  0  0  0  0
   20.6872   -7.3749  -18.0040 C   0  0  1  0  0  0  0  0  0  0  0  0
   20.3062   -6.2280  -18.9322 C   0  0  0  0  0  0  0  0  0  0  0  0
   21.3766   -5.9633  -19.9162 C   0  0  0  0  0  0  0  0  0  0  0  0
   22.5810   -5.8860  -19.5278 O   0  0  0  0  0  0  0  0  0  0  0  0
   19.7038   -7.4893  -16.9252 C   0  0  0  0  0  0  0  0  0  0  0  0
   19.4801   -6.5325  -16.1204 O   0  0  0  0  0  0  0  0  0  0  0  0
   21.0937   -5.7945  -21.2721 O   0  0  0  0  0  0  0  0  0  0  0  0
   18.9505   -8.6416  -16.7047 O   0  0  0  0  0  0  0  0  0  0  0  0
  2  1  1  0
  2  3  2  0
  4  3  1  0
  5  4  2  0
  6  5  1  0
  6  7  1  0
  7  8  1  6
  9  7  1  0
  9 13  1  0
 10  9  2  0
 11 12  2  0
 11  5  1  0
 12  2  1  0
 14 13  1  0
 15 14  1  0
 16 15  2  0
 17 15  1  0
 18 19  1  6
 18 17  1  0
 19 20  1  0
 20 24  1  0
 21 20  2  0
 22 18  1  0
 23 22  2  0
 25 22  1  0
M  END
$$$$
