YGD.pdb
     RDKit          3D

 25 25  0  0  1  0  0  0  0  0999 V2000
   18.5924  -17.6012  -17.2652 O   0  0  0  0  0  0  0  0  0  0  0  0
   18.1501  -16.2898  -17.0571 C   0  0  0  0  0  0  0  0  0  0  0  0
   18.0764  -15.7666  -15.7899 C   0  0  0  0  0  0  0  0  0  0  0  0
   17.6426  -14.4755  -15.5661 C   0  0  0  0  0  0  0  0  0  0  0  0
   17.2740  -13.6901  -16.6367 C   0  0  0  0  0  0  0  0  0  0  0  0
   16.8089  -12.3050  -16.3912 C   0  0  0  0  0  0  0  0  0  0  0  0
   17.9787  -11.3800  -16.6329 C   0  0  2  0  0  0  0  0  0  0  0  0
   18.9346  -11.6201  -15.5745 N   0  0  0  0  0  0  0  0  0  0  0  0
   17.6028   -9.9753  -16.7062 C   0  0  0  0  0  0  0  0  0  0  0  0
   16.8335   -9.4670  -17.5524 O   0  0  0  0  0  0  0  0  0  0  0  0
   17.3537  -14.2313  -17.9100 C   0  0  0  0  0  0  0  0  0  0  0  0
   17.7866  -15.5237  -18.1478 C   0  0  0  0  0  0  0  0  0  0  0  0
   18.1463   -9.0630  -15.7340 N   0  0  0  0  0  0  0  0  0  0  0  0
   17.7991   -7.6728  -15.7138 C   0  0  0  0  0  0  0  0  0  0  0  0
   18.4675   -6.8441  -14.7310 C   0  0  0  0  0  0  0  0  0  0  0  0
   18.8516   -7.3411  -13.6473 O   0  0  0  0  0  0  0  0  0  0  0  0
   18.7122   -5.4726  -14.9472 N   0  0  0  0  0  0  0  0  0  0  0  0
   19.8217   -4.7982  -14.2747 C   0  0  1  0  0  0  0  0  0  0  0  0
   21.1492   -5.4593  -14.6253 C   0  0  0  0  0  0  0  0  0  0  0  0
   22.2605   -4.8582  -13.8589 C   0  0  0  0  0  0  0  0  0  0  0  0
   22.0380   -3.8611  -13.1081 O   0  0  0  0  0  0  0  0  0  0  0  0
   19.8333   -3.3992  -14.7067 C   0  0  0  0  0  0  0  0  0  0  0  0
   20.4648   -2.5057  -14.0618 O   0  0  0  0  0  0  0  0  0  0  0  0
   23.5587   -5.3631  -13.9412 O   0  0  0  0  0  0  0  0  0  0  0  0
   19.1611   -2.9508  -15.8428 O   0  0  0  0  0  0  0  0  0  0  0  0
  2  1  1  0
  2  3  2  0
  4  3  1  0
  5  4  2  0
  6  5  1  0
  6  7  1  0
  7  8  1  1
  9  7  1  0
  9 13  1  0
 10  9  2  0
 11 12  2  0
 11  5  1  0
 12  2  1  0
 14 13  1  0
 15 14  1  0
 16 15  2  0
 17 15  1  0
 18 19  1  6
 18 17  1  0
 19 20  1  0
 20 24  1  0
 21 20  2  0
 22 18  1  0
 23 22  2  0
 25 22  1  0
M  END
$$$$
