YGD.pdb
     RDKit          3D

 25 25  0  0  1  0  0  0  0  0999 V2000
   29.1024  -18.7268   -2.7738 O   0  0  0  0  0  0  0  0  0  0  0  0
   28.8385  -19.2858   -4.0294 C   0  0  0  0  0  0  0  0  0  0  0  0
   28.9383  -20.6404   -4.2298 C   0  0  0  0  0  0  0  0  0  0  0  0
   28.6817  -21.2089   -5.4611 C   0  0  0  0  0  0  0  0  0  0  0  0
   28.3166  -20.4016   -6.5165 C   0  0  0  0  0  0  0  0  0  0  0  0
   28.0424  -21.0165   -7.8363 C   0  0  0  0  0  0  0  0  0  0  0  0
   26.9809  -20.1844   -8.5169 C   0  0  2  0  0  0  0  0  0  0  0  0
   25.7831  -20.2852   -7.7128 N   0  0  0  0  0  0  0  0  0  0  0  0
   26.7332  -20.5753   -9.8975 C   0  0  0  0  0  0  0  0  0  0  0  0
   27.5797  -21.0531  -10.6857 O   0  0  0  0  0  0  0  0  0  0  0  0
   28.2197  -19.0362   -6.2996 C   0  0  0  0  0  0  0  0  0  0  0  0
   28.4743  -18.4540   -5.0706 C   0  0  0  0  0  0  0  0  0  0  0  0
   25.4077  -20.4111  -10.4348 N   0  0  0  0  0  0  0  0  0  0  0  0
   25.1183  -20.6027  -11.8253 C   0  0  0  0  0  0  0  0  0  0  0  0
   23.7298  -20.5008  -12.2263 C   0  0  0  0  0  0  0  0  0  0  0  0
   22.8709  -20.0836  -11.4155 O   0  0  0  0  0  0  0  0  0  0  0  0
   23.2939  -20.8560  -13.5191 N   0  0  0  0  0  0  0  0  0  0  0  0
   22.0361  -20.3338  -14.0515 C   0  0  1  0  0  0  0  0  0  0  0  0
   22.1805  -19.9725  -15.5248 C   0  0  0  0  0  0  0  0  0  0  0  0
   20.9139  -19.4383  -16.0671 C   0  0  0  0  0  0  0  0  0  0  0  0
   20.0175  -19.0215  -15.2733 O   0  0  0  0  0  0  0  0  0  0  0  0
   21.0102  -21.3662  -13.8908 C   0  0  0  0  0  0  0  0  0  0  0  0
   21.2443  -22.5872  -14.1503 O   0  0  0  0  0  0  0  0  0  0  0  0
   20.6769  -19.3808  -17.4410 O   0  0  0  0  0  0  0  0  0  0  0  0
   19.7180  -21.0887  -13.4469 O   0  0  0  0  0  0  0  0  0  0  0  0
  2  1  1  0
  2  3  2  0
  4  3  1  0
  5  4  2  0
  6  5  1  0
  6  7  1  0
  7  8  1  1
  9  7  1  0
  9 13  1  0
 10  9  2  0
 11 12  2  0
 11  5  1  0
 12  2  1  0
 14 13  1  0
 15 14  1  0
 16 15  2  0
 17 15  1  0
 18 19  1  6
 18 17  1  0
 19 20  1  0
 20 24  1  0
 21 20  2  0
 22 18  1  0
 23 22  2  0
 25 22  1  0
M  END
$$$$
