YGD.pdb
     RDKit          3D

 25 25  0  0  1  0  0  0  0  0999 V2000
   19.6292  -19.0470  -13.9509 O   0  0  0  0  0  0  0  0  0  0  0  0
   19.2610  -17.7383  -14.2833 C   0  0  0  0  0  0  0  0  0  0  0  0
   18.1926  -17.4986  -15.1114 C   0  0  0  0  0  0  0  0  0  0  0  0
   17.8154  -16.2147  -15.4499 C   0  0  0  0  0  0  0  0  0  0  0  0
   18.5252  -15.1459  -14.9472 C   0  0  0  0  0  0  0  0  0  0  0  0
   18.1165  -13.7698  -15.3136 C   0  0  0  0  0  0  0  0  0  0  0  0
   17.1925  -13.2634  -14.2309 C   0  0  2  0  0  0  0  0  0  0  0  0
   16.0161  -14.1045  -14.2501 N   0  0  0  0  0  0  0  0  0  0  0  0
   16.8468  -11.8563  -14.3737 C   0  0  0  0  0  0  0  0  0  0  0  0
   16.0297  -11.3833  -15.1952 O   0  0  0  0  0  0  0  0  0  0  0  0
   19.6012  -15.4030  -14.1125 C   0  0  0  0  0  0  0  0  0  0  0  0
   19.9896  -16.6848  -13.7656 C   0  0  0  0  0  0  0  0  0  0  0  0
   17.4829  -10.8973  -13.5085 N   0  0  0  0  0  0  0  0  0  0  0  0
   17.2248   -9.4911  -13.6068 C   0  0  0  0  0  0  0  0  0  0  0  0
   18.3707   -8.6258  -13.7998 C   0  0  0  0  0  0  0  0  0  0  0  0
   19.5128   -9.0102  -13.4575 O   0  0  0  0  0  0  0  0  0  0  0  0
   18.2544   -7.3423  -14.3714 N   0  0  0  0  0  0  0  0  0  0  0  0
   19.4278   -6.4820  -14.5173 C   0  0  1  0  0  0  0  0  0  0  0  0
   20.5251   -7.1918  -15.3009 C   0  0  0  0  0  0  0  0  0  0  0  0
   21.6661   -6.2875  -15.5547 C   0  0  0  0  0  0  0  0  0  0  0  0
   22.1154   -5.5649  -14.6148 O   0  0  0  0  0  0  0  0  0  0  0  0
   19.0169   -5.2678  -15.2250 C   0  0  0  0  0  0  0  0  0  0  0  0
   18.0071   -5.2524  -15.9951 O   0  0  0  0  0  0  0  0  0  0  0  0
   22.2661   -6.2074  -16.8119 O   0  0  0  0  0  0  0  0  0  0  0  0
   19.6949   -4.0553  -15.1073 O   0  0  0  0  0  0  0  0  0  0  0  0
  2  1  1  0
  2  3  2  0
  4  3  1  0
  5  4  2  0
  6  5  1  0
  6  7  1  0
  7  8  1  6
  9  7  1  0
  9 13  1  0
 10  9  2  0
 11 12  2  0
 11  5  1  0
 12  2  1  0
 14 13  1  0
 15 14  1  0
 16 15  2  0
 17 15  1  0
 18 19  1  6
 18 17  1  0
 19 20  1  0
 20 24  1  0
 21 20  2  0
 22 18  1  0
 23 22  2  0
 25 22  1  0
M  END
$$$$
