YGD.pdb
     RDKit          3D

 25 25  0  0  1  0  0  0  0  0999 V2000
   27.1203  -32.4789   10.1823 O   0  0  0  0  0  0  0  0  0  0  0  0
   27.3873  -32.7506    8.8355 C   0  0  0  0  0  0  0  0  0  0  0  0
   26.4744  -33.4222    8.0606 C   0  0  0  0  0  0  0  0  0  0  0  0
   26.7209  -33.6987    6.7309 C   0  0  0  0  0  0  0  0  0  0  0  0
   27.9096  -33.2929    6.1642 C   0  0  0  0  0  0  0  0  0  0  0  0
   28.1696  -33.5922    4.7367 C   0  0  0  0  0  0  0  0  0  0  0  0
   27.9309  -32.3232    3.9524 C   0  0  2  0  0  0  0  0  0  0  0  0
   26.5006  -32.1923    3.7831 N   0  0  0  0  0  0  0  0  0  0  0  0
   28.6265  -32.2913    2.6737 C   0  0  0  0  0  0  0  0  0  0  0  0
   29.8644  -32.1960    2.5164 O   0  0  0  0  0  0  0  0  0  0  0  0
   28.8215  -32.6159    6.9584 C   0  0  0  0  0  0  0  0  0  0  0  0
   28.5868  -32.3327    8.2922 C   0  0  0  0  0  0  0  0  0  0  0  0
   27.8514  -32.3751    1.4633 N   0  0  0  0  0  0  0  0  0  0  0  0
   28.4620  -32.5003    0.1728 C   0  0  0  0  0  0  0  0  0  0  0  0
   28.5544  -33.8355   -0.3821 C   0  0  0  0  0  0  0  0  0  0  0  0
   28.0873  -34.8117    0.2488 O   0  0  0  0  0  0  0  0  0  0  0  0
   29.1585  -34.0894   -1.6304 N   0  0  0  0  0  0  0  0  0  0  0  0
   29.1784  -35.4410   -2.1879 C   0  0  1  0  0  0  0  0  0  0  0  0
   29.8605  -36.4111   -1.2309 C   0  0  0  0  0  0  0  0  0  0  0  0
   29.7989  -37.7953   -1.7446 C   0  0  0  0  0  0  0  0  0  0  0  0
   29.8823  -38.0061   -2.9920 O   0  0  0  0  0  0  0  0  0  0  0  0
   27.7940  -35.8594   -2.4173 C   0  0  0  0  0  0  0  0  0  0  0  0
   27.5067  -37.0322   -2.8109 O   0  0  0  0  0  0  0  0  0  0  0  0
   29.6497  -38.8848   -0.8856 O   0  0  0  0  0  0  0  0  0  0  0  0
   26.7038  -35.0124   -2.2231 O   0  0  0  0  0  0  0  0  0  0  0  0
  2  1  1  0
  2  3  2  0
  4  3  1  0
  5  4  2  0
  6  5  1  0
  6  7  1  0
  7  8  1  6
  9  7  1  0
  9 13  1  0
 10  9  2  0
 11 12  2  0
 11  5  1  0
 12  2  1  0
 14 13  1  0
 15 14  1  0
 16 15  2  0
 17 15  1  0
 18 19  1  1
 18 17  1  0
 19 20  1  0
 20 24  1  0
 21 20  2  0
 22 18  1  0
 23 22  2  0
 25 22  1  0
M  END
$$$$
