VFK.pdb
     RDKit          3D

 28 28  0  0  1  0  0  0  0  0999 V2000
    7.8168  -18.5299   18.4297 C   0  0  0  0  0  0  0  0  0  0  0  0
    8.2461  -18.0264   19.7908 C   0  0  2  0  0  0  0  0  0  0  0  0
    7.0883  -18.3050   20.7352 C   0  0  0  0  0  0  0  0  0  0  0  0
    8.5045  -16.5442   19.7147 C   0  0  2  0  0  0  0  0  0  0  0  0
    9.5836  -16.2478   18.8014 N   0  0  0  0  0  0  0  0  0  0  0  0
    8.7991  -15.9441   21.0272 C   0  0  0  0  0  0  0  0  0  0  0  0
    9.9671  -16.0700   21.4812 O   0  0  0  0  0  0  0  0  0  0  0  0
    7.8706  -15.2392   21.8127 N   0  0  0  0  0  0  0  0  0  0  0  0
    8.1476  -14.7448   23.1611 C   0  0  1  0  0  0  0  0  0  0  0  0
    7.0514  -13.7853   23.4911 C   0  0  0  0  0  0  0  0  0  0  0  0
    7.1261  -13.2867   24.8760 C   0  0  0  0  0  0  0  0  0  0  0  0
    8.0644  -12.3476   25.3009 C   0  0  0  0  0  0  0  0  0  0  0  0
    8.1049  -11.8989   26.6143 C   0  0  0  0  0  0  0  0  0  0  0  0
    7.2068  -12.3844   27.5199 C   0  0  0  0  0  0  0  0  0  0  0  0
    6.2778  -13.3119   27.1065 C   0  0  0  0  0  0  0  0  0  0  0  0
    6.2197  -13.7701   25.8106 C   0  0  0  0  0  0  0  0  0  0  0  0
    8.3185  -15.8480   24.1187 C   0  0  0  0  0  0  0  0  0  0  0  0
    7.3650  -16.6377   24.3393 O   0  0  0  0  0  0  0  0  0  0  0  0
    9.5525  -16.0114   24.7825 N   0  0  0  0  0  0  0  0  0  0  0  0
    9.8070  -17.1268   25.6986 C   0  0  1  0  0  0  0  0  0  0  0  0
   10.9919  -17.9164   25.1888 C   0  0  0  0  0  0  0  0  0  0  0  0
   11.4308  -19.0314   26.0621 C   0  0  0  0  0  0  0  0  0  0  0  0
   12.6393  -19.7428   25.4933 C   0  0  0  0  0  0  0  0  0  0  0  0
   13.0880  -20.8659   26.3671 C   0  0  0  0  0  0  0  0  0  0  0  0
   14.0940  -21.6875   25.7149 N   0  0  0  0  0  0  0  0  0  0  0  0
    9.9434  -16.6533   27.0842 C   0  0  0  0  0  0  0  0  0  0  0  0
    9.4585  -17.2193   28.0887 O   0  0  0  0  0  0  0  0  0  0  0  0
   10.6660  -15.4746   27.3671 O   0  0  0  0  0  0  0  0  0  0  0  0
  2  1  1  6
  3  2  1  0
  4  2  1  0
  4  5  1  6
  6  7  2  0
  6  4  1  0
  8  6  1  0
  9  8  1  0
  9 10  1  1
 10 11  1  0
 11 16  2  0
 11 12  1  0
 12 13  2  0
 13 14  1  0
 15 14  2  0
 16 15  1  0
 17  9  1  0
 18 17  2  0
 19 17  1  0
 20 21  1  6
 20 19  1  0
 21 22  1  0
 22 23  1  0
 23 24  1  0
 25 24  1  0
 26 28  1  0
 26 20  1  0
 27 26  2  0
M  END
$$$$
