VFK.pdb
     RDKit          3D

 28 28  0  0  1  0  0  0  0  0999 V2000
    8.0207  -18.6051   18.6405 C   0  0  0  0  0  0  0  0  0  0  0  0
    8.4046  -18.0186   19.9818 C   0  0  2  0  0  0  0  0  0  0  0  0
    7.2816  -18.3748   20.9420 C   0  0  0  0  0  0  0  0  0  0  0  0
    8.5203  -16.5218   19.8560 C   0  0  2  0  0  0  0  0  0  0  0  0
    9.5422  -16.1546   18.9036 N   0  0  0  0  0  0  0  0  0  0  0  0
    8.7915  -15.8563   21.1417 C   0  0  0  0  0  0  0  0  0  0  0  0
    9.9697  -15.8941   21.5849 O   0  0  0  0  0  0  0  0  0  0  0  0
    7.8300  -15.1802   21.9127 N   0  0  0  0  0  0  0  0  0  0  0  0
    8.0827  -14.6440   23.2499 C   0  0  1  0  0  0  0  0  0  0  0  0
    6.9244  -13.7585   23.5743 C   0  0  0  0  0  0  0  0  0  0  0  0
    6.9811  -13.2230   24.9462 C   0  0  0  0  0  0  0  0  0  0  0  0
    6.1463  -13.6610   25.9729 C   0  0  0  0  0  0  0  0  0  0  0  0
    6.2284  -13.1346   27.2551 C   0  0  0  0  0  0  0  0  0  0  0  0
    7.1471  -12.1627   27.5266 C   0  0  0  0  0  0  0  0  0  0  0  0
    7.9743  -11.7259   26.5170 C   0  0  0  0  0  0  0  0  0  0  0  0
    7.9102  -12.2335   25.2399 C   0  0  0  0  0  0  0  0  0  0  0  0
    8.3392  -15.7155   24.2242 C   0  0  0  0  0  0  0  0  0  0  0  0
    7.4469  -16.5683   24.4650 O   0  0  0  0  0  0  0  0  0  0  0  0
    9.5860  -15.7779   24.8814 N   0  0  0  0  0  0  0  0  0  0  0  0
    9.9381  -16.8728   25.7898 C   0  0  1  0  0  0  0  0  0  0  0  0
   11.0801  -17.6596   25.1862 C   0  0  0  0  0  0  0  0  0  0  0  0
   10.7852  -18.3017   23.8828 C   0  0  0  0  0  0  0  0  0  0  0  0
   11.9884  -19.0429   23.3413 C   0  0  0  0  0  0  0  0  0  0  0  0
   11.6775  -19.7569   22.0686 C   0  0  0  0  0  0  0  0  0  0  0  0
   12.8341  -20.4719   21.5554 N   0  0  0  0  0  0  0  0  0  0  0  0
   10.1971  -16.3714   27.1479 C   0  0  0  0  0  0  0  0  0  0  0  0
    9.9491  -16.9941   28.2040 O   0  0  0  0  0  0  0  0  0  0  0  0
   10.7684  -15.0954   27.3400 O   0  0  0  0  0  0  0  0  0  0  0  0
  2  1  1  6
  3  2  1  0
  4  2  1  0
  4  5  1  6
  6  7  2  0
  6  4  1  0
  8  6  1  0
  9  8  1  0
  9 10  1  1
 10 11  1  0
 11 16  2  0
 11 12  1  0
 12 13  2  0
 13 14  1  0
 15 14  2  0
 16 15  1  0
 17  9  1  0
 18 17  2  0
 19 17  1  0
 20 21  1  6
 20 19  1  0
 21 22  1  0
 22 23  1  0
 23 24  1  0
 25 24  1  0
 26 28  1  0
 26 20  1  0
 27 26  2  0
M  END
$$$$
