VFK.pdb
     RDKit          3D

 28 28  0  0  1  0  0  0  0  0999 V2000
   10.4597  -17.4126   18.4175 C   0  0  0  0  0  0  0  0  0  0  0  0
   10.7801  -16.8055   19.7663 C   0  0  2  0  0  0  0  0  0  0  0  0
   12.0964  -17.4215   20.2113 C   0  0  0  0  0  0  0  0  0  0  0  0
    9.6891  -17.1586   20.7432 C   0  0  2  0  0  0  0  0  0  0  0  0
    8.3925  -17.1432   20.1069 N   0  0  0  0  0  0  0  0  0  0  0  0
    9.6638  -16.2743   21.9208 C   0  0  0  0  0  0  0  0  0  0  0  0
   10.7567  -16.0368   22.4999 O   0  0  0  0  0  0  0  0  0  0  0  0
    8.5070  -15.6741   22.4478 N   0  0  0  0  0  0  0  0  0  0  0  0
    8.4590  -14.9781   23.7333 C   0  0  1  0  0  0  0  0  0  0  0  0
    7.2448  -14.1090   23.6966 C   0  0  0  0  0  0  0  0  0  0  0  0
    7.0149  -13.3944   24.9649 C   0  0  0  0  0  0  0  0  0  0  0  0
    6.1453  -13.8521   25.9534 C   0  0  0  0  0  0  0  0  0  0  0  0
    5.9540  -13.1532   27.1378 C   0  0  0  0  0  0  0  0  0  0  0  0
    6.6304  -11.9868   27.3484 C   0  0  0  0  0  0  0  0  0  0  0  0
    7.4905  -11.5296   26.3760 C   0  0  0  0  0  0  0  0  0  0  0  0
    7.6952  -12.2059   25.1956 C   0  0  0  0  0  0  0  0  0  0  0  0
    8.5169  -15.9194   24.8620 C   0  0  0  0  0  0  0  0  0  0  0  0
    7.6955  -16.8695   24.9265 O   0  0  0  0  0  0  0  0  0  0  0  0
    9.4949  -15.7486   25.8643 N   0  0  0  0  0  0  0  0  0  0  0  0
    9.9077  -16.8411   26.7497 C   0  0  1  0  0  0  0  0  0  0  0  0
   10.6845  -17.8568   25.9421 C   0  0  0  0  0  0  0  0  0  0  0  0
   11.1914  -19.0198   26.7095 C   0  0  0  0  0  0  0  0  0  0  0  0
   11.8799  -20.0239   25.8106 C   0  0  0  0  0  0  0  0  0  0  0  0
   12.3776  -21.2059   26.5730 C   0  0  0  0  0  0  0  0  0  0  0  0
   12.8627  -22.2524   25.6887 N   0  0  0  0  0  0  0  0  0  0  0  0
   10.6224  -16.3267   27.9275 C   0  0  0  0  0  0  0  0  0  0  0  0
   10.9412  -17.0054   28.9286 O   0  0  0  0  0  0  0  0  0  0  0  0
   11.0055  -14.9700   27.9928 O   0  0  0  0  0  0  0  0  0  0  0  0
  2  1  1  6
  3  2  1  0
  4  2  1  0
  4  5  1  6
  6  7  2  0
  6  4  1  0
  8  6  1  0
  9  8  1  0
  9 10  1  6
 10 11  1  0
 11 16  2  0
 11 12  1  0
 12 13  2  0
 13 14  1  0
 15 14  2  0
 16 15  1  0
 17  9  1  0
 18 17  2  0
 19 17  1  0
 20 21  1  6
 20 19  1  0
 21 22  1  0
 22 23  1  0
 23 24  1  0
 25 24  1  0
 26 28  1  0
 26 20  1  0
 27 26  2  0
M  END
$$$$
