VFK.pdb
     RDKit          3D

 28 28  0  0  1  0  0  0  0  0999 V2000
    9.6884  -18.8722   20.8294 C   0  0  0  0  0  0  0  0  0  0  0  0
    8.6064  -18.0512   20.1617 C   0  0  2  0  0  0  0  0  0  0  0  0
    8.3767  -18.6759   18.7953 C   0  0  0  0  0  0  0  0  0  0  0  0
    9.0837  -16.6309   20.0058 C   0  0  2  0  0  0  0  0  0  0  0  0
   10.3318  -16.5753   19.2809 N   0  0  0  0  0  0  0  0  0  0  0  0
    9.2369  -15.9316   21.2930 C   0  0  0  0  0  0  0  0  0  0  0  0
   10.3887  -15.8812   21.8000 O   0  0  0  0  0  0  0  0  0  0  0  0
    8.1900  -15.3146   21.9995 N   0  0  0  0  0  0  0  0  0  0  0  0
    8.3309  -14.7450   23.3394 C   0  0  1  0  0  0  0  0  0  0  0  0
    7.1243  -13.8937   23.5640 C   0  0  0  0  0  0  0  0  0  0  0  0
    7.0911  -13.2932   24.9096 C   0  0  0  0  0  0  0  0  0  0  0  0
    6.2316  -13.7249   25.9183 C   0  0  0  0  0  0  0  0  0  0  0  0
    6.2284  -13.1363   27.1759 C   0  0  0  0  0  0  0  0  0  0  0  0
    7.0854  -12.1077   27.4404 C   0  0  0  0  0  0  0  0  0  0  0  0
    7.9365  -11.6768   26.4483 C   0  0  0  0  0  0  0  0  0  0  0  0
    7.9565  -12.2455   25.1957 C   0  0  0  0  0  0  0  0  0  0  0  0
    8.5536  -15.7887   24.3515 C   0  0  0  0  0  0  0  0  0  0  0  0
    7.7463  -16.7481   24.4484 O   0  0  0  0  0  0  0  0  0  0  0  0
    9.6727  -15.7048   25.2064 N   0  0  0  0  0  0  0  0  0  0  0  0
   10.0452  -16.7909   26.1173 C   0  0  1  0  0  0  0  0  0  0  0  0
   11.2528  -17.5070   25.5548 C   0  0  0  0  0  0  0  0  0  0  0  0
   10.9649  -18.7935   24.8763 C   0  0  0  0  0  0  0  0  0  0  0  0
   12.2244  -19.4296   24.3293 C   0  0  0  0  0  0  0  0  0  0  0  0
   11.9593  -20.7738   23.7386 C   0  0  0  0  0  0  0  0  0  0  0  0
   13.1662  -21.3689   23.1895 N   0  0  0  0  0  0  0  0  0  0  0  0
   10.2188  -16.2940   27.4905 C   0  0  0  0  0  0  0  0  0  0  0  0
   10.0910  -16.9834   28.5264 O   0  0  0  0  0  0  0  0  0  0  0  0
   10.5560  -14.9436   27.7229 O   0  0  0  0  0  0  0  0  0  0  0  0
  2  1  1  6
  3  2  1  0
  4  2  1  0
  4  5  1  1
  6  7  2  0
  6  4  1  0
  8  6  1  0
  9  8  1  0
  9 10  1  1
 10 11  1  0
 11 16  2  0
 11 12  1  0
 12 13  2  0
 13 14  1  0
 15 14  2  0
 16 15  1  0
 17  9  1  0
 18 17  2  0
 19 17  1  0
 20 21  1  6
 20 19  1  0
 21 22  1  0
 22 23  1  0
 23 24  1  0
 25 24  1  0
 26 28  1  0
 26 20  1  0
 27 26  2  0
M  END
$$$$
