VFK.pdb
     RDKit          3D

 28 28  0  0  1  0  0  0  0  0999 V2000
    8.7432  -18.7135   20.6049 C   0  0  0  0  0  0  0  0  0  0  0  0
    7.8538  -17.6764   19.9538 C   0  0  2  0  0  0  0  0  0  0  0  0
    7.5623  -18.1825   18.5507 C   0  0  0  0  0  0  0  0  0  0  0  0
    8.5880  -16.3626   19.8861 C   0  0  2  0  0  0  0  0  0  0  0  0
    9.8350  -16.4968   19.1698 N   0  0  0  0  0  0  0  0  0  0  0  0
    8.8496  -15.7814   21.2140 C   0  0  0  0  0  0  0  0  0  0  0  0
    9.9719  -16.0030   21.7407 O   0  0  0  0  0  0  0  0  0  0  0  0
    7.9369  -14.9956   21.9389 N   0  0  0  0  0  0  0  0  0  0  0  0
    8.1585  -14.5399   23.3110 C   0  0  1  0  0  0  0  0  0  0  0  0
    7.0322  -13.6135   23.6340 C   0  0  0  0  0  0  0  0  0  0  0  0
    7.0644  -13.1394   25.0291 C   0  0  0  0  0  0  0  0  0  0  0  0
    7.9830  -12.2012   25.4966 C   0  0  0  0  0  0  0  0  0  0  0  0
    7.9835  -11.7759   26.8183 C   0  0  0  0  0  0  0  0  0  0  0  0
    7.0644  -12.2842   27.6897 C   0  0  0  0  0  0  0  0  0  0  0  0
    6.1546  -13.2110   27.2341 C   0  0  0  0  0  0  0  0  0  0  0  0
    6.1362  -13.6462   25.9292 C   0  0  0  0  0  0  0  0  0  0  0  0
    8.3204  -15.6701   24.2382 C   0  0  0  0  0  0  0  0  0  0  0  0
    7.4734  -16.5996   24.2448 O   0  0  0  0  0  0  0  0  0  0  0  0
    9.4263  -15.7022   25.1135 N   0  0  0  0  0  0  0  0  0  0  0  0
    9.8033  -16.9090   25.8546 C   0  0  1  0  0  0  0  0  0  0  0  0
   10.2593  -17.9634   24.8708 C   0  0  0  0  0  0  0  0  0  0  0  0
   10.7110  -19.2391   25.4765 C   0  0  0  0  0  0  0  0  0  0  0  0
   11.0767  -20.2593   24.4201 C   0  0  0  0  0  0  0  0  0  0  0  0
   11.5916  -21.5243   25.0208 C   0  0  0  0  0  0  0  0  0  0  0  0
   11.8023  -22.5519   24.0149 N   0  0  0  0  0  0  0  0  0  0  0  0
   10.7805  -16.5992   26.9091 C   0  0  0  0  0  0  0  0  0  0  0  0
   11.6288  -15.6815   26.8565 O   0  0  0  0  0  0  0  0  0  0  0  0
   10.8134  -17.3607   28.0968 O   0  0  0  0  0  0  0  0  0  0  0  0
  2  1  1  6
  3  2  1  0
  4  2  1  0
  4  5  1  1
  6  7  2  0
  6  4  1  0
  8  6  1  0
  9  8  1  0
  9 10  1  1
 10 11  1  0
 11 16  2  0
 11 12  1  0
 12 13  2  0
 13 14  1  0
 15 14  2  0
 16 15  1  0
 17  9  1  0
 18 17  2  0
 19 17  1  0
 20 21  1  6
 20 19  1  0
 21 22  1  0
 22 23  1  0
 23 24  1  0
 25 24  1  0
 26 28  1  0
 26 20  1  0
 27 26  2  0
M  END
$$$$
