VFK.pdb
     RDKit          3D

 28 28  0  0  1  0  0  0  0  0999 V2000
    7.3465  -14.4617   18.0519 C   0  0  0  0  0  0  0  0  0  0  0  0
    8.0047  -14.9007   19.3421 C   0  0  2  0  0  0  0  0  0  0  0  0
    7.3168  -16.1911   19.7563 C   0  0  0  0  0  0  0  0  0  0  0  0
    7.7935  -13.8430   20.3938 C   0  0  2  0  0  0  0  0  0  0  0  0
    8.3489  -12.5756   19.9798 N   0  0  0  0  0  0  0  0  0  0  0  0
    8.3541  -14.2153   21.7040 C   0  0  0  0  0  0  0  0  0  0  0  0
    9.5911  -14.0565   21.8795 O   0  0  0  0  0  0  0  0  0  0  0  0
    7.6087  -14.7361   22.7760 N   0  0  0  0  0  0  0  0  0  0  0  0
    8.1887  -15.1384   24.0571 C   0  0  1  0  0  0  0  0  0  0  0  0
    7.1134  -14.9648   25.0791 C   0  0  0  0  0  0  0  0  0  0  0  0
    7.0577  -13.5963   25.6234 C   0  0  0  0  0  0  0  0  0  0  0  0
    8.1883  -12.8867   26.0248 C   0  0  0  0  0  0  0  0  0  0  0  0
    8.0987  -11.5974   26.5323 C   0  0  0  0  0  0  0  0  0  0  0  0
    6.8763  -11.0012   26.6447 C   0  0  0  0  0  0  0  0  0  0  0  0
    5.7561  -11.6967   26.2500 C   0  0  0  0  0  0  0  0  0  0  0  0
    5.8218  -12.9746   25.7446 C   0  0  0  0  0  0  0  0  0  0  0  0
    8.7709  -16.4873   23.9891 C   0  0  0  0  0  0  0  0  0  0  0  0
    8.0684  -17.4522   23.5930 O   0  0  0  0  0  0  0  0  0  0  0  0
   10.1147  -16.6878   24.3690 N   0  0  0  0  0  0  0  0  0  0  0  0
   10.7661  -17.9977   24.2808 C   0  0  1  0  0  0  0  0  0  0  0  0
   12.0106  -17.8676   23.4312 C   0  0  0  0  0  0  0  0  0  0  0  0
   12.7622  -19.1273   23.2150 C   0  0  0  0  0  0  0  0  0  0  0  0
   14.0010  -18.9005   22.3757 C   0  0  0  0  0  0  0  0  0  0  0  0
   14.7148  -20.1766   22.0787 C   0  0  0  0  0  0  0  0  0  0  0  0
   15.9569  -19.9448   21.3605 N   0  0  0  0  0  0  0  0  0  0  0  0
   10.9999  -18.5638   25.6178 C   0  0  0  0  0  0  0  0  0  0  0  0
   11.3805  -19.7330   25.8474 O   0  0  0  0  0  0  0  0  0  0  0  0
   10.7964  -17.7764   26.7711 O   0  0  0  0  0  0  0  0  0  0  0  0
  2  1  1  6
  3  2  1  0
  4  2  1  0
  4  5  1  6
  6  7  2  0
  6  4  1  0
  8  6  1  0
  9  8  1  0
  9 10  1  1
 10 11  1  0
 11 16  2  0
 11 12  1  0
 12 13  2  0
 13 14  1  0
 15 14  2  0
 16 15  1  0
 17  9  1  0
 18 17  2  0
 19 17  1  0
 20 21  1  1
 20 19  1  0
 21 22  1  0
 22 23  1  0
 23 24  1  0
 25 24  1  0
 26 28  1  0
 26 20  1  0
 27 26  2  0
M  END
$$$$
