VFK.pdb
     RDKit          3D

 28 28  0  0  1  0  0  0  0  0999 V2000
    7.7044  -21.1201   24.2006 C   0  0  0  0  0  0  0  0  0  0  0  0
    6.2233  -20.8209   24.2860 C   0  0  2  0  0  0  0  0  0  0  0  0
    5.5045  -22.1073   23.9139 C   0  0  0  0  0  0  0  0  0  0  0  0
    5.8773  -19.7337   23.3024 C   0  0  2  0  0  0  0  0  0  0  0  0
    6.1382  -20.1539   21.9453 N   0  0  0  0  0  0  0  0  0  0  0  0
    6.5897  -18.4718   23.5665 C   0  0  0  0  0  0  0  0  0  0  0  0
    7.6974  -18.2925   22.9948 O   0  0  0  0  0  0  0  0  0  0  0  0
    6.1234  -17.4500   24.4118 N   0  0  0  0  0  0  0  0  0  0  0  0
    6.9469  -16.3356   24.8801 C   0  0  1  0  0  0  0  0  0  0  0  0
    6.0197  -15.3852   25.5643 C   0  0  0  0  0  0  0  0  0  0  0  0
    6.7000  -14.1694   26.0449 C   0  0  0  0  0  0  0  0  0  0  0  0
    6.0509  -13.1596   26.7532 C   0  0  0  0  0  0  0  0  0  0  0  0
    6.7241  -12.0273   27.1923 C   0  0  0  0  0  0  0  0  0  0  0  0
    8.0560  -11.8909   26.9282 C   0  0  0  0  0  0  0  0  0  0  0  0
    8.7026  -12.8846   26.2291 C   0  0  0  0  0  0  0  0  0  0  0  0
    8.0553  -14.0144   25.7849 C   0  0  0  0  0  0  0  0  0  0  0  0
    8.0757  -16.8025   25.6995 C   0  0  0  0  0  0  0  0  0  0  0  0
    7.8599  -17.5139   26.7137 O   0  0  0  0  0  0  0  0  0  0  0  0
    9.3930  -16.4479   25.3401 N   0  0  0  0  0  0  0  0  0  0  0  0
   10.5673  -17.0846   25.9432 C   0  0  1  0  0  0  0  0  0  0  0  0
   11.6441  -17.2199   24.8898 C   0  0  0  0  0  0  0  0  0  0  0  0
   12.8984  -17.8642   25.3479 C   0  0  0  0  0  0  0  0  0  0  0  0
   13.7968  -18.2255   24.1849 C   0  0  0  0  0  0  0  0  0  0  0  0
   15.0739  -18.8491   24.6392 C   0  0  0  0  0  0  0  0  0  0  0  0
   15.9569  -19.1435   23.5231 N   0  0  0  0  0  0  0  0  0  0  0  0
   10.9915  -16.3709   27.1571 C   0  0  0  0  0  0  0  0  0  0  0  0
   11.2766  -16.9131   28.2476 O   0  0  0  0  0  0  0  0  0  0  0  0
   11.1047  -14.9643   27.1544 O   0  0  0  0  0  0  0  0  0  0  0  0
  2  1  1  6
  3  2  1  0
  4  2  1  0
  4  5  1  6
  6  7  2  0
  6  4  1  0
  8  6  1  0
  9  8  1  0
  9 10  1  1
 10 11  1  0
 11 16  2  0
 11 12  1  0
 12 13  2  0
 13 14  1  0
 15 14  2  0
 16 15  1  0
 17  9  1  0
 18 17  2  0
 19 17  1  0
 20 21  1  6
 20 19  1  0
 21 22  1  0
 22 23  1  0
 23 24  1  0
 25 24  1  0
 26 28  1  0
 26 20  1  0
 27 26  2  0
M  END
$$$$
