VFK.pdb
     RDKit          3D

 28 28  0  0  1  0  0  0  0  0999 V2000
    9.5308  -19.1462   21.2255 C   0  0  0  0  0  0  0  0  0  0  0  0
    8.5648  -18.2727   20.4544 C   0  0  2  0  0  0  0  0  0  0  0  0
    8.4044  -18.9157   19.0867 C   0  0  0  0  0  0  0  0  0  0  0  0
    9.1488  -16.8916   20.3099 C   0  0  2  0  0  0  0  0  0  0  0  0
   10.4313  -16.9330   19.6466 N   0  0  0  0  0  0  0  0  0  0  0  0
    9.2890  -16.1894   21.5970 C   0  0  0  0  0  0  0  0  0  0  0  0
   10.4197  -16.2011   22.1517 O   0  0  0  0  0  0  0  0  0  0  0  0
    8.2516  -15.5051   22.2538 N   0  0  0  0  0  0  0  0  0  0  0  0
    8.3823  -14.8957   23.5771 C   0  0  1  0  0  0  0  0  0  0  0  0
    7.2156  -13.9764   23.7344 C   0  0  0  0  0  0  0  0  0  0  0  0
    7.1479  -13.3628   25.0727 C   0  0  0  0  0  0  0  0  0  0  0  0
    6.1037  -13.5922   25.9669 C   0  0  0  0  0  0  0  0  0  0  0  0
    6.0731  -12.9978   27.2213 C   0  0  0  0  0  0  0  0  0  0  0  0
    7.0873  -12.1658   27.5973 C   0  0  0  0  0  0  0  0  0  0  0  0
    8.1213  -11.9352   26.7187 C   0  0  0  0  0  0  0  0  0  0  0  0
    8.1718  -12.5135   25.4714 C   0  0  0  0  0  0  0  0  0  0  0  0
    8.5202  -15.9123   24.6310 C   0  0  0  0  0  0  0  0  0  0  0  0
    7.6424  -16.8037   24.7586 O   0  0  0  0  0  0  0  0  0  0  0  0
    9.6380  -15.8792   25.4911 N   0  0  0  0  0  0  0  0  0  0  0  0
   10.0063  -17.0154   26.3403 C   0  0  1  0  0  0  0  0  0  0  0  0
   11.0592  -17.8355   25.6286 C   0  0  0  0  0  0  0  0  0  0  0  0
   11.5354  -19.0298   26.3670 C   0  0  0  0  0  0  0  0  0  0  0  0
   12.6133  -19.7658   25.6012 C   0  0  0  0  0  0  0  0  0  0  0  0
   13.1179  -20.9534   26.3504 C   0  0  0  0  0  0  0  0  0  0  0  0
   13.9419  -21.8089   25.5128 N   0  0  0  0  0  0  0  0  0  0  0  0
   10.3932  -16.5669   27.6864 C   0  0  0  0  0  0  0  0  0  0  0  0
   10.5976  -17.3195   28.6643 O   0  0  0  0  0  0  0  0  0  0  0  0
   10.5626  -15.1926   27.9588 O   0  0  0  0  0  0  0  0  0  0  0  0
  2  1  1  1
  3  2  1  0
  4  2  1  0
  4  5  1  1
  6  7  2  0
  6  4  1  0
  8  6  1  0
  9  8  1  0
  9 10  1  1
 10 11  1  0
 11 16  2  0
 11 12  1  0
 12 13  2  0
 13 14  1  0
 15 14  2  0
 16 15  1  0
 17  9  1  0
 18 17  2  0
 19 17  1  0
 20 21  1  6
 20 19  1  0
 21 22  1  0
 22 23  1  0
 23 24  1  0
 25 24  1  0
 26 28  1  0
 26 20  1  0
 27 26  2  0
M  END
$$$$
