VFK.pdb
     RDKit          3D

 28 28  0  0  1  0  0  0  0  0999 V2000
    7.5485  -12.4335   19.3102 C   0  0  0  0  0  0  0  0  0  0  0  0
    8.5919  -13.3368   18.6890 C   0  0  2  0  0  0  0  0  0  0  0  0
    8.1764  -13.5383   17.2410 C   0  0  0  0  0  0  0  0  0  0  0  0
    8.6003  -14.6584   19.4119 C   0  0  2  0  0  0  0  0  0  0  0  0
    7.3812  -15.3945   19.1701 N   0  0  0  0  0  0  0  0  0  0  0  0
    8.8041  -14.5180   20.8639 C   0  0  0  0  0  0  0  0  0  0  0  0
    9.9674  -14.2588   21.2707 O   0  0  0  0  0  0  0  0  0  0  0  0
    7.7935  -14.6522   21.8317 N   0  0  0  0  0  0  0  0  0  0  0  0
    8.0066  -14.4732   23.2677 C   0  0  1  0  0  0  0  0  0  0  0  0
    6.8131  -13.7366   23.7818 C   0  0  0  0  0  0  0  0  0  0  0  0
    6.9444  -13.3542   25.1990 C   0  0  0  0  0  0  0  0  0  0  0  0
    7.6626  -12.2388   25.6265 C   0  0  0  0  0  0  0  0  0  0  0  0
    7.7641  -11.9075   26.9711 C   0  0  0  0  0  0  0  0  0  0  0  0
    7.1481  -12.6882   27.9056 C   0  0  0  0  0  0  0  0  0  0  0  0
    6.4374  -13.7910   27.4897 C   0  0  0  0  0  0  0  0  0  0  0  0
    6.3237  -14.1377   26.1632 C   0  0  0  0  0  0  0  0  0  0  0  0
    8.2851  -15.7523   23.9382 C   0  0  0  0  0  0  0  0  0  0  0  0
    7.4958  -16.7202   23.7910 O   0  0  0  0  0  0  0  0  0  0  0  0
    9.4372  -15.8830   24.7418 N   0  0  0  0  0  0  0  0  0  0  0  0
    9.8682  -17.1727   25.2884 C   0  0  1  0  0  0  0  0  0  0  0  0
   10.9810  -17.7218   24.4238 C   0  0  0  0  0  0  0  0  0  0  0  0
   11.5838  -18.9899   24.9001 C   0  0  0  0  0  0  0  0  0  0  0  0
   12.6907  -19.4608   23.9818 C   0  0  0  0  0  0  0  0  0  0  0  0
   13.2062  -20.8051   24.3731 C   0  0  0  0  0  0  0  0  0  0  0  0
   14.0980  -21.3547   23.3657 N   0  0  0  0  0  0  0  0  0  0  0  0
   10.2082  -17.0564   26.7144 C   0  0  0  0  0  0  0  0  0  0  0  0
   10.6468  -17.9857   27.4275 O   0  0  0  0  0  0  0  0  0  0  0  0
   10.0488  -15.8262   27.3874 O   0  0  0  0  0  0  0  0  0  0  0  0
  2  1  1  1
  3  2  1  0
  4  2  1  0
  4  5  1  1
  6  7  2  0
  6  4  1  0
  8  6  1  0
  9  8  1  0
  9 10  1  1
 10 11  1  0
 11 16  2  0
 11 12  1  0
 12 13  2  0
 13 14  1  0
 15 14  2  0
 16 15  1  0
 17  9  1  0
 18 17  2  0
 19 17  1  0
 20 21  1  6
 20 19  1  0
 21 22  1  0
 22 23  1  0
 23 24  1  0
 25 24  1  0
 26 28  1  0
 26 20  1  0
 27 26  2  0
M  END
$$$$
