VFK.pdb
     RDKit          3D

 28 28  0  0  1  0  0  0  0  0999 V2000
    6.8896  -13.3486   18.9329 C   0  0  0  0  0  0  0  0  0  0  0  0
    7.5933  -13.2958   20.2718 C   0  0  2  0  0  0  0  0  0  0  0  0
    8.8425  -12.4549   20.0661 C   0  0  0  0  0  0  0  0  0  0  0  0
    7.9744  -14.6921   20.6895 C   0  0  2  0  0  0  0  0  0  0  0  0
    6.8064  -15.5255   20.8552 N   0  0  0  0  0  0  0  0  0  0  0  0
    8.7744  -14.7240   21.9258 C   0  0  0  0  0  0  0  0  0  0  0  0
    9.9697  -14.3325   21.8616 O   0  0  0  0  0  0  0  0  0  0  0  0
    8.3012  -15.1602   23.1756 N   0  0  0  0  0  0  0  0  0  0  0  0
    9.1011  -15.1572   24.4001 C   0  0  1  0  0  0  0  0  0  0  0  0
    8.2010  -14.6743   25.4899 C   0  0  0  0  0  0  0  0  0  0  0  0
    8.8988  -14.5128   26.7779 C   0  0  0  0  0  0  0  0  0  0  0  0
    9.0905  -15.5580   27.6798 C   0  0  0  0  0  0  0  0  0  0  0  0
    9.7543  -15.3698   28.8848 C   0  0  0  0  0  0  0  0  0  0  0  0
   10.2350  -14.1329   29.2029 C   0  0  0  0  0  0  0  0  0  0  0  0
   10.0488  -13.0966   28.3164 C   0  0  0  0  0  0  0  0  0  0  0  0
    9.3944  -13.2607   27.1175 C   0  0  0  0  0  0  0  0  0  0  0  0
    9.7257  -16.4665   24.6429 C   0  0  0  0  0  0  0  0  0  0  0  0
    9.0043  -17.4868   24.7839 O   0  0  0  0  0  0  0  0  0  0  0  0
   11.1311  -16.5669   24.7156 N   0  0  0  0  0  0  0  0  0  0  0  0
   11.8194  -17.8567   24.8181 C   0  0  1  0  0  0  0  0  0  0  0  0
   13.1538  -17.7551   24.1135 C   0  0  0  0  0  0  0  0  0  0  0  0
   13.9914  -18.9773   24.1678 C   0  0  0  0  0  0  0  0  0  0  0  0
   14.8879  -19.0934   22.9541 C   0  0  0  0  0  0  0  0  0  0  0  0
   15.7004  -20.3445   22.9782 C   0  0  0  0  0  0  0  0  0  0  0  0
   16.5924  -20.4302   21.8340 N   0  0  0  0  0  0  0  0  0  0  0  0
   11.9037  -18.3021   26.2172 C   0  0  0  0  0  0  0  0  0  0  0  0
   12.0360  -17.5472   27.2056 O   0  0  0  0  0  0  0  0  0  0  0  0
   11.8363  -19.6758   26.5334 O   0  0  0  0  0  0  0  0  0  0  0  0
  2  1  1  6
  3  2  1  0
  4  2  1  0
  4  5  1  1
  6  7  2  0
  6  4  1  0
  8  6  1  0
  9  8  1  0
  9 10  1  1
 10 11  1  0
 11 16  2  0
 11 12  1  0
 12 13  2  0
 13 14  1  0
 15 14  2  0
 16 15  1  0
 17  9  1  0
 18 17  2  0
 19 17  1  0
 20 21  1  1
 20 19  1  0
 21 22  1  0
 22 23  1  0
 23 24  1  0
 25 24  1  0
 26 28  1  0
 26 20  1  0
 27 26  2  0
M  END
$$$$
