YRK.pdb
     RDKit          3D

 33 33  0  0  1  0  0  0  0  0999 V2000
   19.5670  -24.5561  -19.0549 O   0  0  0  0  0  0  0  0  0  0  0  0
   20.2353  -25.7231  -18.7583 C   0  0  0  0  0  0  0  0  0  0  0  0
   20.9836  -25.8658  -17.6089 C   0  0  0  0  0  0  0  0  0  0  0  0
   21.6426  -27.0426  -17.3348 C   0  0  0  0  0  0  0  0  0  0  0  0
   21.5444  -28.0731  -18.2224 C   0  0  0  0  0  0  0  0  0  0  0  0
   22.2339  -29.3640  -17.9756 C   0  0  0  0  0  0  0  0  0  0  0  0
   23.6997  -29.2887  -18.3879 C   0  0  2  0  0  0  0  0  0  0  0  0
   23.7394  -29.1526  -19.8241 N   0  0  0  0  0  0  0  0  0  0  0  0
   24.3487  -30.5159  -17.9058 C   0  0  0  0  0  0  0  0  0  0  0  0
   24.9736  -31.2383  -18.7003 O   0  0  0  0  0  0  0  0  0  0  0  0
   20.8018  -27.9527  -19.3779 C   0  0  0  0  0  0  0  0  0  0  0  0
   20.1561  -26.7747  -19.6292 C   0  0  0  0  0  0  0  0  0  0  0  0
   31.5759  -32.1756  -16.5277 N   0  0  0  0  0  0  0  0  0  0  0  0
   30.4821  -32.0325  -17.4422 C   0  0  0  0  0  0  0  0  0  0  0  0
   30.7558  -31.7466  -18.6604 N   0  0  0  0  0  0  0  0  0  0  0  0
   29.1232  -32.2007  -17.0214 N   0  0  0  0  0  0  0  0  0  0  0  0
   28.8080  -32.3443  -15.5967 C   0  0  0  0  0  0  0  0  0  0  0  0
   27.3358  -32.6811  -15.4401 C   0  0  0  0  0  0  0  0  0  0  0  0
   26.4450  -31.5939  -15.9658 C   0  0  0  0  0  0  0  0  0  0  0  0
   24.9718  -31.9778  -15.9390 C   0  0  2  0  0  0  0  0  0  0  0  0
   24.2626  -30.8712  -16.5506 N   0  0  0  0  0  0  0  0  0  0  0  0
   24.5960  -32.0365  -14.4804 C   0  0  0  0  0  0  0  0  0  0  0  0
   24.7635  -31.0392  -13.7282 O   0  0  0  0  0  0  0  0  0  0  0  0
   30.0440  -31.6281  -19.3962 N   0  0  0  0  0  0  0  0  0  0  0  0
   24.0443  -33.2025  -13.9004 C   0  0  1  0  0  0  0  0  0  0  0  0
   22.8987  -33.1644  -12.9702 C   0  0  0  0  0  0  0  0  0  0  0  0
   21.6448  -32.8451  -13.7073 C   0  0  0  0  0  0  0  0  0  0  0  0
   21.2852  -31.3892  -13.6357 C   0  0  0  0  0  0  0  0  0  0  0  0
   20.0404  -31.1288  -14.4486 C   0  0  0  0  0  0  0  0  0  0  0  0
   19.7430  -29.6497  -14.4098 N   0  0  0  0  0  0  0  0  0  0  0  0
   18.4814  -29.4471  -15.1198 C   0  0  0  0  0  0  0  0  0  0  0  0
   22.8152  -34.4132  -12.2039 O   0  0  0  0  0  0  0  0  0  0  0  0
   21.8677  -34.5020  -11.3424 O   0  0  0  0  0  0  0  0  0  0  0  0
  2  1  1  0
  3  2  2  0
  4  3  1  0
  5 11  1  0
  5  4  2  0
  6  5  1  0
  7  9  1  0
  7  6  1  0
  7  8  1  6
  9 10  2  0
  9 21  1  0
 11 12  2  0
 12  2  1  0
 13 14  1  0
 14 16  1  0
 14 15  2  0
 16 17  1  0
 17 18  1  0
 19 18  1  0
 20 19  1  1
 21 20  1  0
 22 24  1  0
 22 20  1  0
 23 22  2  0
 25 31  1  0
 25 24  1  0
 25 26  1  1
 26 27  1  0
 27 28  1  0
 28 29  1  0
 30 29  1  0
 31 33  1  0
 32 31  2  0
M  END
$$$$
