YRK.pdb
     RDKit          3D

 33 33  0  0  1  0  0  0  0  0999 V2000
   28.6290  -20.6547   -3.3220 O   0  0  0  0  0  0  0  0  0  0  0  0
   28.2334  -20.3659   -4.6091 C   0  0  0  0  0  0  0  0  0  0  0  0
   29.0495  -19.6892   -5.4909 C   0  0  0  0  0  0  0  0  0  0  0  0
   28.6312  -19.4124   -6.7726 C   0  0  0  0  0  0  0  0  0  0  0  0
   27.3892  -19.8197   -7.1610 C   0  0  0  0  0  0  0  0  0  0  0  0
   26.8885  -19.5481   -8.5316 C   0  0  0  0  0  0  0  0  0  0  0  0
   27.0648  -20.7672   -9.4298 C   0  0  2  0  0  0  0  0  0  0  0  0
   28.4817  -20.9619   -9.6229 N   0  0  0  0  0  0  0  0  0  0  0  0
   26.3439  -20.4916  -10.6804 C   0  0  0  0  0  0  0  0  0  0  0  0
   26.7960  -19.6595  -11.4845 O   0  0  0  0  0  0  0  0  0  0  0  0
   26.5563  -20.4976   -6.2961 C   0  0  0  0  0  0  0  0  0  0  0  0
   26.9930  -20.7614   -5.0282 C   0  0  0  0  0  0  0  0  0  0  0  0
   28.4926  -22.7963  -15.5444 N   0  0  0  0  0  0  0  0  0  0  0  0
   27.3072  -23.3473  -16.1313 C   0  0  0  0  0  0  0  0  0  0  0  0
   27.4268  -24.4150  -16.8286 N   0  0  0  0  0  0  0  0  0  0  0  0
   26.0248  -22.7344  -15.9523 N   0  0  0  0  0  0  0  0  0  0  0  0
   25.8020  -21.8099  -14.8363 C   0  0  0  0  0  0  0  0  0  0  0  0
   25.6091  -22.6049  -13.5572 C   0  0  0  0  0  0  0  0  0  0  0  0
   24.3077  -22.2867  -12.8810 C   0  0  0  0  0  0  0  0  0  0  0  0
   24.3376  -20.9519  -12.1489 C   0  0  2  0  0  0  0  0  0  0  0  0
   25.1468  -21.1669  -10.9655 N   0  0  0  0  0  0  0  0  0  0  0  0
   22.9168  -20.6974  -11.7146 C   0  0  0  0  0  0  0  0  0  0  0  0
   22.2686  -21.5703  -11.0772 O   0  0  0  0  0  0  0  0  0  0  0  0
   26.6376  -24.8911  -17.2895 N   0  0  0  0  0  0  0  0  0  0  0  0
   22.2579  -19.4792  -12.0013 C   0  0  2  0  0  0  0  0  0  0  0  0
   20.9121  -19.4242  -12.6057 C   0  0  0  0  0  0  0  0  0  0  0  0
   20.9914  -18.8990  -13.9969 C   0  0  0  0  0  0  0  0  0  0  0  0
   19.6562  -18.8715  -14.6829 C   0  0  0  0  0  0  0  0  0  0  0  0
   19.7961  -18.2485  -16.0506 C   0  0  0  0  0  0  0  0  0  0  0  0
   18.4328  -18.1969  -16.6957 N   0  0  0  0  0  0  0  0  0  0  0  0
   18.5850  -17.4858  -17.9638 C   0  0  0  0  0  0  0  0  0  0  0  0
   20.2548  -20.7335  -12.5201 O   0  0  0  0  0  0  0  0  0  0  0  0
   20.6590  -21.6390  -13.3353 O   0  0  0  0  0  0  0  0  0  0  0  0
  2  1  1  0
  3  2  2  0
  4  3  1  0
  5 11  1  0
  5  4  2  0
  6  5  1  0
  7  9  1  0
  7  6  1  0
  7  8  1  6
  9 10  2  0
  9 21  1  0
 11 12  2  0
 12  2  1  0
 13 14  1  0
 14 16  1  0
 14 15  2  0
 16 17  1  0
 17 18  1  0
 19 18  1  0
 20 19  1  6
 21 20  1  0
 22 24  1  0
 22 20  1  0
 23 22  2  0
 25 31  1  0
 25 24  1  0
 25 26  1  6
 26 27  1  0
 27 28  1  0
 28 29  1  0
 30 29  1  0
 31 33  1  0
 32 31  2  0
M  END
$$$$
