YRK.pdb
     RDKit          3D

 33 33  0  0  1  0  0  0  0  0999 V2000
   23.1067  -14.5508  -15.4785 O   0  0  0  0  0  0  0  0  0  0  0  0
   22.4974  -15.7824  -15.3860 C   0  0  0  0  0  0  0  0  0  0  0  0
   22.5429  -16.7002  -16.4141 C   0  0  0  0  0  0  0  0  0  0  0  0
   21.9258  -17.9249  -16.2976 C   0  0  0  0  0  0  0  0  0  0  0  0
   21.2639  -18.2201  -15.1425 C   0  0  0  0  0  0  0  0  0  0  0  0
   20.5820  -19.5262  -14.9637 C   0  0  0  0  0  0  0  0  0  0  0  0
   21.4171  -20.4657  -14.1011 C   0  0  2  0  0  0  0  0  0  0  0  0
   22.6776  -20.6665  -14.7745 N   0  0  0  0  0  0  0  0  0  0  0  0
   20.6450  -21.7055  -13.9386 C   0  0  0  0  0  0  0  0  0  0  0  0
   20.7345  -22.6060  -14.7898 O   0  0  0  0  0  0  0  0  0  0  0  0
   21.2055  -17.3177  -14.1016 C   0  0  0  0  0  0  0  0  0  0  0  0
   21.8256  -16.1078  -14.2399 C   0  0  0  0  0  0  0  0  0  0  0  0
   19.0685  -24.7342   -6.1979 N   0  0  0  0  0  0  0  0  0  0  0  0
   17.9221  -24.1977   -6.8695 C   0  0  0  0  0  0  0  0  0  0  0  0
   16.9272  -23.8299   -6.1515 N   0  0  0  0  0  0  0  0  0  0  0  0
   17.8768  -24.0715   -8.2957 N   0  0  0  0  0  0  0  0  0  0  0  0
   18.7638  -24.8846   -9.1334 C   0  0  0  0  0  0  0  0  0  0  0  0
   18.5006  -24.5703  -10.5954 C   0  0  0  0  0  0  0  0  0  0  0  0
   19.2745  -23.3747  -11.0680 C   0  0  0  0  0  0  0  0  0  0  0  0
   19.0366  -23.0657  -12.5399 C   0  0  2  0  0  0  0  0  0  0  0  0
   19.8081  -21.8718  -12.8240 N   0  0  0  0  0  0  0  0  0  0  0  0
   17.5726  -22.7241  -12.6495 C   0  0  0  0  0  0  0  0  0  0  0  0
   17.0575  -21.8397  -11.9140 O   0  0  0  0  0  0  0  0  0  0  0  0
   16.0550  -23.4385   -6.5363 N   0  0  0  0  0  0  0  0  0  0  0  0
   16.7236  -23.3756  -13.5743 C   0  0  2  0  0  0  0  0  0  0  0  0
   15.2901  -23.0489  -13.7073 C   0  0  0  0  0  0  0  0  0  0  0  0
   14.6197  -24.0235  -14.6118 C   0  0  0  0  0  0  0  0  0  0  0  0
   13.2143  -23.6227  -14.9560 C   0  0  0  0  0  0  0  0  0  0  0  0
   12.6360  -24.5929  -15.9573 C   0  0  0  0  0  0  0  0  0  0  0  0
   11.2015  -24.2080  -16.2245 N   0  0  0  0  0  0  0  0  0  0  0  0
   10.6654  -25.1827  -17.1728 C   0  0  0  0  0  0  0  0  0  0  0  0
   14.6574  -22.9585  -12.3862 O   0  0  0  0  0  0  0  0  0  0  0  0
   14.7444  -23.9924  -11.6303 O   0  0  0  0  0  0  0  0  0  0  0  0
  2  1  1  0
  3  2  2  0
  4  3  1  0
  5 11  1  0
  5  4  2  0
  6  5  1  0
  7  9  1  0
  7  6  1  0
  7  8  1  6
  9 10  2  0
  9 21  1  0
 11 12  2  0
 12  2  1  0
 13 14  1  0
 14 16  1  0
 14 15  2  0
 16 17  1  0
 17 18  1  0
 19 18  1  0
 20 19  1  1
 21 20  1  0
 22 24  1  0
 22 20  1  0
 23 22  2  0
 25 31  1  0
 25 24  1  0
 25 26  1  1
 26 27  1  0
 27 28  1  0
 28 29  1  0
 30 29  1  0
 31 33  1  0
 32 31  2  0
M  END
$$$$
