YRK.pdb
     RDKit          3D

 33 33  0  0  1  0  0  0  0  0999 V2000
   18.4451  -16.7877  -23.6687 O   0  0  0  0  0  0  0  0  0  0  0  0
   19.0493  -15.9828  -22.7287 C   0  0  0  0  0  0  0  0  0  0  0  0
   19.9058  -14.9615  -23.0820 C   0  0  0  0  0  0  0  0  0  0  0  0
   20.4975  -14.1705  -22.1236 C   0  0  0  0  0  0  0  0  0  0  0  0
   20.2227  -14.4127  -20.8101 C   0  0  0  0  0  0  0  0  0  0  0  0
   20.8328  -13.5896  -19.7363 C   0  0  0  0  0  0  0  0  0  0  0  0
   22.0092  -14.3150  -19.0927 C   0  0  2  0  0  0  0  0  0  0  0  0
   21.4751  -15.4256  -18.3418 N   0  0  0  0  0  0  0  0  0  0  0  0
   22.7148  -13.3363  -18.2536 C   0  0  0  0  0  0  0  0  0  0  0  0
   22.4659  -13.2701  -17.0382 O   0  0  0  0  0  0  0  0  0  0  0  0
   19.3694  -15.4283  -20.4340 C   0  0  0  0  0  0  0  0  0  0  0  0
   18.7935  -16.2010  -21.4030 C   0  0  0  0  0  0  0  0  0  0  0  0
   29.5818  -12.1868  -14.8074 N   0  0  0  0  0  0  0  0  0  0  0  0
   29.5030  -10.8285  -15.2566 C   0  0  0  0  0  0  0  0  0  0  0  0
   30.2648   -9.9675  -14.6916 N   0  0  0  0  0  0  0  0  0  0  0  0
   28.6065  -10.4328  -16.3014 N   0  0  0  0  0  0  0  0  0  0  0  0
   27.6806  -11.4093  -16.8837 C   0  0  0  0  0  0  0  0  0  0  0  0
   26.8622  -10.7377  -17.9720 C   0  0  0  0  0  0  0  0  0  0  0  0
   25.8933  -11.6831  -18.6197 C   0  0  0  0  0  0  0  0  0  0  0  0
   24.4766  -11.5306  -18.0829 C   0  0  2  0  0  0  0  0  0  0  0  0
   23.6678  -12.4781  -18.8242 N   0  0  0  0  0  0  0  0  0  0  0  0
   24.0476  -10.1369  -18.4648 C   0  0  0  0  0  0  0  0  0  0  0  0
   24.0613   -9.7623  -19.6680 O   0  0  0  0  0  0  0  0  0  0  0  0
   30.3096   -8.9746  -14.9637 N   0  0  0  0  0  0  0  0  0  0  0  0
   23.6153   -9.2001  -17.4973 C   0  0  2  0  0  0  0  0  0  0  0  0
   23.1906   -7.8306  -17.8483 C   0  0  0  0  0  0  0  0  0  0  0  0
   22.2178   -7.3179  -16.8442 C   0  0  0  0  0  0  0  0  0  0  0  0
   21.6491   -5.9798  -17.2189 C   0  0  0  0  0  0  0  0  0  0  0  0
   20.5214   -5.6222  -16.2815 C   0  0  0  0  0  0  0  0  0  0  0  0
   19.9230   -4.3112  -16.7295 N   0  0  0  0  0  0  0  0  0  0  0  0
   18.8151   -4.0136  -15.8236 C   0  0  0  0  0  0  0  0  0  0  0  0
   24.3574   -6.9569  -18.0193 O   0  0  0  0  0  0  0  0  0  0  0  0
   25.3198   -7.1055  -17.1829 O   0  0  0  0  0  0  0  0  0  0  0  0
  2  1  1  0
  3  2  2  0
  4  3  1  0
  5 11  1  0
  5  4  2  0
  6  5  1  0
  7  9  1  0
  7  6  1  0
  7  8  1  1
  9 10  2  0
  9 21  1  0
 11 12  2  0
 12  2  1  0
 13 14  1  0
 14 16  1  0
 14 15  2  0
 16 17  1  0
 17 18  1  0
 19 18  1  0
 20 19  1  6
 21 20  1  0
 22 24  1  0
 22 20  1  0
 23 22  2  0
 25 31  1  0
 25 24  1  0
 25 26  1  1
 26 27  1  0
 27 28  1  0
 28 29  1  0
 30 29  1  0
 31 33  1  0
 32 31  2  0
M  END
$$$$
