YRK.pdb
     RDKit          3D

 33 33  0  0  1  0  0  0  0  0999 V2000
   38.0658   -2.0275   -0.2580 O   0  0  0  0  0  0  0  0  0  0  0  0
   38.7093   -2.4408   -1.4033 C   0  0  0  0  0  0  0  0  0  0  0  0
   40.0288   -2.1286   -1.6544 C   0  0  0  0  0  0  0  0  0  0  0  0
   40.6499   -2.5535   -2.8067 C   0  0  0  0  0  0  0  0  0  0  0  0
   39.9368   -3.2931   -3.7033 C   0  0  0  0  0  0  0  0  0  0  0  0
   40.5577   -3.7775   -4.9614 C   0  0  0  0  0  0  0  0  0  0  0  0
   41.0399   -5.2163   -4.8146 C   0  0  2  0  0  0  0  0  0  0  0  0
   42.0793   -5.2250   -3.8135 N   0  0  0  0  0  0  0  0  0  0  0  0
   41.5082   -5.6532   -6.1374 C   0  0  0  0  0  0  0  0  0  0  0  0
   42.6144   -6.2073   -6.2500 O   0  0  0  0  0  0  0  0  0  0  0  0
   38.6165   -3.6170   -3.4730 C   0  0  0  0  0  0  0  0  0  0  0  0
   38.0206   -3.1841   -2.3218 C   0  0  0  0  0  0  0  0  0  0  0  0
   41.8421  -12.4028   -9.6092 N   0  0  0  0  0  0  0  0  0  0  0  0
   42.6017  -11.4451   -8.8615 C   0  0  0  0  0  0  0  0  0  0  0  0
   43.4879  -11.8881   -8.0497 N   0  0  0  0  0  0  0  0  0  0  0  0
   42.3872  -10.0362   -9.0072 N   0  0  0  0  0  0  0  0  0  0  0  0
   41.2916   -9.5432   -9.8478 C   0  0  0  0  0  0  0  0  0  0  0  0
   41.3400   -8.0265   -9.8965 C   0  0  0  0  0  0  0  0  0  0  0  0
   41.0462   -7.4053   -8.5624 C   0  0  0  0  0  0  0  0  0  0  0  0
   41.0412   -5.8835   -8.6118 C   0  0  2  0  0  0  0  0  0  0  0  0
   40.7073   -5.4445   -7.2711 N   0  0  0  0  0  0  0  0  0  0  0  0
   39.9056   -5.5127   -9.5311 C   0  0  0  0  0  0  0  0  0  0  0  0
   38.7510   -5.9869   -9.3573 O   0  0  0  0  0  0  0  0  0  0  0  0
   44.1068  -11.2838   -7.4897 N   0  0  0  0  0  0  0  0  0  0  0  0
   40.0869   -4.6248  -10.6170 C   0  0  2  0  0  0  0  0  0  0  0  0
   39.0125   -4.3149  -11.5808 C   0  0  0  0  0  0  0  0  0  0  0  0
   39.3744   -4.8140  -12.9363 C   0  0  0  0  0  0  0  0  0  0  0  0
   38.3064   -4.5454  -13.9569 C   0  0  0  0  0  0  0  0  0  0  0  0
   38.7433   -5.0668  -15.3043 C   0  0  0  0  0  0  0  0  0  0  0  0
   37.6669   -4.7493  -16.3133 N   0  0  0  0  0  0  0  0  0  0  0  0
   38.1950   -5.1034  -17.6296 C   0  0  0  0  0  0  0  0  0  0  0  0
   37.7250   -4.8307  -11.1009 O   0  0  0  0  0  0  0  0  0  0  0  0
   37.5984   -6.1068  -11.0408 O   0  0  0  0  0  0  0  0  0  0  0  0
  2  1  1  0
  3  2  2  0
  4  3  1  0
  5 11  1  0
  5  4  2  0
  6  5  1  0
  7  9  1  0
  7  6  1  0
  7  8  1  1
  9 10  2  0
  9 21  1  0
 11 12  2  0
 12  2  1  0
 13 14  1  0
 14 16  1  0
 14 15  2  0
 16 17  1  0
 17 18  1  0
 19 18  1  0
 20 19  1  1
 21 20  1  0
 22 24  1  0
 22 20  1  0
 23 22  2  0
 25 31  1  0
 25 24  1  0
 25 26  1  6
 26 27  1  0
 27 28  1  0
 28 29  1  0
 30 29  1  0
 31 33  1  0
 32 31  2  0
M  END
$$$$
