YRK.pdb
     RDKit          3D

 33 33  0  0  1  0  0  0  0  0999 V2000
   28.3348  -19.7264   -4.2328 O   0  0  0  0  0  0  0  0  0  0  0  0
   27.9246  -19.7527   -5.5472 C   0  0  0  0  0  0  0  0  0  0  0  0
   27.2738  -20.8411   -6.0888 C   0  0  0  0  0  0  0  0  0  0  0  0
   26.8735  -20.8433   -7.4056 C   0  0  0  0  0  0  0  0  0  0  0  0
   27.1314  -19.7459   -8.1729 C   0  0  0  0  0  0  0  0  0  0  0  0
   26.7209  -19.6951   -9.5983 C   0  0  0  0  0  0  0  0  0  0  0  0
   26.8735  -21.0599  -10.2604 C   0  0  2  0  0  0  0  0  0  0  0  0
   28.2774  -21.3937  -10.2464 N   0  0  0  0  0  0  0  0  0  0  0  0
   26.3199  -20.9473  -11.6170 C   0  0  0  0  0  0  0  0  0  0  0  0
   27.0614  -20.6354  -12.5638 O   0  0  0  0  0  0  0  0  0  0  0  0
   27.7807  -18.6465   -7.6523 C   0  0  0  0  0  0  0  0  0  0  0  0
   28.1689  -18.6669   -6.3421 C   0  0  0  0  0  0  0  0  0  0  0  0
   22.8634  -27.5528  -14.3752 N   0  0  0  0  0  0  0  0  0  0  0  0
   22.1613  -26.3753  -13.9586 C   0  0  0  0  0  0  0  0  0  0  0  0
   20.9862  -26.5220  -13.4703 N   0  0  0  0  0  0  0  0  0  0  0  0
   22.7421  -25.0714  -14.0787 N   0  0  0  0  0  0  0  0  0  0  0  0
   21.9139  -23.9335  -14.4901 C   0  0  0  0  0  0  0  0  0  0  0  0
   22.7549  -22.6695  -14.4750 C   0  0  0  0  0  0  0  0  0  0  0  0
   23.4533  -22.4671  -13.1622 C   0  0  0  0  0  0  0  0  0  0  0  0
   24.3257  -21.2192  -13.1477 C   0  0  2  0  0  0  0  0  0  0  0  0
   24.9561  -21.1916  -11.8426 N   0  0  0  0  0  0  0  0  0  0  0  0
   23.3701  -20.0571  -13.2398 C   0  0  0  0  0  0  0  0  0  0  0  0
   22.6184  -19.7591  -12.2731 O   0  0  0  0  0  0  0  0  0  0  0  0
   20.3473  -25.7395  -13.2668 N   0  0  0  0  0  0  0  0  0  0  0  0
   23.2784  -19.2596  -14.4042 C   0  0  2  0  0  0  0  0  0  0  0  0
   22.4266  -18.0564  -14.4810 C   0  0  0  0  0  0  0  0  0  0  0  0
   22.7510  -17.2707  -15.7037 C   0  0  0  0  0  0  0  0  0  0  0  0
   21.9800  -15.9851  -15.7878 C   0  0  0  0  0  0  0  0  0  0  0  0
   22.3030  -15.2783  -17.0818 C   0  0  0  0  0  0  0  0  0  0  0  0
   21.4546  -14.0335  -17.1730 N   0  0  0  0  0  0  0  0  0  0  0  0
   21.8378  -13.3424  -18.4027 C   0  0  0  0  0  0  0  0  0  0  0  0
   21.0083  -18.4223  -14.3899 O   0  0  0  0  0  0  0  0  0  0  0  0
   20.6503  -19.5047  -14.9799 O   0  0  0  0  0  0  0  0  0  0  0  0
  2  1  1  0
  3  2  2  0
  4  3  1  0
  5 11  1  0
  5  4  2  0
  6  5  1  0
  7  9  1  0
  7  6  1  0
  7  8  1  6
  9 10  2  0
  9 21  1  0
 11 12  2  0
 12  2  1  0
 13 14  1  0
 14 16  1  0
 14 15  2  0
 16 17  1  0
 17 18  1  0
 19 18  1  0
 20 19  1  1
 21 20  1  0
 22 24  1  0
 22 20  1  0
 23 22  2  0
 25 31  1  0
 25 24  1  0
 25 26  1  6
 26 27  1  0
 27 28  1  0
 28 29  1  0
 30 29  1  0
 31 33  1  0
 32 31  2  0
M  END
$$$$
