YRK.pdb
     RDKit          3D

 33 33  0  0  1  0  0  0  0  0999 V2000
   28.7953  -19.6001   -3.9364 O   0  0  0  0  0  0  0  0  0  0  0  0
   28.4864  -19.7461   -5.2706 C   0  0  0  0  0  0  0  0  0  0  0  0
   27.2580  -19.3829   -5.7811 C   0  0  0  0  0  0  0  0  0  0  0  0
   26.9732  -19.5387   -7.1186 C   0  0  0  0  0  0  0  0  0  0  0  0
   27.9300  -20.0610   -7.9379 C   0  0  0  0  0  0  0  0  0  0  0  0
   27.6760  -20.2496   -9.3880 C   0  0  0  0  0  0  0  0  0  0  0  0
   26.2170  -20.6089   -9.6455 C   0  0  2  0  0  0  0  0  0  0  0  0
   26.0953  -22.0416   -9.5222 N   0  0  0  0  0  0  0  0  0  0  0  0
   25.8794  -20.1138  -10.9874 C   0  0  0  0  0  0  0  0  0  0  0  0
   25.9031  -18.8938  -11.2207 O   0  0  0  0  0  0  0  0  0  0  0  0
   29.1650  -20.4310   -7.4491 C   0  0  0  0  0  0  0  0  0  0  0  0
   29.4253  -20.2672   -6.1175 C   0  0  0  0  0  0  0  0  0  0  0  0
   29.9635  -23.1326  -16.0047 N   0  0  0  0  0  0  0  0  0  0  0  0
   28.5829  -23.1955  -16.3832 C   0  0  0  0  0  0  0  0  0  0  0  0
   28.0801  -24.3500  -16.6181 N   0  0  0  0  0  0  0  0  0  0  0  0
   27.7805  -22.0146  -16.4992 N   0  0  0  0  0  0  0  0  0  0  0  0
   27.9490  -20.9154  -15.5436 C   0  0  0  0  0  0  0  0  0  0  0  0
   27.3438  -21.3134  -14.2092 C   0  0  0  0  0  0  0  0  0  0  0  0
   25.8604  -21.5222  -14.2975 C   0  0  0  0  0  0  0  0  0  0  0  0
   25.0846  -20.6391  -13.3296 C   0  0  2  0  0  0  0  0  0  0  0  0
   25.5308  -21.0176  -12.0033 N   0  0  0  0  0  0  0  0  0  0  0  0
   23.6409  -21.0453  -13.4805 C   0  0  0  0  0  0  0  0  0  0  0  0
   23.2945  -22.2530  -13.3809 O   0  0  0  0  0  0  0  0  0  0  0  0
   27.1253  -24.4982  -16.9763 N   0  0  0  0  0  0  0  0  0  0  0  0
   22.6239  -20.0966  -13.7374 C   0  0  2  0  0  0  0  0  0  0  0  0
   21.2066  -20.4735  -13.9058 C   0  0  0  0  0  0  0  0  0  0  0  0
   20.3670  -19.2576  -14.0910 C   0  0  0  0  0  0  0  0  0  0  0  0
   18.9119  -19.5803  -14.2718 C   0  0  0  0  0  0  0  0  0  0  0  0
   18.1203  -18.3047  -14.4285 C   0  0  0  0  0  0  0  0  0  0  0  0
   16.6731  -18.6639  -14.6612 N   0  0  0  0  0  0  0  0  0  0  0  0
   15.9360  -17.4088  -14.7960 C   0  0  0  0  0  0  0  0  0  0  0  0
   21.0581  -21.4480  -14.9930 O   0  0  0  0  0  0  0  0  0  0  0  0
   21.7482  -21.2403  -16.0553 O   0  0  0  0  0  0  0  0  0  0  0  0
  2  1  1  0
  3  2  2  0
  4  3  1  0
  5 11  1  0
  5  4  2  0
  6  5  1  0
  7  9  1  0
  7  6  1  0
  7  8  1  6
  9 10  2  0
  9 21  1  0
 11 12  2  0
 12  2  1  0
 13 14  1  0
 14 16  1  0
 14 15  2  0
 16 17  1  0
 17 18  1  0
 19 18  1  0
 20 19  1  6
 21 20  1  0
 22 24  1  0
 22 20  1  0
 23 22  2  0
 25 31  1  0
 25 24  1  0
 25 26  1  6
 26 27  1  0
 27 28  1  0
 28 29  1  0
 30 29  1  0
 31 33  1  0
 32 31  2  0
M  END
$$$$
