YRK.pdb
     RDKit          3D

 33 33  0  0  1  0  0  0  0  0999 V2000
   12.0890  -22.8321    1.9497 O   0  0  0  0  0  0  0  0  0  0  0  0
   13.2201  -22.1821    2.3912 C   0  0  0  0  0  0  0  0  0  0  0  0
   14.4632  -22.4252    1.8462 C   0  0  0  0  0  0  0  0  0  0  0  0
   15.5790  -21.7625    2.3048 C   0  0  0  0  0  0  0  0  0  0  0  0
   15.4368  -20.8556    3.3130 C   0  0  0  0  0  0  0  0  0  0  0  0
   16.6064  -20.1125    3.8446 C   0  0  0  0  0  0  0  0  0  0  0  0
   16.8331  -18.8208    3.0673 C   0  0  2  0  0  0  0  0  0  0  0  0
   17.1625  -19.1840    1.7100 N   0  0  0  0  0  0  0  0  0  0  0  0
   17.9112  -18.0895    3.7475 C   0  0  0  0  0  0  0  0  0  0  0  0
   19.0968  -18.3817    3.5188 O   0  0  0  0  0  0  0  0  0  0  0  0
   14.2035  -20.5967    3.8728 C   0  0  0  0  0  0  0  0  0  0  0  0
   13.1096  -21.2668    3.4014 C   0  0  0  0  0  0  0  0  0  0  0  0
   19.7718  -11.9824    8.0082 N   0  0  0  0  0  0  0  0  0  0  0  0
   20.2169  -11.2929    6.8336 C   0  0  0  0  0  0  0  0  0  0  0  0
   21.2877  -10.5953    6.9203 N   0  0  0  0  0  0  0  0  0  0  0  0
   19.4978  -11.3723    5.5973 N   0  0  0  0  0  0  0  0  0  0  0  0
   18.4256  -12.3588    5.4334 C   0  0  0  0  0  0  0  0  0  0  0  0
   19.0007  -13.7554    5.5889 C   0  0  0  0  0  0  0  0  0  0  0  0
   17.9764  -14.8231    5.3379 C   0  0  0  0  0  0  0  0  0  0  0  0
   18.5793  -16.2211    5.3147 C   0  0  2  0  0  0  0  0  0  0  0  0
   17.6019  -17.0633    4.6538 N   0  0  0  0  0  0  0  0  0  0  0  0
   18.6744  -16.6442    6.7583 C   0  0  0  0  0  0  0  0  0  0  0  0
   17.6429  -16.9626    7.4087 O   0  0  0  0  0  0  0  0  0  0  0  0
   21.6912  -10.0630    6.1356 N   0  0  0  0  0  0  0  0  0  0  0  0
   19.9140  -16.7014    7.4369 C   0  0  2  0  0  0  0  0  0  0  0  0
   20.0293  -17.1008    8.8534 C   0  0  0  0  0  0  0  0  0  0  0  0
   21.3717  -17.6890    9.1168 C   0  0  0  0  0  0  0  0  0  0  0  0
   21.5032  -18.2319   10.5104 C   0  0  0  0  0  0  0  0  0  0  0  0
   22.9015  -18.7581   10.7251 C   0  0  0  0  0  0  0  0  0  0  0  0
   22.9883  -19.3351   12.1169 N   0  0  0  0  0  0  0  0  0  0  0  0
   24.3781  -19.7352   12.3293 C   0  0  0  0  0  0  0  0  0  0  0  0
   19.7115  -15.9712    9.7348 O   0  0  0  0  0  0  0  0  0  0  0  0
   20.1886  -14.8263    9.4042 O   0  0  0  0  0  0  0  0  0  0  0  0
  2  1  1  0
  3  2  2  0
  4  3  1  0
  5 11  1  0
  5  4  2  0
  6  5  1  0
  7  9  1  0
  7  6  1  0
  7  8  1  6
  9 10  2  0
  9 21  1  0
 11 12  2  0
 12  2  1  0
 13 14  1  0
 14 16  1  0
 14 15  2  0
 16 17  1  0
 17 18  1  0
 19 18  1  0
 20 19  1  1
 21 20  1  0
 22 24  1  0
 22 20  1  0
 23 22  2  0
 25 31  1  0
 25 24  1  0
 25 26  1  6
 26 27  1  0
 27 28  1  0
 28 29  1  0
 30 29  1  0
 31 33  1  0
 32 31  2  0
M  END
$$$$
