YRK.pdb
     RDKit          3D

 33 33  0  0  1  0  0  0  0  0999 V2000
   31.4337  -21.1836  -10.4468 O   0  0  0  0  0  0  0  0  0  0  0  0
   30.1634  -20.9984  -10.9456 C   0  0  0  0  0  0  0  0  0  0  0  0
   29.0381  -21.3503  -10.2304 C   0  0  0  0  0  0  0  0  0  0  0  0
   27.7790  -21.1551  -10.7507 C   0  0  0  0  0  0  0  0  0  0  0  0
   27.6590  -20.6048  -11.9926 C   0  0  0  0  0  0  0  0  0  0  0  0
   26.3254  -20.3718  -12.6008 C   0  0  0  0  0  0  0  0  0  0  0  0
   25.6548  -21.6901  -12.9703 C   0  0  2  0  0  0  0  0  0  0  0  0
   26.4774  -22.3298  -13.9686 N   0  0  0  0  0  0  0  0  0  0  0  0
   24.3047  -21.3687  -13.4537 C   0  0  0  0  0  0  0  0  0  0  0  0
   24.0944  -21.2579  -14.6730 O   0  0  0  0  0  0  0  0  0  0  0  0
   28.7703  -20.2455  -12.7255 C   0  0  0  0  0  0  0  0  0  0  0  0
   30.0105  -20.4486  -12.1885 C   0  0  0  0  0  0  0  0  0  0  0  0
   18.0906  -24.2101   -8.3154 N   0  0  0  0  0  0  0  0  0  0  0  0
   18.3270  -24.7658   -9.6148 C   0  0  0  0  0  0  0  0  0  0  0  0
   18.0762  -26.0101   -9.7868 N   0  0  0  0  0  0  0  0  0  0  0  0
   18.8270  -23.9679  -10.6943 N   0  0  0  0  0  0  0  0  0  0  0  0
   19.0284  -22.5272  -10.5107 C   0  0  0  0  0  0  0  0  0  0  0  0
   19.6830  -21.9497  -11.7530 C   0  0  0  0  0  0  0  0  0  0  0  0
   21.1645  -21.7781  -11.5872 C   0  0  0  0  0  0  0  0  0  0  0  0
   21.8469  -21.3039  -12.8631 C   0  0  2  0  0  0  0  0  0  0  0  0
   23.2551  -21.1870  -12.5394 N   0  0  0  0  0  0  0  0  0  0  0  0
   21.3019  -19.9229  -13.1236 C   0  0  0  0  0  0  0  0  0  0  0  0
   21.2599  -19.0599  -12.2061 O   0  0  0  0  0  0  0  0  0  0  0  0
   18.1795  -26.4971  -10.6891 N   0  0  0  0  0  0  0  0  0  0  0  0
   20.8194  -19.5414  -14.3972 C   0  0  2  0  0  0  0  0  0  0  0  0
   20.3834  -18.1649  -14.7047 C   0  0  0  0  0  0  0  0  0  0  0  0
   20.6803  -17.8341  -16.1259 C   0  0  0  0  0  0  0  0  0  0  0  0
   20.1462  -16.4909  -16.5319 C   0  0  0  0  0  0  0  0  0  0  0  0
   21.2217  -15.7062  -17.2433 C   0  0  0  0  0  0  0  0  0  0  0  0
   20.6465  -14.3752  -17.6619 N   0  0  0  0  0  0  0  0  0  0  0  0
   21.7017  -13.6570  -18.3743 C   0  0  0  0  0  0  0  0  0  0  0  0
   18.9706  -17.9811  -14.3527 O   0  0  0  0  0  0  0  0  0  0  0  0
   18.2301  -19.0297  -14.3620 O   0  0  0  0  0  0  0  0  0  0  0  0
  2  1  1  0
  3  2  2  0
  4  3  1  0
  5 11  1  0
  5  4  2  0
  6  5  1  0
  7  9  1  0
  7  6  1  0
  7  8  1  6
  9 10  2  0
  9 21  1  0
 11 12  2  0
 12  2  1  0
 13 14  1  0
 14 16  1  0
 14 15  2  0
 16 17  1  0
 17 18  1  0
 19 18  1  0
 20 19  1  1
 21 20  1  0
 22 24  1  0
 22 20  1  0
 23 22  2  0
 25 31  1  0
 25 24  1  0
 25 26  1  6
 26 27  1  0
 27 28  1  0
 28 29  1  0
 30 29  1  0
 31 33  1  0
 32 31  2  0
M  END
$$$$
