HNM.pdb
     RDKit          3D

 27 27  0  0  1  0  0  0  0  0999 V2000
    9.8915  -14.9959   19.2501 N   0  0  0  0  0  0  0  0  0  0  0  0
    8.6431  -14.8246   19.9444 C   0  0  1  0  0  0  0  0  0  0  0  0
    7.4933  -15.2416   19.0418 C   0  0  0  0  0  0  0  0  0  0  0  0
    7.5774  -14.5928   17.7186 C   0  0  0  0  0  0  0  0  0  0  0  0
    7.7799  -13.2613   17.5008 C   0  0  0  0  0  0  0  0  0  0  0  0
    7.7942  -13.0692   16.1691 N   0  0  0  0  0  0  0  0  0  0  0  0
    7.6040  -14.2613   15.5838 C   0  0  0  0  0  0  0  0  0  0  0  0
    7.4708  -15.1964   16.5287 N   0  0  0  0  0  0  0  0  0  0  0  0
    8.6097  -15.6851   21.1555 C   0  0  0  0  0  0  0  0  0  0  0  0
    7.5279  -15.7367   21.8110 O   0  0  0  0  0  0  0  0  0  0  0  0
   11.6993  -19.4274   20.8411 N   0  0  0  0  0  0  0  0  0  0  0  0
   10.6514  -19.2464   21.8060 C   0  0  0  0  0  0  0  0  0  0  0  0
    9.6583  -19.9908   21.7426 O   0  0  0  0  0  0  0  0  0  0  0  0
   10.8612  -18.1695   22.8011 C   0  0  0  0  0  0  0  0  0  0  0  0
    9.7200  -17.1735   22.7921 C   0  0  2  0  0  0  0  0  0  0  0  0
    9.7463  -16.4199   21.5601 N   0  0  0  0  0  0  0  0  0  0  0  0
    9.8275  -16.2217   23.9272 C   0  0  0  0  0  0  0  0  0  0  0  0
   10.7839  -15.3820   23.8960 O   0  0  0  0  0  0  0  0  0  0  0  0
    6.1782  -11.6027   27.6173 C   0  0  0  0  0  0  0  0  0  0  0  0
    6.4310  -12.0186   25.9089 S   0  0  0  0  0  0  0  0  0  0  0  0
    7.9169  -12.9805   25.6437 C   0  0  0  0  0  0  0  0  0  0  0  0
    7.8810  -14.3618   26.1596 C   0  0  0  0  0  0  0  0  0  0  0  0
    9.1192  -15.1781   26.0767 C   0  0  2  0  0  0  0  0  0  0  0  0
    8.9492  -16.1970   25.0130 N   0  0  0  0  0  0  0  0  0  0  0  0
    9.3644  -15.9751   27.3001 C   0  0  0  0  0  0  0  0  0  0  0  0
    9.0482  -17.1793   27.3460 O   0  0  0  0  0  0  0  0  0  0  0  0
    9.9411  -15.4023   28.4052 O   0  0  0  0  0  0  0  0  0  0  0  0
  2  3  1  0
  2  1  1  6
  4  3  1  0
  5  4  2  0
  6  5  1  0
  7  6  1  0
  7  8  2  0
  8  4  1  0
  9  2  1  0
 10  9  2  0
 12 11  1  0
 13 12  2  0
 14 12  1  0
 15 14  1  6
 15 16  1  0
 16  9  1  0
 17 15  1  0
 17 18  2  0
 19 20  1  0
 20 21  1  0
 23 22  1  1
 22 21  1  0
 23 24  1  0
 24 17  1  0
 25 23  1  0
 26 25  2  0
 27 25  1  0
M  END
$$$$
