HNM.pdb
     RDKit          3D

 27 27  0  0  1  0  0  0  0  0999 V2000
    9.8264  -14.8623   18.8317 N   0  0  0  0  0  0  0  0  0  0  0  0
    8.5040  -14.8569   19.3986 C   0  0  1  0  0  0  0  0  0  0  0  0
    7.5191  -15.4549   18.4072 C   0  0  0  0  0  0  0  0  0  0  0  0
    7.5607  -14.7539   17.1087 C   0  0  0  0  0  0  0  0  0  0  0  0
    8.4987  -13.8371   16.7333 C   0  0  0  0  0  0  0  0  0  0  0  0
    8.1906  -13.4337   15.4872 N   0  0  0  0  0  0  0  0  0  0  0  0
    7.0848  -14.0919   15.1079 C   0  0  0  0  0  0  0  0  0  0  0  0
    6.6961  -14.9009   16.0976 N   0  0  0  0  0  0  0  0  0  0  0  0
    8.4732  -15.6862   20.6313 C   0  0  0  0  0  0  0  0  0  0  0  0
    7.3809  -15.7540   21.2677 O   0  0  0  0  0  0  0  0  0  0  0  0
    9.0278  -19.2470   20.7155 N   0  0  0  0  0  0  0  0  0  0  0  0
   10.3154  -19.3250   21.3463 C   0  0  0  0  0  0  0  0  0  0  0  0
   11.0375  -20.3035   21.0905 O   0  0  0  0  0  0  0  0  0  0  0  0
   10.6629  -18.2102   22.2576 C   0  0  0  0  0  0  0  0  0  0  0  0
    9.5742  -17.1575   22.2895 C   0  0  2  0  0  0  0  0  0  0  0  0
    9.6234  -16.3747   21.0765 N   0  0  0  0  0  0  0  0  0  0  0  0
    9.7447  -16.2420   23.4465 C   0  0  0  0  0  0  0  0  0  0  0  0
   10.2047  -15.0791   23.2075 O   0  0  0  0  0  0  0  0  0  0  0  0
    6.4904  -11.3331   27.7100 C   0  0  0  0  0  0  0  0  0  0  0  0
    6.6978  -12.5422   26.4254 S   0  0  0  0  0  0  0  0  0  0  0  0
    8.1053  -13.6124   26.7034 C   0  0  0  0  0  0  0  0  0  0  0  0
    8.3814  -14.5908   25.6348 C   0  0  0  0  0  0  0  0  0  0  0  0
    9.4991  -15.5499   25.8281 C   0  0  2  0  0  0  0  0  0  0  0  0
    9.4326  -16.5813   24.7650 N   0  0  0  0  0  0  0  0  0  0  0  0
    9.3813  -16.3231   27.0851 C   0  0  0  0  0  0  0  0  0  0  0  0
    8.8903  -17.4681   27.0813 O   0  0  0  0  0  0  0  0  0  0  0  0
    9.8076  -15.7925   28.2762 O   0  0  0  0  0  0  0  0  0  0  0  0
  2  3  1  0
  2  1  1  6
  4  3  1  0
  5  4  2  0
  6  5  1  0
  7  6  1  0
  7  8  2  0
  8  4  1  0
  9  2  1  0
 10  9  2  0
 12 11  1  0
 13 12  2  0
 14 12  1  0
 15 14  1  6
 15 16  1  0
 16  9  1  0
 17 15  1  0
 17 18  2  0
 19 20  1  0
 20 21  1  0
 23 22  1  6
 22 21  1  0
 23 24  1  0
 24 17  1  0
 25 23  1  0
 26 25  2  0
 27 25  1  0
M  END
$$$$
