HNM.pdb
     RDKit          3D

 27 27  0  0  1  0  0  0  0  0999 V2000
    9.1176  -16.1769   19.1851 N   0  0  0  0  0  0  0  0  0  0  0  0
    8.2380  -15.1887   19.7508 C   0  0  1  0  0  0  0  0  0  0  0  0
    7.0180  -15.0188   18.8602 C   0  0  0  0  0  0  0  0  0  0  0  0
    7.3980  -14.6639   17.4786 C   0  0  0  0  0  0  0  0  0  0  0  0
    7.0259  -15.3433   16.3555 C   0  0  0  0  0  0  0  0  0  0  0  0
    7.5713  -14.7082   15.3021 N   0  0  0  0  0  0  0  0  0  0  0  0
    8.2638  -13.6599   15.7726 C   0  0  0  0  0  0  0  0  0  0  0  0
    8.1602  -13.6293   17.1044 N   0  0  0  0  0  0  0  0  0  0  0  0
    7.7691  -15.6290   21.0904 C   0  0  0  0  0  0  0  0  0  0  0  0
    6.9384  -14.8897   21.6954 O   0  0  0  0  0  0  0  0  0  0  0  0
    6.2388  -19.8688   24.5493 N   0  0  0  0  0  0  0  0  0  0  0  0
    7.5236  -19.2385   24.4318 C   0  0  0  0  0  0  0  0  0  0  0  0
    8.2235  -19.1345   25.4534 O   0  0  0  0  0  0  0  0  0  0  0  0
    7.8954  -18.7649   23.0784 C   0  0  0  0  0  0  0  0  0  0  0  0
    7.7228  -17.2658   22.9465 C   0  0  2  0  0  0  0  0  0  0  0  0
    8.2347  -16.8312   21.6677 N   0  0  0  0  0  0  0  0  0  0  0  0
    8.4572  -16.5435   24.0165 C   0  0  0  0  0  0  0  0  0  0  0  0
    9.7239  -16.4732   23.9095 O   0  0  0  0  0  0  0  0  0  0  0  0
    6.2030  -10.8208   25.6750 C   0  0  0  0  0  0  0  0  0  0  0  0
    6.9307  -11.3208   27.2164 S   0  0  0  0  0  0  0  0  0  0  0  0
    8.0760  -12.6837   27.0308 C   0  0  0  0  0  0  0  0  0  0  0  0
    7.6500  -13.7513   26.1065 C   0  0  0  0  0  0  0  0  0  0  0  0
    8.5638  -14.9019   25.8886 C   0  0  2  0  0  0  0  0  0  0  0  0
    7.8435  -15.9447   25.1191 N   0  0  0  0  0  0  0  0  0  0  0  0
    8.9406  -15.5824   27.1483 C   0  0  0  0  0  0  0  0  0  0  0  0
   10.0049  -15.2965   27.7294 O   0  0  0  0  0  0  0  0  0  0  0  0
    8.1268  -16.5410   27.6968 O   0  0  0  0  0  0  0  0  0  0  0  0
  2  3  1  0
  2  1  1  6
  4  3  1  0
  5  4  2  0
  6  5  1  0
  7  6  1  0
  7  8  2  0
  8  4  1  0
  9  2  1  0
 10  9  2  0
 12 11  1  0
 13 12  2  0
 14 12  1  0
 15 14  1  1
 15 16  1  0
 16  9  1  0
 17 15  1  0
 17 18  2  0
 19 20  1  0
 20 21  1  0
 23 22  1  1
 22 21  1  0
 23 24  1  0
 24 17  1  0
 25 23  1  0
 26 25  2  0
 27 25  1  0
M  END
$$$$
