HNM.pdb
     RDKit          3D

 27 27  0  0  1  0  0  0  0  0999 V2000
    8.2331  -17.4285   17.8613 N   0  0  0  0  0  0  0  0  0  0  0  0
    8.6447  -16.4401   18.8225 C   0  0  1  0  0  0  0  0  0  0  0  0
    7.6348  -15.3044   18.8541 C   0  0  0  0  0  0  0  0  0  0  0  0
    7.7017  -14.4825   17.6298 C   0  0  0  0  0  0  0  0  0  0  0  0
    8.2843  -13.2528   17.5323 C   0  0  0  0  0  0  0  0  0  0  0  0
    8.1372  -12.8377   16.2608 N   0  0  0  0  0  0  0  0  0  0  0  0
    7.4768  -13.7961   15.5935 C   0  0  0  0  0  0  0  0  0  0  0  0
    7.2084  -14.8045   16.4279 N   0  0  0  0  0  0  0  0  0  0  0  0
    8.7011  -17.0405   20.1807 C   0  0  0  0  0  0  0  0  0  0  0  0
    7.6864  -17.6817   20.5831 O   0  0  0  0  0  0  0  0  0  0  0  0
   10.5770  -20.2670   24.0011 N   0  0  0  0  0  0  0  0  0  0  0  0
   11.2187  -19.0059   23.7566 C   0  0  0  0  0  0  0  0  0  0  0  0
   11.8466  -18.4749   24.6884 O   0  0  0  0  0  0  0  0  0  0  0  0
   11.0660  -18.4511   22.3917 C   0  0  0  0  0  0  0  0  0  0  0  0
    9.8847  -17.5069   22.3038 C   0  0  2  0  0  0  0  0  0  0  0  0
    9.8478  -16.9001   20.9935 N   0  0  0  0  0  0  0  0  0  0  0  0
    9.9825  -16.4270   23.3188 C   0  0  0  0  0  0  0  0  0  0  0  0
   10.8021  -15.4808   23.0871 O   0  0  0  0  0  0  0  0  0  0  0  0
    6.2415  -11.2290   27.5542 C   0  0  0  0  0  0  0  0  0  0  0  0
    6.3264  -12.5746   26.3978 S   0  0  0  0  0  0  0  0  0  0  0  0
    7.8905  -13.4424   26.4598 C   0  0  0  0  0  0  0  0  0  0  0  0
    8.0588  -14.5218   25.4688 C   0  0  0  0  0  0  0  0  0  0  0  0
    9.3603  -15.2359   25.4177 C   0  0  2  0  0  0  0  0  0  0  0  0
    9.2349  -16.3923   24.4982 N   0  0  0  0  0  0  0  0  0  0  0  0
    9.7308  -15.8477   26.7140 C   0  0  0  0  0  0  0  0  0  0  0  0
   10.0496  -15.1337   27.6839 O   0  0  0  0  0  0  0  0  0  0  0  0
    9.7322  -17.2107   26.8701 O   0  0  0  0  0  0  0  0  0  0  0  0
  2  3  1  0
  2  1  1  6
  4  3  1  0
  5  4  2  0
  6  5  1  0
  7  6  1  0
  7  8  2  0
  8  4  1  0
  9  2  1  0
 10  9  2  0
 12 11  1  0
 13 12  2  0
 14 12  1  0
 15 14  1  6
 15 16  1  0
 16  9  1  0
 17 15  1  0
 17 18  2  0
 19 20  1  0
 20 21  1  0
 23 22  1  1
 22 21  1  0
 23 24  1  0
 24 17  1  0
 25 23  1  0
 26 25  2  0
 27 25  1  0
M  END
$$$$
