HNM.pdb
     RDKit          3D

 27 27  0  0  1  0  0  0  0  0999 V2000
    7.9354  -17.4204   19.1284 N   0  0  0  0  0  0  0  0  0  0  0  0
    8.7529  -16.6206   20.0014 C   0  0  1  0  0  0  0  0  0  0  0  0
    8.1143  -15.2545   20.1922 C   0  0  0  0  0  0  0  0  0  0  0  0
    8.2047  -14.4356   18.9674 C   0  0  0  0  0  0  0  0  0  0  0  0
    8.8594  -14.7903   17.8242 C   0  0  0  0  0  0  0  0  0  0  0  0
    8.7091  -13.7824   16.9455 N   0  0  0  0  0  0  0  0  0  0  0  0
    7.9761  -12.8293   17.5407 C   0  0  0  0  0  0  0  0  0  0  0  0
    7.6654  -13.2253   18.7783 N   0  0  0  0  0  0  0  0  0  0  0  0
    8.8594  -17.2666   21.3355 C   0  0  0  0  0  0  0  0  0  0  0  0
    7.9810  -18.1238   21.6460 O   0  0  0  0  0  0  0  0  0  0  0  0
   12.5624  -19.7151   25.1832 N   0  0  0  0  0  0  0  0  0  0  0  0
   11.2456  -19.3030   24.7854 C   0  0  0  0  0  0  0  0  0  0  0  0
   10.2901  -19.5917   25.5257 O   0  0  0  0  0  0  0  0  0  0  0  0
   11.1539  -18.5603   23.5071 C   0  0  0  0  0  0  0  0  0  0  0  0
    9.9943  -17.5858   23.5118 C   0  0  2  0  0  0  0  0  0  0  0  0
    9.9050  -16.9349   22.2254 N   0  0  0  0  0  0  0  0  0  0  0  0
   10.1721  -16.5430   24.5544 C   0  0  0  0  0  0  0  0  0  0  0  0
   11.2145  -15.8159   24.4805 O   0  0  0  0  0  0  0  0  0  0  0  0
    6.1375  -12.0627   25.8542 C   0  0  0  0  0  0  0  0  0  0  0  0
    6.7603  -12.2317   27.5091 S   0  0  0  0  0  0  0  0  0  0  0  0
    8.2080  -13.2803   27.5996 C   0  0  0  0  0  0  0  0  0  0  0  0
    8.2672  -14.3700   26.6073 C   0  0  0  0  0  0  0  0  0  0  0  0
    9.4988  -15.1979   26.5415 C   0  0  2  0  0  0  0  0  0  0  0  0
    9.2710  -16.3186   25.5977 N   0  0  0  0  0  0  0  0  0  0  0  0
    9.8095  -15.8678   27.8247 C   0  0  0  0  0  0  0  0  0  0  0  0
    9.5544  -17.0764   27.9868 O   0  0  0  0  0  0  0  0  0  0  0  0
   10.3811  -15.1702   28.8584 O   0  0  0  0  0  0  0  0  0  0  0  0
  2  3  1  0
  2  1  1  6
  4  3  1  0
  5  4  2  0
  6  5  1  0
  7  6  1  0
  7  8  2  0
  8  4  1  0
  9  2  1  0
 10  9  2  0
 12 11  1  0
 13 12  2  0
 14 12  1  0
 15 14  1  6
 15 16  1  0
 16  9  1  0
 17 15  1  0
 17 18  2  0
 19 20  1  0
 20 21  1  0
 23 22  1  1
 22 21  1  0
 23 24  1  0
 24 17  1  0
 25 23  1  0
 26 25  2  0
 27 25  1  0
M  END
$$$$
