HNM.pdb
     RDKit          3D

 27 27  0  0  1  0  0  0  0  0999 V2000
    7.7598  -17.3977   19.4352 N   0  0  0  0  0  0  0  0  0  0  0  0
    8.6055  -16.6819   20.3531 C   0  0  1  0  0  0  0  0  0  0  0  0
    8.0635  -15.2769   20.5599 C   0  0  0  0  0  0  0  0  0  0  0  0
    8.2574  -14.4370   19.3616 C   0  0  0  0  0  0  0  0  0  0  0  0
    8.8070  -14.8521   18.1839 C   0  0  0  0  0  0  0  0  0  0  0  0
    8.8066  -13.7989   17.3465 N   0  0  0  0  0  0  0  0  0  0  0  0
    8.2668  -12.7591   18.0004 C   0  0  0  0  0  0  0  0  0  0  0  0
    7.9293  -13.1456   19.2340 N   0  0  0  0  0  0  0  0  0  0  0  0
    8.6211  -17.3654   21.6726 C   0  0  0  0  0  0  0  0  0  0  0  0
    7.9060  -18.4012   21.8071 O   0  0  0  0  0  0  0  0  0  0  0  0
   11.8236  -20.4102   24.9250 N   0  0  0  0  0  0  0  0  0  0  0  0
   10.5964  -19.6646   24.9163 C   0  0  0  0  0  0  0  0  0  0  0  0
    9.8842  -19.6919   25.9344 O   0  0  0  0  0  0  0  0  0  0  0  0
   10.2942  -18.9221   23.6708 C   0  0  0  0  0  0  0  0  0  0  0  0
    9.5352  -17.6426   23.9560 C   0  0  2  0  0  0  0  0  0  0  0  0
    9.4073  -16.8753   22.7389 N   0  0  0  0  0  0  0  0  0  0  0  0
   10.2418  -16.8110   24.9634 C   0  0  0  0  0  0  0  0  0  0  0  0
   11.2361  -16.1256   24.5604 O   0  0  0  0  0  0  0  0  0  0  0  0
    6.4447  -11.2161   27.2297 C   0  0  0  0  0  0  0  0  0  0  0  0
    6.6620  -12.9674   27.4319 S   0  0  0  0  0  0  0  0  0  0  0  0
    8.3516  -13.4910   27.1585 C   0  0  0  0  0  0  0  0  0  0  0  0
    8.5956  -14.9407   27.2775 C   0  0  0  0  0  0  0  0  0  0  0  0
    9.9701  -15.4473   27.0317 C   0  0  2  0  0  0  0  0  0  0  0  0
    9.8810  -16.7399   26.3109 N   0  0  0  0  0  0  0  0  0  0  0  0
   10.6903  -15.7828   28.2810 C   0  0  0  0  0  0  0  0  0  0  0  0
   10.7098  -16.9535   28.7065 O   0  0  0  0  0  0  0  0  0  0  0  0
   11.3464  -14.8113   28.9935 O   0  0  0  0  0  0  0  0  0  0  0  0
  2  3  1  0
  2  1  1  6
  4  3  1  0
  5  4  2  0
  6  5  1  0
  7  6  1  0
  7  8  2  0
  8  4  1  0
  9  2  1  0
 10  9  2  0
 12 11  1  0
 13 12  2  0
 14 12  1  0
 15 14  1  6
 15 16  1  0
 16  9  1  0
 17 15  1  0
 17 18  2  0
 19 20  1  0
 20 21  1  0
 23 22  1  1
 22 21  1  0
 23 24  1  0
 24 17  1  0
 25 23  1  0
 26 25  2  0
 27 25  1  0
M  END
$$$$
