HNM.pdb
     RDKit          3D

 27 27  0  0  1  0  0  0  0  0999 V2000
    8.2245  -16.9556   19.1753 N   0  0  0  0  0  0  0  0  0  0  0  0
    8.1018  -15.9791   20.2248 C   0  0  1  0  0  0  0  0  0  0  0  0
    7.0255  -14.9691   19.8617 C   0  0  0  0  0  0  0  0  0  0  0  0
    7.3940  -14.1876   18.6648 C   0  0  0  0  0  0  0  0  0  0  0  0
    7.9549  -12.9440   18.6728 C   0  0  0  0  0  0  0  0  0  0  0  0
    8.1383  -12.5773   17.3912 N   0  0  0  0  0  0  0  0  0  0  0  0
    7.6976  -13.5783   16.6143 C   0  0  0  0  0  0  0  0  0  0  0  0
    7.2413  -14.5658   17.3900 N   0  0  0  0  0  0  0  0  0  0  0  0
    7.7000  -16.6402   21.4935 C   0  0  0  0  0  0  0  0  0  0  0  0
    6.5302  -17.1192   21.5625 O   0  0  0  0  0  0  0  0  0  0  0  0
    6.3374  -20.3399   24.6550 N   0  0  0  0  0  0  0  0  0  0  0  0
    7.6545  -19.7857   24.5129 C   0  0  0  0  0  0  0  0  0  0  0  0
    8.5085  -20.0715   25.3692 O   0  0  0  0  0  0  0  0  0  0  0  0
    7.8697  -18.9109   23.3371 C   0  0  0  0  0  0  0  0  0  0  0  0
    8.2336  -17.5004   23.7522 C   0  0  2  0  0  0  0  0  0  0  0  0
    8.5932  -16.7306   22.5841 N   0  0  0  0  0  0  0  0  0  0  0  0
    9.3851  -17.4958   24.6904 C   0  0  0  0  0  0  0  0  0  0  0  0
   10.5361  -17.7365   24.2025 O   0  0  0  0  0  0  0  0  0  0  0  0
    9.1684  -13.5654   30.4030 C   0  0  0  0  0  0  0  0  0  0  0  0
   10.3499  -13.2350   29.1184 S   0  0  0  0  0  0  0  0  0  0  0  0
   10.9593  -14.7264   28.3388 C   0  0  0  0  0  0  0  0  0  0  0  0
   10.0163  -15.3972   27.4244 C   0  0  0  0  0  0  0  0  0  0  0  0
   10.4304  -16.6801   26.8007 C   0  0  2  0  0  0  0  0  0  0  0  0
    9.2768  -17.2455   26.0602 N   0  0  0  0  0  0  0  0  0  0  0  0
   10.7615  -17.7230   27.7981 C   0  0  0  0  0  0  0  0  0  0  0  0
    9.8984  -18.5406   28.1706 O   0  0  0  0  0  0  0  0  0  0  0  0
   12.0225  -17.8063   28.3318 O   0  0  0  0  0  0  0  0  0  0  0  0
  2  3  1  0
  2  1  1  6
  4  3  1  0
  5  4  2  0
  6  5  1  0
  7  6  1  0
  7  8  2  0
  8  4  1  0
  9  2  1  0
 10  9  2  0
 12 11  1  0
 13 12  2  0
 14 12  1  0
 15 14  1  6
 15 16  1  0
 16  9  1  0
 17 15  1  0
 17 18  2  0
 19 20  1  0
 20 21  1  0
 23 22  1  1
 22 21  1  0
 23 24  1  0
 24 17  1  0
 25 23  1  0
 26 25  2  0
 27 25  1  0
M  END
$$$$
