HNM.pdb
     RDKit          3D

 27 27  0  0  1  0  0  0  0  0999 V2000
   10.2838  -20.0246   19.9568 N   0  0  0  0  0  0  0  0  0  0  0  0
    9.1214  -19.3120   20.4162 C   0  0  1  0  0  0  0  0  0  0  0  0
    8.6801  -19.8648   21.7616 C   0  0  0  0  0  0  0  0  0  0  0  0
    9.7791  -19.8408   22.7468 C   0  0  0  0  0  0  0  0  0  0  0  0
   11.0487  -19.4029   22.5065 C   0  0  0  0  0  0  0  0  0  0  0  0
   11.7450  -19.5413   23.6495 N   0  0  0  0  0  0  0  0  0  0  0  0
   10.9163  -20.0543   24.5715 C   0  0  0  0  0  0  0  0  0  0  0  0
    9.7121  -20.2390   24.0229 N   0  0  0  0  0  0  0  0  0  0  0  0
    9.4425  -17.8723   20.5959 C   0  0  0  0  0  0  0  0  0  0  0  0
   10.6586  -17.5275   20.5262 O   0  0  0  0  0  0  0  0  0  0  0  0
    7.0038  -12.5191   20.5557 N   0  0  0  0  0  0  0  0  0  0  0  0
    7.7614  -13.4156   19.7284 C   0  0  0  0  0  0  0  0  0  0  0  0
    8.5486  -12.9278   18.8997 O   0  0  0  0  0  0  0  0  0  0  0  0
    7.5255  -14.8613   19.9483 C   0  0  0  0  0  0  0  0  0  0  0  0
    8.6934  -15.5140   20.6584 C   0  0  2  0  0  0  0  0  0  0  0  0
    8.4251  -16.9221   20.8358 N   0  0  0  0  0  0  0  0  0  0  0  0
    8.9180  -14.9066   21.9950 C   0  0  0  0  0  0  0  0  0  0  0  0
    9.3275  -13.7016   22.0270 O   0  0  0  0  0  0  0  0  0  0  0  0
    6.5557  -10.8715   26.7629 C   0  0  0  0  0  0  0  0  0  0  0  0
    6.0445  -12.5268   26.3708 S   0  0  0  0  0  0  0  0  0  0  0  0
    7.4229  -13.6576   26.2134 C   0  0  0  0  0  0  0  0  0  0  0  0
    7.5252  -14.3598   24.9203 C   0  0  0  0  0  0  0  0  0  0  0  0
    8.8595  -14.8471   24.4859 C   0  0  2  0  0  0  0  0  0  0  0  0
    8.7076  -15.5752   23.2032 N   0  0  0  0  0  0  0  0  0  0  0  0
    9.4293  -15.8574   25.4059 C   0  0  0  0  0  0  0  0  0  0  0  0
    9.5824  -15.5989   26.6150 O   0  0  0  0  0  0  0  0  0  0  0  0
    9.8011  -17.0945   24.9440 O   0  0  0  0  0  0  0  0  0  0  0  0
  2  3  1  0
  2  1  1  1
  4  3  1  0
  5  4  2  0
  6  5  1  0
  7  6  1  0
  7  8  2  0
  8  4  1  0
  9  2  1  0
 10  9  2  0
 12 11  1  0
 13 12  2  0
 14 12  1  0
 15 14  1  1
 15 16  1  0
 16  9  1  0
 17 15  1  0
 17 18  2  0
 19 20  1  0
 20 21  1  0
 23 22  1  1
 22 21  1  0
 23 24  1  0
 24 17  1  0
 25 23  1  0
 26 25  2  0
 27 25  1  0
M  END
$$$$
