GGY.pdb
     RDKit          3D

 21 21  0  0  1  0  0  0  0  0999 V2000
   28.1815  -18.8523  -18.8565 N   0  0  0  0  0  0  0  0  0  0  0  0
   28.8389  -18.4257  -17.6604 C   0  0  0  0  0  0  0  0  0  0  0  0
   27.8800  -18.2845  -16.5164 C   0  0  0  0  0  0  0  0  0  0  0  0
   26.6954  -17.9596  -16.8015 O   0  0  0  0  0  0  0  0  0  0  0  0
   28.2571  -18.4981  -15.1814 N   0  0  0  0  0  0  0  0  0  0  0  0
   27.3259  -18.3055  -14.1059 C   0  0  0  0  0  0  0  0  0  0  0  0
   26.5963  -19.5883  -13.8823 C   0  0  0  0  0  0  0  0  0  0  0  0
   26.5210  -20.4292  -14.8144 O   0  0  0  0  0  0  0  0  0  0  0  0
   27.1607  -19.1159   -6.6036 O   0  0  0  0  0  0  0  0  0  0  0  0
   26.8766  -19.8174   -7.7668 C   0  0  0  0  0  0  0  0  0  0  0  0
   25.6094  -20.3723   -7.9114 C   0  0  0  0  0  0  0  0  0  0  0  0
   25.3519  -21.0589   -9.0653 C   0  0  0  0  0  0  0  0  0  0  0  0
   26.2739  -21.2264  -10.0796 C   0  0  0  0  0  0  0  0  0  0  0  0
   25.9823  -21.9668  -11.3135 C   0  0  0  0  0  0  0  0  0  0  0  0
   25.2935  -21.0940  -12.3056 C   0  0  2  0  0  0  0  0  0  0  0  0
   25.9847  -19.8745  -12.6306 N   0  0  0  0  0  0  0  0  0  0  0  0
   23.8683  -20.8038  -11.9420 C   0  0  0  0  0  0  0  0  0  0  0  0
   22.8960  -21.7780  -11.9071 O   0  0  0  0  0  0  0  0  0  0  0  0
   27.5354  -20.6688   -9.9256 C   0  0  0  0  0  0  0  0  0  0  0  0
   27.8250  -19.9654   -8.7627 C   0  0  0  0  0  0  0  0  0  0  0  0
   23.5585  -19.6194  -11.6563 O   0  0  0  0  0  0  0  0  0  0  0  0
  2  1  1  0
  3  2  1  0
  4  3  2  0
  5  3  1  0
  6  5  1  0
  7 16  1  0
  7  6  1  0
  8  7  2  0
  9 10  1  0
 10 11  2  0
 10 20  1  0
 11 12  1  0
 12 13  2  0
 13 14  1  0
 15 14  1  1
 15 16  1  0
 15 17  1  0
 17 18  1  0
 19 13  1  0
 20 19  2  0
 21 17  2  0
M  END
$$$$
