GGY.pdb
     RDKit          3D

 21 21  0  0  1  0  0  0  0  0999 V2000
   25.5048  -23.3358  -16.3619 N   0  0  0  0  0  0  0  0  0  0  0  0
   26.7014  -22.5534  -16.3912 C   0  0  0  0  0  0  0  0  0  0  0  0
   27.4077  -22.5638  -15.0687 C   0  0  0  0  0  0  0  0  0  0  0  0
   27.1217  -23.5024  -14.2764 O   0  0  0  0  0  0  0  0  0  0  0  0
   28.3474  -21.5871  -14.7042 N   0  0  0  0  0  0  0  0  0  0  0  0
   29.1284  -21.7169  -13.5067 C   0  0  0  0  0  0  0  0  0  0  0  0
   28.4231  -20.9954  -12.4066 C   0  0  0  0  0  0  0  0  0  0  0  0
   29.0296  -20.1009  -11.7634 O   0  0  0  0  0  0  0  0  0  0  0  0
   25.1631  -17.8950  -16.7132 O   0  0  0  0  0  0  0  0  0  0  0  0
   25.4221  -18.1952  -15.3833 C   0  0  0  0  0  0  0  0  0  0  0  0
   24.4347  -18.8413  -14.6469 C   0  0  0  0  0  0  0  0  0  0  0  0
   24.7118  -19.1271  -13.3389 C   0  0  0  0  0  0  0  0  0  0  0  0
   25.9058  -18.8109  -12.7215 C   0  0  0  0  0  0  0  0  0  0  0  0
   26.1887  -19.1245  -11.3154 C   0  0  0  0  0  0  0  0  0  0  0  0
   26.2771  -20.5974  -11.1079 C   0  0  2  0  0  0  0  0  0  0  0  0
   27.0751  -21.3041  -12.0746 N   0  0  0  0  0  0  0  0  0  0  0  0
   24.9357  -21.2509  -10.9622 C   0  0  0  0  0  0  0  0  0  0  0  0
   24.5208  -22.2864  -11.7692 O   0  0  0  0  0  0  0  0  0  0  0  0
   26.8846  -18.1663  -13.4650 C   0  0  0  0  0  0  0  0  0  0  0  0
   26.6302  -17.8634  -14.7971 C   0  0  0  0  0  0  0  0  0  0  0  0
   24.1659  -20.8306  -10.0615 O   0  0  0  0  0  0  0  0  0  0  0  0
  2  1  1  0
  3  2  1  0
  4  3  2  0
  5  3  1  0
  6  5  1  0
  7 16  1  0
  7  6  1  0
  8  7  2  0
  9 10  1  0
 10 11  2  0
 10 20  1  0
 11 12  1  0
 12 13  2  0
 13 14  1  0
 15 14  1  6
 15 16  1  0
 15 17  1  0
 17 18  1  0
 19 13  1  0
 20 19  2  0
 21 17  2  0
M  END
$$$$
