GGY.pdb
     RDKit          3D

 21 21  0  0  1  0  0  0  0  0999 V2000
   25.3595  -17.6280  -18.9038 N   0  0  0  0  0  0  0  0  0  0  0  0
   26.6383  -18.0315  -18.4073 C   0  0  0  0  0  0  0  0  0  0  0  0
   26.6067  -19.4227  -17.8489 C   0  0  0  0  0  0  0  0  0  0  0  0
   25.4715  -19.9488  -17.6916 O   0  0  0  0  0  0  0  0  0  0  0  0
   27.7711  -20.1288  -17.5089 N   0  0  0  0  0  0  0  0  0  0  0  0
   27.7493  -21.5519  -17.3212 C   0  0  0  0  0  0  0  0  0  0  0  0
   27.5069  -21.8303  -15.8749 C   0  0  0  0  0  0  0  0  0  0  0  0
   27.4932  -23.0197  -15.4664 O   0  0  0  0  0  0  0  0  0  0  0  0
   25.0211  -20.5792   -7.5504 O   0  0  0  0  0  0  0  0  0  0  0  0
   25.6310  -20.4537   -8.7906 C   0  0  0  0  0  0  0  0  0  0  0  0
   26.1975  -21.5860   -9.3664 C   0  0  0  0  0  0  0  0  0  0  0  0
   26.7928  -21.4389  -10.5883 C   0  0  0  0  0  0  0  0  0  0  0  0
   26.8587  -20.2394  -11.2695 C   0  0  0  0  0  0  0  0  0  0  0  0
   27.5017  -20.0972  -12.5817 C   0  0  0  0  0  0  0  0  0  0  0  0
   26.8091  -20.9302  -13.6048 C   0  0  2  0  0  0  0  0  0  0  0  0
   27.2911  -20.7707  -14.9512 N   0  0  0  0  0  0  0  0  0  0  0  0
   25.3172  -20.7877  -13.5653 C   0  0  0  0  0  0  0  0  0  0  0  0
   24.6517  -19.7543  -14.1858 O   0  0  0  0  0  0  0  0  0  0  0  0
   26.2904  -19.1155  -10.6864 C   0  0  0  0  0  0  0  0  0  0  0  0
   25.6784  -19.2358   -9.4446 C   0  0  0  0  0  0  0  0  0  0  0  0
   24.6550  -21.6538  -12.9394 O   0  0  0  0  0  0  0  0  0  0  0  0
  2  1  1  0
  3  2  1  0
  4  3  2  0
  5  3  1  0
  6  5  1  0
  7 16  1  0
  7  6  1  0
  8  7  2  0
  9 10  1  0
 10 11  2  0
 10 20  1  0
 11 12  1  0
 12 13  2  0
 13 14  1  0
 15 14  1  1
 15 16  1  0
 15 17  1  0
 17 18  1  0
 19 13  1  0
 20 19  2  0
 21 17  2  0
M  END
$$$$
