GGY.pdb
     RDKit          3D

 21 21  0  0  1  0  0  0  0  0999 V2000
   21.7685  -20.6789  -15.3975 N   0  0  0  0  0  0  0  0  0  0  0  0
   22.6847  -19.6142  -15.1297 C   0  0  0  0  0  0  0  0  0  0  0  0
   24.0921  -20.1113  -14.9877 C   0  0  0  0  0  0  0  0  0  0  0  0
   24.9963  -19.2398  -14.8731 O   0  0  0  0  0  0  0  0  0  0  0  0
   24.4156  -21.4771  -14.9795 N   0  0  0  0  0  0  0  0  0  0  0  0
   25.7820  -21.9173  -14.9664 C   0  0  0  0  0  0  0  0  0  0  0  0
   26.2562  -21.9313  -13.5511 C   0  0  0  0  0  0  0  0  0  0  0  0
   27.3563  -22.4730  -13.2714 O   0  0  0  0  0  0  0  0  0  0  0  0
   28.4498  -19.8687   -5.5166 O   0  0  0  0  0  0  0  0  0  0  0  0
   28.0789  -19.9314   -6.8524 C   0  0  0  0  0  0  0  0  0  0  0  0
   28.8081  -20.7558   -7.7029 C   0  0  0  0  0  0  0  0  0  0  0  0
   28.4249  -20.8019   -9.0145 C   0  0  0  0  0  0  0  0  0  0  0  0
   27.3654  -20.0812   -9.5293 C   0  0  0  0  0  0  0  0  0  0  0  0
   26.9658  -20.1413  -10.9408 C   0  0  0  0  0  0  0  0  0  0  0  0
   25.9138  -21.1756  -11.1508 C   0  0  2  0  0  0  0  0  0  0  0  0
   25.4829  -21.3413  -12.5136 N   0  0  0  0  0  0  0  0  0  0  0  0
   24.7299  -20.9998  -10.2479 C   0  0  0  0  0  0  0  0  0  0  0  0
   24.6651  -21.5541   -8.9893 O   0  0  0  0  0  0  0  0  0  0  0  0
   26.6442  -19.2616   -8.6724 C   0  0  0  0  0  0  0  0  0  0  0  0
   27.0115  -19.1952   -7.3338 C   0  0  0  0  0  0  0  0  0  0  0  0
   23.7624  -20.3142  -10.6653 O   0  0  0  0  0  0  0  0  0  0  0  0
  2  1  1  0
  3  2  1  0
  4  3  2  0
  5  3  1  0
  6  5  1  0
  7 16  1  0
  7  6  1  0
  8  7  2  0
  9 10  1  0
 10 11  2  0
 10 20  1  0
 11 12  1  0
 12 13  2  0
 13 14  1  0
 15 14  1  6
 15 16  1  0
 15 17  1  0
 17 18  1  0
 19 13  1  0
 20 19  2  0
 21 17  2  0
M  END
$$$$
