GGY.pdb
     RDKit          3D

 21 21  0  0  1  0  0  0  0  0999 V2000
   27.9508  -19.9556  -16.0200 N   0  0  0  0  0  0  0  0  0  0  0  0
   27.2163  -20.9811  -16.6935 C   0  0  0  0  0  0  0  0  0  0  0  0
   26.6693  -21.9967  -15.7357 C   0  0  0  0  0  0  0  0  0  0  0  0
   27.2959  -22.1555  -14.6530 O   0  0  0  0  0  0  0  0  0  0  0  0
   25.5158  -22.7490  -16.0067 N   0  0  0  0  0  0  0  0  0  0  0  0
   24.9754  -23.6573  -15.0352 C   0  0  0  0  0  0  0  0  0  0  0  0
   23.8172  -22.9941  -14.3667 C   0  0  0  0  0  0  0  0  0  0  0  0
   23.1169  -23.6453  -13.5499 O   0  0  0  0  0  0  0  0  0  0  0  0
   26.1596  -21.0205   -8.8158 O   0  0  0  0  0  0  0  0  0  0  0  0
   25.3830  -20.6826   -9.9151 C   0  0  0  0  0  0  0  0  0  0  0  0
   24.0206  -20.4772   -9.7241 C   0  0  0  0  0  0  0  0  0  0  0  0
   23.2752  -20.1453  -10.8210 C   0  0  0  0  0  0  0  0  0  0  0  0
   23.7999  -20.0057  -12.0907 C   0  0  0  0  0  0  0  0  0  0  0  0
   22.9861  -19.6486  -13.2594 C   0  0  0  0  0  0  0  0  0  0  0  0
   22.4878  -20.8702  -13.9521 C   0  0  2  0  0  0  0  0  0  0  0  0
   23.4934  -21.6364  -14.6393 N   0  0  0  0  0  0  0  0  0  0  0  0
   21.3287  -20.5965  -14.8628 C   0  0  0  0  0  0  0  0  0  0  0  0
   20.0934  -20.2046  -14.3979 O   0  0  0  0  0  0  0  0  0  0  0  0
   25.1604  -20.2127  -12.2707 C   0  0  0  0  0  0  0  0  0  0  0  0
   25.9425  -20.5513  -11.1732 C   0  0  0  0  0  0  0  0  0  0  0  0
   21.5024  -20.7309  -16.1006 O   0  0  0  0  0  0  0  0  0  0  0  0
  2  1  1  0
  3  2  1  0
  4  3  2  0
  5  3  1  0
  6  5  1  0
  7 16  1  0
  7  6  1  0
  8  7  2  0
  9 10  1  0
 10 11  2  0
 10 20  1  0
 11 12  1  0
 12 13  2  0
 13 14  1  0
 15 14  1  6
 15 16  1  0
 15 17  1  0
 17 18  1  0
 19 13  1  0
 20 19  2  0
 21 17  2  0
M  END
$$$$
