GGY.pdb
     RDKit          3D

 21 21  0  0  1  0  0  0  0  0999 V2000
   22.7771  -22.3396  -19.0807 N   0  0  0  0  0  0  0  0  0  0  0  0
   24.0461  -22.9134  -18.7569 C   0  0  0  0  0  0  0  0  0  0  0  0
   24.9268  -21.9443  -18.0265 C   0  0  0  0  0  0  0  0  0  0  0  0
   24.3694  -20.9260  -17.5340 O   0  0  0  0  0  0  0  0  0  0  0  0
   26.3096  -22.1374  -17.8830 N   0  0  0  0  0  0  0  0  0  0  0  0
   27.1092  -21.2354  -17.1033 C   0  0  0  0  0  0  0  0  0  0  0  0
   26.8666  -21.5230  -15.6588 C   0  0  0  0  0  0  0  0  0  0  0  0
   27.4587  -22.4878  -15.1110 O   0  0  0  0  0  0  0  0  0  0  0  0
   25.1962  -20.9408   -7.1897 O   0  0  0  0  0  0  0  0  0  0  0  0
   25.4862  -20.6817   -8.5219 C   0  0  0  0  0  0  0  0  0  0  0  0
   24.4957  -20.1125   -9.3154 C   0  0  0  0  0  0  0  0  0  0  0  0
   24.8036  -19.8660  -10.6245 C   0  0  0  0  0  0  0  0  0  0  0  0
   26.0312  -20.1499  -11.1898 C   0  0  0  0  0  0  0  0  0  0  0  0
   26.3469  -19.8792  -12.5979 C   0  0  0  0  0  0  0  0  0  0  0  0
   25.7100  -20.8904  -13.4881 C   0  0  2  0  0  0  0  0  0  0  0  0
   25.9756  -20.7223  -14.8923 N   0  0  0  0  0  0  0  0  0  0  0  0
   24.2369  -21.0361  -13.2505 C   0  0  0  0  0  0  0  0  0  0  0  0
   23.7086  -21.9997  -12.4210 O   0  0  0  0  0  0  0  0  0  0  0  0
   27.0126  -20.7177  -10.3895 C   0  0  0  0  0  0  0  0  0  0  0  0
   26.7273  -20.9792   -9.0549 C   0  0  0  0  0  0  0  0  0  0  0  0
   23.4601  -20.2393  -13.8355 O   0  0  0  0  0  0  0  0  0  0  0  0
  2  1  1  0
  3  2  1  0
  4  3  2  0
  5  3  1  0
  6  5  1  0
  7 16  1  0
  7  6  1  0
  8  7  2  0
  9 10  1  0
 10 11  2  0
 10 20  1  0
 11 12  1  0
 12 13  2  0
 13 14  1  0
 15 14  1  1
 15 16  1  0
 15 17  1  0
 17 18  1  0
 19 13  1  0
 20 19  2  0
 21 17  2  0
M  END
$$$$
