GGY.pdb
     RDKit          3D

 21 21  0  0  1  0  0  0  0  0999 V2000
   25.8384    6.5026  -10.7110 N   0  0  0  0  0  0  0  0  0  0  0  0
   26.4120    5.9396   -9.5283 C   0  0  0  0  0  0  0  0  0  0  0  0
   25.4843    6.0418   -8.3549 C   0  0  0  0  0  0  0  0  0  0  0  0
   24.4784    6.7910   -8.4862 O   0  0  0  0  0  0  0  0  0  0  0  0
   25.7017    5.3472   -7.1548 N   0  0  0  0  0  0  0  0  0  0  0  0
   24.7990    5.4777   -6.0462 C   0  0  0  0  0  0  0  0  0  0  0  0
   25.2754    4.5877   -4.9466 C   0  0  0  0  0  0  0  0  0  0  0  0
   26.0539    5.0460   -4.0716 O   0  0  0  0  0  0  0  0  0  0  0  0
   26.0225   -1.5793    1.0750 O   0  0  0  0  0  0  0  0  0  0  0  0
   25.5529   -0.7624    0.0562 C   0  0  0  0  0  0  0  0  0  0  0  0
   24.9083   -1.3567   -1.0237 C   0  0  0  0  0  0  0  0  0  0  0  0
   24.4541   -0.5327   -2.0156 C   0  0  0  0  0  0  0  0  0  0  0  0
   24.6012    0.8403   -1.9989 C   0  0  0  0  0  0  0  0  0  0  0  0
   24.1078    1.7123   -3.0721 C   0  0  0  0  0  0  0  0  0  0  0  0
   25.2408    2.3023   -3.8393 C   0  0  2  0  0  0  0  0  0  0  0  0
   24.8622    3.2289   -4.8731 N   0  0  0  0  0  0  0  0  0  0  0  0
   26.1811    1.2696   -4.3843 C   0  0  0  0  0  0  0  0  0  0  0  0
   27.3403    0.9035   -3.7378 O   0  0  0  0  0  0  0  0  0  0  0  0
   25.2458    1.4234   -0.9170 C   0  0  0  0  0  0  0  0  0  0  0  0
   25.7179    0.6099    0.1059 C   0  0  0  0  0  0  0  0  0  0  0  0
   25.8891    0.7190   -5.4762 O   0  0  0  0  0  0  0  0  0  0  0  0
  2  1  1  0
  3  2  1  0
  4  3  2  0
  5  3  1  0
  6  5  1  0
  7 16  1  0
  7  6  1  0
  8  7  2  0
  9 10  1  0
 10 11  2  0
 10 20  1  0
 11 12  1  0
 12 13  2  0
 13 14  1  0
 15 14  1  6
 15 16  1  0
 15 17  1  0
 17 18  1  0
 19 13  1  0
 20 19  2  0
 21 17  2  0
M  END
$$$$
