MEN.pdb
     RDKit          3D

 26 25  0  0  1  0  0  0  0  0999 V2000
   30.2465  -17.3893  -19.1340 C   0  0  0  0  0  0  0  0  0  0  0  0
   29.0602  -18.1153  -18.0253 S   0  0  0  0  0  0  0  0  0  0  0  0
   29.4831  -19.7475  -17.4901 C   0  0  0  0  0  0  0  0  0  0  0  0
   28.5172  -20.4663  -16.6544 C   0  0  0  0  0  0  0  0  0  0  0  0
   27.3158  -19.7252  -16.1919 C   0  0  2  0  0  0  0  0  0  0  0  0
   27.5984  -18.4265  -15.6623 N   0  0  0  0  0  0  0  0  0  0  0  0
   26.5198  -20.5399  -15.1973 C   0  0  0  0  0  0  0  0  0  0  0  0
   26.1504  -21.6651  -15.5638 O   0  0  0  0  0  0  0  0  0  0  0  0
   26.2025  -20.0601  -13.9092 N   0  0  0  0  0  0  0  0  0  0  0  0
   25.3111  -20.7393  -12.9704 C   0  0  1  0  0  0  0  0  0  0  0  0
   25.7024  -20.5122  -11.5627 C   0  0  0  0  0  0  0  0  0  0  0  0
   24.8218  -21.2344  -10.5992 C   0  0  0  0  0  0  0  0  0  0  0  0
   25.2224  -21.0344   -9.1949 C   0  0  0  0  0  0  0  0  0  0  0  0
   24.5669  -21.4814   -8.2413 O   0  0  0  0  0  0  0  0  0  0  0  0
   23.9646  -20.1350  -13.1744 C   0  0  0  0  0  0  0  0  0  0  0  0
   23.7587  -18.9565  -13.5579 O   0  0  0  0  0  0  0  0  0  0  0  0
   26.3830  -20.3166   -8.8868 O   0  0  0  0  0  0  0  0  0  0  0  0
   20.4581  -19.0303  -16.4759 N   0  0  0  0  0  0  0  0  0  0  0  0
   20.5667  -20.2858  -15.8173 C   0  0  0  0  0  0  0  0  0  0  0  0
   19.6523  -21.1113  -16.0056 O   0  0  0  0  0  0  0  0  0  0  0  0
   21.7256  -20.5261  -14.9740 C   0  0  0  0  0  0  0  0  0  0  0  0
   21.5097  -20.5799  -13.5028 C   0  0  2  0  0  0  0  0  0  0  0  0
   22.8205  -20.9232  -12.9254 N   0  0  0  0  0  0  0  0  0  0  0  0
   20.4892  -21.5130  -13.0310 C   0  0  0  0  0  0  0  0  0  0  0  0
   20.7164  -22.7249  -12.8938 O   0  0  0  0  0  0  0  0  0  0  0  0
   19.2255  -21.0370  -12.7252 O   0  0  0  0  0  0  0  0  0  0  0  0
  2  1  1  0
  3  4  1  0
  3  2  1  0
  4  5  1  0
  5  6  1  1
  7  9  1  0
  7  5  1  0
  8  7  2  0
 10  9  1  0
 10 11  1  1
 11 12  1  0
 13 17  1  0
 13 12  1  0
 14 13  2  0
 15 10  1  0
 16 15  2  0
 18 19  1  0
 19 20  2  0
 19 21  1  0
 22 21  1  6
 22 23  1  0
 23 15  1  0
 24 22  1  0
 25 24  2  0
 26 24  1  0
M  END
$$$$
