MEN.pdb
     RDKit          3D

 26 25  0  0  1  0  0  0  0  0999 V2000
   29.9295  -19.5502  -11.6344 C   0  0  0  0  0  0  0  0  0  0  0  0
   29.3534  -20.8782  -10.6009 S   0  0  0  0  0  0  0  0  0  0  0  0
   27.9169  -21.7013  -11.2238 C   0  0  0  0  0  0  0  0  0  0  0  0
   26.7631  -20.8779  -11.5966 C   0  0  0  0  0  0  0  0  0  0  0  0
   25.5409  -21.5747  -12.0732 C   0  0  2  0  0  0  0  0  0  0  0  0
   25.7973  -22.6436  -12.9891 N   0  0  0  0  0  0  0  0  0  0  0  0
   24.5499  -20.5978  -12.6651 C   0  0  0  0  0  0  0  0  0  0  0  0
   24.1654  -19.6764  -11.9302 O   0  0  0  0  0  0  0  0  0  0  0  0
   24.0739  -20.7124  -13.9881 N   0  0  0  0  0  0  0  0  0  0  0  0
   23.1454  -19.7742  -14.6168 C   0  0  1  0  0  0  0  0  0  0  0  0
   23.5025  -19.4910  -16.0234 C   0  0  0  0  0  0  0  0  0  0  0  0
   22.5782  -18.5104  -16.6632 C   0  0  0  0  0  0  0  0  0  0  0  0
   22.9097  -18.2463  -18.0749 C   0  0  0  0  0  0  0  0  0  0  0  0
   23.6383  -18.9955  -18.7434 O   0  0  0  0  0  0  0  0  0  0  0  0
   21.8159  -20.4467  -14.6085 C   0  0  0  0  0  0  0  0  0  0  0  0
   21.5889  -21.5914  -15.0735 O   0  0  0  0  0  0  0  0  0  0  0  0
   22.4001  -17.1144  -18.7204 O   0  0  0  0  0  0  0  0  0  0  0  0
   18.8162  -22.9673  -13.3014 N   0  0  0  0  0  0  0  0  0  0  0  0
   18.7490  -21.9525  -12.3076 C   0  0  0  0  0  0  0  0  0  0  0  0
   18.5288  -22.3139  -11.1354 O   0  0  0  0  0  0  0  0  0  0  0  0
   18.9395  -20.5710  -12.7162 C   0  0  0  0  0  0  0  0  0  0  0  0
   19.3500  -20.3176  -14.1238 C   0  0  2  0  0  0  0  0  0  0  0  0
   20.7145  -19.7691  -14.0426 N   0  0  0  0  0  0  0  0  0  0  0  0
   18.4914  -19.4251  -14.8988 C   0  0  0  0  0  0  0  0  0  0  0  0
   17.4717  -19.8295  -15.4784 O   0  0  0  0  0  0  0  0  0  0  0  0
   18.8196  -18.0834  -14.9944 O   0  0  0  0  0  0  0  0  0  0  0  0
  2  1  1  0
  3  4  1  0
  3  2  1  0
  4  5  1  0
  5  6  1  6
  7  9  1  0
  7  5  1  0
  8  7  2  0
 10  9  1  0
 10 11  1  6
 11 12  1  0
 13 17  1  0
 13 12  1  0
 14 13  2  0
 15 10  1  0
 16 15  2  0
 18 19  1  0
 19 20  2  0
 19 21  1  0
 22 21  1  1
 22 23  1  0
 23 15  1  0
 24 22  1  0
 25 24  2  0
 26 24  1  0
M  END
$$$$
