MEN.pdb
     RDKit          3D

 26 25  0  0  1  0  0  0  0  0999 V2000
   31.0368  -20.7587  -11.1353 C   0  0  0  0  0  0  0  0  0  0  0  0
   29.4104  -21.2858  -10.6449 S   0  0  0  0  0  0  0  0  0  0  0  0
   28.1923  -20.0044  -10.7037 C   0  0  0  0  0  0  0  0  0  0  0  0
   27.0509  -20.1849  -11.6050 C   0  0  0  0  0  0  0  0  0  0  0  0
   26.3301  -21.4830  -11.5575 C   0  0  2  0  0  0  0  0  0  0  0  0
   27.1358  -22.6118  -11.9090 N   0  0  0  0  0  0  0  0  0  0  0  0
   25.0770  -21.4441  -12.4030 C   0  0  0  0  0  0  0  0  0  0  0  0
   25.1942  -21.7732  -13.5925 O   0  0  0  0  0  0  0  0  0  0  0  0
   23.8253  -21.0551  -11.8817 N   0  0  0  0  0  0  0  0  0  0  0  0
   22.5653  -21.1219  -12.6202 C   0  0  1  0  0  0  0  0  0  0  0  0
   21.3902  -20.9520  -11.7389 C   0  0  0  0  0  0  0  0  0  0  0  0
   20.1002  -21.1737  -12.4544 C   0  0  0  0  0  0  0  0  0  0  0  0
   18.9233  -20.9849  -11.5873 C   0  0  0  0  0  0  0  0  0  0  0  0
   19.0154  -20.6442  -10.3980 O   0  0  0  0  0  0  0  0  0  0  0  0
   22.5899  -19.9790  -13.5758 C   0  0  0  0  0  0  0  0  0  0  0  0
   22.8985  -18.7992  -13.2741 O   0  0  0  0  0  0  0  0  0  0  0  0
   17.6344  -21.1890  -12.0915 O   0  0  0  0  0  0  0  0  0  0  0  0
   22.7568  -17.5260  -18.1845 N   0  0  0  0  0  0  0  0  0  0  0  0
   23.8447  -18.2814  -17.6670 C   0  0  0  0  0  0  0  0  0  0  0  0
   24.9423  -18.1745  -18.2475 O   0  0  0  0  0  0  0  0  0  0  0  0
   23.6116  -19.1225  -16.5051 C   0  0  0  0  0  0  0  0  0  0  0  0
   22.2446  -19.1248  -15.9174 C   0  0  2  0  0  0  0  0  0  0  0  0
   22.2454  -20.2126  -14.9245 N   0  0  0  0  0  0  0  0  0  0  0  0
   21.1365  -19.2958  -16.8542 C   0  0  0  0  0  0  0  0  0  0  0  0
   20.8419  -20.4019  -17.3326 O   0  0  0  0  0  0  0  0  0  0  0  0
   20.3864  -18.1926  -17.2248 O   0  0  0  0  0  0  0  0  0  0  0  0
  2  1  1  0
  3  4  1  0
  3  2  1  0
  4  5  1  0
  5  6  1  6
  7  9  1  0
  7  5  1  0
  8  7  2  0
 10  9  1  0
 10 11  1  1
 11 12  1  0
 13 17  1  0
 13 12  1  0
 14 13  2  0
 15 10  1  0
 16 15  2  0
 18 19  1  0
 19 20  2  0
 19 21  1  0
 22 21  1  6
 22 23  1  0
 23 15  1  0
 24 22  1  0
 25 24  2  0
 26 24  1  0
M  END
$$$$
