MEN.pdb
     RDKit          3D

 26 25  0  0  1  0  0  0  0  0999 V2000
   18.0096  -15.2361  -14.9569 C   0  0  0  0  0  0  0  0  0  0  0  0
   18.8361  -15.5421  -16.5018 S   0  0  0  0  0  0  0  0  0  0  0  0
   19.4082  -14.0775  -17.3123 C   0  0  0  0  0  0  0  0  0  0  0  0
   19.0086  -12.7837  -16.7517 C   0  0  0  0  0  0  0  0  0  0  0  0
   19.6151  -11.5597  -17.3353 C   0  0  2  0  0  0  0  0  0  0  0  0
   21.0147  -11.6747  -17.6091 N   0  0  0  0  0  0  0  0  0  0  0  0
   19.3435  -10.3491  -16.4708 C   0  0  0  0  0  0  0  0  0  0  0  0
   18.2094  -10.2560  -15.9786 O   0  0  0  0  0  0  0  0  0  0  0  0
   20.3206   -9.3619  -16.2241 N   0  0  0  0  0  0  0  0  0  0  0  0
   20.0889   -8.1455  -15.4469 C   0  0  1  0  0  0  0  0  0  0  0  0
   21.3515   -7.4956  -15.0347 C   0  0  0  0  0  0  0  0  0  0  0  0
   21.1243   -6.2622  -14.2270 C   0  0  0  0  0  0  0  0  0  0  0  0
   22.3784   -5.6335  -13.7748 C   0  0  0  0  0  0  0  0  0  0  0  0
   23.4907   -5.9691  -14.2095 O   0  0  0  0  0  0  0  0  0  0  0  0
   19.3682   -7.2102  -16.3557 C   0  0  0  0  0  0  0  0  0  0  0  0
   19.2830   -7.3452  -17.6018 O   0  0  0  0  0  0  0  0  0  0  0  0
   22.3520   -4.6135  -12.8176 O   0  0  0  0  0  0  0  0  0  0  0  0
   14.5286   -6.3519  -18.1523 N   0  0  0  0  0  0  0  0  0  0  0  0
   15.7428   -5.6327  -17.9780 C   0  0  0  0  0  0  0  0  0  0  0  0
   15.8817   -4.5790  -18.6288 O   0  0  0  0  0  0  0  0  0  0  0  0
   16.7364   -6.1655  -17.0610 C   0  0  0  0  0  0  0  0  0  0  0  0
   17.8125   -5.2474  -16.5994 C   0  0  2  0  0  0  0  0  0  0  0  0
   18.7260   -6.0825  -15.8009 N   0  0  0  0  0  0  0  0  0  0  0  0
   17.3847   -4.0840  -15.8263 C   0  0  0  0  0  0  0  0  0  0  0  0
   16.8699   -4.1916  -14.7026 O   0  0  0  0  0  0  0  0  0  0  0  0
   17.5558   -2.8170  -16.3579 O   0  0  0  0  0  0  0  0  0  0  0  0
  2  1  1  0
  3  4  1  0
  3  2  1  0
  4  5  1  0
  5  6  1  1
  7  9  1  0
  7  5  1  0
  8  7  2  0
 10  9  1  0
 10 11  1  6
 11 12  1  0
 13 17  1  0
 13 12  1  0
 14 13  2  0
 15 10  1  0
 16 15  2  0
 18 19  1  0
 19 20  2  0
 19 21  1  0
 22 21  1  1
 22 23  1  0
 23 15  1  0
 24 22  1  0
 25 24  2  0
 26 24  1  0
M  END
$$$$
