MEN.pdb
     RDKit          3D

 26 25  0  0  1  0  0  0  0  0999 V2000
   18.3195  -17.3092  -16.2519 C   0  0  0  0  0  0  0  0  0  0  0  0
   18.2850  -15.6104  -16.7778 S   0  0  0  0  0  0  0  0  0  0  0  0
   19.8745  -14.9555  -17.1943 C   0  0  0  0  0  0  0  0  0  0  0  0
   19.9503  -13.5513  -17.6075 C   0  0  0  0  0  0  0  0  0  0  0  0
   19.6930  -12.5122  -16.5777 C   0  0  2  0  0  0  0  0  0  0  0  0
   18.4741  -12.6980  -15.8519 N   0  0  0  0  0  0  0  0  0  0  0  0
   19.7457  -11.1243  -17.1759 C   0  0  0  0  0  0  0  0  0  0  0  0
   20.7188  -10.8629  -17.8981 O   0  0  0  0  0  0  0  0  0  0  0  0
   18.7451  -10.1593  -16.9357 N   0  0  0  0  0  0  0  0  0  0  0  0
   18.7375   -8.8155  -17.5113 C   0  0  1  0  0  0  0  0  0  0  0  0
   17.3834   -8.3928  -17.9286 C   0  0  0  0  0  0  0  0  0  0  0  0
   16.8941   -9.1365  -19.1255 C   0  0  0  0  0  0  0  0  0  0  0  0
   16.2323  -10.4075  -18.7803 C   0  0  0  0  0  0  0  0  0  0  0  0
   16.6439  -11.5073  -19.1804 O   0  0  0  0  0  0  0  0  0  0  0  0
   19.1875   -7.9018  -16.4238 C   0  0  0  0  0  0  0  0  0  0  0  0
   18.7389   -7.9091  -15.2504 O   0  0  0  0  0  0  0  0  0  0  0  0
   15.0914  -10.4127  -17.9707 O   0  0  0  0  0  0  0  0  0  0  0  0
   22.1922   -5.0253  -13.4735 N   0  0  0  0  0  0  0  0  0  0  0  0
   22.0196   -6.4363  -13.5107 C   0  0  0  0  0  0  0  0  0  0  0  0
   22.5348   -7.0998  -12.5902 O   0  0  0  0  0  0  0  0  0  0  0  0
   21.2606   -7.0112  -14.6086 C   0  0  0  0  0  0  0  0  0  0  0  0
   20.7480   -6.0842  -15.6536 C   0  0  2  0  0  0  0  0  0  0  0  0
   20.1898   -6.9493  -16.7069 N   0  0  0  0  0  0  0  0  0  0  0  0
   21.7171   -5.1523  -16.2253 C   0  0  0  0  0  0  0  0  0  0  0  0
   22.3858   -5.4313  -17.2324 O   0  0  0  0  0  0  0  0  0  0  0  0
   21.9008   -3.9159  -15.6297 O   0  0  0  0  0  0  0  0  0  0  0  0
  2  1  1  0
  3  4  1  0
  3  2  1  0
  4  5  1  0
  5  6  1  6
  7  9  1  0
  7  5  1  0
  8  7  2  0
 10  9  1  0
 10 11  1  1
 11 12  1  0
 13 17  1  0
 13 12  1  0
 14 13  2  0
 15 10  1  0
 16 15  2  0
 18 19  1  0
 19 20  2  0
 19 21  1  0
 22 21  1  1
 22 23  1  0
 23 15  1  0
 24 22  1  0
 25 24  2  0
 26 24  1  0
M  END
$$$$
