MEN.pdb
     RDKit          3D

 26 25  0  0  1  0  0  0  0  0999 V2000
   18.0511  -16.2874  -15.7816 C   0  0  0  0  0  0  0  0  0  0  0  0
   18.9554  -16.6392  -17.2723 S   0  0  0  0  0  0  0  0  0  0  0  0
   19.1312  -15.2480  -18.3505 C   0  0  0  0  0  0  0  0  0  0  0  0
   19.8556  -14.0778  -17.8466 C   0  0  0  0  0  0  0  0  0  0  0  0
   21.2975  -13.9587  -18.1835 C   0  0  2  0  0  0  0  0  0  0  0  0
   22.1025  -15.0360  -17.6952 N   0  0  0  0  0  0  0  0  0  0  0  0
   21.8581  -12.6307  -17.7265 C   0  0  0  0  0  0  0  0  0  0  0  0
   22.5627  -12.6420  -16.7065 O   0  0  0  0  0  0  0  0  0  0  0  0
   21.6032  -11.4258  -18.4144 N   0  0  0  0  0  0  0  0  0  0  0  0
   22.1749  -10.1300  -18.0518 C   0  0  1  0  0  0  0  0  0  0  0  0
   22.5904   -9.3499  -19.2373 C   0  0  0  0  0  0  0  0  0  0  0  0
   23.1944   -8.0349  -18.8753 C   0  0  0  0  0  0  0  0  0  0  0  0
   23.5565   -7.2262  -20.0532 C   0  0  0  0  0  0  0  0  0  0  0  0
   24.0048   -6.0731  -19.9619 O   0  0  0  0  0  0  0  0  0  0  0  0
   21.0848   -9.3785  -17.3684 C   0  0  0  0  0  0  0  0  0  0  0  0
   19.8933   -9.3273  -17.7631 O   0  0  0  0  0  0  0  0  0  0  0  0
   23.4021   -7.7473  -21.3423 O   0  0  0  0  0  0  0  0  0  0  0  0
   17.7393   -7.9163  -14.4060 N   0  0  0  0  0  0  0  0  0  0  0  0
   18.7142   -8.7097  -13.7412 C   0  0  0  0  0  0  0  0  0  0  0  0
   18.3305   -9.3952  -12.7736 O   0  0  0  0  0  0  0  0  0  0  0  0
   20.0836   -8.6727  -14.2263 C   0  0  0  0  0  0  0  0  0  0  0  0
   20.3555   -7.8991  -15.4680 C   0  0  2  0  0  0  0  0  0  0  0  0
   21.3871   -8.6637  -16.1895 N   0  0  0  0  0  0  0  0  0  0  0  0
   20.7854   -6.5145  -15.2881 C   0  0  0  0  0  0  0  0  0  0  0  0
   19.9787   -5.5726  -15.2524 O   0  0  0  0  0  0  0  0  0  0  0  0
   22.1350   -6.2364  -15.1525 O   0  0  0  0  0  0  0  0  0  0  0  0
  2  1  1  0
  3  4  1  0
  3  2  1  0
  4  5  1  0
  5  6  1  1
  7  9  1  0
  7  5  1  0
  8  7  2  0
 10  9  1  0
 10 11  1  6
 11 12  1  0
 13 17  1  0
 13 12  1  0
 14 13  2  0
 15 10  1  0
 16 15  2  0
 18 19  1  0
 19 20  2  0
 19 21  1  0
 22 21  1  1
 22 23  1  0
 23 15  1  0
 24 22  1  0
 25 24  2  0
 26 24  1  0
M  END
$$$$
