VFW.pdb
     RDKit          3D

 33 35  0  0  1  0  0  0  0  0999 V2000
   27.7736  -20.6184  -19.5888 C   0  0  0  0  0  0  0  0  0  0  0  0
   27.0697  -20.9041  -18.3119 C   0  0  2  0  0  0  0  0  0  0  0  0
   26.5933  -19.5749  -17.7097 C   0  0  0  0  0  0  0  0  0  0  0  0
   27.9641  -21.5377  -17.3055 C   0  0  2  0  0  0  0  0  0  0  0  0
   28.4861  -22.8021  -17.7625 N   0  0  0  0  0  0  0  0  0  0  0  0
   27.2214  -21.7801  -16.0330 C   0  0  0  0  0  0  0  0  0  0  0  0
   26.3444  -22.6796  -15.9374 O   0  0  0  0  0  0  0  0  0  0  0  0
   27.4620  -21.0128  -14.8669 N   0  0  0  0  0  0  0  0  0  0  0  0
   26.6668  -21.0854  -13.6687 C   0  0  1  0  0  0  0  0  0  0  0  0
   27.4367  -20.8741  -12.4157 C   0  0  0  0  0  0  0  0  0  0  0  0
   26.6392  -20.7371  -11.1964 C   0  0  0  0  0  0  0  0  0  0  0  0
   26.3862  -19.4864  -10.6714 C   0  0  0  0  0  0  0  0  0  0  0  0
   25.6227  -19.3492   -9.5071 C   0  0  0  0  0  0  0  0  0  0  0  0
   25.1077  -20.4723   -8.8623 C   0  0  0  0  0  0  0  0  0  0  0  0
   25.3634  -21.7200   -9.3910 C   0  0  0  0  0  0  0  0  0  0  0  0
   26.1267  -21.8352  -10.5522 C   0  0  0  0  0  0  0  0  0  0  0  0
   25.4388  -20.2445  -13.7771 C   0  0  0  0  0  0  0  0  0  0  0  0
   25.5914  -19.0277  -14.0072 O   0  0  0  0  0  0  0  0  0  0  0  0
   24.1587  -20.7809  -13.6297 N   0  0  0  0  0  0  0  0  0  0  0  0
   22.9143  -20.0550  -13.5047 C   0  0  1  0  0  0  0  0  0  0  0  0
   22.3130  -19.6808  -14.7992 C   0  0  0  0  0  0  0  0  0  0  0  0
   21.8991  -20.8682  -15.5806 C   0  0  0  0  0  0  0  0  0  0  0  0
   21.0912  -21.9174  -15.1960 C   0  0  0  0  0  0  0  0  0  0  0  0
   21.0130  -22.7680  -16.2274 N   0  0  0  0  0  0  0  0  0  0  0  0
   21.7305  -22.3275  -17.2694 C   0  0  0  0  0  0  0  0  0  0  0  0
   21.9679  -22.8355  -18.5443 C   0  0  0  0  0  0  0  0  0  0  0  0
   22.7646  -22.1671  -19.4425 C   0  0  0  0  0  0  0  0  0  0  0  0
   23.3340  -20.9634  -19.0511 C   0  0  0  0  0  0  0  0  0  0  0  0
   23.0874  -20.4753  -17.7834 C   0  0  0  0  0  0  0  0  0  0  0  0
   22.2982  -21.1380  -16.8944 C   0  0  0  0  0  0  0  0  0  0  0  0
   21.9105  -20.7396  -12.6444 C   0  0  0  0  0  0  0  0  0  0  0  0
   20.7087  -20.1861  -12.2367 O   0  0  0  0  0  0  0  0  0  0  0  0
   22.1836  -21.9118  -12.2664 O   0  0  0  0  0  0  0  0  0  0  0  0
  2  3  1  1
  2  1  1  0
  4  2  1  0
  4  5  1  6
  6  4  1  0
  6  7  2  0
  8  6  1  0
  9 10  1  1
  9  8  1  0
 11 16  1  0
 11 10  1  0
 12 11  2  0
 13 14  2  0
 13 12  1  0
 14 15  1  0
 15 16  2  0
 17  9  1  0
 18 17  2  0
 19 17  1  0
 20 21  1  6
 20 19  1  0
 21 22  1  0
 22 30  1  0
 23 22  2  0
 23 24  1  0
 24 25  1  0
 25 26  1  0
 26 27  2  0
 28 27  1  0
 29 28  2  0
 30 25  2  0
 30 29  1  0
 31 32  1  0
 31 20  1  0
 33 31  2  0
M  END
$$$$
