VFW.pdb
     RDKit          3D

 33 35  0  0  1  0  0  0  0  0999 V2000
   26.5769  -19.0827  -20.3068 C   0  0  0  0  0  0  0  0  0  0  0  0
   26.1542  -19.6268  -18.9905 C   0  0  2  0  0  0  0  0  0  0  0  0
   25.5458  -18.4855  -18.1637 C   0  0  0  0  0  0  0  0  0  0  0  0
   27.3010  -20.1626  -18.2081 C   0  0  2  0  0  0  0  0  0  0  0  0
   27.9301  -21.2823  -18.8642 N   0  0  0  0  0  0  0  0  0  0  0  0
   26.8416  -20.6174  -16.8622 C   0  0  0  0  0  0  0  0  0  0  0  0
   26.1292  -21.6463  -16.7167 O   0  0  0  0  0  0  0  0  0  0  0  0
   27.1811  -19.9177  -15.6783 N   0  0  0  0  0  0  0  0  0  0  0  0
   26.6370  -20.2103  -14.3777 C   0  0  1  0  0  0  0  0  0  0  0  0
   27.5774  -19.9574  -13.2556 C   0  0  0  0  0  0  0  0  0  0  0  0
   27.0377  -20.1783  -11.9134 C   0  0  0  0  0  0  0  0  0  0  0  0
   26.4414  -19.1401  -11.2275 C   0  0  0  0  0  0  0  0  0  0  0  0
   25.9218  -19.3458   -9.9450 C   0  0  0  0  0  0  0  0  0  0  0  0
   25.9991  -20.6005   -9.3431 C   0  0  0  0  0  0  0  0  0  0  0  0
   26.5962  -21.6347  -10.0328 C   0  0  0  0  0  0  0  0  0  0  0  0
   27.1079  -21.4089  -11.3100 C   0  0  0  0  0  0  0  0  0  0  0  0
   25.2926  -19.5887  -14.1964 C   0  0  0  0  0  0  0  0  0  0  0  0
   25.1799  -18.3729  -14.4530 O   0  0  0  0  0  0  0  0  0  0  0  0
   24.1903  -20.3235  -13.7569 N   0  0  0  0  0  0  0  0  0  0  0  0
   22.8943  -19.8113  -13.3706 C   0  0  1  0  0  0  0  0  0  0  0  0
   22.0276  -19.4669  -14.5141 C   0  0  0  0  0  0  0  0  0  0  0  0
   20.8611  -18.6550  -14.0990 C   0  0  0  0  0  0  0  0  0  0  0  0
   20.6290  -17.3105  -14.2983 C   0  0  0  0  0  0  0  0  0  0  0  0
   19.4519  -17.0143  -13.7323 N   0  0  0  0  0  0  0  0  0  0  0  0
   18.9014  -18.0992  -13.1717 C   0  0  0  0  0  0  0  0  0  0  0  0
   17.7139  -18.3121  -12.4757 C   0  0  0  0  0  0  0  0  0  0  0  0
   17.3815  -19.5553  -11.9938 C   0  0  0  0  0  0  0  0  0  0  0  0
   18.2608  -20.6058  -12.2161 C   0  0  0  0  0  0  0  0  0  0  0  0
   19.4333  -20.3760  -12.9079 C   0  0  0  0  0  0  0  0  0  0  0  0
   19.7616  -19.1443  -13.3850 C   0  0  0  0  0  0  0  0  0  0  0  0
   22.1678  -20.6919  -12.4150 C   0  0  0  0  0  0  0  0  0  0  0  0
   21.6176  -20.2738  -11.2152 O   0  0  0  0  0  0  0  0  0  0  0  0
   22.0476  -21.9069  -12.7326 O   0  0  0  0  0  0  0  0  0  0  0  0
  2  3  1  1
  2  1  1  0
  4  2  1  0
  4  5  1  6
  6  4  1  0
  6  7  2  0
  8  6  1  0
  9 10  1  1
  9  8  1  0
 11 16  1  0
 11 10  1  0
 12 11  2  0
 13 14  2  0
 13 12  1  0
 14 15  1  0
 15 16  2  0
 17  9  1  0
 18 17  2  0
 19 17  1  0
 20 21  1  6
 20 19  1  0
 21 22  1  0
 22 30  1  0
 23 22  2  0
 23 24  1  0
 24 25  1  0
 25 26  1  0
 26 27  2  0
 28 27  1  0
 29 28  2  0
 30 25  2  0
 30 29  1  0
 31 32  1  0
 31 20  1  0
 33 31  2  0
M  END
$$$$
