VFW.pdb
     RDKit          3D

 33 35  0  0  1  0  0  0  0  0999 V2000
   24.7097  -24.6081  -18.4085 C   0  0  0  0  0  0  0  0  0  0  0  0
   26.0408  -23.9854  -18.1898 C   0  0  2  0  0  0  0  0  0  0  0  0
   26.9593  -24.3759  -19.3562 C   0  0  0  0  0  0  0  0  0  0  0  0
   26.6932  -24.4738  -16.9448 C   0  0  2  0  0  0  0  0  0  0  0  0
   26.7227  -25.9140  -16.8762 N   0  0  0  0  0  0  0  0  0  0  0  0
   25.9596  -23.9715  -15.7451 C   0  0  0  0  0  0  0  0  0  0  0  0
   24.9600  -24.5784  -15.2761 O   0  0  0  0  0  0  0  0  0  0  0  0
   26.3470  -22.7875  -15.0710 N   0  0  0  0  0  0  0  0  0  0  0  0
   25.6127  -22.1949  -13.9835 C   0  0  1  0  0  0  0  0  0  0  0  0
   26.4657  -21.5160  -12.9739 C   0  0  0  0  0  0  0  0  0  0  0  0
   25.7575  -20.9327  -11.8339 C   0  0  0  0  0  0  0  0  0  0  0  0
   25.6147  -21.6526  -10.6655 C   0  0  0  0  0  0  0  0  0  0  0  0
   24.9404  -21.0993   -9.5717 C   0  0  0  0  0  0  0  0  0  0  0  0
   24.4044  -19.8150   -9.6468 C   0  0  0  0  0  0  0  0  0  0  0  0
   24.5497  -19.0997  -10.8168 C   0  0  0  0  0  0  0  0  0  0  0  0
   25.2252  -19.6693  -11.8956 C   0  0  0  0  0  0  0  0  0  0  0  0
   24.4788  -21.3620  -14.4806 C   0  0  0  0  0  0  0  0  0  0  0  0
   24.7323  -20.5006  -15.3470 O   0  0  0  0  0  0  0  0  0  0  0  0
   23.1763  -21.5255  -14.0063 N   0  0  0  0  0  0  0  0  0  0  0  0
   21.9905  -20.8232  -14.4443 C   0  0  1  0  0  0  0  0  0  0  0  0
   20.7359  -21.3857  -13.9085 C   0  0  0  0  0  0  0  0  0  0  0  0
   20.5045  -20.9817  -12.5031 C   0  0  0  0  0  0  0  0  0  0  0  0
   20.5671  -19.7227  -11.9441 C   0  0  0  0  0  0  0  0  0  0  0  0
   20.3019  -19.8460  -10.6372 N   0  0  0  0  0  0  0  0  0  0  0  0
   20.0686  -21.1244  -10.3124 C   0  0  0  0  0  0  0  0  0  0  0  0
   19.7560  -21.7600   -9.1131 C   0  0  0  0  0  0  0  0  0  0  0  0
   19.5635  -23.1192   -9.0541 C   0  0  0  0  0  0  0  0  0  0  0  0
   19.6877  -23.8546  -10.2245 C   0  0  0  0  0  0  0  0  0  0  0  0
   19.9980  -23.2076  -11.4040 C   0  0  0  0  0  0  0  0  0  0  0  0
   20.1884  -21.8612  -11.4616 C   0  0  0  0  0  0  0  0  0  0  0  0
   22.0460  -19.3551  -14.2034 C   0  0  0  0  0  0  0  0  0  0  0  0
   21.3518  -18.4064  -14.9348 O   0  0  0  0  0  0  0  0  0  0  0  0
   22.7809  -18.9565  -13.2587 O   0  0  0  0  0  0  0  0  0  0  0  0
  2  3  1  6
  2  1  1  0
  4  2  1  0
  4  5  1  6
  6  4  1  0
  6  7  2  0
  8  6  1  0
  9 10  1  6
  9  8  1  0
 11 16  1  0
 11 10  1  0
 12 11  2  0
 13 14  2  0
 13 12  1  0
 14 15  1  0
 15 16  2  0
 17  9  1  0
 18 17  2  0
 19 17  1  0
 20 21  1  1
 20 19  1  0
 21 22  1  0
 22 30  1  0
 23 22  2  0
 23 24  1  0
 24 25  1  0
 25 26  1  0
 26 27  2  0
 28 27  1  0
 29 28  2  0
 30 25  2  0
 30 29  1  0
 31 32  1  0
 31 20  1  0
 33 31  2  0
M  END
$$$$
