VFW.pdb
     RDKit          3D

 33 35  0  0  1  0  0  0  0  0999 V2000
   18.9345  -10.9032  -20.5849 C   0  0  0  0  0  0  0  0  0  0  0  0
   20.3353  -10.5376  -20.9189 C   0  0  2  0  0  0  0  0  0  0  0  0
   20.6619  -11.0836  -22.3159 C   0  0  0  0  0  0  0  0  0  0  0  0
   21.3153  -11.1452  -19.9783 C   0  0  2  0  0  0  0  0  0  0  0  0
   21.2477  -12.5858  -19.9792 N   0  0  0  0  0  0  0  0  0  0  0  0
   21.0561  -10.6739  -18.5853 C   0  0  0  0  0  0  0  0  0  0  0  0
   20.2326  -11.2560  -17.8301 O   0  0  0  0  0  0  0  0  0  0  0  0
   21.7206   -9.5486  -18.0389 N   0  0  0  0  0  0  0  0  0  0  0  0
   21.3850   -8.9408  -16.7775 C   0  0  1  0  0  0  0  0  0  0  0  0
   22.5611   -8.6017  -15.9352 C   0  0  0  0  0  0  0  0  0  0  0  0
   22.2661   -7.8936  -14.6890 C   0  0  0  0  0  0  0  0  0  0  0  0
   22.3229   -6.5157  -14.6455 C   0  0  0  0  0  0  0  0  0  0  0  0
   22.0399   -5.8332  -13.4575 C   0  0  0  0  0  0  0  0  0  0  0  0
   21.6970   -6.5346  -12.3031 C   0  0  0  0  0  0  0  0  0  0  0  0
   21.6417   -7.9117  -12.3518 C   0  0  0  0  0  0  0  0  0  0  0  0
   21.9274   -8.5729  -13.5457 C   0  0  0  0  0  0  0  0  0  0  0  0
   20.4187   -7.8174  -16.9532 C   0  0  0  0  0  0  0  0  0  0  0  0
   20.7300   -6.9078  -17.7485 O   0  0  0  0  0  0  0  0  0  0  0  0
   19.2067   -7.7683  -16.2625 N   0  0  0  0  0  0  0  0  0  0  0  0
   18.2288   -6.7032  -16.2849 C   0  0  1  0  0  0  0  0  0  0  0  0
   16.8325   -7.1800  -16.2959 C   0  0  0  0  0  0  0  0  0  0  0  0
   15.8702   -6.0692  -16.4747 C   0  0  0  0  0  0  0  0  0  0  0  0
   15.9470   -4.9878  -17.3269 C   0  0  0  0  0  0  0  0  0  0  0  0
   14.8569   -4.2360  -17.1268 N   0  0  0  0  0  0  0  0  0  0  0  0
   14.0694   -4.7718  -16.1849 C   0  0  0  0  0  0  0  0  0  0  0  0
   12.8535   -4.3841  -15.6272 C   0  0  0  0  0  0  0  0  0  0  0  0
   12.2447   -5.1337  -14.6497 C   0  0  0  0  0  0  0  0  0  0  0  0
   12.8708   -6.2969  -14.2243 C   0  0  0  0  0  0  0  0  0  0  0  0
   14.0758   -6.6656  -14.7885 C   0  0  0  0  0  0  0  0  0  0  0  0
   14.6781   -5.9225  -15.7567 C   0  0  0  0  0  0  0  0  0  0  0  0
   18.4245   -5.6938  -15.2083 C   0  0  0  0  0  0  0  0  0  0  0  0
   18.5913   -4.3354  -15.4179 O   0  0  0  0  0  0  0  0  0  0  0  0
   18.4348   -6.1175  -14.0200 O   0  0  0  0  0  0  0  0  0  0  0  0
  2  3  1  6
  2  1  1  0
  4  2  1  0
  4  5  1  1
  6  4  1  0
  6  7  2  0
  8  6  1  0
  9 10  1  6
  9  8  1  0
 11 16  1  0
 11 10  1  0
 12 11  2  0
 13 14  2  0
 13 12  1  0
 14 15  1  0
 15 16  2  0
 17  9  1  0
 18 17  2  0
 19 17  1  0
 20 21  1  1
 20 19  1  0
 21 22  1  0
 22 30  1  0
 23 22  2  0
 23 24  1  0
 24 25  1  0
 25 26  1  0
 26 27  2  0
 28 27  1  0
 29 28  2  0
 30 25  2  0
 30 29  1  0
 31 32  1  0
 31 20  1  0
 33 31  2  0
M  END
$$$$
