VFW.pdb
     RDKit          3D

 33 35  0  0  1  0  0  0  0  0999 V2000
   30.9110  -23.0210  -17.6825 C   0  0  0  0  0  0  0  0  0  0  0  0
   29.5883  -22.5175  -17.2303 C   0  0  2  0  0  0  0  0  0  0  0  0
   29.4549  -22.7822  -15.7241 C   0  0  0  0  0  0  0  0  0  0  0  0
   28.4597  -23.2243  -17.8942 C   0  0  2  0  0  0  0  0  0  0  0  0
   28.4685  -23.0382  -19.3243 N   0  0  0  0  0  0  0  0  0  0  0  0
   27.1547  -22.7193  -17.3731 C   0  0  0  0  0  0  0  0  0  0  0  0
   26.6977  -21.5935  -17.7066 O   0  0  0  0  0  0  0  0  0  0  0  0
   26.3617  -23.4771  -16.4770 N   0  0  0  0  0  0  0  0  0  0  0  0
   25.1275  -23.0162  -15.8958 C   0  0  1  0  0  0  0  0  0  0  0  0
   23.9115  -23.6364  -16.4826 C   0  0  0  0  0  0  0  0  0  0  0  0
   23.6403  -23.3016  -17.8811 C   0  0  0  0  0  0  0  0  0  0  0  0
   24.1549  -24.0859  -18.8930 C   0  0  0  0  0  0  0  0  0  0  0  0
   23.8973  -23.7720  -20.2318 C   0  0  0  0  0  0  0  0  0  0  0  0
   23.1184  -22.6643  -20.5616 C   0  0  0  0  0  0  0  0  0  0  0  0
   22.6066  -21.8837  -19.5465 C   0  0  0  0  0  0  0  0  0  0  0  0
   22.8750  -22.2136  -18.2186 C   0  0  0  0  0  0  0  0  0  0  0  0
   25.1754  -23.0634  -14.4052 C   0  0  0  0  0  0  0  0  0  0  0  0
   25.9541  -23.8838  -13.8787 O   0  0  0  0  0  0  0  0  0  0  0  0
   24.3861  -22.2288  -13.6122 N   0  0  0  0  0  0  0  0  0  0  0  0
   24.6355  -21.8270  -12.2457 C   0  0  1  0  0  0  0  0  0  0  0  0
   25.9771  -21.2509  -12.0321 C   0  0  0  0  0  0  0  0  0  0  0  0
   26.1783  -20.8230  -10.6291 C   0  0  0  0  0  0  0  0  0  0  0  0
   25.2616  -20.2891   -9.7483 C   0  0  0  0  0  0  0  0  0  0  0  0
   25.9021  -20.0384   -8.5992 N   0  0  0  0  0  0  0  0  0  0  0  0
   27.1940  -20.3820   -8.6840 C   0  0  0  0  0  0  0  0  0  0  0  0
   28.2561  -20.3210   -7.7850 C   0  0  0  0  0  0  0  0  0  0  0  0
   29.5139  -20.7491   -8.1354 C   0  0  0  0  0  0  0  0  0  0  0  0
   29.7080  -21.2486   -9.4156 C   0  0  0  0  0  0  0  0  0  0  0  0
   28.6435  -21.3015  -10.2933 C   0  0  0  0  0  0  0  0  0  0  0  0
   27.3980  -20.8773   -9.9453 C   0  0  0  0  0  0  0  0  0  0  0  0
   23.5888  -20.9255  -11.6905 C   0  0  0  0  0  0  0  0  0  0  0  0
   22.9251  -21.1271  -10.4922 O   0  0  0  0  0  0  0  0  0  0  0  0
   23.2939  -19.9034  -12.3687 O   0  0  0  0  0  0  0  0  0  0  0  0
  2  3  1  1
  2  1  1  0
  4  2  1  0
  4  5  1  6
  6  4  1  0
  6  7  2  0
  8  6  1  0
  9 10  1  6
  9  8  1  0
 11 16  1  0
 11 10  1  0
 12 11  2  0
 13 14  2  0
 13 12  1  0
 14 15  1  0
 15 16  2  0
 17  9  1  0
 18 17  2  0
 19 17  1  0
 20 21  1  6
 20 19  1  0
 21 22  1  0
 22 30  1  0
 23 22  2  0
 23 24  1  0
 24 25  1  0
 25 26  1  0
 26 27  2  0
 28 27  1  0
 29 28  2  0
 30 25  2  0
 30 29  1  0
 31 32  1  0
 31 20  1  0
 33 31  2  0
M  END
$$$$
