VFW.pdb
     RDKit          3D

 33 35  0  0  1  0  0  0  0  0999 V2000
   27.7664  -18.9790  -20.0302 C   0  0  0  0  0  0  0  0  0  0  0  0
   27.0566  -19.4884  -18.8285 C   0  0  2  0  0  0  0  0  0  0  0  0
   26.6511  -18.2910  -17.9576 C   0  0  0  0  0  0  0  0  0  0  0  0
   27.9239  -20.3585  -17.9889 C   0  0  2  0  0  0  0  0  0  0  0  0
   28.3275  -21.5558  -18.6843 N   0  0  0  0  0  0  0  0  0  0  0  0
   27.1996  -20.7692  -16.7494 C   0  0  0  0  0  0  0  0  0  0  0  0
   26.3101  -21.6613  -16.7651 O   0  0  0  0  0  0  0  0  0  0  0  0
   27.4728  -20.1786  -15.4912 N   0  0  0  0  0  0  0  0  0  0  0  0
   26.7409  -20.4635  -14.2844 C   0  0  1  0  0  0  0  0  0  0  0  0
   27.4997  -20.1920  -13.0361 C   0  0  0  0  0  0  0  0  0  0  0  0
   26.7412  -20.3226  -11.7914 C   0  0  0  0  0  0  0  0  0  0  0  0
   26.5844  -21.5608  -11.2029 C   0  0  0  0  0  0  0  0  0  0  0  0
   25.8622  -21.6915  -10.0119 C   0  0  0  0  0  0  0  0  0  0  0  0
   25.2918  -20.5745   -9.4041 C   0  0  0  0  0  0  0  0  0  0  0  0
   25.4514  -19.3394   -9.9963 C   0  0  0  0  0  0  0  0  0  0  0  0
   26.1748  -19.2305  -11.1834 C   0  0  0  0  0  0  0  0  0  0  0  0
   25.3802  -19.8517  -14.3142 C   0  0  0  0  0  0  0  0  0  0  0  0
   25.3056  -18.6077  -14.2538 O   0  0  0  0  0  0  0  0  0  0  0  0
   24.2222  -20.6256  -14.4060 N   0  0  0  0  0  0  0  0  0  0  0  0
   22.8565  -20.1541  -14.4649 C   0  0  1  0  0  0  0  0  0  0  0  0
   22.6238  -19.1386  -15.5098 C   0  0  0  0  0  0  0  0  0  0  0  0
   21.2137  -18.6886  -15.5396 C   0  0  0  0  0  0  0  0  0  0  0  0
   20.4832  -18.0681  -14.5482 C   0  0  0  0  0  0  0  0  0  0  0  0
   19.2465  -17.8675  -15.0213 N   0  0  0  0  0  0  0  0  0  0  0  0
   19.1308  -18.3264  -16.2745 C   0  0  0  0  0  0  0  0  0  0  0  0
   18.0760  -18.3562  -17.1836 C   0  0  0  0  0  0  0  0  0  0  0  0
   18.2279  -18.9000  -18.4362 C   0  0  0  0  0  0  0  0  0  0  0  0
   19.4654  -19.4245  -18.7822 C   0  0  0  0  0  0  0  0  0  0  0  0
   20.4994  -19.3863  -17.8681 C   0  0  0  0  0  0  0  0  0  0  0  0
   20.3480  -18.8474  -16.6275 C   0  0  0  0  0  0  0  0  0  0  0  0
   21.8536  -21.2491  -14.5724 C   0  0  0  0  0  0  0  0  0  0  0  0
   22.1419  -22.5533  -14.9370 O   0  0  0  0  0  0  0  0  0  0  0  0
   20.6553  -20.9573  -14.3070 O   0  0  0  0  0  0  0  0  0  0  0  0
  2  3  1  1
  2  1  1  0
  4  2  1  0
  4  5  1  6
  6  4  1  0
  6  7  2  0
  8  6  1  0
  9 10  1  1
  9  8  1  0
 11 16  1  0
 11 10  1  0
 12 11  2  0
 13 14  2  0
 13 12  1  0
 14 15  1  0
 15 16  2  0
 17  9  1  0
 18 17  2  0
 19 17  1  0
 20 21  1  6
 20 19  1  0
 21 22  1  0
 22 30  1  0
 23 22  2  0
 23 24  1  0
 24 25  1  0
 25 26  1  0
 26 27  2  0
 28 27  1  0
 29 28  2  0
 30 25  2  0
 30 29  1  0
 31 32  1  0
 31 20  1  0
 33 31  2  0
M  END
$$$$
