VFW.pdb
     RDKit          3D

 33 35  0  0  1  0  0  0  0  0999 V2000
   24.8446  -24.5801  -17.1848 C   0  0  0  0  0  0  0  0  0  0  0  0
   25.5410  -23.9534  -16.0315 C   0  0  2  0  0  0  0  0  0  0  0  0
   24.6402  -24.0735  -14.7943 C   0  0  0  0  0  0  0  0  0  0  0  0
   25.7896  -22.5019  -16.2449 C   0  0  2  0  0  0  0  0  0  0  0  0
   26.5830  -22.2545  -17.4236 N   0  0  0  0  0  0  0  0  0  0  0  0
   26.5134  -21.9234  -15.0741 C   0  0  0  0  0  0  0  0  0  0  0  0
   27.7021  -22.2426  -14.8047 O   0  0  0  0  0  0  0  0  0  0  0  0
   25.9036  -20.9865  -14.2042 N   0  0  0  0  0  0  0  0  0  0  0  0
   26.5182  -20.4675  -13.0100 C   0  0  1  0  0  0  0  0  0  0  0  0
   26.8070  -19.0109  -13.0598 C   0  0  0  0  0  0  0  0  0  0  0  0
   27.4858  -18.5396  -14.2675 C   0  0  0  0  0  0  0  0  0  0  0  0
   26.7948  -17.8023  -15.2071 C   0  0  0  0  0  0  0  0  0  0  0  0
   27.4391  -17.3472  -16.3625 C   0  0  0  0  0  0  0  0  0  0  0  0
   28.7859  -17.6318  -16.5803 C   0  0  0  0  0  0  0  0  0  0  0  0
   29.4719  -18.3691  -15.6382 C   0  0  0  0  0  0  0  0  0  0  0  0
   28.8115  -18.8133  -14.4934 C   0  0  0  0  0  0  0  0  0  0  0  0
   25.7829  -20.9002  -11.7858 C   0  0  0  0  0  0  0  0  0  0  0  0
   24.5574  -21.1089  -11.8925 O   0  0  0  0  0  0  0  0  0  0  0  0
   26.4246  -21.0707  -10.5580 N   0  0  0  0  0  0  0  0  0  0  0  0
   25.8108  -21.3708   -9.2835 C   0  0  1  0  0  0  0  0  0  0  0  0
   26.7819  -21.6538   -8.2092 C   0  0  0  0  0  0  0  0  0  0  0  0
   27.3189  -20.4121   -7.6079 C   0  0  0  0  0  0  0  0  0  0  0  0
   27.1772  -19.1105   -8.0408 C   0  0  0  0  0  0  0  0  0  0  0  0
   27.8514  -18.3252   -7.1911 N   0  0  0  0  0  0  0  0  0  0  0  0
   28.4283  -19.0485   -6.2223 C   0  0  0  0  0  0  0  0  0  0  0  0
   29.2190  -18.7125   -5.1261 C   0  0  0  0  0  0  0  0  0  0  0  0
   29.6941  -19.6736   -4.2667 C   0  0  0  0  0  0  0  0  0  0  0  0
   29.3676  -20.9996   -4.5144 C   0  0  0  0  0  0  0  0  0  0  0  0
   28.5827  -21.3140   -5.6058 C   0  0  0  0  0  0  0  0  0  0  0  0
   28.1125  -20.3612   -6.4565 C   0  0  0  0  0  0  0  0  0  0  0  0
   24.8299  -20.3428   -8.8393 C   0  0  0  0  0  0  0  0  0  0  0  0
   23.8493  -20.5456   -7.8830 O   0  0  0  0  0  0  0  0  0  0  0  0
   24.9080  -19.2049   -9.3784 O   0  0  0  0  0  0  0  0  0  0  0  0
  2  3  1  1
  2  1  1  0
  4  2  1  0
  4  5  1  6
  6  4  1  0
  6  7  2  0
  8  6  1  0
  9 10  1  6
  9  8  1  0
 11 16  1  0
 11 10  1  0
 12 11  2  0
 13 14  2  0
 13 12  1  0
 14 15  1  0
 15 16  2  0
 17  9  1  0
 18 17  2  0
 19 17  1  0
 20 21  1  1
 20 19  1  0
 21 22  1  0
 22 30  1  0
 23 22  2  0
 23 24  1  0
 24 25  1  0
 25 26  1  0
 26 27  2  0
 28 27  1  0
 29 28  2  0
 30 25  2  0
 30 29  1  0
 31 32  1  0
 31 20  1  0
 33 31  2  0
M  END
$$$$
