VFW.pdb
     RDKit          3D

 33 35  0  0  1  0  0  0  0  0999 V2000
   25.8162  -21.0286  -18.8056 C   0  0  0  0  0  0  0  0  0  0  0  0
   25.4337  -21.1971  -17.3798 C   0  0  2  0  0  0  0  0  0  0  0  0
   25.2446  -19.8064  -16.7580 C   0  0  0  0  0  0  0  0  0  0  0  0
   26.4924  -21.8825  -16.5901 C   0  0  2  0  0  0  0  0  0  0  0  0
   26.7633  -23.2106  -17.0827 N   0  0  0  0  0  0  0  0  0  0  0  0
   26.0780  -21.9984  -15.1603 C   0  0  0  0  0  0  0  0  0  0  0  0
   25.2050  -22.8268  -14.7873 O   0  0  0  0  0  0  0  0  0  0  0  0
   26.6426  -21.1844  -14.1479 N   0  0  0  0  0  0  0  0  0  0  0  0
   26.1390  -21.0961  -12.8018 C   0  0  1  0  0  0  0  0  0  0  0  0
   27.1793  -20.8013  -11.7828 C   0  0  0  0  0  0  0  0  0  0  0  0
   26.6946  -20.6288  -10.4128 C   0  0  0  0  0  0  0  0  0  0  0  0
   26.5224  -21.7274   -9.5959 C   0  0  0  0  0  0  0  0  0  0  0  0
   26.0614  -21.5685   -8.2846 C   0  0  0  0  0  0  0  0  0  0  0  0
   25.7700  -20.3001   -7.7859 C   0  0  0  0  0  0  0  0  0  0  0  0
   25.9437  -19.2054   -8.6064 C   0  0  0  0  0  0  0  0  0  0  0  0
   26.4042  -19.3853   -9.9102 C   0  0  0  0  0  0  0  0  0  0  0  0
   24.9426  -20.2077  -12.7242 C   0  0  0  0  0  0  0  0  0  0  0  0
   25.1368  -18.9754  -12.7454 O   0  0  0  0  0  0  0  0  0  0  0  0
   23.6465  -20.7175  -12.6310 N   0  0  0  0  0  0  0  0  0  0  0  0
   22.4210  -19.9684  -12.4636 C   0  0  1  0  0  0  0  0  0  0  0  0
   22.2331  -18.9055  -13.4697 C   0  0  0  0  0  0  0  0  0  0  0  0
   21.6428  -19.4283  -14.7227 C   0  0  0  0  0  0  0  0  0  0  0  0
   20.6711  -20.3933  -14.8836 C   0  0  0  0  0  0  0  0  0  0  0  0
   20.4698  -20.5505  -16.1983 N   0  0  0  0  0  0  0  0  0  0  0  0
   21.2623  -19.7355  -16.9069 C   0  0  0  0  0  0  0  0  0  0  0  0
   21.4309  -19.5229  -18.2730 C   0  0  0  0  0  0  0  0  0  0  0  0
   22.3365  -18.6043  -18.7464 C   0  0  0  0  0  0  0  0  0  0  0  0
   23.0879  -17.8847  -17.8278 C   0  0  0  0  0  0  0  0  0  0  0  0
   22.9072  -18.1088  -16.4775 C   0  0  0  0  0  0  0  0  0  0  0  0
   22.0099  -19.0189  -16.0095 C   0  0  0  0  0  0  0  0  0  0  0  0
   21.2068  -20.8257  -12.3808 C   0  0  0  0  0  0  0  0  0  0  0  0
   21.1703  -22.1772  -12.6797 O   0  0  0  0  0  0  0  0  0  0  0  0
   20.1373  -20.2707  -12.0070 O   0  0  0  0  0  0  0  0  0  0  0  0
  2  3  1  1
  2  1  1  0
  4  2  1  0
  4  5  1  6
  6  4  1  0
  6  7  2  0
  8  6  1  0
  9 10  1  1
  9  8  1  0
 11 16  1  0
 11 10  1  0
 12 11  2  0
 13 14  2  0
 13 12  1  0
 14 15  1  0
 15 16  2  0
 17  9  1  0
 18 17  2  0
 19 17  1  0
 20 21  1  6
 20 19  1  0
 21 22  1  0
 22 30  1  0
 23 22  2  0
 23 24  1  0
 24 25  1  0
 25 26  1  0
 26 27  2  0
 28 27  1  0
 29 28  2  0
 30 25  2  0
 30 29  1  0
 31 32  1  0
 31 20  1  0
 33 31  2  0
M  END
$$$$
