LIP.pdb
     RDKit          3D

 24 24  0  0  1  0  0  0  0  0999 V2000
   27.7327  -22.0043  -13.2280 C   0  0  0  0  0  0  0  0  0  0  0  0
   27.0471  -20.6676  -13.4099 C   0  0  2  0  0  0  0  0  0  0  0  0
   27.7344  -19.8164  -14.4415 C   0  0  0  0  0  0  0  0  0  0  0  0
   26.8908  -19.9579  -12.0811 C   0  0  0  0  0  0  0  0  0  0  0  0
   25.9259  -20.7471  -11.2524 C   0  0  2  0  0  0  0  0  0  0  0  0
   24.6290  -20.7041  -11.9021 N   0  0  0  0  0  0  0  0  0  0  0  0
   25.8117  -20.2453   -9.8610 C   0  0  0  0  0  0  0  0  0  0  0  0
   25.3371  -19.0992   -9.6501 O   0  0  0  0  0  0  0  0  0  0  0  0
   22.9079  -21.8532   -6.2782 C   0  0  0  0  0  0  0  0  0  0  0  0
   23.8248  -20.9254   -7.0863 C   0  0  0  0  0  0  0  0  0  0  0  0
   25.2281  -21.2640   -6.6247 C   0  0  2  0  0  0  0  0  0  0  0  0
   25.3040  -20.9392   -5.1469 C   0  0  0  0  0  0  0  0  0  0  0  0
   26.2857  -20.4567   -7.3943 C   0  0  2  0  0  0  0  0  0  0  0  0
   26.2189  -21.0110   -8.7493 N   0  0  0  0  0  0  0  0  0  0  0  0
   27.6129  -20.6566   -6.7992 C   0  0  0  0  0  0  0  0  0  0  0  0
   28.2259  -21.7348   -7.1112 O   0  0  0  0  0  0  0  0  0  0  0  0
   28.2398  -19.7392   -5.9161 N   0  0  0  0  0  0  0  0  0  0  0  0
   27.8305  -18.4157   -5.4999 C   0  0  0  0  0  0  0  0  0  0  0  0
   29.1487  -17.6426   -5.6568 C   0  0  0  0  0  0  0  0  0  0  0  0
   30.1102  -18.6089   -4.9820 C   0  0  0  0  0  0  0  0  0  0  0  0
   29.4885  -19.9707   -5.2115 C   0  0  1  0  0  0  0  0  0  0  0  0
   29.2582  -20.6744   -3.9201 C   0  0  0  0  0  0  0  0  0  0  0  0
   28.1098  -20.9142   -3.4953 O   0  0  0  0  0  0  0  0  0  0  0  0
   30.3390  -21.0770   -3.1642 O   0  0  0  0  0  0  0  0  0  0  0  0
  2  1  1  1
  2  3  1  0
  4  2  1  0
  5  4  1  0
  5  6  1  6
  7  5  1  0
  7  8  2  0
  9 10  1  0
 10 11  1  0
 11 13  1  0
 11 12  1  1
 13 14  1  6
 13 15  1  0
 14  7  1  0
 15 17  1  0
 16 15  2  0
 17 18  1  0
 17 21  1  0
 18 19  1  0
 19 20  1  0
 21 22  1  1
 21 20  1  0
 22 24  1  0
 23 22  2  0
M  END
$$$$
