LIP.pdb
     RDKit          3D

 24 24  0  0  1  0  0  0  0  0999 V2000
   20.0590  -23.3188  -14.4457 C   0  0  0  0  0  0  0  0  0  0  0  0
   19.9372  -22.0662  -15.2860 C   0  0  2  0  0  0  0  0  0  0  0  0
   19.6511  -22.3798  -16.7286 C   0  0  0  0  0  0  0  0  0  0  0  0
   21.1548  -21.1823  -15.1138 C   0  0  0  0  0  0  0  0  0  0  0  0
   21.2972  -20.8800  -13.6547 C   0  0  2  0  0  0  0  0  0  0  0  0
   20.2101  -20.0012  -13.2653 N   0  0  0  0  0  0  0  0  0  0  0  0
   22.5993  -20.2544  -13.3169 C   0  0  0  0  0  0  0  0  0  0  0  0
   22.7646  -19.0215  -13.5059 O   0  0  0  0  0  0  0  0  0  0  0  0
   25.5029  -21.0075   -8.9637 C   0  0  0  0  0  0  0  0  0  0  0  0
   24.9136  -20.3182  -10.2016 C   0  0  0  0  0  0  0  0  0  0  0  0
   25.5692  -21.0073  -11.3816 C   0  0  2  0  0  0  0  0  0  0  0  0
   27.0594  -20.7556  -11.2759 C   0  0  0  0  0  0  0  0  0  0  0  0
   25.0389  -20.4644  -12.7182 C   0  0  2  0  0  0  0  0  0  0  0  0
   23.6746  -20.9954  -12.7852 N   0  0  0  0  0  0  0  0  0  0  0  0
   25.8601  -20.9574  -13.8310 C   0  0  0  0  0  0  0  0  0  0  0  0
   25.6884  -22.1771  -14.1754 O   0  0  0  0  0  0  0  0  0  0  0  0
   26.8132  -20.1722  -14.5307 N   0  0  0  0  0  0  0  0  0  0  0  0
   27.4242  -18.9099  -14.1758 C   0  0  0  0  0  0  0  0  0  0  0  0
   27.2849  -18.1394  -15.4974 C   0  0  0  0  0  0  0  0  0  0  0  0
   27.7643  -19.1981  -16.4788 C   0  0  0  0  0  0  0  0  0  0  0  0
   27.3995  -20.5100  -15.8157 C   0  0  1  0  0  0  0  0  0  0  0  0
   28.6000  -21.3747  -15.6517 C   0  0  0  0  0  0  0  0  0  0  0  0
   29.1588  -21.5246  -14.5463 O   0  0  0  0  0  0  0  0  0  0  0  0
   29.1171  -22.0333  -16.7474 O   0  0  0  0  0  0  0  0  0  0  0  0
  2  1  1  1
  2  3  1  0
  4  2  1  0
  5  4  1  0
  5  6  1  6
  7  5  1  0
  7  8  2  0
  9 10  1  0
 10 11  1  0
 11 13  1  0
 11 12  1  6
 13 14  1  6
 13 15  1  0
 14  7  1  0
 15 17  1  0
 16 15  2  0
 17 18  1  0
 17 21  1  0
 18 19  1  0
 19 20  1  0
 21 22  1  1
 21 20  1  0
 22 24  1  0
 23 22  2  0
M  END
$$$$
