LIP.pdb
     RDKit          3D

 24 24  0  0  1  0  0  0  0  0999 V2000
   19.9303  -13.3994  -20.5060 C   0  0  0  0  0  0  0  0  0  0  0  0
   18.8011  -13.9073  -19.6360 C   0  0  2  0  0  0  0  0  0  0  0  0
   17.4719  -13.8312  -20.3350 C   0  0  0  0  0  0  0  0  0  0  0  0
   18.7946  -13.2011  -18.2962 C   0  0  0  0  0  0  0  0  0  0  0  0
   20.1618  -13.3359  -17.7021 C   0  0  2  0  0  0  0  0  0  0  0  0
   20.3363  -14.7111  -17.2729 N   0  0  0  0  0  0  0  0  0  0  0  0
   20.3907  -12.4166  -16.5605 C   0  0  0  0  0  0  0  0  0  0  0  0
   19.7781  -12.6050  -15.4777 O   0  0  0  0  0  0  0  0  0  0  0  0
   24.9996  -10.9824  -14.6794 C   0  0  0  0  0  0  0  0  0  0  0  0
   23.5053  -11.3199  -14.7680 C   0  0  0  0  0  0  0  0  0  0  0  0
   22.8658  -10.0992  -15.3989 C   0  0  2  0  0  0  0  0  0  0  0  0
   23.1166   -8.9307  -14.4679 C   0  0  0  0  0  0  0  0  0  0  0  0
   21.3546  -10.2944  -15.6008 C   0  0  2  0  0  0  0  0  0  0  0  0
   21.2792  -11.3248  -16.6402 N   0  0  0  0  0  0  0  0  0  0  0  0
   20.7330   -9.0404  -16.0443 C   0  0  0  0  0  0  0  0  0  0  0  0
   21.0975   -8.5904  -17.1847 O   0  0  0  0  0  0  0  0  0  0  0  0
   19.7705   -8.3158  -15.2940 N   0  0  0  0  0  0  0  0  0  0  0  0
   19.1664   -8.6147  -14.0141 C   0  0  0  0  0  0  0  0  0  0  0  0
   17.6872   -8.3349  -14.3200 C   0  0  0  0  0  0  0  0  0  0  0  0
   17.8081   -6.9996  -15.0383 C   0  0  0  0  0  0  0  0  0  0  0  0
   19.1744   -7.0519  -15.6898 C   0  0  1  0  0  0  0  0  0  0  0  0
   20.0133   -5.9001  -15.2590 C   0  0  0  0  0  0  0  0  0  0  0  0
   19.7644   -4.7318  -15.6191 O   0  0  0  0  0  0  0  0  0  0  0  0
   21.0991   -6.1206  -14.4379 O   0  0  0  0  0  0  0  0  0  0  0  0
  2  1  1  6
  2  3  1  0
  4  2  1  0
  5  4  1  0
  5  6  1  1
  7  5  1  0
  7  8  2  0
  9 10  1  0
 10 11  1  0
 11 13  1  0
 11 12  1  1
 13 14  1  6
 13 15  1  0
 14  7  1  0
 15 17  1  0
 16 15  2  0
 17 18  1  0
 17 21  1  0
 18 19  1  0
 19 20  1  0
 21 22  1  1
 21 20  1  0
 22 24  1  0
 23 22  2  0
M  END
$$$$
