LIP.pdb
     RDKit          3D

 24 24  0  0  1  0  0  0  0  0999 V2000
   19.7142  -16.6071  -16.2560 C   0  0  0  0  0  0  0  0  0  0  0  0
   19.4547  -17.9914  -16.8095 C   0  0  2  0  0  0  0  0  0  0  0  0
   18.1857  -18.5878  -16.2664 C   0  0  0  0  0  0  0  0  0  0  0  0
   20.6559  -18.8892  -16.5983 C   0  0  0  0  0  0  0  0  0  0  0  0
   21.8596  -18.1740  -17.1278 C   0  0  2  0  0  0  0  0  0  0  0  0
   21.8469  -18.2750  -18.5753 N   0  0  0  0  0  0  0  0  0  0  0  0
   23.1348  -18.7124  -16.5941 C   0  0  0  0  0  0  0  0  0  0  0  0
   23.6367  -19.7459  -17.1071 O   0  0  0  0  0  0  0  0  0  0  0  0
   26.7589  -15.3606  -15.1984 C   0  0  0  0  0  0  0  0  0  0  0  0
   26.4014  -16.7641  -15.7053 C   0  0  0  0  0  0  0  0  0  0  0  0
   25.8484  -17.4878  -14.4939 C   0  0  2  0  0  0  0  0  0  0  0  0
   27.0319  -17.9361  -13.6611 C   0  0  0  0  0  0  0  0  0  0  0  0
   25.0022  -18.7048  -14.9011 C   0  0  2  0  0  0  0  0  0  0  0  0
   23.8172  -18.1049  -15.5203 N   0  0  0  0  0  0  0  0  0  0  0  0
   24.6447  -19.4965  -13.7175 C   0  0  0  0  0  0  0  0  0  0  0  0
   23.7427  -19.0103  -12.9521 O   0  0  0  0  0  0  0  0  0  0  0  0
   25.2317  -20.7448  -13.3831 N   0  0  0  0  0  0  0  0  0  0  0  0
   26.2635  -21.5018  -14.0575 C   0  0  0  0  0  0  0  0  0  0  0  0
   25.6455  -22.9081  -14.0447 C   0  0  0  0  0  0  0  0  0  0  0  0
   25.1847  -22.9873  -12.5973 C   0  0  0  0  0  0  0  0  0  0  0  0
   24.8916  -21.5493  -12.2229 C   0  0  1  0  0  0  0  0  0  0  0  0
   25.6819  -21.1390  -11.0299 C   0  0  0  0  0  0  0  0  0  0  0  0
   26.7175  -20.4504  -11.1299 O   0  0  0  0  0  0  0  0  0  0  0  0
   25.2653  -21.5262   -9.7736 O   0  0  0  0  0  0  0  0  0  0  0  0
  2  1  1  1
  2  3  1  0
  4  2  1  0
  5  4  1  0
  5  6  1  6
  7  5  1  0
  7  8  2  0
  9 10  1  0
 10 11  1  0
 11 13  1  0
 11 12  1  1
 13 14  1  1
 13 15  1  0
 14  7  1  0
 15 17  1  0
 16 15  2  0
 17 18  1  0
 17 21  1  0
 18 19  1  0
 19 20  1  0
 21 22  1  1
 21 20  1  0
 22 24  1  0
 23 22  2  0
M  END
$$$$
