LIP.pdb
     RDKit          3D

 24 24  0  0  1  0  0  0  0  0999 V2000
   20.0235  -22.8239  -15.8901 C   0  0  0  0  0  0  0  0  0  0  0  0
   19.9329  -21.6815  -16.8783 C   0  0  2  0  0  0  0  0  0  0  0  0
   19.9398  -22.1649  -18.3022 C   0  0  0  0  0  0  0  0  0  0  0  0
   21.0092  -20.6506  -16.6092 C   0  0  0  0  0  0  0  0  0  0  0  0
   20.9888  -20.3404  -15.1450 C   0  0  2  0  0  0  0  0  0  0  0  0
   19.9371  -19.3708  -14.9013 N   0  0  0  0  0  0  0  0  0  0  0  0
   22.2844  -19.8181  -14.6453 C   0  0  0  0  0  0  0  0  0  0  0  0
   22.5709  -18.6041  -14.8107 O   0  0  0  0  0  0  0  0  0  0  0  0
   25.9491  -20.7522  -10.0736 C   0  0  0  0  0  0  0  0  0  0  0  0
   25.9734  -20.1810  -11.4976 C   0  0  0  0  0  0  0  0  0  0  0  0
   24.6741  -20.6434  -12.1262 C   0  0  2  0  0  0  0  0  0  0  0  0
   24.6738  -22.1580  -12.0909 C   0  0  0  0  0  0  0  0  0  0  0  0
   24.5428  -20.1524  -13.5768 C   0  0  2  0  0  0  0  0  0  0  0  0
   23.2211  -20.6379  -13.9832 N   0  0  0  0  0  0  0  0  0  0  0  0
   25.6046  -20.7310  -14.4095 C   0  0  0  0  0  0  0  0  0  0  0  0
   25.4461  -21.9443  -14.7815 O   0  0  0  0  0  0  0  0  0  0  0  0
   26.7719  -20.0333  -14.8158 N   0  0  0  0  0  0  0  0  0  0  0  0
   27.3567  -18.8137  -14.3030 C   0  0  0  0  0  0  0  0  0  0  0  0
   27.6486  -18.0611  -15.6100 C   0  0  0  0  0  0  0  0  0  0  0  0
   28.2974  -19.1718  -16.4218 C   0  0  0  0  0  0  0  0  0  0  0  0
   27.6629  -20.4393  -15.8884 C   0  0  1  0  0  0  0  0  0  0  0  0
   28.7005  -21.3881  -15.3994 C   0  0  0  0  0  0  0  0  0  0  0  0
   29.4332  -22.0254  -16.1828 O   0  0  0  0  0  0  0  0  0  0  0  0
   28.8642  -21.5750  -14.0429 O   0  0  0  0  0  0  0  0  0  0  0  0
  2  1  1  1
  2  3  1  0
  4  2  1  0
  5  4  1  0
  5  6  1  6
  7  5  1  0
  7  8  2  0
  9 10  1  0
 10 11  1  0
 11 13  1  0
 11 12  1  6
 13 14  1  6
 13 15  1  0
 14  7  1  0
 15 17  1  0
 16 15  2  0
 17 18  1  0
 17 21  1  0
 18 19  1  0
 19 20  1  0
 21 22  1  1
 21 20  1  0
 22 24  1  0
 23 22  2  0
M  END
$$$$
