LIP.pdb
     RDKit          3D

 24 24  0  0  1  0  0  0  0  0999 V2000
   15.1998   -8.4358  -17.8473 C   0  0  0  0  0  0  0  0  0  0  0  0
   16.4285   -9.3179  -17.8012 C   0  0  2  0  0  0  0  0  0  0  0  0
   16.7710   -9.8798  -19.1533 C   0  0  0  0  0  0  0  0  0  0  0  0
   16.2795  -10.3935  -16.7455 C   0  0  0  0  0  0  0  0  0  0  0  0
   17.5030  -11.2545  -16.7946 C   0  0  2  0  0  0  0  0  0  0  0  0
   17.0939  -12.6348  -16.6130 N   0  0  0  0  0  0  0  0  0  0  0  0
   18.5117  -10.8867  -15.7708 C   0  0  0  0  0  0  0  0  0  0  0  0
   18.2741  -11.1097  -14.5555 O   0  0  0  0  0  0  0  0  0  0  0  0
   23.3726  -12.4041  -15.7121 C   0  0  0  0  0  0  0  0  0  0  0  0
   21.9790  -11.9215  -15.2884 C   0  0  0  0  0  0  0  0  0  0  0  0
   22.0117  -10.4182  -15.4784 C   0  0  2  0  0  0  0  0  0  0  0  0
   23.1154   -9.8787  -14.5918 C   0  0  0  0  0  0  0  0  0  0  0  0
   20.6700   -9.7719  -15.0980 C   0  0  2  0  0  0  0  0  0  0  0  0
   19.7432  -10.2892  -16.1086 N   0  0  0  0  0  0  0  0  0  0  0  0
   20.7716   -8.3087  -15.1642 C   0  0  0  0  0  0  0  0  0  0  0  0
   20.9518   -7.7971  -16.3225 O   0  0  0  0  0  0  0  0  0  0  0  0
   20.6825   -7.4491  -14.0384 N   0  0  0  0  0  0  0  0  0  0  0  0
   20.5643   -7.7628  -12.6312 C   0  0  0  0  0  0  0  0  0  0  0  0
   19.4417   -6.8009  -12.2137 C   0  0  0  0  0  0  0  0  0  0  0  0
   19.9238   -5.5195  -12.8765 C   0  0  0  0  0  0  0  0  0  0  0  0
   20.7001   -5.9976  -14.0859 C   0  0  1  0  0  0  0  0  0  0  0  0
   22.0931   -5.4730  -14.0649 C   0  0  0  0  0  0  0  0  0  0  0  0
   23.0689   -6.2031  -13.7980 O   0  0  0  0  0  0  0  0  0  0  0  0
   22.3218   -4.1427  -14.3473 O   0  0  0  0  0  0  0  0  0  0  0  0
  2  1  1  6
  2  3  1  0
  4  2  1  0
  5  4  1  0
  5  6  1  1
  7  5  1  0
  7  8  2  0
  9 10  1  0
 10 11  1  0
 11 13  1  0
 11 12  1  1
 13 14  1  6
 13 15  1  0
 14  7  1  0
 15 17  1  0
 16 15  2  0
 17 18  1  0
 17 21  1  0
 18 19  1  0
 19 20  1  0
 21 22  1  1
 21 20  1  0
 22 24  1  0
 23 22  2  0
M  END
$$$$
