LIP.pdb
     RDKit          3D

 24 24  0  0  1  0  0  0  0  0999 V2000
   22.7519  -19.3526  -12.6819 C   0  0  0  0  0  0  0  0  0  0  0  0
   24.2305  -19.6213  -12.5042 C   0  0  2  0  0  0  0  0  0  0  0  0
   24.8684  -20.1271  -13.7685 C   0  0  0  0  0  0  0  0  0  0  0  0
   24.4726  -20.5387  -11.3237 C   0  0  0  0  0  0  0  0  0  0  0  0
   25.9148  -20.4200  -10.9411 C   0  0  2  0  0  0  0  0  0  0  0  0
   26.7038  -21.1551  -11.9121 N   0  0  0  0  0  0  0  0  0  0  0  0
   26.1952  -20.9251   -9.5746 C   0  0  0  0  0  0  0  0  0  0  0  0
   26.2498  -22.1652   -9.3691 O   0  0  0  0  0  0  0  0  0  0  0  0
   29.5326  -18.4873   -6.1330 C   0  0  0  0  0  0  0  0  0  0  0  0
   28.7912  -19.6075   -6.8746 C   0  0  0  0  0  0  0  0  0  0  0  0
   27.3568  -19.5111   -6.3946 C   0  0  2  0  0  0  0  0  0  0  0  0
   27.3662  -19.7668   -4.9014 C   0  0  0  0  0  0  0  0  0  0  0  0
   26.4561  -20.5395   -7.0973 C   0  0  2  0  0  0  0  0  0  0  0  0
   26.4061  -20.0602   -8.4813 N   0  0  0  0  0  0  0  0  0  0  0  0
   25.1212  -20.5504   -6.4863 C   0  0  0  0  0  0  0  0  0  0  0  0
   24.3642  -19.5516   -6.7417 O   0  0  0  0  0  0  0  0  0  0  0  0
   24.6347  -21.5858   -5.6462 N   0  0  0  0  0  0  0  0  0  0  0  0
   25.2955  -22.7726   -5.1488 C   0  0  0  0  0  0  0  0  0  0  0  0
   24.2212  -23.8367   -5.4196 C   0  0  0  0  0  0  0  0  0  0  0  0
   22.9916  -23.1224   -4.8796 C   0  0  0  0  0  0  0  0  0  0  0  0
   23.2972  -21.6533   -5.0842 C   0  0  1  0  0  0  0  0  0  0  0  0
   23.2129  -20.9086   -3.7980 C   0  0  0  0  0  0  0  0  0  0  0  0
   24.2327  -20.5693   -3.1644 O   0  0  0  0  0  0  0  0  0  0  0  0
   21.9764  -20.5796   -3.2837 O   0  0  0  0  0  0  0  0  0  0  0  0
  2  1  1  6
  2  3  1  0
  4  2  1  0
  5  4  1  0
  5  6  1  6
  7  5  1  0
  7  8  2  0
  9 10  1  0
 10 11  1  0
 11 13  1  0
 11 12  1  1
 13 14  1  6
 13 15  1  0
 14  7  1  0
 15 17  1  0
 16 15  2  0
 17 18  1  0
 17 21  1  0
 18 19  1  0
 19 20  1  0
 21 22  1  1
 21 20  1  0
 22 24  1  0
 23 22  2  0
M  END
$$$$
