LIP.pdb
     RDKit          3D

 24 24  0  0  1  0  0  0  0  0999 V2000
   21.3140  -19.0263  -12.5483 C   0  0  0  0  0  0  0  0  0  0  0  0
   21.1302  -20.4677  -12.1260 C   0  0  2  0  0  0  0  0  0  0  0  0
   19.8300  -20.6824  -11.4017 C   0  0  0  0  0  0  0  0  0  0  0  0
   22.3251  -20.9522  -11.3315 C   0  0  0  0  0  0  0  0  0  0  0  0
   23.5461  -20.7496  -12.1734 C   0  0  2  0  0  0  0  0  0  0  0  0
   23.4284  -21.5878  -13.3521 N   0  0  0  0  0  0  0  0  0  0  0  0
   24.8048  -21.0627  -11.4534 C   0  0  0  0  0  0  0  0  0  0  0  0
   25.0964  -22.2608  -11.2028 O   0  0  0  0  0  0  0  0  0  0  0  0
   29.2669  -19.0590  -12.9284 C   0  0  0  0  0  0  0  0  0  0  0  0
   28.2628  -20.0528  -12.3295 C   0  0  0  0  0  0  0  0  0  0  0  0
   27.9992  -19.5441  -10.9264 C   0  0  2  0  0  0  0  0  0  0  0  0
   29.2956  -19.6714  -10.1529 C   0  0  0  0  0  0  0  0  0  0  0  0
   26.8920  -20.3527  -10.2315 C   0  0  2  0  0  0  0  0  0  0  0  0
   25.7005  -20.0586  -11.0324 N   0  0  0  0  0  0  0  0  0  0  0  0
   26.7276  -19.9043   -8.8432 C   0  0  0  0  0  0  0  0  0  0  0  0
   25.9288  -18.9250   -8.6465 O   0  0  0  0  0  0  0  0  0  0  0  0
   27.3914  -20.4850   -7.7312 N   0  0  0  0  0  0  0  0  0  0  0  0
   28.3469  -21.5697   -7.6764 C   0  0  0  0  0  0  0  0  0  0  0  0
   27.7791  -22.3968   -6.5131 C   0  0  0  0  0  0  0  0  0  0  0  0
   27.5175  -21.2931   -5.4997 C   0  0  0  0  0  0  0  0  0  0  0  0
   27.2333  -20.0712   -6.3481 C   0  0  1  0  0  0  0  0  0  0  0  0
   28.1624  -18.9593   -6.0069 C   0  0  0  0  0  0  0  0  0  0  0  0
   29.0968  -18.6250   -6.7631 O   0  0  0  0  0  0  0  0  0  0  0  0
   27.9937  -18.2727   -4.8228 O   0  0  0  0  0  0  0  0  0  0  0  0
  2  1  1  1
  2  3  1  0
  4  2  1  0
  5  4  1  0
  5  6  1  6
  7  5  1  0
  7  8  2  0
  9 10  1  0
 10 11  1  0
 11 13  1  0
 11 12  1  1
 13 14  1  6
 13 15  1  0
 14  7  1  0
 15 17  1  0
 16 15  2  0
 17 18  1  0
 17 21  1  0
 18 19  1  0
 19 20  1  0
 21 22  1  1
 21 20  1  0
 22 24  1  0
 23 22  2  0
M  END
$$$$
