LIP.pdb
     RDKit          3D

 24 24  0  0  1  0  0  0  0  0999 V2000
   22.8983  -22.9543  -16.3478 C   0  0  0  0  0  0  0  0  0  0  0  0
   22.7136  -22.9767  -17.8496 C   0  0  2  0  0  0  0  0  0  0  0  0
   21.2617  -23.0144  -18.2393 C   0  0  0  0  0  0  0  0  0  0  0  0
   23.5123  -24.1022  -18.4732 C   0  0  0  0  0  0  0  0  0  0  0  0
   24.9493  -23.9007  -18.1059 C   0  0  2  0  0  0  0  0  0  0  0  0
   25.4545  -22.7659  -18.8559 N   0  0  0  0  0  0  0  0  0  0  0  0
   25.7879  -25.0957  -18.3700 C   0  0  0  0  0  0  0  0  0  0  0  0
   26.1000  -25.3871  -19.5536 O   0  0  0  0  0  0  0  0  0  0  0  0
   30.4352  -25.6610  -16.5749 C   0  0  0  0  0  0  0  0  0  0  0  0
   29.1503  -25.7307  -17.4108 C   0  0  0  0  0  0  0  0  0  0  0  0
   28.3534  -26.8703  -16.8078 C   0  0  2  0  0  0  0  0  0  0  0  0
   29.2352  -28.1017  -16.8440 C   0  0  0  0  0  0  0  0  0  0  0  0
   27.0574  -27.1298  -17.5923 C   0  0  2  0  0  0  0  0  0  0  0  0
   26.2561  -25.9301  -17.3344 N   0  0  0  0  0  0  0  0  0  0  0  0
   26.3899  -28.3371  -17.0899 C   0  0  0  0  0  0  0  0  0  0  0  0
   25.9399  -28.2891  -15.8937 O   0  0  0  0  0  0  0  0  0  0  0  0
   26.2200  -29.5287  -17.8420 N   0  0  0  0  0  0  0  0  0  0  0  0
   26.5836  -29.8295  -19.2094 C   0  0  0  0  0  0  0  0  0  0  0  0
   25.2965  -30.5025  -19.7096 C   0  0  0  0  0  0  0  0  0  0  0  0
   25.0234  -31.4544  -18.5551 C   0  0  0  0  0  0  0  0  0  0  0  0
   25.6155  -30.7541  -17.3498 C   0  0  1  0  0  0  0  0  0  0  0  0
   26.6207  -31.6188  -16.6731 C   0  0  0  0  0  0  0  0  0  0  0  0
   27.8467  -31.4158  -16.7839 O   0  0  0  0  0  0  0  0  0  0  0  0
   26.1942  -32.6774  -15.8990 O   0  0  0  0  0  0  0  0  0  0  0  0
  2  1  1  1
  2  3  1  0
  4  2  1  0
  5  4  1  0
  5  6  1  6
  7  5  1  0
  7  8  2  0
  9 10  1  0
 10 11  1  0
 11 13  1  0
 11 12  1  6
 13 14  1  1
 13 15  1  0
 14  7  1  0
 15 17  1  0
 16 15  2  0
 17 18  1  0
 17 21  1  0
 18 19  1  0
 19 20  1  0
 21 22  1  6
 21 20  1  0
 22 24  1  0
 23 22  2  0
M  END
$$$$
