DQW.pdb
     RDKit          3D

 32 33  0  0  1  0  0  0  0  0999 V2000
    9.3422  -15.9558   18.5332 N   0  0  0  0  0  0  0  0  0  0  0  0
    8.8802  -14.7874   19.2532 C   0  0  1  0  0  0  0  0  0  0  0  0
    7.8696  -14.0689   18.4187 C   0  0  0  0  0  0  0  0  0  0  0  0
    8.3760  -13.8005   17.0462 C   0  0  0  0  0  0  0  0  0  0  0  0
    9.4588  -14.3520   16.7241 O   0  0  0  0  0  0  0  0  0  0  0  0
    8.2758  -15.1873   20.5608 C   0  0  0  0  0  0  0  0  0  0  0  0
    7.7015  -14.3627   21.2904 O   0  0  0  0  0  0  0  0  0  0  0  0
    7.6983  -12.9834   16.1557 O   0  0  0  0  0  0  0  0  0  0  0  0
    8.3359  -20.6435   24.1668 N   0  0  0  0  0  0  0  0  0  0  0  0
    7.0359  -20.1332   24.0269 C   0  0  0  0  0  0  0  0  0  0  0  0
    6.1158  -20.6084   24.7388 O   0  0  0  0  0  0  0  0  0  0  0  0
    6.7049  -19.0562   23.0749 C   0  0  0  0  0  0  0  0  0  0  0  0
    7.8434  -18.5661   22.2618 C   0  0  0  0  0  0  0  0  0  0  0  0
    8.0344  -17.0611   22.2658 C   0  0  2  0  0  0  0  0  0  0  0  0
    8.3692  -16.5347   20.9598 N   0  0  0  0  0  0  0  0  0  0  0  0
    9.0540  -16.7245   23.2689 C   0  0  0  0  0  0  0  0  0  0  0  0
   10.2508  -16.6672   22.9535 O   0  0  0  0  0  0  0  0  0  0  0  0
    8.6624  -16.4607   24.6081 N   0  0  0  0  0  0  0  0  0  0  0  0
    9.6385  -16.1705   25.6266 C   0  0  1  0  0  0  0  0  0  0  0  0
    9.3668  -14.8834   26.3012 C   0  0  0  0  0  0  0  0  0  0  0  0
    7.9808  -14.4238   26.1374 C   0  0  0  0  0  0  0  0  0  0  0  0
    6.7829  -15.0690   25.9861 C   0  0  0  0  0  0  0  0  0  0  0  0
    5.7721  -14.1654   25.8562 N   0  0  0  0  0  0  0  0  0  0  0  0
    6.3035  -12.9336   25.9214 C   0  0  0  0  0  0  0  0  0  0  0  0
    5.7533  -11.6492   25.8448 C   0  0  0  0  0  0  0  0  0  0  0  0
    6.5445  -10.5253   25.9387 C   0  0  0  0  0  0  0  0  0  0  0  0
    7.9154  -10.6673   26.1133 C   0  0  0  0  0  0  0  0  0  0  0  0
    8.4284  -11.9197   26.1852 C   0  0  0  0  0  0  0  0  0  0  0  0
    7.6630  -13.0695   26.0940 C   0  0  0  0  0  0  0  0  0  0  0  0
    9.7584  -17.3054   26.5989 C   0  0  0  0  0  0  0  0  0  0  0  0
   10.8118  -17.3568   27.4654 O   0  0  0  0  0  0  0  0  0  0  0  0
    8.8909  -18.2129   26.6228 O   0  0  0  0  0  0  0  0  0  0  0  0
  2  1  1  6
  2  6  1  0
  3  4  1  0
  3  2  1  0
  4  5  2  0
  6  7  2  0
  8  4  1  0
 10 11  2  0
 10  9  1  0
 12 10  1  0
 13 12  1  0
 14 13  1  6
 14 16  1  0
 15  6  1  0
 15 14  1  0
 16 17  2  0
 18 16  1  0
 19 30  1  0
 19 18  1  0
 19 20  1  1
 21 20  1  0
 21 29  1  0
 22 23  1  0
 22 21  2  0
 23 24  1  0
 24 29  2  0
 24 25  1  0
 25 26  2  0
 26 27  1  0
 28 27  2  0
 29 28  1  0
 30 31  1  0
 32 30  2  0
M  END
$$$$
