DQW.pdb
     RDKit          3D

 32 33  0  0  1  0  0  0  0  0999 V2000
    9.5777  -17.5275   17.7727 N   0  0  0  0  0  0  0  0  0  0  0  0
    9.1675  -16.2273   18.2610 C   0  0  1  0  0  0  0  0  0  0  0  0
    8.1088  -15.6799   17.3590 C   0  0  0  0  0  0  0  0  0  0  0  0
    8.5284  -15.7095   15.9323 C   0  0  0  0  0  0  0  0  0  0  0  0
    9.6320  -16.2550   15.6777 O   0  0  0  0  0  0  0  0  0  0  0  0
    8.6459  -16.3369   19.6577 C   0  0  0  0  0  0  0  0  0  0  0  0
    8.1406  -15.3638   20.2407 O   0  0  0  0  0  0  0  0  0  0  0  0
    7.7511  -15.1652   14.9225 O   0  0  0  0  0  0  0  0  0  0  0  0
    5.5110  -19.7495   22.5591 N   0  0  0  0  0  0  0  0  0  0  0  0
    6.4421  -19.8312   23.6062 C   0  0  0  0  0  0  0  0  0  0  0  0
    6.0308  -20.0737   24.7686 O   0  0  0  0  0  0  0  0  0  0  0  0
    7.8902  -19.6444   23.3962 C   0  0  0  0  0  0  0  0  0  0  0  0
    8.2855  -19.3217   22.0044 C   0  0  0  0  0  0  0  0  0  0  0  0
    8.3970  -17.8406   21.6957 C   0  0  2  0  0  0  0  0  0  0  0  0
    8.7380  -17.5797   20.3135 N   0  0  0  0  0  0  0  0  0  0  0  0
    9.3706  -17.2447   22.6209 C   0  0  0  0  0  0  0  0  0  0  0  0
   10.5707  -17.1866   22.3185 O   0  0  0  0  0  0  0  0  0  0  0  0
    8.9304  -16.7300   23.8691 N   0  0  0  0  0  0  0  0  0  0  0  0
    9.8366  -16.0439   24.7537 C   0  0  1  0  0  0  0  0  0  0  0  0
    9.4094  -14.6522   25.0109 C   0  0  0  0  0  0  0  0  0  0  0  0
    8.0605  -14.5561   25.5858 C   0  0  0  0  0  0  0  0  0  0  0  0
    7.0682  -15.4683   25.8251 C   0  0  0  0  0  0  0  0  0  0  0  0
    5.9823  -14.8535   26.3711 N   0  0  0  0  0  0  0  0  0  0  0  0
    6.2601  -13.5447   26.4892 C   0  0  0  0  0  0  0  0  0  0  0  0
    5.5308  -12.4518   26.9708 C   0  0  0  0  0  0  0  0  0  0  0  0
    6.0642  -11.1816   26.9743 C   0  0  0  0  0  0  0  0  0  0  0  0
    7.3510  -10.9794   26.4913 C   0  0  0  0  0  0  0  0  0  0  0  0
    8.0405  -12.0510   26.0296 C   0  0  0  0  0  0  0  0  0  0  0  0
    7.5351  -13.3395   26.0110 C   0  0  0  0  0  0  0  0  0  0  0  0
   10.0424  -16.8168   26.0217 C   0  0  0  0  0  0  0  0  0  0  0  0
   11.0094  -16.4362   26.9067 O   0  0  0  0  0  0  0  0  0  0  0  0
    9.3264  -17.8162   26.2773 O   0  0  0  0  0  0  0  0  0  0  0  0
  2  1  1  6
  2  6  1  0
  3  4  1  0
  3  2  1  0
  4  5  2  0
  6  7  2  0
  8  4  1  0
 10 11  2  0
 10  9  1  0
 12 10  1  0
 13 12  1  0
 14 13  1  6
 14 16  1  0
 15  6  1  0
 15 14  1  0
 16 17  2  0
 18 16  1  0
 19 30  1  0
 19 18  1  0
 19 20  1  1
 21 20  1  0
 21 29  1  0
 22 23  1  0
 22 21  2  0
 23 24  1  0
 24 29  2  0
 24 25  1  0
 25 26  2  0
 26 27  1  0
 28 27  2  0
 29 28  1  0
 30 31  1  0
 32 30  2  0
M  END
$$$$
