DQW.pdb
     RDKit          3D

 32 33  0  0  1  0  0  0  0  0999 V2000
    7.4749  -18.1343   17.3253 N   0  0  0  0  0  0  0  0  0  0  0  0
    8.4010  -17.2647   18.0204 C   0  0  1  0  0  0  0  0  0  0  0  0
    8.4005  -15.9243   17.3592 C   0  0  0  0  0  0  0  0  0  0  0  0
    8.9921  -15.9802   15.9957 C   0  0  0  0  0  0  0  0  0  0  0  0
    9.4069  -17.1003   15.6037 O   0  0  0  0  0  0  0  0  0  0  0  0
    8.0090  -17.1289   19.4568 C   0  0  0  0  0  0  0  0  0  0  0  0
    7.2455  -16.2274   19.8395 O   0  0  0  0  0  0  0  0  0  0  0  0
    9.0888  -14.8597   15.1861 O   0  0  0  0  0  0  0  0  0  0  0  0
    5.2394  -19.7814   23.1170 N   0  0  0  0  0  0  0  0  0  0  0  0
    6.2457  -19.6919   24.0914 C   0  0  0  0  0  0  0  0  0  0  0  0
    5.9181  -19.6728   25.3044 O   0  0  0  0  0  0  0  0  0  0  0  0
    7.6784  -19.6204   23.7476 C   0  0  0  0  0  0  0  0  0  0  0  0
    7.9708  -19.5112   22.2984 C   0  0  0  0  0  0  0  0  0  0  0  0
    8.2233  -18.1012   21.7988 C   0  0  2  0  0  0  0  0  0  0  0  0
    8.5271  -18.0531   20.3845 N   0  0  0  0  0  0  0  0  0  0  0  0
    9.2948  -17.5057   22.6089 C   0  0  0  0  0  0  0  0  0  0  0  0
   10.4598  -17.9154   22.5087 O   0  0  0  0  0  0  0  0  0  0  0  0
    8.9913  -16.4513   23.5104 N   0  0  0  0  0  0  0  0  0  0  0  0
   10.0199  -15.8309   24.3050 C   0  0  1  0  0  0  0  0  0  0  0  0
    9.5773  -14.5382   24.8694 C   0  0  0  0  0  0  0  0  0  0  0  0
    8.2020  -14.5709   25.3856 C   0  0  0  0  0  0  0  0  0  0  0  0
    7.2914  -15.5734   25.5857 C   0  0  0  0  0  0  0  0  0  0  0  0
    6.1295  -15.0647   26.0824 N   0  0  0  0  0  0  0  0  0  0  0  0
    6.2765  -13.7355   26.2072 C   0  0  0  0  0  0  0  0  0  0  0  0
    5.4266  -12.7169   26.6528 C   0  0  0  0  0  0  0  0  0  0  0  0
    5.8363  -11.4017   26.6743 C   0  0  0  0  0  0  0  0  0  0  0  0
    7.1176  -11.0781   26.2461 C   0  0  0  0  0  0  0  0  0  0  0  0
    7.9251  -12.0791   25.8185 C   0  0  0  0  0  0  0  0  0  0  0  0
    7.5456  -13.4099   25.7833 C   0  0  0  0  0  0  0  0  0  0  0  0
   10.5248  -16.7672   25.3615 C   0  0  0  0  0  0  0  0  0  0  0  0
   11.6634  -16.4698   26.0531 O   0  0  0  0  0  0  0  0  0  0  0  0
    9.9031  -17.8278   25.6171 O   0  0  0  0  0  0  0  0  0  0  0  0
  2  1  1  6
  2  6  1  0
  3  4  1  0
  3  2  1  0
  4  5  2  0
  6  7  2  0
  8  4  1  0
 10 11  2  0
 10  9  1  0
 12 10  1  0
 13 12  1  0
 14 13  1  1
 14 16  1  0
 15  6  1  0
 15 14  1  0
 16 17  2  0
 18 16  1  0
 19 30  1  0
 19 18  1  0
 19 20  1  1
 21 20  1  0
 21 29  1  0
 22 23  1  0
 22 21  2  0
 23 24  1  0
 24 29  2  0
 24 25  1  0
 25 26  2  0
 26 27  1  0
 28 27  2  0
 29 28  1  0
 30 31  1  0
 32 30  2  0
M  END
$$$$
