DQW.pdb
     RDKit          3D

 32 33  0  0  1  0  0  0  0  0999 V2000
    9.8050  -16.2347   19.5904 N   0  0  0  0  0  0  0  0  0  0  0  0
    8.5843  -16.0484   20.3469 C   0  0  1  0  0  0  0  0  0  0  0  0
    7.4598  -16.7250   19.6318 C   0  0  0  0  0  0  0  0  0  0  0  0
    7.5564  -16.5493   18.1580 C   0  0  0  0  0  0  0  0  0  0  0  0
    8.2724  -15.6015   17.7463 O   0  0  0  0  0  0  0  0  0  0  0  0
    8.7331  -16.6149   21.7225 C   0  0  0  0  0  0  0  0  0  0  0  0
    7.7537  -16.7732   22.4693 O   0  0  0  0  0  0  0  0  0  0  0  0
    6.8940  -17.3817   17.2700 O   0  0  0  0  0  0  0  0  0  0  0  0
   13.4392  -20.9262   23.0086 N   0  0  0  0  0  0  0  0  0  0  0  0
   13.0585  -20.3143   24.2131 C   0  0  0  0  0  0  0  0  0  0  0  0
   13.7906  -20.4547   25.2248 O   0  0  0  0  0  0  0  0  0  0  0  0
   11.8293  -19.5087   24.3396 C   0  0  0  0  0  0  0  0  0  0  0  0
   11.5922  -18.5488   23.2350 C   0  0  0  0  0  0  0  0  0  0  0  0
   10.3320  -17.7148   23.3686 C   0  0  2  0  0  0  0  0  0  0  0  0
   10.0211  -16.9716   22.1661 N   0  0  0  0  0  0  0  0  0  0  0  0
   10.4798  -16.8324   24.5341 C   0  0  0  0  0  0  0  0  0  0  0  0
   11.1768  -15.8104   24.4640 O   0  0  0  0  0  0  0  0  0  0  0  0
    9.8160  -17.1534   25.7476 N   0  0  0  0  0  0  0  0  0  0  0  0
    9.9841  -16.3428   26.9262 C   0  0  1  0  0  0  0  0  0  0  0  0
    8.6870  -15.9692   27.5291 C   0  0  0  0  0  0  0  0  0  0  0  0
    7.7199  -15.4524   26.5510 C   0  0  0  0  0  0  0  0  0  0  0  0
    6.8560  -16.0474   25.6713 C   0  0  0  0  0  0  0  0  0  0  0  0
    6.1758  -15.1026   24.9644 N   0  0  0  0  0  0  0  0  0  0  0  0
    6.5912  -13.8939   25.3774 C   0  0  0  0  0  0  0  0  0  0  0  0
    6.2505  -12.5878   25.0083 C   0  0  0  0  0  0  0  0  0  0  0  0
    6.8476  -11.4977   25.6025 C   0  0  0  0  0  0  0  0  0  0  0  0
    7.8066  -11.6965   26.5878 C   0  0  0  0  0  0  0  0  0  0  0  0
    8.1222  -12.9691   26.9309 C   0  0  0  0  0  0  0  0  0  0  0  0
    7.5426  -14.0861   26.3542 C   0  0  0  0  0  0  0  0  0  0  0  0
   10.8971  -17.0068   27.9128 C   0  0  0  0  0  0  0  0  0  0  0  0
   11.2662  -16.3527   29.0525 O   0  0  0  0  0  0  0  0  0  0  0  0
   11.3254  -18.1673   27.6974 O   0  0  0  0  0  0  0  0  0  0  0  0
  2  1  1  6
  2  6  1  0
  3  4  1  0
  3  2  1  0
  4  5  2  0
  6  7  2  0
  8  4  1  0
 10 11  2  0
 10  9  1  0
 12 10  1  0
 13 12  1  0
 14 13  1  6
 14 16  1  0
 15  6  1  0
 15 14  1  0
 16 17  2  0
 18 16  1  0
 19 30  1  0
 19 18  1  0
 19 20  1  1
 21 20  1  0
 21 29  1  0
 22 23  1  0
 22 21  2  0
 23 24  1  0
 24 29  2  0
 24 25  1  0
 25 26  2  0
 26 27  1  0
 28 27  2  0
 29 28  1  0
 30 31  1  0
 32 30  2  0
M  END
$$$$
