SAR.pdb
     RDKit          3D

 23 22  0  0  1  0  0  0  0  0999 V2000
   13.8046   -4.2203   -4.5520 O   0  0  0  0  0  0  0  0  0  0  0  0
   13.4576   -2.9170   -4.8243 C   0  0  0  0  0  0  0  0  0  0  0  0
   12.4842   -2.7590   -5.9528 C   0  0  2  0  0  0  0  0  0  0  0  0
   11.2442   -3.4194   -5.5640 N   0  0  0  0  0  0  0  0  0  0  0  0
   13.0539   -3.3821   -7.1768 C   0  0  0  0  0  0  0  0  0  0  0  0
   12.6470   -4.5014   -7.5672 O   0  0  0  0  0  0  0  0  0  0  0  0
   15.2712   -2.2322  -10.0207 C   0  0  0  0  0  0  0  0  0  0  0  0
   14.5341   -3.2441   -9.2136 C   0  0  2  0  0  0  0  0  0  0  0  0
   14.0658   -2.7537   -7.9490 N   0  0  0  0  0  0  0  0  0  0  0  0
   15.3708   -4.4834   -9.0287 C   0  0  0  0  0  0  0  0  0  0  0  0
   16.1441   -4.5796   -8.0423 O   0  0  0  0  0  0  0  0  0  0  0  0
   14.3837  -13.0858  -11.3492 N   0  0  0  0  0  0  0  0  0  0  0  0
   15.7401  -12.7138  -11.5923 C   0  0  0  0  0  0  0  0  0  0  0  0
   16.5317  -13.4303  -12.3556 N   0  0  0  0  0  0  0  0  0  0  0  0
   16.3127  -11.5408  -11.0176 N   0  0  0  0  0  0  0  0  0  0  0  0
   15.6134  -10.2985  -10.9599 C   0  0  0  0  0  0  0  0  0  0  0  0
   16.2832   -9.2106  -10.1860 C   0  0  0  0  0  0  0  0  0  0  0  0
   15.4109   -7.9667  -10.3236 C   0  0  0  0  0  0  0  0  0  0  0  0
   16.0256   -6.7766   -9.6547 C   0  0  2  0  0  0  0  0  0  0  0  0
   15.2947   -5.5469   -9.9612 N   0  0  0  0  0  0  0  0  0  0  0  0
   17.4070   -6.5848  -10.2195 C   0  0  0  0  0  0  0  0  0  0  0  0
   18.4917   -7.1852   -9.6011 O   0  0  0  0  0  0  0  0  0  0  0  0
   17.6318   -5.8936  -11.2438 O   0  0  0  0  0  0  0  0  0  0  0  0
  1  2  1  0
  3  4  1  1
  3  5  1  0
  3  2  1  0
  5  9  1  0
  5  6  2  0
  8  7  1  1
  8 10  1  0
  9  8  1  0
 10 20  1  0
 10 11  2  0
 13 12  1  0
 13 14  2  0
 15 16  1  0
 15 13  1  0
 16 17  1  0
 17 18  1  0
 19 18  1  6
 20 19  1  0
 21 19  1  0
 21 22  1  0
 23 21  2  0
M  END
$$$$
