SAR.pdb
     RDKit          3D

 23 22  0  0  1  0  0  0  0  0999 V2000
   27.1509  -16.1399  -19.3078 O   0  0  0  0  0  0  0  0  0  0  0  0
   27.5206  -14.9005  -18.8384 C   0  0  0  0  0  0  0  0  0  0  0  0
   26.4364  -13.8676  -18.8987 C   0  0  2  0  0  0  0  0  0  0  0  0
   26.9846  -12.6194  -18.3825 N   0  0  0  0  0  0  0  0  0  0  0  0
   25.2862  -14.3217  -18.0731 C   0  0  0  0  0  0  0  0  0  0  0  0
   25.4156  -14.4780  -16.8363 O   0  0  0  0  0  0  0  0  0  0  0  0
   21.5776  -14.8988  -18.5515 C   0  0  0  0  0  0  0  0  0  0  0  0
   22.8937  -15.0952  -17.8823 C   0  0  2  0  0  0  0  0  0  0  0  0
   24.0102  -14.5948  -18.6320 N   0  0  0  0  0  0  0  0  0  0  0  0
   23.0953  -16.5459  -17.5291 C   0  0  0  0  0  0  0  0  0  0  0  0
   23.8342  -17.2708  -18.2424 O   0  0  0  0  0  0  0  0  0  0  0  0
   24.8543  -20.8208  -10.1449 N   0  0  0  0  0  0  0  0  0  0  0  0
   25.3960  -21.3179  -11.3683 C   0  0  0  0  0  0  0  0  0  0  0  0
   26.5248  -21.9862  -11.4084 N   0  0  0  0  0  0  0  0  0  0  0  0
   24.7400  -21.1150  -12.6184 N   0  0  0  0  0  0  0  0  0  0  0  0
   23.7275  -20.1261  -12.7986 C   0  0  0  0  0  0  0  0  0  0  0  0
   23.0978  -20.0793  -14.1522 C   0  0  0  0  0  0  0  0  0  0  0  0
   23.2246  -18.6433  -14.6510 C   0  0  0  0  0  0  0  0  0  0  0  0
   22.7504  -18.4987  -16.0637 C   0  0  2  0  0  0  0  0  0  0  0  0
   22.4562  -17.1043  -16.3951 N   0  0  0  0  0  0  0  0  0  0  0  0
   21.4456  -19.2363  -16.1965 C   0  0  0  0  0  0  0  0  0  0  0  0
   21.4349  -20.6216  -16.1830 O   0  0  0  0  0  0  0  0  0  0  0  0
   20.3430  -18.6482  -16.3219 O   0  0  0  0  0  0  0  0  0  0  0  0
  1  2  1  0
  3  4  1  1
  3  5  1  0
  3  2  1  0
  5  9  1  0
  5  6  2  0
  8  7  1  6
  8 10  1  0
  9  8  1  0
 10 20  1  0
 10 11  2  0
 13 12  1  0
 13 14  2  0
 15 16  1  0
 15 13  1  0
 16 17  1  0
 17 18  1  0
 19 18  1  1
 20 19  1  0
 21 19  1  0
 21 22  1  0
 23 21  2  0
M  END
$$$$
