SAR.pdb
     RDKit          3D

 23 22  0  0  1  0  0  0  0  0999 V2000
   18.3429  -20.1949  -14.5695 O   0  0  0  0  0  0  0  0  0  0  0  0
   19.4950  -19.4556  -14.7090 C   0  0  0  0  0  0  0  0  0  0  0  0
   20.7589  -20.2391  -14.5229 C   0  0  2  0  0  0  0  0  0  0  0  0
   20.7790  -21.2932  -15.5296 N   0  0  0  0  0  0  0  0  0  0  0  0
   20.7757  -20.8160  -13.1526 C   0  0  0  0  0  0  0  0  0  0  0  0
   20.7724  -22.0584  -12.9872 O   0  0  0  0  0  0  0  0  0  0  0  0
   21.1554  -19.4563   -9.6236 C   0  0  0  0  0  0  0  0  0  0  0  0
   20.9771  -20.5139  -10.6572 C   0  0  2  0  0  0  0  0  0  0  0  0
   20.7964  -20.0060  -11.9870 N   0  0  0  0  0  0  0  0  0  0  0  0
   19.8466  -21.4358  -10.2800 C   0  0  0  0  0  0  0  0  0  0  0  0
   18.7208  -21.3071  -10.8243 O   0  0  0  0  0  0  0  0  0  0  0  0
   18.4987  -26.6315   -3.2512 N   0  0  0  0  0  0  0  0  0  0  0  0
   17.3006  -26.7616   -4.0161 C   0  0  0  0  0  0  0  0  0  0  0  0
   16.3055  -27.5231   -3.6257 N   0  0  0  0  0  0  0  0  0  0  0  0
   17.1178  -26.0707   -5.2503 N   0  0  0  0  0  0  0  0  0  0  0  0
   18.0979  -25.1792   -5.7796 C   0  0  0  0  0  0  0  0  0  0  0  0
   17.7750  -24.5705   -7.1049 C   0  0  0  0  0  0  0  0  0  0  0  0
   18.9771  -23.7221   -7.5080 C   0  0  0  0  0  0  0  0  0  0  0  0
   18.8827  -23.2591   -8.9287 C   0  0  2  0  0  0  0  0  0  0  0  0
   20.0408  -22.4513   -9.3119 N   0  0  0  0  0  0  0  0  0  0  0  0
   17.6904  -22.3487   -9.0452 C   0  0  0  0  0  0  0  0  0  0  0  0
   17.8365  -20.9915   -8.8083 O   0  0  0  0  0  0  0  0  0  0  0  0
   16.5459  -22.7648   -9.3522 O   0  0  0  0  0  0  0  0  0  0  0  0
  1  2  1  0
  3  4  1  6
  3  5  1  0
  3  2  1  0
  5  9  1  0
  5  6  2  0
  8  7  1  1
  8 10  1  0
  9  8  1  0
 10 20  1  0
 10 11  2  0
 13 12  1  0
 13 14  2  0
 15 16  1  0
 15 13  1  0
 16 17  1  0
 17 18  1  0
 19 18  1  1
 20 19  1  0
 21 19  1  0
 21 22  1  0
 23 21  2  0
M  END
$$$$
