SAR.pdb
     RDKit          3D

 23 22  0  0  1  0  0  0  0  0999 V2000
   25.0533  -13.6518  -19.2284 O   0  0  0  0  0  0  0  0  0  0  0  0
   24.9434  -14.7759  -18.4425 C   0  0  0  0  0  0  0  0  0  0  0  0
   25.8094  -14.7626  -17.2195 C   0  0  2  0  0  0  0  0  0  0  0  0
   25.5626  -15.9994  -16.4885 N   0  0  0  0  0  0  0  0  0  0  0  0
   25.4603  -13.5792  -16.3897 C   0  0  0  0  0  0  0  0  0  0  0  0
   24.3711  -13.5371  -15.7710 O   0  0  0  0  0  0  0  0  0  0  0  0
   27.1694  -10.3557  -15.3252 C   0  0  0  0  0  0  0  0  0  0  0  0
   26.0291  -11.3041  -15.4630 C   0  0  2  0  0  0  0  0  0  0  0  0
   26.3249  -12.4610  -16.2586 N   0  0  0  0  0  0  0  0  0  0  0  0
   24.8104  -10.5916  -15.9895 C   0  0  0  0  0  0  0  0  0  0  0  0
   24.3701  -10.8605  -17.1358 O   0  0  0  0  0  0  0  0  0  0  0  0
   17.4649  -12.6748  -16.8629 N   0  0  0  0  0  0  0  0  0  0  0  0
   17.2312  -11.2870  -17.1015 C   0  0  0  0  0  0  0  0  0  0  0  0
   16.0853  -10.8440  -17.5631 N   0  0  0  0  0  0  0  0  0  0  0  0
   18.2322  -10.3022  -16.8519 N   0  0  0  0  0  0  0  0  0  0  0  0
   19.5340  -10.6394  -16.3752 C   0  0  0  0  0  0  0  0  0  0  0  0
   20.5000   -9.5054  -16.2651 C   0  0  0  0  0  0  0  0  0  0  0  0
   21.8344  -10.1005  -15.8264 C   0  0  0  0  0  0  0  0  0  0  0  0
   22.9011   -9.0562  -15.7123 C   0  0  2  0  0  0  0  0  0  0  0  0
   24.1527   -9.6157  -15.2013 N   0  0  0  0  0  0  0  0  0  0  0  0
   22.4569   -8.0440  -14.6915 C   0  0  0  0  0  0  0  0  0  0  0  0
   21.5744   -7.0407  -15.0575 O   0  0  0  0  0  0  0  0  0  0  0  0
   22.8538   -8.0622  -13.5000 O   0  0  0  0  0  0  0  0  0  0  0  0
  1  2  1  0
  3  4  1  1
  3  5  1  0
  3  2  1  0
  5  9  1  0
  5  6  2  0
  8  7  1  6
  8 10  1  0
  9  8  1  0
 10 20  1  0
 10 11  2  0
 13 12  1  0
 13 14  2  0
 15 16  1  0
 15 13  1  0
 16 17  1  0
 17 18  1  0
 19 18  1  1
 20 19  1  0
 21 19  1  0
 21 22  1  0
 23 21  2  0
M  END
$$$$
