SAR.pdb
     RDKit          3D

 23 22  0  0  1  0  0  0  0  0999 V2000
   27.7875  -20.0772  -18.8378 O   0  0  0  0  0  0  0  0  0  0  0  0
   27.2974  -18.9885  -19.5218 C   0  0  0  0  0  0  0  0  0  0  0  0
   27.1810  -17.7418  -18.6983 C   0  0  2  0  0  0  0  0  0  0  0  0
   28.4700  -17.5126  -18.0571 N   0  0  0  0  0  0  0  0  0  0  0  0
   26.1109  -17.9282  -17.6830 C   0  0  0  0  0  0  0  0  0  0  0  0
   26.4038  -18.0976  -16.4762 O   0  0  0  0  0  0  0  0  0  0  0  0
   22.3087  -17.9496  -17.6457 C   0  0  0  0  0  0  0  0  0  0  0  0
   23.6723  -18.1583  -17.0839 C   0  0  2  0  0  0  0  0  0  0  0  0
   24.7324  -17.9233  -18.0219 N   0  0  0  0  0  0  0  0  0  0  0  0
   23.7896  -19.5335  -16.4795 C   0  0  0  0  0  0  0  0  0  0  0  0
   24.5255  -20.3978  -17.0195 O   0  0  0  0  0  0  0  0  0  0  0  0
   24.0379  -20.1917   -9.9545 N   0  0  0  0  0  0  0  0  0  0  0  0
   25.1985  -20.9230   -9.5602 C   0  0  0  0  0  0  0  0  0  0  0  0
   25.4760  -21.1604   -8.2996 N   0  0  0  0  0  0  0  0  0  0  0  0
   26.1240  -21.4370  -10.5159 N   0  0  0  0  0  0  0  0  0  0  0  0
   25.9950  -21.1886  -11.9150 C   0  0  0  0  0  0  0  0  0  0  0  0
   24.6326  -21.3994  -12.4898 C   0  0  0  0  0  0  0  0  0  0  0  0
   24.7289  -21.0960  -13.9818 C   0  0  0  0  0  0  0  0  0  0  0  0
   23.3882  -21.1338  -14.6471 C   0  0  2  0  0  0  0  0  0  0  0  0
   23.0742  -19.8640  -15.3026 N   0  0  0  0  0  0  0  0  0  0  0  0
   22.3422  -21.3150  -13.5808 C   0  0  0  0  0  0  0  0  0  0  0  0
   21.5107  -20.2583  -13.2472 O   0  0  0  0  0  0  0  0  0  0  0  0
   22.1814  -22.3975  -12.9645 O   0  0  0  0  0  0  0  0  0  0  0  0
  1  2  1  0
  3  4  1  1
  3  5  1  0
  3  2  1  0
  5  9  1  0
  5  6  2  0
  8  7  1  6
  8 10  1  0
  9  8  1  0
 10 20  1  0
 10 11  2  0
 13 12  1  0
 13 14  2  0
 15 16  1  0
 15 13  1  0
 16 17  1  0
 17 18  1  0
 19 18  1  1
 20 19  1  0
 21 19  1  0
 21 22  1  0
 23 21  2  0
M  END
$$$$
