SWF.pdb
     RDKit          3D

 32 34  0  0  1  0  0  0  0  0999 V2000
   28.7389  -24.1403  -18.2590 O   0  0  0  0  0  0  0  0  0  0  0  0
   28.2815  -23.2725  -17.2928 C   0  0  0  0  0  0  0  0  0  0  0  0
   28.3309  -21.8598  -17.7720 C   0  0  2  0  0  0  0  0  0  0  0  0
   29.6432  -21.3271  -17.9521 N   0  0  0  0  0  0  0  0  0  0  0  0
   27.5990  -21.0127  -16.7731 C   0  0  0  0  0  0  0  0  0  0  0  0
   28.2849  -20.5059  -15.8552 O   0  0  0  0  0  0  0  0  0  0  0  0
   26.2239  -20.8122  -16.8787 N   0  0  0  0  0  0  0  0  0  0  0  0
   25.5643  -19.8602  -15.9646 C   0  0  1  0  0  0  0  0  0  0  0  0
   24.9169  -18.8327  -16.8137 C   0  0  0  0  0  0  0  0  0  0  0  0
   25.7321  -17.7138  -17.2679 C   0  0  0  0  0  0  0  0  0  0  0  0
   26.1563  -17.4075  -18.5429 C   0  0  0  0  0  0  0  0  0  0  0  0
   26.9137  -16.2962  -18.5143 N   0  0  0  0  0  0  0  0  0  0  0  0
   26.9819  -15.8824  -17.2310 C   0  0  0  0  0  0  0  0  0  0  0  0
   27.6261  -14.8020  -16.6660 C   0  0  0  0  0  0  0  0  0  0  0  0
   27.5600  -14.5652  -15.3175 C   0  0  0  0  0  0  0  0  0  0  0  0
   26.8373  -15.4212  -14.5088 C   0  0  0  0  0  0  0  0  0  0  0  0
   26.1986  -16.4949  -15.0792 C   0  0  0  0  0  0  0  0  0  0  0  0
   26.2636  -16.7390  -16.4517 C   0  0  0  0  0  0  0  0  0  0  0  0
   24.5505  -20.6551  -15.2201 C   0  0  0  0  0  0  0  0  0  0  0  0
   23.8203  -21.5085  -15.8496 O   0  0  0  0  0  0  0  0  0  0  0  0
   24.3213  -20.5465  -13.8243 N   0  0  0  0  0  0  0  0  0  0  0  0
   23.2067  -21.3031  -13.2410 C   0  0  1  0  0  0  0  0  0  0  0  0
   23.7849  -22.2287  -12.1586 C   0  0  0  0  0  0  0  0  0  0  0  0
   24.6616  -21.4405  -11.2800 C   0  0  0  0  0  0  0  0  0  0  0  0
   24.1317  -20.7370  -10.1943 C   0  0  0  0  0  0  0  0  0  0  0  0
   24.9304  -20.0206   -9.3375 C   0  0  0  0  0  0  0  0  0  0  0  0
   26.2991  -19.9678   -9.5181 C   0  0  0  0  0  0  0  0  0  0  0  0
   26.8313  -20.6665  -10.5978 C   0  0  0  0  0  0  0  0  0  0  0  0
   26.0318  -21.3836  -11.4550 C   0  0  0  0  0  0  0  0  0  0  0  0
   22.2231  -20.4236  -12.5933 C   0  0  0  0  0  0  0  0  0  0  0  0
   22.4283  -19.2053  -12.4444 O   0  0  0  0  0  0  0  0  0  0  0  0
   21.0386  -20.9545  -12.1366 O   0  0  0  0  0  0  0  0  0  0  0  0
  1  2  1  0
  3  2  1  0
  3  4  1  1
  5  6  2  0
  5  3  1  0
  7  5  1  0
  8  7  1  0
  8  9  1  6
 10  9  1  0
 11 10  2  0
 12 13  1  0
 12 11  1  0
 13 18  2  0
 14 13  1  0
 14 15  2  0
 15 16  1  0
 16 17  2  0
 18 10  1  0
 18 17  1  0
 19  8  1  0
 19 21  1  0
 20 19  2  0
 22 21  1  0
 22 30  1  0
 22 23  1  1
 24 23  1  0
 25 24  2  0
 26 25  1  0
 27 26  2  0
 27 28  1  0
 28 29  2  0
 29 24  1  0
 30 31  2  0
 30 32  1  0
M  END
$$$$
