SWF.pdb
     RDKit          3D

 32 34  0  0  1  0  0  0  0  0999 V2000
   28.3310  -19.3329  -13.8324 O   0  0  0  0  0  0  0  0  0  0  0  0
   28.9369  -18.8978  -12.6751 C   0  0  0  0  0  0  0  0  0  0  0  0
   29.3756  -20.0490  -11.8323 C   0  0  2  0  0  0  0  0  0  0  0  0
   30.1149  -21.0571  -12.5218 N   0  0  0  0  0  0  0  0  0  0  0  0
   28.1481  -20.6730  -11.2367 C   0  0  0  0  0  0  0  0  0  0  0  0
   27.9204  -21.8672  -11.5396 O   0  0  0  0  0  0  0  0  0  0  0  0
   27.3151  -19.9429  -10.3907 N   0  0  0  0  0  0  0  0  0  0  0  0
   26.0793  -20.5694   -9.8833 C   0  0  1  0  0  0  0  0  0  0  0  0
   25.7871  -19.9375   -8.5752 C   0  0  0  0  0  0  0  0  0  0  0  0
   26.9161  -19.5570   -7.7366 C   0  0  0  0  0  0  0  0  0  0  0  0
   27.7996  -18.5103   -7.8892 C   0  0  0  0  0  0  0  0  0  0  0  0
   28.7104  -18.5374   -6.8999 N   0  0  0  0  0  0  0  0  0  0  0  0
   28.4223  -19.5933   -6.1094 C   0  0  0  0  0  0  0  0  0  0  0  0
   29.0412  -20.0604   -4.9692 C   0  0  0  0  0  0  0  0  0  0  0  0
   28.5718  -21.1686   -4.3131 C   0  0  0  0  0  0  0  0  0  0  0  0
   27.4609  -21.8303   -4.7997 C   0  0  0  0  0  0  0  0  0  0  0  0
   26.8501  -21.3588   -5.9358 C   0  0  0  0  0  0  0  0  0  0  0  0
   27.3252  -20.2309   -6.6064 C   0  0  0  0  0  0  0  0  0  0  0  0
   25.0251  -20.2442  -10.8818 C   0  0  0  0  0  0  0  0  0  0  0  0
   25.2542  -19.3568  -11.7861 O   0  0  0  0  0  0  0  0  0  0  0  0
   23.7472  -20.8590  -10.9198 N   0  0  0  0  0  0  0  0  0  0  0  0
   22.8029  -20.4380  -11.9619 C   0  0  1  0  0  0  0  0  0  0  0  0
   23.4040  -20.8257  -13.3225 C   0  0  0  0  0  0  0  0  0  0  0  0
   23.4279  -22.2919  -13.4294 C   0  0  0  0  0  0  0  0  0  0  0  0
   22.2779  -22.9956  -13.7992 C   0  0  0  0  0  0  0  0  0  0  0  0
   22.2798  -24.3614  -13.9401 C   0  0  0  0  0  0  0  0  0  0  0  0
   23.4282  -25.0973  -13.7196 C   0  0  0  0  0  0  0  0  0  0  0  0
   24.5757  -24.4011  -13.3512 C   0  0  0  0  0  0  0  0  0  0  0  0
   24.5735  -23.0342  -13.2106 C   0  0  0  0  0  0  0  0  0  0  0  0
   21.5068  -21.1202  -11.8392 C   0  0  0  0  0  0  0  0  0  0  0  0
   21.2884  -21.9611  -10.9483 O   0  0  0  0  0  0  0  0  0  0  0  0
   20.5004  -20.8255  -12.7302 O   0  0  0  0  0  0  0  0  0  0  0  0
  1  2  1  0
  3  2  1  0
  3  4  1  6
  5  6  2  0
  5  3  1  0
  7  5  1  0
  8  7  1  0
  8  9  1  1
 10  9  1  0
 11 10  2  0
 12 13  1  0
 12 11  1  0
 13 18  2  0
 14 13  1  0
 14 15  2  0
 15 16  1  0
 16 17  2  0
 18 10  1  0
 18 17  1  0
 19  8  1  0
 19 21  1  0
 20 19  2  0
 22 21  1  0
 22 30  1  0
 22 23  1  6
 24 23  1  0
 25 24  2  0
 26 25  1  0
 27 26  2  0
 27 28  1  0
 28 29  2  0
 29 24  1  0
 30 31  2  0
 30 32  1  0
M  END
$$$$
