SWF.pdb
     RDKit          3D

 32 34  0  0  1  0  0  0  0  0999 V2000
   20.0684  -11.6692    8.4442 O   0  0  0  0  0  0  0  0  0  0  0  0
   19.6740  -11.0996    7.2543 C   0  0  0  0  0  0  0  0  0  0  0  0
   18.2038  -11.2514    7.0468 C   0  0  2  0  0  0  0  0  0  0  0  0
   17.4046  -11.0617    8.2146 N   0  0  0  0  0  0  0  0  0  0  0  0
   17.9579  -12.6318    6.5127 C   0  0  0  0  0  0  0  0  0  0  0  0
   17.4820  -13.4688    7.3145 O   0  0  0  0  0  0  0  0  0  0  0  0
   18.2516  -12.9470    5.1873 N   0  0  0  0  0  0  0  0  0  0  0  0
   18.0418  -14.3287    4.7140 C   0  0  1  0  0  0  0  0  0  0  0  0
   18.3788  -14.3407    3.2711 C   0  0  0  0  0  0  0  0  0  0  0  0
   18.3585  -15.6226    2.5788 C   0  0  0  0  0  0  0  0  0  0  0  0
   17.3287  -16.5308    2.4594 C   0  0  0  0  0  0  0  0  0  0  0  0
   17.7450  -17.5987    1.7555 N   0  0  0  0  0  0  0  0  0  0  0  0
   19.0354  -17.3875    1.4193 C   0  0  0  0  0  0  0  0  0  0  0  0
   19.9188  -18.1670    0.7028 C   0  0  0  0  0  0  0  0  0  0  0  0
   21.2046  -17.7506    0.4739 C   0  0  0  0  0  0  0  0  0  0  0  0
   21.6250  -16.5306    0.9678 C   0  0  0  0  0  0  0  0  0  0  0  0
   20.7391  -15.7601    1.6803 C   0  0  0  0  0  0  0  0  0  0  0  0
   19.4294  -16.1809    1.9152 C   0  0  0  0  0  0  0  0  0  0  0  0
   18.9922  -15.1684    5.4922 C   0  0  0  0  0  0  0  0  0  0  0  0
   20.1601  -14.7099    5.7813 O   0  0  0  0  0  0  0  0  0  0  0  0
   18.7010  -16.4755    5.9604 N   0  0  0  0  0  0  0  0  0  0  0  0
   19.7233  -17.1772    6.7462 C   0  0  1  0  0  0  0  0  0  0  0  0
   19.9460  -16.3810    8.0420 C   0  0  0  0  0  0  0  0  0  0  0  0
   21.0805  -16.9683    8.7699 C   0  0  0  0  0  0  0  0  0  0  0  0
   22.3888  -16.5595    8.4944 C   0  0  0  0  0  0  0  0  0  0  0  0
   23.4644  -17.0655    9.1816 C   0  0  0  0  0  0  0  0  0  0  0  0
   23.2923  -18.0055   10.1794 C   0  0  0  0  0  0  0  0  0  0  0  0
   21.9916  -18.4156   10.4572 C   0  0  0  0  0  0  0  0  0  0  0  0
   20.9153  -17.9089    9.7695 C   0  0  0  0  0  0  0  0  0  0  0  0
   19.2937  -18.5307    7.1256 C   0  0  0  0  0  0  0  0  0  0  0  0
   18.1119  -18.7870    7.4194 O   0  0  0  0  0  0  0  0  0  0  0  0
   20.2182  -19.5493    7.1584 O   0  0  0  0  0  0  0  0  0  0  0  0
  1  2  1  0
  3  2  1  0
  3  4  1  1
  5  6  2  0
  5  3  1  0
  7  5  1  0
  8  7  1  0
  8  9  1  6
 10  9  1  0
 11 10  2  0
 12 13  1  0
 12 11  1  0
 13 18  2  0
 14 13  1  0
 14 15  2  0
 15 16  1  0
 16 17  2  0
 18 10  1  0
 18 17  1  0
 19  8  1  0
 19 21  1  0
 20 19  2  0
 22 21  1  0
 22 30  1  0
 22 23  1  1
 24 23  1  0
 25 24  2  0
 26 25  1  0
 27 26  2  0
 27 28  1  0
 28 29  2  0
 29 24  1  0
 30 31  2  0
 30 32  1  0
M  END
$$$$
