SWF.pdb
     RDKit          3D

 32 34  0  0  1  0  0  0  0  0999 V2000
   15.6329  -20.5947    5.3985 O   0  0  0  0  0  0  0  0  0  0  0  0
   15.9221  -20.7627    4.0628 C   0  0  0  0  0  0  0  0  0  0  0  0
   15.9969  -19.4484    3.3594 C   0  0  2  0  0  0  0  0  0  0  0  0
   16.1991  -19.5275    1.9483 N   0  0  0  0  0  0  0  0  0  0  0  0
   17.1264  -18.6692    3.9659 C   0  0  0  0  0  0  0  0  0  0  0  0
   18.2158  -18.6833    3.3471 O   0  0  0  0  0  0  0  0  0  0  0  0
   16.9520  -17.9713    5.1595 N   0  0  0  0  0  0  0  0  0  0  0  0
   18.0758  -17.1844    5.7026 C   0  0  1  0  0  0  0  0  0  0  0  0
   17.4822  -16.0263    6.4112 C   0  0  0  0  0  0  0  0  0  0  0  0
   17.8073  -14.6920    5.9247 C   0  0  0  0  0  0  0  0  0  0  0  0
   17.1259  -13.9053    5.0213 C   0  0  0  0  0  0  0  0  0  0  0  0
   17.7891  -12.7501    4.8349 N   0  0  0  0  0  0  0  0  0  0  0  0
   18.8935  -12.7843    5.6107 C   0  0  0  0  0  0  0  0  0  0  0  0
   19.8991  -11.8576    5.7878 C   0  0  0  0  0  0  0  0  0  0  0  0
   20.9437  -12.1017    6.6411 C   0  0  0  0  0  0  0  0  0  0  0  0
   20.9925  -13.2948    7.3363 C   0  0  0  0  0  0  0  0  0  0  0  0
   19.9871  -14.2125    7.1545 C   0  0  0  0  0  0  0  0  0  0  0  0
   18.9221  -13.9673    6.2866 C   0  0  0  0  0  0  0  0  0  0  0  0
   18.7781  -18.0897    6.6519 C   0  0  0  0  0  0  0  0  0  0  0  0
   18.1024  -18.9456    7.3364 O   0  0  0  0  0  0  0  0  0  0  0  0
   20.1806  -18.0870    6.8653 N   0  0  0  0  0  0  0  0  0  0  0  0
   20.7253  -18.9466    7.9233 C   0  0  1  0  0  0  0  0  0  0  0  0
   21.7335  -19.9076    7.2731 C   0  0  0  0  0  0  0  0  0  0  0  0
   20.9969  -21.0189    6.6532 C   0  0  0  0  0  0  0  0  0  0  0  0
   20.6256  -22.1341    7.4101 C   0  0  0  0  0  0  0  0  0  0  0  0
   19.9080  -23.1708    6.8663 C   0  0  0  0  0  0  0  0  0  0  0  0
   19.5231  -23.1501    5.5395 C   0  0  0  0  0  0  0  0  0  0  0  0
   19.8906  -22.0418    4.7820 C   0  0  0  0  0  0  0  0  0  0  0  0
   20.6085  -21.0044    5.3265 C   0  0  0  0  0  0  0  0  0  0  0  0
   21.4453  -18.1735    8.9452 C   0  0  0  0  0  0  0  0  0  0  0  0
   21.6587  -16.9541    8.8177 O   0  0  0  0  0  0  0  0  0  0  0  0
   21.8988  -18.8082   10.0787 O   0  0  0  0  0  0  0  0  0  0  0  0
  1  2  1  0
  3  2  1  0
  3  4  1  6
  5  6  2  0
  5  3  1  0
  7  5  1  0
  8  7  1  0
  8  9  1  1
 10  9  1  0
 11 10  2  0
 12 13  1  0
 12 11  1  0
 13 18  2  0
 14 13  1  0
 14 15  2  0
 15 16  1  0
 16 17  2  0
 18 10  1  0
 18 17  1  0
 19  8  1  0
 19 21  1  0
 20 19  2  0
 22 21  1  0
 22 30  1  0
 22 23  1  6
 24 23  1  0
 25 24  2  0
 26 25  1  0
 27 26  2  0
 27 28  1  0
 28 29  2  0
 29 24  1  0
 30 31  2  0
 30 32  1  0
M  END
$$$$
