SWF.pdb
     RDKit          3D

 32 34  0  0  1  0  0  0  0  0999 V2000
   16.4389  -26.2999   -2.8162 O   0  0  0  0  0  0  0  0  0  0  0  0
   16.8155  -25.6437   -3.9666 C   0  0  0  0  0  0  0  0  0  0  0  0
   15.6609  -24.9195   -4.5751 C   0  0  2  0  0  0  0  0  0  0  0  0
   15.9109  -24.3545   -5.8622 N   0  0  0  0  0  0  0  0  0  0  0  0
   15.2639  -23.8203   -3.6343 C   0  0  0  0  0  0  0  0  0  0  0  0
   16.0775  -22.8777   -3.4950 O   0  0  0  0  0  0  0  0  0  0  0  0
   14.0460  -23.8647   -2.9582 N   0  0  0  0  0  0  0  0  0  0  0  0
   13.6194  -22.6935   -2.1686 C   0  0  1  0  0  0  0  0  0  0  0  0
   12.1952  -22.4526   -2.4988 C   0  0  0  0  0  0  0  0  0  0  0  0
   11.8077  -21.1053   -2.8956 C   0  0  0  0  0  0  0  0  0  0  0  0
   11.6991  -20.5680   -4.1600 C   0  0  0  0  0  0  0  0  0  0  0  0
   11.3353  -19.2759   -4.0742 N   0  0  0  0  0  0  0  0  0  0  0  0
   11.2081  -18.9744   -2.7644 C   0  0  0  0  0  0  0  0  0  0  0  0
   10.8567  -17.7955   -2.1414 C   0  0  0  0  0  0  0  0  0  0  0  0
   10.7867  -17.7112   -0.7750 C   0  0  0  0  0  0  0  0  0  0  0  0
   11.0723  -18.8236   -0.0071 C   0  0  0  0  0  0  0  0  0  0  0  0
   11.4215  -19.9940   -0.6351 C   0  0  0  0  0  0  0  0  0  0  0  0
   11.4937  -20.0835   -2.0259 C   0  0  0  0  0  0  0  0  0  0  0  0
   13.7783  -23.0906   -0.7434 C   0  0  0  0  0  0  0  0  0  0  0  0
   14.1943  -24.2740   -0.4529 O   0  0  0  0  0  0  0  0  0  0  0  0
   13.5032  -22.2379    0.3564 N   0  0  0  0  0  0  0  0  0  0  0  0
   13.7539  -22.7459    1.7107 C   0  0  1  0  0  0  0  0  0  0  0  0
   15.2691  -22.9589    1.8577 C   0  0  0  0  0  0  0  0  0  0  0  0
   15.9290  -21.6462    1.9129 C   0  0  0  0  0  0  0  0  0  0  0  0
   16.0442  -20.9600    3.1254 C   0  0  0  0  0  0  0  0  0  0  0  0
   16.6850  -19.7488    3.2130 C   0  0  0  0  0  0  0  0  0  0  0  0
   17.2445  -19.1582    2.0963 C   0  0  0  0  0  0  0  0  0  0  0  0
   17.1323  -19.8376    0.8867 C   0  0  0  0  0  0  0  0  0  0  0  0
   16.4911  -21.0498    0.7995 C   0  0  0  0  0  0  0  0  0  0  0  0
   13.3387  -21.7870    2.7445 C   0  0  0  0  0  0  0  0  0  0  0  0
   12.9638  -20.6350    2.4599 O   0  0  0  0  0  0  0  0  0  0  0  0
   13.3611  -22.1664    4.0670 O   0  0  0  0  0  0  0  0  0  0  0  0
  1  2  1  0
  3  2  1  0
  3  4  1  6
  5  6  2  0
  5  3  1  0
  7  5  1  0
  8  7  1  0
  8  9  1  1
 10  9  1  0
 11 10  2  0
 12 13  1  0
 12 11  1  0
 13 18  2  0
 14 13  1  0
 14 15  2  0
 15 16  1  0
 16 17  2  0
 18 10  1  0
 18 17  1  0
 19  8  1  0
 19 21  1  0
 20 19  2  0
 22 21  1  0
 22 30  1  0
 22 23  1  6
 24 23  1  0
 25 24  2  0
 26 25  1  0
 27 26  2  0
 27 28  1  0
 28 29  2  0
 29 24  1  0
 30 31  2  0
 30 32  1  0
M  END
$$$$
