SWF.pdb
     RDKit          3D

 32 34  0  0  1  0  0  0  0  0999 V2000
   18.9632  -35.5968   -5.0670 O   0  0  0  0  0  0  0  0  0  0  0  0
   19.0718  -34.2385   -5.2645 C   0  0  0  0  0  0  0  0  0  0  0  0
   20.0194  -33.9308   -6.3758 C   0  0  2  0  0  0  0  0  0  0  0  0
   19.8125  -34.6805   -7.5731 N   0  0  0  0  0  0  0  0  0  0  0  0
   21.4097  -34.1929   -5.8765 C   0  0  0  0  0  0  0  0  0  0  0  0
   21.9265  -35.2877   -6.1993 O   0  0  0  0  0  0  0  0  0  0  0  0
   22.0759  -33.2522   -5.0932 N   0  0  0  0  0  0  0  0  0  0  0  0
   23.4854  -33.4904   -4.7274 C   0  0  1  0  0  0  0  0  0  0  0  0
   24.2189  -32.2361   -5.0174 C   0  0  0  0  0  0  0  0  0  0  0  0
   24.5674  -31.9572   -6.4044 C   0  0  0  0  0  0  0  0  0  0  0  0
   23.8589  -31.2549   -7.3552 C   0  0  0  0  0  0  0  0  0  0  0  0
   24.5340  -31.2585   -8.5185 N   0  0  0  0  0  0  0  0  0  0  0  0
   25.6730  -31.9576   -8.3267 C   0  0  0  0  0  0  0  0  0  0  0  0
   26.7044  -32.2544   -9.1924 C   0  0  0  0  0  0  0  0  0  0  0  0
   27.7848  -32.9900   -8.7794 C   0  0  0  0  0  0  0  0  0  0  0  0
   27.8440  -33.4427   -7.4754 C   0  0  0  0  0  0  0  0  0  0  0  0
   26.8128  -33.1428   -6.6194 C   0  0  0  0  0  0  0  0  0  0  0  0
   25.7114  -32.3941   -7.0363 C   0  0  0  0  0  0  0  0  0  0  0  0
   23.4780  -33.7806   -3.2681 C   0  0  0  0  0  0  0  0  0  0  0  0
   22.8128  -33.0206   -2.4694 O   0  0  0  0  0  0  0  0  0  0  0  0
   24.1647  -34.8675   -2.6686 N   0  0  0  0  0  0  0  0  0  0  0  0
   23.9454  -35.1268   -1.2404 C   0  0  1  0  0  0  0  0  0  0  0  0
   23.0932  -36.4004   -1.1213 C   0  0  0  0  0  0  0  0  0  0  0  0
   22.8975  -36.7081    0.3031 C   0  0  0  0  0  0  0  0  0  0  0  0
   21.8120  -36.1723    1.0025 C   0  0  0  0  0  0  0  0  0  0  0  0
   21.5852  -36.4694    2.3237 C   0  0  0  0  0  0  0  0  0  0  0  0
   22.4287  -37.3160    3.0170 C   0  0  0  0  0  0  0  0  0  0  0  0
   23.5108  -37.8519    2.3249 C   0  0  0  0  0  0  0  0  0  0  0  0
   23.7374  -37.5546    1.0026 C   0  0  0  0  0  0  0  0  0  0  0  0
   25.2062  -35.3683   -0.5243 C   0  0  0  0  0  0  0  0  0  0  0  0
   26.1307  -36.0325   -1.0270 O   0  0  0  0  0  0  0  0  0  0  0  0
   25.3775  -34.8476    0.7378 O   0  0  0  0  0  0  0  0  0  0  0  0
  1  2  1  0
  3  2  1  0
  3  4  1  6
  5  6  2  0
  5  3  1  0
  7  5  1  0
  8  7  1  0
  8  9  1  1
 10  9  1  0
 11 10  2  0
 12 13  1  0
 12 11  1  0
 13 18  2  0
 14 13  1  0
 14 15  2  0
 15 16  1  0
 16 17  2  0
 18 10  1  0
 18 17  1  0
 19  8  1  0
 19 21  1  0
 20 19  2  0
 22 21  1  0
 22 30  1  0
 22 23  1  6
 24 23  1  0
 25 24  2  0
 26 25  1  0
 27 26  2  0
 27 28  1  0
 28 29  2  0
 29 24  1  0
 30 31  2  0
 30 32  1  0
M  END
$$$$
