SWF.pdb
     RDKit          3D

 32 34  0  0  1  0  0  0  0  0999 V2000
   24.4021  -24.3826  -17.7627 O   0  0  0  0  0  0  0  0  0  0  0  0
   25.6350  -23.8653  -18.0914 C   0  0  0  0  0  0  0  0  0  0  0  0
   26.5970  -24.0074  -16.9591 C   0  0  2  0  0  0  0  0  0  0  0  0
   26.7973  -25.3440  -16.4989 N   0  0  0  0  0  0  0  0  0  0  0  0
   26.0871  -23.1758  -15.8192 C   0  0  0  0  0  0  0  0  0  0  0  0
   25.8739  -23.7728  -14.7385 O   0  0  0  0  0  0  0  0  0  0  0  0
   25.8676  -21.8085  -15.9756 N   0  0  0  0  0  0  0  0  0  0  0  0
   25.6941  -20.9668  -14.7762 C   0  0  1  0  0  0  0  0  0  0  0  0
   26.1357  -19.6016  -15.1458 C   0  0  0  0  0  0  0  0  0  0  0  0
   27.5683  -19.3503  -15.2318 C   0  0  0  0  0  0  0  0  0  0  0  0
   28.5736  -19.7437  -14.3751 C   0  0  0  0  0  0  0  0  0  0  0  0
   29.7549  -19.2755  -14.8164 N   0  0  0  0  0  0  0  0  0  0  0  0
   29.5204  -18.5827  -15.9513 C   0  0  0  0  0  0  0  0  0  0  0  0
   30.3833  -17.9103  -16.7906 C   0  0  0  0  0  0  0  0  0  0  0  0
   29.9229  -17.2653  -17.9090 C   0  0  0  0  0  0  0  0  0  0  0  0
   28.5730  -17.2875  -18.2026 C   0  0  0  0  0  0  0  0  0  0  0  0
   27.7201  -17.9595  -17.3617 C   0  0  0  0  0  0  0  0  0  0  0  0
   28.1854  -18.6173  -16.2222 C   0  0  0  0  0  0  0  0  0  0  0  0
   24.2374  -20.9942  -14.4737 C   0  0  0  0  0  0  0  0  0  0  0  0
   23.3964  -21.2728  -15.4080 O   0  0  0  0  0  0  0  0  0  0  0  0
   23.6848  -20.7339  -13.1933 N   0  0  0  0  0  0  0  0  0  0  0  0
   22.2382  -20.9053  -13.0117 C   0  0  1  0  0  0  0  0  0  0  0  0
   22.0259  -21.9588  -11.9127 C   0  0  0  0  0  0  0  0  0  0  0  0
   22.7402  -21.5302  -10.7012 C   0  0  0  0  0  0  0  0  0  0  0  0
   24.1321  -21.4000  -10.7065 C   0  0  0  0  0  0  0  0  0  0  0  0
   24.8224  -20.9692   -9.6005 C   0  0  0  0  0  0  0  0  0  0  0  0
   24.1613  -20.6457   -8.4312 C   0  0  0  0  0  0  0  0  0  0  0  0
   22.7754  -20.7738   -8.4211 C   0  0  0  0  0  0  0  0  0  0  0  0
   22.0849  -21.2047   -9.5282 C   0  0  0  0  0  0  0  0  0  0  0  0
   21.5878  -19.6642  -12.5678 C   0  0  0  0  0  0  0  0  0  0  0  0
   22.2438  -18.6551  -12.2516 O   0  0  0  0  0  0  0  0  0  0  0  0
   20.2147  -19.6077  -12.4980 O   0  0  0  0  0  0  0  0  0  0  0  0
  1  2  1  0
  3  2  1  0
  3  4  1  1
  5  6  2  0
  5  3  1  0
  7  5  1  0
  8  7  1  0
  8  9  1  6
 10  9  1  0
 11 10  2  0
 12 13  1  0
 12 11  1  0
 13 18  2  0
 14 13  1  0
 14 15  2  0
 15 16  1  0
 16 17  2  0
 18 10  1  0
 18 17  1  0
 19  8  1  0
 19 21  1  0
 20 19  2  0
 22 21  1  0
 22 30  1  0
 22 23  1  1
 24 23  1  0
 25 24  2  0
 26 25  1  0
 27 26  2  0
 27 28  1  0
 28 29  2  0
 29 24  1  0
 30 31  2  0
 30 32  1  0
M  END
$$$$
