SWF.pdb
     RDKit          3D

 32 34  0  0  1  0  0  0  0  0999 V2000
   26.1960  -20.4341  -16.4893 O   0  0  0  0  0  0  0  0  0  0  0  0
   27.4072  -20.1552  -15.8968 C   0  0  0  0  0  0  0  0  0  0  0  0
   27.9178  -21.3335  -15.1362 C   0  0  2  0  0  0  0  0  0  0  0  0
   28.1225  -22.5135  -15.9135 N   0  0  0  0  0  0  0  0  0  0  0  0
   26.9306  -21.6376  -14.0481 C   0  0  0  0  0  0  0  0  0  0  0  0
   26.2369  -22.6712  -14.1904 O   0  0  0  0  0  0  0  0  0  0  0  0
   26.8067  -20.7987  -12.9421 N   0  0  0  0  0  0  0  0  0  0  0  0
   25.7530  -21.0735  -11.9464 C   0  0  1  0  0  0  0  0  0  0  0  0
   26.1041  -20.3028  -10.7305 C   0  0  0  0  0  0  0  0  0  0  0  0
   27.2486  -20.7509   -9.9483 C   0  0  0  0  0  0  0  0  0  0  0  0
   28.2536  -21.6262  -10.2995 C   0  0  0  0  0  0  0  0  0  0  0  0
   29.1012  -21.7818   -9.2668 N   0  0  0  0  0  0  0  0  0  0  0  0
   28.6517  -21.0140   -8.2513 C   0  0  0  0  0  0  0  0  0  0  0  0
   29.1529  -20.8152   -6.9822 C   0  0  0  0  0  0  0  0  0  0  0  0
   28.5265  -19.9759   -6.0978 C   0  0  0  0  0  0  0  0  0  0  0  0
   27.3741  -19.3171   -6.4815 C   0  0  0  0  0  0  0  0  0  0  0  0
   26.8814  -19.5204   -7.7472 C   0  0  0  0  0  0  0  0  0  0  0  0
   27.5166  -20.3741   -8.6501 C   0  0  0  0  0  0  0  0  0  0  0  0
   24.4890  -20.5725  -12.5508 C   0  0  0  0  0  0  0  0  0  0  0  0
   24.5086  -19.5186  -13.2902 O   0  0  0  0  0  0  0  0  0  0  0  0
   23.2231  -21.1882  -12.3746 N   0  0  0  0  0  0  0  0  0  0  0  0
   22.0852  -20.6731  -13.1459 C   0  0  1  0  0  0  0  0  0  0  0  0
   21.2163  -21.8729  -13.5561 C   0  0  0  0  0  0  0  0  0  0  0  0
   20.4516  -22.3265  -12.3851 C   0  0  0  0  0  0  0  0  0  0  0  0
   21.0831  -23.0256  -11.3522 C   0  0  0  0  0  0  0  0  0  0  0  0
   20.4016  -23.4315  -10.2314 C   0  0  0  0  0  0  0  0  0  0  0  0
   19.0548  -23.1619  -10.0817 C   0  0  0  0  0  0  0  0  0  0  0  0
   18.4217  -22.4662  -11.1075 C   0  0  0  0  0  0  0  0  0  0  0  0
   19.1041  -22.0598  -12.2289 C   0  0  0  0  0  0  0  0  0  0  0  0
   21.2442  -19.7683  -12.3494 C   0  0  0  0  0  0  0  0  0  0  0  0
   20.2439  -19.2062  -12.8312 O   0  0  0  0  0  0  0  0  0  0  0  0
   21.5644  -19.5314  -11.0323 O   0  0  0  0  0  0  0  0  0  0  0  0
  1  2  1  0
  3  2  1  0
  3  4  1  6
  5  6  2  0
  5  3  1  0
  7  5  1  0
  8  7  1  0
  8  9  1  1
 10  9  1  0
 11 10  2  0
 12 13  1  0
 12 11  1  0
 13 18  2  0
 14 13  1  0
 14 15  2  0
 15 16  1  0
 16 17  2  0
 18 10  1  0
 18 17  1  0
 19  8  1  0
 19 21  1  0
 20 19  2  0
 22 21  1  0
 22 30  1  0
 22 23  1  1
 24 23  1  0
 25 24  2  0
 26 25  1  0
 27 26  2  0
 27 28  1  0
 28 29  2  0
 29 24  1  0
 30 31  2  0
 30 32  1  0
M  END
$$$$
