SWF.pdb
     RDKit          3D

 32 34  0  0  1  0  0  0  0  0999 V2000
   28.7600  -23.3254  -14.9615 O   0  0  0  0  0  0  0  0  0  0  0  0
   27.7055  -22.7965  -15.6715 C   0  0  0  0  0  0  0  0  0  0  0  0
   27.8582  -21.3216  -15.8422 C   0  0  2  0  0  0  0  0  0  0  0  0
   29.0575  -20.9088  -16.4977 N   0  0  0  0  0  0  0  0  0  0  0  0
   27.8139  -20.6969  -14.4788 C   0  0  0  0  0  0  0  0  0  0  0  0
   28.8922  -20.2390  -14.0343 O   0  0  0  0  0  0  0  0  0  0  0  0
   26.6221  -20.6390  -13.7587 N   0  0  0  0  0  0  0  0  0  0  0  0
   26.5424  -19.7685  -12.5700 C   0  0  1  0  0  0  0  0  0  0  0  0
   25.3298  -18.9329  -12.7341 C   0  0  0  0  0  0  0  0  0  0  0  0
   25.3781  -17.8477  -13.7051 C   0  0  0  0  0  0  0  0  0  0  0  0
   26.2852  -16.8157  -13.8123 C   0  0  0  0  0  0  0  0  0  0  0  0
   25.9448  -16.0173  -14.8398 N   0  0  0  0  0  0  0  0  0  0  0  0
   24.8249  -16.5254  -15.3972 C   0  0  0  0  0  0  0  0  0  0  0  0
   24.0757  -16.0907  -16.4701 C   0  0  0  0  0  0  0  0  0  0  0  0
   22.9567  -16.7718  -16.8735 C   0  0  0  0  0  0  0  0  0  0  0  0
   22.5708  -17.9125  -16.1961 C   0  0  0  0  0  0  0  0  0  0  0  0
   23.3223  -18.3388  -15.1286 C   0  0  0  0  0  0  0  0  0  0  0  0
   24.4622  -17.6480  -14.7151 C   0  0  0  0  0  0  0  0  0  0  0  0
   26.4055  -20.6874  -11.4077 C   0  0  0  0  0  0  0  0  0  0  0  0
   25.9542  -21.8800  -11.5864 O   0  0  0  0  0  0  0  0  0  0  0  0
   26.7493  -20.3430  -10.0752 N   0  0  0  0  0  0  0  0  0  0  0  0
   26.5326  -21.3407   -9.0204 C   0  0  1  0  0  0  0  0  0  0  0  0
   27.8454  -21.4827   -8.2335 C   0  0  0  0  0  0  0  0  0  0  0  0
   27.8106  -20.5660   -7.0846 C   0  0  0  0  0  0  0  0  0  0  0  0
   27.7414  -19.1836   -7.2813 C   0  0  0  0  0  0  0  0  0  0  0  0
   27.6734  -18.3057   -6.2277 C   0  0  0  0  0  0  0  0  0  0  0  0
   27.6709  -18.7598   -4.9229 C   0  0  0  0  0  0  0  0  0  0  0  0
   27.7397  -20.1354   -4.7220 C   0  0  0  0  0  0  0  0  0  0  0  0
   27.8075  -21.0137   -5.7766 C   0  0  0  0  0  0  0  0  0  0  0  0
   25.4903  -20.9225   -8.0722 C   0  0  0  0  0  0  0  0  0  0  0  0
   25.1224  -21.6541   -7.1351 O   0  0  0  0  0  0  0  0  0  0  0  0
   24.9001  -19.6880   -8.2171 O   0  0  0  0  0  0  0  0  0  0  0  0
  1  2  1  0
  3  2  1  0
  3  4  1  1
  5  6  2  0
  5  3  1  0
  7  5  1  0
  8  7  1  0
  8  9  1  6
 10  9  1  0
 11 10  2  0
 12 13  1  0
 12 11  1  0
 13 18  2  0
 14 13  1  0
 14 15  2  0
 15 16  1  0
 16 17  2  0
 18 10  1  0
 18 17  1  0
 19  8  1  0
 19 21  1  0
 20 19  2  0
 22 21  1  0
 22 30  1  0
 22 23  1  1
 24 23  1  0
 25 24  2  0
 26 25  1  0
 27 26  2  0
 27 28  1  0
 28 29  2  0
 29 24  1  0
 30 31  2  0
 30 32  1  0
M  END
$$$$
