DYM.pdb
     RDKit          3D

 29 29  0  0  1  0  0  0  0  0999 V2000
   26.5607  -19.5541  -18.3222 N   0  0  0  0  0  0  0  0  0  0  0  0
   27.4587  -19.4176  -17.1793 C   0  0  1  0  0  0  0  0  0  0  0  0
   28.4087  -18.2903  -17.4955 C   0  0  0  0  0  0  0  0  0  0  0  0
   29.4105  -18.7424  -18.4835 C   0  0  0  0  0  0  0  0  0  0  0  0
   29.4099  -19.8932  -19.0184 O   0  0  0  0  0  0  0  0  0  0  0  0
   26.6795  -19.1993  -15.9319 C   0  0  0  0  0  0  0  0  0  0  0  0
   26.5066  -18.0651  -15.4214 O   0  0  0  0  0  0  0  0  0  0  0  0
   30.4165  -17.8614  -18.8545 O   0  0  0  0  0  0  0  0  0  0  0  0
   20.1754  -19.9543  -10.1149 O   0  0  0  0  0  0  0  0  0  0  0  0
   21.0737  -20.1084  -11.1873 C   0  0  0  0  0  0  0  0  0  0  0  0
   21.2207  -19.1375  -12.1466 C   0  0  0  0  0  0  0  0  0  0  0  0
   22.1270  -19.3379  -13.1933 C   0  0  0  0  0  0  0  0  0  0  0  0
   22.8724  -20.4912  -13.2765 C   0  0  0  0  0  0  0  0  0  0  0  0
   23.8119  -20.7012  -14.3629 C   0  0  0  0  0  0  0  0  0  0  0  0
   25.1902  -20.1265  -14.1031 C   0  0  2  0  0  0  0  0  0  0  0  0
   26.0688  -20.2877  -15.2257 N   0  0  0  0  0  0  0  0  0  0  0  0
   25.7904  -20.7328  -12.8682 C   0  0  0  0  0  0  0  0  0  0  0  0
   26.2501  -21.9010  -12.8772 O   0  0  0  0  0  0  0  0  0  0  0  0
   22.7102  -21.4497  -12.3069 C   0  0  0  0  0  0  0  0  0  0  0  0
   21.8145  -21.2675  -11.2600 C   0  0  0  0  0  0  0  0  0  0  0  0
   28.7266  -19.2280   -5.5943 C   0  0  0  0  0  0  0  0  0  0  0  0
   28.1735  -18.6753   -7.2106 S   0  0  0  0  0  0  0  0  0  0  0  0
   27.3519  -19.9333   -8.1567 C   0  0  0  0  0  0  0  0  0  0  0  0
   26.9233  -19.5928   -9.5363 C   0  0  0  0  0  0  0  0  0  0  0  0
   26.2977  -20.6275  -10.3887 C   0  0  2  0  0  0  0  0  0  0  0  0
   25.8567  -20.0129  -11.6668 N   0  0  0  0  0  0  0  0  0  0  0  0
   25.1720  -21.3340   -9.8069 C   0  0  0  0  0  0  0  0  0  0  0  0
   25.4000  -22.6564   -9.3305 O   0  0  0  0  0  0  0  0  0  0  0  0
   23.9964  -20.9155   -9.6686 O   0  0  0  0  0  0  0  0  0  0  0  0
  2  1  1  6
  2  3  1  0
  3  4  1  0
  4  5  2  0
  4  8  1  0
  6  7  2  0
  6  2  1  0
  9 10  1  0
 10 11  2  0
 11 12  1  0
 13 12  2  0
 13 14  1  0
 15 14  1  6
 15 16  1  0
 16  6  1  0
 17 18  2  0
 17 15  1  0
 19 13  1  0
 20 10  1  0
 20 19  2  0
 21 22  1  0
 23 22  1  0
 24 23  1  0
 25 24  1  1
 25 26  1  0
 26 17  1  0
 27 25  1  0
 28 27  1  0
 29 27  2  0
M  END
$$$$
