DYM.pdb
     RDKit          3D

 29 29  0  0  1  0  0  0  0  0999 V2000
   27.5890  -19.4406  -19.5682 N   0  0  0  0  0  0  0  0  0  0  0  0
   27.2892  -18.5737  -18.4325 C   0  0  1  0  0  0  0  0  0  0  0  0
   26.2134  -17.6162  -18.8789 C   0  0  0  0  0  0  0  0  0  0  0  0
   26.8256  -16.3436  -19.3147 C   0  0  0  0  0  0  0  0  0  0  0  0
   26.4058  -15.1983  -18.9649 O   0  0  0  0  0  0  0  0  0  0  0  0
   26.9009  -19.3863  -17.2493 C   0  0  0  0  0  0  0  0  0  0  0  0
   26.3203  -20.4960  -17.3406 O   0  0  0  0  0  0  0  0  0  0  0  0
   27.9267  -16.3951  -20.1577 O   0  0  0  0  0  0  0  0  0  0  0  0
   24.9617  -20.9745   -8.7087 O   0  0  0  0  0  0  0  0  0  0  0  0
   25.5732  -20.5452   -9.9014 C   0  0  0  0  0  0  0  0  0  0  0  0
   26.4075  -21.3671  -10.6174 C   0  0  0  0  0  0  0  0  0  0  0  0
   26.9914  -20.8937  -11.7971 C   0  0  0  0  0  0  0  0  0  0  0  0
   26.7432  -19.6188  -12.2507 C   0  0  0  0  0  0  0  0  0  0  0  0
   27.3498  -19.1257  -13.4738 C   0  0  0  0  0  0  0  0  0  0  0  0
   26.6365  -19.5690  -14.7356 C   0  0  2  0  0  0  0  0  0  0  0  0
   27.1703  -18.9449  -15.9119 N   0  0  0  0  0  0  0  0  0  0  0  0
   25.1612  -19.3167  -14.6240 C   0  0  0  0  0  0  0  0  0  0  0  0
   24.6867  -18.1652  -14.7822 O   0  0  0  0  0  0  0  0  0  0  0  0
   25.9060  -18.8128  -11.5198 C   0  0  0  0  0  0  0  0  0  0  0  0
   25.3171  -19.2665  -10.3454 C   0  0  0  0  0  0  0  0  0  0  0  0
   18.0145  -19.9733  -16.8812 C   0  0  0  0  0  0  0  0  0  0  0  0
   19.7791  -20.2955  -16.9582 S   0  0  0  0  0  0  0  0  0  0  0  0
   20.6056  -20.1415  -15.3943 C   0  0  0  0  0  0  0  0  0  0  0  0
   22.0861  -20.2465  -15.3804 C   0  0  0  0  0  0  0  0  0  0  0  0
   22.8198  -20.1298  -14.1012 C   0  0  2  0  0  0  0  0  0  0  0  0
   24.2676  -20.3593  -14.3405 N   0  0  0  0  0  0  0  0  0  0  0  0
   22.3849  -21.0145  -13.0368 C   0  0  0  0  0  0  0  0  0  0  0  0
   21.3893  -20.5282  -12.1424 O   0  0  0  0  0  0  0  0  0  0  0  0
   22.7861  -22.1806  -12.8009 O   0  0  0  0  0  0  0  0  0  0  0  0
  2  1  1  6
  2  3  1  0
  3  4  1  0
  4  5  2  0
  4  8  1  0
  6  7  2  0
  6  2  1  0
  9 10  1  0
 10 11  2  0
 11 12  1  0
 13 12  2  0
 13 14  1  0
 15 14  1  1
 15 16  1  0
 16  6  1  0
 17 18  2  0
 17 15  1  0
 19 13  1  0
 20 10  1  0
 20 19  2  0
 21 22  1  0
 23 22  1  0
 24 23  1  0
 25 24  1  6
 25 26  1  0
 26 17  1  0
 27 25  1  0
 28 27  1  0
 29 27  2  0
M  END
$$$$
