DYM.pdb
     RDKit          3D

 29 29  0  0  1  0  0  0  0  0999 V2000
   20.5189  -20.4597  -11.0909 N   0  0  0  0  0  0  0  0  0  0  0  0
   21.3386  -21.0205  -12.1610 C   0  0  1  0  0  0  0  0  0  0  0  0
   20.6518  -20.6920  -13.4625 C   0  0  0  0  0  0  0  0  0  0  0  0
   20.3391  -21.9388  -14.1919 C   0  0  0  0  0  0  0  0  0  0  0  0
   20.7869  -23.0812  -13.8681 O   0  0  0  0  0  0  0  0  0  0  0  0
   22.7273  -20.4956  -12.0787 C   0  0  0  0  0  0  0  0  0  0  0  0
   22.9942  -19.2703  -12.0131 O   0  0  0  0  0  0  0  0  0  0  0  0
   19.5060  -21.8649  -15.2992 O   0  0  0  0  0  0  0  0  0  0  0  0
   27.7669  -19.1981   -6.3527 O   0  0  0  0  0  0  0  0  0  0  0  0
   27.3731  -19.8531   -7.5345 C   0  0  0  0  0  0  0  0  0  0  0  0
   28.2944  -20.3145   -8.4414 C   0  0  0  0  0  0  0  0  0  0  0  0
   27.8526  -20.9593   -9.6017 C   0  0  0  0  0  0  0  0  0  0  0  0
   26.5110  -21.1381   -9.8479 C   0  0  0  0  0  0  0  0  0  0  0  0
   26.0511  -21.8054  -11.0522 C   0  0  0  0  0  0  0  0  0  0  0  0
   25.2225  -20.9236  -11.9651 C   0  0  2  0  0  0  0  0  0  0  0  0
   23.8632  -21.3707  -12.0688 N   0  0  0  0  0  0  0  0  0  0  0  0
   25.8548  -20.8284  -13.3230 C   0  0  0  0  0  0  0  0  0  0  0  0
   25.7405  -21.7587  -14.1581 O   0  0  0  0  0  0  0  0  0  0  0  0
   25.6060  -20.6691   -8.9282 C   0  0  0  0  0  0  0  0  0  0  0  0
   26.0269  -20.0261   -7.7701 C   0  0  0  0  0  0  0  0  0  0  0  0
   29.7463  -15.7066  -18.1579 C   0  0  0  0  0  0  0  0  0  0  0  0
   28.9079  -16.0670  -16.6116 S   0  0  0  0  0  0  0  0  0  0  0  0
   28.3819  -17.7558  -16.4572 C   0  0  0  0  0  0  0  0  0  0  0  0
   27.7105  -18.1592  -15.1964 C   0  0  0  0  0  0  0  0  0  0  0  0
   27.1329  -19.5154  -15.0720 C   0  0  2  0  0  0  0  0  0  0  0  0
   26.5920  -19.6971  -13.7008 N   0  0  0  0  0  0  0  0  0  0  0  0
   28.0316  -20.6173  -15.3604 C   0  0  0  0  0  0  0  0  0  0  0  0
   28.7990  -21.1404  -14.2811 O   0  0  0  0  0  0  0  0  0  0  0  0
   28.2209  -21.1788  -16.4673 O   0  0  0  0  0  0  0  0  0  0  0  0
  2  1  1  1
  2  3  1  0
  3  4  1  0
  4  5  2  0
  4  8  1  0
  6  7  2  0
  6  2  1  0
  9 10  1  0
 10 11  2  0
 11 12  1  0
 13 12  2  0
 13 14  1  0
 15 14  1  1
 15 16  1  0
 16  6  1  0
 17 18  2  0
 17 15  1  0
 19 13  1  0
 20 10  1  0
 20 19  2  0
 21 22  1  0
 23 22  1  0
 24 23  1  0
 25 24  1  1
 25 26  1  0
 26 17  1  0
 27 25  1  0
 28 27  1  0
 29 27  2  0
M  END
$$$$
