DYM.pdb
     RDKit          3D

 29 29  0  0  1  0  0  0  0  0999 V2000
   16.9607  -12.0974  -16.1325 N   0  0  0  0  0  0  0  0  0  0  0  0
   18.2319  -11.4386  -16.4176 C   0  0  1  0  0  0  0  0  0  0  0  0
   18.4472  -11.5191  -17.9078 C   0  0  0  0  0  0  0  0  0  0  0  0
   18.7242  -12.9172  -18.2986 C   0  0  0  0  0  0  0  0  0  0  0  0
   19.4488  -13.7116  -17.6246 O   0  0  0  0  0  0  0  0  0  0  0  0
   18.2210  -10.0455  -15.8982 C   0  0  0  0  0  0  0  0  0  0  0  0
   17.3460   -9.2024  -16.2155 O   0  0  0  0  0  0  0  0  0  0  0  0
   18.1620  -13.3986  -19.4724 O   0  0  0  0  0  0  0  0  0  0  0  0
   14.0478   -9.7313  -10.9833 O   0  0  0  0  0  0  0  0  0  0  0  0
   15.3037   -9.3341  -11.4790 C   0  0  0  0  0  0  0  0  0  0  0  0
   15.4691   -8.1475  -12.1491 C   0  0  0  0  0  0  0  0  0  0  0  0
   16.7380   -7.7973  -12.6227 C   0  0  0  0  0  0  0  0  0  0  0  0
   17.8216   -8.6224  -12.4279 C   0  0  0  0  0  0  0  0  0  0  0  0
   19.1384   -8.2611  -12.9204 C   0  0  0  0  0  0  0  0  0  0  0  0
   19.2477   -8.2514  -14.4321 C   0  0  2  0  0  0  0  0  0  0  0  0
   19.2245   -9.5733  -14.9892 N   0  0  0  0  0  0  0  0  0  0  0  0
   20.4804   -7.5138  -14.8672 C   0  0  0  0  0  0  0  0  0  0  0  0
   21.6059   -8.0699  -14.8576 O   0  0  0  0  0  0  0  0  0  0  0  0
   17.6346   -9.8046  -11.7554 C   0  0  0  0  0  0  0  0  0  0  0  0
   16.3811  -10.1685  -11.2779 C   0  0  0  0  0  0  0  0  0  0  0  0
   22.9661   -1.4652  -19.4163 C   0  0  0  0  0  0  0  0  0  0  0  0
   21.6824   -2.5611  -18.8044 S   0  0  0  0  0  0  0  0  0  0  0  0
   22.1912   -3.5665  -17.4322 C   0  0  0  0  0  0  0  0  0  0  0  0
   21.2075   -4.5297  -16.8774 C   0  0  0  0  0  0  0  0  0  0  0  0
   21.6037   -5.4327  -15.7747 C   0  0  2  0  0  0  0  0  0  0  0  0
   20.4127   -6.1814  -15.2984 N   0  0  0  0  0  0  0  0  0  0  0  0
   22.2353   -4.8003  -14.6319 C   0  0  0  0  0  0  0  0  0  0  0  0
   23.6201   -4.4853  -14.7360 O   0  0  0  0  0  0  0  0  0  0  0  0
   21.7012   -4.4897  -13.5389 O   0  0  0  0  0  0  0  0  0  0  0  0
  2  1  1  6
  2  3  1  0
  3  4  1  0
  4  5  2  0
  4  8  1  0
  6  7  2  0
  6  2  1  0
  9 10  1  0
 10 11  2  0
 11 12  1  0
 13 12  2  0
 13 14  1  0
 15 14  1  1
 15 16  1  0
 16  6  1  0
 17 18  2  0
 17 15  1  0
 19 13  1  0
 20 10  1  0
 20 19  2  0
 21 22  1  0
 23 22  1  0
 24 23  1  0
 25 24  1  6
 25 26  1  0
 26 17  1  0
 27 25  1  0
 28 27  1  0
 29 27  2  0
M  END
$$$$
