DYM.pdb
     RDKit          3D

 29 29  0  0  1  0  0  0  0  0999 V2000
   19.4555  -19.2620  -13.4247 N   0  0  0  0  0  0  0  0  0  0  0  0
   20.2060  -20.4195  -12.9471 C   0  0  1  0  0  0  0  0  0  0  0  0
   19.9388  -21.5481  -13.9106 C   0  0  0  0  0  0  0  0  0  0  0  0
   18.6804  -22.2312  -13.5445 C   0  0  0  0  0  0  0  0  0  0  0  0
   17.5862  -21.6292  -13.3195 O   0  0  0  0  0  0  0  0  0  0  0  0
   21.6488  -20.0838  -12.8184 C   0  0  0  0  0  0  0  0  0  0  0  0
   22.2167  -19.2169  -13.5274 O   0  0  0  0  0  0  0  0  0  0  0  0
   18.6868  -23.6148  -13.4380 O   0  0  0  0  0  0  0  0  0  0  0  0
   30.1153  -20.7157  -10.1939 O   0  0  0  0  0  0  0  0  0  0  0  0
   28.7135  -20.8217  -10.2603 C   0  0  0  0  0  0  0  0  0  0  0  0
   27.8974  -20.0810   -9.4420 C   0  0  0  0  0  0  0  0  0  0  0  0
   26.5095  -20.2221   -9.5464 C   0  0  0  0  0  0  0  0  0  0  0  0
   25.9501  -21.0904  -10.4552 C   0  0  0  0  0  0  0  0  0  0  0  0
   24.5102  -21.2390  -10.5633 C   0  0  0  0  0  0  0  0  0  0  0  0
   23.9083  -20.5350  -11.7631 C   0  0  2  0  0  0  0  0  0  0  0  0
   22.4917  -20.7400  -11.8618 N   0  0  0  0  0  0  0  0  0  0  0  0
   24.5957  -20.9642  -13.0264 C   0  0  0  0  0  0  0  0  0  0  0  0
   24.4456  -22.1233  -13.4846 O   0  0  0  0  0  0  0  0  0  0  0  0
   26.7840  -21.8218  -11.2641 C   0  0  0  0  0  0  0  0  0  0  0  0
   28.1651  -21.6945  -11.1741 C   0  0  0  0  0  0  0  0  0  0  0  0
   23.7438  -17.9734  -18.2308 C   0  0  0  0  0  0  0  0  0  0  0  0
   25.1728  -18.9059  -18.7894 S   0  0  0  0  0  0  0  0  0  0  0  0
   25.9681  -19.8383  -17.5047 C   0  0  0  0  0  0  0  0  0  0  0  0
   25.4496  -19.6929  -16.1215 C   0  0  0  0  0  0  0  0  0  0  0  0
   26.0757  -20.4529  -15.0175 C   0  0  2  0  0  0  0  0  0  0  0  0
   25.4262  -20.0835  -13.7340 N   0  0  0  0  0  0  0  0  0  0  0  0
   27.5099  -20.2915  -14.8690 C   0  0  0  0  0  0  0  0  0  0  0  0
   28.3492  -21.2547  -15.4979 O   0  0  0  0  0  0  0  0  0  0  0  0
   28.1160  -19.3889  -14.2411 O   0  0  0  0  0  0  0  0  0  0  0  0
  2  1  1  6
  2  3  1  0
  3  4  1  0
  4  5  2  0
  4  8  1  0
  6  7  2  0
  6  2  1  0
  9 10  1  0
 10 11  2  0
 11 12  1  0
 13 12  2  0
 13 14  1  0
 15 14  1  1
 15 16  1  0
 16  6  1  0
 17 18  2  0
 17 15  1  0
 19 13  1  0
 20 10  1  0
 20 19  2  0
 21 22  1  0
 23 22  1  0
 24 23  1  0
 25 24  1  6
 25 26  1  0
 26 17  1  0
 27 25  1  0
 28 27  1  0
 29 27  2  0
M  END
$$$$
