DYM.pdb
     RDKit          3D

 29 29  0  0  1  0  0  0  0  0999 V2000
   27.4952  -19.1104  -14.8332 N   0  0  0  0  0  0  0  0  0  0  0  0
   26.4342  -19.7918  -15.5688 C   0  0  1  0  0  0  0  0  0  0  0  0
   27.1018  -20.6603  -16.6049 C   0  0  0  0  0  0  0  0  0  0  0  0
   27.9128  -19.8223  -17.5128 C   0  0  0  0  0  0  0  0  0  0  0  0
   29.1211  -20.0670  -17.8137 O   0  0  0  0  0  0  0  0  0  0  0  0
   25.5630  -20.5529  -14.6347 C   0  0  0  0  0  0  0  0  0  0  0  0
   24.9365  -21.5879  -14.9712 O   0  0  0  0  0  0  0  0  0  0  0  0
   27.3252  -18.6978  -18.0749 O   0  0  0  0  0  0  0  0  0  0  0  0
   30.2700  -21.6983   -9.6898 O   0  0  0  0  0  0  0  0  0  0  0  0
   28.9222  -21.3938   -9.9572 C   0  0  0  0  0  0  0  0  0  0  0  0
   28.0703  -20.9734   -8.9663 C   0  0  0  0  0  0  0  0  0  0  0  0
   26.7390  -20.6829   -9.2828 C   0  0  0  0  0  0  0  0  0  0  0  0
   26.2703  -20.8119  -10.5699 C   0  0  0  0  0  0  0  0  0  0  0  0
   24.8887  -20.5125  -10.8993 C   0  0  0  0  0  0  0  0  0  0  0  0
   24.5215  -20.8121  -12.3390 C   0  0  2  0  0  0  0  0  0  0  0  0
   25.3831  -20.1446  -13.2719 N   0  0  0  0  0  0  0  0  0  0  0  0
   23.0851  -20.4641  -12.6005 C   0  0  0  0  0  0  0  0  0  0  0  0
   22.7528  -19.3068  -12.9560 O   0  0  0  0  0  0  0  0  0  0  0  0
   27.1386  -21.2339  -11.5460 C   0  0  0  0  0  0  0  0  0  0  0  0
   28.4645  -21.5269  -11.2497 C   0  0  0  0  0  0  0  0  0  0  0  0
   17.0324  -20.6839  -16.9065 C   0  0  0  0  0  0  0  0  0  0  0  0
   18.7031  -21.1048  -16.4013 S   0  0  0  0  0  0  0  0  0  0  0  0
   18.9925  -20.9253  -14.6587 C   0  0  0  0  0  0  0  0  0  0  0  0
   20.3431  -21.2618  -14.1431 C   0  0  0  0  0  0  0  0  0  0  0  0
   20.6384  -21.1120  -12.7013 C   0  0  2  0  0  0  0  0  0  0  0  0
   22.0703  -21.4209  -12.4565 N   0  0  0  0  0  0  0  0  0  0  0  0
   19.8348  -21.9181  -11.8015 C   0  0  0  0  0  0  0  0  0  0  0  0
   18.5034  -21.4853  -11.5415 O   0  0  0  0  0  0  0  0  0  0  0  0
   20.1750  -22.9725  -11.2107 O   0  0  0  0  0  0  0  0  0  0  0  0
  2  1  1  1
  2  3  1  0
  3  4  1  0
  4  5  2  0
  4  8  1  0
  6  7  2  0
  6  2  1  0
  9 10  1  0
 10 11  2  0
 11 12  1  0
 13 12  2  0
 13 14  1  0
 15 14  1  1
 15 16  1  0
 16  6  1  0
 17 18  2  0
 17 15  1  0
 19 13  1  0
 20 10  1  0
 20 19  2  0
 21 22  1  0
 23 22  1  0
 24 23  1  0
 25 24  1  6
 25 26  1  0
 26 17  1  0
 27 25  1  0
 28 27  1  0
 29 27  2  0
M  END
$$$$
