DYM.pdb
     RDKit          3D

 29 29  0  0  1  0  0  0  0  0999 V2000
   27.9664  -21.8973  -19.0370 N   0  0  0  0  0  0  0  0  0  0  0  0
   28.4010  -21.1142  -17.8840 C   0  0  1  0  0  0  0  0  0  0  0  0
   28.7043  -19.7240  -18.3827 C   0  0  0  0  0  0  0  0  0  0  0  0
   29.9320  -19.7441  -19.2051 C   0  0  0  0  0  0  0  0  0  0  0  0
   29.9926  -19.3198  -20.3995 O   0  0  0  0  0  0  0  0  0  0  0  0
   27.3656  -21.1449  -16.8173 C   0  0  0  0  0  0  0  0  0  0  0  0
   26.1362  -21.0432  -17.0523 O   0  0  0  0  0  0  0  0  0  0  0  0
   31.0937  -20.2566  -18.6450 O   0  0  0  0  0  0  0  0  0  0  0  0
   23.9259  -20.8237   -8.6177 O   0  0  0  0  0  0  0  0  0  0  0  0
   24.7797  -20.9997   -9.7226 C   0  0  0  0  0  0  0  0  0  0  0  0
   24.5922  -22.0213  -10.6200 C   0  0  0  0  0  0  0  0  0  0  0  0
   25.4685  -22.1540  -11.7024 C   0  0  0  0  0  0  0  0  0  0  0  0
   26.5141  -21.2780  -11.8815 C   0  0  0  0  0  0  0  0  0  0  0  0
   27.4251  -21.4157  -13.0031 C   0  0  0  0  0  0  0  0  0  0  0  0
   26.7894  -21.1318  -14.3495 C   0  0  2  0  0  0  0  0  0  0  0  0
   27.7139  -21.2949  -15.4345 N   0  0  0  0  0  0  0  0  0  0  0  0
   26.1858  -19.7578  -14.3687 C   0  0  0  0  0  0  0  0  0  0  0  0
   26.8865  -18.7388  -14.1530 O   0  0  0  0  0  0  0  0  0  0  0  0
   26.6841  -20.2633  -10.9724 C   0  0  0  0  0  0  0  0  0  0  0  0
   25.8232  -20.1163   -9.8913 C   0  0  0  0  0  0  0  0  0  0  0  0
   27.2308  -15.0521  -16.7134 C   0  0  0  0  0  0  0  0  0  0  0  0
   25.4841  -15.0651  -17.1284 S   0  0  0  0  0  0  0  0  0  0  0  0
   24.4908  -16.0347  -16.0212 C   0  0  0  0  0  0  0  0  0  0  0  0
   24.9935  -17.3769  -15.6354 C   0  0  0  0  0  0  0  0  0  0  0  0
   24.2006  -18.2235  -14.7174 C   0  0  2  0  0  0  0  0  0  0  0  0
   24.8208  -19.5701  -14.6289 N   0  0  0  0  0  0  0  0  0  0  0  0
   22.7987  -18.3853  -15.0542 C   0  0  0  0  0  0  0  0  0  0  0  0
   22.3940  -19.6349  -15.6040 O   0  0  0  0  0  0  0  0  0  0  0  0
   21.8783  -17.5422  -14.9186 O   0  0  0  0  0  0  0  0  0  0  0  0
  2  1  1  6
  2  3  1  0
  3  4  1  0
  4  5  2  0
  4  8  1  0
  6  7  2  0
  6  2  1  0
  9 10  1  0
 10 11  2  0
 11 12  1  0
 13 12  2  0
 13 14  1  0
 15 14  1  1
 15 16  1  0
 16  6  1  0
 17 18  2  0
 17 15  1  0
 19 13  1  0
 20 10  1  0
 20 19  2  0
 21 22  1  0
 23 22  1  0
 24 23  1  0
 25 24  1  6
 25 26  1  0
 26 17  1  0
 27 25  1  0
 28 27  1  0
 29 27  2  0
M  END
$$$$
