DYM.pdb
     RDKit          3D

 29 29  0  0  1  0  0  0  0  0999 V2000
   27.2488  -22.1061  -15.7859 N   0  0  0  0  0  0  0  0  0  0  0  0
   27.5943  -20.7227  -15.4726 C   0  0  1  0  0  0  0  0  0  0  0  0
   27.3071  -19.9049  -16.7063 C   0  0  0  0  0  0  0  0  0  0  0  0
   28.3405  -20.1643  -17.7304 C   0  0  0  0  0  0  0  0  0  0  0  0
   28.5987  -21.3137  -18.2022 O   0  0  0  0  0  0  0  0  0  0  0  0
   26.8472  -20.2615  -14.2727 C   0  0  0  0  0  0  0  0  0  0  0  0
   26.8413  -19.0667  -13.8862 O   0  0  0  0  0  0  0  0  0  0  0  0
   29.0781  -19.0915  -18.2109 O   0  0  0  0  0  0  0  0  0  0  0  0
   20.8474  -18.0706  -16.2055 O   0  0  0  0  0  0  0  0  0  0  0  0
   21.5689  -18.8379  -15.2720 C   0  0  0  0  0  0  0  0  0  0  0  0
   21.4756  -18.6022  -13.9229 C   0  0  0  0  0  0  0  0  0  0  0  0
   22.2131  -19.3926  -13.0350 C   0  0  0  0  0  0  0  0  0  0  0  0
   23.0295  -20.4013  -13.4918 C   0  0  0  0  0  0  0  0  0  0  0  0
   23.7966  -21.2210  -12.5717 C   0  0  0  0  0  0  0  0  0  0  0  0
   25.2292  -20.7616  -12.3873 C   0  0  2  0  0  0  0  0  0  0  0  0
   26.0761  -21.1673  -13.4720 N   0  0  0  0  0  0  0  0  0  0  0  0
   25.7752  -21.2490  -11.0769 C   0  0  0  0  0  0  0  0  0  0  0  0
   25.9847  -22.4704  -10.8761 O   0  0  0  0  0  0  0  0  0  0  0  0
   23.1086  -20.6205  -14.8448 C   0  0  0  0  0  0  0  0  0  0  0  0
   22.3831  -19.8451  -15.7414 C   0  0  0  0  0  0  0  0  0  0  0  0
   28.1517  -18.9361   -3.7668 C   0  0  0  0  0  0  0  0  0  0  0  0
   28.0993  -18.7100   -5.5472 S   0  0  0  0  0  0  0  0  0  0  0  0
   27.0637  -19.8809   -6.3890 C   0  0  0  0  0  0  0  0  0  0  0  0
   26.9847  -19.7968   -7.8688 C   0  0  0  0  0  0  0  0  0  0  0  0
   26.1796  -20.7848   -8.6198 C   0  0  2  0  0  0  0  0  0  0  0  0
   26.0685  -20.3552  -10.0372 N   0  0  0  0  0  0  0  0  0  0  0  0
   24.8444  -21.0348   -8.1103 C   0  0  0  0  0  0  0  0  0  0  0  0
   24.7055  -22.0029   -7.0754 O   0  0  0  0  0  0  0  0  0  0  0  0
   23.7730  -20.4922   -8.4765 O   0  0  0  0  0  0  0  0  0  0  0  0
  2  1  1  6
  2  3  1  0
  3  4  1  0
  4  5  2  0
  4  8  1  0
  6  7  2  0
  6  2  1  0
  9 10  1  0
 10 11  2  0
 11 12  1  0
 13 12  2  0
 13 14  1  0
 15 14  1  6
 15 16  1  0
 16  6  1  0
 17 18  2  0
 17 15  1  0
 19 13  1  0
 20 10  1  0
 20 19  2  0
 21 22  1  0
 23 22  1  0
 24 23  1  0
 25 24  1  1
 25 26  1  0
 26 17  1  0
 27 25  1  0
 28 27  1  0
 29 27  2  0
M  END
$$$$
