DYM.pdb
     RDKit          3D

 29 29  0  0  1  0  0  0  0  0999 V2000
   25.4266  -17.4775  -18.6605 N   0  0  0  0  0  0  0  0  0  0  0  0
   24.4368  -17.4012  -17.5901 C   0  0  1  0  0  0  0  0  0  0  0  0
   23.1531  -16.9088  -18.2092 C   0  0  0  0  0  0  0  0  0  0  0  0
   23.2453  -15.4558  -18.4632 C   0  0  0  0  0  0  0  0  0  0  0  0
   24.1712  -14.9112  -19.1388 O   0  0  0  0  0  0  0  0  0  0  0  0
   24.2987  -18.7201  -16.9176 C   0  0  0  0  0  0  0  0  0  0  0  0
   24.2578  -19.8078  -17.5438 O   0  0  0  0  0  0  0  0  0  0  0  0
   22.2638  -14.6294  -17.9344 O   0  0  0  0  0  0  0  0  0  0  0  0
   29.6786  -21.7418  -17.2741 O   0  0  0  0  0  0  0  0  0  0  0  0
   28.5626  -21.4628  -16.4632 C   0  0  0  0  0  0  0  0  0  0  0  0
   27.6512  -22.4356  -16.1358 C   0  0  0  0  0  0  0  0  0  0  0  0
   26.5580  -22.1081  -15.3265 C   0  0  0  0  0  0  0  0  0  0  0  0
   26.3821  -20.8281  -14.8541 C   0  0  0  0  0  0  0  0  0  0  0  0
   25.2474  -20.4866  -14.0157 C   0  0  0  0  0  0  0  0  0  0  0  0
   24.0139  -20.0693  -14.7914 C   0  0  2  0  0  0  0  0  0  0  0  0
   24.2025  -18.8311  -15.4912 N   0  0  0  0  0  0  0  0  0  0  0  0
   22.8216  -19.9891  -13.8832 C   0  0  0  0  0  0  0  0  0  0  0  0
   22.6210  -18.9797  -13.1643 O   0  0  0  0  0  0  0  0  0  0  0  0
   27.3051  -19.8700  -15.1933 C   0  0  0  0  0  0  0  0  0  0  0  0
   28.3971  -20.1774  -15.9963 C   0  0  0  0  0  0  0  0  0  0  0  0
   15.5865  -19.4213  -13.2657 C   0  0  0  0  0  0  0  0  0  0  0  0
   17.1747  -20.0031  -13.8682 S   0  0  0  0  0  0  0  0  0  0  0  0
   18.5598  -19.4071  -12.9308 C   0  0  0  0  0  0  0  0  0  0  0  0
   19.9208  -19.6869  -13.4529 C   0  0  0  0  0  0  0  0  0  0  0  0
   20.6192  -20.9296  -13.0578 C   0  0  2  0  0  0  0  0  0  0  0  0
   21.8950  -21.0389  -13.8103 N   0  0  0  0  0  0  0  0  0  0  0  0
   19.8738  -22.1614  -13.2371 C   0  0  0  0  0  0  0  0  0  0  0  0
   19.0494  -22.5945  -12.1599 O   0  0  0  0  0  0  0  0  0  0  0  0
   19.8654  -22.9091  -14.2456 O   0  0  0  0  0  0  0  0  0  0  0  0
  2  1  1  6
  2  3  1  0
  3  4  1  0
  4  5  2  0
  4  8  1  0
  6  7  2  0
  6  2  1  0
  9 10  1  0
 10 11  2  0
 11 12  1  0
 13 12  2  0
 13 14  1  0
 15 14  1  1
 15 16  1  0
 16  6  1  0
 17 18  2  0
 17 15  1  0
 19 13  1  0
 20 10  1  0
 20 19  2  0
 21 22  1  0
 23 22  1  0
 24 23  1  0
 25 24  1  6
 25 26  1  0
 26 17  1  0
 27 25  1  0
 28 27  1  0
 29 27  2  0
M  END
$$$$
