IGC.pdb
     RDKit          3D

 19 18  0  0  1  0  0  0  0  0999 V2000
   22.6578  -21.2329  -15.3199 C   0  0  0  0  0  0  0  0  0  0  0  0
   22.6692  -20.3343  -14.1053 C   0  0  0  0  0  0  0  0  0  0  0  0
   23.6393  -20.9167  -13.1073 C   0  0  2  0  0  0  0  0  0  0  0  0
   23.0991  -22.2690  -12.6871 C   0  0  0  0  0  0  0  0  0  0  0  0
   23.7471  -20.0690  -11.8593 C   0  0  2  0  0  0  0  0  0  0  0  0
   24.1562  -18.7160  -12.1851 N   0  0  0  0  0  0  0  0  0  0  0  0
   24.6778  -20.6120  -10.8734 C   0  0  0  0  0  0  0  0  0  0  0  0
   24.2883  -21.4128   -9.9840 O   0  0  0  0  0  0  0  0  0  0  0  0
   26.0768  -20.2884  -10.8349 N   0  0  0  0  0  0  0  0  0  0  0  0
   26.9547  -20.8329   -9.8276 C   0  0  0  0  0  0  0  0  0  0  0  0
   26.9844  -20.1191   -8.5652 C   0  0  0  0  0  0  0  0  0  0  0  0
   26.4150  -18.9735   -8.5345 O   0  0  0  0  0  0  0  0  0  0  0  0
   27.5671  -20.5256   -7.3453 N   0  0  0  0  0  0  0  0  0  0  0  0
   27.6098  -19.6829   -6.1601 C   0  0  1  0  0  0  0  0  0  0  0  0
   27.4831  -20.6066   -4.9640 C   0  0  0  0  0  0  0  0  0  0  0  0
   27.8139  -19.7866   -3.4057 S   0  0  0  0  0  0  0  0  0  0  0  0
   28.8530  -18.8869   -6.1000 C   0  0  0  0  0  0  0  0  0  0  0  0
   29.8581  -19.3230   -6.7144 O   0  0  0  0  0  0  0  0  0  0  0  0
   28.9774  -17.7040   -5.4165 O   0  0  0  0  0  0  0  0  0  0  0  0
  2  3  1  0
  2  1  1  0
  3  4  1  1
  5  6  1  6
  5  3  1  0
  7  5  1  0
  8  7  2  0
  9  7  1  0
 10  9  1  0
 11 13  1  0
 11 10  1  0
 12 11  2  0
 14 15  1  1
 14 17  1  0
 14 13  1  0
 15 16  1  0
 17 19  1  0
 18 17  2  0
M  END
$$$$
