IGC.pdb
     RDKit          3D

 19 18  0  0  1  0  0  0  0  0999 V2000
   17.3402  -15.1931  -16.8581 C   0  0  0  0  0  0  0  0  0  0  0  0
   18.5569  -14.3427  -17.1400 C   0  0  0  0  0  0  0  0  0  0  0  0
   18.2260  -12.9204  -16.7609 C   0  0  2  0  0  0  0  0  0  0  0  0
   17.1561  -12.4342  -17.7180 C   0  0  0  0  0  0  0  0  0  0  0  0
   19.4168  -12.0004  -16.9141 C   0  0  2  0  0  0  0  0  0  0  0  0
   20.4506  -12.3254  -15.9498 N   0  0  0  0  0  0  0  0  0  0  0  0
   19.0747  -10.5877  -16.7714 C   0  0  0  0  0  0  0  0  0  0  0  0
   18.2049  -10.0522  -17.5065 O   0  0  0  0  0  0  0  0  0  0  0  0
   19.6837   -9.7135  -15.8079 N   0  0  0  0  0  0  0  0  0  0  0  0
   19.3751   -8.3049  -15.7589 C   0  0  0  0  0  0  0  0  0  0  0  0
   20.4810   -7.4290  -15.4217 C   0  0  0  0  0  0  0  0  0  0  0  0
   21.6182   -7.9818  -15.2252 O   0  0  0  0  0  0  0  0  0  0  0  0
   20.4709   -6.0245  -15.2788 N   0  0  0  0  0  0  0  0  0  0  0  0
   21.6605   -5.2434  -14.9764 C   0  0  1  0  0  0  0  0  0  0  0  0
   21.4167   -3.8495  -15.5218 C   0  0  0  0  0  0  0  0  0  0  0  0
   20.7660   -3.8527  -17.1910 S   0  0  0  0  0  0  0  0  0  0  0  0
   21.9420   -5.2158  -13.5264 C   0  0  0  0  0  0  0  0  0  0  0  0
   21.0353   -5.5991  -12.7461 O   0  0  0  0  0  0  0  0  0  0  0  0
   23.1294   -4.7984  -12.9805 O   0  0  0  0  0  0  0  0  0  0  0  0
  2  3  1  0
  2  1  1  0
  3  4  1  6
  5  6  1  1
  5  3  1  0
  7  5  1  0
  8  7  2  0
  9  7  1  0
 10  9  1  0
 11 13  1  0
 11 10  1  0
 12 11  2  0
 14 15  1  1
 14 17  1  0
 14 13  1  0
 15 16  1  0
 17 19  1  0
 18 17  2  0
M  END
$$$$
