IGC.pdb
     RDKit          3D

 19 18  0  0  1  0  0  0  0  0999 V2000
   32.7509   -9.5419  -19.0344 C   0  0  0  0  0  0  0  0  0  0  0  0
   31.3915  -10.1593  -19.2662 C   0  0  0  0  0  0  0  0  0  0  0  0
   30.4642   -9.6562  -18.1877 C   0  0  2  0  0  0  0  0  0  0  0  0
   30.9377  -10.2438  -16.8733 C   0  0  0  0  0  0  0  0  0  0  0  0
   29.0408  -10.1214  -18.4004 C   0  0  2  0  0  0  0  0  0  0  0  0
   28.4893   -9.5622  -19.6199 N   0  0  0  0  0  0  0  0  0  0  0  0
   28.1532   -9.7842  -17.2907 C   0  0  0  0  0  0  0  0  0  0  0  0
   28.3028  -10.3084  -16.1564 O   0  0  0  0  0  0  0  0  0  0  0  0
   27.0649   -8.8525  -17.3952 N   0  0  0  0  0  0  0  0  0  0  0  0
   26.1858   -8.5838  -16.2830 C   0  0  0  0  0  0  0  0  0  0  0  0
   24.7716   -8.5200  -16.5989 C   0  0  0  0  0  0  0  0  0  0  0  0
   24.4465   -7.9171  -17.6798 O   0  0  0  0  0  0  0  0  0  0  0  0
   23.6873   -9.0427  -15.8613 N   0  0  0  0  0  0  0  0  0  0  0  0
   22.3008   -8.9244  -16.2860 C   0  0  1  0  0  0  0  0  0  0  0  0
   21.5886  -10.1724  -15.8012 C   0  0  0  0  0  0  0  0  0  0  0  0
   22.2230  -11.6752  -16.5420 S   0  0  0  0  0  0  0  0  0  0  0  0
   21.6690   -7.6994  -15.7542 C   0  0  0  0  0  0  0  0  0  0  0  0
   20.6111   -7.3007  -16.3018 O   0  0  0  0  0  0  0  0  0  0  0  0
   22.1649   -6.9720  -14.7020 O   0  0  0  0  0  0  0  0  0  0  0  0
  2  3  1  0
  2  1  1  0
  3  4  1  1
  5  6  1  6
  5  3  1  0
  7  5  1  0
  8  7  2  0
  9  7  1  0
 10  9  1  0
 11 13  1  0
 11 10  1  0
 12 11  2  0
 14 15  1  1
 14 17  1  0
 14 13  1  0
 15 16  1  0
 17 19  1  0
 18 17  2  0
M  END
$$$$
