IGC.pdb
     RDKit          3D

 19 18  0  0  1  0  0  0  0  0999 V2000
   28.9951  -19.8322   -3.9865 C   0  0  0  0  0  0  0  0  0  0  0  0
   28.8625  -18.7191   -4.9996 C   0  0  0  0  0  0  0  0  0  0  0  0
   27.8978  -19.1758   -6.0659 C   0  0  2  0  0  0  0  0  0  0  0  0
   26.5929  -19.5224   -5.3773 C   0  0  0  0  0  0  0  0  0  0  0  0
   28.3793  -20.4250   -6.7698 C   0  0  2  0  0  0  0  0  0  0  0  0
   29.6251  -20.1778   -7.4705 N   0  0  0  0  0  0  0  0  0  0  0  0
   27.4086  -20.9602   -7.7207 C   0  0  0  0  0  0  0  0  0  0  0  0
   26.2485  -21.2816   -7.3537 O   0  0  0  0  0  0  0  0  0  0  0  0
   27.6862  -21.1600   -9.1158 N   0  0  0  0  0  0  0  0  0  0  0  0
   26.7355  -21.7953   -9.9959 C   0  0  0  0  0  0  0  0  0  0  0  0
   25.7144  -20.9279  -10.5517 C   0  0  0  0  0  0  0  0  0  0  0  0
   25.6428  -19.7411  -10.0788 O   0  0  0  0  0  0  0  0  0  0  0  0
   24.7730  -21.2225  -11.5617 N   0  0  0  0  0  0  0  0  0  0  0  0
   23.8156  -20.2519  -12.0695 C   0  0  1  0  0  0  0  0  0  0  0  0
   23.9197  -20.2873  -13.5821 C   0  0  0  0  0  0  0  0  0  0  0  0
   22.7345  -19.2159  -14.3926 S   0  0  0  0  0  0  0  0  0  0  0  0
   22.4420  -20.5497  -11.6144 C   0  0  0  0  0  0  0  0  0  0  0  0
   22.1292  -21.7544  -11.4448 O   0  0  0  0  0  0  0  0  0  0  0  0
   21.4892  -19.5944  -11.3661 O   0  0  0  0  0  0  0  0  0  0  0  0
  2  3  1  0
  2  1  1  0
  3  4  1  1
  5  6  1  6
  5  3  1  0
  7  5  1  0
  8  7  2  0
  9  7  1  0
 10  9  1  0
 11 13  1  0
 11 10  1  0
 12 11  2  0
 14 15  1  6
 14 17  1  0
 14 13  1  0
 15 16  1  0
 17 19  1  0
 18 17  2  0
M  END
$$$$
