IGC.pdb
     RDKit          3D

 19 18  0  0  1  0  0  0  0  0999 V2000
   13.0486  -11.1050  -10.3565 C   0  0  0  0  0  0  0  0  0  0  0  0
   13.0308  -10.2573   -9.1060 C   0  0  0  0  0  0  0  0  0  0  0  0
   13.3417   -8.8360   -9.5052 C   0  0  2  0  0  0  0  0  0  0  0  0
   12.5973   -8.5551  -10.7951 C   0  0  0  0  0  0  0  0  0  0  0  0
   14.8146   -8.6340   -9.7840 C   0  0  2  0  0  0  0  0  0  0  0  0
   15.5808   -8.6381   -8.5523 N   0  0  0  0  0  0  0  0  0  0  0  0
   15.0993   -7.3963  -10.5052 C   0  0  0  0  0  0  0  0  0  0  0  0
   14.8895   -7.3021  -11.7425 O   0  0  0  0  0  0  0  0  0  0  0  0
   15.6279   -6.2146   -9.8827 N   0  0  0  0  0  0  0  0  0  0  0  0
   15.7223   -4.9609  -10.5906 C   0  0  0  0  0  0  0  0  0  0  0  0
   14.8807   -3.8904  -10.0910 C   0  0  0  0  0  0  0  0  0  0  0  0
   13.7280   -3.7601  -10.6311 O   0  0  0  0  0  0  0  0  0  0  0  0
   15.1675   -2.9571   -9.0713 N   0  0  0  0  0  0  0  0  0  0  0  0
   14.2153   -1.9577   -8.6117 C   0  0  1  0  0  0  0  0  0  0  0  0
   14.1348   -2.0939   -7.1034 C   0  0  0  0  0  0  0  0  0  0  0  0
   13.4604   -3.6677   -6.5757 S   0  0  0  0  0  0  0  0  0  0  0  0
   14.6189   -0.5939   -9.0113 C   0  0  0  0  0  0  0  0  0  0  0  0
   15.7663   -0.4418   -9.4994 O   0  0  0  0  0  0  0  0  0  0  0  0
   13.8202    0.5141   -8.8826 O   0  0  0  0  0  0  0  0  0  0  0  0
  2  3  1  0
  2  1  1  0
  3  4  1  6
  5  6  1  1
  5  3  1  0
  7  5  1  0
  8  7  2  0
  9  7  1  0
 10  9  1  0
 11 13  1  0
 11 10  1  0
 12 11  2  0
 14 15  1  1
 14 17  1  0
 14 13  1  0
 15 16  1  0
 17 19  1  0
 18 17  2  0
M  END
$$$$
