EDE.pdb
     RDKit          3D

 27 26  0  0  1  0  0  0  0  0999 V2000
   19.2427  -11.6202  -17.7350 N   0  0  0  0  0  0  0  0  0  0  0  0
   19.0117  -11.2437  -16.3723 C   0  0  1  0  0  0  0  0  0  0  0  0
   19.1301  -12.3243  -15.3638 C   0  0  0  0  0  0  0  0  0  0  0  0
   19.1042  -13.7226  -15.8683 C   0  0  0  0  0  0  0  0  0  0  0  0
   17.7590  -14.3115  -15.8576 C   0  0  0  0  0  0  0  0  0  0  0  0
   17.1473  -14.5478  -16.9109 O   0  0  0  0  0  0  0  0  0  0  0  0
   19.8791  -10.0647  -16.0396 C   0  0  0  0  0  0  0  0  0  0  0  0
   19.7634   -9.5161  -14.9094 O   0  0  0  0  0  0  0  0  0  0  0  0
   17.1520  -14.6140  -14.6262 O   0  0  0  0  0  0  0  0  0  0  0  0
   20.8456   -9.5285  -16.9522 N   0  0  0  0  0  0  0  0  0  0  0  0
   21.6268   -8.3836  -16.5106 C   0  0  1  0  0  0  0  0  0  0  0  0
   23.0320   -8.5475  -17.1335 C   0  0  0  0  0  0  0  0  0  0  0  0
   23.8953   -7.3861  -16.7237 C   0  0  0  0  0  0  0  0  0  0  0  0
   24.7860   -6.9170  -17.5063 O   0  0  0  0  0  0  0  0  0  0  0  0
   21.0056   -7.1063  -16.8595 C   0  0  0  0  0  0  0  0  0  0  0  0
   20.8908   -6.7342  -18.0537 O   0  0  0  0  0  0  0  0  0  0  0  0
   23.7802   -6.7605  -15.4815 O   0  0  0  0  0  0  0  0  0  0  0  0
   20.4890   -6.1988  -15.8722 N   0  0  0  0  0  0  0  0  0  0  0  0
   19.9327   -4.8830  -16.2041 C   0  0  1  0  0  0  0  0  0  0  0  0
   18.5863   -4.8435  -15.5310 C   0  0  0  0  0  0  0  0  0  0  0  0
   17.8115   -3.5894  -15.6878 C   0  0  0  0  0  0  0  0  0  0  0  0
   16.4654   -3.5848  -15.0741 C   0  0  0  0  0  0  0  0  0  0  0  0
   16.0711   -4.6126  -14.4739 O   0  0  0  0  0  0  0  0  0  0  0  0
   20.8357   -3.8102  -15.7404 C   0  0  0  0  0  0  0  0  0  0  0  0
   20.9486   -2.6438  -16.4689 O   0  0  0  0  0  0  0  0  0  0  0  0
   15.6018   -2.4870  -15.1223 O   0  0  0  0  0  0  0  0  0  0  0  0
   21.4970   -3.9489  -14.6995 O   0  0  0  0  0  0  0  0  0  0  0  0
  2  1  1  6
  2  7  1  0
  3  2  1  0
  4  3  1  0
  5  4  1  0
  5  6  2  0
  7 10  1  0
  7  8  2  0
  9  5  1  0
 10 11  1  0
 11 12  1  6
 13 12  1  0
 13 17  1  0
 14 13  2  0
 15 11  1  0
 15 16  2  0
 18 15  1  0
 19 18  1  0
 19 20  1  1
 20 21  1  0
 21 22  1  0
 22 23  2  0
 22 26  1  0
 24 19  1  0
 25 24  1  0
 27 24  2  0
M  END
$$$$
