EDE.pdb
     RDKit          3D

 27 26  0  0  1  0  0  0  0  0999 V2000
   14.2349   -8.7931  -14.0295 N   0  0  0  0  0  0  0  0  0  0  0  0
   15.1760   -9.2015  -13.0296 C   0  0  1  0  0  0  0  0  0  0  0  0
   15.8484  -10.5038  -13.2542 C   0  0  0  0  0  0  0  0  0  0  0  0
   16.3063  -10.7958  -14.6383 C   0  0  0  0  0  0  0  0  0  0  0  0
   17.0244  -12.0721  -14.7478 C   0  0  0  0  0  0  0  0  0  0  0  0
   17.5564  -12.4265  -15.8111 O   0  0  0  0  0  0  0  0  0  0  0  0
   16.1599   -8.0904  -12.8049 C   0  0  0  0  0  0  0  0  0  0  0  0
   16.4972   -7.3621  -13.7783 O   0  0  0  0  0  0  0  0  0  0  0  0
   17.1104  -12.9099  -13.6221 O   0  0  0  0  0  0  0  0  0  0  0  0
   16.7382   -7.8114  -11.5235 N   0  0  0  0  0  0  0  0  0  0  0  0
   17.5910   -6.6384  -11.4099 C   0  0  1  0  0  0  0  0  0  0  0  0
   17.6208   -6.2638   -9.9105 C   0  0  0  0  0  0  0  0  0  0  0  0
   16.2972   -5.6645   -9.5221 C   0  0  0  0  0  0  0  0  0  0  0  0
   15.7014   -4.8312  -10.2814 O   0  0  0  0  0  0  0  0  0  0  0  0
   18.9290   -6.8565  -11.9589 C   0  0  0  0  0  0  0  0  0  0  0  0
   19.6230   -7.8498  -11.6277 O   0  0  0  0  0  0  0  0  0  0  0  0
   15.6493   -5.9750   -8.3256 O   0  0  0  0  0  0  0  0  0  0  0  0
   19.5359   -5.9606  -12.9044 N   0  0  0  0  0  0  0  0  0  0  0  0
   20.8904   -6.1493  -13.4343 C   0  0  1  0  0  0  0  0  0  0  0  0
   20.7872   -5.8296  -14.9021 C   0  0  0  0  0  0  0  0  0  0  0  0
   22.0601   -5.8200  -15.6620 C   0  0  0  0  0  0  0  0  0  0  0  0
   21.9389   -5.5701  -17.1151 C   0  0  0  0  0  0  0  0  0  0  0  0
   22.7745   -4.8186  -17.6711 O   0  0  0  0  0  0  0  0  0  0  0  0
   21.8472   -5.2764  -12.7246 C   0  0  0  0  0  0  0  0  0  0  0  0
   23.1667   -5.6607  -12.6001 O   0  0  0  0  0  0  0  0  0  0  0  0
   20.9382   -6.1336  -17.9117 O   0  0  0  0  0  0  0  0  0  0  0  0
   21.4745   -4.1982  -12.2364 O   0  0  0  0  0  0  0  0  0  0  0  0
  2  1  1  6
  2  7  1  0
  3  2  1  0
  4  3  1  0
  5  4  1  0
  5  6  2  0
  7 10  1  0
  7  8  2  0
  9  5  1  0
 10 11  1  0
 11 12  1  1
 13 12  1  0
 13 17  1  0
 14 13  2  0
 15 11  1  0
 15 16  2  0
 18 15  1  0
 19 18  1  0
 19 20  1  6
 20 21  1  0
 21 22  1  0
 22 23  2  0
 22 26  1  0
 24 19  1  0
 25 24  1  0
 27 24  2  0
M  END
$$$$
