EDE.pdb
     RDKit          3D

 27 26  0  0  1  0  0  0  0  0999 V2000
   14.5903  -12.2847  -13.7555 N   0  0  0  0  0  0  0  0  0  0  0  0
   15.8901  -11.8786  -13.3109 C   0  0  1  0  0  0  0  0  0  0  0  0
   17.0165  -12.1590  -14.2335 C   0  0  0  0  0  0  0  0  0  0  0  0
   17.2913  -13.5861  -14.5473 C   0  0  0  0  0  0  0  0  0  0  0  0
   18.4218  -13.7638  -15.4675 C   0  0  0  0  0  0  0  0  0  0  0  0
   19.0464  -12.7924  -15.9209 O   0  0  0  0  0  0  0  0  0  0  0  0
   15.8372  -10.4334  -12.9089 C   0  0  0  0  0  0  0  0  0  0  0  0
   15.3467   -9.5904  -13.7093 O   0  0  0  0  0  0  0  0  0  0  0  0
   18.8040  -15.0638  -15.8421 O   0  0  0  0  0  0  0  0  0  0  0  0
   16.3186   -9.9599  -11.6446 N   0  0  0  0  0  0  0  0  0  0  0  0
   16.2945   -8.5247  -11.4088 C   0  0  1  0  0  0  0  0  0  0  0  0
   15.8576   -8.3310   -9.9388 C   0  0  0  0  0  0  0  0  0  0  0  0
   14.4547   -8.8448   -9.7659 C   0  0  0  0  0  0  0  0  0  0  0  0
   13.4467   -8.1345  -10.0906 O   0  0  0  0  0  0  0  0  0  0  0  0
   17.5752   -7.8818  -11.7013 C   0  0  0  0  0  0  0  0  0  0  0  0
   18.6493   -8.2934  -11.1965 O   0  0  0  0  0  0  0  0  0  0  0  0
   14.1717  -10.1086   -9.2459 O   0  0  0  0  0  0  0  0  0  0  0  0
   17.6930   -6.7481  -12.5764 N   0  0  0  0  0  0  0  0  0  0  0  0
   18.9813   -6.1680  -12.9702 C   0  0  1  0  0  0  0  0  0  0  0  0
   19.7843   -7.3219  -13.5098 C   0  0  0  0  0  0  0  0  0  0  0  0
   21.1300   -6.9938  -14.0380 C   0  0  0  0  0  0  0  0  0  0  0  0
   21.9145   -8.1376  -14.5528 C   0  0  0  0  0  0  0  0  0  0  0  0
   22.4151   -8.9447  -13.7342 O   0  0  0  0  0  0  0  0  0  0  0  0
   18.7804   -5.0958  -13.9658 C   0  0  0  0  0  0  0  0  0  0  0  0
   19.7000   -4.0722  -14.0688 O   0  0  0  0  0  0  0  0  0  0  0  0
   22.1273   -8.3740  -15.9138 O   0  0  0  0  0  0  0  0  0  0  0  0
   17.7887   -5.1058  -14.7117 O   0  0  0  0  0  0  0  0  0  0  0  0
  2  1  1  6
  2  7  1  0
  3  2  1  0
  4  3  1  0
  5  4  1  0
  5  6  2  0
  7 10  1  0
  7  8  2  0
  9  5  1  0
 10 11  1  0
 11 12  1  1
 13 12  1  0
 13 17  1  0
 14 13  2  0
 15 11  1  0
 15 16  2  0
 18 15  1  0
 19 18  1  0
 19 20  1  6
 20 21  1  0
 21 22  1  0
 22 23  2  0
 22 26  1  0
 24 19  1  0
 25 24  1  0
 27 24  2  0
M  END
$$$$
