EDE.pdb
     RDKit          3D

 27 26  0  0  1  0  0  0  0  0999 V2000
   16.8599  -12.4574  -17.4218 N   0  0  0  0  0  0  0  0  0  0  0  0
   16.4704  -11.9480  -16.1409 C   0  0  1  0  0  0  0  0  0  0  0  0
   16.0699  -12.9546  -15.1284 C   0  0  0  0  0  0  0  0  0  0  0  0
   15.5684  -14.2587  -15.6366 C   0  0  0  0  0  0  0  0  0  0  0  0
   15.4610  -15.2803  -14.5871 C   0  0  0  0  0  0  0  0  0  0  0  0
   15.7404  -15.0263  -13.4053 O   0  0  0  0  0  0  0  0  0  0  0  0
   17.5477  -11.0349  -15.6324 C   0  0  0  0  0  0  0  0  0  0  0  0
   17.3822  -10.4429  -14.5306 O   0  0  0  0  0  0  0  0  0  0  0  0
   15.0317  -16.5743  -14.9304 O   0  0  0  0  0  0  0  0  0  0  0  0
   18.7703  -10.8032  -16.3437 N   0  0  0  0  0  0  0  0  0  0  0  0
   19.6936   -9.8220  -15.7953 C   0  0  1  0  0  0  0  0  0  0  0  0
   21.1026  -10.4518  -15.8824 C   0  0  0  0  0  0  0  0  0  0  0  0
   22.0886   -9.5622  -15.1764 C   0  0  0  0  0  0  0  0  0  0  0  0
   23.3347   -9.8330  -15.1689 O   0  0  0  0  0  0  0  0  0  0  0  0
   19.6154   -8.5296  -16.4754 C   0  0  0  0  0  0  0  0  0  0  0  0
   19.7524   -8.4310  -17.7202 O   0  0  0  0  0  0  0  0  0  0  0  0
   21.7090   -8.4054  -14.4944 O   0  0  0  0  0  0  0  0  0  0  0  0
   19.3789   -7.2969  -15.7757 N   0  0  0  0  0  0  0  0  0  0  0  0
   19.2089   -6.0080  -16.4545 C   0  0  1  0  0  0  0  0  0  0  0  0
   18.0106   -5.3731  -15.7999 C   0  0  0  0  0  0  0  0  0  0  0  0
   17.6682   -4.0022  -16.2485 C   0  0  0  0  0  0  0  0  0  0  0  0
   16.4923   -3.3873  -15.5945 C   0  0  0  0  0  0  0  0  0  0  0  0
   16.1361   -2.2382  -15.9477 O   0  0  0  0  0  0  0  0  0  0  0  0
   20.4324   -5.1914  -16.3229 C   0  0  0  0  0  0  0  0  0  0  0  0
   20.7491   -4.2656  -17.2959 O   0  0  0  0  0  0  0  0  0  0  0  0
   15.7460   -4.0232  -14.5984 O   0  0  0  0  0  0  0  0  0  0  0  0
   21.1814   -5.3314  -15.3434 O   0  0  0  0  0  0  0  0  0  0  0  0
  2  1  1  6
  2  7  1  0
  3  2  1  0
  4  3  1  0
  5  4  1  0
  5  6  2  0
  7 10  1  0
  7  8  2  0
  9  5  1  0
 10 11  1  0
 11 12  1  6
 13 12  1  0
 13 17  1  0
 14 13  2  0
 15 11  1  0
 15 16  2  0
 18 15  1  0
 19 18  1  0
 19 20  1  1
 20 21  1  0
 21 22  1  0
 22 23  2  0
 22 26  1  0
 24 19  1  0
 25 24  1  0
 27 24  2  0
M  END
$$$$
