EDE.pdb
     RDKit          3D

 27 26  0  0  1  0  0  0  0  0999 V2000
   16.3013  -13.7651  -16.9760 N   0  0  0  0  0  0  0  0  0  0  0  0
   16.5310  -13.2085  -15.6761 C   0  0  1  0  0  0  0  0  0  0  0  0
   17.6451  -13.8000  -14.8966 C   0  0  0  0  0  0  0  0  0  0  0  0
   17.5284  -15.2386  -14.5397 C   0  0  0  0  0  0  0  0  0  0  0  0
   16.5768  -15.4835  -13.4484 C   0  0  0  0  0  0  0  0  0  0  0  0
   16.5667  -14.7782  -12.4277 O   0  0  0  0  0  0  0  0  0  0  0  0
   16.6594  -11.7182  -15.8009 C   0  0  0  0  0  0  0  0  0  0  0  0
   17.3210  -11.2366  -16.7612 O   0  0  0  0  0  0  0  0  0  0  0  0
   15.6572  -16.5406  -13.5640 O   0  0  0  0  0  0  0  0  0  0  0  0
   16.0571  -10.8056  -14.8741 N   0  0  0  0  0  0  0  0  0  0  0  0
   16.1681   -9.3836  -15.1597 C   0  0  1  0  0  0  0  0  0  0  0  0
   14.8950   -8.7221  -14.5844 C   0  0  0  0  0  0  0  0  0  0  0  0
   14.8813   -7.2648  -14.9564 C   0  0  0  0  0  0  0  0  0  0  0  0
   15.2034   -6.3648  -14.1125 O   0  0  0  0  0  0  0  0  0  0  0  0
   17.3953   -8.7936  -14.6262 C   0  0  0  0  0  0  0  0  0  0  0  0
   17.8296   -9.0947  -13.4865 O   0  0  0  0  0  0  0  0  0  0  0  0
   14.5190   -6.8127  -16.2261 O   0  0  0  0  0  0  0  0  0  0  0  0
   18.1810   -7.8397  -15.3596 N   0  0  0  0  0  0  0  0  0  0  0  0
   19.4981   -7.3726  -14.9146 C   0  0  1  0  0  0  0  0  0  0  0  0
   20.4240   -7.6454  -16.0704 C   0  0  0  0  0  0  0  0  0  0  0  0
   21.8292   -7.2037  -15.9029 C   0  0  0  0  0  0  0  0  0  0  0  0
   22.6853   -7.3160  -17.1042 C   0  0  0  0  0  0  0  0  0  0  0  0
   22.3675   -8.1350  -17.9987 O   0  0  0  0  0  0  0  0  0  0  0  0
   19.4416   -5.9419  -14.5523 C   0  0  0  0  0  0  0  0  0  0  0  0
   20.4087   -5.4024  -13.7290 O   0  0  0  0  0  0  0  0  0  0  0  0
   23.8374   -6.5498  -17.3021 O   0  0  0  0  0  0  0  0  0  0  0  0
   18.5292   -5.2185  -14.9814 O   0  0  0  0  0  0  0  0  0  0  0  0
  2  1  1  6
  2  7  1  0
  3  2  1  0
  4  3  1  0
  5  4  1  0
  5  6  2  0
  7 10  1  0
  7  8  2  0
  9  5  1  0
 10 11  1  0
 11 12  1  1
 13 12  1  0
 13 17  1  0
 14 13  2  0
 15 11  1  0
 15 16  2  0
 18 15  1  0
 19 18  1  0
 19 20  1  6
 20 21  1  0
 21 22  1  0
 22 23  2  0
 22 26  1  0
 24 19  1  0
 25 24  1  0
 27 24  2  0
M  END
$$$$
