EDE.pdb
     RDKit          3D

 27 26  0  0  1  0  0  0  0  0999 V2000
   13.8930  -12.1002  -11.8555 N   0  0  0  0  0  0  0  0  0  0  0  0
   13.5934  -10.6994  -11.8395 C   0  0  1  0  0  0  0  0  0  0  0  0
   13.6699  -10.0270  -10.5202 C   0  0  0  0  0  0  0  0  0  0  0  0
   12.8270  -10.5847   -9.4297 C   0  0  0  0  0  0  0  0  0  0  0  0
   11.5768   -9.8399   -9.2330 C   0  0  0  0  0  0  0  0  0  0  0  0
   11.3153   -8.8263   -9.8992 O   0  0  0  0  0  0  0  0  0  0  0  0
   14.4357  -10.0101  -12.8732 C   0  0  0  0  0  0  0  0  0  0  0  0
   15.5538  -10.5049  -13.1845 O   0  0  0  0  0  0  0  0  0  0  0  0
   10.6566  -10.2862   -8.2684 O   0  0  0  0  0  0  0  0  0  0  0  0
   14.0253   -8.8061  -13.5337 N   0  0  0  0  0  0  0  0  0  0  0  0
   14.9312   -8.2350  -14.5182 C   0  0  1  0  0  0  0  0  0  0  0  0
   14.0499   -7.7438  -15.6893 C   0  0  0  0  0  0  0  0  0  0  0  0
   14.9330   -7.2437  -16.7994 C   0  0  0  0  0  0  0  0  0  0  0  0
   15.8252   -7.9907  -17.3208 O   0  0  0  0  0  0  0  0  0  0  0  0
   15.7704   -7.1723  -13.9654 C   0  0  0  0  0  0  0  0  0  0  0  0
   15.3377   -6.3771  -13.0945 O   0  0  0  0  0  0  0  0  0  0  0  0
   14.8354   -5.9520  -17.3186 O   0  0  0  0  0  0  0  0  0  0  0  0
   17.1324   -6.9662  -14.3748 N   0  0  0  0  0  0  0  0  0  0  0  0
   18.0023   -5.9436  -13.7845 C   0  0  1  0  0  0  0  0  0  0  0  0
   19.3968   -6.5006  -13.8961 C   0  0  0  0  0  0  0  0  0  0  0  0
   20.4959   -5.6096  -13.4535 C   0  0  0  0  0  0  0  0  0  0  0  0
   21.8623   -6.1615  -13.5838 C   0  0  0  0  0  0  0  0  0  0  0  0
   22.0029   -7.3353  -14.0015 O   0  0  0  0  0  0  0  0  0  0  0  0
   17.8412   -4.6584  -14.4942 C   0  0  0  0  0  0  0  0  0  0  0  0
   18.1356   -3.4749  -13.8486 O   0  0  0  0  0  0  0  0  0  0  0  0
   23.0168   -5.4395  -13.2687 O   0  0  0  0  0  0  0  0  0  0  0  0
   17.4408   -4.6326  -15.6684 O   0  0  0  0  0  0  0  0  0  0  0  0
  2  1  1  1
  2  7  1  0
  3  2  1  0
  4  3  1  0
  5  4  1  0
  5  6  2  0
  7 10  1  0
  7  8  2  0
  9  5  1  0
 10 11  1  0
 11 12  1  6
 13 12  1  0
 13 17  1  0
 14 13  2  0
 15 11  1  0
 15 16  2  0
 18 15  1  0
 19 18  1  0
 19 20  1  6
 20 21  1  0
 21 22  1  0
 22 23  2  0
 22 26  1  0
 24 19  1  0
 25 24  1  0
 27 24  2  0
M  END
$$$$
