CEQ.pdb
     RDKit          3D

 25 24  0  0  1  0  0  0  0  0999 V2000
   14.9337   -9.5054  -16.8214 N   0  0  0  0  0  0  0  0  0  0  0  0
   15.5834   -9.4838  -15.5284 C   0  0  1  0  0  0  0  0  0  0  0  0
   16.2379  -10.8367  -15.3454 C   0  0  0  0  0  0  0  0  0  0  0  0
   15.0951  -11.9646  -14.4636 S   0  0  0  0  0  0  0  0  0  0  0  0
   16.6130   -8.3934  -15.5402 C   0  0  0  0  0  0  0  0  0  0  0  0
   17.7524   -8.6484  -15.9386 O   0  0  0  0  0  0  0  0  0  0  0  0
   16.3152   -7.0888  -15.1096 N   0  0  0  0  0  0  0  0  0  0  0  0
   17.0843   -5.9258  -14.9970 C   0  0  1  0  0  0  0  0  0  0  0  0
   16.4647   -4.5753  -14.9998 C   0  0  0  0  0  0  0  0  0  0  0  0
   17.3478   -3.3860  -15.0817 C   0  0  0  0  0  0  0  0  0  0  0  0
   16.4592   -2.1554  -15.0157 C   0  0  0  0  0  0  0  0  0  0  0  0
   17.0086   -1.0111  -15.0554 O   0  0  0  0  0  0  0  0  0  0  0  0
   18.2169   -5.9591  -14.0568 C   0  0  0  0  0  0  0  0  0  0  0  0
   18.1016   -6.3273  -12.8538 O   0  0  0  0  0  0  0  0  0  0  0  0
   15.1054   -2.2705  -14.9194 O   0  0  0  0  0  0  0  0  0  0  0  0
   22.3393   -9.6808  -14.4052 N   0  0  0  0  0  0  0  0  0  0  0  0
   22.9260   -8.8705  -13.3985 C   0  0  0  0  0  0  0  0  0  0  0  0
   23.9086   -9.3252  -12.7728 O   0  0  0  0  0  0  0  0  0  0  0  0
   22.3998   -7.5394  -13.0959 C   0  0  0  0  0  0  0  0  0  0  0  0
   21.1616   -7.1539  -13.8387 C   0  0  0  0  0  0  0  0  0  0  0  0
   20.6911   -5.7469  -13.6078 C   0  0  2  0  0  0  0  0  0  0  0  0
   19.5215   -5.5685  -14.4763 N   0  0  0  0  0  0  0  0  0  0  0  0
   21.6931   -4.7410  -13.9920 C   0  0  0  0  0  0  0  0  0  0  0  0
   21.6132   -4.1625  -15.0979 O   0  0  0  0  0  0  0  0  0  0  0  0
   22.7459   -4.4014  -13.1573 O   0  0  0  0  0  0  0  0  0  0  0  0
  2  1  1  6
  3  2  1  0
  4  3  1  0
  5  7  1  0
  5  2  1  0
  6  5  2  0
  8  7  1  0
  8  9  1  1
  9 10  1  0
 10 11  1  0
 11 15  1  0
 11 12  2  0
 13  8  1  0
 14 13  2  0
 16 17  1  0
 17 19  1  0
 18 17  2  0
 19 20  1  0
 21 20  1  6
 21 23  1  0
 21 22  1  0
 22 13  1  0
 23 25  1  0
 24 23  2  0
M  END
$$$$
