CEQ.pdb
     RDKit          3D

 25 24  0  0  1  0  0  0  0  0999 V2000
   26.8459  -20.5012  -16.0047 N   0  0  0  0  0  0  0  0  0  0  0  0
   26.1325  -19.6523  -15.0748 C   0  0  1  0  0  0  0  0  0  0  0  0
   26.9554  -18.3916  -14.9141 C   0  0  0  0  0  0  0  0  0  0  0  0
   28.5814  -18.8018  -14.1770 S   0  0  0  0  0  0  0  0  0  0  0  0
   24.7895  -19.3380  -15.6637 C   0  0  0  0  0  0  0  0  0  0  0  0
   24.7023  -19.1157  -16.8741 O   0  0  0  0  0  0  0  0  0  0  0  0
   23.6274  -19.2899  -14.8743 N   0  0  0  0  0  0  0  0  0  0  0  0
   22.2792  -19.0744  -15.1788 C   0  0  1  0  0  0  0  0  0  0  0  0
   21.1889  -19.6213  -14.3304 C   0  0  0  0  0  0  0  0  0  0  0  0
   21.1825  -21.0735  -14.0264 C   0  0  0  0  0  0  0  0  0  0  0  0
   19.8757  -21.3827  -13.3157 C   0  0  0  0  0  0  0  0  0  0  0  0
   19.6820  -22.5655  -12.8958 O   0  0  0  0  0  0  0  0  0  0  0  0
   21.9092  -17.7392  -15.6769 C   0  0  0  0  0  0  0  0  0  0  0  0
   22.2749  -16.6692  -15.1135 O   0  0  0  0  0  0  0  0  0  0  0  0
   18.9325  -20.4181  -13.1279 O   0  0  0  0  0  0  0  0  0  0  0  0
   19.8906  -14.5310  -22.0775 N   0  0  0  0  0  0  0  0  0  0  0  0
   20.0608  -15.5969  -21.1560 C   0  0  0  0  0  0  0  0  0  0  0  0
   19.9313  -16.7674  -21.5768 O   0  0  0  0  0  0  0  0  0  0  0  0
   20.3784  -15.3400  -19.7513 C   0  0  0  0  0  0  0  0  0  0  0  0
   20.5622  -16.5554  -18.9014 C   0  0  0  0  0  0  0  0  0  0  0  0
   20.8703  -16.2835  -17.4573 C   0  0  2  0  0  0  0  0  0  0  0  0
   21.1042  -17.5962  -16.8440 N   0  0  0  0  0  0  0  0  0  0  0  0
   19.7504  -15.6488  -16.7457 C   0  0  0  0  0  0  0  0  0  0  0  0
   18.9418  -16.3458  -16.0943 O   0  0  0  0  0  0  0  0  0  0  0  0
   19.5521  -14.2775  -16.7693 O   0  0  0  0  0  0  0  0  0  0  0  0
  2  1  1  6
  3  2  1  0
  4  3  1  0
  5  7  1  0
  5  2  1  0
  6  5  2  0
  8  7  1  0
  8  9  1  1
  9 10  1  0
 10 11  1  0
 11 15  1  0
 11 12  2  0
 13  8  1  0
 14 13  2  0
 16 17  1  0
 17 19  1  0
 18 17  2  0
 19 20  1  0
 21 20  1  6
 21 23  1  0
 21 22  1  0
 22 13  1  0
 23 25  1  0
 24 23  2  0
M  END
$$$$
