CEQ.pdb
     RDKit          3D

 25 24  0  0  1  0  0  0  0  0999 V2000
   27.2078  -11.4781  -17.8383 N   0  0  0  0  0  0  0  0  0  0  0  0
   26.2941  -11.9428  -16.8168 C   0  0  1  0  0  0  0  0  0  0  0  0
   27.0677  -11.9649  -15.5156 C   0  0  0  0  0  0  0  0  0  0  0  0
   28.3637  -13.2576  -15.5861 S   0  0  0  0  0  0  0  0  0  0  0  0
   25.1499  -10.9765  -16.7376 C   0  0  0  0  0  0  0  0  0  0  0  0
   25.3576   -9.7811  -16.9615 O   0  0  0  0  0  0  0  0  0  0  0  0
   23.8474  -11.3955  -16.4153 N   0  0  0  0  0  0  0  0  0  0  0  0
   22.6219  -10.7243  -16.3478 C   0  0  1  0  0  0  0  0  0  0  0  0
   21.3282  -11.4547  -16.3701 C   0  0  0  0  0  0  0  0  0  0  0  0
   20.0692  -10.6729  -16.4398 C   0  0  0  0  0  0  0  0  0  0  0  0
   18.9172  -11.6622  -16.3906 C   0  0  0  0  0  0  0  0  0  0  0  0
   18.4301  -11.9658  -15.2576 O   0  0  0  0  0  0  0  0  0  0  0  0
   22.5363   -9.5747  -15.4320 C   0  0  0  0  0  0  0  0  0  0  0  0
   22.9573   -9.6110  -14.2413 O   0  0  0  0  0  0  0  0  0  0  0  0
   18.4130  -12.2112  -17.5306 O   0  0  0  0  0  0  0  0  0  0  0  0
   23.2283   -3.8442  -17.6244 N   0  0  0  0  0  0  0  0  0  0  0  0
   23.1534   -3.6391  -16.2220 C   0  0  0  0  0  0  0  0  0  0  0  0
   23.4568   -2.5121  -15.7731 O   0  0  0  0  0  0  0  0  0  0  0  0
   22.7343   -4.7129  -15.3212 C   0  0  0  0  0  0  0  0  0  0  0  0
   22.5029   -6.0403  -15.9676 C   0  0  0  0  0  0  0  0  0  0  0  0
   22.0465   -7.1302  -15.0413 C   0  0  2  0  0  0  0  0  0  0  0  0
   21.9618   -8.3438  -15.8624 N   0  0  0  0  0  0  0  0  0  0  0  0
   20.7124   -6.8762  -14.4766 C   0  0  0  0  0  0  0  0  0  0  0  0
   19.6899   -7.2938  -15.0634 O   0  0  0  0  0  0  0  0  0  0  0  0
   20.5402   -6.1768  -13.2928 O   0  0  0  0  0  0  0  0  0  0  0  0
  2  1  1  6
  3  2  1  0
  4  3  1  0
  5  7  1  0
  5  2  1  0
  6  5  2  0
  8  7  1  0
  8  9  1  1
  9 10  1  0
 10 11  1  0
 11 15  1  0
 11 12  2  0
 13  8  1  0
 14 13  2  0
 16 17  1  0
 17 19  1  0
 18 17  2  0
 19 20  1  0
 21 20  1  6
 21 23  1  0
 21 22  1  0
 22 13  1  0
 23 25  1  0
 24 23  2  0
M  END
$$$$
