CEQ.pdb
     RDKit          3D

 25 24  0  0  1  0  0  0  0  0999 V2000
   18.1635  -11.6462  -14.7790 N   0  0  0  0  0  0  0  0  0  0  0  0
   17.7447  -10.2818  -15.0185 C   0  0  1  0  0  0  0  0  0  0  0  0
   16.3244  -10.3454  -15.5389 C   0  0  0  0  0  0  0  0  0  0  0  0
   16.3389  -10.5988  -17.3530 S   0  0  0  0  0  0  0  0  0  0  0  0
   17.8002   -9.5398  -13.7164 C   0  0  0  0  0  0  0  0  0  0  0  0
   17.1873   -9.9879  -12.7439 O   0  0  0  0  0  0  0  0  0  0  0  0
   18.5315   -8.3478  -13.5736 N   0  0  0  0  0  0  0  0  0  0  0  0
   18.6832   -7.4462  -12.5148 C   0  0  1  0  0  0  0  0  0  0  0  0
   19.7884   -6.4536  -12.4855 C   0  0  0  0  0  0  0  0  0  0  0  0
   21.1722   -6.9195  -12.7485 C   0  0  0  0  0  0  0  0  0  0  0  0
   22.0946   -5.7254  -12.5708 C   0  0  0  0  0  0  0  0  0  0  0  0
   22.4449   -5.0742  -13.6034 O   0  0  0  0  0  0  0  0  0  0  0  0
   17.4562   -6.8515  -11.9593 C   0  0  0  0  0  0  0  0  0  0  0  0
   16.5953   -6.2605  -12.6704 O   0  0  0  0  0  0  0  0  0  0  0  0
   22.5360   -5.3559  -11.3363 O   0  0  0  0  0  0  0  0  0  0  0  0
   13.8308   -9.6306   -8.0401 N   0  0  0  0  0  0  0  0  0  0  0  0
   13.3037   -8.3145   -7.9750 C   0  0  0  0  0  0  0  0  0  0  0  0
   12.2552   -8.1302   -7.3187 O   0  0  0  0  0  0  0  0  0  0  0  0
   13.9636   -7.2001   -8.6553 C   0  0  0  0  0  0  0  0  0  0  0  0
   15.2651   -7.5285   -9.3124 C   0  0  0  0  0  0  0  0  0  0  0  0
   15.9429   -6.3766   -9.9965 C   0  0  2  0  0  0  0  0  0  0  0  0
   17.1829   -6.9209  -10.5625 N   0  0  0  0  0  0  0  0  0  0  0  0
   16.3097   -5.2978   -9.0665 C   0  0  0  0  0  0  0  0  0  0  0  0
   17.4725   -5.2261   -8.6118 O   0  0  0  0  0  0  0  0  0  0  0  0
   15.3964   -4.3356   -8.6657 O   0  0  0  0  0  0  0  0  0  0  0  0
  2  1  1  1
  3  2  1  0
  4  3  1  0
  5  7  1  0
  5  2  1  0
  6  5  2  0
  8  7  1  0
  8  9  1  6
  9 10  1  0
 10 11  1  0
 11 15  1  0
 11 12  2  0
 13  8  1  0
 14 13  2  0
 16 17  1  0
 17 19  1  0
 18 17  2  0
 19 20  1  0
 21 20  1  1
 21 23  1  0
 21 22  1  0
 22 13  1  0
 23 25  1  0
 24 23  2  0
M  END
$$$$
