CEQ.pdb
     RDKit          3D

 25 24  0  0  1  0  0  0  0  0999 V2000
   26.1087  -12.1884  -18.0010 N   0  0  0  0  0  0  0  0  0  0  0  0
   25.7416  -11.7649  -16.6667 C   0  0  1  0  0  0  0  0  0  0  0  0
   26.9818  -11.1602  -16.0434 C   0  0  0  0  0  0  0  0  0  0  0  0
   28.2136  -12.4748  -15.7117 S   0  0  0  0  0  0  0  0  0  0  0  0
   24.6529  -10.7402  -16.7839 C   0  0  0  0  0  0  0  0  0  0  0  0
   24.6805   -9.9401  -17.7226 O   0  0  0  0  0  0  0  0  0  0  0  0
   23.6018  -10.6664  -15.8534 N   0  0  0  0  0  0  0  0  0  0  0  0
   22.4817   -9.8351  -15.7479 C   0  0  1  0  0  0  0  0  0  0  0  0
   21.1578  -10.3574  -15.3214 C   0  0  0  0  0  0  0  0  0  0  0  0
   19.9920   -9.4397  -15.3329 C   0  0  0  0  0  0  0  0  0  0  0  0
   18.7611  -10.2654  -14.9989 C   0  0  0  0  0  0  0  0  0  0  0  0
   18.4436  -10.4090  -13.7776 O   0  0  0  0  0  0  0  0  0  0  0  0
   22.6958   -8.4887  -15.1919 C   0  0  0  0  0  0  0  0  0  0  0  0
   23.2744   -8.2846  -14.0875 O   0  0  0  0  0  0  0  0  0  0  0  0
   18.0109  -10.8376  -15.9813 O   0  0  0  0  0  0  0  0  0  0  0  0
   21.1735   -3.1414  -18.3874 N   0  0  0  0  0  0  0  0  0  0  0  0
   21.6496   -2.6659  -17.1378 C   0  0  0  0  0  0  0  0  0  0  0  0
   21.6402   -1.4323  -16.9331 O   0  0  0  0  0  0  0  0  0  0  0  0
   22.1399   -3.5883  -16.1137 C   0  0  0  0  0  0  0  0  0  0  0  0
   22.0125   -5.0405  -16.4430 C   0  0  0  0  0  0  0  0  0  0  0  0
   22.4691   -5.9814  -15.3657 C   0  0  2  0  0  0  0  0  0  0  0  0
   22.2486   -7.3326  -15.8947 N   0  0  0  0  0  0  0  0  0  0  0  0
   21.6870   -5.8513  -14.1268 C   0  0  0  0  0  0  0  0  0  0  0  0
   20.5503   -6.3658  -14.0423 O   0  0  0  0  0  0  0  0  0  0  0  0
   22.1718   -5.1655  -13.0245 O   0  0  0  0  0  0  0  0  0  0  0  0
  2  1  1  6
  3  2  1  0
  4  3  1  0
  5  7  1  0
  5  2  1  0
  6  5  2  0
  8  7  1  0
  8  9  1  1
  9 10  1  0
 10 11  1  0
 11 15  1  0
 11 12  2  0
 13  8  1  0
 14 13  2  0
 16 17  1  0
 17 19  1  0
 18 17  2  0
 19 20  1  0
 21 20  1  6
 21 23  1  0
 21 22  1  0
 22 13  1  0
 23 25  1  0
 24 23  2  0
M  END
$$$$
