CEQ.pdb
     RDKit          3D

 25 24  0  0  1  0  0  0  0  0999 V2000
   23.8439  -12.4768  -18.1192 N   0  0  0  0  0  0  0  0  0  0  0  0
   23.6129  -12.0745  -16.7484 C   0  0  1  0  0  0  0  0  0  0  0  0
   24.9741  -11.8802  -16.1146 C   0  0  0  0  0  0  0  0  0  0  0  0
   25.7495  -13.5094  -15.7985 S   0  0  0  0  0  0  0  0  0  0  0  0
   22.8449  -10.7863  -16.7617 C   0  0  0  0  0  0  0  0  0  0  0  0
   23.0464   -9.9771  -17.6710 O   0  0  0  0  0  0  0  0  0  0  0  0
   21.9019  -10.4758  -15.7666 N   0  0  0  0  0  0  0  0  0  0  0  0
   21.0204   -9.4035  -15.5933 C   0  0  1  0  0  0  0  0  0  0  0  0
   19.6604   -9.5932  -15.0260 C   0  0  0  0  0  0  0  0  0  0  0  0
   18.6702  -10.3842  -15.7975 C   0  0  0  0  0  0  0  0  0  0  0  0
   17.5504  -10.7642  -14.8435 C   0  0  0  0  0  0  0  0  0  0  0  0
   17.4890  -11.9642  -14.4321 O   0  0  0  0  0  0  0  0  0  0  0  0
   21.5939   -8.1345  -15.1151 C   0  0  0  0  0  0  0  0  0  0  0  0
   22.3000   -8.0490  -14.0710 O   0  0  0  0  0  0  0  0  0  0  0  0
   16.6337   -9.8439  -14.4336 O   0  0  0  0  0  0  0  0  0  0  0  0
   22.4175   -1.0126  -17.3226 N   0  0  0  0  0  0  0  0  0  0  0  0
   21.9943   -2.3642  -17.4138 C   0  0  0  0  0  0  0  0  0  0  0  0
   21.3343   -2.7097  -18.4182 O   0  0  0  0  0  0  0  0  0  0  0  0
   22.3174   -3.3311  -16.3647 C   0  0  0  0  0  0  0  0  0  0  0  0
   21.7668   -4.7058  -16.5661 C   0  0  0  0  0  0  0  0  0  0  0  0
   22.0567   -5.6778  -15.4591 C   0  0  2  0  0  0  0  0  0  0  0  0
   21.3708   -6.9215  -15.8288 N   0  0  0  0  0  0  0  0  0  0  0  0
   21.5217   -5.2388  -14.1612 C   0  0  0  0  0  0  0  0  0  0  0  0
   22.2282   -4.5574  -13.3863 O   0  0  0  0  0  0  0  0  0  0  0  0
   20.2359   -5.5579  -13.7545 O   0  0  0  0  0  0  0  0  0  0  0  0
  2  1  1  6
  3  2  1  0
  4  3  1  0
  5  7  1  0
  5  2  1  0
  6  5  2  0
  8  7  1  0
  8  9  1  1
  9 10  1  0
 10 11  1  0
 11 15  1  0
 11 12  2  0
 13  8  1  0
 14 13  2  0
 16 17  1  0
 17 19  1  0
 18 17  2  0
 19 20  1  0
 21 20  1  6
 21 23  1  0
 21 22  1  0
 22 13  1  0
 23 25  1  0
 24 23  2  0
M  END
$$$$
