CEQ.pdb
     RDKit          3D

 25 24  0  0  1  0  0  0  0  0999 V2000
   18.9347  -11.9747  -15.3068 N   0  0  0  0  0  0  0  0  0  0  0  0
   18.6550  -10.9072  -16.2431 C   0  0  1  0  0  0  0  0  0  0  0  0
   17.2774  -11.1742  -16.8116 C   0  0  0  0  0  0  0  0  0  0  0  0
   17.3805  -12.4645  -18.1078 S   0  0  0  0  0  0  0  0  0  0  0  0
   18.6770   -9.6088  -15.4927 C   0  0  0  0  0  0  0  0  0  0  0  0
   18.1404   -9.5479  -14.3834 O   0  0  0  0  0  0  0  0  0  0  0  0
   19.2922   -8.4596  -16.0188 N   0  0  0  0  0  0  0  0  0  0  0  0
   19.4963   -7.1727  -15.5097 C   0  0  1  0  0  0  0  0  0  0  0  0
   20.7568   -6.7961  -14.8191 C   0  0  0  0  0  0  0  0  0  0  0  0
   20.8113   -5.5058  -14.0887 C   0  0  0  0  0  0  0  0  0  0  0  0
   22.1522   -5.4435  -13.3770 C   0  0  0  0  0  0  0  0  0  0  0  0
   22.3869   -6.2863  -12.4564 O   0  0  0  0  0  0  0  0  0  0  0  0
   19.0098   -6.0452  -16.3219 C   0  0  0  0  0  0  0  0  0  0  0  0
   19.3328   -5.8793  -17.5320 O   0  0  0  0  0  0  0  0  0  0  0  0
   23.0850   -4.5105  -13.7158 O   0  0  0  0  0  0  0  0  0  0  0  0
   14.7430   -5.7553  -14.9452 N   0  0  0  0  0  0  0  0  0  0  0  0
   14.3503   -5.1721  -16.1780 C   0  0  0  0  0  0  0  0  0  0  0  0
   13.3324   -5.6236  -16.7470 O   0  0  0  0  0  0  0  0  0  0  0  0
   15.1116   -4.0732  -16.7722 C   0  0  0  0  0  0  0  0  0  0  0  0
   16.2870   -3.6028  -15.9782 C   0  0  0  0  0  0  0  0  0  0  0  0
   17.6282   -3.9468  -16.5589 C   0  0  2  0  0  0  0  0  0  0  0  0
   18.1326   -5.0716  -15.7623 N   0  0  0  0  0  0  0  0  0  0  0  0
   18.5973   -2.8461  -16.4454 C   0  0  0  0  0  0  0  0  0  0  0  0
   19.3538   -2.7726  -15.4522 O   0  0  0  0  0  0  0  0  0  0  0  0
   18.7074   -1.8654  -17.4182 O   0  0  0  0  0  0  0  0  0  0  0  0
  2  1  1  1
  3  2  1  0
  4  3  1  0
  5  7  1  0
  5  2  1  0
  6  5  2  0
  8  7  1  0
  8  9  1  6
  9 10  1  0
 10 11  1  0
 11 15  1  0
 11 12  2  0
 13  8  1  0
 14 13  2  0
 16 17  1  0
 17 19  1  0
 18 17  2  0
 19 20  1  0
 21 20  1  1
 21 23  1  0
 21 22  1  0
 22 13  1  0
 23 25  1  0
 24 23  2  0
M  END
$$$$
