MNK.pdb
     RDKit          3D

 26 25  0  0  1  0  0  0  0  0999 V2000
    7.6341  -13.0719   27.5075 C   0  0  0  0  0  0  0  0  0  0  0  0
    6.5160  -12.4581   26.2504 S   0  0  0  0  0  0  0  0  0  0  0  0
    7.0011  -13.1169   24.6142 C   0  0  0  0  0  0  0  0  0  0  0  0
    7.2966  -14.5917   24.7521 C   0  0  0  0  0  0  0  0  0  0  0  0
    7.8098  -15.2471   23.5182 C   0  0  2  0  0  0  0  0  0  0  0  0
    6.9735  -14.8969   22.3793 N   0  0  0  0  0  0  0  0  0  0  0  0
    7.8208  -16.7268   23.7270 C   0  0  0  0  0  0  0  0  0  0  0  0
    6.9792  -17.2439   24.5041 O   0  0  0  0  0  0  0  0  0  0  0  0
    9.8128  -22.0741   21.4881 N   0  0  0  0  0  0  0  0  0  0  0  0
    8.9644  -21.2237   22.2903 C   0  0  0  0  0  0  0  0  0  0  0  0
    8.3223  -21.7295   23.2372 O   0  0  0  0  0  0  0  0  0  0  0  0
    8.8734  -19.7943   21.9828 C   0  0  0  0  0  0  0  0  0  0  0  0
    8.9554  -18.9544   23.2475 C   0  0  2  0  0  0  0  0  0  0  0  0
    8.7619  -17.5587   23.0640 N   0  0  0  0  0  0  0  0  0  0  0  0
   10.0841  -19.3058   24.1279 C   0  0  0  0  0  0  0  0  0  0  0  0
   10.2904  -20.5024   24.4881 O   0  0  0  0  0  0  0  0  0  0  0  0
   11.0076  -18.3497   24.6312 N   0  0  0  0  0  0  0  0  0  0  0  0
   12.0795  -18.7123   25.5656 C   0  0  1  0  0  0  0  0  0  0  0  0
   13.3376  -17.9915   25.2337 C   0  0  0  0  0  0  0  0  0  0  0  0
   13.8237  -18.1358   23.8272 C   0  0  0  0  0  0  0  0  0  0  0  0
   15.1560  -17.4435   23.5980 C   0  0  0  0  0  0  0  0  0  0  0  0
   15.6447  -17.5952   22.1820 C   0  0  0  0  0  0  0  0  0  0  0  0
   16.8560  -16.7860   22.0260 N   0  0  0  0  0  0  0  0  0  0  0  0
   11.6459  -18.4556   26.9555 C   0  0  0  0  0  0  0  0  0  0  0  0
   12.3007  -18.8936   27.9201 O   0  0  0  0  0  0  0  0  0  0  0  0
   10.4751  -17.7058   27.1630 O   0  0  0  0  0  0  0  0  0  0  0  0
  2  1  1  0
  3  2  1  0
  4  3  1  0
  4  5  1  0
  5  7  1  0
  5  6  1  6
  7  8  2  0
 10  9  1  0
 11 10  2  0
 13 12  1  6
 12 10  1  0
 14 13  1  0
 14  7  1  0
 15 17  1  0
 15 13  1  0
 16 15  2  0
 18 17  1  0
 18 19  1  6
 19 20  1  0
 21 20  1  0
 22 21  1  0
 23 22  1  0
 24 26  1  0
 24 18  1  0
 25 24  2  0
M  END
$$$$
