MNK.pdb
     RDKit          3D

 26 25  0  0  1  0  0  0  0  0999 V2000
    7.6691  -11.9335   19.9339 C   0  0  0  0  0  0  0  0  0  0  0  0
    7.4714  -13.1431   18.6282 S   0  0  0  0  0  0  0  0  0  0  0  0
    7.8287  -14.8168   19.2745 C   0  0  0  0  0  0  0  0  0  0  0  0
    9.3184  -15.0565   19.2063 C   0  0  0  0  0  0  0  0  0  0  0  0
    9.7609  -16.3965   19.6796 C   0  0  2  0  0  0  0  0  0  0  0  0
    9.1391  -17.4416   18.8795 N   0  0  0  0  0  0  0  0  0  0  0  0
    9.3899  -16.5461   21.1195 C   0  0  0  0  0  0  0  0  0  0  0  0
    9.8451  -15.7293   21.9593 O   0  0  0  0  0  0  0  0  0  0  0  0
    5.9966  -19.5484   25.0048 N   0  0  0  0  0  0  0  0  0  0  0  0
    7.3711  -19.5122   24.5621 C   0  0  0  0  0  0  0  0  0  0  0  0
    8.2826  -19.6669   25.4048 O   0  0  0  0  0  0  0  0  0  0  0  0
    7.6697  -19.2980   23.1441 C   0  0  0  0  0  0  0  0  0  0  0  0
    8.1275  -17.8707   22.8890 C   0  0  2  0  0  0  0  0  0  0  0  0
    8.5333  -17.5914   21.5561 N   0  0  0  0  0  0  0  0  0  0  0  0
    9.0255  -17.3349   23.9277 C   0  0  0  0  0  0  0  0  0  0  0  0
   10.2836  -17.4420   23.8295 O   0  0  0  0  0  0  0  0  0  0  0  0
    8.5593  -16.6720   25.0953 N   0  0  0  0  0  0  0  0  0  0  0  0
    9.4517  -15.8975   25.9655 C   0  0  1  0  0  0  0  0  0  0  0  0
    9.0820  -14.4567   25.9552 C   0  0  0  0  0  0  0  0  0  0  0  0
    7.7497  -14.1179   26.5430 C   0  0  0  0  0  0  0  0  0  0  0  0
    7.4104  -12.6440   26.4049 C   0  0  0  0  0  0  0  0  0  0  0  0
    6.0442  -12.3170   26.9469 C   0  0  0  0  0  0  0  0  0  0  0  0
    5.8203  -10.8779   26.7875 N   0  0  0  0  0  0  0  0  0  0  0  0
    9.4388  -16.4614   27.3320 C   0  0  0  0  0  0  0  0  0  0  0  0
    8.6008  -17.3223   27.6599 O   0  0  0  0  0  0  0  0  0  0  0  0
   10.3950  -16.0016   28.2542 O   0  0  0  0  0  0  0  0  0  0  0  0
  2  1  1  0
  3  2  1  0
  4  3  1  0
  4  5  1  0
  5  7  1  0
  5  6  1  6
  7  8  2  0
 10  9  1  0
 11 10  2  0
 13 12  1  6
 12 10  1  0
 14 13  1  0
 14  7  1  0
 15 17  1  0
 15 13  1  0
 16 15  2  0
 18 17  1  0
 18 19  1  1
 19 20  1  0
 21 20  1  0
 22 21  1  0
 23 22  1  0
 24 26  1  0
 24 18  1  0
 25 24  2  0
M  END
$$$$
