MNK.pdb
     RDKit          3D

 26 25  0  0  1  0  0  0  0  0999 V2000
    9.5039  -11.8204   19.6560 C   0  0  0  0  0  0  0  0  0  0  0  0
    8.2377  -12.2220   18.4550 S   0  0  0  0  0  0  0  0  0  0  0  0
    8.3639  -13.9860   17.9874 C   0  0  0  0  0  0  0  0  0  0  0  0
    8.5483  -14.8091   19.2404 C   0  0  0  0  0  0  0  0  0  0  0  0
    8.8279  -16.2524   19.0079 C   0  0  2  0  0  0  0  0  0  0  0  0
    7.7302  -16.8638   18.2727 N   0  0  0  0  0  0  0  0  0  0  0  0
    9.0158  -16.9261   20.3285 C   0  0  0  0  0  0  0  0  0  0  0  0
    8.0058  -17.2947   20.9794 O   0  0  0  0  0  0  0  0  0  0  0  0
   13.3662  -19.3630   24.0561 N   0  0  0  0  0  0  0  0  0  0  0  0
   12.0366  -19.1415   23.5366 C   0  0  0  0  0  0  0  0  0  0  0  0
   11.0517  -19.4556   24.2408 O   0  0  0  0  0  0  0  0  0  0  0  0
   11.8679  -18.5560   22.2044 C   0  0  0  0  0  0  0  0  0  0  0  0
   10.6348  -17.6684   22.1471 C   0  0  2  0  0  0  0  0  0  0  0  0
   10.3119  -17.1585   20.8607 N   0  0  0  0  0  0  0  0  0  0  0  0
   10.5588  -16.6774   23.2355 C   0  0  0  0  0  0  0  0  0  0  0  0
   11.5112  -15.8737   23.4618 O   0  0  0  0  0  0  0  0  0  0  0  0
    9.4359  -16.5504   24.0976 N   0  0  0  0  0  0  0  0  0  0  0  0
    9.3429  -15.4946   25.1125 C   0  0  1  0  0  0  0  0  0  0  0  0
    7.9882  -14.8804   25.1151 C   0  0  0  0  0  0  0  0  0  0  0  0
    7.8033  -13.7052   26.0207 C   0  0  0  0  0  0  0  0  0  0  0  0
    6.3808  -13.1735   26.0012 C   0  0  0  0  0  0  0  0  0  0  0  0
    6.2196  -11.9364   26.8442 C   0  0  0  0  0  0  0  0  0  0  0  0
    4.8021  -11.5660   26.8482 N   0  0  0  0  0  0  0  0  0  0  0  0
    9.7065  -16.0361   26.4392 C   0  0  0  0  0  0  0  0  0  0  0  0
   10.1560  -15.2924   27.3314 O   0  0  0  0  0  0  0  0  0  0  0  0
    9.5340  -17.4120   26.6700 O   0  0  0  0  0  0  0  0  0  0  0  0
  2  1  1  0
  3  2  1  0
  4  3  1  0
  4  5  1  0
  5  7  1  0
  5  6  1  1
  7  8  2  0
 10  9  1  0
 11 10  2  0
 13 12  1  6
 12 10  1  0
 14 13  1  0
 14  7  1  0
 15 17  1  0
 15 13  1  0
 16 15  2  0
 18 17  1  0
 18 19  1  1
 19 20  1  0
 21 20  1  0
 22 21  1  0
 23 22  1  0
 24 26  1  0
 24 18  1  0
 25 24  2  0
M  END
$$$$
