MNK.pdb
     RDKit          3D

 26 25  0  0  1  0  0  0  0  0999 V2000
    7.5635  -10.6872   27.1444 C   0  0  0  0  0  0  0  0  0  0  0  0
    6.9095  -12.2811   27.6331 S   0  0  0  0  0  0  0  0  0  0  0  0
    5.6326  -12.8198   26.4391 C   0  0  0  0  0  0  0  0  0  0  0  0
    6.3172  -13.3574   25.2047 C   0  0  0  0  0  0  0  0  0  0  0  0
    6.1420  -14.8176   24.9754 C   0  0  2  0  0  0  0  0  0  0  0  0
    6.6602  -15.5691   26.1094 N   0  0  0  0  0  0  0  0  0  0  0  0
    6.8591  -15.1982   23.7207 C   0  0  0  0  0  0  0  0  0  0  0  0
    7.1702  -16.4011   23.5317 O   0  0  0  0  0  0  0  0  0  0  0  0
    7.2123  -14.1512   18.2547 N   0  0  0  0  0  0  0  0  0  0  0  0
    8.1974  -13.6345   19.1763 C   0  0  0  0  0  0  0  0  0  0  0  0
    9.3831  -13.5217   18.7943 O   0  0  0  0  0  0  0  0  0  0  0  0
    7.7916  -13.2536   20.5314 C   0  0  0  0  0  0  0  0  0  0  0  0
    7.7488  -14.4630   21.4520 C   0  0  2  0  0  0  0  0  0  0  0  0
    7.1941  -14.2281   22.7389 N   0  0  0  0  0  0  0  0  0  0  0  0
    8.9904  -15.2573   21.4558 C   0  0  0  0  0  0  0  0  0  0  0  0
    9.5394  -15.6260   20.3756 O   0  0  0  0  0  0  0  0  0  0  0  0
    9.6527  -15.6634   22.6460 N   0  0  0  0  0  0  0  0  0  0  0  0
   10.9674  -16.3152   22.6275 C   0  0  1  0  0  0  0  0  0  0  0  0
   11.3869  -16.7001   24.0017 C   0  0  0  0  0  0  0  0  0  0  0  0
   12.6657  -17.4677   24.1055 C   0  0  0  0  0  0  0  0  0  0  0  0
   12.6045  -18.5610   25.1579 C   0  0  0  0  0  0  0  0  0  0  0  0
   13.8782  -19.3609   25.2283 C   0  0  0  0  0  0  0  0  0  0  0  0
   13.7922  -20.2590   26.3826 N   0  0  0  0  0  0  0  0  0  0  0  0
   10.9428  -17.4756   21.7120 C   0  0  0  0  0  0  0  0  0  0  0  0
    9.9871  -18.2742   21.7185 O   0  0  0  0  0  0  0  0  0  0  0  0
   12.0252  -17.6576   20.8337 O   0  0  0  0  0  0  0  0  0  0  0  0
  2  1  1  0
  3  2  1  0
  4  3  1  0
  4  5  1  0
  5  7  1  0
  5  6  1  1
  7  8  2  0
 10  9  1  0
 11 10  2  0
 13 12  1  1
 12 10  1  0
 14 13  1  0
 14  7  1  0
 15 17  1  0
 15 13  1  0
 16 15  2  0
 18 17  1  0
 18 19  1  1
 19 20  1  0
 21 20  1  0
 22 21  1  0
 23 22  1  0
 24 26  1  0
 24 18  1  0
 25 24  2  0
M  END
$$$$
