MNK.pdb
     RDKit          3D

 26 25  0  0  1  0  0  0  0  0999 V2000
    7.9985  -12.2138   19.6074 C   0  0  0  0  0  0  0  0  0  0  0  0
    8.2844  -13.7606   20.4634 S   0  0  0  0  0  0  0  0  0  0  0  0
    6.6949  -14.4423   21.0592 C   0  0  0  0  0  0  0  0  0  0  0  0
    6.6278  -15.9071   20.6969 C   0  0  0  0  0  0  0  0  0  0  0  0
    7.5179  -16.3183   19.5771 C   0  0  2  0  0  0  0  0  0  0  0  0
    6.7677  -17.0909   18.5976 N   0  0  0  0  0  0  0  0  0  0  0  0
    8.6472  -17.1258   20.1302 C   0  0  0  0  0  0  0  0  0  0  0  0
    8.3956  -18.1879   20.7532 O   0  0  0  0  0  0  0  0  0  0  0  0
   14.6055  -18.4531   19.2703 N   0  0  0  0  0  0  0  0  0  0  0  0
   13.2547  -18.5409   19.7746 C   0  0  0  0  0  0  0  0  0  0  0  0
   12.9612  -19.4688   20.5604 O   0  0  0  0  0  0  0  0  0  0  0  0
   12.2611  -17.5475   19.3602 C   0  0  0  0  0  0  0  0  0  0  0  0
   11.1631  -17.4017   20.4018 C   0  0  2  0  0  0  0  0  0  0  0  0
    9.9973  -16.7170   19.9645 N   0  0  0  0  0  0  0  0  0  0  0  0
   11.6496  -16.9949   21.7323 C   0  0  0  0  0  0  0  0  0  0  0  0
   12.5348  -16.0987   21.8639 O   0  0  0  0  0  0  0  0  0  0  0  0
   11.1744  -17.5652   22.9443 N   0  0  0  0  0  0  0  0  0  0  0  0
   11.8360  -17.3302   24.2330 C   0  0  1  0  0  0  0  0  0  0  0  0
   11.3648  -18.3025   25.2552 C   0  0  0  0  0  0  0  0  0  0  0  0
   12.0492  -18.2405   26.5831 C   0  0  0  0  0  0  0  0  0  0  0  0
   11.5841  -19.3336   27.5292 C   0  0  0  0  0  0  0  0  0  0  0  0
   12.2607  -19.2556   28.8721 C   0  0  0  0  0  0  0  0  0  0  0  0
   11.6204  -20.2249   29.7649 N   0  0  0  0  0  0  0  0  0  0  0  0
   13.3038  -17.3755   24.0626 C   0  0  0  0  0  0  0  0  0  0  0  0
   14.0259  -16.4586   24.4972 O   0  0  0  0  0  0  0  0  0  0  0  0
   13.8660  -18.4786   23.3967 O   0  0  0  0  0  0  0  0  0  0  0  0
  2  1  1  0
  3  2  1  0
  4  3  1  0
  4  5  1  0
  5  7  1  0
  5  6  1  6
  7  8  2  0
 10  9  1  0
 11 10  2  0
 13 12  1  6
 12 10  1  0
 14 13  1  0
 14  7  1  0
 15 17  1  0
 15 13  1  0
 16 15  2  0
 18 17  1  0
 18 19  1  1
 19 20  1  0
 21 20  1  0
 22 21  1  0
 23 22  1  0
 24 26  1  0
 24 18  1  0
 25 24  2  0
M  END
$$$$
