MNK.pdb
     RDKit          3D

 26 25  0  0  1  0  0  0  0  0999 V2000
    7.6907  -12.2636   22.5304 C   0  0  0  0  0  0  0  0  0  0  0  0
    7.8926  -12.0329   20.7660 S   0  0  0  0  0  0  0  0  0  0  0  0
    7.6711  -13.6303   19.9026 C   0  0  0  0  0  0  0  0  0  0  0  0
    8.4097  -14.7030   20.6676 C   0  0  0  0  0  0  0  0  0  0  0  0
    8.1870  -16.0903   20.1766 C   0  0  2  0  0  0  0  0  0  0  0  0
    6.7664  -16.4077   20.1970 N   0  0  0  0  0  0  0  0  0  0  0  0
    8.9497  -17.0375   21.0452 C   0  0  0  0  0  0  0  0  0  0  0  0
    8.3722  -17.5746   22.0237 O   0  0  0  0  0  0  0  0  0  0  0  0
   14.3755  -20.0804   21.4911 N   0  0  0  0  0  0  0  0  0  0  0  0
   12.9674  -19.8259   21.6889 C   0  0  0  0  0  0  0  0  0  0  0  0
   12.3647  -20.4343   22.6007 O   0  0  0  0  0  0  0  0  0  0  0  0
   12.2767  -18.8657   20.8247 C   0  0  0  0  0  0  0  0  0  0  0  0
   11.1848  -18.1296   21.5848 C   0  0  2  0  0  0  0  0  0  0  0  0
   10.3124  -17.3427   20.7856 N   0  0  0  0  0  0  0  0  0  0  0  0
   11.6538  -17.4665   22.8148 C   0  0  0  0  0  0  0  0  0  0  0  0
   12.5248  -16.5479   22.7764 O   0  0  0  0  0  0  0  0  0  0  0  0
   11.1763  -17.8003   24.1113 N   0  0  0  0  0  0  0  0  0  0  0  0
   11.6198  -17.0899   25.3164 C   0  0  1  0  0  0  0  0  0  0  0  0
   10.4977  -16.3247   25.9231 C   0  0  0  0  0  0  0  0  0  0  0  0
   10.8248  -15.5534   27.1614 C   0  0  0  0  0  0  0  0  0  0  0  0
    9.6272  -14.7970   27.7092 C   0  0  0  0  0  0  0  0  0  0  0  0
    9.9746  -13.9735   28.9210 C   0  0  0  0  0  0  0  0  0  0  0  0
    8.7831  -13.2204   29.3203 N   0  0  0  0  0  0  0  0  0  0  0  0
   12.2189  -18.0443   26.2733 C   0  0  0  0  0  0  0  0  0  0  0  0
   11.8860  -19.2444   26.2716 O   0  0  0  0  0  0  0  0  0  0  0  0
   13.1733  -17.5647   27.1872 O   0  0  0  0  0  0  0  0  0  0  0  0
  2  1  1  0
  3  2  1  0
  4  3  1  0
  4  5  1  0
  5  7  1  0
  5  6  1  1
  7  8  2  0
 10  9  1  0
 11 10  2  0
 13 12  1  6
 12 10  1  0
 14 13  1  0
 14  7  1  0
 15 17  1  0
 15 13  1  0
 16 15  2  0
 18 17  1  0
 18 19  1  1
 19 20  1  0
 21 20  1  0
 22 21  1  0
 23 22  1  0
 24 26  1  0
 24 18  1  0
 25 24  2  0
M  END
$$$$
