MNK.pdb
     RDKit          3D

 26 25  0  0  1  0  0  0  0  0999 V2000
    7.5136  -11.3124   26.0635 C   0  0  0  0  0  0  0  0  0  0  0  0
    6.6893  -12.6576   26.9108 S   0  0  0  0  0  0  0  0  0  0  0  0
    6.0888  -13.8825   25.6921 C   0  0  0  0  0  0  0  0  0  0  0  0
    7.2154  -14.8331   25.3626 C   0  0  0  0  0  0  0  0  0  0  0  0
    6.9073  -15.8268   24.2981 C   0  0  2  0  0  0  0  0  0  0  0  0
    5.8346  -16.7102   24.7319 N   0  0  0  0  0  0  0  0  0  0  0  0
    8.1439  -16.6100   23.9969 C   0  0  0  0  0  0  0  0  0  0  0  0
    8.3065  -17.7332   24.5369 O   0  0  0  0  0  0  0  0  0  0  0  0
   13.1496  -16.5348   20.2031 N   0  0  0  0  0  0  0  0  0  0  0  0
   12.1235  -17.0730   21.0657 C   0  0  0  0  0  0  0  0  0  0  0  0
   12.2179  -18.2592   21.4514 O   0  0  0  0  0  0  0  0  0  0  0  0
   10.9999  -16.2250   21.4709 C   0  0  0  0  0  0  0  0  0  0  0  0
   10.3608  -16.7357   22.7525 C   0  0  2  0  0  0  0  0  0  0  0  0
    9.1367  -16.1105   23.1126 N   0  0  0  0  0  0  0  0  0  0  0  0
   11.3099  -16.9113   23.8665 C   0  0  0  0  0  0  0  0  0  0  0  0
   11.8211  -15.9154   24.4590 O   0  0  0  0  0  0  0  0  0  0  0  0
   11.7171  -18.1840   24.3508 N   0  0  0  0  0  0  0  0  0  0  0  0
   12.5785  -18.3348   25.5293 C   0  0  1  0  0  0  0  0  0  0  0  0
   12.0461  -19.3800   26.4440 C   0  0  0  0  0  0  0  0  0  0  0  0
   12.3601  -19.2024   27.8950 C   0  0  0  0  0  0  0  0  0  0  0  0
   11.9613  -20.4077   28.7285 C   0  0  0  0  0  0  0  0  0  0  0  0
   12.4469  -20.3075   30.1502 C   0  0  0  0  0  0  0  0  0  0  0  0
   12.1365  -21.5675   30.8304 N   0  0  0  0  0  0  0  0  0  0  0  0
   13.9654  -18.6244   25.1072 C   0  0  0  0  0  0  0  0  0  0  0  0
   14.1956  -19.2466   24.0531 O   0  0  0  0  0  0  0  0  0  0  0  0
   15.0196  -18.1816   25.9250 O   0  0  0  0  0  0  0  0  0  0  0  0
  2  1  1  0
  3  2  1  0
  4  3  1  0
  4  5  1  0
  5  7  1  0
  5  6  1  1
  7  8  2  0
 10  9  1  0
 11 10  2  0
 13 12  1  6
 12 10  1  0
 14 13  1  0
 14  7  1  0
 15 17  1  0
 15 13  1  0
 16 15  2  0
 18 17  1  0
 18 19  1  1
 19 20  1  0
 21 20  1  0
 22 21  1  0
 23 22  1  0
 24 26  1  0
 24 18  1  0
 25 24  2  0
M  END
$$$$
