HYW.pdb
     RDKit          3D

 37 40  0  0  1  0  0  0  0  0999 V2000
    9.1210  -19.3833   19.1226 N   0  0  0  0  0  0  0  0  0  0  0  0
    8.3786  -18.9611   20.2893 C   0  0  1  0  0  0  0  0  0  0  0  0
    8.5651  -19.9696   21.3749 C   0  0  0  0  0  0  0  0  0  0  0  0
    7.7695  -21.1860   21.0720 C   0  0  0  0  0  0  0  0  0  0  0  0
    7.0371  -21.4130   19.9181 C   0  0  0  0  0  0  0  0  0  0  0  0
    6.4626  -22.6193   20.0174 N   0  0  0  0  0  0  0  0  0  0  0  0
    6.8015  -23.1751   21.1966 C   0  0  0  0  0  0  0  0  0  0  0  0
    7.5968  -22.2936   21.8293 N   0  0  0  0  0  0  0  0  0  0  0  0
    8.7678  -17.5958   20.7269 C   0  0  0  0  0  0  0  0  0  0  0  0
    9.8832  -17.1458   20.3973 O   0  0  0  0  0  0  0  0  0  0  0  0
    8.3533  -13.1298   15.8093 O   0  0  0  0  0  0  0  0  0  0  0  0
    8.1259  -13.4207   17.1487 C   0  0  0  0  0  0  0  0  0  0  0  0
    7.6254  -14.6860   17.4314 C   0  0  0  0  0  0  0  0  0  0  0  0
    7.3939  -14.9917   18.7502 C   0  0  0  0  0  0  0  0  0  0  0  0
    7.6261  -14.1242   19.8141 C   0  0  0  0  0  0  0  0  0  0  0  0
    7.3422  -14.4628   21.2013 C   0  0  0  0  0  0  0  0  0  0  0  0
    8.2523  -15.4057   21.8939 C   0  0  2  0  0  0  0  0  0  0  0  0
    7.9238  -16.7800   21.5053 N   0  0  0  0  0  0  0  0  0  0  0  0
    8.2846  -15.3878   23.3532 C   0  0  0  0  0  0  0  0  0  0  0  0
    7.8623  -14.3649   23.9654 O   0  0  0  0  0  0  0  0  0  0  0  0
    8.1220  -12.8810   19.4874 C   0  0  0  0  0  0  0  0  0  0  0  0
    8.3669  -12.5377   18.1765 C   0  0  0  0  0  0  0  0  0  0  0  0
    8.7474  -16.4258   24.2042 N   0  0  0  0  0  0  0  0  0  0  0  0
    9.8038  -16.2170   25.1747 C   0  0  1  0  0  0  0  0  0  0  0  0
    9.5444  -15.0389   26.0818 C   0  0  0  0  0  0  0  0  0  0  0  0
    8.1257  -14.6148   26.0816 C   0  0  0  0  0  0  0  0  0  0  0  0
    7.0767  -15.4411   25.7166 C   0  0  0  0  0  0  0  0  0  0  0  0
    5.9621  -14.7119   25.8396 N   0  0  0  0  0  0  0  0  0  0  0  0
    6.2672  -13.4710   26.2644 C   0  0  0  0  0  0  0  0  0  0  0  0
    5.4697  -12.3845   26.5318 C   0  0  0  0  0  0  0  0  0  0  0  0
    6.0340  -11.2082   26.9613 C   0  0  0  0  0  0  0  0  0  0  0  0
    7.4007  -11.1088   27.1269 C   0  0  0  0  0  0  0  0  0  0  0  0
    8.2120  -12.1957   26.8601 C   0  0  0  0  0  0  0  0  0  0  0  0
    7.6335  -13.3745   26.4284 C   0  0  0  0  0  0  0  0  0  0  0  0
   10.1186  -17.3801   26.0044 C   0  0  0  0  0  0  0  0  0  0  0  0
   11.0562  -17.3308   26.8713 O   0  0  0  0  0  0  0  0  0  0  0  0
    9.4105  -18.5519   25.8670 O   0  0  0  0  0  0  0  0  0  0  0  0
  2  1  1  6
  2  3  1  0
  3  4  1  0
  4  8  1  0
  4  5  2  0
  5  6  1  0
  7  6  1  0
  8  7  2  0
  9  2  1  0
  9 10  2  0
 11 12  1  0
 12 22  2  0
 13 14  2  0
 13 12  1  0
 14 15  1  0
 15 21  2  0
 16 15  1  0
 17 18  1  0
 17 16  1  1
 18  9  1  0
 19 17  1  0
 20 19  2  0
 21 22  1  0
 23 19  1  0
 24 25  1  1
 24 23  1  0
 25 26  1  0
 26 27  2  0
 26 34  1  0
 27 28  1  0
 28 29  1  0
 29 30  2  0
 30 31  1  0
 32 31  2  0
 33 32  1  0
 34 33  2  0
 34 29  1  0
 35 24  1  0
 36 35  2  0
 37 35  1  0
M  END
$$$$
