HYW.pdb
     RDKit          3D

 37 40  0  0  1  0  0  0  0  0999 V2000
    9.5811  -16.7514   18.5473 N   0  0  0  0  0  0  0  0  0  0  0  0
    9.5574  -15.7847   19.6222 C   0  0  1  0  0  0  0  0  0  0  0  0
    8.1432  -15.3798   19.8802 C   0  0  0  0  0  0  0  0  0  0  0  0
    7.6912  -14.4363   18.8268 C   0  0  0  0  0  0  0  0  0  0  0  0
    8.4596  -13.9590   17.7776 C   0  0  0  0  0  0  0  0  0  0  0  0
    7.7001  -13.1346   17.0436 N   0  0  0  0  0  0  0  0  0  0  0  0
    6.4692  -13.0664   17.5863 C   0  0  0  0  0  0  0  0  0  0  0  0
    6.4761  -13.8625   18.6706 N   0  0  0  0  0  0  0  0  0  0  0  0
   10.2184  -16.3047   20.8469 C   0  0  0  0  0  0  0  0  0  0  0  0
   10.4147  -17.5312   20.9586 O   0  0  0  0  0  0  0  0  0  0  0  0
   15.9824  -15.4513   18.3705 O   0  0  0  0  0  0  0  0  0  0  0  0
   15.2027  -15.4300   19.5202 C   0  0  0  0  0  0  0  0  0  0  0  0
   14.3152  -14.3681   19.6472 C   0  0  0  0  0  0  0  0  0  0  0  0
   13.5360  -14.3300   20.7775 C   0  0  0  0  0  0  0  0  0  0  0  0
   13.5763  -15.2780   21.7964 C   0  0  0  0  0  0  0  0  0  0  0  0
   12.7610  -15.1966   22.9998 C   0  0  0  0  0  0  0  0  0  0  0  0
   11.4648  -15.9153   23.0192 C   0  0  2  0  0  0  0  0  0  0  0  0
   10.6368  -15.4647   21.8971 N   0  0  0  0  0  0  0  0  0  0  0  0
   10.6328  -15.8063   24.2137 C   0  0  0  0  0  0  0  0  0  0  0  0
   10.2591  -14.6618   24.6008 O   0  0  0  0  0  0  0  0  0  0  0  0
   14.4705  -16.3127   21.6288 C   0  0  0  0  0  0  0  0  0  0  0  0
   15.2687  -16.3851   20.5089 C   0  0  0  0  0  0  0  0  0  0  0  0
   10.1686  -16.8754   25.0245 N   0  0  0  0  0  0  0  0  0  0  0  0
    9.8925  -16.7106   26.4381 C   0  0  1  0  0  0  0  0  0  0  0  0
    8.4165  -16.7148   26.7533 C   0  0  0  0  0  0  0  0  0  0  0  0
    7.6552  -15.7288   25.9527 C   0  0  0  0  0  0  0  0  0  0  0  0
    6.8691  -16.0656   24.8642 C   0  0  0  0  0  0  0  0  0  0  0  0
    6.3507  -14.9211   24.4051 N   0  0  0  0  0  0  0  0  0  0  0  0
    6.7761  -13.8878   25.1566 C   0  0  0  0  0  0  0  0  0  0  0  0
    6.5166  -12.5411   25.0732 C   0  0  0  0  0  0  0  0  0  0  0  0
    7.0834  -11.6759   25.9770 C   0  0  0  0  0  0  0  0  0  0  0  0
    7.9145  -12.1504   26.9716 C   0  0  0  0  0  0  0  0  0  0  0  0
    8.1825  -13.5033   27.0639 C   0  0  0  0  0  0  0  0  0  0  0  0
    7.6068  -14.3650   26.1492 C   0  0  0  0  0  0  0  0  0  0  0  0
   10.5560  -17.6770   27.3134 C   0  0  0  0  0  0  0  0  0  0  0  0
   11.1971  -18.6690   26.8256 O   0  0  0  0  0  0  0  0  0  0  0  0
   10.5023  -17.5367   28.6812 O   0  0  0  0  0  0  0  0  0  0  0  0
  2  1  1  6
  2  3  1  0
  3  4  1  0
  4  8  1  0
  4  5  2  0
  5  6  1  0
  7  6  1  0
  8  7  2  0
  9  2  1  0
  9 10  2  0
 11 12  1  0
 12 22  2  0
 13 14  2  0
 13 12  1  0
 14 15  1  0
 15 21  2  0
 16 15  1  0
 17 18  1  0
 17 16  1  1
 18  9  1  0
 19 17  1  0
 20 19  2  0
 21 22  1  0
 23 19  1  0
 24 25  1  6
 24 23  1  0
 25 26  1  0
 26 27  2  0
 26 34  1  0
 27 28  1  0
 28 29  1  0
 29 30  2  0
 30 31  1  0
 32 31  2  0
 33 32  1  0
 34 33  2  0
 34 29  1  0
 35 24  1  0
 36 35  2  0
 37 35  1  0
M  END
$$$$
