HYW.pdb
     RDKit          3D

 37 40  0  0  1  0  0  0  0  0999 V2000
  -64.2779  -33.8185   -5.0836 N   0  0  0  0  0  0  0  0  0  0  0  0
  -63.4882  -34.5297   -6.0640 C   0  0  1  0  0  0  0  0  0  0  0  0
  -64.2900  -35.6704   -6.5989 C   0  0  0  0  0  0  0  0  0  0  0  0
  -65.2333  -36.1522   -5.5585 C   0  0  0  0  0  0  0  0  0  0  0  0
  -66.5656  -35.7920   -5.4383 C   0  0  0  0  0  0  0  0  0  0  0  0
  -67.0793  -36.4348   -4.3809 N   0  0  0  0  0  0  0  0  0  0  0  0
  -66.1215  -37.1959   -3.8177 C   0  0  0  0  0  0  0  0  0  0  0  0
  -65.0028  -37.0157   -4.5429 N   0  0  0  0  0  0  0  0  0  0  0  0
  -63.0113  -33.6305   -7.1462 C   0  0  0  0  0  0  0  0  0  0  0  0
  -62.3994  -34.1181   -8.1174 O   0  0  0  0  0  0  0  0  0  0  0  0
  -65.0065  -25.6510   -3.5332 O   0  0  0  0  0  0  0  0  0  0  0  0
  -64.4008  -26.7427   -4.1429 C   0  0  0  0  0  0  0  0  0  0  0  0
  -65.2220  -27.8267   -4.4290 C   0  0  0  0  0  0  0  0  0  0  0  0
  -64.6409  -28.9156   -5.0315 C   0  0  0  0  0  0  0  0  0  0  0  0
  -63.2938  -29.0039   -5.3719 C   0  0  0  0  0  0  0  0  0  0  0  0
  -62.6968  -30.1833   -5.9820 C   0  0  0  0  0  0  0  0  0  0  0  0
  -63.4321  -31.4673   -5.8942 C   0  0  2  0  0  0  0  0  0  0  0  0
  -63.2222  -32.2382   -7.1227 N   0  0  0  0  0  0  0  0  0  0  0  0
  -64.8751  -31.4231   -5.6782 C   0  0  0  0  0  0  0  0  0  0  0  0
  -65.3616  -31.9864   -4.6557 O   0  0  0  0  0  0  0  0  0  0  0  0
  -62.5173  -27.9066   -5.0697 C   0  0  0  0  0  0  0  0  0  0  0  0
  -63.0640  -26.7964   -4.4657 C   0  0  0  0  0  0  0  0  0  0  0  0
  -65.8383  -30.7932   -6.5096 N   0  0  0  0  0  0  0  0  0  0  0  0
  -65.6875  -30.7200   -7.9496 C   0  0  1  0  0  0  0  0  0  0  0  0
  -66.9468  -30.2721   -8.6506 C   0  0  0  0  0  0  0  0  0  0  0  0
  -66.7257  -29.1123   -9.5442 C   0  0  0  0  0  0  0  0  0  0  0  0
  -67.7114  -28.1988   -9.8759 C   0  0  0  0  0  0  0  0  0  0  0  0
  -67.1403  -27.3085  -10.6948 N   0  0  0  0  0  0  0  0  0  0  0  0
  -65.8455  -27.6241  -10.8883 C   0  0  0  0  0  0  0  0  0  0  0  0
  -64.8681  -27.0155  -11.6382 C   0  0  0  0  0  0  0  0  0  0  0  0
  -63.6005  -27.5434  -11.6716 C   0  0  0  0  0  0  0  0  0  0  0  0
  -63.2999  -28.6844  -10.9554 C   0  0  0  0  0  0  0  0  0  0  0  0
  -64.2760  -29.3046  -10.1983 C   0  0  0  0  0  0  0  0  0  0  0  0
  -65.5482  -28.7649  -10.1718 C   0  0  0  0  0  0  0  0  0  0  0  0
  -64.5780  -29.8864   -8.4125 C   0  0  0  0  0  0  0  0  0  0  0  0
  -63.6551  -29.5199   -7.6081 O   0  0  0  0  0  0  0  0  0  0  0  0
  -64.5065  -29.4797   -9.7250 O   0  0  0  0  0  0  0  0  0  0  0  0
  2  1  1  1
  2  3  1  0
  3  4  1  0
  4  8  1  0
  4  5  2  0
  5  6  1  0
  7  6  1  0
  8  7  2  0
  9  2  1  0
  9 10  2  0
 11 12  1  0
 12 22  2  0
 13 14  2  0
 13 12  1  0
 14 15  1  0
 15 21  2  0
 16 15  1  0
 17 18  1  0
 17 16  1  6
 18  9  1  0
 19 17  1  0
 20 19  2  0
 21 22  1  0
 23 19  1  0
 24 25  1  6
 24 23  1  0
 25 26  1  0
 26 27  2  0
 26 34  1  0
 27 28  1  0
 28 29  1  0
 29 30  2  0
 30 31  1  0
 32 31  2  0
 33 32  1  0
 34 33  2  0
 34 29  1  0
 35 24  1  0
 36 35  2  0
 37 35  1  0
M  END
$$$$
