HYW.pdb
     RDKit          3D

 37 40  0  0  1  0  0  0  0  0999 V2000
   10.6856  -16.7752   19.4648 N   0  0  0  0  0  0  0  0  0  0  0  0
   10.2855  -15.8068   20.4611 C   0  0  1  0  0  0  0  0  0  0  0  0
    8.8836  -15.3741   20.1824 C   0  0  0  0  0  0  0  0  0  0  0  0
    8.8160  -14.7176   18.8524 C   0  0  0  0  0  0  0  0  0  0  0  0
    9.0604  -13.3790   18.5922 C   0  0  0  0  0  0  0  0  0  0  0  0
    8.9011  -13.1722   17.2781 N   0  0  0  0  0  0  0  0  0  0  0  0
    8.5624  -14.3332   16.6852 C   0  0  0  0  0  0  0  0  0  0  0  0
    8.5138  -15.2661   17.6533 N   0  0  0  0  0  0  0  0  0  0  0  0
   10.4389  -16.3380   21.8401 C   0  0  0  0  0  0  0  0  0  0  0  0
   10.1926  -17.5406   22.0600 O   0  0  0  0  0  0  0  0  0  0  0  0
   11.2417  -15.5937   30.7894 O   0  0  0  0  0  0  0  0  0  0  0  0
   11.2448  -15.3871   29.4154 C   0  0  0  0  0  0  0  0  0  0  0  0
   11.7747  -16.4089   28.6367 C   0  0  0  0  0  0  0  0  0  0  0  0
   11.7865  -16.2226   27.2760 C   0  0  0  0  0  0  0  0  0  0  0  0
   11.3061  -15.0863   26.6307 C   0  0  0  0  0  0  0  0  0  0  0  0
   11.3595  -14.9011   25.1877 C   0  0  0  0  0  0  0  0  0  0  0  0
   10.7612  -15.9460   24.3233 C   0  0  2  0  0  0  0  0  0  0  0  0
   10.8543  -15.5348   22.9198 N   0  0  0  0  0  0  0  0  0  0  0  0
    9.3678  -16.3164   24.5515 C   0  0  0  0  0  0  0  0  0  0  0  0
    8.4811  -15.4147   24.5355 O   0  0  0  0  0  0  0  0  0  0  0  0
   10.7902  -14.0992   27.4417 C   0  0  0  0  0  0  0  0  0  0  0  0
   10.7612  -14.2496   28.8102 C   0  0  0  0  0  0  0  0  0  0  0  0
    8.8660  -17.6221   24.7943 N   0  0  0  0  0  0  0  0  0  0  0  0
    7.6401  -17.8548   25.5324 C   0  0  1  0  0  0  0  0  0  0  0  0
    6.4646  -17.0888   24.9763 C   0  0  0  0  0  0  0  0  0  0  0  0
    6.2313  -15.8055   25.6772 C   0  0  0  0  0  0  0  0  0  0  0  0
    5.5608  -15.6997   26.8837 C   0  0  0  0  0  0  0  0  0  0  0  0
    5.5472  -14.3986   27.1944 N   0  0  0  0  0  0  0  0  0  0  0  0
    6.1779  -13.6895   26.2391 C   0  0  0  0  0  0  0  0  0  0  0  0
    6.4136  -12.3410   26.1202 C   0  0  0  0  0  0  0  0  0  0  0  0
    7.0931  -11.8569   25.0292 C   0  0  0  0  0  0  0  0  0  0  0  0
    7.5424  -12.7173   24.0479 C   0  0  0  0  0  0  0  0  0  0  0  0
    7.3101  -14.0755   24.1576 C   0  0  0  0  0  0  0  0  0  0  0  0
    6.6253  -14.5519   25.2597 C   0  0  0  0  0  0  0  0  0  0  0  0
    7.2566  -19.2603   25.6648 C   0  0  0  0  0  0  0  0  0  0  0  0
    7.9032  -20.1755   25.0505 O   0  0  0  0  0  0  0  0  0  0  0  0
    6.1901  -19.6250   26.4542 O   0  0  0  0  0  0  0  0  0  0  0  0
  2  1  1  6
  2  3  1  0
  3  4  1  0
  4  8  1  0
  4  5  2  0
  5  6  1  0
  7  6  1  0
  8  7  2  0
  9  2  1  0
  9 10  2  0
 11 12  1  0
 12 22  2  0
 13 14  2  0
 13 12  1  0
 14 15  1  0
 15 21  2  0
 16 15  1  0
 17 18  1  0
 17 16  1  1
 18  9  1  0
 19 17  1  0
 20 19  2  0
 21 22  1  0
 23 19  1  0
 24 25  1  6
 24 23  1  0
 25 26  1  0
 26 27  2  0
 26 34  1  0
 27 28  1  0
 28 29  1  0
 29 30  2  0
 30 31  1  0
 32 31  2  0
 33 32  1  0
 34 33  2  0
 34 29  1  0
 35 24  1  0
 36 35  2  0
 37 35  1  0
M  END
$$$$
