HYW.pdb
     RDKit          3D

 37 40  0  0  1  0  0  0  0  0999 V2000
    7.4792  -16.8617   18.5207 N   0  0  0  0  0  0  0  0  0  0  0  0
    8.5333  -16.2458   19.2954 C   0  0  1  0  0  0  0  0  0  0  0  0
    8.2868  -14.7746   19.3677 C   0  0  0  0  0  0  0  0  0  0  0  0
    8.3268  -14.1913   18.0030 C   0  0  0  0  0  0  0  0  0  0  0  0
    8.6110  -14.8767   16.8331 C   0  0  0  0  0  0  0  0  0  0  0  0
    8.5483  -14.0092   15.8139 N   0  0  0  0  0  0  0  0  0  0  0  0
    8.2332  -12.7892   16.2901 C   0  0  0  0  0  0  0  0  0  0  0  0
    8.1010  -12.9127   17.6231 N   0  0  0  0  0  0  0  0  0  0  0  0
    8.6551  -16.8555   20.6447 C   0  0  0  0  0  0  0  0  0  0  0  0
    7.6808  -16.8128   21.4221 O   0  0  0  0  0  0  0  0  0  0  0  0
   12.2317  -22.1831   26.9089 O   0  0  0  0  0  0  0  0  0  0  0  0
   11.8645  -21.5028   25.7545 C   0  0  0  0  0  0  0  0  0  0  0  0
   12.8359  -20.6940   25.1769 C   0  0  0  0  0  0  0  0  0  0  0  0
   12.4913  -20.0132   24.0349 C   0  0  0  0  0  0  0  0  0  0  0  0
   11.2426  -20.0797   23.4227 C   0  0  0  0  0  0  0  0  0  0  0  0
   10.8935  -19.3226   22.2293 C   0  0  0  0  0  0  0  0  0  0  0  0
    9.9490  -18.1889   22.3686 C   0  0  2  0  0  0  0  0  0  0  0  0
    9.8341  -17.4853   21.0882 N   0  0  0  0  0  0  0  0  0  0  0  0
   10.2371  -17.1697   23.3731 C   0  0  0  0  0  0  0  0  0  0  0  0
   11.1329  -16.3088   23.1368 O   0  0  0  0  0  0  0  0  0  0  0  0
   10.3108  -20.8933   24.0296 C   0  0  0  0  0  0  0  0  0  0  0  0
   10.6192  -21.5917   25.1756 C   0  0  0  0  0  0  0  0  0  0  0  0
    9.6027  -17.0185   24.6343 N   0  0  0  0  0  0  0  0  0  0  0  0
   10.2721  -16.4141   25.7693 C   0  0  1  0  0  0  0  0  0  0  0  0
    9.9843  -14.9387   25.9044 C   0  0  0  0  0  0  0  0  0  0  0  0
    8.5353  -14.6336   25.9047 C   0  0  0  0  0  0  0  0  0  0  0  0
    7.5496  -15.5846   25.7038 C   0  0  0  0  0  0  0  0  0  0  0  0
    6.3813  -14.9365   25.7705 N   0  0  0  0  0  0  0  0  0  0  0  0
    6.5927  -13.6274   26.0040 C   0  0  0  0  0  0  0  0  0  0  0  0
    5.7143  -12.5808   26.1501 C   0  0  0  0  0  0  0  0  0  0  0  0
    6.1895  -11.3140   26.3863 C   0  0  0  0  0  0  0  0  0  0  0  0
    7.5472  -11.0832   26.4784 C   0  0  0  0  0  0  0  0  0  0  0  0
    8.4394  -12.1289   26.3325 C   0  0  0  0  0  0  0  0  0  0  0  0
    7.9503  -13.3997   26.0950 C   0  0  0  0  0  0  0  0  0  0  0  0
   10.0078  -17.0575   27.0563 C   0  0  0  0  0  0  0  0  0  0  0  0
    9.0816  -17.9301   27.1735 O   0  0  0  0  0  0  0  0  0  0  0  0
   10.7523  -16.7350   28.1677 O   0  0  0  0  0  0  0  0  0  0  0  0
  2  1  1  1
  2  3  1  0
  3  4  1  0
  4  8  1  0
  4  5  2  0
  5  6  1  0
  7  6  1  0
  8  7  2  0
  9  2  1  0
  9 10  2  0
 11 12  1  0
 12 22  2  0
 13 14  2  0
 13 12  1  0
 14 15  1  0
 15 21  2  0
 16 15  1  0
 17 18  1  0
 17 16  1  6
 18  9  1  0
 19 17  1  0
 20 19  2  0
 21 22  1  0
 23 19  1  0
 24 25  1  1
 24 23  1  0
 25 26  1  0
 26 27  2  0
 26 34  1  0
 27 28  1  0
 28 29  1  0
 29 30  2  0
 30 31  1  0
 32 31  2  0
 33 32  1  0
 34 33  2  0
 34 29  1  0
 35 24  1  0
 36 35  2  0
 37 35  1  0
M  END
$$$$
