ATF.pdb
     RDKit          3D

 24 24  0  0  1  0  0  0  0  0999 V2000
    8.6660  -12.3016   19.2642 C   0  0  0  0  0  0  0  0  0  0  0  0
    8.6257  -13.7585   18.8682 C   0  0  2  0  0  0  0  0  0  0  0  0
    7.8018  -13.9457   17.6969 N   0  0  0  0  0  0  0  0  0  0  0  0
    8.2277  -14.6435   19.9881 C   0  0  0  0  0  0  0  0  0  0  0  0
    7.0025  -14.7853   20.1974 O   0  0  0  0  0  0  0  0  0  0  0  0
    8.1664  -18.0090   20.3550 C   0  0  0  0  0  0  0  0  0  0  0  0
    8.9690  -17.6285   21.5808 C   0  0  1  0  0  0  0  0  0  0  0  0
   10.3087  -17.9330   21.2764 O   0  0  0  0  0  0  0  0  0  0  0  0
    8.8543  -16.1843   21.9057 C   0  0  2  0  0  0  0  0  0  0  0  0
    9.1865  -15.3145   20.8050 N   0  0  0  0  0  0  0  0  0  0  0  0
    9.6118  -15.7681   23.1132 C   0  0  0  0  0  0  0  0  0  0  0  0
   10.7215  -15.2151   22.9575 O   0  0  0  0  0  0  0  0  0  0  0  0
    9.1442  -15.9645   24.4256 N   0  0  0  0  0  0  0  0  0  0  0  0
    9.7908  -15.5966   25.6533 C   0  0  1  0  0  0  0  0  0  0  0  0
    9.8340  -14.1351   25.8857 C   0  0  0  0  0  0  0  0  0  0  0  0
    8.5052  -13.5475   26.1193 C   0  0  0  0  0  0  0  0  0  0  0  0
    7.5077  -13.6684   25.1501 C   0  0  0  0  0  0  0  0  0  0  0  0
    6.2390  -13.1553   25.3379 C   0  0  0  0  0  0  0  0  0  0  0  0
    5.9118  -12.4993   26.5020 C   0  0  0  0  0  0  0  0  0  0  0  0
    6.8812  -12.3707   27.4675 C   0  0  0  0  0  0  0  0  0  0  0  0
    8.1375  -12.8867   27.2647 C   0  0  0  0  0  0  0  0  0  0  0  0
    9.3474  -16.3796   26.8319 C   0  0  0  0  0  0  0  0  0  0  0  0
    9.9552  -16.1702   27.9334 O   0  0  0  0  0  0  0  0  0  0  0  0
    8.3268  -17.3135   26.8231 O   0  0  0  0  0  0  0  0  0  0  0  0
  2  4  1  0
  2  3  1  0
  2  1  1  1
  4  5  2  0
  7  6  1  6
  7  9  1  0
  8  7  1  0
  9 11  1  0
  9 10  1  6
 10  4  1  0
 11 12  2  0
 11 13  1  0
 13 14  1  0
 14 22  1  0
 14 15  1  1
 16 15  1  0
 16 21  2  0
 17 16  1  0
 18 17  2  0
 18 19  1  0
 19 20  2  0
 20 21  1  0
 22 23  2  0
 22 24  1  0
M  END
$$$$
