ATF.pdb
     RDKit          3D

 24 24  0  0  1  0  0  0  0  0999 V2000
   10.3714  -19.6750   21.8983 C   0  0  0  0  0  0  0  0  0  0  0  0
    9.7241  -18.8228   20.8326 C   0  0  2  0  0  0  0  0  0  0  0  0
   10.3379  -19.0607   19.5471 N   0  0  0  0  0  0  0  0  0  0  0  0
    9.6971  -17.3849   21.1900 C   0  0  0  0  0  0  0  0  0  0  0  0
   10.7530  -16.7347   21.0252 O   0  0  0  0  0  0  0  0  0  0  0  0
    7.0100  -14.8362   19.8125 C   0  0  0  0  0  0  0  0  0  0  0  0
    7.0728  -14.8138   21.3248 C   0  0  1  0  0  0  0  0  0  0  0  0
    6.0300  -15.6483   21.7681 O   0  0  0  0  0  0  0  0  0  0  0  0
    8.3664  -15.3246   21.8444 C   0  0  2  0  0  0  0  0  0  0  0  0
    8.5258  -16.7505   21.7021 N   0  0  0  0  0  0  0  0  0  0  0  0
    8.6601  -14.9299   23.2456 C   0  0  0  0  0  0  0  0  0  0  0  0
    8.2754  -13.8085   23.6404 O   0  0  0  0  0  0  0  0  0  0  0  0
    9.3503  -15.7544   24.1529 N   0  0  0  0  0  0  0  0  0  0  0  0
    9.2797  -15.7355   25.5866 C   0  0  1  0  0  0  0  0  0  0  0  0
    7.8992  -15.6276   26.1107 C   0  0  0  0  0  0  0  0  0  0  0  0
    7.4704  -14.2368   26.3277 C   0  0  0  0  0  0  0  0  0  0  0  0
    6.1195  -13.8988   26.2295 C   0  0  0  0  0  0  0  0  0  0  0  0
    5.6693  -12.6117   26.4507 C   0  0  0  0  0  0  0  0  0  0  0  0
    6.5490  -11.6066   26.7796 C   0  0  0  0  0  0  0  0  0  0  0  0
    7.8831  -11.9209   26.8809 C   0  0  0  0  0  0  0  0  0  0  0  0
    8.3138  -13.2055   26.6577 C   0  0  0  0  0  0  0  0  0  0  0  0
   10.0937  -16.7831   26.2490 C   0  0  0  0  0  0  0  0  0  0  0  0
   10.4423  -17.7852   25.5413 O   0  0  0  0  0  0  0  0  0  0  0  0
   10.5015  -16.7507   27.5705 O   0  0  0  0  0  0  0  0  0  0  0  0
  2  4  1  0
  2  3  1  0
  2  1  1  1
  4  5  2  0
  7  6  1  6
  7  9  1  0
  8  7  1  0
  9 11  1  0
  9 10  1  1
 10  4  1  0
 11 12  2  0
 11 13  1  0
 13 14  1  0
 14 22  1  0
 14 15  1  6
 16 15  1  0
 16 21  2  0
 17 16  1  0
 18 17  2  0
 18 19  1  0
 19 20  2  0
 20 21  1  0
 22 23  2  0
 22 24  1  0
M  END
$$$$
