ATF.pdb
     RDKit          3D

 24 24  0  0  1  0  0  0  0  0999 V2000
    8.6273  -12.3690   19.1071 C   0  0  0  0  0  0  0  0  0  0  0  0
    8.4888  -13.8391   18.7896 C   0  0  2  0  0  0  0  0  0  0  0  0
    7.7432  -14.0286   17.5673 N   0  0  0  0  0  0  0  0  0  0  0  0
    7.9302  -14.6170   19.9203 C   0  0  0  0  0  0  0  0  0  0  0  0
    6.6972  -14.5367   20.1160 O   0  0  0  0  0  0  0  0  0  0  0  0
    7.2011  -17.8488   20.3660 C   0  0  0  0  0  0  0  0  0  0  0  0
    8.0547  -17.6265   21.5963 C   0  0  1  0  0  0  0  0  0  0  0  0
    9.2963  -18.2283   21.3199 O   0  0  0  0  0  0  0  0  0  0  0  0
    8.2605  -16.1856   21.8887 C   0  0  2  0  0  0  0  0  0  0  0  0
    8.7478  -15.4294   20.7620 N   0  0  0  0  0  0  0  0  0  0  0  0
    9.1162  -15.9190   23.0727 C   0  0  0  0  0  0  0  0  0  0  0  0
   10.3348  -15.7105   22.8906 O   0  0  0  0  0  0  0  0  0  0  0  0
    8.6254  -15.8891   24.3909 N   0  0  0  0  0  0  0  0  0  0  0  0
    9.3692  -15.6829   25.6013 C   0  0  1  0  0  0  0  0  0  0  0  0
    9.5375  -14.2558   25.9578 C   0  0  0  0  0  0  0  0  0  0  0  0
    8.2593  -13.5595   26.1737 C   0  0  0  0  0  0  0  0  0  0  0  0
    8.0366  -12.8601   27.3612 C   0  0  0  0  0  0  0  0  0  0  0  0
    6.8626  -12.1708   27.5953 C   0  0  0  0  0  0  0  0  0  0  0  0
    5.8603  -12.1502   26.6533 C   0  0  0  0  0  0  0  0  0  0  0  0
    6.0620  -12.8332   25.4779 C   0  0  0  0  0  0  0  0  0  0  0  0
    7.2350  -13.5134   25.2613 C   0  0  0  0  0  0  0  0  0  0  0  0
    8.9372  -16.5381   26.7331 C   0  0  0  0  0  0  0  0  0  0  0  0
    7.8942  -17.2513   26.5601 O   0  0  0  0  0  0  0  0  0  0  0  0
    9.5816  -16.6190   27.9545 O   0  0  0  0  0  0  0  0  0  0  0  0
  2  4  1  0
  2  3  1  0
  2  1  1  1
  4  5  2  0
  7  6  1  6
  7  9  1  0
  8  7  1  0
  9 11  1  0
  9 10  1  6
 10  4  1  0
 11 12  2  0
 11 13  1  0
 13 14  1  0
 14 22  1  0
 14 15  1  1
 16 15  1  0
 16 21  2  0
 17 16  1  0
 18 17  2  0
 18 19  1  0
 19 20  2  0
 20 21  1  0
 22 23  2  0
 22 24  1  0
M  END
$$$$
