ATF.pdb
     RDKit          3D

 24 24  0  0  1  0  0  0  0  0999 V2000
    8.4998  -11.9986   19.9026 C   0  0  0  0  0  0  0  0  0  0  0  0
    8.5898  -13.4253   19.4153 C   0  0  2  0  0  0  0  0  0  0  0  0
    7.9106  -13.5755   18.1496 N   0  0  0  0  0  0  0  0  0  0  0  0
    8.1261  -14.4041   20.4267 C   0  0  0  0  0  0  0  0  0  0  0  0
    6.9062  -14.6807   20.4377 O   0  0  0  0  0  0  0  0  0  0  0  0
    8.4393  -17.7019   20.3736 C   0  0  0  0  0  0  0  0  0  0  0  0
    9.0066  -17.4346   21.7514 C   0  0  1  0  0  0  0  0  0  0  0  0
   10.4043  -17.5331   21.6205 O   0  0  0  0  0  0  0  0  0  0  0  0
    8.6537  -16.0835   22.2557 C   0  0  2  0  0  0  0  0  0  0  0  0
    9.0182  -15.0162   21.3575 N   0  0  0  0  0  0  0  0  0  0  0  0
    9.1697  -15.7855   23.6159 C   0  0  0  0  0  0  0  0  0  0  0  0
   10.2224  -15.1203   23.7198 O   0  0  0  0  0  0  0  0  0  0  0  0
    8.5337  -16.2139   24.7955 N   0  0  0  0  0  0  0  0  0  0  0  0
    8.9742  -16.0273   26.1490 C   0  0  1  0  0  0  0  0  0  0  0  0
    7.9071  -15.5545   27.0598 C   0  0  0  0  0  0  0  0  0  0  0  0
    7.4147  -14.2091   26.7240 C   0  0  0  0  0  0  0  0  0  0  0  0
    8.2080  -13.0900   26.9833 C   0  0  0  0  0  0  0  0  0  0  0  0
    7.7971  -11.8112   26.6609 C   0  0  0  0  0  0  0  0  0  0  0  0
    6.5759  -11.5949   26.0655 C   0  0  0  0  0  0  0  0  0  0  0  0
    5.7813  -12.6850   25.8026 C   0  0  0  0  0  0  0  0  0  0  0  0
    6.2051  -13.9496   26.1297 C   0  0  0  0  0  0  0  0  0  0  0  0
    9.7697  -17.1557   26.6901 C   0  0  0  0  0  0  0  0  0  0  0  0
   10.3066  -16.9943   27.8356 O   0  0  0  0  0  0  0  0  0  0  0  0
    9.9682  -18.3642   26.0466 O   0  0  0  0  0  0  0  0  0  0  0  0
  2  4  1  0
  2  3  1  0
  2  1  1  1
  4  5  2  0
  7  6  1  6
  7  9  1  0
  8  7  1  0
  9 11  1  0
  9 10  1  6
 10  4  1  0
 11 12  2  0
 11 13  1  0
 13 14  1  0
 14 22  1  0
 14 15  1  1
 16 15  1  0
 16 21  2  0
 17 16  1  0
 18 17  2  0
 18 19  1  0
 19 20  2  0
 20 21  1  0
 22 23  2  0
 22 24  1  0
M  END
$$$$
