ATF.pdb
     RDKit          3D

 24 24  0  0  1  0  0  0  0  0999 V2000
    7.6365  -12.3940   18.7496 C   0  0  0  0  0  0  0  0  0  0  0  0
    8.6891  -13.3387   19.2791 C   0  0  2  0  0  0  0  0  0  0  0  0
    9.1582  -14.2174   18.2333 N   0  0  0  0  0  0  0  0  0  0  0  0
    8.2389  -14.0789   20.4813 C   0  0  0  0  0  0  0  0  0  0  0  0
    7.8188  -13.4019   21.4457 O   0  0  0  0  0  0  0  0  0  0  0  0
    6.6900  -17.9310   20.2926 C   0  0  0  0  0  0  0  0  0  0  0  0
    7.6669  -17.7110   21.4279 C   0  0  1  0  0  0  0  0  0  0  0  0
    8.8785  -18.2956   21.0148 O   0  0  0  0  0  0  0  0  0  0  0  0
    7.8875  -16.2707   21.7127 C   0  0  2  0  0  0  0  0  0  0  0  0
    8.2752  -15.5037   20.5551 N   0  0  0  0  0  0  0  0  0  0  0  0
    8.8367  -16.0065   22.8237 C   0  0  0  0  0  0  0  0  0  0  0  0
    9.9656  -15.5490   22.5450 O   0  0  0  0  0  0  0  0  0  0  0  0
    8.5304  -16.2449   24.1760 N   0  0  0  0  0  0  0  0  0  0  0  0
    9.3479  -15.9713   25.3239 C   0  0  1  0  0  0  0  0  0  0  0  0
    9.5922  -14.5282   25.5472 C   0  0  0  0  0  0  0  0  0  0  0  0
    8.3831  -13.7931   25.9512 C   0  0  0  0  0  0  0  0  0  0  0  0
    8.3275  -13.1728   27.2007 C   0  0  0  0  0  0  0  0  0  0  0  0
    7.2235  -12.4508   27.6106 C   0  0  0  0  0  0  0  0  0  0  0  0
    6.1273  -12.3172   26.7902 C   0  0  0  0  0  0  0  0  0  0  0  0
    6.1642  -12.9212   25.5563 C   0  0  0  0  0  0  0  0  0  0  0  0
    7.2697  -13.6353   25.1644 C   0  0  0  0  0  0  0  0  0  0  0  0
    8.9460  -16.7088   26.5459 C   0  0  0  0  0  0  0  0  0  0  0  0
    9.6923  -16.5865   27.5728 O   0  0  0  0  0  0  0  0  0  0  0  0
    7.8255  -17.5131   26.6521 O   0  0  0  0  0  0  0  0  0  0  0  0
  2  4  1  0
  2  3  1  0
  2  1  1  6
  4  5  2  0
  7  6  1  6
  7  9  1  0
  8  7  1  0
  9 11  1  0
  9 10  1  6
 10  4  1  0
 11 12  2  0
 11 13  1  0
 13 14  1  0
 14 22  1  0
 14 15  1  1
 16 15  1  0
 16 21  2  0
 17 16  1  0
 18 17  2  0
 18 19  1  0
 19 20  2  0
 20 21  1  0
 22 23  2  0
 22 24  1  0
M  END
$$$$
