NMP.pdb
     RDKit          3D

 24 24  0  0  1  0  0  0  0  0999 V2000
   19.0808  -22.8035  -13.7614 N   0  0  0  0  0  0  0  0  0  0  0  0
   19.3175  -21.6812  -14.5732 C   0  0  0  0  0  0  0  0  0  0  0  0
   18.6319  -21.4737  -15.5932 O   0  0  0  0  0  0  0  0  0  0  0  0
   20.3925  -20.7275  -14.2208 C   0  0  0  0  0  0  0  0  0  0  0  0
   21.1181  -21.2066  -12.9757 C   0  0  2  0  0  0  0  0  0  0  0  0
   20.2781  -20.9161  -11.8555 N   0  0  0  0  0  0  0  0  0  0  0  0
   22.4411  -20.5179  -12.9205 C   0  0  0  0  0  0  0  0  0  0  0  0
   22.5077  -19.2641  -12.9984 O   0  0  0  0  0  0  0  0  0  0  0  0
   26.1806  -20.2173   -7.3500 C   0  0  0  0  0  0  0  0  0  0  0  0
   26.5084  -21.0004   -8.9368 S   0  0  0  0  0  0  0  0  0  0  0  0
   25.3913  -20.3150  -10.2429 C   0  0  0  0  0  0  0  0  0  0  0  0
   25.7363  -20.9273  -11.5636 C   0  0  0  0  0  0  0  0  0  0  0  0
   24.9347  -20.4554  -12.7432 C   0  0  2  0  0  0  0  0  0  0  0  0
   23.6733  -21.2198  -12.7799 N   0  0  0  0  0  0  0  0  0  0  0  0
   25.6686  -20.7047  -13.9913 C   0  0  0  0  0  0  0  0  0  0  0  0
   25.0682  -21.6464  -14.6988 O   0  0  0  0  0  0  0  0  0  0  0  0
   26.8215  -20.1424  -14.5105 N   0  0  0  0  0  0  0  0  0  0  0  0
   27.8490  -19.3171  -14.0036 C   0  0  0  0  0  0  0  0  0  0  0  0
   27.7579  -18.1509  -15.0225 C   0  0  0  0  0  0  0  0  0  0  0  0
   27.6211  -18.9580  -16.3190 C   0  0  0  0  0  0  0  0  0  0  0  0
   27.2536  -20.3686  -15.9088 C   0  0  1  0  0  0  0  0  0  0  0  0
   28.3621  -21.3228  -15.9889 C   0  0  0  0  0  0  0  0  0  0  0  0
   28.9416  -21.8722  -15.0257 O   0  0  0  0  0  0  0  0  0  0  0  0
   28.8175  -21.6524  -17.2591 O   0  0  0  0  0  0  0  0  0  0  0  0
  1  2  1  0
  2  3  2  0
  4  2  1  0
  5  7  1  0
  5  4  1  0
  5  6  1  1
  7 14  1  0
  7  8  2  0
  9 10  1  0
 10 11  1  0
 12 11  1  0
 13 12  1  1
 14 13  1  0
 15 17  1  0
 15 13  1  0
 16 15  2  0
 17 21  1  0
 18 19  1  0
 18 17  1  0
 19 20  1  0
 20 21  1  0
 21 22  1  1
 22 24  1  0
 23 22  2  0
M  END
$$$$
