NMP.pdb
     RDKit          3D

 24 24  0  0  1  0  0  0  0  0999 V2000
   28.5493  -16.4534  -16.1846 N   0  0  0  0  0  0  0  0  0  0  0  0
   28.0914  -17.4461  -17.0673 C   0  0  0  0  0  0  0  0  0  0  0  0
   28.3903  -17.4137  -18.2769 O   0  0  0  0  0  0  0  0  0  0  0  0
   27.2424  -18.5485  -16.5639 C   0  0  0  0  0  0  0  0  0  0  0  0
   28.0542  -19.4459  -15.6464 C   0  0  2  0  0  0  0  0  0  0  0  0
   29.0464  -20.0897  -16.4500 N   0  0  0  0  0  0  0  0  0  0  0  0
   27.1147  -20.3990  -14.9857 C   0  0  0  0  0  0  0  0  0  0  0  0
   26.7530  -21.4476  -15.5791 O   0  0  0  0  0  0  0  0  0  0  0  0
   24.7435  -20.7598   -8.7299 C   0  0  0  0  0  0  0  0  0  0  0  0
   26.5023  -20.9451   -9.0631 S   0  0  0  0  0  0  0  0  0  0  0  0
   26.7903  -21.2985  -10.8564 C   0  0  0  0  0  0  0  0  0  0  0  0
   25.5609  -20.9516  -11.6351 C   0  0  0  0  0  0  0  0  0  0  0  0
   25.6349  -21.1633  -13.1205 C   0  0  2  0  0  0  0  0  0  0  0  0
   26.5864  -20.1843  -13.6798 N   0  0  0  0  0  0  0  0  0  0  0  0
   24.3188  -20.9388  -13.7339 C   0  0  0  0  0  0  0  0  0  0  0  0
   24.2343  -19.7066  -14.2054 O   0  0  0  0  0  0  0  0  0  0  0  0
   23.2195  -21.7655  -13.8853 N   0  0  0  0  0  0  0  0  0  0  0  0
   22.8919  -23.0793  -13.4844 C   0  0  0  0  0  0  0  0  0  0  0  0
   22.5584  -23.6878  -14.8719 C   0  0  0  0  0  0  0  0  0  0  0  0
   21.7219  -22.5430  -15.4555 C   0  0  0  0  0  0  0  0  0  0  0  0
   21.9914  -21.3305  -14.5893 C   0  0  1  0  0  0  0  0  0  0  0  0
   20.9107  -21.0120  -13.6533 C   0  0  0  0  0  0  0  0  0  0  0  0
   19.8162  -20.4753  -13.9355 O   0  0  0  0  0  0  0  0  0  0  0  0
   21.1186  -21.3368  -12.3188 O   0  0  0  0  0  0  0  0  0  0  0  0
  1  2  1  0
  2  3  2  0
  4  2  1  0
  5  7  1  0
  5  4  1  0
  5  6  1  6
  7 14  1  0
  7  8  2  0
  9 10  1  0
 10 11  1  0
 12 11  1  0
 13 12  1  1
 14 13  1  0
 15 17  1  0
 15 13  1  0
 16 15  2  0
 17 21  1  0
 18 19  1  0
 18 17  1  0
 19 20  1  0
 20 21  1  0
 21 22  1  1
 22 24  1  0
 23 22  2  0
M  END
$$$$
