NMP.pdb
     RDKit          3D

 24 24  0  0  1  0  0  0  0  0999 V2000
   20.7902  -21.3996  -17.6822 N   0  0  0  0  0  0  0  0  0  0  0  0
   20.0615  -20.2459  -17.3472 C   0  0  0  0  0  0  0  0  0  0  0  0
   18.9579  -20.0103  -17.8765 O   0  0  0  0  0  0  0  0  0  0  0  0
   20.6029  -19.2919  -16.3541 C   0  0  0  0  0  0  0  0  0  0  0  0
   21.5650  -20.0085  -15.4230 C   0  0  2  0  0  0  0  0  0  0  0  0
   20.8150  -20.4354  -14.2828 N   0  0  0  0  0  0  0  0  0  0  0  0
   22.6703  -19.0635  -15.0872 C   0  0  0  0  0  0  0  0  0  0  0  0
   22.4413  -18.0403  -14.3921 O   0  0  0  0  0  0  0  0  0  0  0  0
   28.6808  -20.5389  -12.0823 C   0  0  0  0  0  0  0  0  0  0  0  0
   27.7804  -21.0063  -13.5688 S   0  0  0  0  0  0  0  0  0  0  0  0
   26.1938  -20.0622  -13.6914 C   0  0  0  0  0  0  0  0  0  0  0  0
   26.3019  -19.0486  -14.7864 C   0  0  0  0  0  0  0  0  0  0  0  0
   25.0478  -18.2888  -15.1131 C   0  0  2  0  0  0  0  0  0  0  0  0
   24.0135  -19.2584  -15.5214 N   0  0  0  0  0  0  0  0  0  0  0  0
   25.2879  -17.3638  -16.2292 C   0  0  0  0  0  0  0  0  0  0  0  0
   24.7603  -17.8400  -17.3439 O   0  0  0  0  0  0  0  0  0  0  0  0
   25.9415  -16.1459  -16.2923 N   0  0  0  0  0  0  0  0  0  0  0  0
   26.7532  -15.3982  -15.4112 C   0  0  0  0  0  0  0  0  0  0  0  0
   25.9428  -14.0756  -15.3870 C   0  0  0  0  0  0  0  0  0  0  0  0
   25.6374  -13.9388  -16.8833 C   0  0  0  0  0  0  0  0  0  0  0  0
   25.9134  -15.2929  -17.5026 C   0  0  1  0  0  0  0  0  0  0  0  0
   27.1719  -15.3641  -18.2486 C   0  0  0  0  0  0  0  0  0  0  0  0
   27.4284  -14.7912  -19.3310 O   0  0  0  0  0  0  0  0  0  0  0  0
   28.1831  -16.1446  -17.7029 O   0  0  0  0  0  0  0  0  0  0  0  0
  1  2  1  0
  2  3  2  0
  4  2  1  0
  5  7  1  0
  5  4  1  0
  5  6  1  1
  7 14  1  0
  7  8  2  0
  9 10  1  0
 10 11  1  0
 12 11  1  0
 13 12  1  6
 14 13  1  0
 15 17  1  0
 15 13  1  0
 16 15  2  0
 17 21  1  0
 18 19  1  0
 18 17  1  0
 19 20  1  0
 20 21  1  0
 21 22  1  1
 22 24  1  0
 23 22  2  0
M  END
$$$$
