NMP.pdb
     RDKit          3D

 24 24  0  0  1  0  0  0  0  0999 V2000
   24.4190  -16.4163  -20.6562 N   0  0  0  0  0  0  0  0  0  0  0  0
   24.9490  -15.1315  -20.8629 C   0  0  0  0  0  0  0  0  0  0  0  0
   25.4304  -14.8081  -21.9663 O   0  0  0  0  0  0  0  0  0  0  0  0
   24.9403  -14.1423  -19.7625 C   0  0  0  0  0  0  0  0  0  0  0  0
   25.6300  -12.8661  -20.2119 C   0  0  2  0  0  0  0  0  0  0  0  0
   27.0278  -13.1506  -20.3124 N   0  0  0  0  0  0  0  0  0  0  0  0
   25.3111  -11.7971  -19.2203 C   0  0  0  0  0  0  0  0  0  0  0  0
   24.1245  -11.6126  -18.8455 O   0  0  0  0  0  0  0  0  0  0  0  0
   29.2284  -12.1445  -16.3270 C   0  0  0  0  0  0  0  0  0  0  0  0
   27.6559  -12.6134  -15.5882 S   0  0  0  0  0  0  0  0  0  0  0  0
   26.5564  -11.1362  -15.4076 C   0  0  0  0  0  0  0  0  0  0  0  0
   26.8968  -10.1313  -16.4623 C   0  0  0  0  0  0  0  0  0  0  0  0
   25.9162   -9.9979  -17.5925 C   0  0  2  0  0  0  0  0  0  0  0  0
   26.3039  -10.9456  -18.6546 N   0  0  0  0  0  0  0  0  0  0  0  0
   25.9554   -8.6365  -18.1438 C   0  0  0  0  0  0  0  0  0  0  0  0
   26.8544   -8.5563  -19.1098 O   0  0  0  0  0  0  0  0  0  0  0  0
   25.2420   -7.4936  -17.8283 N   0  0  0  0  0  0  0  0  0  0  0  0
   24.2752   -7.1529  -16.8571 C   0  0  0  0  0  0  0  0  0  0  0  0
   23.1439   -6.6555  -17.7949 C   0  0  0  0  0  0  0  0  0  0  0  0
   23.9756   -5.8134  -18.7696 C   0  0  0  0  0  0  0  0  0  0  0  0
   25.4196   -6.2201  -18.5630 C   0  0  1  0  0  0  0  0  0  0  0  0
   26.2092   -5.2540  -17.7957 C   0  0  0  0  0  0  0  0  0  0  0  0
   26.5430   -5.3535  -16.5939 O   0  0  0  0  0  0  0  0  0  0  0  0
   26.6307   -4.1128  -18.4661 O   0  0  0  0  0  0  0  0  0  0  0  0
  1  2  1  0
  2  3  2  0
  4  2  1  0
  5  7  1  0
  5  4  1  0
  5  6  1  1
  7 14  1  0
  7  8  2  0
  9 10  1  0
 10 11  1  0
 12 11  1  0
 13 12  1  1
 14 13  1  0
 15 17  1  0
 15 13  1  0
 16 15  2  0
 17 21  1  0
 18 19  1  0
 18 17  1  0
 19 20  1  0
 20 21  1  0
 21 22  1  1
 22 24  1  0
 23 22  2  0
M  END
$$$$
