NMP.pdb
     RDKit          3D

 24 24  0  0  1  0  0  0  0  0999 V2000
   28.1004  -17.1856  -18.2046 N   0  0  0  0  0  0  0  0  0  0  0  0
   27.8779  -17.1422  -16.8179 C   0  0  0  0  0  0  0  0  0  0  0  0
   28.2397  -16.1591  -16.1425 O   0  0  0  0  0  0  0  0  0  0  0  0
   27.2062  -18.2738  -16.1412 C   0  0  0  0  0  0  0  0  0  0  0  0
   28.1122  -18.8393  -15.0616 C   0  0  2  0  0  0  0  0  0  0  0  0
   29.2621  -19.3843  -15.7138 N   0  0  0  0  0  0  0  0  0  0  0  0
   27.3320  -19.8507  -14.2894 C   0  0  0  0  0  0  0  0  0  0  0  0
   26.9087  -20.8920  -14.8543 O   0  0  0  0  0  0  0  0  0  0  0  0
   26.9324  -19.6449   -7.9507 C   0  0  0  0  0  0  0  0  0  0  0  0
   25.6360  -20.8817   -8.1194 S   0  0  0  0  0  0  0  0  0  0  0  0
   25.3837  -21.3201   -9.8992 C   0  0  0  0  0  0  0  0  0  0  0  0
   26.3098  -20.5072  -10.7476 C   0  0  0  0  0  0  0  0  0  0  0  0
   26.2291  -20.7409  -12.2293 C   0  0  2  0  0  0  0  0  0  0  0  0
   27.0289  -19.7015  -12.9051 N   0  0  0  0  0  0  0  0  0  0  0  0
   24.8375  -20.6315  -12.6879 C   0  0  0  0  0  0  0  0  0  0  0  0
   24.5429  -19.3740  -12.9702 O   0  0  0  0  0  0  0  0  0  0  0  0
   23.8463  -21.5818  -12.8593 N   0  0  0  0  0  0  0  0  0  0  0  0
   23.7352  -22.9681  -12.6149 C   0  0  0  0  0  0  0  0  0  0  0  0
   23.3472  -23.4425  -14.0400 C   0  0  0  0  0  0  0  0  0  0  0  0
   22.3140  -22.3659  -14.3923 C   0  0  0  0  0  0  0  0  0  0  0  0
   22.5077  -21.2433  -13.3946 C   0  0  1  0  0  0  0  0  0  0  0  0
   21.4936  -21.2000  -12.3386 C   0  0  0  0  0  0  0  0  0  0  0  0
   21.6412  -21.5630  -11.1502 O   0  0  0  0  0  0  0  0  0  0  0  0
   20.2426  -20.7076  -12.6878 O   0  0  0  0  0  0  0  0  0  0  0  0
  1  2  1  0
  2  3  2  0
  4  2  1  0
  5  7  1  0
  5  4  1  0
  5  6  1  6
  7 14  1  0
  7  8  2  0
  9 10  1  0
 10 11  1  0
 12 11  1  0
 13 12  1  1
 14 13  1  0
 15 17  1  0
 15 13  1  0
 16 15  2  0
 17 21  1  0
 18 19  1  0
 18 17  1  0
 19 20  1  0
 20 21  1  0
 21 22  1  1
 22 24  1  0
 23 22  2  0
M  END
$$$$
