NMP.pdb
     RDKit          3D

 24 24  0  0  1  0  0  0  0  0999 V2000
   20.1832   -6.6064  -15.9135 N   0  0  0  0  0  0  0  0  0  0  0  0
   21.3281   -6.3589  -15.1375 C   0  0  0  0  0  0  0  0  0  0  0  0
   21.2710   -5.6312  -14.1272 O   0  0  0  0  0  0  0  0  0  0  0  0
   22.6234   -6.9655  -15.5166 C   0  0  0  0  0  0  0  0  0  0  0  0
   22.4525   -7.8012  -16.7731 C   0  0  2  0  0  0  0  0  0  0  0  0
   21.5934   -8.8955  -16.4426 N   0  0  0  0  0  0  0  0  0  0  0  0
   23.8080   -8.2270  -17.2303 C   0  0  0  0  0  0  0  0  0  0  0  0
   24.8384   -7.7800  -16.6638 O   0  0  0  0  0  0  0  0  0  0  0  0
   27.8219  -12.0985  -14.6631 C   0  0  0  0  0  0  0  0  0  0  0  0
   27.5435  -11.6565  -16.3852 S   0  0  0  0  0  0  0  0  0  0  0  0
   25.8393  -12.1456  -16.9144 C   0  0  0  0  0  0  0  0  0  0  0  0
   24.9771  -10.9262  -17.0032 C   0  0  0  0  0  0  0  0  0  0  0  0
   25.1387  -10.0882  -18.2395 C   0  0  2  0  0  0  0  0  0  0  0  0
   24.0102   -9.1401  -18.3055 N   0  0  0  0  0  0  0  0  0  0  0  0
   25.1069  -10.9367  -19.4386 C   0  0  0  0  0  0  0  0  0  0  0  0
   23.8589  -11.2236  -19.7670 O   0  0  0  0  0  0  0  0  0  0  0  0
   26.1183  -11.4522  -20.2297 N   0  0  0  0  0  0  0  0  0  0  0  0
   27.5297  -11.4185  -20.1987 C   0  0  0  0  0  0  0  0  0  0  0  0
   27.7962  -10.8272  -21.6079 C   0  0  0  0  0  0  0  0  0  0  0  0
   26.7968  -11.6562  -22.4231 C   0  0  0  0  0  0  0  0  0  0  0  0
   25.8446  -12.2819  -21.4255 C   0  0  1  0  0  0  0  0  0  0  0  0
   26.0933  -13.7028  -21.1713 C   0  0  0  0  0  0  0  0  0  0  0  0
   26.5259  -14.2039  -20.1096 O   0  0  0  0  0  0  0  0  0  0  0  0
   25.8230  -14.5841  -22.2104 O   0  0  0  0  0  0  0  0  0  0  0  0
  1  2  1  0
  2  3  2  0
  4  2  1  0
  5  7  1  0
  5  4  1  0
  5  6  1  1
  7 14  1  0
  7  8  2  0
  9 10  1  0
 10 11  1  0
 12 11  1  0
 13 12  1  1
 14 13  1  0
 15 17  1  0
 15 13  1  0
 16 15  2  0
 17 21  1  0
 18 19  1  0
 18 17  1  0
 19 20  1  0
 20 21  1  0
 21 22  1  1
 22 24  1  0
 23 22  2  0
M  END
$$$$
