HTW.pdb
     RDKit          3D

 32 34  0  0  1  0  0  0  0  0999 V2000
    7.4481  -16.8798   17.3278 N   0  0  0  0  0  0  0  0  0  0  0  0
    8.4863  -16.2650   18.1684 C   0  0  1  0  0  0  0  0  0  0  0  0
    8.1636  -14.7729   18.1490 C   0  0  0  0  0  0  0  0  0  0  0  0
    8.3112  -14.2380   16.7712 C   0  0  0  0  0  0  0  0  0  0  0  0
    7.5017  -13.3539   16.0972 C   0  0  0  0  0  0  0  0  0  0  0  0
    7.9932  -13.1290   14.8603 N   0  0  0  0  0  0  0  0  0  0  0  0
    9.1146  -13.8671   14.7425 C   0  0  0  0  0  0  0  0  0  0  0  0
    9.3051  -14.5339   15.8925 N   0  0  0  0  0  0  0  0  0  0  0  0
    8.3627  -16.8110   19.5443 C   0  0  0  0  0  0  0  0  0  0  0  0
    7.2193  -16.8777   20.0651 O   0  0  0  0  0  0  0  0  0  0  0  0
    9.0154  -20.0102   20.9038 C   0  0  0  0  0  0  0  0  0  0  0  0
    9.9237  -19.1577   21.7645 C   0  0  1  0  0  0  0  0  0  0  0  0
   11.2479  -19.2807   21.4231 O   0  0  0  0  0  0  0  0  0  0  0  0
    9.4191  -17.7251   21.6464 C   0  0  2  0  0  0  0  0  0  0  0  0
    9.4805  -17.2559   20.2838 N   0  0  0  0  0  0  0  0  0  0  0  0
   10.1303  -16.8480   22.5887 C   0  0  0  0  0  0  0  0  0  0  0  0
   11.2043  -16.2606   22.2995 O   0  0  0  0  0  0  0  0  0  0  0  0
    9.5974  -16.6414   23.8898 N   0  0  0  0  0  0  0  0  0  0  0  0
   10.3782  -16.1450   25.0024 C   0  0  1  0  0  0  0  0  0  0  0  0
   10.0513  -14.6825   25.2924 C   0  0  0  0  0  0  0  0  0  0  0  0
    8.5813  -14.5361   25.4550 C   0  0  0  0  0  0  0  0  0  0  0  0
    7.6176  -15.5352   25.4709 C   0  0  0  0  0  0  0  0  0  0  0  0
    6.4195  -14.9964   25.6382 N   0  0  0  0  0  0  0  0  0  0  0  0
    6.5155  -13.6386   25.7408 C   0  0  0  0  0  0  0  0  0  0  0  0
    5.5919  -12.6297   25.9186 C   0  0  0  0  0  0  0  0  0  0  0  0
    5.9791  -11.3087   25.9879 C   0  0  0  0  0  0  0  0  0  0  0  0
    7.3288  -11.0362   25.8721 C   0  0  0  0  0  0  0  0  0  0  0  0
    8.2594  -12.0382   25.6942 C   0  0  0  0  0  0  0  0  0  0  0  0
    7.8624  -13.3639   25.6257 C   0  0  0  0  0  0  0  0  0  0  0  0
   10.2082  -16.9727   26.2125 C   0  0  0  0  0  0  0  0  0  0  0  0
   10.9272  -16.7409   27.2362 O   0  0  0  0  0  0  0  0  0  0  0  0
    9.2984  -18.0106   26.3167 O   0  0  0  0  0  0  0  0  0  0  0  0
  2  3  1  0
  2  1  1  6
  4  5  2  0
  4  3  1  0
  6  5  1  0
  7  8  2  0
  7  6  1  0
  8  4  1  0
  9  2  1  0
 10  9  2  0
 12 14  1  0
 12 11  1  6
 13 12  1  0
 14 15  1  6
 15  9  1  0
 16 14  1  0
 16 17  2  0
 18 16  1  0
 19 18  1  0
 19 20  1  1
 21 20  1  0
 21 22  2  0
 23 22  1  0
 24 23  1  0
 25 24  2  0
 26 25  1  0
 27 26  2  0
 27 28  1  0
 28 29  2  0
 29 24  1  0
 29 21  1  0
 30 19  1  0
 31 30  2  0
 32 30  1  0
M  END
$$$$
