HTW.pdb
     RDKit          3D

 32 34  0  0  1  0  0  0  0  0999 V2000
   10.7608  -16.4398   18.5628 N   0  0  0  0  0  0  0  0  0  0  0  0
   11.4010  -16.3158   19.8809 C   0  0  1  0  0  0  0  0  0  0  0  0
   11.7932  -14.8436   19.9813 C   0  0  0  0  0  0  0  0  0  0  0  0
   13.1521  -14.6393   19.4175 C   0  0  0  0  0  0  0  0  0  0  0  0
   14.0102  -15.5673   18.8756 C   0  0  0  0  0  0  0  0  0  0  0  0
   15.1514  -14.9646   18.4795 N   0  0  0  0  0  0  0  0  0  0  0  0
   15.0241  -13.6541   18.7669 C   0  0  0  0  0  0  0  0  0  0  0  0
   13.8212  -13.4593   19.3311 N   0  0  0  0  0  0  0  0  0  0  0  0
   10.4030  -16.6655   20.9240 C   0  0  0  0  0  0  0  0  0  0  0  0
    9.2308  -16.2234   20.8081 O   0  0  0  0  0  0  0  0  0  0  0  0
    8.7804  -19.6685   21.9753 C   0  0  0  0  0  0  0  0  0  0  0  0
    9.5527  -19.2741   23.2165 C   0  0  1  0  0  0  0  0  0  0  0  0
   10.7071  -20.0000   23.3766 O   0  0  0  0  0  0  0  0  0  0  0  0
    9.8124  -17.7766   23.1119 C   0  0  2  0  0  0  0  0  0  0  0  0
   10.7245  -17.4742   22.0361 N   0  0  0  0  0  0  0  0  0  0  0  0
   10.2528  -17.2374   24.4073 C   0  0  0  0  0  0  0  0  0  0  0  0
   11.4212  -16.8192   24.6131 O   0  0  0  0  0  0  0  0  0  0  0  0
    9.3329  -17.1775   25.4889 N   0  0  0  0  0  0  0  0  0  0  0  0
    9.6838  -16.7010   26.8095 C   0  0  1  0  0  0  0  0  0  0  0  0
    8.4381  -16.3093   27.5999 C   0  0  0  0  0  0  0  0  0  0  0  0
    7.5240  -15.5395   26.7164 C   0  0  0  0  0  0  0  0  0  0  0  0
    6.5136  -16.0255   25.8977 C   0  0  0  0  0  0  0  0  0  0  0  0
    5.9260  -15.0187   25.2694 N   0  0  0  0  0  0  0  0  0  0  0  0
    6.4990  -13.8322   25.6260 C   0  0  0  0  0  0  0  0  0  0  0  0
    6.2691  -12.5192   25.2711 C   0  0  0  0  0  0  0  0  0  0  0  0
    7.0206  -11.4923   25.8007 C   0  0  0  0  0  0  0  0  0  0  0  0
    8.0129  -11.8311   26.7008 C   0  0  0  0  0  0  0  0  0  0  0  0
    8.2499  -13.1408   27.0615 C   0  0  0  0  0  0  0  0  0  0  0  0
    7.4901  -14.1676   26.5249 C   0  0  0  0  0  0  0  0  0  0  0  0
   10.4943  -17.6828   27.5562 C   0  0  0  0  0  0  0  0  0  0  0  0
   10.5210  -18.8952   27.1714 O   0  0  0  0  0  0  0  0  0  0  0  0
   11.2477  -17.3711   28.6746 O   0  0  0  0  0  0  0  0  0  0  0  0
  2  3  1  0
  2  1  1  6
  4  5  2  0
  4  3  1  0
  6  5  1  0
  7  8  2  0
  7  6  1  0
  8  4  1  0
  9  2  1  0
 10  9  2  0
 12 14  1  0
 12 11  1  6
 13 12  1  0
 14 15  1  6
 15  9  1  0
 16 14  1  0
 16 17  2  0
 18 16  1  0
 19 18  1  0
 19 20  1  1
 21 20  1  0
 21 22  2  0
 23 22  1  0
 24 23  1  0
 25 24  2  0
 26 25  1  0
 27 26  2  0
 27 28  1  0
 28 29  2  0
 29 24  1  0
 29 21  1  0
 30 19  1  0
 31 30  2  0
 32 30  1  0
M  END
$$$$
