HTW.pdb
     RDKit          3D

 32 34  0  0  1  0  0  0  0  0999 V2000
    9.7722  -16.6835   17.8867 N   0  0  0  0  0  0  0  0  0  0  0  0
    8.8788  -15.5374   18.1121 C   0  0  1  0  0  0  0  0  0  0  0  0
    7.7389  -15.7363   17.1160 C   0  0  0  0  0  0  0  0  0  0  0  0
    7.9998  -14.9535   15.8809 C   0  0  0  0  0  0  0  0  0  0  0  0
    9.0813  -14.1617   15.5732 C   0  0  0  0  0  0  0  0  0  0  0  0
    8.9255  -13.6250   14.3444 N   0  0  0  0  0  0  0  0  0  0  0  0
    7.7474  -14.0720   13.8665 C   0  0  0  0  0  0  0  0  0  0  0  0
    7.1912  -14.8711   14.7914 N   0  0  0  0  0  0  0  0  0  0  0  0
    8.3737  -15.6011   19.5075 C   0  0  0  0  0  0  0  0  0  0  0  0
    7.5083  -14.7643   19.8733 O   0  0  0  0  0  0  0  0  0  0  0  0
    6.2316  -17.6606   21.1500 C   0  0  0  0  0  0  0  0  0  0  0  0
    7.4743  -17.8937   21.9830 C   0  0  1  0  0  0  0  0  0  0  0  0
    8.1146  -19.0659   21.6649 O   0  0  0  0  0  0  0  0  0  0  0  0
    8.3630  -16.6710   21.7934 C   0  0  2  0  0  0  0  0  0  0  0  0
    8.8300  -16.5653   20.4328 N   0  0  0  0  0  0  0  0  0  0  0  0
    9.4557  -16.6694   22.7777 C   0  0  0  0  0  0  0  0  0  0  0  0
   10.6375  -16.9891   22.4889 O   0  0  0  0  0  0  0  0  0  0  0  0
    9.1858  -16.2934   24.1214 N   0  0  0  0  0  0  0  0  0  0  0  0
   10.1882  -16.2873   25.1651 C   0  0  1  0  0  0  0  0  0  0  0  0
    9.9328  -15.1618   26.1640 C   0  0  0  0  0  0  0  0  0  0  0  0
    8.4678  -14.9428   26.2854 C   0  0  0  0  0  0  0  0  0  0  0  0
    7.4594  -15.8963   26.3215 C   0  0  0  0  0  0  0  0  0  0  0  0
    6.2838  -15.2977   26.4372 N   0  0  0  0  0  0  0  0  0  0  0  0
    6.4395  -13.9423   26.4835 C   0  0  0  0  0  0  0  0  0  0  0  0
    5.5592  -12.8862   26.5958 C   0  0  0  0  0  0  0  0  0  0  0  0
    6.0047  -11.5821   26.6173 C   0  0  0  0  0  0  0  0  0  0  0  0
    7.3677  -11.3755   26.5218 C   0  0  0  0  0  0  0  0  0  0  0  0
    8.2552  -12.4250   26.4092 C   0  0  0  0  0  0  0  0  0  0  0  0
    7.7997  -13.7333   26.3884 C   0  0  0  0  0  0  0  0  0  0  0  0
   10.2815  -17.5902   25.8521 C   0  0  0  0  0  0  0  0  0  0  0  0
    9.3491  -18.4435   25.7064 O   0  0  0  0  0  0  0  0  0  0  0  0
   11.3386  -17.9606   26.6652 O   0  0  0  0  0  0  0  0  0  0  0  0
  2  3  1  0
  2  1  1  1
  4  5  2  0
  4  3  1  0
  6  5  1  0
  7  8  2  0
  7  6  1  0
  8  4  1  0
  9  2  1  0
 10  9  2  0
 12 14  1  0
 12 11  1  6
 13 12  1  0
 14 15  1  6
 15  9  1  0
 16 14  1  0
 16 17  2  0
 18 16  1  0
 19 18  1  0
 19 20  1  1
 21 20  1  0
 21 22  2  0
 23 22  1  0
 24 23  1  0
 25 24  2  0
 26 25  1  0
 27 26  2  0
 27 28  1  0
 28 29  2  0
 29 24  1  0
 29 21  1  0
 30 19  1  0
 31 30  2  0
 32 30  1  0
M  END
$$$$
