HTW.pdb
     RDKit          3D

 32 34  0  0  1  0  0  0  0  0999 V2000
    9.8772  -16.0290   16.8479 N   0  0  0  0  0  0  0  0  0  0  0  0
   10.5728  -16.4860   18.0602 C   0  0  1  0  0  0  0  0  0  0  0  0
   12.0264  -16.0687   17.8503 C   0  0  0  0  0  0  0  0  0  0  0  0
   12.7917  -17.1824   17.2337 C   0  0  0  0  0  0  0  0  0  0  0  0
   12.5288  -18.5319   17.2656 C   0  0  0  0  0  0  0  0  0  0  0  0
   13.4764  -19.2031   16.5773 N   0  0  0  0  0  0  0  0  0  0  0  0
   14.3439  -18.2857   16.1059 C   0  0  0  0  0  0  0  0  0  0  0  0
   13.9312  -17.0705   16.5012 N   0  0  0  0  0  0  0  0  0  0  0  0
    9.9888  -15.7835   19.2315 C   0  0  0  0  0  0  0  0  0  0  0  0
    9.7129  -14.5607   19.1239 O   0  0  0  0  0  0  0  0  0  0  0  0
    7.0961  -15.3185   20.3802 C   0  0  0  0  0  0  0  0  0  0  0  0
    7.6301  -15.9882   21.6288 C   0  0  1  0  0  0  0  0  0  0  0  0
    7.2582  -17.3064   21.7247 O   0  0  0  0  0  0  0  0  0  0  0  0
    9.1425  -15.8064   21.6092 C   0  0  2  0  0  0  0  0  0  0  0  0
    9.7340  -16.4393   20.4558 N   0  0  0  0  0  0  0  0  0  0  0  0
    9.7332  -16.2575   22.8782 C   0  0  0  0  0  0  0  0  0  0  0  0
   10.5057  -17.2468   22.9602 O   0  0  0  0  0  0  0  0  0  0  0  0
    9.4302  -15.5586   24.0779 N   0  0  0  0  0  0  0  0  0  0  0  0
    9.8775  -15.9869   25.3858 C   0  0  1  0  0  0  0  0  0  0  0  0
    9.5139  -14.9585   26.4536 C   0  0  0  0  0  0  0  0  0  0  0  0
    8.0916  -14.5628   26.2829 C   0  0  0  0  0  0  0  0  0  0  0  0
    7.0058  -15.3761   25.9883 C   0  0  0  0  0  0  0  0  0  0  0  0
    5.9052  -14.6427   25.9192 N   0  0  0  0  0  0  0  0  0  0  0  0
    6.1897  -13.3292   26.1584 C   0  0  0  0  0  0  0  0  0  0  0  0
    5.4245  -12.1824   26.2037 C   0  0  0  0  0  0  0  0  0  0  0  0
    5.9897  -10.9549   26.4749 C   0  0  0  0  0  0  0  0  0  0  0  0
    7.3528  -10.9197   26.6993 C   0  0  0  0  0  0  0  0  0  0  0  0
    8.1257  -12.0609   26.6561 C   0  0  0  0  0  0  0  0  0  0  0  0
    7.5502  -13.2912   26.3829 C   0  0  0  0  0  0  0  0  0  0  0  0
    9.3566  -17.3214   25.7406 C   0  0  0  0  0  0  0  0  0  0  0  0
    9.8094  -17.9174   26.7695 O   0  0  0  0  0  0  0  0  0  0  0  0
    8.3848  -17.9890   25.0156 O   0  0  0  0  0  0  0  0  0  0  0  0
  2  3  1  0
  2  1  1  6
  4  5  2  0
  4  3  1  0
  6  5  1  0
  7  8  2  0
  7  6  1  0
  8  4  1  0
  9  2  1  0
 10  9  2  0
 12 14  1  0
 12 11  1  6
 13 12  1  0
 14 15  1  6
 15  9  1  0
 16 14  1  0
 16 17  2  0
 18 16  1  0
 19 18  1  0
 19 20  1  1
 21 20  1  0
 21 22  2  0
 23 22  1  0
 24 23  1  0
 25 24  2  0
 26 25  1  0
 27 26  2  0
 27 28  1  0
 28 29  2  0
 29 24  1  0
 29 21  1  0
 30 19  1  0
 31 30  2  0
 32 30  1  0
M  END
$$$$
