HTW.pdb
     RDKit          3D

 32 34  0  0  1  0  0  0  0  0999 V2000
   10.6192  -17.1341   18.6612 N   0  0  0  0  0  0  0  0  0  0  0  0
    9.8527  -15.8799   18.7061 C   0  0  1  0  0  0  0  0  0  0  0  0
    8.8258  -16.0161   17.5845 C   0  0  0  0  0  0  0  0  0  0  0  0
    8.5524  -14.6869   16.9805 C   0  0  0  0  0  0  0  0  0  0  0  0
    9.0773  -13.4613   17.3175 C   0  0  0  0  0  0  0  0  0  0  0  0
    8.5621  -12.5031   16.5183 N   0  0  0  0  0  0  0  0  0  0  0  0
    7.7096  -13.1136   15.6718 C   0  0  0  0  0  0  0  0  0  0  0  0
    7.7043  -14.4272   15.9505 N   0  0  0  0  0  0  0  0  0  0  0  0
    9.1786  -15.7868   20.0265 C   0  0  0  0  0  0  0  0  0  0  0  0
    8.5820  -14.7197   20.3240 O   0  0  0  0  0  0  0  0  0  0  0  0
    6.4644  -17.6883   21.5357 C   0  0  0  0  0  0  0  0  0  0  0  0
    7.6088  -17.9149   22.5008 C   0  0  1  0  0  0  0  0  0  0  0  0
    8.1809  -19.1556   22.3642 O   0  0  0  0  0  0  0  0  0  0  0  0
    8.6032  -16.7834   22.2728 C   0  0  2  0  0  0  0  0  0  0  0  0
    9.1847  -16.8512   20.9545 N   0  0  0  0  0  0  0  0  0  0  0  0
    9.6101  -16.7573   23.3444 C   0  0  0  0  0  0  0  0  0  0  0  0
   10.7637  -17.2407   23.2115 O   0  0  0  0  0  0  0  0  0  0  0  0
    9.2855  -16.1643   24.5945 N   0  0  0  0  0  0  0  0  0  0  0  0
   10.2087  -16.0904   25.7063 C   0  0  1  0  0  0  0  0  0  0  0  0
    9.8300  -14.9598   26.6593 C   0  0  0  0  0  0  0  0  0  0  0  0
    8.3630  -14.7330   26.5857 C   0  0  0  0  0  0  0  0  0  0  0  0
    7.3465  -15.6765   26.6461 C   0  0  0  0  0  0  0  0  0  0  0  0
    6.1718  -15.0734   26.5445 N   0  0  0  0  0  0  0  0  0  0  0  0
    6.3362  -13.7247   26.4135 C   0  0  0  0  0  0  0  0  0  0  0  0
    5.4604  -12.6678   26.2758 C   0  0  0  0  0  0  0  0  0  0  0  0
    5.9150  -11.3718   26.1597 C   0  0  0  0  0  0  0  0  0  0  0  0
    7.2824  -11.1742   26.1867 C   0  0  0  0  0  0  0  0  0  0  0  0
    8.1654  -12.2245   26.3240 C   0  0  0  0  0  0  0  0  0  0  0  0
    7.7008  -13.5246   26.4403 C   0  0  0  0  0  0  0  0  0  0  0  0
   10.3129  -17.3741   26.4271 C   0  0  0  0  0  0  0  0  0  0  0  0
   11.2341  -17.5353   27.2897 O   0  0  0  0  0  0  0  0  0  0  0  0
    9.4575  -18.4437   26.2270 O   0  0  0  0  0  0  0  0  0  0  0  0
  2  3  1  0
  2  1  1  1
  4  5  2  0
  4  3  1  0
  6  5  1  0
  7  8  2  0
  7  6  1  0
  8  4  1  0
  9  2  1  0
 10  9  2  0
 12 14  1  0
 12 11  1  6
 13 12  1  0
 14 15  1  6
 15  9  1  0
 16 14  1  0
 16 17  2  0
 18 16  1  0
 19 18  1  0
 19 20  1  1
 21 20  1  0
 21 22  2  0
 23 22  1  0
 24 23  1  0
 25 24  2  0
 26 25  1  0
 27 26  2  0
 27 28  1  0
 28 29  2  0
 29 24  1  0
 29 21  1  0
 30 19  1  0
 31 30  2  0
 32 30  1  0
M  END
$$$$
