HTW.pdb
     RDKit          3D

 32 34  0  0  1  0  0  0  0  0999 V2000
    8.8702  -16.9275   18.7385 N   0  0  0  0  0  0  0  0  0  0  0  0
    8.9765  -16.0010   19.8754 C   0  0  1  0  0  0  0  0  0  0  0  0
    7.7345  -15.1193   19.7707 C   0  0  0  0  0  0  0  0  0  0  0  0
    7.8081  -14.2794   18.5479 C   0  0  0  0  0  0  0  0  0  0  0  0
    8.3336  -13.0174   18.3979 C   0  0  0  0  0  0  0  0  0  0  0  0
    8.1987  -12.6104   17.1179 N   0  0  0  0  0  0  0  0  0  0  0  0
    7.5884  -13.6092   16.4500 C   0  0  0  0  0  0  0  0  0  0  0  0
    7.3538  -14.6127   17.3109 N   0  0  0  0  0  0  0  0  0  0  0  0
    8.9538  -16.7927   21.1321 C   0  0  0  0  0  0  0  0  0  0  0  0
    8.3306  -17.8856   21.1439 O   0  0  0  0  0  0  0  0  0  0  0  0
    9.8001  -19.2664   22.2361 C   0  0  0  0  0  0  0  0  0  0  0  0
   10.6119  -18.4154   23.1896 C   0  0  1  0  0  0  0  0  0  0  0  0
   11.8570  -18.1085   22.6990 O   0  0  0  0  0  0  0  0  0  0  0  0
    9.7778  -17.1756   23.4868 C   0  0  2  0  0  0  0  0  0  0  0  0
    9.6057  -16.3619   22.3083 N   0  0  0  0  0  0  0  0  0  0  0  0
   10.3454  -16.4313   24.6211 C   0  0  0  0  0  0  0  0  0  0  0  0
   11.2280  -15.5454   24.4856 O   0  0  0  0  0  0  0  0  0  0  0  0
    9.8904  -16.7102   25.9383 N   0  0  0  0  0  0  0  0  0  0  0  0
   10.2402  -15.9073   27.0902 C   0  0  1  0  0  0  0  0  0  0  0  0
    9.0428  -15.7322   28.0205 C   0  0  0  0  0  0  0  0  0  0  0  0
    7.9029  -15.1756   27.2461 C   0  0  0  0  0  0  0  0  0  0  0  0
    6.7788  -15.8422   26.7779 C   0  0  0  0  0  0  0  0  0  0  0  0
    5.9941  -14.9935   26.1316 N   0  0  0  0  0  0  0  0  0  0  0  0
    6.5391  -13.7420   26.1328 C   0  0  0  0  0  0  0  0  0  0  0  0
    6.1387  -12.5287   25.6129 C   0  0  0  0  0  0  0  0  0  0  0  0
    6.9070  -11.3949   25.7674 C   0  0  0  0  0  0  0  0  0  0  0  0
    8.0938  -11.5228   26.4637 C   0  0  0  0  0  0  0  0  0  0  0  0
    8.5022  -12.7315   26.9870 C   0  0  0  0  0  0  0  0  0  0  0  0
    7.7243  -13.8668   26.8276 C   0  0  0  0  0  0  0  0  0  0  0  0
   11.3981  -16.4592   27.8202 C   0  0  0  0  0  0  0  0  0  0  0  0
   11.7716  -17.6538   27.5912 O   0  0  0  0  0  0  0  0  0  0  0  0
   12.1266  -15.7520   28.7608 O   0  0  0  0  0  0  0  0  0  0  0  0
  2  3  1  0
  2  1  1  6
  4  5  2  0
  4  3  1  0
  6  5  1  0
  7  8  2  0
  7  6  1  0
  8  4  1  0
  9  2  1  0
 10  9  2  0
 12 14  1  0
 12 11  1  6
 13 12  1  0
 14 15  1  6
 15  9  1  0
 16 14  1  0
 16 17  2  0
 18 16  1  0
 19 18  1  0
 19 20  1  1
 21 20  1  0
 21 22  2  0
 23 22  1  0
 24 23  1  0
 25 24  2  0
 26 25  1  0
 27 26  2  0
 27 28  1  0
 28 29  2  0
 29 24  1  0
 29 21  1  0
 30 19  1  0
 31 30  2  0
 32 30  1  0
M  END
$$$$
