HTW.pdb
     RDKit          3D

 32 34  0  0  1  0  0  0  0  0999 V2000
   10.0551  -16.5474   17.0165 N   0  0  0  0  0  0  0  0  0  0  0  0
    9.4081  -17.3298   18.0803 C   0  0  1  0  0  0  0  0  0  0  0  0
   10.3925  -18.4573   18.3818 C   0  0  0  0  0  0  0  0  0  0  0  0
   10.2042  -19.5694   17.4155 C   0  0  0  0  0  0  0  0  0  0  0  0
    9.3209  -19.6601   16.3653 C   0  0  0  0  0  0  0  0  0  0  0  0
    9.4739  -20.8437   15.7345 N   0  0  0  0  0  0  0  0  0  0  0  0
   10.4526  -21.5092   16.3790 C   0  0  0  0  0  0  0  0  0  0  0  0
   10.8913  -20.7419   17.3900 N   0  0  0  0  0  0  0  0  0  0  0  0
    9.2321  -16.4550   19.2679 C   0  0  0  0  0  0  0  0  0  0  0  0
    9.0859  -15.2183   19.0882 O   0  0  0  0  0  0  0  0  0  0  0  0
    7.0718  -15.1327   20.2028 C   0  0  0  0  0  0  0  0  0  0  0  0
    7.1166  -16.0302   21.4214 C   0  0  1  0  0  0  0  0  0  0  0  0
    6.3819  -17.1791   21.2621 O   0  0  0  0  0  0  0  0  0  0  0  0
    8.5873  -16.3102   21.7038 C   0  0  2  0  0  0  0  0  0  0  0  0
    9.2232  -16.9628   20.5855 N   0  0  0  0  0  0  0  0  0  0  0  0
    8.7387  -17.0525   22.9643 C   0  0  0  0  0  0  0  0  0  0  0  0
    8.9369  -18.2939   23.0080 O   0  0  0  0  0  0  0  0  0  0  0  0
    8.6606  -16.3551   24.2001 N   0  0  0  0  0  0  0  0  0  0  0  0
    8.9118  -16.9748   25.4834 C   0  0  1  0  0  0  0  0  0  0  0  0
    9.0415  -15.9246   26.5834 C   0  0  0  0  0  0  0  0  0  0  0  0
    7.8621  -15.0215   26.5346 C   0  0  0  0  0  0  0  0  0  0  0  0
    6.5427  -15.3182   26.8480 C   0  0  0  0  0  0  0  0  0  0  0  0
    5.7907  -14.2418   26.6760 N   0  0  0  0  0  0  0  0  0  0  0  0
    6.5499  -13.1911   26.2480 C   0  0  0  0  0  0  0  0  0  0  0  0
    6.2662  -11.8797   25.9279 C   0  0  0  0  0  0  0  0  0  0  0  0
    7.2551  -11.0144   25.5116 C   0  0  0  0  0  0  0  0  0  0  0  0
    8.5410  -11.5135   25.4278 C   0  0  0  0  0  0  0  0  0  0  0  0
    8.8339  -12.8229   25.7458 C   0  0  0  0  0  0  0  0  0  0  0  0
    7.8344  -13.6867   26.1637 C   0  0  0  0  0  0  0  0  0  0  0  0
    7.8817  -17.9741   25.8280 C   0  0  0  0  0  0  0  0  0  0  0  0
    6.7490  -17.9310   25.2501 O   0  0  0  0  0  0  0  0  0  0  0  0
    8.0642  -18.9816   26.7592 O   0  0  0  0  0  0  0  0  0  0  0  0
  2  3  1  0
  2  1  1  6
  4  5  2  0
  4  3  1  0
  6  5  1  0
  7  8  2  0
  7  6  1  0
  8  4  1  0
  9  2  1  0
 10  9  2  0
 12 14  1  0
 12 11  1  6
 13 12  1  0
 14 15  1  6
 15  9  1  0
 16 14  1  0
 16 17  2  0
 18 16  1  0
 19 18  1  0
 19 20  1  1
 21 20  1  0
 21 22  2  0
 23 22  1  0
 24 23  1  0
 25 24  2  0
 26 25  1  0
 27 26  2  0
 27 28  1  0
 28 29  2  0
 29 24  1  0
 29 21  1  0
 30 19  1  0
 31 30  2  0
 32 30  1  0
M  END
$$$$
