HTW.pdb
     RDKit          3D

 32 34  0  0  1  0  0  0  0  0999 V2000
   10.6921  -15.8535   18.1468 N   0  0  0  0  0  0  0  0  0  0  0  0
   11.3501  -15.7918   19.4604 C   0  0  1  0  0  0  0  0  0  0  0  0
   11.9826  -14.4030   19.5091 C   0  0  0  0  0  0  0  0  0  0  0  0
   13.4428  -14.4995   19.2541 C   0  0  0  0  0  0  0  0  0  0  0  0
   14.2012  -15.6163   18.9920 C   0  0  0  0  0  0  0  0  0  0  0  0
   15.4937  -15.2666   18.8205 N   0  0  0  0  0  0  0  0  0  0  0  0
   15.5626  -13.9293   18.9724 C   0  0  0  0  0  0  0  0  0  0  0  0
   14.3285  -13.4687   19.2332 N   0  0  0  0  0  0  0  0  0  0  0  0
   10.3127  -15.9333   20.5141 C   0  0  0  0  0  0  0  0  0  0  0  0
    9.1028  -15.8266   20.1859 O   0  0  0  0  0  0  0  0  0  0  0  0
    8.5486  -17.9469   21.0800 C   0  0  0  0  0  0  0  0  0  0  0  0
    9.2302  -18.1104   22.4220 C   0  0  1  0  0  0  0  0  0  0  0  0
   10.2396  -19.0408   22.3951 O   0  0  0  0  0  0  0  0  0  0  0  0
    9.7191  -16.7279   22.8350 C   0  0  2  0  0  0  0  0  0  0  0  0
   10.6376  -16.1829   21.8655 N   0  0  0  0  0  0  0  0  0  0  0  0
   10.2740  -16.7620   24.1965 C   0  0  0  0  0  0  0  0  0  0  0  0
   11.5024  -16.8965   24.4318 O   0  0  0  0  0  0  0  0  0  0  0  0
    9.4006  -16.6394   25.3108 N   0  0  0  0  0  0  0  0  0  0  0  0
    9.8622  -16.5100   26.6762 C   0  0  1  0  0  0  0  0  0  0  0  0
    8.7148  -16.1324   27.6094 C   0  0  0  0  0  0  0  0  0  0  0  0
    7.6488  -15.4601   26.8217 C   0  0  0  0  0  0  0  0  0  0  0  0
    6.6394  -16.0471   26.0708 C   0  0  0  0  0  0  0  0  0  0  0  0
    5.8895  -15.1055   25.5186 N   0  0  0  0  0  0  0  0  0  0  0  0
    6.3469  -13.8663   25.8629 C   0  0  0  0  0  0  0  0  0  0  0  0
    5.9374  -12.5834   25.5641 C   0  0  0  0  0  0  0  0  0  0  0  0
    6.6041  -11.4847   26.0623 C   0  0  0  0  0  0  0  0  0  0  0  0
    7.6984  -11.7202   26.8726 C   0  0  0  0  0  0  0  0  0  0  0  0
    8.1151  -12.9991   27.1767 C   0  0  0  0  0  0  0  0  0  0  0  0
    7.4397  -14.0985   26.6721 C   0  0  0  0  0  0  0  0  0  0  0  0
   10.5458  -17.7298   27.1486 C   0  0  0  0  0  0  0  0  0  0  0  0
   10.3831  -18.8230   26.5184 O   0  0  0  0  0  0  0  0  0  0  0  0
   11.3733  -17.7711   28.2573 O   0  0  0  0  0  0  0  0  0  0  0  0
  2  3  1  0
  2  1  1  6
  4  5  2  0
  4  3  1  0
  6  5  1  0
  7  8  2  0
  7  6  1  0
  8  4  1  0
  9  2  1  0
 10  9  2  0
 12 14  1  0
 12 11  1  6
 13 12  1  0
 14 15  1  6
 15  9  1  0
 16 14  1  0
 16 17  2  0
 18 16  1  0
 19 18  1  0
 19 20  1  1
 21 20  1  0
 21 22  2  0
 23 22  1  0
 24 23  1  0
 25 24  2  0
 26 25  1  0
 27 26  2  0
 27 28  1  0
 28 29  2  0
 29 24  1  0
 29 21  1  0
 30 19  1  0
 31 30  2  0
 32 30  1  0
M  END
$$$$
