ITW.pdb
     RDKit          3D

 30 31  0  0  1  0  0  0  0  0999 V2000
    6.9008  -11.8706   19.1451 C   0  0  0  0  0  0  0  0  0  0  0  0
    7.7415  -13.0278   18.7455 C   0  0  0  0  0  0  0  0  0  0  0  0
    7.9239  -14.0370   19.8319 C   0  0  2  0  0  0  0  0  0  0  0  0
    8.6521  -13.3530   21.0037 C   0  0  0  0  0  0  0  0  0  0  0  0
    8.7669  -15.1867   19.3122 C   0  0  2  0  0  0  0  0  0  0  0  0
    7.9812  -15.8013   18.2386 N   0  0  0  0  0  0  0  0  0  0  0  0
    8.8684  -16.1994   20.3974 C   0  0  0  0  0  0  0  0  0  0  0  0
    7.8031  -16.7707   20.7799 O   0  0  0  0  0  0  0  0  0  0  0  0
   10.6000  -19.4534   20.7849 C   0  0  0  0  0  0  0  0  0  0  0  0
   10.9829  -18.6079   21.9566 C   0  0  1  0  0  0  0  0  0  0  0  0
   12.2475  -18.0823   21.8953 O   0  0  0  0  0  0  0  0  0  0  0  0
    9.9962  -17.4756   22.1931 C   0  0  2  0  0  0  0  0  0  0  0  0
   10.0589  -16.5827   21.0414 N   0  0  0  0  0  0  0  0  0  0  0  0
   10.3757  -16.7851   23.4326 C   0  0  0  0  0  0  0  0  0  0  0  0
   11.1059  -15.7497   23.4448 O   0  0  0  0  0  0  0  0  0  0  0  0
    9.9118  -17.2845   24.6729 N   0  0  0  0  0  0  0  0  0  0  0  0
   10.2526  -16.6202   25.9377 C   0  0  1  0  0  0  0  0  0  0  0  0
    9.9064  -15.1672   25.7664 C   0  0  0  0  0  0  0  0  0  0  0  0
    8.4977  -14.8205   25.7251 C   0  0  0  0  0  0  0  0  0  0  0  0
    7.4575  -15.6752   25.4009 C   0  0  0  0  0  0  0  0  0  0  0  0
    6.3049  -14.9944   25.4339 N   0  0  0  0  0  0  0  0  0  0  0  0
    6.5776  -13.7110   25.7751 C   0  0  0  0  0  0  0  0  0  0  0  0
    5.7890  -12.5952   25.9701 C   0  0  0  0  0  0  0  0  0  0  0  0
    6.3305  -11.3838   26.3407 C   0  0  0  0  0  0  0  0  0  0  0  0
    7.6918  -11.2760   26.5230 C   0  0  0  0  0  0  0  0  0  0  0  0
    8.5125  -12.3614   26.3385 C   0  0  0  0  0  0  0  0  0  0  0  0
    7.9436  -13.5749   25.9636 C   0  0  0  0  0  0  0  0  0  0  0  0
    9.6308  -17.2843   27.0789 C   0  0  0  0  0  0  0  0  0  0  0  0
    9.9075  -16.9671   28.3934 O   0  0  0  0  0  0  0  0  0  0  0  0
    8.7844  -18.2164   26.9014 O   0  0  0  0  0  0  0  0  0  0  0  0
  1  2  1  0
  2  3  1  0
  3  4  1  1
  5  6  1  6
  5  3  1  0
  7  8  2  0
  7  5  1  0
 10  9  1  6
 10 12  1  0
 11 10  1  0
 12 14  1  0
 12 13  1  6
 13  7  1  0
 14 16  1  0
 15 14  2  0
 16 17  1  0
 17 28  1  0
 17 18  1  6
 19 18  1  0
 19 27  1  0
 20 21  1  0
 20 19  2  0
 21 22  1  0
 22 27  2  0
 22 23  1  0
 23 24  2  0
 24 25  1  0
 26 25  2  0
 27 26  1  0
 28 30  2  0
 28 29  1  0
M  END
$$$$
