ITW.pdb
     RDKit          3D

 30 31  0  0  1  0  0  0  0  0999 V2000
    7.2842  -11.5609   19.1468 C   0  0  0  0  0  0  0  0  0  0  0  0
    7.9274  -12.8838   18.9425 C   0  0  0  0  0  0  0  0  0  0  0  0
    7.8847  -13.7618   20.1506 C   0  0  2  0  0  0  0  0  0  0  0  0
    8.7162  -13.0912   21.2597 C   0  0  0  0  0  0  0  0  0  0  0  0
    8.4873  -15.1124   19.8108 C   0  0  2  0  0  0  0  0  0  0  0  0
    7.5679  -15.7265   18.8490 N   0  0  0  0  0  0  0  0  0  0  0  0
    8.4392  -15.9505   21.0391 C   0  0  0  0  0  0  0  0  0  0  0  0
    7.3011  -16.2630   21.5023 O   0  0  0  0  0  0  0  0  0  0  0  0
    9.2308  -19.3783   21.5842 C   0  0  0  0  0  0  0  0  0  0  0  0
    9.9848  -18.6263   22.6331 C   0  0  1  0  0  0  0  0  0  0  0  0
   11.3190  -18.4558   22.3686 O   0  0  0  0  0  0  0  0  0  0  0  0
    9.3675  -17.2664   22.9184 C   0  0  2  0  0  0  0  0  0  0  0  0
    9.5612  -16.4329   21.7372 N   0  0  0  0  0  0  0  0  0  0  0  0
   10.0337  -16.6960   24.0966 C   0  0  0  0  0  0  0  0  0  0  0  0
   11.0470  -15.9399   24.0124 O   0  0  0  0  0  0  0  0  0  0  0  0
    9.5326  -16.9929   25.3864 N   0  0  0  0  0  0  0  0  0  0  0  0
   10.3027  -16.6730   26.5956 C   0  0  1  0  0  0  0  0  0  0  0  0
    9.4310  -15.7824   27.4366 C   0  0  0  0  0  0  0  0  0  0  0  0
    8.1847  -15.3262   26.8490 C   0  0  0  0  0  0  0  0  0  0  0  0
    7.1725  -16.1330   26.3571 C   0  0  0  0  0  0  0  0  0  0  0  0
    6.1978  -15.3598   25.8618 N   0  0  0  0  0  0  0  0  0  0  0  0
    6.5586  -14.0631   26.0242 C   0  0  0  0  0  0  0  0  0  0  0  0
    5.9455  -12.8646   25.7198 C   0  0  0  0  0  0  0  0  0  0  0  0
    6.5363  -11.6555   26.0151 C   0  0  0  0  0  0  0  0  0  0  0  0
    7.7693  -11.6344   26.6293 C   0  0  0  0  0  0  0  0  0  0  0  0
    8.4142  -12.8041   26.9486 C   0  0  0  0  0  0  0  0  0  0  0  0
    7.7987  -14.0136   26.6402 C   0  0  0  0  0  0  0  0  0  0  0  0
   10.7925  -17.8787   27.2562 C   0  0  0  0  0  0  0  0  0  0  0  0
   11.7072  -17.8675   28.2898 O   0  0  0  0  0  0  0  0  0  0  0  0
   10.3858  -19.0265   26.8901 O   0  0  0  0  0  0  0  0  0  0  0  0
  1  2  1  0
  2  3  1  0
  3  4  1  1
  5  6  1  6
  5  3  1  0
  7  8  2  0
  7  5  1  0
 10  9  1  6
 10 12  1  0
 11 10  1  0
 12 14  1  0
 12 13  1  6
 13  7  1  0
 14 16  1  0
 15 14  2  0
 16 17  1  0
 17 28  1  0
 17 18  1  1
 19 18  1  0
 19 27  1  0
 20 21  1  0
 20 19  2  0
 21 22  1  0
 22 27  2  0
 22 23  1  0
 23 24  2  0
 24 25  1  0
 26 25  2  0
 27 26  1  0
 28 30  2  0
 28 29  1  0
M  END
$$$$
