ITW.pdb
     RDKit          3D

 30 31  0  0  1  0  0  0  0  0999 V2000
    7.6286  -11.7026   18.8725 C   0  0  0  0  0  0  0  0  0  0  0  0
    7.9425  -13.1212   18.5651 C   0  0  0  0  0  0  0  0  0  0  0  0
    8.1508  -13.9639   19.7811 C   0  0  2  0  0  0  0  0  0  0  0  0
    9.3598  -13.4022   20.5519 C   0  0  0  0  0  0  0  0  0  0  0  0
    8.4378  -15.3927   19.3582 C   0  0  2  0  0  0  0  0  0  0  0  0
    7.2460  -15.8385   18.6314 N   0  0  0  0  0  0  0  0  0  0  0  0
    8.5182  -16.2214   20.5912 C   0  0  0  0  0  0  0  0  0  0  0  0
    7.4680  -16.3531   21.2893 O   0  0  0  0  0  0  0  0  0  0  0  0
   10.0792  -19.7657   20.9838 C   0  0  0  0  0  0  0  0  0  0  0  0
   10.5230  -18.8742   22.0985 C   0  0  1  0  0  0  0  0  0  0  0  0
   11.8143  -18.4260   21.9944 O   0  0  0  0  0  0  0  0  0  0  0  0
    9.6044  -17.6754   22.2738 C   0  0  2  0  0  0  0  0  0  0  0  0
    9.6721  -16.8803   21.0528 N   0  0  0  0  0  0  0  0  0  0  0  0
   10.0621  -16.9111   23.4415 C   0  0  0  0  0  0  0  0  0  0  0  0
   10.7876  -15.8770   23.3428 O   0  0  0  0  0  0  0  0  0  0  0  0
    9.6829  -17.3344   24.7377 N   0  0  0  0  0  0  0  0  0  0  0  0
   10.2254  -16.6880   25.9399 C   0  0  1  0  0  0  0  0  0  0  0  0
    9.7815  -15.2524   25.8928 C   0  0  0  0  0  0  0  0  0  0  0  0
    8.3779  -14.9826   26.1451 C   0  0  0  0  0  0  0  0  0  0  0  0
    7.3422  -15.8966   26.0473 C   0  0  0  0  0  0  0  0  0  0  0  0
    6.1856  -15.2784   26.3178 N   0  0  0  0  0  0  0  0  0  0  0  0
    6.4515  -13.9774   26.5908 C   0  0  0  0  0  0  0  0  0  0  0  0
    5.6599  -12.9029   26.9426 C   0  0  0  0  0  0  0  0  0  0  0  0
    6.1984  -11.6588   27.1886 C   0  0  0  0  0  0  0  0  0  0  0  0
    7.5597  -11.4753   27.0827 C   0  0  0  0  0  0  0  0  0  0  0  0
    8.3832  -12.5177   26.7346 C   0  0  0  0  0  0  0  0  0  0  0  0
    7.8170  -13.7652   26.4900 C   0  0  0  0  0  0  0  0  0  0  0  0
    9.8662  -17.4178   27.1517 C   0  0  0  0  0  0  0  0  0  0  0  0
   10.3846  -17.1331   28.3987 O   0  0  0  0  0  0  0  0  0  0  0  0
    9.0369  -18.3805   27.1040 O   0  0  0  0  0  0  0  0  0  0  0  0
  1  2  1  0
  2  3  1  0
  3  4  1  6
  5  6  1  6
  5  3  1  0
  7  8  2  0
  7  5  1  0
 10  9  1  6
 10 12  1  0
 11 10  1  0
 12 14  1  0
 12 13  1  6
 13  7  1  0
 14 16  1  0
 15 14  2  0
 16 17  1  0
 17 28  1  0
 17 18  1  1
 19 18  1  0
 19 27  1  0
 20 21  1  0
 20 19  2  0
 21 22  1  0
 22 27  2  0
 22 23  1  0
 23 24  2  0
 24 25  1  0
 26 25  2  0
 27 26  1  0
 28 30  2  0
 28 29  1  0
M  END
$$$$
