ITW.pdb
     RDKit          3D

 30 31  0  0  1  0  0  0  0  0999 V2000
    7.9815  -11.6228   19.1752 C   0  0  0  0  0  0  0  0  0  0  0  0
    7.9425  -13.0705   18.8464 C   0  0  0  0  0  0  0  0  0  0  0  0
    8.2525  -13.9558   20.0093 C   0  0  2  0  0  0  0  0  0  0  0  0
    9.6660  -13.6086   20.5122 C   0  0  0  0  0  0  0  0  0  0  0  0
    8.2151  -15.4049   19.5607 C   0  0  2  0  0  0  0  0  0  0  0  0
    6.8229  -15.6687   19.1867 N   0  0  0  0  0  0  0  0  0  0  0  0
    8.5040  -16.2532   20.7483 C   0  0  0  0  0  0  0  0  0  0  0  0
    7.6311  -16.3092   21.6663 O   0  0  0  0  0  0  0  0  0  0  0  0
   11.1042  -19.7258   23.1002 C   0  0  0  0  0  0  0  0  0  0  0  0
   10.8641  -18.8688   21.8992 C   0  0  1  0  0  0  0  0  0  0  0  0
   10.4927  -19.5536   20.7713 O   0  0  0  0  0  0  0  0  0  0  0  0
    9.8371  -17.7803   22.1681 C   0  0  2  0  0  0  0  0  0  0  0  0
    9.6750  -17.0084   20.9412 N   0  0  0  0  0  0  0  0  0  0  0  0
   10.3297  -16.9443   23.2706 C   0  0  0  0  0  0  0  0  0  0  0  0
   11.0600  -15.9255   23.0853 O   0  0  0  0  0  0  0  0  0  0  0  0
    9.9802  -17.2771   24.6010 N   0  0  0  0  0  0  0  0  0  0  0  0
   10.3958  -16.4363   25.7314 C   0  0  1  0  0  0  0  0  0  0  0  0
    9.8365  -15.0646   25.4746 C   0  0  0  0  0  0  0  0  0  0  0  0
    8.4065  -14.8873   25.6479 C   0  0  0  0  0  0  0  0  0  0  0  0
    7.4388  -15.8644   25.4858 C   0  0  0  0  0  0  0  0  0  0  0  0
    6.2314  -15.3239   25.6934 N   0  0  0  0  0  0  0  0  0  0  0  0
    6.3974  -14.0111   25.9887 C   0  0  0  0  0  0  0  0  0  0  0  0
    5.5198  -12.9927   26.3009 C   0  0  0  0  0  0  0  0  0  0  0  0
    5.9625  -11.7192   26.5844 C   0  0  0  0  0  0  0  0  0  0  0  0
    7.3130  -11.4483   26.5575 C   0  0  0  0  0  0  0  0  0  0  0  0
    8.2201  -12.4326   26.2509 C   0  0  0  0  0  0  0  0  0  0  0  0
    7.7500  -13.7114   25.9673 C   0  0  0  0  0  0  0  0  0  0  0  0
   10.0292  -17.0353   27.0108 C   0  0  0  0  0  0  0  0  0  0  0  0
    9.2823  -18.1898   27.1296 O   0  0  0  0  0  0  0  0  0  0  0  0
   10.3919  -16.4963   28.1039 O   0  0  0  0  0  0  0  0  0  0  0  0
  1  2  1  0
  2  3  1  0
  3  4  1  6
  5  6  1  1
  5  3  1  0
  7  8  2  0
  7  5  1  0
 10  9  1  1
 10 12  1  0
 11 10  1  0
 12 14  1  0
 12 13  1  6
 13  7  1  0
 14 16  1  0
 15 14  2  0
 16 17  1  0
 17 28  1  0
 17 18  1  6
 19 18  1  0
 19 27  1  0
 20 21  1  0
 20 19  2  0
 21 22  1  0
 22 27  2  0
 22 23  1  0
 23 24  2  0
 24 25  1  0
 26 25  2  0
 27 26  1  0
 28 30  2  0
 28 29  1  0
M  END
$$$$
