ITW.pdb
     RDKit          3D

 30 31  0  0  1  0  0  0  0  0999 V2000
    6.0116  -12.4359   26.7306 C   0  0  0  0  0  0  0  0  0  0  0  0
    5.7439  -13.7544   26.1016 C   0  0  0  0  0  0  0  0  0  0  0  0
    6.9054  -14.2972   25.3346 C   0  0  2  0  0  0  0  0  0  0  0  0
    7.3242  -13.2450   24.2911 C   0  0  0  0  0  0  0  0  0  0  0  0
    6.4880  -15.5739   24.6287 C   0  0  2  0  0  0  0  0  0  0  0  0
    6.1551  -16.5251   25.6927 N   0  0  0  0  0  0  0  0  0  0  0  0
    7.6851  -16.1174   23.9323 C   0  0  0  0  0  0  0  0  0  0  0  0
    8.5250  -16.7751   24.6178 O   0  0  0  0  0  0  0  0  0  0  0  0
    7.7172  -17.0574   19.9051 C   0  0  0  0  0  0  0  0  0  0  0  0
    8.9995  -16.5301   20.4636 C   0  0  1  0  0  0  0  0  0  0  0  0
    9.2642  -15.2212   20.1540 O   0  0  0  0  0  0  0  0  0  0  0  0
    9.0799  -16.6993   21.9725 C   0  0  2  0  0  0  0  0  0  0  0  0
    7.9672  -15.9638   22.5628 N   0  0  0  0  0  0  0  0  0  0  0  0
   10.3746  -16.1751   22.4265 C   0  0  0  0  0  0  0  0  0  0  0  0
   10.6995  -14.9558   22.3108 O   0  0  0  0  0  0  0  0  0  0  0  0
   11.3078  -17.0568   23.0222 N   0  0  0  0  0  0  0  0  0  0  0  0
   11.7890  -16.8446   24.3936 C   0  0  1  0  0  0  0  0  0  0  0  0
   10.5690  -16.7552   25.2677 C   0  0  0  0  0  0  0  0  0  0  0  0
   10.7843  -16.6139   26.6960 C   0  0  0  0  0  0  0  0  0  0  0  0
   10.9966  -17.6464   27.5940 C   0  0  0  0  0  0  0  0  0  0  0  0
   11.1183  -17.1370   28.8264 N   0  0  0  0  0  0  0  0  0  0  0  0
   10.9896  -15.7898   28.7451 C   0  0  0  0  0  0  0  0  0  0  0  0
   11.0421  -14.7757   29.6799 C   0  0  0  0  0  0  0  0  0  0  0  0
   10.8938  -13.4539   29.3207 C   0  0  0  0  0  0  0  0  0  0  0  0
   10.6878  -13.1288   27.9978 C   0  0  0  0  0  0  0  0  0  0  0  0
   10.6282  -14.1072   27.0360 C   0  0  0  0  0  0  0  0  0  0  0  0
   10.7799  -15.4356   27.4221 C   0  0  0  0  0  0  0  0  0  0  0  0
   12.7684  -17.8543   24.7824 C   0  0  0  0  0  0  0  0  0  0  0  0
   12.5655  -19.2122   24.6409 O   0  0  0  0  0  0  0  0  0  0  0  0
   13.8834  -17.5115   25.2886 O   0  0  0  0  0  0  0  0  0  0  0  0
  1  2  1  0
  2  3  1  0
  3  4  1  6
  5  6  1  1
  5  3  1  0
  7  8  2  0
  7  5  1  0
 10  9  1  1
 10 12  1  0
 11 10  1  0
 12 14  1  0
 12 13  1  1
 13  7  1  0
 14 16  1  0
 15 14  2  0
 16 17  1  0
 17 28  1  0
 17 18  1  1
 19 18  1  0
 19 27  1  0
 20 21  1  0
 20 19  2  0
 21 22  1  0
 22 27  2  0
 22 23  1  0
 23 24  2  0
 24 25  1  0
 26 25  2  0
 27 26  1  0
 28 30  2  0
 28 29  1  0
M  END
$$$$
