ITW.pdb
     RDKit          3D

 30 31  0  0  1  0  0  0  0  0999 V2000
    7.1628  -12.5135   17.8544 C   0  0  0  0  0  0  0  0  0  0  0  0
    8.4057  -12.4742   18.6663 C   0  0  0  0  0  0  0  0  0  0  0  0
    8.3921  -13.4170   19.8252 C   0  0  2  0  0  0  0  0  0  0  0  0
    9.4682  -12.9597   20.8274 C   0  0  0  0  0  0  0  0  0  0  0  0
    8.7156  -14.8169   19.3369 C   0  0  2  0  0  0  0  0  0  0  0  0
    7.5814  -15.2170   18.4996 N   0  0  0  0  0  0  0  0  0  0  0  0
    8.7103  -15.7203   20.5191 C   0  0  0  0  0  0  0  0  0  0  0  0
    7.6123  -15.8977   21.1278 O   0  0  0  0  0  0  0  0  0  0  0  0
    9.9859  -19.2993   20.7441 C   0  0  0  0  0  0  0  0  0  0  0  0
   10.4904  -18.5355   21.9258 C   0  0  1  0  0  0  0  0  0  0  0  0
   11.8176  -18.1978   21.8660 O   0  0  0  0  0  0  0  0  0  0  0  0
    9.6788  -17.2757   22.1828 C   0  0  2  0  0  0  0  0  0  0  0  0
    9.8317  -16.4034   21.0237 N   0  0  0  0  0  0  0  0  0  0  0  0
   10.1873  -16.6416   23.4061 C   0  0  0  0  0  0  0  0  0  0  0  0
   10.9530  -15.6322   23.3880 O   0  0  0  0  0  0  0  0  0  0  0  0
    9.8130  -17.1680   24.6654 N   0  0  0  0  0  0  0  0  0  0  0  0
   10.3265  -16.5925   25.9154 C   0  0  1  0  0  0  0  0  0  0  0  0
    9.7977  -15.1871   25.9900 C   0  0  0  0  0  0  0  0  0  0  0  0
    8.3617  -15.0241   26.1239 C   0  0  0  0  0  0  0  0  0  0  0  0
    7.4143  -16.0283   26.0172 C   0  0  0  0  0  0  0  0  0  0  0  0
    6.1940  -15.4964   26.1625 N   0  0  0  0  0  0  0  0  0  0  0  0
    6.3317  -14.1627   26.3628 C   0  0  0  0  0  0  0  0  0  0  0  0
    5.4308  -13.1404   26.5830 C   0  0  0  0  0  0  0  0  0  0  0  0
    5.8460  -11.8415   26.7795 C   0  0  0  0  0  0  0  0  0  0  0  0
    7.1920  -11.5483   26.7569 C   0  0  0  0  0  0  0  0  0  0  0  0
    8.1216  -12.5356   26.5403 C   0  0  0  0  0  0  0  0  0  0  0  0
    7.6791  -13.8403   26.3436 C   0  0  0  0  0  0  0  0  0  0  0  0
   10.0219  -17.4407   27.0633 C   0  0  0  0  0  0  0  0  0  0  0  0
   10.4388  -17.1661   28.3501 O   0  0  0  0  0  0  0  0  0  0  0  0
    9.3412  -18.5048   26.9176 O   0  0  0  0  0  0  0  0  0  0  0  0
  1  2  1  0
  2  3  1  0
  3  4  1  1
  5  6  1  6
  5  3  1  0
  7  8  2  0
  7  5  1  0
 10  9  1  6
 10 12  1  0
 11 10  1  0
 12 14  1  0
 12 13  1  6
 13  7  1  0
 14 16  1  0
 15 14  2  0
 16 17  1  0
 17 28  1  0
 17 18  1  1
 19 18  1  0
 19 27  1  0
 20 21  1  0
 20 19  2  0
 21 22  1  0
 22 27  2  0
 22 23  1  0
 23 24  2  0
 24 25  1  0
 26 25  2  0
 27 26  1  0
 28 30  2  0
 28 29  1  0
M  END
$$$$
