DSH.pdb
     RDKit          3D

 25 25  0  0  1  0  0  0  0  0999 V2000
    8.4332  -25.9172   28.5662 N   0  0  0  0  0  0  0  0  0  0  0  0
    9.8666  -25.8506   28.7481 C   0  0  1  0  0  0  0  0  0  0  0  0
   10.4506  -25.1315   27.5297 C   0  0  0  0  0  0  0  0  0  0  0  0
   10.4174  -26.0165   26.3657 C   0  0  0  0  0  0  0  0  0  0  0  0
    9.4720  -25.9700   25.5478 O   0  0  0  0  0  0  0  0  0  0  0  0
   10.1544  -25.0849   29.9638 C   0  0  0  0  0  0  0  0  0  0  0  0
    9.4377  -24.0937   30.3097 O   0  0  0  0  0  0  0  0  0  0  0  0
   11.4332  -26.9257   26.1442 O   0  0  0  0  0  0  0  0  0  0  0  0
   12.3660  -26.5580   33.2087 O   0  0  0  0  0  0  0  0  0  0  0  0
   11.4587  -25.5235   33.2818 C   0  0  0  0  0  0  0  0  0  0  0  0
   11.4757  -24.6347   32.0612 C   0  0  2  0  0  0  0  0  0  0  0  0
   11.2428  -25.3826   30.8442 N   0  0  0  0  0  0  0  0  0  0  0  0
   12.7113  -23.8131   31.9734 C   0  0  0  0  0  0  0  0  0  0  0  0
   13.7339  -24.2777   31.4063 O   0  0  0  0  0  0  0  0  0  0  0  0
   12.8089  -22.4977   32.5066 N   0  0  0  0  0  0  0  0  0  0  0  0
   14.0205  -21.7007   32.3603 C   0  0  1  0  0  0  0  0  0  0  0  0
   13.7170  -20.2479   32.2029 C   0  0  0  0  0  0  0  0  0  0  0  0
   13.0549  -19.9797   30.9221 C   0  0  0  0  0  0  0  0  0  0  0  0
   13.4790  -20.3674   29.6614 C   0  0  0  0  0  0  0  0  0  0  0  0
   12.6056  -19.9340   28.7384 N   0  0  0  0  0  0  0  0  0  0  0  0
   11.6273  -19.2750   29.3778 C   0  0  0  0  0  0  0  0  0  0  0  0
   11.9093  -19.3087   30.6998 N   0  0  0  0  0  0  0  0  0  0  0  0
   14.9651  -21.9587   33.4491 C   0  0  0  0  0  0  0  0  0  0  0  0
   14.6222  -22.8149   34.3378 O   0  0  0  0  0  0  0  0  0  0  0  0
   16.1976  -21.3738   33.6224 O   0  0  0  0  0  0  0  0  0  0  0  0
  2  1  1  6
  3  2  1  0
  4  3  1  0
  5  4  2  0
  6  7  2  0
  6  2  1  0
  8  4  1  0
  9 10  1  0
 11 10  1  1
 11 12  1  0
 12  6  1  0
 13 15  1  0
 13 11  1  0
 14 13  2  0
 16 23  1  0
 16 15  1  0
 16 17  1  1
 17 18  1  0
 18 22  1  0
 19 18  2  0
 19 20  1  0
 20 21  1  0
 22 21  2  0
 23 25  1  0
 24 23  2  0
M  END
$$$$
