DSH.pdb
     RDKit          3D

 25 25  0  0  1  0  0  0  0  0999 V2000
   11.9438  -15.5396   17.6404 N   0  0  0  0  0  0  0  0  0  0  0  0
   12.3254  -15.6213   19.0332 C   0  0  1  0  0  0  0  0  0  0  0  0
   13.0124  -14.3033   19.3985 C   0  0  0  0  0  0  0  0  0  0  0  0
   14.3756  -14.2884   18.8684 C   0  0  0  0  0  0  0  0  0  0  0  0
   14.9209  -15.3389   18.4637 O   0  0  0  0  0  0  0  0  0  0  0  0
   11.1183  -15.7957   19.8452 C   0  0  0  0  0  0  0  0  0  0  0  0
    9.9844  -15.3812   19.4472 O   0  0  0  0  0  0  0  0  0  0  0  0
   15.0920  -13.1094   18.8033 O   0  0  0  0  0  0  0  0  0  0  0  0
   10.2621  -19.0807   21.9068 O   0  0  0  0  0  0  0  0  0  0  0  0
    9.3642  -18.0884   21.5778 C   0  0  0  0  0  0  0  0  0  0  0  0
    9.8909  -16.6999   21.8511 C   0  0  2  0  0  0  0  0  0  0  0  0
   11.1151  -16.4334   21.1265 N   0  0  0  0  0  0  0  0  0  0  0  0
   10.0412  -16.4247   23.3041 C   0  0  0  0  0  0  0  0  0  0  0  0
   11.1900  -16.3110   23.8049 O   0  0  0  0  0  0  0  0  0  0  0  0
    8.9341  -16.2784   24.1855 N   0  0  0  0  0  0  0  0  0  0  0  0
    9.1158  -16.1292   25.6240 C   0  0  1  0  0  0  0  0  0  0  0  0
    7.8500  -15.7327   26.3081 C   0  0  0  0  0  0  0  0  0  0  0  0
    7.3977  -14.4106   25.8630 C   0  0  0  0  0  0  0  0  0  0  0  0
    8.0505  -13.5488   24.9966 C   0  0  0  0  0  0  0  0  0  0  0  0
    7.3201  -12.4340   24.8336 N   0  0  0  0  0  0  0  0  0  0  0  0
    6.2101  -12.5593   25.5769 C   0  0  0  0  0  0  0  0  0  0  0  0
    6.2674  -13.7600   26.1961 N   0  0  0  0  0  0  0  0  0  0  0  0
    9.7176  -17.3267   26.2141 C   0  0  0  0  0  0  0  0  0  0  0  0
    9.7228  -18.3946   25.5069 O   0  0  0  0  0  0  0  0  0  0  0  0
   10.2862  -17.4298   27.4619 O   0  0  0  0  0  0  0  0  0  0  0  0
  2  1  1  6
  3  2  1  0
  4  3  1  0
  5  4  2  0
  6  7  2  0
  6  2  1  0
  8  4  1  0
  9 10  1  0
 11 10  1  1
 11 12  1  0
 12  6  1  0
 13 15  1  0
 13 11  1  0
 14 13  2  0
 16 23  1  0
 16 15  1  0
 16 17  1  1
 17 18  1  0
 18 22  1  0
 19 18  2  0
 19 20  1  0
 20 21  1  0
 22 21  2  0
 23 25  1  0
 24 23  2  0
M  END
$$$$
