DSH.pdb
     RDKit          3D

 25 25  0  0  1  0  0  0  0  0999 V2000
    9.7444  -17.0861   17.0379 N   0  0  0  0  0  0  0  0  0  0  0  0
    9.0382  -17.6573   18.1637 C   0  0  1  0  0  0  0  0  0  0  0  0
    9.6366  -19.0414   18.4260 C   0  0  0  0  0  0  0  0  0  0  0  0
    9.2289  -19.9685   17.3708 C   0  0  0  0  0  0  0  0  0  0  0  0
    8.0446  -20.3611   17.2803 O   0  0  0  0  0  0  0  0  0  0  0  0
    9.2386  -16.7980   19.3335 C   0  0  0  0  0  0  0  0  0  0  0  0
   10.4020  -16.5351   19.7730 O   0  0  0  0  0  0  0  0  0  0  0  0
   10.1466  -20.4319   16.4484 O   0  0  0  0  0  0  0  0  0  0  0  0
    6.0474  -15.2197   21.7289 O   0  0  0  0  0  0  0  0  0  0  0  0
    7.1878  -14.4771   21.5120 C   0  0  0  0  0  0  0  0  0  0  0  0
    8.3956  -15.3267   21.1968 C   0  0  2  0  0  0  0  0  0  0  0  0
    8.1645  -16.1960   20.0631 N   0  0  0  0  0  0  0  0  0  0  0  0
    8.8824  -16.0838   22.3798 C   0  0  0  0  0  0  0  0  0  0  0  0
    8.5619  -17.2917   22.5261 O   0  0  0  0  0  0  0  0  0  0  0  0
    9.7112  -15.5085   23.3829 N   0  0  0  0  0  0  0  0  0  0  0  0
   10.1070  -16.2561   24.5698 C   0  0  1  0  0  0  0  0  0  0  0  0
   11.5548  -16.0772   24.8849 C   0  0  0  0  0  0  0  0  0  0  0  0
   12.4011  -16.7338   23.8832 C   0  0  0  0  0  0  0  0  0  0  0  0
   11.9920  -17.5755   22.8616 C   0  0  0  0  0  0  0  0  0  0  0  0
   13.0595  -17.9767   22.1528 N   0  0  0  0  0  0  0  0  0  0  0  0
   14.1480  -17.4112   22.6963 C   0  0  0  0  0  0  0  0  0  0  0  0
   13.7379  -16.6606   23.7435 N   0  0  0  0  0  0  0  0  0  0  0  0
    9.2447  -15.9432   25.7113 C   0  0  0  0  0  0  0  0  0  0  0  0
    8.3964  -14.9943   25.5678 O   0  0  0  0  0  0  0  0  0  0  0  0
    9.2467  -16.5669   26.9369 O   0  0  0  0  0  0  0  0  0  0  0  0
  2  1  1  6
  3  2  1  0
  4  3  1  0
  5  4  2  0
  6  7  2  0
  6  2  1  0
  8  4  1  0
  9 10  1  0
 11 10  1  1
 11 12  1  0
 12  6  1  0
 13 15  1  0
 13 11  1  0
 14 13  2  0
 16 23  1  0
 16 15  1  0
 16 17  1  1
 17 18  1  0
 18 22  1  0
 19 18  2  0
 19 20  1  0
 20 21  1  0
 22 21  2  0
 23 25  1  0
 24 23  2  0
M  END
$$$$
