DSH.pdb
     RDKit          3D

 25 25  0  0  1  0  0  0  0  0999 V2000
    7.4295  -17.0292   20.5701 N   0  0  0  0  0  0  0  0  0  0  0  0
    8.4716  -16.1626   21.0755 C   0  0  1  0  0  0  0  0  0  0  0  0
    7.9751  -14.7212   20.9402 C   0  0  0  0  0  0  0  0  0  0  0  0
    8.0789  -14.2872   19.5473 C   0  0  0  0  0  0  0  0  0  0  0  0
    8.7344  -14.9500   18.7131 O   0  0  0  0  0  0  0  0  0  0  0  0
    8.7066  -16.4783   22.4869 C   0  0  0  0  0  0  0  0  0  0  0  0
    7.7524  -16.5211   23.3256 O   0  0  0  0  0  0  0  0  0  0  0  0
    7.4529  -13.1318   19.1222 O   0  0  0  0  0  0  0  0  0  0  0  0
   12.5880  -17.3284   24.2185 O   0  0  0  0  0  0  0  0  0  0  0  0
   11.4401  -18.0031   24.5735 C   0  0  0  0  0  0  0  0  0  0  0  0
   10.1897  -17.1744   24.4008 C   0  0  2  0  0  0  0  0  0  0  0  0
   10.0018  -16.7586   23.0273 N   0  0  0  0  0  0  0  0  0  0  0  0
   10.1389  -16.0204   25.3363 C   0  0  0  0  0  0  0  0  0  0  0  0
   10.5696  -14.8965   24.9692 O   0  0  0  0  0  0  0  0  0  0  0  0
    9.6184  -16.1136   26.6571 N   0  0  0  0  0  0  0  0  0  0  0  0
    9.7498  -15.0187   27.6103 C   0  0  1  0  0  0  0  0  0  0  0  0
    8.4216  -14.5156   28.0687 C   0  0  0  0  0  0  0  0  0  0  0  0
    7.8462  -13.5772   27.0998 C   0  0  0  0  0  0  0  0  0  0  0  0
    8.4264  -13.1219   25.9269 C   0  0  0  0  0  0  0  0  0  0  0  0
    7.5893  -12.2730   25.3093 N   0  0  0  0  0  0  0  0  0  0  0  0
    6.4816  -12.1716   26.0597 C   0  0  0  0  0  0  0  0  0  0  0  0
    6.6478  -12.9655   27.1415 N   0  0  0  0  0  0  0  0  0  0  0  0
   10.6240  -15.3838   28.7269 C   0  0  0  0  0  0  0  0  0  0  0  0
   10.8506  -14.4900   29.6160 O   0  0  0  0  0  0  0  0  0  0  0  0
   11.2353  -16.5992   28.9275 O   0  0  0  0  0  0  0  0  0  0  0  0
  2  1  1  1
  3  2  1  0
  4  3  1  0
  5  4  2  0
  6  7  2  0
  6  2  1  0
  8  4  1  0
  9 10  1  0
 11 10  1  6
 11 12  1  0
 12  6  1  0
 13 15  1  0
 13 11  1  0
 14 13  2  0
 16 23  1  0
 16 15  1  0
 16 17  1  1
 17 18  1  0
 18 22  1  0
 19 18  2  0
 19 20  1  0
 20 21  1  0
 22 21  2  0
 23 25  1  0
 24 23  2  0
M  END
$$$$
