DSH.pdb
     RDKit          3D

 25 25  0  0  1  0  0  0  0  0999 V2000
    8.1352  -20.3796   19.8542 N   0  0  0  0  0  0  0  0  0  0  0  0
    8.1027  -19.4198   20.9359 C   0  0  1  0  0  0  0  0  0  0  0  0
    6.6445  -19.2767   21.3783 C   0  0  0  0  0  0  0  0  0  0  0  0
    5.7907  -20.1458   20.5690 C   0  0  0  0  0  0  0  0  0  0  0  0
    6.2695  -20.8396   19.6447 O   0  0  0  0  0  0  0  0  0  0  0  0
    8.9123  -19.9296   22.0456 C   0  0  0  0  0  0  0  0  0  0  0  0
    8.6161  -21.0131   22.6409 O   0  0  0  0  0  0  0  0  0  0  0  0
    4.4326  -20.2191   20.8093 O   0  0  0  0  0  0  0  0  0  0  0  0
   12.8318  -18.5538   23.0680 O   0  0  0  0  0  0  0  0  0  0  0  0
   12.3237  -19.7992   23.3676 C   0  0  0  0  0  0  0  0  0  0  0  0
   10.8421  -19.7791   23.6582 C   0  0  2  0  0  0  0  0  0  0  0  0
   10.0787  -19.2649   22.5414 N   0  0  0  0  0  0  0  0  0  0  0  0
   10.5201  -19.0630   24.9203 C   0  0  0  0  0  0  0  0  0  0  0  0
    9.8885  -17.9754   24.8802 O   0  0  0  0  0  0  0  0  0  0  0  0
   10.8934  -19.5470   26.2050 N   0  0  0  0  0  0  0  0  0  0  0  0
   10.1319  -19.2089   27.4010 C   0  0  1  0  0  0  0  0  0  0  0  0
    8.7053  -19.6338   27.2928 C   0  0  0  0  0  0  0  0  0  0  0  0
    7.9114  -18.6452   26.5559 C   0  0  0  0  0  0  0  0  0  0  0  0
    8.1825  -17.2947   26.4068 C   0  0  0  0  0  0  0  0  0  0  0  0
    7.2227  -16.7211   25.6635 N   0  0  0  0  0  0  0  0  0  0  0  0
    6.3385  -17.6738   25.3304 C   0  0  0  0  0  0  0  0  0  0  0  0
    6.7653  -18.8350   25.8760 N   0  0  0  0  0  0  0  0  0  0  0  0
   10.7776  -19.7248   28.6098 C   0  0  0  0  0  0  0  0  0  0  0  0
   11.6008  -20.6963   28.4707 O   0  0  0  0  0  0  0  0  0  0  0  0
   10.5941  -19.2724   29.8954 O   0  0  0  0  0  0  0  0  0  0  0  0
  2  1  1  6
  3  2  1  0
  4  3  1  0
  5  4  2  0
  6  7  2  0
  6  2  1  0
  8  4  1  0
  9 10  1  0
 11 10  1  6
 11 12  1  0
 12  6  1  0
 13 15  1  0
 13 11  1  0
 14 13  2  0
 16 23  1  0
 16 15  1  0
 16 17  1  6
 17 18  1  0
 18 22  1  0
 19 18  2  0
 19 20  1  0
 20 21  1  0
 22 21  2  0
 23 25  1  0
 24 23  2  0
M  END
$$$$
