DSH.pdb
     RDKit          3D

 25 25  0  0  1  0  0  0  0  0999 V2000
    5.9217  -18.1300   18.8564 N   0  0  0  0  0  0  0  0  0  0  0  0
    7.1486  -17.9814   19.6080 C   0  0  1  0  0  0  0  0  0  0  0  0
    7.8405  -16.7102   19.1099 C   0  0  0  0  0  0  0  0  0  0  0  0
    8.4792  -16.9641   17.8187 C   0  0  0  0  0  0  0  0  0  0  0  0
    8.8659  -16.0201   17.0947 O   0  0  0  0  0  0  0  0  0  0  0  0
    6.8194  -17.8450   21.0293 C   0  0  0  0  0  0  0  0  0  0  0  0
    6.0852  -16.8978   21.4531 O   0  0  0  0  0  0  0  0  0  0  0  0
    8.6694  -18.2564   17.3701 O   0  0  0  0  0  0  0  0  0  0  0  0
    7.6913  -20.7900   24.0941 O   0  0  0  0  0  0  0  0  0  0  0  0
    6.6058  -19.9416   24.0665 C   0  0  0  0  0  0  0  0  0  0  0  0
    6.9135  -18.6081   23.4285 C   0  0  2  0  0  0  0  0  0  0  0  0
    7.2867  -18.7473   22.0371 N   0  0  0  0  0  0  0  0  0  0  0  0
    7.9242  -17.8317   24.1936 C   0  0  0  0  0  0  0  0  0  0  0  0
    9.1198  -17.8029   23.8026 O   0  0  0  0  0  0  0  0  0  0  0  0
    7.6116  -17.0998   25.3729 N   0  0  0  0  0  0  0  0  0  0  0  0
    8.6439  -16.4294   26.1535 C   0  0  1  0  0  0  0  0  0  0  0  0
    8.2224  -15.0622   26.5784 C   0  0  0  0  0  0  0  0  0  0  0  0
    7.7436  -14.2756   25.4370 C   0  0  0  0  0  0  0  0  0  0  0  0
    6.5837  -13.5213   25.3660 C   0  0  0  0  0  0  0  0  0  0  0  0
    6.4922  -12.9471   24.1557 N   0  0  0  0  0  0  0  0  0  0  0  0
    7.5690  -13.3157   23.4452 C   0  0  0  0  0  0  0  0  0  0  0  0
    8.3202  -14.1201   24.2306 N   0  0  0  0  0  0  0  0  0  0  0  0
    9.0816  -17.2541   27.2816 C   0  0  0  0  0  0  0  0  0  0  0  0
   10.0071  -16.7845   28.0323 O   0  0  0  0  0  0  0  0  0  0  0  0
    8.5993  -18.4947   27.6274 O   0  0  0  0  0  0  0  0  0  0  0  0
  2  1  1  6
  3  2  1  0
  4  3  1  0
  5  4  2  0
  6  7  2  0
  6  2  1  0
  8  4  1  0
  9 10  1  0
 11 10  1  1
 11 12  1  0
 12  6  1  0
 13 15  1  0
 13 11  1  0
 14 13  2  0
 16 23  1  0
 16 15  1  0
 16 17  1  1
 17 18  1  0
 18 22  1  0
 19 18  2  0
 19 20  1  0
 20 21  1  0
 22 21  2  0
 23 25  1  0
 24 23  2  0
M  END
$$$$
