DSH.pdb
     RDKit          3D

 25 25  0  0  1  0  0  0  0  0999 V2000
   11.9967  -16.5184   13.2650 N   0  0  0  0  0  0  0  0  0  0  0  0
   12.2539  -17.2047   14.5121 C   0  0  1  0  0  0  0  0  0  0  0  0
   13.6946  -16.8887   14.9207 C   0  0  0  0  0  0  0  0  0  0  0  0
   14.6248  -17.4506   13.9416 C   0  0  0  0  0  0  0  0  0  0  0  0
   14.4528  -18.5982   13.4744 O   0  0  0  0  0  0  0  0  0  0  0  0
   11.3261  -16.7024   15.5289 C   0  0  0  0  0  0  0  0  0  0  0  0
   11.1980  -15.4579   15.7543 O   0  0  0  0  0  0  0  0  0  0  0  0
   15.7167  -16.7229   13.5107 O   0  0  0  0  0  0  0  0  0  0  0  0
    8.7713  -19.2228   17.9058 O   0  0  0  0  0  0  0  0  0  0  0  0
    8.3552  -18.0000   17.4257 C   0  0  0  0  0  0  0  0  0  0  0  0
    9.4913  -17.0258   17.2249 C   0  0  2  0  0  0  0  0  0  0  0  0
   10.5045  -17.5523   16.3356 N   0  0  0  0  0  0  0  0  0  0  0  0
   10.0758  -16.5613   18.5102 C   0  0  0  0  0  0  0  0  0  0  0  0
   11.1970  -15.9901   18.5188 O   0  0  0  0  0  0  0  0  0  0  0  0
    9.4256  -16.7286   19.7646 N   0  0  0  0  0  0  0  0  0  0  0  0
   10.0131  -16.2329   21.0030 C   0  0  1  0  0  0  0  0  0  0  0  0
   10.3042  -14.7705   20.9363 C   0  0  0  0  0  0  0  0  0  0  0  0
    9.1945  -14.0360   20.3200 C   0  0  0  0  0  0  0  0  0  0  0  0
    7.9605  -13.7536   20.8831 C   0  0  0  0  0  0  0  0  0  0  0  0
    7.2129  -13.0619   20.0081 N   0  0  0  0  0  0  0  0  0  0  0  0
    7.9394  -12.8927   18.8928 C   0  0  0  0  0  0  0  0  0  0  0  0
    9.1376  -13.4865   19.0925 N   0  0  0  0  0  0  0  0  0  0  0  0
    9.1924  -16.5860   22.1632 C   0  0  0  0  0  0  0  0  0  0  0  0
    8.0425  -17.1033   21.9375 O   0  0  0  0  0  0  0  0  0  0  0  0
    9.5276  -16.4211   23.4866 O   0  0  0  0  0  0  0  0  0  0  0  0
  2  1  1  6
  3  2  1  0
  4  3  1  0
  5  4  2  0
  6  7  2  0
  6  2  1  0
  8  4  1  0
  9 10  1  0
 11 10  1  1
 11 12  1  0
 12  6  1  0
 13 15  1  0
 13 11  1  0
 14 13  2  0
 16 23  1  0
 16 15  1  0
 16 17  1  6
 17 18  1  0
 18 22  1  0
 19 18  2  0
 19 20  1  0
 20 21  1  0
 22 21  2  0
 23 25  1  0
 24 23  2  0
M  END
$$$$
