DSH.pdb
     RDKit          3D

 25 25  0  0  1  0  0  0  0  0999 V2000
   11.5058  -18.9425   18.4351 N   0  0  0  0  0  0  0  0  0  0  0  0
   10.9875  -17.5939   18.3660 C   0  0  1  0  0  0  0  0  0  0  0  0
   10.2091  -17.4684   17.0541 C   0  0  0  0  0  0  0  0  0  0  0  0
   11.1241  -17.5842   15.9189 C   0  0  0  0  0  0  0  0  0  0  0  0
   12.3601  -17.4692   16.0734 O   0  0  0  0  0  0  0  0  0  0  0  0
   10.0884  -17.3736   19.5018 C   0  0  0  0  0  0  0  0  0  0  0  0
    9.5278  -16.2495   19.6969 O   0  0  0  0  0  0  0  0  0  0  0  0
   10.6406  -17.8240   14.6476 O   0  0  0  0  0  0  0  0  0  0  0  0
    9.3932  -20.2365   22.6474 O   0  0  0  0  0  0  0  0  0  0  0  0
    8.3833  -19.4104   22.2040 C   0  0  0  0  0  0  0  0  0  0  0  0
    8.8942  -18.1304   21.5871 C   0  0  2  0  0  0  0  0  0  0  0  0
    9.7731  -18.3836   20.4656 N   0  0  0  0  0  0  0  0  0  0  0  0
    9.5250  -17.2296   22.5873 C   0  0  0  0  0  0  0  0  0  0  0  0
   10.4060  -16.4082   22.2234 O   0  0  0  0  0  0  0  0  0  0  0  0
    9.1826  -17.2414   23.9682 N   0  0  0  0  0  0  0  0  0  0  0  0
    9.9038  -16.4316   24.9422 C   0  0  1  0  0  0  0  0  0  0  0  0
    9.7594  -14.9713   24.6700 C   0  0  0  0  0  0  0  0  0  0  0  0
    8.3929  -14.5134   24.9411 C   0  0  0  0  0  0  0  0  0  0  0  0
    7.2928  -15.2956   25.2531 C   0  0  0  0  0  0  0  0  0  0  0  0
    6.2176  -14.5114   25.4319 N   0  0  0  0  0  0  0  0  0  0  0  0
    6.6018  -13.2401   25.2415 C   0  0  0  0  0  0  0  0  0  0  0  0
    7.9210  -13.2528   24.9448 N   0  0  0  0  0  0  0  0  0  0  0  0
    9.5283  -16.7835   26.3131 C   0  0  0  0  0  0  0  0  0  0  0  0
    8.5270  -17.5670   26.4684 O   0  0  0  0  0  0  0  0  0  0  0  0
   10.1433  -16.3587   27.4674 O   0  0  0  0  0  0  0  0  0  0  0  0
  2  1  1  1
  3  2  1  0
  4  3  1  0
  5  4  2  0
  6  7  2  0
  6  2  1  0
  8  4  1  0
  9 10  1  0
 11 10  1  1
 11 12  1  0
 12  6  1  0
 13 15  1  0
 13 11  1  0
 14 13  2  0
 16 23  1  0
 16 15  1  0
 16 17  1  6
 17 18  1  0
 18 22  1  0
 19 18  2  0
 19 20  1  0
 20 21  1  0
 22 21  2  0
 23 25  1  0
 24 23  2  0
M  END
$$$$
