DSH.pdb
     RDKit          3D

 25 25  0  0  1  0  0  0  0  0999 V2000
   12.4132  -19.5409   20.1521 N   0  0  0  0  0  0  0  0  0  0  0  0
   12.1967  -18.1837   20.6029 C   0  0  1  0  0  0  0  0  0  0  0  0
   11.2779  -17.5035   19.5852 C   0  0  0  0  0  0  0  0  0  0  0  0
   11.9210  -17.4790   18.2718 C   0  0  0  0  0  0  0  0  0  0  0  0
   13.1164  -17.1326   18.1461 O   0  0  0  0  0  0  0  0  0  0  0  0
   11.5465  -18.2190   21.9156 C   0  0  0  0  0  0  0  0  0  0  0  0
   11.0866  -17.1652   22.4575 O   0  0  0  0  0  0  0  0  0  0  0  0
   11.2190  -17.8393   17.1382 O   0  0  0  0  0  0  0  0  0  0  0  0
   11.6214  -21.5787   24.5977 O   0  0  0  0  0  0  0  0  0  0  0  0
   10.4795  -20.8163   24.4809 C   0  0  0  0  0  0  0  0  0  0  0  0
   10.7513  -19.4163   23.9847 C   0  0  2  0  0  0  0  0  0  0  0  0
   11.3786  -19.4169   22.6805 N   0  0  0  0  0  0  0  0  0  0  0  0
   11.5208  -18.6054   24.9645 C   0  0  0  0  0  0  0  0  0  0  0  0
   12.3536  -17.7546   24.5570 O   0  0  0  0  0  0  0  0  0  0  0  0
   11.3675  -18.7375   26.3727 N   0  0  0  0  0  0  0  0  0  0  0  0
   11.1656  -17.5779   27.2325 C   0  0  1  0  0  0  0  0  0  0  0  0
   10.1012  -16.6728   26.7076 C   0  0  0  0  0  0  0  0  0  0  0  0
   10.0220  -15.4361   27.4918 C   0  0  0  0  0  0  0  0  0  0  0  0
   10.7586  -15.1090   28.6188 C   0  0  0  0  0  0  0  0  0  0  0  0
   10.4014  -13.8898   29.0531 N   0  0  0  0  0  0  0  0  0  0  0  0
    9.4499  -13.4242   28.2296 C   0  0  0  0  0  0  0  0  0  0  0  0
    9.2279  -14.3685   27.2878 N   0  0  0  0  0  0  0  0  0  0  0  0
   10.9243  -17.9769   28.6206 C   0  0  0  0  0  0  0  0  0  0  0  0
   11.8158  -18.6982   29.1911 O   0  0  0  0  0  0  0  0  0  0  0  0
    9.8296  -17.6557   29.3885 O   0  0  0  0  0  0  0  0  0  0  0  0
  2  1  1  6
  3  2  1  0
  4  3  1  0
  5  4  2  0
  6  7  2  0
  6  2  1  0
  8  4  1  0
  9 10  1  0
 11 10  1  1
 11 12  1  0
 12  6  1  0
 13 15  1  0
 13 11  1  0
 14 13  2  0
 16 23  1  0
 16 15  1  0
 16 17  1  6
 17 18  1  0
 18 22  1  0
 19 18  2  0
 19 20  1  0
 20 21  1  0
 22 21  2  0
 23 25  1  0
 24 23  2  0
M  END
$$$$
