MYH.pdb
     RDKit          3D

 31 32  0  0  1  0  0  0  0  0999 V2000
    5.4445  -14.7881   26.6291 C   0  0  0  0  0  0  0  0  0  0  0  0
    5.1508  -16.5619   26.6365 S   0  0  0  0  0  0  0  0  0  0  0  0
    5.3539  -17.3101   25.0019 C   0  0  0  0  0  0  0  0  0  0  0  0
    6.4706  -16.6924   24.2274 C   0  0  0  0  0  0  0  0  0  0  0  0
    6.6634  -17.2352   22.8488 C   0  0  2  0  0  0  0  0  0  0  0  0
    6.1622  -18.5653   22.7215 N   0  0  0  0  0  0  0  0  0  0  0  0
    8.0115  -17.1342   22.3046 C   0  0  0  0  0  0  0  0  0  0  0  0
    8.6053  -18.1873   21.9605 O   0  0  0  0  0  0  0  0  0  0  0  0
    6.7608  -13.5293   16.6646 O   0  0  0  0  0  0  0  0  0  0  0  0
    7.6383  -13.7627   17.7234 C   0  0  0  0  0  0  0  0  0  0  0  0
    7.7602  -12.9070   18.7826 C   0  0  0  0  0  0  0  0  0  0  0  0
    8.6490  -13.1742   19.8238 C   0  0  0  0  0  0  0  0  0  0  0  0
    9.4197  -14.3034   19.8046 C   0  0  0  0  0  0  0  0  0  0  0  0
   10.3671  -14.6250   20.8695 C   0  0  0  0  0  0  0  0  0  0  0  0
   10.1047  -15.9365   21.5805 C   0  0  2  0  0  0  0  0  0  0  0  0
    8.7342  -15.9180   22.1225 N   0  0  0  0  0  0  0  0  0  0  0  0
   11.0884  -16.1057   22.6854 C   0  0  0  0  0  0  0  0  0  0  0  0
   12.3267  -16.0554   22.4633 O   0  0  0  0  0  0  0  0  0  0  0  0
    9.2888  -15.1598   18.7315 C   0  0  0  0  0  0  0  0  0  0  0  0
    8.4077  -14.9015   17.6927 C   0  0  0  0  0  0  0  0  0  0  0  0
   10.6556  -16.3279   24.0188 N   0  0  0  0  0  0  0  0  0  0  0  0
   11.6853  -16.4881   25.0594 C   0  0  1  0  0  0  0  0  0  0  0  0
   11.0676  -16.5966   26.4031 C   0  0  0  0  0  0  0  0  0  0  0  0
   10.1164  -15.4853   26.6428 C   0  0  0  0  0  0  0  0  0  0  0  0
   10.2780  -14.1216   26.6548 C   0  0  0  0  0  0  0  0  0  0  0  0
    9.0954  -13.5137   26.8385 N   0  0  0  0  0  0  0  0  0  0  0  0
    8.1670  -14.4639   26.9442 C   0  0  0  0  0  0  0  0  0  0  0  0
    8.7599  -15.6509   26.8290 N   0  0  0  0  0  0  0  0  0  0  0  0
   12.3420  -17.8116   24.7485 C   0  0  0  0  0  0  0  0  0  0  0  0
   13.7147  -17.8574   24.6527 O   0  0  0  0  0  0  0  0  0  0  0  0
   11.7002  -18.8356   24.5805 O   0  0  0  0  0  0  0  0  0  0  0  0
  1  2  1  0
  3  2  1  0
  4  5  1  0
  4  3  1  0
  5  6  1  1
  7  5  1  0
  8  7  2  0
  9 10  1  0
 10 11  2  0
 11 12  1  0
 13 12  2  0
 13 14  1  0
 15 14  1  1
 15 17  1  0
 15 16  1  0
 16  7  1  0
 17 18  2  0
 19 13  1  0
 20 10  1  0
 20 19  2  0
 21 22  1  0
 21 17  1  0
 22 23  1  1
 24 23  1  0
 25 24  2  0
 26 27  1  0
 26 25  1  0
 27 28  2  0
 28 24  1  0
 29 30  1  0
 29 22  1  0
 31 29  2  0
M  END
$$$$
