MYH.pdb
     RDKit          3D

 31 32  0  0  1  0  0  0  0  0999 V2000
    8.5814  -12.0565   19.1998 C   0  0  0  0  0  0  0  0  0  0  0  0
    7.1139  -12.7923   19.9332 S   0  0  0  0  0  0  0  0  0  0  0  0
    7.3214  -14.5530   20.2937 C   0  0  0  0  0  0  0  0  0  0  0  0
    8.7233  -14.8948   20.6762 C   0  0  0  0  0  0  0  0  0  0  0  0
    8.8723  -16.1296   21.5040 C   0  0  2  0  0  0  0  0  0  0  0  0
    7.7668  -17.0180   21.3453 N   0  0  0  0  0  0  0  0  0  0  0  0
    9.1726  -15.9214   22.9148 C   0  0  0  0  0  0  0  0  0  0  0  0
   10.1392  -15.1798   23.2243 O   0  0  0  0  0  0  0  0  0  0  0  0
    6.1667  -10.4752   26.4759 O   0  0  0  0  0  0  0  0  0  0  0  0
    6.4711  -11.8344   26.4019 C   0  0  0  0  0  0  0  0  0  0  0  0
    5.5132  -12.7972   26.2460 C   0  0  0  0  0  0  0  0  0  0  0  0
    5.8560  -14.1474   26.1760 C   0  0  0  0  0  0  0  0  0  0  0  0
    7.1641  -14.5357   26.2627 C   0  0  0  0  0  0  0  0  0  0  0  0
    7.5725  -15.9372   26.1981 C   0  0  0  0  0  0  0  0  0  0  0  0
    8.8295  -16.1977   25.3939 C   0  0  2  0  0  0  0  0  0  0  0  0
    8.4500  -16.4970   24.0015 N   0  0  0  0  0  0  0  0  0  0  0  0
    9.5629  -17.3520   25.9825 C   0  0  0  0  0  0  0  0  0  0  0  0
   10.3669  -17.1894   26.9377 O   0  0  0  0  0  0  0  0  0  0  0  0
    8.1224  -13.5563   26.4198 C   0  0  0  0  0  0  0  0  0  0  0  0
    7.7899  -12.2121   26.4902 C   0  0  0  0  0  0  0  0  0  0  0  0
    9.3747  -18.6669   25.4821 N   0  0  0  0  0  0  0  0  0  0  0  0
   10.5441  -19.3642   24.9209 C   0  0  1  0  0  0  0  0  0  0  0  0
   11.1951  -18.5448   23.8704 C   0  0  0  0  0  0  0  0  0  0  0  0
   12.3448  -19.2636   23.2712 C   0  0  0  0  0  0  0  0  0  0  0  0
   12.8875  -20.5005   23.5187 C   0  0  0  0  0  0  0  0  0  0  0  0
   13.8836  -20.7538   22.6553 N   0  0  0  0  0  0  0  0  0  0  0  0
   13.9944  -19.6988   21.8486 C   0  0  0  0  0  0  0  0  0  0  0  0
   13.0807  -18.7966   22.2023 N   0  0  0  0  0  0  0  0  0  0  0  0
   11.5105  -19.4822   26.0749 C   0  0  0  0  0  0  0  0  0  0  0  0
   11.9391  -18.3293   26.6933 O   0  0  0  0  0  0  0  0  0  0  0  0
   11.9214  -20.5591   26.4750 O   0  0  0  0  0  0  0  0  0  0  0  0
  1  2  1  0
  3  2  1  0
  4  5  1  0
  4  3  1  0
  5  6  1  1
  7  5  1  0
  8  7  2  0
  9 10  1  0
 10 11  2  0
 11 12  1  0
 13 12  2  0
 13 14  1  0
 15 14  1  1
 15 17  1  0
 15 16  1  0
 16  7  1  0
 17 18  2  0
 19 13  1  0
 20 10  1  0
 20 19  2  0
 21 22  1  0
 21 17  1  0
 22 23  1  6
 24 23  1  0
 25 24  2  0
 26 27  1  0
 26 25  1  0
 27 28  2  0
 28 24  1  0
 29 30  1  0
 29 22  1  0
 31 29  2  0
M  END
$$$$
