MYH.pdb
     RDKit          3D

 31 32  0  0  1  0  0  0  0  0999 V2000
    5.9932  -20.3952   17.2468 C   0  0  0  0  0  0  0  0  0  0  0  0
    7.4779  -20.4114   18.2608 S   0  0  0  0  0  0  0  0  0  0  0  0
    8.3553  -18.8294   18.2397 C   0  0  0  0  0  0  0  0  0  0  0  0
    7.9699  -17.9491   19.3820 C   0  0  0  0  0  0  0  0  0  0  0  0
    8.6184  -16.6031   19.3929 C   0  0  2  0  0  0  0  0  0  0  0  0
    9.8354  -16.5883   18.6478 N   0  0  0  0  0  0  0  0  0  0  0  0
    8.8047  -15.9937   20.7036 C   0  0  0  0  0  0  0  0  0  0  0  0
    9.9547  -15.9908   21.2113 O   0  0  0  0  0  0  0  0  0  0  0  0
    7.2999  -11.8062   28.4508 O   0  0  0  0  0  0  0  0  0  0  0  0
    7.2155  -12.3258   27.1591 C   0  0  0  0  0  0  0  0  0  0  0  0
    7.8223  -11.7356   26.0856 C   0  0  0  0  0  0  0  0  0  0  0  0
    7.7155  -12.2849   24.8080 C   0  0  0  0  0  0  0  0  0  0  0  0
    6.9977  -13.4306   24.6039 C   0  0  0  0  0  0  0  0  0  0  0  0
    6.8541  -14.0420   23.2846 C   0  0  0  0  0  0  0  0  0  0  0  0
    8.0846  -14.7687   22.7823 C   0  0  2  0  0  0  0  0  0  0  0  0
    7.7744  -15.3853   21.4799 N   0  0  0  0  0  0  0  0  0  0  0  0
    8.4745  -15.8182   23.7639 C   0  0  0  0  0  0  0  0  0  0  0  0
    7.7390  -16.8195   23.9677 O   0  0  0  0  0  0  0  0  0  0  0  0
    6.3897  -14.0179   25.6937 C   0  0  0  0  0  0  0  0  0  0  0  0
    6.4911  -13.4782   26.9668 C   0  0  0  0  0  0  0  0  0  0  0  0
    9.6864  -15.7174   24.4958 N   0  0  0  0  0  0  0  0  0  0  0  0
   10.0166  -16.8032   25.4343 C   0  0  1  0  0  0  0  0  0  0  0  0
   11.3975  -17.2948   25.2104 C   0  0  0  0  0  0  0  0  0  0  0  0
   11.4492  -18.2319   24.0630 C   0  0  0  0  0  0  0  0  0  0  0  0
   10.4788  -18.6973   23.2100 C   0  0  0  0  0  0  0  0  0  0  0  0
   11.0253  -19.4748   22.2620 N   0  0  0  0  0  0  0  0  0  0  0  0
   12.3383  -19.5194   22.4862 C   0  0  0  0  0  0  0  0  0  0  0  0
   12.6104  -18.7807   23.5605 N   0  0  0  0  0  0  0  0  0  0  0  0
    9.9755  -16.1568   26.7981 C   0  0  0  0  0  0  0  0  0  0  0  0
   10.1311  -16.9557   27.9086 O   0  0  0  0  0  0  0  0  0  0  0  0
    9.8101  -14.9573   26.9476 O   0  0  0  0  0  0  0  0  0  0  0  0
  1  2  1  0
  3  2  1  0
  4  5  1  0
  4  3  1  0
  5  6  1  1
  7  5  1  0
  8  7  2  0
  9 10  1  0
 10 11  2  0
 11 12  1  0
 13 12  2  0
 13 14  1  0
 15 14  1  1
 15 17  1  0
 15 16  1  0
 16  7  1  0
 17 18  2  0
 19 13  1  0
 20 10  1  0
 20 19  2  0
 21 22  1  0
 21 17  1  0
 22 23  1  6
 24 23  1  0
 25 24  2  0
 26 27  1  0
 26 25  1  0
 27 28  2  0
 28 24  1  0
 29 30  1  0
 29 22  1  0
 31 29  2  0
M  END
$$$$
