MYH.pdb
     RDKit          3D

 31 32  0  0  1  0  0  0  0  0999 V2000
    8.6480  -11.7183   19.5182 C   0  0  0  0  0  0  0  0  0  0  0  0
    7.5269  -12.9182   18.7859 S   0  0  0  0  0  0  0  0  0  0  0  0
    7.7300  -14.5770   19.4788 C   0  0  0  0  0  0  0  0  0  0  0  0
    8.4537  -14.5644   20.7844 C   0  0  0  0  0  0  0  0  0  0  0  0
    8.6915  -15.9087   21.3914 C   0  0  2  0  0  0  0  0  0  0  0  0
    7.5852  -16.7887   21.1954 N   0  0  0  0  0  0  0  0  0  0  0  0
    9.1191  -15.9147   22.7846 C   0  0  0  0  0  0  0  0  0  0  0  0
   10.2397  -15.4250   23.0754 O   0  0  0  0  0  0  0  0  0  0  0  0
    6.2106  -10.5157   26.3717 O   0  0  0  0  0  0  0  0  0  0  0  0
    6.6092  -11.8520   26.3376 C   0  0  0  0  0  0  0  0  0  0  0  0
    7.8240  -12.2714   26.8038 C   0  0  0  0  0  0  0  0  0  0  0  0
    8.1877  -13.6169   26.7531 C   0  0  0  0  0  0  0  0  0  0  0  0
    7.3312  -14.5473   26.2330 C   0  0  0  0  0  0  0  0  0  0  0  0
    7.6680  -15.9670   26.1552 C   0  0  0  0  0  0  0  0  0  0  0  0
    8.8443  -16.2941   25.2586 C   0  0  2  0  0  0  0  0  0  0  0  0
    8.3613  -16.4384   23.8736 N   0  0  0  0  0  0  0  0  0  0  0  0
    9.4754  -17.5635   25.7139 C   0  0  0  0  0  0  0  0  0  0  0  0
    8.8535  -18.6562   25.6470 O   0  0  0  0  0  0  0  0  0  0  0  0
    6.1083  -14.1135   25.7656 C   0  0  0  0  0  0  0  0  0  0  0  0
    5.7392  -12.7778   25.8124 C   0  0  0  0  0  0  0  0  0  0  0  0
   10.7955  -17.5752   26.2354 N   0  0  0  0  0  0  0  0  0  0  0  0
   11.3563  -18.8685   26.6614 C   0  0  1  0  0  0  0  0  0  0  0  0
   12.8034  -18.9471   26.3477 C   0  0  0  0  0  0  0  0  0  0  0  0
   13.0394  -18.8220   24.8897 C   0  0  0  0  0  0  0  0  0  0  0  0
   12.4244  -19.3973   23.8049 C   0  0  0  0  0  0  0  0  0  0  0  0
   12.9377  -18.9088   22.6647 N   0  0  0  0  0  0  0  0  0  0  0  0
   13.8770  -18.0225   22.9940 C   0  0  0  0  0  0  0  0  0  0  0  0
   13.9515  -17.9570   24.3222 N   0  0  0  0  0  0  0  0  0  0  0  0
   11.2120  -18.8726   28.1643 C   0  0  0  0  0  0  0  0  0  0  0  0
   11.5735  -20.0069   28.8558 O   0  0  0  0  0  0  0  0  0  0  0  0
   10.7883  -17.9097   28.7823 O   0  0  0  0  0  0  0  0  0  0  0  0
  1  2  1  0
  3  2  1  0
  4  5  1  0
  4  3  1  0
  5  6  1  1
  7  5  1  0
  8  7  2  0
  9 10  1  0
 10 11  2  0
 11 12  1  0
 13 12  2  0
 13 14  1  0
 15 14  1  1
 15 17  1  0
 15 16  1  0
 16  7  1  0
 17 18  2  0
 19 13  1  0
 20 10  1  0
 20 19  2  0
 21 22  1  0
 21 17  1  0
 22 23  1  1
 24 23  1  0
 25 24  2  0
 26 27  1  0
 26 25  1  0
 27 28  2  0
 28 24  1  0
 29 30  1  0
 29 22  1  0
 31 29  2  0
M  END
$$$$
