MYH.pdb
     RDKit          3D

 31 32  0  0  1  0  0  0  0  0999 V2000
    6.4438  -11.9650   24.7815 C   0  0  0  0  0  0  0  0  0  0  0  0
    6.0150  -12.7510   26.3407 S   0  0  0  0  0  0  0  0  0  0  0  0
    6.0718  -14.5571   26.2511 C   0  0  0  0  0  0  0  0  0  0  0  0
    5.7979  -15.0680   24.8755 C   0  0  0  0  0  0  0  0  0  0  0  0
    6.2403  -16.4721   24.6200 C   0  0  2  0  0  0  0  0  0  0  0  0
    6.2297  -17.2620   25.8085 N   0  0  0  0  0  0  0  0  0  0  0  0
    7.5015  -16.6253   23.9061 C   0  0  0  0  0  0  0  0  0  0  0  0
    7.5665  -17.4556   22.9646 O   0  0  0  0  0  0  0  0  0  0  0  0
    6.9046  -13.0974   18.5615 O   0  0  0  0  0  0  0  0  0  0  0  0
    7.7546  -13.5636   19.5645 C   0  0  0  0  0  0  0  0  0  0  0  0
    8.3877  -14.7730   19.4914 C   0  0  0  0  0  0  0  0  0  0  0  0
    9.2310  -15.2057   20.5146 C   0  0  0  0  0  0  0  0  0  0  0  0
    9.4415  -14.4240   21.6165 C   0  0  0  0  0  0  0  0  0  0  0  0
   10.3126  -14.8349   22.7153 C   0  0  0  0  0  0  0  0  0  0  0  0
    9.9163  -16.1311   23.3915 C   0  0  2  0  0  0  0  0  0  0  0  0
    8.6969  -15.8995   24.1864 N   0  0  0  0  0  0  0  0  0  0  0  0
   11.0238  -16.5862   24.2765 C   0  0  0  0  0  0  0  0  0  0  0  0
   12.2177  -16.5768   23.8767 O   0  0  0  0  0  0  0  0  0  0  0  0
    8.7980  -13.2058   21.6800 C   0  0  0  0  0  0  0  0  0  0  0  0
    7.9582  -12.7684   20.6672 C   0  0  0  0  0  0  0  0  0  0  0  0
   10.7626  -17.0427   25.5949 N   0  0  0  0  0  0  0  0  0  0  0  0
   11.8995  -17.5347   26.3913 C   0  0  1  0  0  0  0  0  0  0  0  0
   11.7349  -17.1829   27.8223 C   0  0  0  0  0  0  0  0  0  0  0  0
   11.1876  -15.8138   27.9743 C   0  0  0  0  0  0  0  0  0  0  0  0
   11.7660  -14.5734   27.8619 C   0  0  0  0  0  0  0  0  0  0  0  0
   10.8400  -13.6123   28.0063 N   0  0  0  0  0  0  0  0  0  0  0  0
    9.6670  -14.2116   28.2092 C   0  0  0  0  0  0  0  0  0  0  0  0
    9.8557  -15.5299   28.1929 N   0  0  0  0  0  0  0  0  0  0  0  0
   11.8252  -19.0383   26.2772 C   0  0  0  0  0  0  0  0  0  0  0  0
   10.8006  -19.5917   25.5428 O   0  0  0  0  0  0  0  0  0  0  0  0
   12.6385  -19.7747   26.8111 O   0  0  0  0  0  0  0  0  0  0  0  0
  1  2  1  0
  3  2  1  0
  4  5  1  0
  4  3  1  0
  5  6  1  1
  7  5  1  0
  8  7  2  0
  9 10  1  0
 10 11  2  0
 11 12  1  0
 13 12  2  0
 13 14  1  0
 15 14  1  1
 15 17  1  0
 15 16  1  0
 16  7  1  0
 17 18  2  0
 19 13  1  0
 20 10  1  0
 20 19  2  0
 21 22  1  0
 21 17  1  0
 22 23  1  1
 24 23  1  0
 25 24  2  0
 26 27  1  0
 26 25  1  0
 27 28  2  0
 28 24  1  0
 29 30  1  0
 29 22  1  0
 31 29  2  0
M  END
$$$$
