CIM.pdb
     RDKit          3D

 23 22  0  0  1  0  0  0  0  0999 V2000
    7.4678  -14.9861   19.5973 N   0  0  0  0  0  0  0  0  0  0  0  0
    7.0575  -15.6995   20.8205 C   0  0  1  0  0  0  0  0  0  0  0  0
    7.3438  -17.1708   20.5839 C   0  0  0  0  0  0  0  0  0  0  0  0
    5.9356  -18.0728   19.9417 S   0  0  0  0  0  0  0  0  0  0  0  0
    7.8808  -15.1822   21.9275 C   0  0  0  0  0  0  0  0  0  0  0  0
    9.0527  -14.7503   21.6305 O   0  0  0  0  0  0  0  0  0  0  0  0
    5.6840  -12.0542   25.8265 C   0  0  0  0  0  0  0  0  0  0  0  0
    6.5342  -12.6427   24.7198 C   0  0  0  0  0  0  0  0  0  0  0  0
    7.4533  -13.6856   25.2747 C   0  0  2  0  0  0  0  0  0  0  0  0
    8.3929  -13.0779   26.2970 C   0  0  0  0  0  0  0  0  0  0  0  0
    8.2104  -14.4608   24.2453 C   0  0  2  0  0  0  0  0  0  0  0  0
    7.4323  -15.1449   23.2814 N   0  0  0  0  0  0  0  0  0  0  0  0
    9.0388  -15.4922   24.9829 C   0  0  0  0  0  0  0  0  0  0  0  0
    8.4843  -16.4598   25.5598 O   0  0  0  0  0  0  0  0  0  0  0  0
   10.3254  -13.5076   29.5037 C   0  0  0  0  0  0  0  0  0  0  0  0
   10.9475  -15.1414   29.9792 S   0  0  0  0  0  0  0  0  0  0  0  0
   11.2816  -16.1743   28.5426 C   0  0  0  0  0  0  0  0  0  0  0  0
   11.1297  -15.3891   27.2959 C   0  0  0  0  0  0  0  0  0  0  0  0
   11.2099  -16.1850   26.0485 C   0  0  2  0  0  0  0  0  0  0  0  0
   10.4369  -15.3951   25.0408 N   0  0  0  0  0  0  0  0  0  0  0  0
   10.7475  -17.5603   26.0407 C   0  0  0  0  0  0  0  0  0  0  0  0
   11.6329  -18.4880   25.9737 O   0  0  0  0  0  0  0  0  0  0  0  0
    9.4551  -18.0116   26.1047 O   0  0  0  0  0  0  0  0  0  0  0  0
  2  3  1  0
  2  1  1  6
  4  3  1  0
  5  2  1  0
  6  5  2  0
  8  9  1  0
  8  7  1  0
  9 11  1  0
  9 10  1  1
 11 13  1  0
 11 12  1  6
 12  5  1  0
 13 20  1  0
 14 13  2  0
 16 17  1  0
 16 15  1  0
 19 18  1  1
 18 17  1  0
 19 21  1  0
 20 19  1  0
 21 22  2  0
 21 23  1  0
M  END
$$$$
