CIM.pdb
     RDKit          3D

 23 22  0  0  1  0  0  0  0  0999 V2000
    7.2775  -19.7701   19.8139 N   0  0  0  0  0  0  0  0  0  0  0  0
    6.8449  -18.8804   20.9069 C   0  0  1  0  0  0  0  0  0  0  0  0
    6.7660  -19.7343   22.1589 C   0  0  0  0  0  0  0  0  0  0  0  0
    5.8127  -21.2342   21.9351 S   0  0  0  0  0  0  0  0  0  0  0  0
    7.8731  -17.8355   21.0556 C   0  0  0  0  0  0  0  0  0  0  0  0
    9.0881  -18.1748   20.8176 O   0  0  0  0  0  0  0  0  0  0  0  0
    7.1500  -12.1463   20.6028 C   0  0  0  0  0  0  0  0  0  0  0  0
    7.2768  -13.4383   21.3830 C   0  0  0  0  0  0  0  0  0  0  0  0
    8.4177  -14.2502   20.8543 C   0  0  2  0  0  0  0  0  0  0  0  0
    8.2837  -14.4451   19.3572 C   0  0  0  0  0  0  0  0  0  0  0  0
    8.6269  -15.5573   21.5482 C   0  0  2  0  0  0  0  0  0  0  0  0
    7.5728  -16.4958   21.4434 N   0  0  0  0  0  0  0  0  0  0  0  0
    8.8282  -15.2551   23.0187 C   0  0  0  0  0  0  0  0  0  0  0  0
    9.7153  -14.4464   23.3867 O   0  0  0  0  0  0  0  0  0  0  0  0
    7.3824  -11.4172   27.5163 C   0  0  0  0  0  0  0  0  0  0  0  0
    6.2093  -12.3317   26.4818 S   0  0  0  0  0  0  0  0  0  0  0  0
    7.0489  -13.4390   25.3368 C   0  0  0  0  0  0  0  0  0  0  0  0
    7.1215  -14.8067   25.9009 C   0  0  0  0  0  0  0  0  0  0  0  0
    8.2886  -15.6014   25.4514 C   0  0  2  0  0  0  0  0  0  0  0  0
    8.0351  -15.8659   24.0013 N   0  0  0  0  0  0  0  0  0  0  0  0
    8.6113  -16.8483   26.1196 C   0  0  0  0  0  0  0  0  0  0  0  0
    8.2333  -17.9409   25.5607 O   0  0  0  0  0  0  0  0  0  0  0  0
    9.2916  -17.0179   27.2971 O   0  0  0  0  0  0  0  0  0  0  0  0
  2  3  1  0
  2  1  1  6
  4  3  1  0
  5  2  1  0
  6  5  2  0
  8  9  1  0
  8  7  1  0
  9 11  1  0
  9 10  1  6
 11 13  1  0
 11 12  1  1
 12  5  1  0
 13 20  1  0
 14 13  2  0
 16 17  1  0
 16 15  1  0
 19 18  1  1
 18 17  1  0
 19 21  1  0
 20 19  1  0
 21 22  2  0
 21 23  1  0
M  END
$$$$
