CIM.pdb
     RDKit          3D

 23 22  0  0  1  0  0  0  0  0999 V2000
   10.9966  -18.2740   18.8077 N   0  0  0  0  0  0  0  0  0  0  0  0
    9.8145  -18.3151   19.6877 C   0  0  1  0  0  0  0  0  0  0  0  0
   10.0122  -19.4888   20.6290 C   0  0  0  0  0  0  0  0  0  0  0  0
    8.6197  -19.7637   21.7217 S   0  0  0  0  0  0  0  0  0  0  0  0
    9.7818  -17.0478   20.4385 C   0  0  0  0  0  0  0  0  0  0  0  0
   10.9116  -16.5428   20.7800 O   0  0  0  0  0  0  0  0  0  0  0  0
    7.3336  -12.4342   19.1452 C   0  0  0  0  0  0  0  0  0  0  0  0
    8.2804  -13.5090   19.6375 C   0  0  0  0  0  0  0  0  0  0  0  0
    7.8223  -14.0321   20.9630 C   0  0  2  0  0  0  0  0  0  0  0  0
    7.7162  -12.9059   21.9720 C   0  0  0  0  0  0  0  0  0  0  0  0
    8.6392  -15.1607   21.5039 C   0  0  2  0  0  0  0  0  0  0  0  0
    8.5706  -16.3801   20.7888 N   0  0  0  0  0  0  0  0  0  0  0  0
    8.1544  -15.4274   22.9138 C   0  0  0  0  0  0  0  0  0  0  0  0
    7.0746  -16.0371   23.1110 O   0  0  0  0  0  0  0  0  0  0  0  0
    7.4895  -11.2543   27.3551 C   0  0  0  0  0  0  0  0  0  0  0  0
    6.2864  -12.2812   26.4716 S   0  0  0  0  0  0  0  0  0  0  0  0
    6.6113  -14.0377   26.6987 C   0  0  0  0  0  0  0  0  0  0  0  0
    7.0165  -14.6576   25.4160 C   0  0  0  0  0  0  0  0  0  0  0  0
    8.3784  -15.2416   25.4127 C   0  0  2  0  0  0  0  0  0  0  0  0
    8.8929  -15.0038   24.0285 N   0  0  0  0  0  0  0  0  0  0  0  0
    8.5645  -16.6373   25.7630 C   0  0  0  0  0  0  0  0  0  0  0  0
    8.7083  -16.9274   27.0057 O   0  0  0  0  0  0  0  0  0  0  0  0
    8.6002  -17.7168   24.9195 O   0  0  0  0  0  0  0  0  0  0  0  0
  2  3  1  0
  2  1  1  6
  4  3  1  0
  5  2  1  0
  6  5  2  0
  8  9  1  0
  8  7  1  0
  9 11  1  0
  9 10  1  1
 11 13  1  0
 11 12  1  6
 12  5  1  0
 13 20  1  0
 14 13  2  0
 16 17  1  0
 16 15  1  0
 19 18  1  6
 18 17  1  0
 19 21  1  0
 20 19  1  0
 21 22  2  0
 21 23  1  0
M  END
$$$$
