CIM.pdb
     RDKit          3D

 23 22  0  0  1  0  0  0  0  0999 V2000
   12.3324  -17.0308   18.6130 N   0  0  0  0  0  0  0  0  0  0  0  0
   11.3352  -17.6918   19.4745 C   0  0  1  0  0  0  0  0  0  0  0  0
   12.0262  -18.8875   20.1033 C   0  0  0  0  0  0  0  0  0  0  0  0
   11.0336  -19.7052   21.3502 S   0  0  0  0  0  0  0  0  0  0  0  0
   10.9355  -16.7209   20.5081 C   0  0  0  0  0  0  0  0  0  0  0  0
   11.8442  -15.9257   20.9440 O   0  0  0  0  0  0  0  0  0  0  0  0
    6.6802  -13.3637   20.2880 C   0  0  0  0  0  0  0  0  0  0  0  0
    8.0387  -14.0029   20.4874 C   0  0  0  0  0  0  0  0  0  0  0  0
    8.0286  -14.8645   21.7112 C   0  0  2  0  0  0  0  0  0  0  0  0
    7.6328  -14.0544   22.9295 C   0  0  0  0  0  0  0  0  0  0  0  0
    9.2978  -15.6147   21.9559 C   0  0  2  0  0  0  0  0  0  0  0  0
    9.6090  -16.6357   21.0266 N   0  0  0  0  0  0  0  0  0  0  0  0
    9.1803  -16.2578   23.3222 C   0  0  0  0  0  0  0  0  0  0  0  0
    8.8985  -17.4766   23.4300 O   0  0  0  0  0  0  0  0  0  0  0  0
   10.0950  -12.5651   28.3620 C   0  0  0  0  0  0  0  0  0  0  0  0
   10.3905  -14.1295   29.2266 S   0  0  0  0  0  0  0  0  0  0  0  0
   10.3658  -15.5326   28.0983 C   0  0  0  0  0  0  0  0  0  0  0  0
    9.9834  -15.0931   26.7365 C   0  0  0  0  0  0  0  0  0  0  0  0
    9.8380  -16.1889   25.7496 C   0  0  2  0  0  0  0  0  0  0  0  0
    9.3814  -15.5148   24.4948 N   0  0  0  0  0  0  0  0  0  0  0  0
    8.9631  -17.3091   26.0409 C   0  0  0  0  0  0  0  0  0  0  0  0
    9.4359  -18.2668   26.7538 O   0  0  0  0  0  0  0  0  0  0  0  0
    7.6606  -17.4805   25.6506 O   0  0  0  0  0  0  0  0  0  0  0  0
  2  3  1  0
  2  1  1  6
  4  3  1  0
  5  2  1  0
  6  5  2  0
  8  9  1  0
  8  7  1  0
  9 11  1  0
  9 10  1  1
 11 13  1  0
 11 12  1  6
 12  5  1  0
 13 20  1  0
 14 13  2  0
 16 17  1  0
 16 15  1  0
 19 18  1  1
 18 17  1  0
 19 21  1  0
 20 19  1  0
 21 22  2  0
 21 23  1  0
M  END
$$$$
