CIM.pdb
     RDKit          3D

 23 22  0  0  1  0  0  0  0  0999 V2000
   10.4465  -18.6596   18.8988 N   0  0  0  0  0  0  0  0  0  0  0  0
    9.1553  -18.3400   19.5345 C   0  0  1  0  0  0  0  0  0  0  0  0
    8.7510  -19.5616   20.3388 C   0  0  0  0  0  0  0  0  0  0  0  0
    9.3604  -19.5351   22.0231 S   0  0  0  0  0  0  0  0  0  0  0  0
    9.3768  -17.1848   20.4218 C   0  0  0  0  0  0  0  0  0  0  0  0
   10.5917  -16.8098   20.5990 O   0  0  0  0  0  0  0  0  0  0  0  0
    7.1527  -12.5197   19.5166 C   0  0  0  0  0  0  0  0  0  0  0  0
    8.0894  -13.6462   19.9007 C   0  0  0  0  0  0  0  0  0  0  0  0
    7.8276  -14.0767   21.3101 C   0  0  2  0  0  0  0  0  0  0  0  0
    8.0312  -12.9189   22.2670 C   0  0  0  0  0  0  0  0  0  0  0  0
    8.6020  -15.2772   21.7493 C   0  0  2  0  0  0  0  0  0  0  0  0
    8.3161  -16.4867   21.0724 N   0  0  0  0  0  0  0  0  0  0  0  0
    8.3001  -15.4906   23.2181 C   0  0  0  0  0  0  0  0  0  0  0  0
    7.3385  -16.2166   23.5714 O   0  0  0  0  0  0  0  0  0  0  0  0
    5.3796  -12.8083   26.3045 C   0  0  0  0  0  0  0  0  0  0  0  0
    6.9363  -11.9498   26.6539 S   0  0  0  0  0  0  0  0  0  0  0  0
    8.3583  -13.0372   26.4597 C   0  0  0  0  0  0  0  0  0  0  0  0
    7.9142  -14.4287   26.2141 C   0  0  0  0  0  0  0  0  0  0  0  0
    8.9518  -15.3186   25.6420 C   0  0  2  0  0  0  0  0  0  0  0  0
    9.0806  -14.8876   24.2155 N   0  0  0  0  0  0  0  0  0  0  0  0
    8.7762  -16.7579   25.6968 C   0  0  0  0  0  0  0  0  0  0  0  0
    9.7639  -17.4648   26.1136 O   0  0  0  0  0  0  0  0  0  0  0  0
    7.6618  -17.4809   25.3601 O   0  0  0  0  0  0  0  0  0  0  0  0
  2  3  1  0
  2  1  1  1
  4  3  1  0
  5  2  1  0
  6  5  2  0
  8  9  1  0
  8  7  1  0
  9 11  1  0
  9 10  1  1
 11 13  1  0
 11 12  1  6
 12  5  1  0
 13 20  1  0
 14 13  2  0
 16 17  1  0
 16 15  1  0
 19 18  1  6
 18 17  1  0
 19 21  1  0
 20 19  1  0
 21 22  2  0
 21 23  1  0
M  END
$$$$
