CMM.pdb
     RDKit          3D

 23 22  0  0  1  0  0  0  0  0999 V2000
   22.3329  -17.4039  -16.6181 N   0  0  0  0  0  0  0  0  0  0  0  0
   23.6469  -16.8499  -16.4180 C   0  0  1  0  0  0  0  0  0  0  0  0
   24.7025  -17.7394  -17.0737 C   0  0  0  0  0  0  0  0  0  0  0  0
   24.8020  -19.3335  -16.2369 S   0  0  0  0  0  0  0  0  0  0  0  0
   23.6951  -15.4765  -16.9567 C   0  0  0  0  0  0  0  0  0  0  0  0
   23.0343  -15.1594  -17.9845 O   0  0  0  0  0  0  0  0  0  0  0  0
   26.1979  -10.7769  -13.4193 C   0  0  0  0  0  0  0  0  0  0  0  0
   24.3833  -10.9664  -13.2927 S   0  0  0  0  0  0  0  0  0  0  0  0
   23.8633  -12.0107  -14.6911 C   0  0  0  0  0  0  0  0  0  0  0  0
   25.0210  -12.2507  -15.6400 C   0  0  0  0  0  0  0  0  0  0  0  0
   24.6107  -13.1422  -16.7680 C   0  0  2  0  0  0  0  0  0  0  0  0
   24.4971  -14.5054  -16.3047 N   0  0  0  0  0  0  0  0  0  0  0  0
   25.5853  -13.0197  -17.8886 C   0  0  0  0  0  0  0  0  0  0  0  0
   26.4501  -13.9137  -18.0678 O   0  0  0  0  0  0  0  0  0  0  0  0
   24.9374  -15.6385  -21.9692 C   0  0  0  0  0  0  0  0  0  0  0  0
   26.0952  -14.7196  -23.0305 S   0  0  0  0  0  0  0  0  0  0  0  0
   26.6129  -13.1999  -22.1563 C   0  0  0  0  0  0  0  0  0  0  0  0
   25.8842  -13.1534  -20.8491 C   0  0  0  0  0  0  0  0  0  0  0  0
   26.3257  -11.9744  -20.0352 C   0  0  2  0  0  0  0  0  0  0  0  0
   25.5721  -11.9223  -18.7668 N   0  0  0  0  0  0  0  0  0  0  0  0
   26.1526  -10.6751  -20.7009 C   0  0  0  0  0  0  0  0  0  0  0  0
   25.1549   -9.9595  -20.4760 O   0  0  0  0  0  0  0  0  0  0  0  0
   27.1015  -10.2213  -21.5954 O   0  0  0  0  0  0  0  0  0  0  0  0
  2  1  1  6
  3  2  1  0
  4  3  1  0
  5  2  1  0
  6  5  2  0
  8  7  1  0
  8  9  1  0
  9 10  1  0
 11 10  1  1
 11 13  1  0
 11 12  1  0
 12  5  1  0
 13 20  1  0
 14 13  2  0
 16 15  1  0
 17 16  1  0
 18 17  1  0
 19 21  1  0
 19 18  1  6
 20 19  1  0
 21 23  1  0
 22 21  2  0
M  END
$$$$
