CMM.pdb
     RDKit          3D

 23 22  0  0  1  0  0  0  0  0999 V2000
   16.5149  -12.2511  -13.9363 N   0  0  0  0  0  0  0  0  0  0  0  0
   16.5458  -10.8257  -14.1389 C   0  0  1  0  0  0  0  0  0  0  0  0
   15.1522  -10.3113  -14.4978 C   0  0  0  0  0  0  0  0  0  0  0  0
   14.0401  -10.4439  -13.0846 S   0  0  0  0  0  0  0  0  0  0  0  0
   17.0653  -10.1621  -12.9271 C   0  0  0  0  0  0  0  0  0  0  0  0
   16.9703  -10.7125  -11.7950 O   0  0  0  0  0  0  0  0  0  0  0  0
   21.2551   -5.2170  -13.2506 C   0  0  0  0  0  0  0  0  0  0  0  0
   21.5446   -5.8221  -11.5492 S   0  0  0  0  0  0  0  0  0  0  0  0
   20.0694   -6.7769  -11.0709 C   0  0  0  0  0  0  0  0  0  0  0  0
   19.4364   -7.4287  -12.2846 C   0  0  0  0  0  0  0  0  0  0  0  0
   18.1836   -8.1531  -11.9091 C   0  0  2  0  0  0  0  0  0  0  0  0
   17.6784   -8.8886  -13.0447 N   0  0  0  0  0  0  0  0  0  0  0  0
   17.1780   -7.1854  -11.3868 C   0  0  0  0  0  0  0  0  0  0  0  0
   16.5225   -6.4702  -12.1856 O   0  0  0  0  0  0  0  0  0  0  0  0
   12.8436   -8.2379   -6.9701 C   0  0  0  0  0  0  0  0  0  0  0  0
   13.2975   -6.5574   -6.4397 S   0  0  0  0  0  0  0  0  0  0  0  0
   14.1681   -5.7234   -7.8138 C   0  0  0  0  0  0  0  0  0  0  0  0
   15.2651   -6.6306   -8.2779 C   0  0  0  0  0  0  0  0  0  0  0  0
   15.8945   -6.1057   -9.5333 C   0  0  2  0  0  0  0  0  0  0  0  0
   16.9321   -7.0412  -10.0104 N   0  0  0  0  0  0  0  0  0  0  0  0
   16.5265   -4.7858   -9.3923 C   0  0  0  0  0  0  0  0  0  0  0  0
   17.7147   -4.6720   -9.0273 O   0  0  0  0  0  0  0  0  0  0  0  0
   15.8074   -3.6390   -9.6643 O   0  0  0  0  0  0  0  0  0  0  0  0
  2  1  1  1
  3  2  1  0
  4  3  1  0
  5  2  1  0
  6  5  2  0
  8  7  1  0
  8  9  1  0
  9 10  1  0
 11 10  1  6
 11 13  1  0
 11 12  1  0
 12  5  1  0
 13 20  1  0
 14 13  2  0
 16 15  1  0
 17 16  1  0
 18 17  1  0
 19 21  1  0
 19 18  1  1
 20 19  1  0
 21 23  1  0
 22 21  2  0
M  END
$$$$
