CMM.pdb
     RDKit          3D

 23 22  0  0  1  0  0  0  0  0999 V2000
   16.9675  -11.5954  -14.9842 N   0  0  0  0  0  0  0  0  0  0  0  0
   16.9552  -10.1563  -14.9333 C   0  0  1  0  0  0  0  0  0  0  0  0
   15.6327   -9.6181  -15.4781 C   0  0  0  0  0  0  0  0  0  0  0  0
   15.6507   -9.5887  -17.2809 S   0  0  0  0  0  0  0  0  0  0  0  0
   17.1857   -9.7056  -13.5468 C   0  0  0  0  0  0  0  0  0  0  0  0
   16.5668  -10.2340  -12.5817 O   0  0  0  0  0  0  0  0  0  0  0  0
   22.9419   -8.3706  -10.5130 C   0  0  0  0  0  0  0  0  0  0  0  0
   21.9821   -6.8149  -10.4544 S   0  0  0  0  0  0  0  0  0  0  0  0
   20.2223   -7.2779  -10.5254 C   0  0  0  0  0  0  0  0  0  0  0  0
   19.8224   -7.6480  -11.9402 C   0  0  0  0  0  0  0  0  0  0  0  0
   18.4261   -8.1813  -11.9781 C   0  0  2  0  0  0  0  0  0  0  0  0
   18.1170   -8.6640  -13.3037 N   0  0  0  0  0  0  0  0  0  0  0  0
   17.4705   -7.1259  -11.5385 C   0  0  0  0  0  0  0  0  0  0  0  0
   17.1248   -6.2205  -12.3384 O   0  0  0  0  0  0  0  0  0  0  0  0
   13.9437   -7.6076   -6.0090 C   0  0  0  0  0  0  0  0  0  0  0  0
   12.8861   -6.6367   -7.1271 S   0  0  0  0  0  0  0  0  0  0  0  0
   13.9471   -5.7948   -8.3548 C   0  0  0  0  0  0  0  0  0  0  0  0
   14.9980   -6.7666   -8.7941 C   0  0  0  0  0  0  0  0  0  0  0  0
   15.8213   -6.1929   -9.9079 C   0  0  2  0  0  0  0  0  0  0  0  0
   16.9328   -7.1060  -10.2399 N   0  0  0  0  0  0  0  0  0  0  0  0
   16.4081   -4.8768   -9.6165 C   0  0  0  0  0  0  0  0  0  0  0  0
   17.5906   -4.7651   -9.2325 O   0  0  0  0  0  0  0  0  0  0  0  0
   15.6518   -3.7312   -9.7645 O   0  0  0  0  0  0  0  0  0  0  0  0
  2  1  1  1
  3  2  1  0
  4  3  1  0
  5  2  1  0
  6  5  2  0
  8  7  1  0
  8  9  1  0
  9 10  1  0
 11 10  1  6
 11 13  1  0
 11 12  1  0
 12  5  1  0
 13 20  1  0
 14 13  2  0
 16 15  1  0
 17 16  1  0
 18 17  1  0
 19 21  1  0
 19 18  1  1
 20 19  1  0
 21 23  1  0
 22 21  2  0
M  END
$$$$
