CMM.pdb
     RDKit          3D

 23 22  0  0  1  0  0  0  0  0999 V2000
   28.6461  -22.3116  -15.8963 N   0  0  0  0  0  0  0  0  0  0  0  0
   27.9449  -21.1463  -15.4229 C   0  0  1  0  0  0  0  0  0  0  0  0
   27.5485  -20.2528  -16.5976 C   0  0  0  0  0  0  0  0  0  0  0  0
   26.6158  -18.8206  -16.0228 S   0  0  0  0  0  0  0  0  0  0  0  0
   26.7623  -21.5600  -14.6425 C   0  0  0  0  0  0  0  0  0  0  0  0
   26.0019  -22.4792  -15.0555 O   0  0  0  0  0  0  0  0  0  0  0  0
   25.4464  -20.2156   -8.2756 C   0  0  0  0  0  0  0  0  0  0  0  0
   26.9802  -21.0462   -8.8253 S   0  0  0  0  0  0  0  0  0  0  0  0
   26.6953  -21.6013  -10.5362 C   0  0  0  0  0  0  0  0  0  0  0  0
   25.5832  -20.7981  -11.1817 C   0  0  0  0  0  0  0  0  0  0  0  0
   25.3467  -21.2481  -12.5878 C   0  0  2  0  0  0  0  0  0  0  0  0
   26.4834  -20.9112  -13.4127 N   0  0  0  0  0  0  0  0  0  0  0  0
   24.0888  -20.6412  -13.1073 C   0  0  0  0  0  0  0  0  0  0  0  0
   24.0690  -19.4304  -13.4429 O   0  0  0  0  0  0  0  0  0  0  0  0
   21.7385  -21.1979  -18.2378 C   0  0  0  0  0  0  0  0  0  0  0  0
   20.0743  -21.1369  -17.5043 S   0  0  0  0  0  0  0  0  0  0  0  0
   20.2198  -20.6009  -15.7627 C   0  0  0  0  0  0  0  0  0  0  0  0
   21.4969  -21.1606  -15.2171 C   0  0  0  0  0  0  0  0  0  0  0  0
   21.6856  -20.7582  -13.7853 C   0  0  2  0  0  0  0  0  0  0  0  0
   22.9042  -21.3865  -13.2378 N   0  0  0  0  0  0  0  0  0  0  0  0
   20.5703  -21.1202  -12.8985 C   0  0  0  0  0  0  0  0  0  0  0  0
   20.6811  -22.0374  -12.0591 O   0  0  0  0  0  0  0  0  0  0  0  0
   19.3694  -20.4438  -12.9815 O   0  0  0  0  0  0  0  0  0  0  0  0
  2  1  1  6
  3  2  1  0
  4  3  1  0
  5  2  1  0
  6  5  2  0
  8  7  1  0
  8  9  1  0
  9 10  1  0
 11 10  1  1
 11 13  1  0
 11 12  1  0
 12  5  1  0
 13 20  1  0
 14 13  2  0
 16 15  1  0
 17 16  1  0
 18 17  1  0
 19 21  1  0
 19 18  1  6
 20 19  1  0
 21 23  1  0
 22 21  2  0
M  END
$$$$
