CMM.pdb
     RDKit          3D

 23 22  0  0  1  0  0  0  0  0999 V2000
   26.9635  -19.9063  -16.0730 N   0  0  0  0  0  0  0  0  0  0  0  0
   27.1145  -20.7155  -14.8915 C   0  0  1  0  0  0  0  0  0  0  0  0
   28.5953  -20.9521  -14.5970 C   0  0  0  0  0  0  0  0  0  0  0  0
   29.3912  -19.4246  -14.0633 S   0  0  0  0  0  0  0  0  0  0  0  0
   26.4400  -20.0630  -13.7521 C   0  0  0  0  0  0  0  0  0  0  0  0
   26.3998  -18.8049  -13.6563 O   0  0  0  0  0  0  0  0  0  0  0  0
   20.7334  -20.7012  -11.2897 C   0  0  0  0  0  0  0  0  0  0  0  0
   21.2306  -19.8607  -12.8361 S   0  0  0  0  0  0  0  0  0  0  0  0
   23.0305  -19.6007  -12.7398 C   0  0  0  0  0  0  0  0  0  0  0  0
   23.6598  -20.5690  -11.7576 C   0  0  0  0  0  0  0  0  0  0  0  0
   25.1269  -20.3143  -11.6225 C   0  0  2  0  0  0  0  0  0  0  0  0
   25.8312  -20.8675  -12.7555 N   0  0  0  0  0  0  0  0  0  0  0  0
   25.6212  -20.8801  -10.3356 C   0  0  0  0  0  0  0  0  0  0  0  0
   25.8867  -22.1054  -10.2504 O   0  0  0  0  0  0  0  0  0  0  0  0
   29.9097  -19.3213   -4.9557 C   0  0  0  0  0  0  0  0  0  0  0  0
   28.1337  -18.9729   -4.7672 S   0  0  0  0  0  0  0  0  0  0  0  0
   27.1871  -20.2297   -5.6979 C   0  0  0  0  0  0  0  0  0  0  0  0
   26.9537  -19.6975   -7.0778 C   0  0  0  0  0  0  0  0  0  0  0  0
   26.2029  -20.6915   -7.9118 C   0  0  2  0  0  0  0  0  0  0  0  0
   25.8042  -20.0796   -9.1948 N   0  0  0  0  0  0  0  0  0  0  0  0
   24.9841  -21.2191   -7.2811 C   0  0  0  0  0  0  0  0  0  0  0  0
   23.8504  -20.9035   -7.6972 O   0  0  0  0  0  0  0  0  0  0  0  0
   25.0758  -22.0814   -6.2067 O   0  0  0  0  0  0  0  0  0  0  0  0
  2  1  1  6
  3  2  1  0
  4  3  1  0
  5  2  1  0
  6  5  2  0
  8  7  1  0
  8  9  1  0
  9 10  1  0
 11 10  1  6
 11 13  1  0
 11 12  1  0
 12  5  1  0
 13 20  1  0
 14 13  2  0
 16 15  1  0
 17 16  1  0
 18 17  1  0
 19 21  1  0
 19 18  1  1
 20 19  1  0
 21 23  1  0
 22 21  2  0
M  END
$$$$
