CMM.pdb
     RDKit          3D

 23 22  0  0  1  0  0  0  0  0999 V2000
   28.8144  -19.3346  -15.5243 N   0  0  0  0  0  0  0  0  0  0  0  0
   27.8717  -18.7487  -14.6069 C   0  0  1  0  0  0  0  0  0  0  0  0
   26.9735  -17.7501  -15.3359 C   0  0  0  0  0  0  0  0  0  0  0  0
   27.8712  -16.2276  -15.6929 S   0  0  0  0  0  0  0  0  0  0  0  0
   27.0766  -19.8129  -13.9634 C   0  0  0  0  0  0  0  0  0  0  0  0
   26.7626  -20.8598  -14.5952 O   0  0  0  0  0  0  0  0  0  0  0  0
   26.9024  -20.3242   -7.5709 C   0  0  0  0  0  0  0  0  0  0  0  0
   25.2960  -21.1425   -7.8790 S   0  0  0  0  0  0  0  0  0  0  0  0
   25.1969  -21.4518   -9.6709 C   0  0  0  0  0  0  0  0  0  0  0  0
   25.8981  -20.3522  -10.4440 C   0  0  0  0  0  0  0  0  0  0  0  0
   25.8769  -20.6347  -11.9120 C   0  0  2  0  0  0  0  0  0  0  0  0
   26.6637  -19.6496  -12.6166 N   0  0  0  0  0  0  0  0  0  0  0  0
   24.4692  -20.6680  -12.3995 C   0  0  0  0  0  0  0  0  0  0  0  0
   23.8443  -19.5936  -12.5846 O   0  0  0  0  0  0  0  0  0  0  0  0
   21.7081  -26.0993  -14.2084 C   0  0  0  0  0  0  0  0  0  0  0  0
   20.4151  -25.0077  -14.8776 S   0  0  0  0  0  0  0  0  0  0  0  0
   20.7299  -23.3022  -14.2998 C   0  0  0  0  0  0  0  0  0  0  0  0
   22.1583  -23.2254  -13.8577 C   0  0  0  0  0  0  0  0  0  0  0  0
   22.4693  -21.8711  -13.2948 C   0  0  2  0  0  0  0  0  0  0  0  0
   23.8041  -21.8777  -12.6643 N   0  0  0  0  0  0  0  0  0  0  0  0
   21.5111  -21.3958  -12.2861 C   0  0  0  0  0  0  0  0  0  0  0  0
   21.6108  -21.7322  -11.0882 O   0  0  0  0  0  0  0  0  0  0  0  0
   20.4743  -20.5607  -12.6525 O   0  0  0  0  0  0  0  0  0  0  0  0
  2  1  1  6
  3  2  1  0
  4  3  1  0
  5  2  1  0
  6  5  2  0
  8  7  1  0
  8  9  1  0
  9 10  1  0
 11 10  1  1
 11 13  1  0
 11 12  1  0
 12  5  1  0
 13 20  1  0
 14 13  2  0
 16 15  1  0
 17 16  1  0
 18 17  1  0
 19 21  1  0
 19 18  1  1
 20 19  1  0
 21 23  1  0
 22 21  2  0
M  END
$$$$
