CMM.pdb
     RDKit          3D

 23 22  0  0  1  0  0  0  0  0999 V2000
   24.8778  -24.1202  -15.7642 N   0  0  0  0  0  0  0  0  0  0  0  0
   25.9342  -24.3835  -16.7067 C   0  0  1  0  0  0  0  0  0  0  0  0
   27.0301  -23.3255  -16.5835 C   0  0  0  0  0  0  0  0  0  0  0  0
   27.6869  -22.8959  -18.2069 S   0  0  0  0  0  0  0  0  0  0  0  0
   26.4726  -25.7398  -16.4845 C   0  0  0  0  0  0  0  0  0  0  0  0
   26.9087  -26.0869  -15.3518 O   0  0  0  0  0  0  0  0  0  0  0  0
   22.2393  -29.5233  -16.7758 C   0  0  0  0  0  0  0  0  0  0  0  0
   23.7935  -30.4873  -16.7627 S   0  0  0  0  0  0  0  0  0  0  0  0
   25.1416  -29.3097  -16.4276 C   0  0  0  0  0  0  0  0  0  0  0  0
   25.9017  -28.9894  -17.6997 C   0  0  0  0  0  0  0  0  0  0  0  0
   26.9980  -28.0081  -17.4339 C   0  0  2  0  0  0  0  0  0  0  0  0
   26.4969  -26.6598  -17.5634 N   0  0  0  0  0  0  0  0  0  0  0  0
   28.1393  -28.2637  -18.3572 C   0  0  0  0  0  0  0  0  0  0  0  0
   28.2615  -27.5828  -19.4063 O   0  0  0  0  0  0  0  0  0  0  0  0
   34.5667  -29.9145  -17.1807 C   0  0  0  0  0  0  0  0  0  0  0  0
   33.8582  -31.1478  -18.3158 S   0  0  0  0  0  0  0  0  0  0  0  0
   32.5061  -30.3641  -19.2641 C   0  0  0  0  0  0  0  0  0  0  0  0
   31.3800  -30.0922  -18.3156 C   0  0  0  0  0  0  0  0  0  0  0  0
   30.2141  -29.4826  -19.0343 C   0  0  2  0  0  0  0  0  0  0  0  0
   29.0998  -29.2553  -18.0929 N   0  0  0  0  0  0  0  0  0  0  0  0
   29.6911  -30.2926  -20.1442 C   0  0  0  0  0  0  0  0  0  0  0  0
   28.7830  -31.1299  -19.9637 O   0  0  0  0  0  0  0  0  0  0  0  0
   30.2021  -30.1381  -21.4175 O   0  0  0  0  0  0  0  0  0  0  0  0
  2  1  1  1
  3  2  1  0
  4  3  1  0
  5  2  1  0
  6  5  2  0
  8  7  1  0
  8  9  1  0
  9 10  1  0
 11 10  1  6
 11 13  1  0
 11 12  1  0
 12  5  1  0
 13 20  1  0
 14 13  2  0
 16 15  1  0
 17 16  1  0
 18 17  1  0
 19 21  1  0
 19 18  1  1
 20 19  1  0
 21 23  1  0
 22 21  2  0
M  END
$$$$
