CMM.pdb
     RDKit          3D

 23 22  0  0  1  0  0  0  0  0999 V2000
   18.1554  -10.1085  -12.4444 N   0  0  0  0  0  0  0  0  0  0  0  0
   18.4817   -9.0876  -11.4826 C   0  0  1  0  0  0  0  0  0  0  0  0
   19.7041   -8.2954  -11.9449 C   0  0  0  0  0  0  0  0  0  0  0  0
   21.1780   -9.3341  -11.9350 S   0  0  0  0  0  0  0  0  0  0  0  0
   17.3168   -8.2041  -11.2802 C   0  0  0  0  0  0  0  0  0  0  0  0
   16.7225   -7.6792  -12.2626 O   0  0  0  0  0  0  0  0  0  0  0  0
   12.5497   -9.3321   -7.4846 C   0  0  0  0  0  0  0  0  0  0  0  0
   12.6358   -7.5596   -7.0424 S   0  0  0  0  0  0  0  0  0  0  0  0
   13.7339   -6.7653   -8.2589 C   0  0  0  0  0  0  0  0  0  0  0  0
   14.9253   -7.6518   -8.5641 C   0  0  0  0  0  0  0  0  0  0  0  0
   15.7507   -7.0749   -9.6692 C   0  0  2  0  0  0  0  0  0  0  0  0
   16.8650   -7.9462   -9.9609 N   0  0  0  0  0  0  0  0  0  0  0  0
   16.2042   -5.7047   -9.2984 C   0  0  0  0  0  0  0  0  0  0  0  0
   17.1110   -5.5550   -8.4415 O   0  0  0  0  0  0  0  0  0  0  0  0
   17.5156    1.6357  -11.5380 C   0  0  0  0  0  0  0  0  0  0  0  0
   17.0008   -0.0618  -11.9442 S   0  0  0  0  0  0  0  0  0  0  0  0
   16.7463   -0.9862  -10.3878 C   0  0  0  0  0  0  0  0  0  0  0  0
   16.2807   -2.3637  -10.7448 C   0  0  0  0  0  0  0  0  0  0  0  0
   16.1477   -3.2153   -9.5182 C   0  0  2  0  0  0  0  0  0  0  0  0
   15.6450   -4.5547   -9.8821 N   0  0  0  0  0  0  0  0  0  0  0  0
   15.2437   -2.6717   -8.4941 C   0  0  0  0  0  0  0  0  0  0  0  0
   15.5954   -1.7313   -7.7524 O   0  0  0  0  0  0  0  0  0  0  0  0
   13.9776   -3.1990   -8.3351 O   0  0  0  0  0  0  0  0  0  0  0  0
  2  1  1  6
  3  2  1  0
  4  3  1  0
  5  2  1  0
  6  5  2  0
  8  7  1  0
  8  9  1  0
  9 10  1  0
 11 10  1  1
 11 13  1  0
 11 12  1  0
 12  5  1  0
 13 20  1  0
 14 13  2  0
 16 15  1  0
 17 16  1  0
 18 17  1  0
 19 21  1  0
 19 18  1  6
 20 19  1  0
 21 23  1  0
 22 21  2  0
M  END
$$$$
