CMM.pdb
     RDKit          3D

 23 22  0  0  1  0  0  0  0  0999 V2000
   26.7708  -17.6776  -16.8795 N   0  0  0  0  0  0  0  0  0  0  0  0
   26.8780  -17.5071  -15.4536 C   0  0  1  0  0  0  0  0  0  0  0  0
   25.7317  -16.6391  -14.9360 C   0  0  0  0  0  0  0  0  0  0  0  0
   26.1117  -14.8891  -15.1469 S   0  0  0  0  0  0  0  0  0  0  0  0
   26.8891  -18.8276  -14.7941 C   0  0  0  0  0  0  0  0  0  0  0  0
   26.1335  -19.7575  -15.1918 O   0  0  0  0  0  0  0  0  0  0  0  0
   31.3918  -20.7571  -10.0726 C   0  0  0  0  0  0  0  0  0  0  0  0
   30.9501  -22.1803  -11.1328 S   0  0  0  0  0  0  0  0  0  0  0  0
   29.2618  -21.8780  -11.7450 C   0  0  0  0  0  0  0  0  0  0  0  0
   29.1706  -20.5223  -12.4175 C   0  0  0  0  0  0  0  0  0  0  0  0
   27.7966  -20.2855  -12.9573 C   0  0  2  0  0  0  0  0  0  0  0  0
   27.7635  -19.0469  -13.6993 N   0  0  0  0  0  0  0  0  0  0  0  0
   26.8086  -20.2869  -11.8417 C   0  0  0  0  0  0  0  0  0  0  0  0
   26.4923  -19.2066  -11.2831 O   0  0  0  0  0  0  0  0  0  0  0  0
   27.7762  -19.4995   -7.1309 C   0  0  0  0  0  0  0  0  0  0  0  0
   26.1493  -19.9949   -6.4835 S   0  0  0  0  0  0  0  0  0  0  0  0
   25.1652  -20.7054   -7.8505 C   0  0  0  0  0  0  0  0  0  0  0  0
   26.0864  -20.9274   -9.0099 C   0  0  0  0  0  0  0  0  0  0  0  0
   25.3335  -21.4532  -10.1948 C   0  0  2  0  0  0  0  0  0  0  0  0
   26.2079  -21.4724  -11.3841 N   0  0  0  0  0  0  0  0  0  0  0  0
   24.1334  -20.6801  -10.5463 C   0  0  0  0  0  0  0  0  0  0  0  0
   24.1026  -19.9581  -11.5641 O   0  0  0  0  0  0  0  0  0  0  0  0
   23.0092  -20.7413   -9.7469 O   0  0  0  0  0  0  0  0  0  0  0  0
  2  1  1  6
  3  2  1  0
  4  3  1  0
  5  2  1  0
  6  5  2  0
  8  7  1  0
  8  9  1  0
  9 10  1  0
 11 10  1  1
 11 13  1  0
 11 12  1  0
 12  5  1  0
 13 20  1  0
 14 13  2  0
 16 15  1  0
 17 16  1  0
 18 17  1  0
 19 21  1  0
 19 18  1  1
 20 19  1  0
 21 23  1  0
 22 21  2  0
M  END
$$$$
