CMM.pdb
     RDKit          3D

 23 22  0  0  1  0  0  0  0  0999 V2000
   17.8970  -12.7490  -19.9498 N   0  0  0  0  0  0  0  0  0  0  0  0
   19.0877  -12.8965  -19.1537 C   0  0  1  0  0  0  0  0  0  0  0  0
   20.0317  -13.9126  -19.7954 C   0  0  0  0  0  0  0  0  0  0  0  0
   19.3355  -15.5737  -19.7077 S   0  0  0  0  0  0  0  0  0  0  0  0
   19.7440  -11.5843  -18.9921 C   0  0  0  0  0  0  0  0  0  0  0  0
   20.8538  -11.4829  -18.3992 O   0  0  0  0  0  0  0  0  0  0  0  0
   18.7352   -5.8535  -22.7896 C   0  0  0  0  0  0  0  0  0  0  0  0
   17.9328   -7.4956  -22.7236 S   0  0  0  0  0  0  0  0  0  0  0  0
   18.9921   -8.5592  -21.6926 C   0  0  0  0  0  0  0  0  0  0  0  0
   18.9206   -8.1376  -20.2381 C   0  0  0  0  0  0  0  0  0  0  0  0
   19.6631   -9.0991  -19.3665 C   0  0  2  0  0  0  0  0  0  0  0  0
   19.1126  -10.4262  -19.5131 N   0  0  0  0  0  0  0  0  0  0  0  0
   19.6175   -8.6362  -17.9508 C   0  0  0  0  0  0  0  0  0  0  0  0
   18.5717   -8.7955  -17.2726 O   0  0  0  0  0  0  0  0  0  0  0  0
   22.5710   -8.8022  -10.9764 C   0  0  0  0  0  0  0  0  0  0  0  0
   22.5036   -9.3243  -12.7183 S   0  0  0  0  0  0  0  0  0  0  0  0
   21.4854   -8.1264  -13.6510 C   0  0  0  0  0  0  0  0  0  0  0  0
   21.4090   -8.5981  -15.0700 C   0  0  0  0  0  0  0  0  0  0  0  0
   20.6544   -7.6179  -15.9169 C   0  0  2  0  0  0  0  0  0  0  0  0
   20.7201   -8.0175  -17.3366 N   0  0  0  0  0  0  0  0  0  0  0  0
   21.1425   -6.2340  -15.8287 C   0  0  0  0  0  0  0  0  0  0  0  0
   21.0581   -5.5835  -14.7667 O   0  0  0  0  0  0  0  0  0  0  0  0
   21.7081   -5.6255  -16.9315 O   0  0  0  0  0  0  0  0  0  0  0  0
  2  1  1  6
  3  2  1  0
  4  3  1  0
  5  2  1  0
  6  5  2  0
  8  7  1  0
  8  9  1  0
  9 10  1  0
 11 10  1  6
 11 13  1  0
 11 12  1  0
 12  5  1  0
 13 20  1  0
 14 13  2  0
 16 15  1  0
 17 16  1  0
 18 17  1  0
 19 21  1  0
 19 18  1  1
 20 19  1  0
 21 23  1  0
 22 21  2  0
M  END
$$$$
