CMM.pdb
     RDKit          3D

 23 22  0  0  1  0  0  0  0  0999 V2000
   19.6312  -15.3954  -15.9185 N   0  0  0  0  0  0  0  0  0  0  0  0
   19.6698  -14.1834  -16.6952 C   0  0  1  0  0  0  0  0  0  0  0  0
   18.2523  -13.6734  -16.9521 C   0  0  0  0  0  0  0  0  0  0  0  0
   17.2904  -14.8960  -17.8639 S   0  0  0  0  0  0  0  0  0  0  0  0
   20.4844  -13.1703  -15.9962 C   0  0  0  0  0  0  0  0  0  0  0  0
   20.1747  -12.7758  -14.8376 O   0  0  0  0  0  0  0  0  0  0  0  0
   27.0085  -12.3276  -15.1371 C   0  0  0  0  0  0  0  0  0  0  0  0
   26.4807  -10.9639  -16.2355 S   0  0  0  0  0  0  0  0  0  0  0  0
   24.7221  -10.6512  -15.8802 C   0  0  0  0  0  0  0  0  0  0  0  0
   23.8490  -11.7108  -16.5232 C   0  0  0  0  0  0  0  0  0  0  0  0
   22.4296  -11.5787  -16.0723 C   0  0  2  0  0  0  0  0  0  0  0  0
   21.6293  -12.6376  -16.6416 N   0  0  0  0  0  0  0  0  0  0  0  0
   21.9062  -10.2329  -16.4400 C   0  0  0  0  0  0  0  0  0  0  0  0
   21.6938   -9.9509  -17.6460 O   0  0  0  0  0  0  0  0  0  0  0  0
   16.7173   -7.9975  -17.2874 C   0  0  0  0  0  0  0  0  0  0  0  0
   17.2173   -6.7280  -16.0833 S   0  0  0  0  0  0  0  0  0  0  0  0
   19.0405   -6.5952  -16.0936 C   0  0  0  0  0  0  0  0  0  0  0  0
   19.6000   -7.9588  -15.8302 C   0  0  0  0  0  0  0  0  0  0  0  0
   21.0984   -7.9365  -15.8718 C   0  0  2  0  0  0  0  0  0  0  0  0
   21.6371   -9.2512  -15.4707 N   0  0  0  0  0  0  0  0  0  0  0  0
   21.7172   -6.9259  -15.0016 C   0  0  0  0  0  0  0  0  0  0  0  0
   22.3213   -7.2510  -13.9588 O   0  0  0  0  0  0  0  0  0  0  0  0
   21.6387   -5.5866  -15.3280 O   0  0  0  0  0  0  0  0  0  0  0  0
  2  1  1  1
  3  2  1  0
  4  3  1  0
  5  2  1  0
  6  5  2  0
  8  7  1  0
  8  9  1  0
  9 10  1  0
 11 10  1  6
 11 13  1  0
 11 12  1  0
 12  5  1  0
 13 20  1  0
 14 13  2  0
 16 15  1  0
 17 16  1  0
 18 17  1  0
 19 21  1  0
 19 18  1  1
 20 19  1  0
 21 23  1  0
 22 21  2  0
M  END
$$$$
