HMG.pdb
     RDKit          3D

 23 23  0  0  1  0  0  0  0  0999 V2000
   20.2454  -15.9015  -15.1362 N   0  0  0  0  0  0  0  0  0  0  0  0
   20.4882  -14.7093  -15.8875 C   0  0  1  0  0  0  0  0  0  0  0  0
   19.1516  -14.1572  -16.3287 C   0  0  0  0  0  0  0  0  0  0  0  0
   18.5467  -15.1782  -17.2332 C   0  0  0  0  0  0  0  0  0  0  0  0
   17.5132  -16.0463  -16.9520 C   0  0  0  0  0  0  0  0  0  0  0  0
   17.2483  -16.8188  -18.0229 N   0  0  0  0  0  0  0  0  0  0  0  0
   18.1086  -16.4453  -18.9825 C   0  0  0  0  0  0  0  0  0  0  0  0
   18.8977  -15.4580  -18.5225 N   0  0  0  0  0  0  0  0  0  0  0  0
   21.2909  -13.7087  -15.1400 C   0  0  0  0  0  0  0  0  0  0  0  0
   20.8710  -13.2522  -14.0457 O   0  0  0  0  0  0  0  0  0  0  0  0
   27.2655  -15.9510  -15.4445 C   0  0  0  0  0  0  0  0  0  0  0  0
   26.1879  -14.6282  -16.0597 S   0  0  0  0  0  0  0  0  0  0  0  0
   25.3477  -13.7837  -14.6855 C   0  0  0  0  0  0  0  0  0  0  0  0
   24.8253  -12.4377  -15.1306 C   0  0  0  0  0  0  0  0  0  0  0  0
   23.3486  -12.2884  -14.8444 C   0  0  2  0  0  0  0  0  0  0  0  0
   22.5484  -13.2177  -15.6006 N   0  0  0  0  0  0  0  0  0  0  0  0
   22.8854  -10.9208  -15.1888 C   0  0  0  0  0  0  0  0  0  0  0  0
   22.6094  -10.6647  -16.3730 O   0  0  0  0  0  0  0  0  0  0  0  0
   22.7467   -9.8961  -14.2152 N   0  0  0  0  0  0  0  0  0  0  0  0
   22.2365   -8.6083  -14.6224 C   0  0  0  0  0  0  0  0  0  0  0  0
   20.7981   -8.5531  -14.2700 C   0  0  0  0  0  0  0  0  0  0  0  0
   20.4598   -7.8448  -13.2846 O   0  0  0  0  0  0  0  0  0  0  0  0
   19.8047   -9.2299  -14.9544 O   0  0  0  0  0  0  0  0  0  0  0  0
  2  1  1  1
  2  3  1  0
  2  9  1  0
  4  5  2  0
  4  3  1  0
  6  5  1  0
  7  8  2  0
  7  6  1  0
  8  4  1  0
  9 16  1  0
 10  9  2  0
 12 11  1  0
 13 12  1  0
 14 13  1  0
 15 14  1  6
 15 17  1  0
 16 15  1  0
 17 19  1  0
 18 17  2  0
 19 20  1  0
 20 21  1  0
 21 22  2  0
 21 23  1  0
M  END
$$$$
