HMG.pdb
     RDKit          3D

 23 23  0  0  1  0  0  0  0  0999 V2000
   21.8475  -12.2422  -17.9492 N   0  0  0  0  0  0  0  0  0  0  0  0
   22.1823  -11.3766  -16.8613 C   0  0  1  0  0  0  0  0  0  0  0  0
   23.6502  -11.0329  -16.9750 C   0  0  0  0  0  0  0  0  0  0  0  0
   24.4032  -12.3014  -16.7503 C   0  0  0  0  0  0  0  0  0  0  0  0
   25.1416  -13.0169  -17.6687 C   0  0  0  0  0  0  0  0  0  0  0  0
   25.6736  -14.1102  -17.0896 N   0  0  0  0  0  0  0  0  0  0  0  0
   25.2766  -14.0923  -15.8081 C   0  0  0  0  0  0  0  0  0  0  0  0
   24.5105  -13.0089  -15.5877 N   0  0  0  0  0  0  0  0  0  0  0  0
   21.3245  -10.1664  -16.8008 C   0  0  0  0  0  0  0  0  0  0  0  0
   21.0515   -9.5324  -17.8524 O   0  0  0  0  0  0  0  0  0  0  0  0
   15.1287  -11.0240  -16.7935 C   0  0  0  0  0  0  0  0  0  0  0  0
   16.0909  -10.1962  -15.4979 S   0  0  0  0  0  0  0  0  0  0  0  0
   17.7372   -9.7269  -16.1120 C   0  0  0  0  0  0  0  0  0  0  0  0
   18.4887   -8.9390  -15.0645 C   0  0  0  0  0  0  0  0  0  0  0  0
   19.8665   -8.5434  -15.5441 C   0  0  2  0  0  0  0  0  0  0  0  0
   20.7733   -9.6622  -15.5857 N   0  0  0  0  0  0  0  0  0  0  0  0
   20.4603   -7.5237  -14.6434 C   0  0  0  0  0  0  0  0  0  0  0  0
   21.0094   -7.9011  -13.5946 O   0  0  0  0  0  0  0  0  0  0  0  0
   20.4235   -6.1346  -14.9368 N   0  0  0  0  0  0  0  0  0  0  0  0
   21.0000   -5.2047  -13.9947 C   0  0  0  0  0  0  0  0  0  0  0  0
   22.2089   -4.6138  -14.6157 C   0  0  0  0  0  0  0  0  0  0  0  0
   22.6328   -5.1275  -15.6850 O   0  0  0  0  0  0  0  0  0  0  0  0
   22.9003   -3.5346  -14.0953 O   0  0  0  0  0  0  0  0  0  0  0  0
  2  1  1  6
  2  3  1  0
  2  9  1  0
  4  5  2  0
  4  3  1  0
  6  5  1  0
  7  8  2  0
  7  6  1  0
  8  4  1  0
  9 16  1  0
 10  9  2  0
 12 11  1  0
 13 12  1  0
 14 13  1  0
 15 14  1  1
 15 17  1  0
 16 15  1  0
 17 19  1  0
 18 17  2  0
 19 20  1  0
 20 21  1  0
 21 22  2  0
 21 23  1  0
M  END
$$$$
