HMG.pdb
     RDKit          3D

 23 23  0  0  1  0  0  0  0  0999 V2000
   27.9581  -21.2322  -15.3399 N   0  0  0  0  0  0  0  0  0  0  0  0
   27.2591  -20.3353  -14.4729 C   0  0  1  0  0  0  0  0  0  0  0  0
   26.6026  -19.2769  -15.3298 C   0  0  0  0  0  0  0  0  0  0  0  0
   27.7059  -18.5039  -15.9715 C   0  0  0  0  0  0  0  0  0  0  0  0
   29.0630  -18.6600  -15.7855 C   0  0  0  0  0  0  0  0  0  0  0  0
   29.7422  -17.7749  -16.5397 N   0  0  0  0  0  0  0  0  0  0  0  0
   28.8230  -17.0576  -17.2036 C   0  0  0  0  0  0  0  0  0  0  0  0
   27.5913  -17.4844  -16.8722 N   0  0  0  0  0  0  0  0  0  0  0  0
   26.2865  -21.0264  -13.5893 C   0  0  0  0  0  0  0  0  0  0  0  0
   25.6439  -22.0211  -14.0132 O   0  0  0  0  0  0  0  0  0  0  0  0
   27.3340  -19.3673   -7.4152 C   0  0  0  0  0  0  0  0  0  0  0  0
   26.2898  -20.8374   -7.6101 S   0  0  0  0  0  0  0  0  0  0  0  0
   26.2003  -21.3432   -9.3548 C   0  0  0  0  0  0  0  0  0  0  0  0
   24.9957  -20.7247  -10.0248 C   0  0  0  0  0  0  0  0  0  0  0  0
   24.9082  -21.1097  -11.4839 C   0  0  2  0  0  0  0  0  0  0  0  0
   26.0275  -20.6191  -12.2470 N   0  0  0  0  0  0  0  0  0  0  0  0
   23.6754  -20.5554  -12.0974 C   0  0  0  0  0  0  0  0  0  0  0  0
   23.6911  -19.3856  -12.5162 O   0  0  0  0  0  0  0  0  0  0  0  0
   22.4804  -21.3127  -12.2228 N   0  0  0  0  0  0  0  0  0  0  0  0
   21.3058  -20.6803  -12.7749 C   0  0  0  0  0  0  0  0  0  0  0  0
   20.2158  -21.6841  -12.8038 C   0  0  0  0  0  0  0  0  0  0  0  0
   20.5267  -22.8956  -12.6532 O   0  0  0  0  0  0  0  0  0  0  0  0
   18.8800  -21.3745  -12.9856 O   0  0  0  0  0  0  0  0  0  0  0  0
  2  1  1  6
  2  3  1  0
  2  9  1  0
  4  5  2  0
  4  3  1  0
  6  5  1  0
  7  8  2  0
  7  6  1  0
  8  4  1  0
  9 16  1  0
 10  9  2  0
 12 11  1  0
 13 12  1  0
 14 13  1  0
 15 14  1  1
 15 17  1  0
 16 15  1  0
 17 19  1  0
 18 17  2  0
 19 20  1  0
 20 21  1  0
 21 22  2  0
 21 23  1  0
M  END
$$$$
