HMG.pdb
     RDKit          3D

 23 23  0  0  1  0  0  0  0  0999 V2000
   26.7682  -21.1729  -18.1302 N   0  0  0  0  0  0  0  0  0  0  0  0
   26.0778  -20.3028  -17.2297 C   0  0  1  0  0  0  0  0  0  0  0  0
   24.8452  -19.7854  -17.9359 C   0  0  0  0  0  0  0  0  0  0  0  0
   25.3122  -18.7512  -18.9048 C   0  0  0  0  0  0  0  0  0  0  0  0
   25.7202  -17.4631  -18.6307 C   0  0  0  0  0  0  0  0  0  0  0  0
   26.0681  -16.8319  -19.7684 N   0  0  0  0  0  0  0  0  0  0  0  0
   25.8829  -17.7129  -20.7633 C   0  0  0  0  0  0  0  0  0  0  0  0
   25.4276  -18.8740  -20.2595 N   0  0  0  0  0  0  0  0  0  0  0  0
   25.7530  -20.9516  -15.9344 C   0  0  0  0  0  0  0  0  0  0  0  0
   25.2766  -22.1156  -15.9128 O   0  0  0  0  0  0  0  0  0  0  0  0
   24.6964  -21.1025   -8.4648 C   0  0  0  0  0  0  0  0  0  0  0  0
   24.7936  -20.5637  -10.1939 S   0  0  0  0  0  0  0  0  0  0  0  0
   26.1992  -21.3485  -11.0402 C   0  0  0  0  0  0  0  0  0  0  0  0
   26.5387  -20.6008  -12.3084 C   0  0  0  0  0  0  0  0  0  0  0  0
   25.5701  -20.9223  -13.4234 C   0  0  2  0  0  0  0  0  0  0  0  0
   25.9541  -20.3166  -14.6730 N   0  0  0  0  0  0  0  0  0  0  0  0
   24.2094  -20.4307  -13.0912 C   0  0  0  0  0  0  0  0  0  0  0  0
   24.0280  -19.2065  -12.9791 O   0  0  0  0  0  0  0  0  0  0  0  0
   23.1092  -21.3076  -12.8972 N   0  0  0  0  0  0  0  0  0  0  0  0
   21.8114  -20.7477  -12.6027 C   0  0  0  0  0  0  0  0  0  0  0  0
   20.8317  -21.8589  -12.5611 C   0  0  0  0  0  0  0  0  0  0  0  0
   21.1701  -22.9617  -13.0676 O   0  0  0  0  0  0  0  0  0  0  0  0
   19.5704  -21.7613  -12.0017 O   0  0  0  0  0  0  0  0  0  0  0  0
  2  1  1  6
  2  3  1  0
  2  9  1  0
  4  5  2  0
  4  3  1  0
  6  5  1  0
  7  8  2  0
  7  6  1  0
  8  4  1  0
  9 16  1  0
 10  9  2  0
 12 11  1  0
 13 12  1  0
 14 13  1  0
 15 14  1  1
 15 17  1  0
 16 15  1  0
 17 19  1  0
 18 17  2  0
 19 20  1  0
 20 21  1  0
 21 22  2  0
 21 23  1  0
M  END
$$$$
