HMG.pdb
     RDKit          3D

 23 23  0  0  1  0  0  0  0  0999 V2000
   21.8698  -13.2709  -16.2528 N   0  0  0  0  0  0  0  0  0  0  0  0
   21.5528  -11.9992  -16.8247 C   0  0  1  0  0  0  0  0  0  0  0  0
   20.0592  -11.7962  -16.7087 C   0  0  0  0  0  0  0  0  0  0  0  0
   19.4191  -12.8671  -17.5272 C   0  0  0  0  0  0  0  0  0  0  0  0
   18.4204  -13.7370  -17.1441 C   0  0  0  0  0  0  0  0  0  0  0  0
   18.1050  -14.5621  -18.1606 N   0  0  0  0  0  0  0  0  0  0  0  0
   18.8985  -14.2204  -19.1872 C   0  0  0  0  0  0  0  0  0  0  0  0
   19.6961  -13.2008  -18.8217 N   0  0  0  0  0  0  0  0  0  0  0  0
   22.3209  -10.8842  -16.2155 C   0  0  0  0  0  0  0  0  0  0  0  0
   22.2516  -10.6716  -14.9777 O   0  0  0  0  0  0  0  0  0  0  0  0
   27.1567  -12.1562  -15.2704 C   0  0  0  0  0  0  0  0  0  0  0  0
   25.8572  -11.2219  -16.1235 S   0  0  0  0  0  0  0  0  0  0  0  0
   26.2994   -9.4623  -16.2498 C   0  0  0  0  0  0  0  0  0  0  0  0
   25.2306   -8.6996  -16.9972 C   0  0  0  0  0  0  0  0  0  0  0  0
   23.8650   -8.9025  -16.3817 C   0  0  2  0  0  0  0  0  0  0  0  0
   23.1589  -10.0115  -16.9710 N   0  0  0  0  0  0  0  0  0  0  0  0
   23.0244   -7.6928  -16.5651 C   0  0  0  0  0  0  0  0  0  0  0  0
   22.6592   -7.3883  -17.7131 O   0  0  0  0  0  0  0  0  0  0  0  0
   22.6232   -6.8723  -15.4775 N   0  0  0  0  0  0  0  0  0  0  0  0
   21.8028   -5.7137  -15.7403 C   0  0  0  0  0  0  0  0  0  0  0  0
   21.5315   -5.0416  -14.4476 C   0  0  0  0  0  0  0  0  0  0  0  0
   21.8410   -5.6521  -13.3900 O   0  0  0  0  0  0  0  0  0  0  0  0
   20.9602   -3.7874  -14.3296 O   0  0  0  0  0  0  0  0  0  0  0  0
  2  1  1  1
  2  3  1  0
  2  9  1  0
  4  5  2  0
  4  3  1  0
  6  5  1  0
  7  8  2  0
  7  6  1  0
  8  4  1  0
  9 16  1  0
 10  9  2  0
 12 11  1  0
 13 12  1  0
 14 13  1  0
 15 14  1  6
 15 17  1  0
 16 15  1  0
 17 19  1  0
 18 17  2  0
 19 20  1  0
 20 21  1  0
 21 22  2  0
 21 23  1  0
M  END
$$$$
