HMG.pdb
     RDKit          3D

 23 23  0  0  1  0  0  0  0  0999 V2000
   27.2149  -21.6578  -16.4213 N   0  0  0  0  0  0  0  0  0  0  0  0
   27.0359  -20.5653  -15.5163 C   0  0  1  0  0  0  0  0  0  0  0  0
   26.4841  -19.3967  -16.3009 C   0  0  0  0  0  0  0  0  0  0  0  0
   27.6601  -18.6413  -16.8234 C   0  0  0  0  0  0  0  0  0  0  0  0
   28.4091  -18.9201  -17.9468 C   0  0  0  0  0  0  0  0  0  0  0  0
   29.3913  -18.0099  -18.0904 N   0  0  0  0  0  0  0  0  0  0  0  0
   29.2695  -17.1547  -17.0637 C   0  0  0  0  0  0  0  0  0  0  0  0
   28.2313  -17.5214  -16.2912 N   0  0  0  0  0  0  0  0  0  0  0  0
   26.1831  -20.9135  -14.3518 C   0  0  0  0  0  0  0  0  0  0  0  0
   25.3087  -21.8117  -14.4554 O   0  0  0  0  0  0  0  0  0  0  0  0
   24.7751  -22.0336   -7.1155 C   0  0  0  0  0  0  0  0  0  0  0  0
   25.8790  -21.4215   -8.4178 S   0  0  0  0  0  0  0  0  0  0  0  0
   25.0036  -20.2740   -9.5244 C   0  0  0  0  0  0  0  0  0  0  0  0
   25.8793  -19.8958  -10.6961 C   0  0  0  0  0  0  0  0  0  0  0  0
   25.4472  -20.5937  -11.9653 C   0  0  2  0  0  0  0  0  0  0  0  0
   26.2978  -20.2722  -13.0829 N   0  0  0  0  0  0  0  0  0  0  0  0
   24.0638  -20.2005  -12.3327 C   0  0  0  0  0  0  0  0  0  0  0  0
   23.8916  -19.1466  -12.9679 O   0  0  0  0  0  0  0  0  0  0  0  0
   22.9316  -20.9843  -11.9847 N   0  0  0  0  0  0  0  0  0  0  0  0
   21.6113  -20.4579  -12.2383 C   0  0  0  0  0  0  0  0  0  0  0  0
   21.2010  -20.8850  -13.5968 C   0  0  0  0  0  0  0  0  0  0  0  0
   21.9779  -20.6285  -14.5547 O   0  0  0  0  0  0  0  0  0  0  0  0
   20.0195  -21.5469  -13.8787 O   0  0  0  0  0  0  0  0  0  0  0  0
  2  1  1  6
  2  3  1  0
  2  9  1  0
  4  5  2  0
  4  3  1  0
  6  5  1  0
  7  8  2  0
  7  6  1  0
  8  4  1  0
  9 16  1  0
 10  9  2  0
 12 11  1  0
 13 12  1  0
 14 13  1  0
 15 14  1  1
 15 17  1  0
 16 15  1  0
 17 19  1  0
 18 17  2  0
 19 20  1  0
 20 21  1  0
 21 22  2  0
 21 23  1  0
M  END
$$$$
