HMG.pdb
     RDKit          3D

 23 23  0  0  1  0  0  0  0  0999 V2000
   20.7896  -13.2508  -16.4876 N   0  0  0  0  0  0  0  0  0  0  0  0
   20.9917  -11.9324  -17.0030 C   0  0  1  0  0  0  0  0  0  0  0  0
   19.6347  -11.3368  -17.3023 C   0  0  0  0  0  0  0  0  0  0  0  0
   19.0371  -12.1644  -18.3907 C   0  0  0  0  0  0  0  0  0  0  0  0
   18.0022  -13.0696  -18.2892 C   0  0  0  0  0  0  0  0  0  0  0  0
   17.7456  -13.6215  -19.4906 N   0  0  0  0  0  0  0  0  0  0  0  0
   18.6126  -13.0711  -20.3542 C   0  0  0  0  0  0  0  0  0  0  0  0
   19.3976  -12.1912  -19.7071 N   0  0  0  0  0  0  0  0  0  0  0  0
   21.7947  -11.0743  -16.0958 C   0  0  0  0  0  0  0  0  0  0  0  0
   21.5113  -11.0100  -14.8720 O   0  0  0  0  0  0  0  0  0  0  0  0
   26.2519  -13.6486  -15.0480 C   0  0  0  0  0  0  0  0  0  0  0  0
   25.4646  -12.2783  -15.9377 S   0  0  0  0  0  0  0  0  0  0  0  0
   25.6989  -10.7083  -15.0500 C   0  0  0  0  0  0  0  0  0  0  0  0
   25.1383   -9.5572  -15.8521 C   0  0  0  0  0  0  0  0  0  0  0  0
   23.6444   -9.4211  -15.6660 C   0  0  2  0  0  0  0  0  0  0  0  0
   22.9027  -10.2936  -16.5403 N   0  0  0  0  0  0  0  0  0  0  0  0
   23.2071   -8.0313  -15.9501 C   0  0  0  0  0  0  0  0  0  0  0  0
   23.1690   -7.6472  -17.1312 O   0  0  0  0  0  0  0  0  0  0  0  0
   22.8314   -7.1261  -14.9221 N   0  0  0  0  0  0  0  0  0  0  0  0
   22.3051   -5.8321  -15.2870 C   0  0  0  0  0  0  0  0  0  0  0  0
   21.9359   -5.1198  -14.0409 C   0  0  0  0  0  0  0  0  0  0  0  0
   22.0611   -5.7375  -12.9502 O   0  0  0  0  0  0  0  0  0  0  0  0
   21.4627   -3.8207  -14.0005 O   0  0  0  0  0  0  0  0  0  0  0  0
  2  1  1  1
  2  3  1  0
  2  9  1  0
  4  5  2  0
  4  3  1  0
  6  5  1  0
  7  8  2  0
  7  6  1  0
  8  4  1  0
  9 16  1  0
 10  9  2  0
 12 11  1  0
 13 12  1  0
 14 13  1  0
 15 14  1  6
 15 17  1  0
 16 15  1  0
 17 19  1  0
 18 17  2  0
 19 20  1  0
 20 21  1  0
 21 22  2  0
 21 23  1  0
M  END
$$$$
