HMG.pdb
     RDKit          3D

 23 23  0  0  1  0  0  0  0  0999 V2000
   15.8698  -26.3349   -2.4431 N   0  0  0  0  0  0  0  0  0  0  0  0
   15.9273  -27.2468   -1.3431 C   0  0  1  0  0  0  0  0  0  0  0  0
   16.0898  -28.6416   -1.9032 C   0  0  0  0  0  0  0  0  0  0  0  0
   14.8275  -28.9570   -2.6336 C   0  0  0  0  0  0  0  0  0  0  0  0
   14.6438  -29.0514   -3.9967 C   0  0  0  0  0  0  0  0  0  0  0  0
   13.3611  -29.3529   -4.2749 N   0  0  0  0  0  0  0  0  0  0  0  0
   12.7295  -29.4504   -3.0951 C   0  0  0  0  0  0  0  0  0  0  0  0
   13.5991  -29.2145   -2.0964 N   0  0  0  0  0  0  0  0  0  0  0  0
   16.9911  -26.9060   -0.3652 C   0  0  0  0  0  0  0  0  0  0  0  0
   18.1372  -26.5788   -0.7670 O   0  0  0  0  0  0  0  0  0  0  0  0
   20.9591  -23.6531    4.2469 C   0  0  0  0  0  0  0  0  0  0  0  0
   19.5737  -24.0217    3.1358 S   0  0  0  0  0  0  0  0  0  0  0  0
   18.3431  -25.0766    3.9608 C   0  0  0  0  0  0  0  0  0  0  0  0
   17.2728  -25.5053    2.9845 C   0  0  0  0  0  0  0  0  0  0  0  0
   17.7966  -26.5139    1.9878 C   0  0  2  0  0  0  0  0  0  0  0  0
   16.7874  -26.9274    1.0464 N   0  0  0  0  0  0  0  0  0  0  0  0
   18.2811  -27.7324    2.6834 C   0  0  0  0  0  0  0  0  0  0  0  0
   17.4511  -28.5849    3.0418 O   0  0  0  0  0  0  0  0  0  0  0  0
   19.6570  -27.9588    2.9536 N   0  0  0  0  0  0  0  0  0  0  0  0
   20.0386  -29.1279    3.7099 C   0  0  0  0  0  0  0  0  0  0  0  0
   20.2483  -30.2424    2.7560 C   0  0  0  0  0  0  0  0  0  0  0  0
   20.0687  -30.0107    1.5308 O   0  0  0  0  0  0  0  0  0  0  0  0
   20.6283  -31.5199    3.1260 O   0  0  0  0  0  0  0  0  0  0  0  0
  2  1  1  6
  2  3  1  0
  2  9  1  0
  4  5  2  0
  4  3  1  0
  6  5  1  0
  7  8  2  0
  7  6  1  0
  8  4  1  0
  9 16  1  0
 10  9  2  0
 12 11  1  0
 13 12  1  0
 14 13  1  0
 15 14  1  1
 15 17  1  0
 16 15  1  0
 17 19  1  0
 18 17  2  0
 19 20  1  0
 20 21  1  0
 21 22  2  0
 21 23  1  0
M  END
$$$$
