HMG.pdb
     RDKit          3D

 23 23  0  0  1  0  0  0  0  0999 V2000
   14.2920  -14.9069    5.5036 N   0  0  0  0  0  0  0  0  0  0  0  0
   14.8910  -15.5063    6.6554 C   0  0  1  0  0  0  0  0  0  0  0  0
   14.0932  -16.7422    7.0046 C   0  0  0  0  0  0  0  0  0  0  0  0
   13.6543  -16.5794    8.4214 C   0  0  0  0  0  0  0  0  0  0  0  0
   14.2897  -17.0332    9.5577 C   0  0  0  0  0  0  0  0  0  0  0  0
   13.5851  -16.6925   10.6538 N   0  0  0  0  0  0  0  0  0  0  0  0
   12.5057  -16.0248   10.2189 C   0  0  0  0  0  0  0  0  0  0  0  0
   12.5325  -15.9481    8.8763 N   0  0  0  0  0  0  0  0  0  0  0  0
   16.3337  -15.8027    6.4681 C   0  0  0  0  0  0  0  0  0  0  0  0
   16.7379  -16.3224    5.3963 O   0  0  0  0  0  0  0  0  0  0  0  0
   20.5368  -10.8084    5.5741 C   0  0  0  0  0  0  0  0  0  0  0  0
   20.4823  -12.0042    6.9366 S   0  0  0  0  0  0  0  0  0  0  0  0
   19.5484  -13.4900    6.4590 C   0  0  0  0  0  0  0  0  0  0  0  0
   19.5438  -14.4976    7.5848 C   0  0  0  0  0  0  0  0  0  0  0  0
   18.7304  -15.7228    7.2354 C   0  0  2  0  0  0  0  0  0  0  0  0
   17.3209  -15.5257    7.4597 N   0  0  0  0  0  0  0  0  0  0  0  0
   19.1532  -16.8830    8.0591 C   0  0  0  0  0  0  0  0  0  0  0  0
   18.6120  -17.0596    9.1636 O   0  0  0  0  0  0  0  0  0  0  0  0
   20.1524  -17.7970    7.6310 N   0  0  0  0  0  0  0  0  0  0  0  0
   20.5739  -18.8450    8.5303 C   0  0  0  0  0  0  0  0  0  0  0  0
   19.6272  -19.9766    8.3908 C   0  0  0  0  0  0  0  0  0  0  0  0
   18.6223  -19.8158    7.6482 O   0  0  0  0  0  0  0  0  0  0  0  0
   19.7775  -21.1971    9.0243 O   0  0  0  0  0  0  0  0  0  0  0  0
  2  1  1  6
  2  3  1  0
  2  9  1  0
  4  5  2  0
  4  3  1  0
  6  5  1  0
  7  8  2  0
  7  6  1  0
  8  4  1  0
  9 16  1  0
 10  9  2  0
 12 11  1  0
 13 12  1  0
 14 13  1  0
 15 14  1  1
 15 17  1  0
 16 15  1  0
 17 19  1  0
 18 17  2  0
 19 20  1  0
 20 21  1  0
 21 22  2  0
 21 23  1  0
M  END
$$$$
