HMG.pdb
     RDKit          3D

 23 23  0  0  1  0  0  0  0  0999 V2000
   22.0272  -14.8255  -16.7669 N   0  0  0  0  0  0  0  0  0  0  0  0
   21.8632  -13.5088  -17.2999 C   0  0  1  0  0  0  0  0  0  0  0  0
   20.4040  -13.3275  -17.6513 C   0  0  0  0  0  0  0  0  0  0  0  0
   20.1130  -14.2772  -18.7648 C   0  0  0  0  0  0  0  0  0  0  0  0
   20.1494  -15.6549  -18.7284 C   0  0  0  0  0  0  0  0  0  0  0  0
   19.8257  -16.1622  -19.9332 N   0  0  0  0  0  0  0  0  0  0  0  0
   19.5840  -15.1133  -20.7343 C   0  0  0  0  0  0  0  0  0  0  0  0
   19.7529  -13.9705  -20.0455 N   0  0  0  0  0  0  0  0  0  0  0  0
   22.3569  -12.4494  -16.3843 C   0  0  0  0  0  0  0  0  0  0  0  0
   22.0344  -12.4644  -15.1687 O   0  0  0  0  0  0  0  0  0  0  0  0
   28.3611  -13.1914  -14.9476 C   0  0  0  0  0  0  0  0  0  0  0  0
   27.6326  -11.6858  -15.6489 S   0  0  0  0  0  0  0  0  0  0  0  0
   25.8326  -11.6548  -15.3909 C   0  0  0  0  0  0  0  0  0  0  0  0
   25.2443  -10.3652  -15.9141 C   0  0  0  0  0  0  0  0  0  0  0  0
   23.7331  -10.3960  -15.9057 C   0  0  2  0  0  0  0  0  0  0  0  0
   23.2011  -11.3819  -16.8116 N   0  0  0  0  0  0  0  0  0  0  0  0
   23.1815   -9.0784  -16.3095 C   0  0  0  0  0  0  0  0  0  0  0  0
   23.3396   -8.6992  -17.4822 O   0  0  0  0  0  0  0  0  0  0  0  0
   22.4807   -8.2367  -15.4052 N   0  0  0  0  0  0  0  0  0  0  0  0
   21.9432   -6.9861  -15.8864 C   0  0  0  0  0  0  0  0  0  0  0  0
   21.1709   -6.3652  -14.7846 C   0  0  0  0  0  0  0  0  0  0  0  0
   20.9129   -7.0725  -13.7745 O   0  0  0  0  0  0  0  0  0  0  0  0
   20.7158   -5.0590  -14.7956 O   0  0  0  0  0  0  0  0  0  0  0  0
  2  1  1  1
  2  3  1  0
  2  9  1  0
  4  5  2  0
  4  3  1  0
  6  5  1  0
  7  8  2  0
  7  6  1  0
  8  4  1  0
  9 16  1  0
 10  9  2  0
 12 11  1  0
 13 12  1  0
 14 13  1  0
 15 14  1  6
 15 17  1  0
 16 15  1  0
 17 19  1  0
 18 17  2  0
 19 20  1  0
 20 21  1  0
 21 22  2  0
 21 23  1  0
M  END
$$$$
