HMG.pdb
     RDKit          3D

 23 23  0  0  1  0  0  0  0  0999 V2000
   26.7588  -21.8983  -15.5459 N   0  0  0  0  0  0  0  0  0  0  0  0
   26.3674  -20.7555  -14.7806 C   0  0  1  0  0  0  0  0  0  0  0  0
   25.3277  -19.9977  -15.5745 C   0  0  0  0  0  0  0  0  0  0  0  0
   26.0124  -19.4935  -16.8007 C   0  0  0  0  0  0  0  0  0  0  0  0
   25.9351  -20.0041  -18.0790 C   0  0  0  0  0  0  0  0  0  0  0  0
   26.6968  -19.2770  -18.9186 N   0  0  0  0  0  0  0  0  0  0  0  0
   27.2572  -18.3074  -18.1796 C   0  0  0  0  0  0  0  0  0  0  0  0
   26.8549  -18.4241  -16.9014 N   0  0  0  0  0  0  0  0  0  0  0  0
   25.8892  -21.1077  -13.4198 C   0  0  0  0  0  0  0  0  0  0  0  0
   25.1810  -22.1323  -13.2447 O   0  0  0  0  0  0  0  0  0  0  0  0
   26.7169  -20.2470   -5.5480 C   0  0  0  0  0  0  0  0  0  0  0  0
   27.3070  -19.8432   -7.2148 S   0  0  0  0  0  0  0  0  0  0  0  0
   26.1840  -20.5105   -8.4802 C   0  0  0  0  0  0  0  0  0  0  0  0
   26.6806  -20.1651   -9.8647 C   0  0  0  0  0  0  0  0  0  0  0  0
   25.7615  -20.7013  -10.9383 C   0  0  2  0  0  0  0  0  0  0  0  0
   26.1929  -20.3315  -12.2623 N   0  0  0  0  0  0  0  0  0  0  0  0
   24.3847  -20.1769  -10.7572 C   0  0  0  0  0  0  0  0  0  0  0  0
   24.1151  -19.0449  -11.1930 O   0  0  0  0  0  0  0  0  0  0  0  0
   23.3661  -20.9211  -10.1048 N   0  0  0  0  0  0  0  0  0  0  0  0
   22.0830  -20.2999   -9.8759 C   0  0  0  0  0  0  0  0  0  0  0  0
   21.2232  -20.5781  -11.0504 C   0  0  0  0  0  0  0  0  0  0  0  0
   21.7039  -21.2807  -11.9791 O   0  0  0  0  0  0  0  0  0  0  0  0
   19.9273  -20.1153  -11.1909 O   0  0  0  0  0  0  0  0  0  0  0  0
  2  1  1  6
  2  3  1  0
  2  9  1  0
  4  5  2  0
  4  3  1  0
  6  5  1  0
  7  8  2  0
  7  6  1  0
  8  4  1  0
  9 16  1  0
 10  9  2  0
 12 11  1  0
 13 12  1  0
 14 13  1  0
 15 14  1  1
 15 17  1  0
 16 15  1  0
 17 19  1  0
 18 17  2  0
 19 20  1  0
 20 21  1  0
 21 22  2  0
 21 23  1  0
M  END
$$$$
