HMG.pdb
     RDKit          3D

 23 23  0  0  1  0  0  0  0  0999 V2000
   28.3375  -19.6860  -15.9814 N   0  0  0  0  0  0  0  0  0  0  0  0
   27.3869  -19.1060  -15.0844 C   0  0  1  0  0  0  0  0  0  0  0  0
   26.3434  -18.3899  -15.9116 C   0  0  0  0  0  0  0  0  0  0  0  0
   26.8452  -17.0002  -16.1197 C   0  0  0  0  0  0  0  0  0  0  0  0
   27.0368  -16.0222  -15.1670 C   0  0  0  0  0  0  0  0  0  0  0  0
   27.5018  -14.8962  -15.7413 N   0  0  0  0  0  0  0  0  0  0  0  0
   27.6062  -15.1546  -17.0538 C   0  0  0  0  0  0  0  0  0  0  0  0
   27.2143  -16.4179  -17.2980 N   0  0  0  0  0  0  0  0  0  0  0  0
   26.7861  -20.0988  -14.1583 C   0  0  0  0  0  0  0  0  0  0  0  0
   26.3634  -21.1986  -14.5987 O   0  0  0  0  0  0  0  0  0  0  0  0
   26.7114  -19.4809   -7.6112 C   0  0  0  0  0  0  0  0  0  0  0  0
   25.8345  -21.0608   -7.7672 S   0  0  0  0  0  0  0  0  0  0  0  0
   25.4857  -21.4400   -9.5115 C   0  0  0  0  0  0  0  0  0  0  0  0
   26.2323  -20.4911  -10.4196 C   0  0  0  0  0  0  0  0  0  0  0  0
   25.9780  -20.7964  -11.8780 C   0  0  2  0  0  0  0  0  0  0  0  0
   26.6544  -19.8755  -12.7556 N   0  0  0  0  0  0  0  0  0  0  0  0
   24.5275  -20.7167  -12.1832 C   0  0  0  0  0  0  0  0  0  0  0  0
   24.0335  -19.6078  -12.4486 O   0  0  0  0  0  0  0  0  0  0  0  0
   23.6853  -21.8603  -12.1828 N   0  0  0  0  0  0  0  0  0  0  0  0
   22.3462  -21.7435  -12.7099 C   0  0  0  0  0  0  0  0  0  0  0  0
   21.4640  -21.2683  -11.6181 C   0  0  0  0  0  0  0  0  0  0  0  0
   21.8966  -21.3414  -10.4372 O   0  0  0  0  0  0  0  0  0  0  0  0
   20.1965  -20.7502  -11.8141 O   0  0  0  0  0  0  0  0  0  0  0  0
  2  1  1  6
  2  3  1  0
  2  9  1  0
  4  5  2  0
  4  3  1  0
  6  5  1  0
  7  8  2  0
  7  6  1  0
  8  4  1  0
  9 16  1  0
 10  9  2  0
 12 11  1  0
 13 12  1  0
 14 13  1  0
 15 14  1  1
 15 17  1  0
 16 15  1  0
 17 19  1  0
 18 17  2  0
 19 20  1  0
 20 21  1  0
 21 22  2  0
 21 23  1  0
M  END
$$$$
