HMG.pdb
     RDKit          3D

 23 23  0  0  1  0  0  0  0  0999 V2000
   25.7352  -20.0462  -17.7457 N   0  0  0  0  0  0  0  0  0  0  0  0
   24.7239  -19.4225  -16.9501 C   0  0  1  0  0  0  0  0  0  0  0  0
   23.5625  -19.0829  -17.8564 C   0  0  0  0  0  0  0  0  0  0  0  0
   23.9237  -17.8144  -18.5542 C   0  0  0  0  0  0  0  0  0  0  0  0
   24.5482  -16.7073  -18.0202 C   0  0  0  0  0  0  0  0  0  0  0  0
   24.7031  -15.7587  -18.9635 N   0  0  0  0  0  0  0  0  0  0  0  0
   24.1801  -16.2580  -20.0936 C   0  0  0  0  0  0  0  0  0  0  0  0
   23.7063  -17.4957  -19.8638 N   0  0  0  0  0  0  0  0  0  0  0  0
   24.3085  -20.2511  -15.7903 C   0  0  0  0  0  0  0  0  0  0  0  0
   24.0603  -21.4745  -15.9446 O   0  0  0  0  0  0  0  0  0  0  0  0
   26.9830  -21.0281  -11.0233 C   0  0  0  0  0  0  0  0  0  0  0  0
   25.5302  -21.2296   -9.9564 S   0  0  0  0  0  0  0  0  0  0  0  0
   23.9967  -20.9135  -10.8817 C   0  0  0  0  0  0  0  0  0  0  0  0
   24.2566  -19.9680  -12.0311 C   0  0  0  0  0  0  0  0  0  0  0  0
   23.7799  -20.5416  -13.3458 C   0  0  2  0  0  0  0  0  0  0  0  0
   24.1689  -19.7291  -14.4702 N   0  0  0  0  0  0  0  0  0  0  0  0
   22.2992  -20.6455  -13.3642 C   0  0  0  0  0  0  0  0  0  0  0  0
   21.6350  -19.6489  -13.6953 O   0  0  0  0  0  0  0  0  0  0  0  0
   21.6154  -21.8410  -13.0174 N   0  0  0  0  0  0  0  0  0  0  0  0
   20.1869  -21.9125  -13.2142 C   0  0  0  0  0  0  0  0  0  0  0  0
   19.5295  -21.3943  -11.9912 C   0  0  0  0  0  0  0  0  0  0  0  0
   20.2372  -21.2467  -10.9595 O   0  0  0  0  0  0  0  0  0  0  0  0
   18.1888  -21.0631  -11.9115 O   0  0  0  0  0  0  0  0  0  0  0  0
  2  1  1  6
  2  3  1  0
  2  9  1  0
  4  5  2  0
  4  3  1  0
  6  5  1  0
  7  8  2  0
  7  6  1  0
  8  4  1  0
  9 16  1  0
 10  9  2  0
 12 11  1  0
 13 12  1  0
 14 13  1  0
 15 14  1  1
 15 17  1  0
 16 15  1  0
 17 19  1  0
 18 17  2  0
 19 20  1  0
 20 21  1  0
 21 22  2  0
 21 23  1  0
M  END
$$$$
