HMG.pdb
     RDKit          3D

 23 23  0  0  1  0  0  0  0  0999 V2000
   14.1934  -10.3630  -10.8278 N   0  0  0  0  0  0  0  0  0  0  0  0
   15.5962  -10.1125  -10.9465 C   0  0  1  0  0  0  0  0  0  0  0  0
   16.0955  -10.8356  -12.1768 C   0  0  0  0  0  0  0  0  0  0  0  0
   15.9195  -12.2939  -11.9145 C   0  0  0  0  0  0  0  0  0  0  0  0
   15.4607  -12.8930  -10.7607 C   0  0  0  0  0  0  0  0  0  0  0  0
   15.4428  -14.2319  -10.9056 N   0  0  0  0  0  0  0  0  0  0  0  0
   15.8879  -14.4855  -12.1456 C   0  0  0  0  0  0  0  0  0  0  0  0
   16.1794  -13.3285  -12.7664 N   0  0  0  0  0  0  0  0  0  0  0  0
   15.9243   -8.6648  -10.9731 C   0  0  0  0  0  0  0  0  0  0  0  0
   15.2977   -7.8891  -11.7398 O   0  0  0  0  0  0  0  0  0  0  0  0
   13.1687   -4.3048   -7.5772 C   0  0  0  0  0  0  0  0  0  0  0  0
   14.9464   -4.6645   -7.5740 S   0  0  0  0  0  0  0  0  0  0  0  0
   15.4144   -5.6365   -9.0382 C   0  0  0  0  0  0  0  0  0  0  0  0
   16.9033   -5.8927   -9.0504 C   0  0  0  0  0  0  0  0  0  0  0  0
   17.3226   -6.6961  -10.2603 C   0  0  2  0  0  0  0  0  0  0  0  0
   16.9382   -8.0808  -10.1572 N   0  0  0  0  0  0  0  0  0  0  0  0
   18.7968   -6.6558  -10.4288 C   0  0  0  0  0  0  0  0  0  0  0  0
   19.5109   -7.1998   -9.5695 O   0  0  0  0  0  0  0  0  0  0  0  0
   19.4197   -6.0190  -11.5350 N   0  0  0  0  0  0  0  0  0  0  0  0
   20.8523   -6.1183  -11.6840 C   0  0  0  0  0  0  0  0  0  0  0  0
   21.2284   -5.4500  -12.9522 C   0  0  0  0  0  0  0  0  0  0  0  0
   20.3040   -4.9758  -13.6648 O   0  0  0  0  0  0  0  0  0  0  0  0
   22.5294   -5.3142  -13.4020 O   0  0  0  0  0  0  0  0  0  0  0  0
  2  1  1  6
  2  3  1  0
  2  9  1  0
  4  5  2  0
  4  3  1  0
  6  5  1  0
  7  8  2  0
  7  6  1  0
  8  4  1  0
  9 16  1  0
 10  9  2  0
 12 11  1  0
 13 12  1  0
 14 13  1  0
 15 14  1  1
 15 17  1  0
 16 15  1  0
 17 19  1  0
 18 17  2  0
 19 20  1  0
 20 21  1  0
 21 22  2  0
 21 23  1  0
M  END
$$$$
