WEI.pdb
     RDKit          3D

 32 33  0  0  1  0  0  0  0  0999 V2000
   25.6412  -18.9229  -10.8952 N   0  0  0  0  0  0  0  0  0  0  0  0
   26.5213  -20.0022  -11.2554 C   0  0  1  0  0  0  0  0  0  0  0  0
   26.2305  -21.2898  -10.5003 C   0  0  0  0  0  0  0  0  0  0  0  0
   26.3316  -20.9470   -9.0586 C   0  0  0  0  0  0  0  0  0  0  0  0
   25.2873  -20.7491   -8.1845 C   0  0  0  0  0  0  0  0  0  0  0  0
   25.8039  -20.4172   -6.9844 N   0  0  0  0  0  0  0  0  0  0  0  0
   27.1557  -20.3962   -7.0616 C   0  0  0  0  0  0  0  0  0  0  0  0
   28.1550  -20.1325   -6.1540 C   0  0  0  0  0  0  0  0  0  0  0  0
   29.4824  -20.1826   -6.4733 C   0  0  0  0  0  0  0  0  0  0  0  0
   29.8360  -20.5119   -7.7606 C   0  0  0  0  0  0  0  0  0  0  0  0
   28.8443  -20.7823   -8.6949 C   0  0  0  0  0  0  0  0  0  0  0  0
   27.5015  -20.7319   -8.3761 C   0  0  0  0  0  0  0  0  0  0  0  0
   26.2822  -20.3237  -12.7013 C   0  0  0  0  0  0  0  0  0  0  0  0
   25.1103  -20.4626  -13.1234 O   0  0  0  0  0  0  0  0  0  0  0  0
   27.3648  -20.4750  -13.6110 N   0  0  0  0  0  0  0  0  0  0  0  0
   27.1021  -20.4207  -15.0680 C   0  0  1  0  0  0  0  0  0  0  0  0
   28.4036  -20.0155  -15.7506 C   0  0  0  0  0  0  0  0  0  0  0  0
   28.2711  -19.9556  -17.2409 C   0  0  0  0  0  0  0  0  0  0  0  0
   29.4965  -19.5319  -17.9517 C   0  0  0  0  0  0  0  0  0  0  0  0
   30.5675  -20.2073  -17.7768 O   0  0  0  0  0  0  0  0  0  0  0  0
   26.5410  -21.6781  -15.5478 C   0  0  0  0  0  0  0  0  0  0  0  0
   26.9937  -22.7907  -15.1793 O   0  0  0  0  0  0  0  0  0  0  0  0
   29.5990  -18.4627  -18.7969 O   0  0  0  0  0  0  0  0  0  0  0  0
   21.4790  -24.7515  -16.6436 C   0  0  0  0  0  0  0  0  0  0  0  0
   22.8972  -24.5176  -17.0393 C   0  0  0  0  0  0  0  0  0  0  0  0
   23.5042  -23.2392  -16.5981 C   0  0  2  0  0  0  0  0  0  0  0  0
   22.6997  -22.1064  -17.2103 C   0  0  0  0  0  0  0  0  0  0  0  0
   24.9544  -23.0534  -16.9769 C   0  0  2  0  0  0  0  0  0  0  0  0
   25.4346  -21.7737  -16.4691 N   0  0  0  0  0  0  0  0  0  0  0  0
   25.2167  -23.2376  -18.3978 C   0  0  0  0  0  0  0  0  0  0  0  0
   25.1036  -24.4044  -18.8964 O   0  0  0  0  0  0  0  0  0  0  0  0
   25.5874  -22.2583  -19.3024 O   0  0  0  0  0  0  0  0  0  0  0  0
  2  1  1  1
  3  2  1  0
  3  4  1  0
  4  5  2  0
  5  6  1  0
  7  6  1  0
  8  7  2  0
  9  8  1  0
 10 11  1  0
 10  9  2  0
 11 12  2  0
 12  4  1  0
 12  7  1  0
 13 14  2  0
 13  2  1  0
 15 13  1  0
 16 15  1  0
 16 17  1  6
 18 17  1  0
 19 23  1  0
 19 18  1  0
 20 19  2  0
 21 29  1  0
 21 16  1  0
 22 21  2  0
 25 24  1  0
 26 25  1  0
 26 27  1  6
 28 26  1  0
 28 30  1  0
 28 29  1  6
 30 32  1  0
 31 30  2  0
M  END
$$$$
