WEI.pdb
     RDKit          3D

 32 33  0  0  1  0  0  0  0  0999 V2000
   27.4485  -22.7904  -12.2948 N   0  0  0  0  0  0  0  0  0  0  0  0
   26.5296  -21.7623  -11.8849 C   0  0  1  0  0  0  0  0  0  0  0  0
   27.1758  -20.3899  -11.7764 C   0  0  0  0  0  0  0  0  0  0  0  0
   28.1176  -20.4736  -10.6309 C   0  0  0  0  0  0  0  0  0  0  0  0
   29.4480  -20.8215  -10.6832 C   0  0  0  0  0  0  0  0  0  0  0  0
   29.9313  -20.8156   -9.4247 N   0  0  0  0  0  0  0  0  0  0  0  0
   28.9462  -20.4721   -8.5612 C   0  0  0  0  0  0  0  0  0  0  0  0
   28.8930  -20.3109   -7.1962 C   0  0  0  0  0  0  0  0  0  0  0  0
   27.7561  -19.9427   -6.5342 C   0  0  0  0  0  0  0  0  0  0  0  0
   26.6126  -19.7228   -7.2655 C   0  0  0  0  0  0  0  0  0  0  0  0
   26.6419  -19.8795   -8.6454 C   0  0  0  0  0  0  0  0  0  0  0  0
   27.7890  -20.2524   -9.3180 C   0  0  0  0  0  0  0  0  0  0  0  0
   25.4857  -21.6295  -12.9544 C   0  0  0  0  0  0  0  0  0  0  0  0
   25.8312  -21.4072  -14.1384 O   0  0  0  0  0  0  0  0  0  0  0  0
   24.1015  -21.7521  -12.6518 N   0  0  0  0  0  0  0  0  0  0  0  0
   23.1146  -21.7605  -13.7567 C   0  0  1  0  0  0  0  0  0  0  0  0
   22.4265  -23.1208  -13.7423 C   0  0  0  0  0  0  0  0  0  0  0  0
   23.3732  -24.2416  -14.0417 C   0  0  0  0  0  0  0  0  0  0  0  0
   23.2193  -24.8351  -15.3872 C   0  0  0  0  0  0  0  0  0  0  0  0
   22.0830  -24.7481  -15.9660 O   0  0  0  0  0  0  0  0  0  0  0  0
   22.2025  -20.6274  -13.6548 C   0  0  0  0  0  0  0  0  0  0  0  0
   21.8379  -20.1662  -12.5444 O   0  0  0  0  0  0  0  0  0  0  0  0
   24.1962  -25.4841  -16.0892 O   0  0  0  0  0  0  0  0  0  0  0  0
   22.6334  -16.3630  -17.0013 C   0  0  0  0  0  0  0  0  0  0  0  0
   22.3326  -17.2249  -15.8226 C   0  0  0  0  0  0  0  0  0  0  0  0
   20.9735  -17.8139  -15.7641 C   0  0  2  0  0  0  0  0  0  0  0  0
   19.9791  -16.6758  -15.6197 C   0  0  0  0  0  0  0  0  0  0  0  0
   20.7465  -18.7920  -14.6359 C   0  0  2  0  0  0  0  0  0  0  0  0
   21.6406  -19.9338  -14.7885 N   0  0  0  0  0  0  0  0  0  0  0  0
   19.3523  -19.1783  -14.4674 C   0  0  0  0  0  0  0  0  0  0  0  0
   18.9057  -20.1696  -15.1311 O   0  0  0  0  0  0  0  0  0  0  0  0
   18.4222  -18.5730  -13.6406 O   0  0  0  0  0  0  0  0  0  0  0  0
  2  1  1  6
  3  2  1  0
  3  4  1  0
  4  5  2  0
  5  6  1  0
  7  6  1  0
  8  7  2  0
  9  8  1  0
 10 11  1  0
 10  9  2  0
 11 12  2  0
 12  4  1  0
 12  7  1  0
 13 14  2  0
 13  2  1  0
 15 13  1  0
 16 15  1  0
 16 17  1  1
 18 17  1  0
 19 23  1  0
 19 18  1  0
 20 19  2  0
 21 29  1  0
 21 16  1  0
 22 21  2  0
 25 24  1  0
 26 25  1  0
 26 27  1  1
 28 26  1  0
 28 30  1  0
 28 29  1  6
 30 32  1  0
 31 30  2  0
M  END
$$$$
