WEI.pdb
     RDKit          3D

 32 33  0  0  1  0  0  0  0  0999 V2000
   15.9767  -26.2271   -9.1332 N   0  0  0  0  0  0  0  0  0  0  0  0
   17.2810  -26.6302   -8.6795 C   0  0  1  0  0  0  0  0  0  0  0  0
   18.2022  -25.4565   -8.3856 C   0  0  0  0  0  0  0  0  0  0  0  0
   18.7334  -25.0175   -9.7014 C   0  0  0  0  0  0  0  0  0  0  0  0
   18.3543  -23.9009  -10.4109 C   0  0  0  0  0  0  0  0  0  0  0  0
   19.0446  -23.8871  -11.5687 N   0  0  0  0  0  0  0  0  0  0  0  0
   19.8604  -24.9666  -11.6244 C   0  0  0  0  0  0  0  0  0  0  0  0
   20.7640  -25.4275  -12.5534 C   0  0  0  0  0  0  0  0  0  0  0  0
   21.4939  -26.5691  -12.3787 C   0  0  0  0  0  0  0  0  0  0  0  0
   21.3177  -27.2903  -11.2214 C   0  0  0  0  0  0  0  0  0  0  0  0
   20.4105  -26.8447  -10.2686 C   0  0  0  0  0  0  0  0  0  0  0  0
   19.6703  -25.6918  -10.4419 C   0  0  0  0  0  0  0  0  0  0  0  0
   17.1095  -27.3418   -7.3698 C   0  0  0  0  0  0  0  0  0  0  0  0
   16.1904  -26.9989   -6.5898 O   0  0  0  0  0  0  0  0  0  0  0  0
   17.9734  -28.4061   -6.9912 N   0  0  0  0  0  0  0  0  0  0  0  0
   17.7673  -29.0804   -5.6882 C   0  0  1  0  0  0  0  0  0  0  0  0
   18.5290  -30.4002   -5.7330 C   0  0  0  0  0  0  0  0  0  0  0  0
   18.3314  -31.2147   -4.4922 C   0  0  0  0  0  0  0  0  0  0  0  0
   18.9809  -32.5428   -4.5173 C   0  0  0  0  0  0  0  0  0  0  0  0
   19.7131  -32.8449   -5.5205 O   0  0  0  0  0  0  0  0  0  0  0  0
   18.1435  -28.2096   -4.5808 C   0  0  0  0  0  0  0  0  0  0  0  0
   19.1193  -27.4218   -4.6575 O   0  0  0  0  0  0  0  0  0  0  0  0
   18.8717  -33.5025   -3.5502 O   0  0  0  0  0  0  0  0  0  0  0  0
   14.5334  -25.6956   -1.3293 C   0  0  0  0  0  0  0  0  0  0  0  0
   15.7630  -26.0661   -2.0865 C   0  0  0  0  0  0  0  0  0  0  0  0
   16.7597  -26.8929   -1.3650 C   0  0  2  0  0  0  0  0  0  0  0  0
   17.2920  -26.0721   -0.2039 C   0  0  0  0  0  0  0  0  0  0  0  0
   17.9311  -27.3571   -2.1977 C   0  0  2  0  0  0  0  0  0  0  0  0
   17.4510  -28.1605   -3.3159 N   0  0  0  0  0  0  0  0  0  0  0  0
   18.9725  -28.0204   -1.4249 C   0  0  0  0  0  0  0  0  0  0  0  0
   18.8453  -29.2601   -1.1609 O   0  0  0  0  0  0  0  0  0  0  0  0
   20.1259  -27.4409   -0.9262 O   0  0  0  0  0  0  0  0  0  0  0  0
  2  1  1  1
  3  2  1  0
  3  4  1  0
  4  5  2  0
  5  6  1  0
  7  6  1  0
  8  7  2  0
  9  8  1  0
 10 11  1  0
 10  9  2  0
 11 12  2  0
 12  4  1  0
 12  7  1  0
 13 14  2  0
 13  2  1  0
 15 13  1  0
 16 15  1  0
 16 17  1  6
 18 17  1  0
 19 23  1  0
 19 18  1  0
 20 19  2  0
 21 29  1  0
 21 16  1  0
 22 21  2  0
 25 24  1  0
 26 25  1  0
 26 27  1  1
 28 26  1  0
 28 30  1  0
 28 29  1  6
 30 32  1  0
 31 30  2  0
M  END
$$$$
