WEI.pdb
     RDKit          3D

 32 33  0  0  1  0  0  0  0  0999 V2000
   26.2379  -34.4808  -13.4790 N   0  0  0  0  0  0  0  0  0  0  0  0
   25.2083  -34.6949  -12.4973 C   0  0  1  0  0  0  0  0  0  0  0  0
   25.1033  -36.1432  -12.0454 C   0  0  0  0  0  0  0  0  0  0  0  0
   24.3764  -36.8548  -13.1277 C   0  0  0  0  0  0  0  0  0  0  0  0
   24.9326  -37.4734  -14.2240 C   0  0  0  0  0  0  0  0  0  0  0  0
   23.9303  -37.9619  -14.9817 N   0  0  0  0  0  0  0  0  0  0  0  0
   22.7407  -37.6746  -14.4017 C   0  0  0  0  0  0  0  0  0  0  0  0
   21.4326  -37.9359  -14.7373 C   0  0  0  0  0  0  0  0  0  0  0  0
   20.3742  -37.5400  -13.9696 C   0  0  0  0  0  0  0  0  0  0  0  0
   20.6277  -36.8490  -12.8082 C   0  0  0  0  0  0  0  0  0  0  0  0
   21.9407  -36.5732  -12.4485 C   0  0  0  0  0  0  0  0  0  0  0  0
   23.0132  -36.9711  -13.2223 C   0  0  0  0  0  0  0  0  0  0  0  0
   25.5800  -33.9184  -11.2685 C   0  0  0  0  0  0  0  0  0  0  0  0
   26.7875  -33.7625  -10.9712 O   0  0  0  0  0  0  0  0  0  0  0  0
   24.5842  -33.3502  -10.4271 N   0  0  0  0  0  0  0  0  0  0  0  0
   24.9926  -32.6674   -9.1773 C   0  0  1  0  0  0  0  0  0  0  0  0
   23.8365  -31.7703   -8.7499 C   0  0  0  0  0  0  0  0  0  0  0  0
   24.1005  -31.0827   -7.4461 C   0  0  0  0  0  0  0  0  0  0  0  0
   23.4735  -31.7268   -6.2721 C   0  0  0  0  0  0  0  0  0  0  0  0
   24.0350  -31.5944   -5.1314 O   0  0  0  0  0  0  0  0  0  0  0  0
   25.4089  -33.6305   -8.1646 C   0  0  0  0  0  0  0  0  0  0  0  0
   24.7702  -34.6920   -7.9555 O   0  0  0  0  0  0  0  0  0  0  0  0
   22.3256  -32.4685   -6.2875 O   0  0  0  0  0  0  0  0  0  0  0  0
   30.2330  -36.5556   -6.0540 C   0  0  0  0  0  0  0  0  0  0  0  0
   28.9006  -35.9770   -5.7188 C   0  0  0  0  0  0  0  0  0  0  0  0
   28.3447  -34.9962   -6.6814 C   0  0  2  0  0  0  0  0  0  0  0  0
   29.2969  -33.8154   -6.7447 C   0  0  0  0  0  0  0  0  0  0  0  0
   26.9656  -34.4796   -6.3462 C   0  0  2  0  0  0  0  0  0  0  0  0
   26.5688  -33.4707   -7.3213 N   0  0  0  0  0  0  0  0  0  0  0  0
   26.8290  -34.0261   -4.9688 C   0  0  0  0  0  0  0  0  0  0  0  0
   26.7272  -32.7768   -4.7414 O   0  0  0  0  0  0  0  0  0  0  0  0
   26.7951  -34.8220   -3.8373 O   0  0  0  0  0  0  0  0  0  0  0  0
  2  1  1  6
  3  2  1  0
  3  4  1  0
  4  5  2  0
  5  6  1  0
  7  6  1  0
  8  7  2  0
  9  8  1  0
 10 11  1  0
 10  9  2  0
 11 12  2  0
 12  4  1  0
 12  7  1  0
 13 14  2  0
 13  2  1  0
 15 13  1  0
 16 15  1  0
 16 17  1  1
 18 17  1  0
 19 23  1  0
 19 18  1  0
 20 19  2  0
 21 29  1  0
 21 16  1  0
 22 21  2  0
 25 24  1  0
 26 25  1  0
 26 27  1  1
 28 26  1  0
 28 30  1  0
 28 29  1  6
 30 32  1  0
 31 30  2  0
M  END
$$$$
