WEI.pdb
     RDKit          3D

 32 33  0  0  1  0  0  0  0  0999 V2000
   23.4382  -22.5636  -13.5707 N   0  0  0  0  0  0  0  0  0  0  0  0
   23.6615  -21.2826  -12.9555 C   0  0  1  0  0  0  0  0  0  0  0  0
   22.5354  -20.8607  -12.0245 C   0  0  0  0  0  0  0  0  0  0  0  0
   21.4121  -20.4504  -12.9055 C   0  0  0  0  0  0  0  0  0  0  0  0
   20.1710  -21.0395  -12.9849 C   0  0  0  0  0  0  0  0  0  0  0  0
   19.4613  -20.3933  -13.9315 N   0  0  0  0  0  0  0  0  0  0  0  0
   20.2131  -19.4013  -14.4651 C   0  0  0  0  0  0  0  0  0  0  0  0
   19.9859  -18.4552  -15.4373 C   0  0  0  0  0  0  0  0  0  0  0  0
   20.9205  -17.5306  -15.8088 C   0  0  0  0  0  0  0  0  0  0  0  0
   22.1443  -17.5459  -15.1821 C   0  0  0  0  0  0  0  0  0  0  0  0
   22.3972  -18.4922  -14.1971 C   0  0  0  0  0  0  0  0  0  0  0  0
   21.4552  -19.4289  -13.8195 C   0  0  0  0  0  0  0  0  0  0  0  0
   24.8777  -21.3997  -12.0847 C   0  0  0  0  0  0  0  0  0  0  0  0
   25.1229  -22.4799  -11.4985 O   0  0  0  0  0  0  0  0  0  0  0  0
   25.7660  -20.3031  -11.9089 N   0  0  0  0  0  0  0  0  0  0  0  0
   26.9797  -20.4777  -11.0774 C   0  0  1  0  0  0  0  0  0  0  0  0
   28.0482  -19.5408  -11.6292 C   0  0  0  0  0  0  0  0  0  0  0  0
   28.1122  -19.5672  -13.1249 C   0  0  0  0  0  0  0  0  0  0  0  0
   28.9317  -20.6621  -13.6871 C   0  0  0  0  0  0  0  0  0  0  0  0
   29.5200  -21.4599  -12.8802 O   0  0  0  0  0  0  0  0  0  0  0  0
   26.6812  -20.2786   -9.6641 C   0  0  0  0  0  0  0  0  0  0  0  0
   25.5943  -19.7797   -9.2788 O   0  0  0  0  0  0  0  0  0  0  0  0
   29.1272  -20.9101  -15.0170 O   0  0  0  0  0  0  0  0  0  0  0  0
   30.6828  -20.4258   -5.3329 C   0  0  0  0  0  0  0  0  0  0  0  0
   29.5810  -19.9594   -6.2223 C   0  0  0  0  0  0  0  0  0  0  0  0
   28.3870  -20.8337   -6.3097 C   0  0  2  0  0  0  0  0  0  0  0  0
   28.8365  -22.1832   -6.8407 C   0  0  0  0  0  0  0  0  0  0  0  0
   27.2779  -20.3177   -7.1956 C   0  0  2  0  0  0  0  0  0  0  0  0
   27.5777  -20.6273   -8.5886 N   0  0  0  0  0  0  0  0  0  0  0  0
   26.9614  -18.9125   -6.9793 C   0  0  0  0  0  0  0  0  0  0  0  0
   26.4022  -18.5706   -5.8869 O   0  0  0  0  0  0  0  0  0  0  0  0
   27.2061  -17.8674   -7.8526 O   0  0  0  0  0  0  0  0  0  0  0  0
  2  1  1  1
  3  2  1  0
  3  4  1  0
  4  5  2  0
  5  6  1  0
  7  6  1  0
  8  7  2  0
  9  8  1  0
 10 11  1  0
 10  9  2  0
 11 12  2  0
 12  4  1  0
 12  7  1  0
 13 14  2  0
 13  2  1  0
 15 13  1  0
 16 15  1  0
 16 17  1  6
 18 17  1  0
 19 23  1  0
 19 18  1  0
 20 19  2  0
 21 29  1  0
 21 16  1  0
 22 21  2  0
 25 24  1  0
 26 25  1  0
 26 27  1  6
 28 26  1  0
 28 30  1  0
 28 29  1  6
 30 32  1  0
 31 30  2  0
M  END
$$$$
