WEI.pdb
     RDKit          3D

 32 33  0  0  1  0  0  0  0  0999 V2000
   28.5078  -20.4639   -9.1570 N   0  0  0  0  0  0  0  0  0  0  0  0
   27.1459  -20.9253   -9.1139 C   0  0  1  0  0  0  0  0  0  0  0  0
   26.2248  -20.0013   -8.3326 C   0  0  0  0  0  0  0  0  0  0  0  0
   27.0765  -19.3555   -7.3012 C   0  0  0  0  0  0  0  0  0  0  0  0
   27.7020  -18.1335   -7.3977 C   0  0  0  0  0  0  0  0  0  0  0  0
   28.4076  -17.9347   -6.2663 N   0  0  0  0  0  0  0  0  0  0  0  0
   28.2530  -18.9977   -5.4416 C   0  0  0  0  0  0  0  0  0  0  0  0
   28.7332  -19.3068   -4.1903 C   0  0  0  0  0  0  0  0  0  0  0  0
   28.4241  -20.4682   -3.5407 C   0  0  0  0  0  0  0  0  0  0  0  0
   27.5947  -21.3693   -4.1658 C   0  0  0  0  0  0  0  0  0  0  0  0
   27.0974  -21.0792   -5.4299 C   0  0  0  0  0  0  0  0  0  0  0  0
   27.4083  -19.9066   -6.0900 C   0  0  0  0  0  0  0  0  0  0  0  0
   26.6179  -20.9226  -10.5183 C   0  0  0  0  0  0  0  0  0  0  0  0
   27.0536  -20.0890  -11.3464 O   0  0  0  0  0  0  0  0  0  0  0  0
   25.6262  -21.8534  -10.9340 N   0  0  0  0  0  0  0  0  0  0  0  0
   25.1531  -21.8320  -12.3378 C   0  0  1  0  0  0  0  0  0  0  0  0
   25.1836  -23.2674  -12.8504 C   0  0  0  0  0  0  0  0  0  0  0  0
   24.7064  -23.3775  -14.2655 C   0  0  0  0  0  0  0  0  0  0  0  0
   25.5225  -22.6354  -15.2502 C   0  0  0  0  0  0  0  0  0  0  0  0
   26.7882  -22.8137  -15.2517 O   0  0  0  0  0  0  0  0  0  0  0  0
   23.8499  -21.1865  -12.4431 C   0  0  0  0  0  0  0  0  0  0  0  0
   23.0129  -21.2237  -11.5068 O   0  0  0  0  0  0  0  0  0  0  0  0
   25.0447  -21.7555  -16.1807 O   0  0  0  0  0  0  0  0  0  0  0  0
   20.7981  -16.8344  -15.7515 C   0  0  0  0  0  0  0  0  0  0  0  0
   20.8131  -17.9670  -14.7822 C   0  0  0  0  0  0  0  0  0  0  0  0
   22.0587  -18.7685  -14.7213 C   0  0  2  0  0  0  0  0  0  0  0  0
   22.2667  -19.4090  -16.0820 C   0  0  0  0  0  0  0  0  0  0  0  0
   22.0701  -19.8573  -13.6746 C   0  0  2  0  0  0  0  0  0  0  0  0
   23.3984  -20.4544  -13.6016 N   0  0  0  0  0  0  0  0  0  0  0  0
   21.0107  -20.8426  -13.8430 C   0  0  0  0  0  0  0  0  0  0  0  0
   21.2562  -21.8996  -14.5103 O   0  0  0  0  0  0  0  0  0  0  0  0
   19.7222  -20.7625  -13.3447 O   0  0  0  0  0  0  0  0  0  0  0  0
  2  1  1  6
  3  2  1  0
  3  4  1  0
  4  5  2  0
  5  6  1  0
  7  6  1  0
  8  7  2  0
  9  8  1  0
 10 11  1  0
 10  9  2  0
 11 12  2  0
 12  4  1  0
 12  7  1  0
 13 14  2  0
 13  2  1  0
 15 13  1  0
 16 15  1  0
 16 17  1  1
 18 17  1  0
 19 23  1  0
 19 18  1  0
 20 19  2  0
 21 29  1  0
 21 16  1  0
 22 21  2  0
 25 24  1  0
 26 25  1  0
 26 27  1  6
 28 26  1  0
 28 30  1  0
 28 29  1  6
 30 32  1  0
 31 30  2  0
M  END
$$$$
