WEI.pdb
     RDKit          3D

 32 33  0  0  1  0  0  0  0  0999 V2000
   22.8544  -16.5270  -18.2741 N   0  0  0  0  0  0  0  0  0  0  0  0
   23.8482  -16.5597  -17.2345 C   0  0  1  0  0  0  0  0  0  0  0  0
   23.4375  -15.7899  -15.9889 C   0  0  0  0  0  0  0  0  0  0  0  0
   23.8595  -14.3850  -16.2218 C   0  0  0  0  0  0  0  0  0  0  0  0
   23.0500  -13.3311  -16.5793 C   0  0  0  0  0  0  0  0  0  0  0  0
   23.8270  -12.2398  -16.7304 N   0  0  0  0  0  0  0  0  0  0  0  0
   25.1179  -12.5627  -16.4790 C   0  0  0  0  0  0  0  0  0  0  0  0
   26.2935  -11.8485  -16.4813 C   0  0  0  0  0  0  0  0  0  0  0  0
   27.5035  -12.4062  -16.1792 C   0  0  0  0  0  0  0  0  0  0  0  0
   27.5486  -13.7423  -15.8578 C   0  0  0  0  0  0  0  0  0  0  0  0
   26.3744  -14.4843  -15.8489 C   0  0  0  0  0  0  0  0  0  0  0  0
   25.1495  -13.9242  -16.1545 C   0  0  0  0  0  0  0  0  0  0  0  0
   24.0000  -17.9852  -16.7919 C   0  0  0  0  0  0  0  0  0  0  0  0
   22.9848  -18.6563  -16.4925 O   0  0  0  0  0  0  0  0  0  0  0  0
   25.2809  -18.5969  -16.7048 N   0  0  0  0  0  0  0  0  0  0  0  0
   25.3831  -20.0093  -16.2692 C   0  0  1  0  0  0  0  0  0  0  0  0
   26.4509  -20.6750  -17.1297 C   0  0  0  0  0  0  0  0  0  0  0  0
   26.6917  -22.1001  -16.7382 C   0  0  0  0  0  0  0  0  0  0  0  0
   28.0926  -22.4132  -16.3836 C   0  0  0  0  0  0  0  0  0  0  0  0
   28.3262  -22.9764  -15.2602 O   0  0  0  0  0  0  0  0  0  0  0  0
   25.6282  -20.1000  -14.8346 C   0  0  0  0  0  0  0  0  0  0  0  0
   26.5560  -19.4615  -14.2778 O   0  0  0  0  0  0  0  0  0  0  0  0
   29.1886  -22.1523  -17.1575 O   0  0  0  0  0  0  0  0  0  0  0  0
   23.1012  -20.1479   -9.3555 C   0  0  0  0  0  0  0  0  0  0  0  0
   24.2293  -20.6158  -10.2105 C   0  0  0  0  0  0  0  0  0  0  0  0
   24.0080  -20.5782  -11.6758 C   0  0  2  0  0  0  0  0  0  0  0  0
   22.8224  -21.4729  -11.9903 C   0  0  0  0  0  0  0  0  0  0  0  0
   25.1813  -21.0289  -12.5133 C   0  0  2  0  0  0  0  0  0  0  0  0
   24.8496  -20.9088  -13.9281 N   0  0  0  0  0  0  0  0  0  0  0  0
   25.6836  -22.3485  -12.1555 C   0  0  0  0  0  0  0  0  0  0  0  0
   25.3499  -23.3472  -12.8725 O   0  0  0  0  0  0  0  0  0  0  0  0
   26.5112  -22.6556  -11.0898 O   0  0  0  0  0  0  0  0  0  0  0  0
  2  1  1  6
  3  2  1  0
  3  4  1  0
  4  5  2  0
  5  6  1  0
  7  6  1  0
  8  7  2  0
  9  8  1  0
 10 11  1  0
 10  9  2  0
 11 12  2  0
 12  4  1  0
 12  7  1  0
 13 14  2  0
 13  2  1  0
 15 13  1  0
 16 15  1  0
 16 17  1  6
 18 17  1  0
 19 23  1  0
 19 18  1  0
 20 19  2  0
 21 29  1  0
 21 16  1  0
 22 21  2  0
 25 24  1  0
 26 25  1  0
 26 27  1  1
 28 26  1  0
 28 30  1  0
 28 29  1  6
 30 32  1  0
 31 30  2  0
M  END
$$$$
