WEI.pdb
     RDKit          3D

 32 33  0  0  1  0  0  0  0  0999 V2000
   19.8296  -12.7943  -19.4820 N   0  0  0  0  0  0  0  0  0  0  0  0
   19.2115  -12.5364  -18.2089 C   0  0  1  0  0  0  0  0  0  0  0  0
   20.0245  -13.0538  -17.0325 C   0  0  0  0  0  0  0  0  0  0  0  0
   19.9811  -14.5354  -17.1288 C   0  0  0  0  0  0  0  0  0  0  0  0
   20.9296  -15.3509  -17.7025 C   0  0  0  0  0  0  0  0  0  0  0  0
   20.4927  -16.6234  -17.6186 N   0  0  0  0  0  0  0  0  0  0  0  0
   19.2859  -16.6501  -17.0046 C   0  0  0  0  0  0  0  0  0  0  0  0
   18.4155  -17.6591  -16.6639 C   0  0  0  0  0  0  0  0  0  0  0  0
   17.2288  -17.4342  -16.0255 C   0  0  0  0  0  0  0  0  0  0  0  0
   16.8887  -16.1401  -15.7088 C   0  0  0  0  0  0  0  0  0  0  0  0
   17.7516  -15.1042  -16.0430 C   0  0  0  0  0  0  0  0  0  0  0  0
   18.9517  -15.3276  -16.6890 C   0  0  0  0  0  0  0  0  0  0  0  0
   19.1454  -11.0487  -18.0260 C   0  0  0  0  0  0  0  0  0  0  0  0
   20.0513  -10.3220  -18.4970 O   0  0  0  0  0  0  0  0  0  0  0  0
   18.0683  -10.4399  -17.3248 N   0  0  0  0  0  0  0  0  0  0  0  0
   18.0065   -8.9628  -17.2290 C   0  0  1  0  0  0  0  0  0  0  0  0
   16.5359   -8.5743  -17.1266 C   0  0  0  0  0  0  0  0  0  0  0  0
   16.3443   -7.0939  -17.0090 C   0  0  0  0  0  0  0  0  0  0  0  0
   14.9369   -6.6647  -16.8627 C   0  0  0  0  0  0  0  0  0  0  0  0
   14.0335   -7.5624  -16.7542 O   0  0  0  0  0  0  0  0  0  0  0  0
   18.8328   -8.4726  -16.1322 C   0  0  0  0  0  0  0  0  0  0  0  0
   18.8858   -9.0641  -15.0250 O   0  0  0  0  0  0  0  0  0  0  0  0
   14.4966   -5.3711  -16.8324 O   0  0  0  0  0  0  0  0  0  0  0  0
   23.8806   -8.2043  -16.3766 C   0  0  0  0  0  0  0  0  0  0  0  0
   22.4544   -8.1680  -15.9439 C   0  0  0  0  0  0  0  0  0  0  0  0
   21.9351   -6.8565  -15.4881 C   0  0  2  0  0  0  0  0  0  0  0  0
   22.7667   -6.4154  -14.2969 C   0  0  0  0  0  0  0  0  0  0  0  0
   20.4800   -6.8484  -15.0834 C   0  0  2  0  0  0  0  0  0  0  0  0
   19.6565   -7.2899  -16.2028 N   0  0  0  0  0  0  0  0  0  0  0  0
   20.0374   -5.5827  -14.5144 C   0  0  0  0  0  0  0  0  0  0  0  0
   19.5974   -4.6788  -15.2968 O   0  0  0  0  0  0  0  0  0  0  0  0
   20.0385   -5.2345  -13.1752 O   0  0  0  0  0  0  0  0  0  0  0  0
  2  1  1  6
  3  2  1  0
  3  4  1  0
  4  5  2  0
  5  6  1  0
  7  6  1  0
  8  7  2  0
  9  8  1  0
 10 11  1  0
 10  9  2  0
 11 12  2  0
 12  4  1  0
 12  7  1  0
 13 14  2  0
 13  2  1  0
 15 13  1  0
 16 15  1  0
 16 17  1  1
 18 17  1  0
 19 23  1  0
 19 18  1  0
 20 19  2  0
 21 29  1  0
 21 16  1  0
 22 21  2  0
 25 24  1  0
 26 25  1  0
 26 27  1  1
 28 26  1  0
 28 30  1  0
 28 29  1  6
 30 32  1  0
 31 30  2  0
M  END
$$$$
