WEI.pdb
     RDKit          3D

 32 33  0  0  1  0  0  0  0  0999 V2000
   26.1334  -19.4222  -16.6275 N   0  0  0  0  0  0  0  0  0  0  0  0
   26.2104  -18.8207  -15.3230 C   0  0  1  0  0  0  0  0  0  0  0  0
   25.6558  -17.4052  -15.2824 C   0  0  0  0  0  0  0  0  0  0  0  0
   26.5481  -16.5942  -16.1498 C   0  0  0  0  0  0  0  0  0  0  0  0
   26.1769  -15.5462  -16.9608 C   0  0  0  0  0  0  0  0  0  0  0  0
   27.2756  -15.1096  -17.6087 N   0  0  0  0  0  0  0  0  0  0  0  0
   28.3470  -15.8493  -17.2358 C   0  0  0  0  0  0  0  0  0  0  0  0
   29.6798  -15.8289  -17.5751 C   0  0  0  0  0  0  0  0  0  0  0  0
   30.5954  -16.6944  -17.0469 C   0  0  0  0  0  0  0  0  0  0  0  0
   30.1653  -17.6285  -16.1341 C   0  0  0  0  0  0  0  0  0  0  0  0
   28.8238  -17.6686  -15.7760 C   0  0  0  0  0  0  0  0  0  0  0  0
   27.8953  -16.7959  -16.3084 C   0  0  0  0  0  0  0  0  0  0  0  0
   25.3378  -19.6188  -14.3995 C   0  0  0  0  0  0  0  0  0  0  0  0
   24.5195  -20.4422  -14.8717 O   0  0  0  0  0  0  0  0  0  0  0  0
   25.4201  -19.4607  -12.9886 N   0  0  0  0  0  0  0  0  0  0  0  0
   24.5730  -20.3035  -12.1127 C   0  0  1  0  0  0  0  0  0  0  0  0
   25.0851  -20.1364  -10.6866 C   0  0  0  0  0  0  0  0  0  0  0  0
   26.4408  -20.7420  -10.4930 C   0  0  0  0  0  0  0  0  0  0  0  0
   26.6977  -21.9496  -11.3066 C   0  0  0  0  0  0  0  0  0  0  0  0
   27.6975  -21.9472  -12.1031 O   0  0  0  0  0  0  0  0  0  0  0  0
   23.1605  -19.9838  -12.2828 C   0  0  0  0  0  0  0  0  0  0  0  0
   22.7095  -18.8317  -12.0641 O   0  0  0  0  0  0  0  0  0  0  0  0
   25.9526  -23.0954  -11.2909 O   0  0  0  0  0  0  0  0  0  0  0  0
   18.5712  -20.5438  -16.1044 C   0  0  0  0  0  0  0  0  0  0  0  0
   18.9836  -20.3699  -14.6824 C   0  0  0  0  0  0  0  0  0  0  0  0
   20.3706  -20.7682  -14.3429 C   0  0  2  0  0  0  0  0  0  0  0  0
   20.5241  -22.2431  -14.6693 C   0  0  0  0  0  0  0  0  0  0  0  0
   20.7641  -20.5553  -12.9004 C   0  0  2  0  0  0  0  0  0  0  0  0
   22.1602  -20.9312  -12.7116 N   0  0  0  0  0  0  0  0  0  0  0  0
   19.8674  -21.1961  -11.9480 C   0  0  0  0  0  0  0  0  0  0  0  0
   20.2606  -22.2485  -11.3475 O   0  0  0  0  0  0  0  0  0  0  0  0
   18.5925  -20.7806  -11.6064 O   0  0  0  0  0  0  0  0  0  0  0  0
  2  1  1  6
  3  2  1  0
  3  4  1  0
  4  5  2  0
  5  6  1  0
  7  6  1  0
  8  7  2  0
  9  8  1  0
 10 11  1  0
 10  9  2  0
 11 12  2  0
 12  4  1  0
 12  7  1  0
 13 14  2  0
 13  2  1  0
 15 13  1  0
 16 15  1  0
 16 17  1  1
 18 17  1  0
 19 23  1  0
 19 18  1  0
 20 19  2  0
 21 29  1  0
 21 16  1  0
 22 21  2  0
 25 24  1  0
 26 25  1  0
 26 27  1  1
 28 26  1  0
 28 30  1  0
 28 29  1  6
 30 32  1  0
 31 30  2  0
M  END
$$$$
