WEI.pdb
     RDKit          3D

 32 33  0  0  1  0  0  0  0  0999 V2000
   26.5485  -20.3365  -15.7515 N   0  0  0  0  0  0  0  0  0  0  0  0
   26.0128  -20.3519  -14.4165 C   0  0  1  0  0  0  0  0  0  0  0  0
   26.5016  -19.1931  -13.5616 C   0  0  0  0  0  0  0  0  0  0  0  0
   27.8930  -19.5353  -13.1704 C   0  0  0  0  0  0  0  0  0  0  0  0
   29.0401  -19.2481  -13.8744 C   0  0  0  0  0  0  0  0  0  0  0  0
   30.0858  -19.7649  -13.1986 N   0  0  0  0  0  0  0  0  0  0  0  0
   29.6426  -20.3783  -12.0754 C   0  0  0  0  0  0  0  0  0  0  0  0
   30.2674  -21.0479  -11.0492 C   0  0  0  0  0  0  0  0  0  0  0  0
   29.5908  -21.5884   -9.9926 C   0  0  0  0  0  0  0  0  0  0  0  0
   28.2226  -21.4569   -9.9527 C   0  0  0  0  0  0  0  0  0  0  0  0
   27.5694  -20.7849  -10.9779 C   0  0  0  0  0  0  0  0  0  0  0  0
   28.2499  -20.2379  -12.0480 C   0  0  0  0  0  0  0  0  0  0  0  0
   24.5264  -20.1746  -14.5185 C   0  0  0  0  0  0  0  0  0  0  0  0
   24.0425  -19.0244  -14.6345 O   0  0  0  0  0  0  0  0  0  0  0  0
   23.6475  -21.2922  -14.4869 N   0  0  0  0  0  0  0  0  0  0  0  0
   22.1840  -21.0644  -14.4529 C   0  0  1  0  0  0  0  0  0  0  0  0
   21.6276  -21.4747  -15.8116 C   0  0  0  0  0  0  0  0  0  0  0  0
   21.8856  -20.4450  -16.8677 C   0  0  0  0  0  0  0  0  0  0  0  0
   20.6702  -19.7996  -17.4087 C   0  0  0  0  0  0  0  0  0  0  0  0
   19.5649  -19.9633  -16.7880 O   0  0  0  0  0  0  0  0  0  0  0  0
   21.5714  -21.7528  -13.3227 C   0  0  0  0  0  0  0  0  0  0  0  0
   21.5299  -23.0065  -13.2521 O   0  0  0  0  0  0  0  0  0  0  0  0
   20.6112  -19.0275  -18.5350 O   0  0  0  0  0  0  0  0  0  0  0  0
   20.6887  -21.5699   -7.2734 C   0  0  0  0  0  0  0  0  0  0  0  0
   20.1650  -21.9725   -8.6099 C   0  0  0  0  0  0  0  0  0  0  0  0
   20.7837  -21.3175   -9.7870 C   0  0  2  0  0  0  0  0  0  0  0  0
   20.4991  -19.8290   -9.6942 C   0  0  0  0  0  0  0  0  0  0  0  0
   20.2957  -21.8139  -11.1273 C   0  0  2  0  0  0  0  0  0  0  0  0
   20.9676  -21.0838  -12.1958 N   0  0  0  0  0  0  0  0  0  0  0  0
   18.8452  -21.8115  -11.2600 C   0  0  0  0  0  0  0  0  0  0  0  0
   18.1617  -22.6077  -10.5376 O   0  0  0  0  0  0  0  0  0  0  0  0
   18.0953  -21.0168  -12.1090 O   0  0  0  0  0  0  0  0  0  0  0  0
  2  1  1  6
  3  2  1  0
  3  4  1  0
  4  5  2  0
  5  6  1  0
  7  6  1  0
  8  7  2  0
  9  8  1  0
 10 11  1  0
 10  9  2  0
 11 12  2  0
 12  4  1  0
 12  7  1  0
 13 14  2  0
 13  2  1  0
 15 13  1  0
 16 15  1  0
 16 17  1  6
 18 17  1  0
 19 23  1  0
 19 18  1  0
 20 19  2  0
 21 29  1  0
 21 16  1  0
 22 21  2  0
 25 24  1  0
 26 25  1  0
 26 27  1  1
 28 26  1  0
 28 30  1  0
 28 29  1  6
 30 32  1  0
 31 30  2  0
M  END
$$$$
