CIV.pdb
     RDKit          3D

 22 21  0  0  1  0  0  0  0  0999 V2000
   16.1733  -10.6967  -13.1795 N   0  0  0  0  0  0  0  0  0  0  0  0
   17.0342   -9.5810  -12.8610 C   0  0  1  0  0  0  0  0  0  0  0  0
   17.8191   -9.2213  -14.1022 C   0  0  0  0  0  0  0  0  0  0  0  0
   19.0364  -10.5576  -14.3607 S   0  0  0  0  0  0  0  0  0  0  0  0
   16.2353   -8.4525  -12.3539 C   0  0  0  0  0  0  0  0  0  0  0  0
   15.1059   -8.2356  -12.8572 O   0  0  0  0  0  0  0  0  0  0  0  0
   14.8488   -7.3387   -7.3298 C   0  0  0  0  0  0  0  0  0  0  0  0
   14.9351   -7.5224   -8.8306 C   0  0  0  0  0  0  0  0  0  0  0  0
   15.7417   -6.3940   -9.3856 C   0  0  2  0  0  0  0  0  0  0  0  0
   15.1104   -5.0840   -8.9698 C   0  0  0  0  0  0  0  0  0  0  0  0
   15.8712   -6.4447  -10.8913 C   0  0  2  0  0  0  0  0  0  0  0  0
   16.6590   -7.5819  -11.3224 N   0  0  0  0  0  0  0  0  0  0  0  0
   16.4365   -5.1679  -11.4272 C   0  0  0  0  0  0  0  0  0  0  0  0
   17.5585   -4.7509  -11.0350 O   0  0  0  0  0  0  0  0  0  0  0  0
   14.2535   -3.0290  -14.4135 C   0  0  0  0  0  0  0  0  0  0  0  0
   15.7560   -2.9367  -14.3205 C   0  0  2  0  0  0  0  0  0  0  0  0
   16.3278   -3.9761  -15.2610 C   0  0  0  0  0  0  0  0  0  0  0  0
   16.2628   -3.1540  -12.9192 C   0  0  2  0  0  0  0  0  0  0  0  0
   15.7413   -4.3877  -12.3843 N   0  0  0  0  0  0  0  0  0  0  0  0
   15.8836   -1.9793  -12.1018 C   0  0  0  0  0  0  0  0  0  0  0  0
   14.7998   -2.1237  -11.2464 O   0  0  0  0  0  0  0  0  0  0  0  0
   16.4946   -0.8837  -12.1552 O   0  0  0  0  0  0  0  0  0  0  0  0
  2  1  1  6
  2  5  1  0
  3  2  1  0
  4  3  1  0
  5 12  1  0
  5  6  2  0
  7  8  1  0
  8  9  1  0
  9 10  1  6
 11  9  1  0
 11 13  1  0
 11 12  1  1
 13 14  2  0
 16 15  1  1
 16 17  1  0
 16 18  1  0
 18 20  1  0
 18 19  1  1
 19 13  1  0
 20 21  1  0
 22 20  2  0
M  END
$$$$
