CIV.pdb
     RDKit          3D

 22 21  0  0  1  0  0  0  0  0999 V2000
   21.1720  -28.6930  -11.0815 N   0  0  0  0  0  0  0  0  0  0  0  0
   20.2931  -27.5677  -11.3021 C   0  0  1  0  0  0  0  0  0  0  0  0
   19.5665  -27.7857  -12.6100 C   0  0  0  0  0  0  0  0  0  0  0  0
   20.7678  -27.4455  -13.9424 S   0  0  0  0  0  0  0  0  0  0  0  0
   19.3702  -27.4144  -10.1647 C   0  0  0  0  0  0  0  0  0  0  0  0
   18.9026  -28.4447   -9.6210 O   0  0  0  0  0  0  0  0  0  0  0  0
   18.1891  -25.7703   -5.2075 C   0  0  0  0  0  0  0  0  0  0  0  0
   17.8282  -24.7872   -6.3015 C   0  0  0  0  0  0  0  0  0  0  0  0
   18.7257  -25.0476   -7.4671 C   0  0  2  0  0  0  0  0  0  0  0  0
   18.9981  -23.7430   -8.1822 C   0  0  0  0  0  0  0  0  0  0  0  0
   18.1543  -26.0548   -8.4395 C   0  0  2  0  0  0  0  0  0  0  0  0
   18.9676  -26.1664   -9.6335 N   0  0  0  0  0  0  0  0  0  0  0  0
   16.7371  -25.7257   -8.7860 C   0  0  0  0  0  0  0  0  0  0  0  0
   16.4739  -24.7682   -9.5609 O   0  0  0  0  0  0  0  0  0  0  0  0
   13.9404  -28.4127   -9.7883 C   0  0  0  0  0  0  0  0  0  0  0  0
   13.5004  -27.5042   -8.6677 C   0  0  2  0  0  0  0  0  0  0  0  0
   12.0246  -27.2309   -8.8659 C   0  0  0  0  0  0  0  0  0  0  0  0
   14.2776  -26.2149   -8.6299 C   0  0  2  0  0  0  0  0  0  0  0  0
   15.6493  -26.4683   -8.2631 N   0  0  0  0  0  0  0  0  0  0  0  0
   13.6022  -25.2940   -7.6877 C   0  0  0  0  0  0  0  0  0  0  0  0
   14.0067  -25.3340   -6.3604 O   0  0  0  0  0  0  0  0  0  0  0  0
   12.6979  -24.4977   -8.0407 O   0  0  0  0  0  0  0  0  0  0  0  0
  2  1  1  1
  2  5  1  0
  3  2  1  0
  4  3  1  0
  5 12  1  0
  5  6  2  0
  7  8  1  0
  8  9  1  0
  9 10  1  6
 11  9  1  0
 11 13  1  0
 11 12  1  6
 13 14  2  0
 16 15  1  6
 16 17  1  0
 16 18  1  0
 18 20  1  0
 18 19  1  1
 19 13  1  0
 20 21  1  0
 22 20  2  0
M  END
$$$$
