CIV.pdb
     RDKit          3D

 22 21  0  0  1  0  0  0  0  0999 V2000
   28.9409  -20.9373  -15.5718 N   0  0  0  0  0  0  0  0  0  0  0  0
   28.2097  -19.9283  -14.8406 C   0  0  1  0  0  0  0  0  0  0  0  0
   27.8355  -18.8253  -15.8046 C   0  0  0  0  0  0  0  0  0  0  0  0
   27.0860  -17.4894  -14.8106 S   0  0  0  0  0  0  0  0  0  0  0  0
   27.0336  -20.5276  -14.1876 C   0  0  0  0  0  0  0  0  0  0  0  0
   26.4495  -21.4847  -14.7520 O   0  0  0  0  0  0  0  0  0  0  0  0
   26.4032  -20.5337   -8.6869 C   0  0  0  0  0  0  0  0  0  0  0  0
   26.5018  -20.9659  -10.1349 C   0  0  0  0  0  0  0  0  0  0  0  0
   25.2945  -20.4533  -10.8502 C   0  0  2  0  0  0  0  0  0  0  0  0
   24.0601  -21.0998  -10.2622 C   0  0  0  0  0  0  0  0  0  0  0  0
   25.3413  -20.7011  -12.3412 C   0  0  2  0  0  0  0  0  0  0  0  0
   26.5078  -20.0926  -12.9482 N   0  0  0  0  0  0  0  0  0  0  0  0
   24.0860  -20.2320  -13.0054 C   0  0  0  0  0  0  0  0  0  0  0  0
   23.7373  -19.0238  -12.9331 O   0  0  0  0  0  0  0  0  0  0  0  0
   21.7809  -22.8903  -15.5349 C   0  0  0  0  0  0  0  0  0  0  0  0
   21.7970  -21.3864  -15.6474 C   0  0  2  0  0  0  0  0  0  0  0  0
   22.9116  -21.0207  -16.6043 C   0  0  0  0  0  0  0  0  0  0  0  0
   21.9971  -20.7094  -14.3173 C   0  0  2  0  0  0  0  0  0  0  0  0
   23.2510  -21.1166  -13.7323 N   0  0  0  0  0  0  0  0  0  0  0  0
   20.8394  -21.0337  -13.4533 C   0  0  0  0  0  0  0  0  0  0  0  0
   19.6468  -20.3729  -13.7147 O   0  0  0  0  0  0  0  0  0  0  0  0
   20.8988  -21.8661  -12.5152 O   0  0  0  0  0  0  0  0  0  0  0  0
  2  1  1  6
  2  5  1  0
  3  2  1  0
  4  3  1  0
  5 12  1  0
  5  6  2  0
  7  8  1  0
  8  9  1  0
  9 10  1  1
 11  9  1  0
 11 13  1  0
 11 12  1  6
 13 14  2  0
 16 15  1  1
 16 17  1  0
 16 18  1  0
 18 20  1  0
 18 19  1  1
 19 13  1  0
 20 21  1  0
 22 20  2  0
M  END
$$$$
