CIV.pdb
     RDKit          3D

 22 21  0  0  1  0  0  0  0  0999 V2000
   25.5653  -12.3770  -17.7735 N   0  0  0  0  0  0  0  0  0  0  0  0
   25.2070  -11.7139  -16.5409 C   0  0  1  0  0  0  0  0  0  0  0  0
   26.4131  -10.9451  -16.0507 C   0  0  0  0  0  0  0  0  0  0  0  0
   27.6429  -12.1828  -15.5122 S   0  0  0  0  0  0  0  0  0  0  0  0
   24.0356  -10.8469  -16.7533 C   0  0  0  0  0  0  0  0  0  0  0  0
   23.9403  -10.2110  -17.8315 O   0  0  0  0  0  0  0  0  0  0  0  0
   19.9751  -11.1818  -17.8778 C   0  0  0  0  0  0  0  0  0  0  0  0
   20.2232  -11.6384  -16.4553 C   0  0  0  0  0  0  0  0  0  0  0  0
   20.5614  -10.4337  -15.6390 C   0  0  2  0  0  0  0  0  0  0  0  0
   19.4398   -9.4259  -15.7572 C   0  0  0  0  0  0  0  0  0  0  0  0
   21.8698   -9.7933  -16.0444 C   0  0  2  0  0  0  0  0  0  0  0  0
   22.9933  -10.6782  -15.8116 N   0  0  0  0  0  0  0  0  0  0  0  0
   22.0672   -8.4836  -15.3497 C   0  0  0  0  0  0  0  0  0  0  0  0
   22.0574   -8.4190  -14.0918 O   0  0  0  0  0  0  0  0  0  0  0  0
   22.4876   -4.7836  -17.6168 C   0  0  0  0  0  0  0  0  0  0  0  0
   23.2223   -5.0710  -16.3314 C   0  0  2  0  0  0  0  0  0  0  0  0
   24.5624   -5.6679  -16.7052 C   0  0  0  0  0  0  0  0  0  0  0  0
   22.4609   -6.0033  -15.4265 C   0  0  2  0  0  0  0  0  0  0  0  0
   22.2702   -7.2801  -16.0698 N   0  0  0  0  0  0  0  0  0  0  0  0
   21.1792   -5.3556  -15.0664 C   0  0  0  0  0  0  0  0  0  0  0  0
   21.2218   -4.3518  -14.1084 O   0  0  0  0  0  0  0  0  0  0  0  0
   20.0820   -5.6762  -15.5858 O   0  0  0  0  0  0  0  0  0  0  0  0
  2  1  1  6
  2  5  1  0
  3  2  1  0
  4  3  1  0
  5 12  1  0
  5  6  2  0
  7  8  1  0
  8  9  1  0
  9 10  1  6
 11  9  1  0
 11 13  1  0
 11 12  1  1
 13 14  2  0
 16 15  1  6
 16 17  1  0
 16 18  1  0
 18 20  1  0
 18 19  1  6
 19 13  1  0
 20 21  1  0
 22 20  2  0
M  END
$$$$
