FTR.pdb
     RDKit          3D

 30 30  0  0  1  0  0  0  0  0999 V2000
   26.4304  -13.0778  -18.7618 N   0  0  0  0  0  0  0  0  0  0  0  0
   26.9014  -13.8358  -17.6362 C   0  0  1  0  0  0  0  0  0  0  0  0
   26.9926  -12.9641  -16.4116 C   0  0  0  0  0  0  0  0  0  0  0  0
   27.9715  -11.8886  -16.6658 C   0  0  0  0  0  0  0  0  0  0  0  0
   29.3034  -12.1843  -16.8331 C   0  0  0  0  0  0  0  0  0  0  0  0
   30.2472  -11.1804  -17.0748 C   0  0  0  0  0  0  0  0  0  0  0  0
   29.7951   -9.8716  -17.1407 C   0  0  0  0  0  0  0  0  0  0  0  0
   28.4748   -9.5510  -16.9776 C   0  0  0  0  0  0  0  0  0  0  0  0
   27.5788  -10.5717  -16.7412 C   0  0  0  0  0  0  0  0  0  0  0  0
   26.0580  -15.0337  -17.4117 C   0  0  0  0  0  0  0  0  0  0  0  0
   24.8638  -14.9712  -17.8259 O   0  0  0  0  0  0  0  0  0  0  0  0
   24.7860  -16.6211  -18.9731 C   0  0  0  0  0  0  0  0  0  0  0  0
   25.4934  -17.7234  -18.2352 C   0  0  1  0  0  0  0  0  0  0  0  0
   26.7268  -18.0036  -18.7989 O   0  0  0  0  0  0  0  0  0  0  0  0
   25.7222  -17.3683  -16.7759 C   0  0  2  0  0  0  0  0  0  0  0  0
   26.5470  -16.1999  -16.7673 N   0  0  0  0  0  0  0  0  0  0  0  0
   26.3611  -18.5189  -16.0793 C   0  0  0  0  0  0  0  0  0  0  0  0
   27.4708  -18.3632  -15.4659 O   0  0  0  0  0  0  0  0  0  0  0  0
   24.8353  -19.2582   -8.7184 N   0  0  0  0  0  0  0  0  0  0  0  0
   25.2890  -20.6181   -8.8334 C   0  0  0  0  0  0  0  0  0  0  0  0
   25.2956  -21.3836   -7.7754 N   0  0  0  0  0  0  0  0  0  0  0  0
   25.7268  -21.1373  -10.0717 N   0  0  0  0  0  0  0  0  0  0  0  0
   25.4249  -20.3907  -11.2718 C   0  0  0  0  0  0  0  0  0  0  0  0
   25.9643  -21.0614  -12.5113 C   0  0  0  0  0  0  0  0  0  0  0  0
   25.7294  -20.2203  -13.7141 C   0  0  0  0  0  0  0  0  0  0  0  0
   26.2187  -20.8087  -15.0156 C   0  0  2  0  0  0  0  0  0  0  0  0
   25.8346  -19.8284  -16.0271 N   0  0  0  0  0  0  0  0  0  0  0  0
   25.5997  -22.1115  -15.2416 C   0  0  0  0  0  0  0  0  0  0  0  0
   24.4453  -22.3224  -15.6553 O   0  0  0  0  0  0  0  0  0  0  0  0
   26.3691  -23.2470  -14.9705 O   0  0  0  0  0  0  0  0  0  0  0  0
  2  1  1  6
  2 10  1  0
  3  2  1  0
  4  5  2  0
  4  3  1  0
  6  5  1  0
  7  6  2  0
  8  7  1  0
  8  9  2  0
  9  4  1  0
 10 16  1  0
 10 11  2  0
 13 12  1  6
 14 13  1  0
 15 13  1  0
 15 16  1  6
 17 18  2  0
 17 15  1  0
 20 22  1  0
 20 19  1  0
 21 20  2  0
 23 22  1  0
 24 23  1  0
 24 25  1  0
 26 25  1  1
 26 27  1  0
 27 17  1  0
 28 26  1  0
 29 28  2  0
 30 28  1  0
M  END
$$$$
