FTR.pdb
     RDKit          3D

 30 30  0  0  1  0  0  0  0  0999 V2000
   27.9120  -24.5109  -16.3731 N   0  0  0  0  0  0  0  0  0  0  0  0
   27.0329  -23.5824  -17.0276 C   0  0  1  0  0  0  0  0  0  0  0  0
   26.2521  -24.2700  -18.1164 C   0  0  0  0  0  0  0  0  0  0  0  0
   27.0417  -24.2331  -19.3632 C   0  0  0  0  0  0  0  0  0  0  0  0
   27.2047  -23.0537  -20.0498 C   0  0  0  0  0  0  0  0  0  0  0  0
   27.9489  -22.9969  -21.2330 C   0  0  0  0  0  0  0  0  0  0  0  0
   28.5197  -24.1731  -21.6937 C   0  0  0  0  0  0  0  0  0  0  0  0
   28.3723  -25.3601  -21.0289 C   0  0  0  0  0  0  0  0  0  0  0  0
   27.6308  -25.3706  -19.8668 C   0  0  0  0  0  0  0  0  0  0  0  0
   26.1523  -22.9031  -16.0478 C   0  0  0  0  0  0  0  0  0  0  0  0
   26.0747  -23.4265  -14.8982 O   0  0  0  0  0  0  0  0  0  0  0  0
   26.5316  -19.8675  -14.3478 C   0  0  0  0  0  0  0  0  0  0  0  0
   25.2100  -19.7685  -15.0575 C   0  0  1  0  0  0  0  0  0  0  0  0
   25.3298  -19.1035  -16.2662 O   0  0  0  0  0  0  0  0  0  0  0  0
   24.6181  -21.1387  -15.3406 C   0  0  2  0  0  0  0  0  0  0  0  0
   25.4260  -21.7257  -16.3645 N   0  0  0  0  0  0  0  0  0  0  0  0
   23.1961  -20.9890  -15.7558 C   0  0  0  0  0  0  0  0  0  0  0  0
   22.8918  -20.9227  -16.9947 O   0  0  0  0  0  0  0  0  0  0  0  0
   19.6799  -25.1371  -11.2851 N   0  0  0  0  0  0  0  0  0  0  0  0
   18.5677  -24.2418  -11.1120 C   0  0  0  0  0  0  0  0  0  0  0  0
   17.4801  -24.6746  -10.5329 N   0  0  0  0  0  0  0  0  0  0  0  0
   18.6341  -22.9036  -11.5583 N   0  0  0  0  0  0  0  0  0  0  0  0
   19.8620  -22.4456  -12.1675 C   0  0  0  0  0  0  0  0  0  0  0  0
   19.7379  -22.3052  -13.6648 C   0  0  0  0  0  0  0  0  0  0  0  0
   19.8874  -20.8853  -14.0785 C   0  0  0  0  0  0  0  0  0  0  0  0
   20.7282  -20.6602  -15.3120 C   0  0  2  0  0  0  0  0  0  0  0  0
   22.0976  -20.9102  -14.8715 N   0  0  0  0  0  0  0  0  0  0  0  0
   20.5431  -19.2982  -15.8040 C   0  0  0  0  0  0  0  0  0  0  0  0
   21.3182  -18.3386  -15.6400 O   0  0  0  0  0  0  0  0  0  0  0  0
   19.3825  -19.0286  -16.5353 O   0  0  0  0  0  0  0  0  0  0  0  0
  2  1  1  1
  2 10  1  0
  3  2  1  0
  4  5  2  0
  4  3  1  0
  6  5  1  0
  7  6  2  0
  8  7  1  0
  8  9  2  0
  9  4  1  0
 10 16  1  0
 10 11  2  0
 13 12  1  6
 14 13  1  0
 15 13  1  0
 15 16  1  6
 17 18  2  0
 17 15  1  0
 20 22  1  0
 20 19  1  0
 21 20  2  0
 23 22  1  0
 24 23  1  0
 24 25  1  0
 26 25  1  1
 26 27  1  0
 27 17  1  0
 28 26  1  0
 29 28  2  0
 30 28  1  0
M  END
$$$$
