FTR.pdb
     RDKit          3D

 30 30  0  0  1  0  0  0  0  0999 V2000
   28.7674  -21.0853   -9.1684 N   0  0  0  0  0  0  0  0  0  0  0  0
   27.4056  -20.6815   -8.9544 C   0  0  1  0  0  0  0  0  0  0  0  0
   27.3423  -19.5154   -8.0035 C   0  0  0  0  0  0  0  0  0  0  0  0
   27.8504  -19.9480   -6.6866 C   0  0  0  0  0  0  0  0  0  0  0  0
   27.0170  -20.5718   -5.7892 C   0  0  0  0  0  0  0  0  0  0  0  0
   27.4782  -20.9896   -4.5363 C   0  0  0  0  0  0  0  0  0  0  0  0
   28.8087  -20.7537   -4.2266 C   0  0  0  0  0  0  0  0  0  0  0  0
   29.6587  -20.1347   -5.1023 C   0  0  0  0  0  0  0  0  0  0  0  0
   29.1622  -19.7394   -6.3261 C   0  0  0  0  0  0  0  0  0  0  0  0
   26.7277  -20.3949  -10.2409 C   0  0  0  0  0  0  0  0  0  0  0  0
   27.4640  -20.0105  -11.1957 O   0  0  0  0  0  0  0  0  0  0  0  0
   26.8708  -21.0670  -12.7881 C   0  0  0  0  0  0  0  0  0  0  0  0
   25.3830  -21.2454  -12.6666 C   0  0  1  0  0  0  0  0  0  0  0  0
   25.0573  -22.5158  -12.2222 O   0  0  0  0  0  0  0  0  0  0  0  0
   24.7728  -20.2465  -11.6982 C   0  0  2  0  0  0  0  0  0  0  0  0
   25.3261  -20.5385  -10.4121 N   0  0  0  0  0  0  0  0  0  0  0  0
   23.2896  -20.3761  -11.7205 C   0  0  0  0  0  0  0  0  0  0  0  0
   22.6962  -21.1162  -10.8650 O   0  0  0  0  0  0  0  0  0  0  0  0
   21.2787  -15.5978  -17.2747 N   0  0  0  0  0  0  0  0  0  0  0  0
   21.2584  -17.0354  -17.3106 C   0  0  0  0  0  0  0  0  0  0  0  0
   21.8036  -17.6595  -18.3199 N   0  0  0  0  0  0  0  0  0  0  0  0
   20.6584  -17.7811  -16.2721 N   0  0  0  0  0  0  0  0  0  0  0  0
   20.1210  -17.0648  -15.1378 C   0  0  0  0  0  0  0  0  0  0  0  0
   20.5975  -17.6360  -13.8248 C   0  0  0  0  0  0  0  0  0  0  0  0
   20.5010  -19.1193  -13.8256 C   0  0  0  0  0  0  0  0  0  0  0  0
   20.9767  -19.7951  -12.5621 C   0  0  2  0  0  0  0  0  0  0  0  0
   22.4333  -19.7289  -12.6385 N   0  0  0  0  0  0  0  0  0  0  0  0
   20.4852  -21.1689  -12.5121 C   0  0  0  0  0  0  0  0  0  0  0  0
   20.8137  -22.1022  -13.2667 O   0  0  0  0  0  0  0  0  0  0  0  0
   19.5501  -21.4839  -11.5215 O   0  0  0  0  0  0  0  0  0  0  0  0
  2  1  1  6
  2 10  1  0
  3  2  1  0
  4  5  2  0
  4  3  1  0
  6  5  1  0
  7  6  2  0
  8  7  1  0
  8  9  2  0
  9  4  1  0
 10 16  1  0
 10 11  2  0
 13 12  1  1
 14 13  1  0
 15 13  1  0
 15 16  1  1
 17 18  2  0
 17 15  1  0
 20 22  1  0
 20 19  1  0
 21 20  2  0
 23 22  1  0
 24 23  1  0
 24 25  1  0
 26 25  1  6
 26 27  1  0
 27 17  1  0
 28 26  1  0
 29 28  2  0
 30 28  1  0
M  END
$$$$
