FTR.pdb
     RDKit          3D

 30 30  0  0  1  0  0  0  0  0999 V2000
   27.4186  -24.7774  -17.0909 N   0  0  0  0  0  0  0  0  0  0  0  0
   26.7936  -25.9803  -16.6156 C   0  0  1  0  0  0  0  0  0  0  0  0
   27.7760  -26.8157  -15.8379 C   0  0  0  0  0  0  0  0  0  0  0  0
   28.6689  -27.5073  -16.7887 C   0  0  0  0  0  0  0  0  0  0  0  0
   28.3597  -28.7664  -17.2448 C   0  0  0  0  0  0  0  0  0  0  0  0
   29.1920  -29.4392  -18.1458 C   0  0  0  0  0  0  0  0  0  0  0  0
   30.3441  -28.7931  -18.5663 C   0  0  0  0  0  0  0  0  0  0  0  0
   30.6745  -27.5398  -18.1272 C   0  0  0  0  0  0  0  0  0  0  0  0
   29.8258  -26.9134  -17.2397 C   0  0  0  0  0  0  0  0  0  0  0  0
   25.5741  -25.6717  -15.8318 C   0  0  0  0  0  0  0  0  0  0  0  0
   25.6390  -24.6777  -15.0514 O   0  0  0  0  0  0  0  0  0  0  0  0
   23.7836  -23.6071  -15.8997 C   0  0  0  0  0  0  0  0  0  0  0  0
   22.7732  -24.7141  -16.0175 C   0  0  1  0  0  0  0  0  0  0  0  0
   22.5573  -25.0679  -17.3387 O   0  0  0  0  0  0  0  0  0  0  0  0
   23.2143  -25.9616  -15.2711 C   0  0  2  0  0  0  0  0  0  0  0  0
   24.3857  -26.4402  -15.9378 N   0  0  0  0  0  0  0  0  0  0  0  0
   22.1099  -26.9603  -15.2774 C   0  0  0  0  0  0  0  0  0  0  0  0
   21.7555  -27.5198  -16.3697 O   0  0  0  0  0  0  0  0  0  0  0  0
   18.7409  -24.8587   -9.9810 N   0  0  0  0  0  0  0  0  0  0  0  0
   17.6590  -25.8051   -9.9342 C   0  0  0  0  0  0  0  0  0  0  0  0
   16.4575  -25.3912   -9.6333 N   0  0  0  0  0  0  0  0  0  0  0  0
   17.8762  -27.1734  -10.2084 N   0  0  0  0  0  0  0  0  0  0  0  0
   19.2094  -27.5946  -10.5741 C   0  0  0  0  0  0  0  0  0  0  0  0
   19.5235  -27.3011  -12.0205 C   0  0  0  0  0  0  0  0  0  0  0  0
   19.9009  -28.5435  -12.7439 C   0  0  0  0  0  0  0  0  0  0  0  0
   20.3010  -28.3510  -14.1870 C   0  0  2  0  0  0  0  0  0  0  0  0
   21.3814  -27.3701  -14.1389 N   0  0  0  0  0  0  0  0  0  0  0  0
   19.1590  -27.8815  -14.9661 C   0  0  0  0  0  0  0  0  0  0  0  0
   18.7799  -26.7029  -15.0900 O   0  0  0  0  0  0  0  0  0  0  0  0
   18.4049  -28.8413  -15.6479 O   0  0  0  0  0  0  0  0  0  0  0  0
  2  1  1  1
  2 10  1  0
  3  2  1  0
  4  5  2  0
  4  3  1  0
  6  5  1  0
  7  6  2  0
  8  7  1  0
  8  9  2  0
  9  4  1  0
 10 16  1  0
 10 11  2  0
 13 12  1  6
 14 13  1  0
 15 13  1  0
 15 16  1  6
 17 18  2  0
 17 15  1  0
 20 22  1  0
 20 19  1  0
 21 20  2  0
 23 22  1  0
 24 23  1  0
 24 25  1  0
 26 25  1  1
 26 27  1  0
 27 17  1  0
 28 26  1  0
 29 28  2  0
 30 28  1  0
M  END
$$$$
