FTR.pdb
     RDKit          3D

 30 30  0  0  1  0  0  0  0  0999 V2000
   27.5582  -18.0965  -17.2654 N   0  0  0  0  0  0  0  0  0  0  0  0
   27.0559  -17.7514  -15.9647 C   0  0  1  0  0  0  0  0  0  0  0  0
   25.7916  -16.9419  -16.0829 C   0  0  0  0  0  0  0  0  0  0  0  0
   26.1117  -15.6519  -16.7257 C   0  0  0  0  0  0  0  0  0  0  0  0
   25.5856  -15.3372  -17.9559 C   0  0  0  0  0  0  0  0  0  0  0  0
   25.8762  -14.1205  -18.5822 C   0  0  0  0  0  0  0  0  0  0  0  0
   26.7154  -13.2378  -17.9202 C   0  0  0  0  0  0  0  0  0  0  0  0
   27.2520  -13.5273  -16.6952 C   0  0  0  0  0  0  0  0  0  0  0  0
   26.9392  -14.7378  -16.1142 C   0  0  0  0  0  0  0  0  0  0  0  0
   26.8725  -18.9608  -15.1276 C   0  0  0  0  0  0  0  0  0  0  0  0
   26.6113  -20.0379  -15.7384 O   0  0  0  0  0  0  0  0  0  0  0  0
   29.0088  -21.0103  -13.3469 C   0  0  0  0  0  0  0  0  0  0  0  0
   27.9921  -20.5629  -12.3338 C   0  0  1  0  0  0  0  0  0  0  0  0
   28.4570  -19.4964  -11.5828 O   0  0  0  0  0  0  0  0  0  0  0  0
   26.6922  -20.1328  -12.9920 C   0  0  2  0  0  0  0  0  0  0  0  0
   26.9806  -18.9317  -13.7128 N   0  0  0  0  0  0  0  0  0  0  0  0
   25.6500  -19.9315  -11.9477 C   0  0  0  0  0  0  0  0  0  0  0  0
   24.9112  -18.8896  -11.9695 O   0  0  0  0  0  0  0  0  0  0  0  0
   18.6056  -22.5164   -9.5715 N   0  0  0  0  0  0  0  0  0  0  0  0
   18.4258  -21.1960  -10.1125 C   0  0  0  0  0  0  0  0  0  0  0  0
   17.3253  -20.5418   -9.8550 N   0  0  0  0  0  0  0  0  0  0  0  0
   19.4203  -20.5973  -10.9169 N   0  0  0  0  0  0  0  0  0  0  0  0
   20.6193  -21.3533  -11.1986 C   0  0  0  0  0  0  0  0  0  0  0  0
   21.7259  -21.0538  -10.2172 C   0  0  0  0  0  0  0  0  0  0  0  0
   23.0439  -21.0058  -10.9027 C   0  0  0  0  0  0  0  0  0  0  0  0
   24.2229  -20.7054  -10.0088 C   0  0  2  0  0  0  0  0  0  0  0  0
   25.3850  -20.8230  -10.8847 N   0  0  0  0  0  0  0  0  0  0  0  0
   24.2658  -21.6532   -8.8991 C   0  0  0  0  0  0  0  0  0  0  0  0
   24.9917  -22.6601   -8.8113 O   0  0  0  0  0  0  0  0  0  0  0  0
   23.4107  -21.4198   -7.8179 O   0  0  0  0  0  0  0  0  0  0  0  0
  2  1  1  6
  2 10  1  0
  3  2  1  0
  4  5  2  0
  4  3  1  0
  6  5  1  0
  7  6  2  0
  8  7  1  0
  8  9  2  0
  9  4  1  0
 10 16  1  0
 10 11  2  0
 13 12  1  6
 14 13  1  0
 15 13  1  0
 15 16  1  1
 17 18  2  0
 17 15  1  0
 20 22  1  0
 20 19  1  0
 21 20  2  0
 23 22  1  0
 24 23  1  0
 24 25  1  0
 26 25  1  6
 26 27  1  0
 27 17  1  0
 28 26  1  0
 29 28  2  0
 30 28  1  0
M  END
$$$$
