FTR.pdb
     RDKit          3D

 30 30  0  0  1  0  0  0  0  0999 V2000
   27.9411  -20.6474  -15.3195 N   0  0  0  0  0  0  0  0  0  0  0  0
   27.1363  -19.8272  -14.4575 C   0  0  1  0  0  0  0  0  0  0  0  0
   26.2344  -18.9336  -15.2675 C   0  0  0  0  0  0  0  0  0  0  0  0
   27.0194  -17.7822  -15.7548 C   0  0  0  0  0  0  0  0  0  0  0  0
   27.1808  -16.6664  -14.9686 C   0  0  0  0  0  0  0  0  0  0  0  0
   27.9207  -15.5647  -15.4111 C   0  0  0  0  0  0  0  0  0  0  0  0
   28.4889  -15.6338  -16.6737 C   0  0  0  0  0  0  0  0  0  0  0  0
   28.3431  -16.7329  -17.4758 C   0  0  0  0  0  0  0  0  0  0  0  0
   27.6058  -17.7961  -16.9999 C   0  0  0  0  0  0  0  0  0  0  0  0
   26.3822  -20.6558  -13.4873 C   0  0  0  0  0  0  0  0  0  0  0  0
   25.9954  -21.7907  -13.8921 O   0  0  0  0  0  0  0  0  0  0  0  0
   24.5981  -21.4920   -9.0149 C   0  0  0  0  0  0  0  0  0  0  0  0
   25.5216  -20.7478   -9.9387 C   0  0  1  0  0  0  0  0  0  0  0  0
   26.8379  -21.1435   -9.7701 O   0  0  0  0  0  0  0  0  0  0  0  0
   25.1566  -20.9665  -11.3971 C   0  0  2  0  0  0  0  0  0  0  0  0
   26.0990  -20.2160  -12.1680 N   0  0  0  0  0  0  0  0  0  0  0  0
   23.7537  -20.5248  -11.6293 C   0  0  0  0  0  0  0  0  0  0  0  0
   23.5135  -19.3438  -12.0528 O   0  0  0  0  0  0  0  0  0  0  0  0
   21.3998  -21.2960  -18.4424 N   0  0  0  0  0  0  0  0  0  0  0  0
   21.8997  -20.2372  -17.6072 C   0  0  0  0  0  0  0  0  0  0  0  0
   22.7389  -19.3695  -18.1053 N   0  0  0  0  0  0  0  0  0  0  0  0
   21.4970  -20.1221  -16.2585 N   0  0  0  0  0  0  0  0  0  0  0  0
   20.5365  -21.0735  -15.7476 C   0  0  0  0  0  0  0  0  0  0  0  0
   20.2593  -20.8708  -14.2782 C   0  0  0  0  0  0  0  0  0  0  0  0
   21.4758  -21.1388  -13.4672 C   0  0  0  0  0  0  0  0  0  0  0  0
   21.2951  -21.0061  -11.9741 C   0  0  2  0  0  0  0  0  0  0  0  0
   22.6074  -21.3224  -11.4178 N   0  0  0  0  0  0  0  0  0  0  0  0
   20.2593  -21.9244  -11.5103 C   0  0  0  0  0  0  0  0  0  0  0  0
   20.3908  -23.1428  -11.2944 O   0  0  0  0  0  0  0  0  0  0  0  0
   18.9851  -21.3968  -11.2808 O   0  0  0  0  0  0  0  0  0  0  0  0
  2  1  1  6
  2 10  1  0
  3  2  1  0
  4  5  2  0
  4  3  1  0
  6  5  1  0
  7  6  2  0
  8  7  1  0
  8  9  2  0
  9  4  1  0
 10 16  1  0
 10 11  2  0
 13 12  1  1
 14 13  1  0
 15 13  1  0
 15 16  1  6
 17 18  2  0
 17 15  1  0
 20 22  1  0
 20 19  1  0
 21 20  2  0
 23 22  1  0
 24 23  1  0
 24 25  1  0
 26 25  1  6
 26 27  1  0
 27 17  1  0
 28 26  1  0
 29 28  2  0
 30 28  1  0
M  END
$$$$
