FTR.pdb
     RDKit          3D

 30 30  0  0  1  0  0  0  0  0999 V2000
   26.2999  -21.3652   -7.1732 N   0  0  0  0  0  0  0  0  0  0  0  0
   26.7939  -20.2682   -7.9580 C   0  0  1  0  0  0  0  0  0  0  0  0
   28.2307  -19.9761   -7.6145 C   0  0  0  0  0  0  0  0  0  0  0  0
   28.3149  -19.6234   -6.1834 C   0  0  0  0  0  0  0  0  0  0  0  0
   28.6110  -20.5835   -5.2456 C   0  0  0  0  0  0  0  0  0  0  0  0
   28.6956  -20.2704   -3.8848 C   0  0  0  0  0  0  0  0  0  0  0  0
   28.4704  -18.9550   -3.5098 C   0  0  0  0  0  0  0  0  0  0  0  0
   28.1740  -17.9806   -4.4237 C   0  0  0  0  0  0  0  0  0  0  0  0
   28.1007  -18.3332   -5.7544 C   0  0  0  0  0  0  0  0  0  0  0  0
   26.6025  -20.5218   -9.4057 C   0  0  0  0  0  0  0  0  0  0  0  0
   27.4885  -21.2190   -9.9804 O   0  0  0  0  0  0  0  0  0  0  0  0
   26.7635  -22.3413  -11.1494 C   0  0  0  0  0  0  0  0  0  0  0  0
   25.5007  -21.7605  -11.7223 C   0  0  1  0  0  0  0  0  0  0  0  0
   24.3747  -22.3052  -11.1284 O   0  0  0  0  0  0  0  0  0  0  0  0
   25.4383  -20.2540  -11.5365 C   0  0  2  0  0  0  0  0  0  0  0  0
   25.4894  -20.0168  -10.1270 N   0  0  0  0  0  0  0  0  0  0  0  0
   24.1900  -19.7289  -12.1553 C   0  0  0  0  0  0  0  0  0  0  0  0
   23.0975  -19.7231  -11.4933 O   0  0  0  0  0  0  0  0  0  0  0  0
   25.0277  -24.0277  -16.5940 N   0  0  0  0  0  0  0  0  0  0  0  0
   23.6186  -23.9885  -16.8793 C   0  0  0  0  0  0  0  0  0  0  0  0
   22.9261  -25.0951  -16.8441 N   0  0  0  0  0  0  0  0  0  0  0  0
   22.9736  -22.7727  -17.1963 N   0  0  0  0  0  0  0  0  0  0  0  0
   23.6688  -21.5366  -16.9182 C   0  0  0  0  0  0  0  0  0  0  0  0
   23.4183  -21.0451  -15.5137 C   0  0  0  0  0  0  0  0  0  0  0  0
   23.0195  -19.6132  -15.5161 C   0  0  0  0  0  0  0  0  0  0  0  0
   22.8194  -18.9992  -14.1514 C   0  0  2  0  0  0  0  0  0  0  0  0
   24.0908  -19.2107  -13.4656 N   0  0  0  0  0  0  0  0  0  0  0  0
   21.7048  -19.6483  -13.4675 C   0  0  0  0  0  0  0  0  0  0  0  0
   21.6395  -20.8425  -13.1240 O   0  0  0  0  0  0  0  0  0  0  0  0
   20.5903  -18.8620  -13.1603 O   0  0  0  0  0  0  0  0  0  0  0  0
  2  1  1  1
  2 10  1  0
  3  2  1  0
  4  5  2  0
  4  3  1  0
  6  5  1  0
  7  6  2  0
  8  7  1  0
  8  9  2  0
  9  4  1  0
 10 16  1  0
 10 11  2  0
 13 12  1  1
 14 13  1  0
 15 13  1  0
 15 16  1  1
 17 18  2  0
 17 15  1  0
 20 22  1  0
 20 19  1  0
 21 20  2  0
 23 22  1  0
 24 23  1  0
 24 25  1  0
 26 25  1  6
 26 27  1  0
 27 17  1  0
 28 26  1  0
 29 28  2  0
 30 28  1  0
M  END
$$$$
