FTR.pdb
     RDKit          3D

 30 30  0  0  1  0  0  0  0  0999 V2000
   28.7876  -21.4069   -9.0768 N   0  0  0  0  0  0  0  0  0  0  0  0
   27.4829  -20.8062   -9.0902 C   0  0  1  0  0  0  0  0  0  0  0  0
   27.4947  -19.4979   -8.3445 C   0  0  0  0  0  0  0  0  0  0  0  0
   27.8921  -19.7519   -6.9456 C   0  0  0  0  0  0  0  0  0  0  0  0
   29.1974  -19.5810   -6.5503 C   0  0  0  0  0  0  0  0  0  0  0  0
   29.5949  -19.8162   -5.2298 C   0  0  0  0  0  0  0  0  0  0  0  0
   28.6265  -20.2290   -4.3279 C   0  0  0  0  0  0  0  0  0  0  0  0
   27.3206  -20.4065   -4.6962 C   0  0  0  0  0  0  0  0  0  0  0  0
   26.9726  -20.1634   -6.0078 C   0  0  0  0  0  0  0  0  0  0  0  0
   26.9800  -20.6583  -10.4766 C   0  0  0  0  0  0  0  0  0  0  0  0
   27.8440  -20.7034  -11.4002 O   0  0  0  0  0  0  0  0  0  0  0  0
   27.0376  -21.9290  -12.8213 C   0  0  0  0  0  0  0  0  0  0  0  0
   25.5574  -21.6660  -12.8132 C   0  0  1  0  0  0  0  0  0  0  0  0
   24.8671  -22.6623  -12.1436 O   0  0  0  0  0  0  0  0  0  0  0  0
   25.2236  -20.3432  -12.1448 C   0  0  2  0  0  0  0  0  0  0  0  0
   25.6041  -20.4748  -10.7724 N   0  0  0  0  0  0  0  0  0  0  0  0
   23.7710  -20.0582  -12.3060 C   0  0  0  0  0  0  0  0  0  0  0  0
   22.9216  -20.5766  -11.5051 O   0  0  0  0  0  0  0  0  0  0  0  0
   17.9990  -19.0857  -17.5577 N   0  0  0  0  0  0  0  0  0  0  0  0
   17.7913  -17.7127  -17.1831 C   0  0  0  0  0  0  0  0  0  0  0  0
   16.6026  -17.1867  -17.3082 N   0  0  0  0  0  0  0  0  0  0  0  0
   18.8522  -16.9262  -16.6827 N   0  0  0  0  0  0  0  0  0  0  0  0
   20.1626  -17.5276  -16.5846 C   0  0  0  0  0  0  0  0  0  0  0  0
   20.2516  -18.5188  -15.4502 C   0  0  0  0  0  0  0  0  0  0  0  0
   21.6453  -18.6214  -14.9437 C   0  0  0  0  0  0  0  0  0  0  0  0
   21.7764  -19.0741  -13.5094 C   0  0  2  0  0  0  0  0  0  0  0  0
   23.2136  -19.2303  -13.3054 N   0  0  0  0  0  0  0  0  0  0  0  0
   21.0481  -20.3235  -13.3088 C   0  0  0  0  0  0  0  0  0  0  0  0
   21.3383  -21.4358  -13.7850 O   0  0  0  0  0  0  0  0  0  0  0  0
   19.9066  -20.2825  -12.5026 O   0  0  0  0  0  0  0  0  0  0  0  0
  2  1  1  6
  2 10  1  0
  3  2  1  0
  4  5  2  0
  4  3  1  0
  6  5  1  0
  7  6  2  0
  8  7  1  0
  8  9  2  0
  9  4  1  0
 10 16  1  0
 10 11  2  0
 13 12  1  1
 14 13  1  0
 15 13  1  0
 15 16  1  1
 17 18  2  0
 17 15  1  0
 20 22  1  0
 20 19  1  0
 21 20  2  0
 23 22  1  0
 24 23  1  0
 24 25  1  0
 26 25  1  6
 26 27  1  0
 27 17  1  0
 28 26  1  0
 29 28  2  0
 30 28  1  0
M  END
$$$$
