QNC.pdb
     RDKit          3D

 24 23  0  0  1  0  0  0  0  0999 V2000
   26.3866  -20.3528   -8.7815 N   0  0  0  0  0  0  0  0  0  0  0  0
   25.3768  -21.2378   -9.2164 C   0  0  0  0  0  0  0  0  0  0  0  0
   24.4363  -21.5175   -8.4514 O   0  0  0  0  0  0  0  0  0  0  0  0
   25.4391  -21.8236  -10.5653 C   0  0  0  0  0  0  0  0  0  0  0  0
   26.1990  -20.9104  -11.4689 C   0  0  0  0  0  0  0  0  0  0  0  0
   25.3176  -20.3105  -12.5548 C   0  0  2  0  0  0  0  0  0  0  0  0
   24.4759  -21.3255  -13.1503 N   0  0  0  0  0  0  0  0  0  0  0  0
   26.2091  -19.7645  -13.5815 C   0  0  0  0  0  0  0  0  0  0  0  0
   27.1574  -19.0224  -13.2464 O   0  0  0  0  0  0  0  0  0  0  0  0
   29.1829  -19.9081  -18.4789 N   0  0  0  0  0  0  0  0  0  0  0  0
   27.8127  -19.5995  -18.2525 C   0  0  0  0  0  0  0  0  0  0  0  0
   27.2550  -18.7095  -18.9396 O   0  0  0  0  0  0  0  0  0  0  0  0
   27.0078  -20.3003  -17.2206 C   0  0  0  0  0  0  0  0  0  0  0  0
   26.8641  -19.4111  -15.9785 C   0  0  2  0  0  0  0  0  0  0  0  0
   26.0324  -20.0544  -14.9862 N   0  0  0  0  0  0  0  0  0  0  0  0
   26.2630  -18.1340  -16.4522 C   0  0  0  0  0  0  0  0  0  0  0  0
   25.0511  -18.0586  -16.7773 O   0  0  0  0  0  0  0  0  0  0  0  0
   27.0094  -16.9350  -16.5662 N   0  0  0  0  0  0  0  0  0  0  0  0
   26.5210  -15.6701  -16.9861 C   0  0  1  0  0  0  0  0  0  0  0  0
   27.0987  -14.4886  -16.2741 C   0  0  0  0  0  0  0  0  0  0  0  0
   26.8418  -14.5505  -14.4898 S   0  0  0  0  0  0  0  0  0  0  0  0
   26.6570  -15.4451  -18.4397 C   0  0  0  0  0  0  0  0  0  0  0  0
   26.1761  -14.2907  -19.0194 O   0  0  0  0  0  0  0  0  0  0  0  0
   27.2112  -16.3021  -19.1596 O   0  0  0  0  0  0  0  0  0  0  0  0
  2  1  1  0
  2  3  2  0
  4  2  1  0
  5  4  1  0
  6  5  1  0
  6  7  1  6
  8  6  1  0
  8  9  2  0
 10 11  1  0
 11 13  1  0
 11 12  2  0
 14 13  1  6
 14 15  1  0
 14 16  1  0
 15  8  1  0
 16 17  2  0
 16 18  1  0
 18 19  1  0
 19 22  1  0
 19 20  1  1
 21 20  1  0
 22 24  2  0
 22 23  1  0
M  END
$$$$
