QNC.pdb
     RDKit          3D

 24 23  0  0  1  0  0  0  0  0999 V2000
   16.6216  -13.5742  -17.2770 N   0  0  0  0  0  0  0  0  0  0  0  0
   17.8302  -14.2785  -17.4653 C   0  0  0  0  0  0  0  0  0  0  0  0
   17.8341  -15.5202  -17.3866 O   0  0  0  0  0  0  0  0  0  0  0  0
   19.0744  -13.5464  -17.7526 C   0  0  0  0  0  0  0  0  0  0  0  0
   18.8043  -12.0786  -17.7275 C   0  0  0  0  0  0  0  0  0  0  0  0
   19.7883  -11.3272  -16.8427 C   0  0  2  0  0  0  0  0  0  0  0  0
   19.8832  -11.9484  -15.5395 N   0  0  0  0  0  0  0  0  0  0  0  0
   19.2748   -9.9638  -16.6873 C   0  0  0  0  0  0  0  0  0  0  0  0
   19.3009   -9.1782  -17.6591 O   0  0  0  0  0  0  0  0  0  0  0  0
   15.9930   -8.7932  -16.7940 N   0  0  0  0  0  0  0  0  0  0  0  0
   15.8019   -8.4957  -15.4160 C   0  0  0  0  0  0  0  0  0  0  0  0
   14.6523   -8.5706  -14.9182 O   0  0  0  0  0  0  0  0  0  0  0  0
   16.9267   -8.0951  -14.5337 C   0  0  0  0  0  0  0  0  0  0  0  0
   18.2438   -8.1289  -15.3199 C   0  0  2  0  0  0  0  0  0  0  0  0
   18.7316   -9.4849  -15.4367 N   0  0  0  0  0  0  0  0  0  0  0  0
   19.1963   -7.2673  -14.5668 C   0  0  0  0  0  0  0  0  0  0  0  0
   19.6095   -7.5873  -13.4235 O   0  0  0  0  0  0  0  0  0  0  0  0
   19.6929   -6.0450  -15.0839 N   0  0  0  0  0  0  0  0  0  0  0  0
   20.6543   -5.1964  -14.4753 C   0  0  1  0  0  0  0  0  0  0  0  0
   22.0661   -5.6879  -14.5198 C   0  0  0  0  0  0  0  0  0  0  0  0
   23.2273   -4.5579  -13.7272 S   0  0  0  0  0  0  0  0  0  0  0  0
   20.6293   -3.8157  -14.9998 C   0  0  0  0  0  0  0  0  0  0  0  0
   20.6141   -2.7384  -14.1401 O   0  0  0  0  0  0  0  0  0  0  0  0
   20.6218   -3.6109  -16.2319 O   0  0  0  0  0  0  0  0  0  0  0  0
  2  1  1  0
  2  3  2  0
  4  2  1  0
  5  4  1  0
  6  5  1  0
  6  7  1  1
  8  6  1  0
  8  9  2  0
 10 11  1  0
 11 13  1  0
 11 12  2  0
 14 13  1  1
 14 15  1  0
 14 16  1  0
 15  8  1  0
 16 17  2  0
 16 18  1  0
 18 19  1  0
 19 22  1  0
 19 20  1  6
 21 20  1  0
 22 24  2  0
 22 23  1  0
M  END
$$$$
