QNC.pdb
     RDKit          3D

 24 23  0  0  1  0  0  0  0  0999 V2000
   24.2353  -25.2378  -16.1779 N   0  0  0  0  0  0  0  0  0  0  0  0
   24.7818  -26.1273  -17.1278 C   0  0  0  0  0  0  0  0  0  0  0  0
   24.0220  -26.8437  -17.8043 O   0  0  0  0  0  0  0  0  0  0  0  0
   26.2399  -26.2043  -17.3140 C   0  0  0  0  0  0  0  0  0  0  0  0
   26.9075  -25.2082  -16.4252 C   0  0  0  0  0  0  0  0  0  0  0  0
   27.1808  -23.8921  -17.1386 C   0  0  2  0  0  0  0  0  0  0  0  0
   28.4204  -23.9600  -17.8817 N   0  0  0  0  0  0  0  0  0  0  0  0
   27.2967  -22.8581  -16.1071 C   0  0  0  0  0  0  0  0  0  0  0  0
   28.2896  -22.0989  -16.1009 O   0  0  0  0  0  0  0  0  0  0  0  0
   28.2275  -18.9154  -14.5053 N   0  0  0  0  0  0  0  0  0  0  0  0
   27.4772  -19.6786  -15.4426 C   0  0  0  0  0  0  0  0  0  0  0  0
   27.9490  -19.8969  -16.5849 O   0  0  0  0  0  0  0  0  0  0  0  0
   26.1398  -20.2336  -15.1152 C   0  0  0  0  0  0  0  0  0  0  0  0
   26.2947  -21.4939  -14.2539 C   0  0  2  0  0  0  0  0  0  0  0  0
   26.2939  -22.6789  -15.0820 N   0  0  0  0  0  0  0  0  0  0  0  0
   25.1479  -21.4885  -13.3043 C   0  0  0  0  0  0  0  0  0  0  0  0
   24.0059  -21.8835  -13.6506 O   0  0  0  0  0  0  0  0  0  0  0  0
   25.2682  -21.0431  -11.9646 N   0  0  0  0  0  0  0  0  0  0  0  0
   24.2362  -20.9991  -10.9910 C   0  0  1  0  0  0  0  0  0  0  0  0
   24.6659  -20.5991   -9.6155 C   0  0  0  0  0  0  0  0  0  0  0  0
   26.0910  -21.5346   -9.0262 S   0  0  0  0  0  0  0  0  0  0  0  0
   23.0974  -20.1449  -11.3856 C   0  0  0  0  0  0  0  0  0  0  0  0
   21.8952  -20.2242  -10.7161 O   0  0  0  0  0  0  0  0  0  0  0  0
   23.2139  -19.3398  -12.3334 O   0  0  0  0  0  0  0  0  0  0  0  0
  2  1  1  0
  2  3  2  0
  4  2  1  0
  5  4  1  0
  6  5  1  0
  6  7  1  1
  8  6  1  0
  8  9  2  0
 10 11  1  0
 11 13  1  0
 11 12  2  0
 14 13  1  6
 14 15  1  0
 14 16  1  0
 15  8  1  0
 16 17  2  0
 16 18  1  0
 18 19  1  0
 19 22  1  0
 19 20  1  1
 21 20  1  0
 22 24  2  0
 22 23  1  0
M  END
$$$$
