QNC.pdb
     RDKit          3D

 24 23  0  0  1  0  0  0  0  0999 V2000
   15.4660  -13.1867  -12.0617 N   0  0  0  0  0  0  0  0  0  0  0  0
   14.6715  -13.5091  -10.9406 C   0  0  0  0  0  0  0  0  0  0  0  0
   14.4714  -14.7034  -10.6548 O   0  0  0  0  0  0  0  0  0  0  0  0
   14.0857  -12.4381  -10.1182 C   0  0  0  0  0  0  0  0  0  0  0  0
   14.5750  -11.1144  -10.6042 C   0  0  0  0  0  0  0  0  0  0  0  0
   14.1097   -9.9680   -9.7183 C   0  0  2  0  0  0  0  0  0  0  0  0
   12.6762   -9.7961   -9.8136 N   0  0  0  0  0  0  0  0  0  0  0  0
   14.7710   -8.7532  -10.2017 C   0  0  0  0  0  0  0  0  0  0  0  0
   14.3167   -8.1578  -11.2025 O   0  0  0  0  0  0  0  0  0  0  0  0
   14.4281   -5.4170   -9.4608 N   0  0  0  0  0  0  0  0  0  0  0  0
   15.6154   -5.2371   -8.6980 C   0  0  0  0  0  0  0  0  0  0  0  0
   15.6303   -4.4037   -7.7598 O   0  0  0  0  0  0  0  0  0  0  0  0
   16.8532   -6.0089   -8.9743 C   0  0  0  0  0  0  0  0  0  0  0  0
   16.5929   -7.0306  -10.0890 C   0  0  2  0  0  0  0  0  0  0  0  0
   15.9445   -8.2086   -9.5577 N   0  0  0  0  0  0  0  0  0  0  0  0
   17.9244   -7.3541  -10.6715 C   0  0  0  0  0  0  0  0  0  0  0  0
   18.8531   -7.8252   -9.9675 O   0  0  0  0  0  0  0  0  0  0  0  0
   18.2274   -7.1541  -12.0412 N   0  0  0  0  0  0  0  0  0  0  0  0
   19.4661   -7.4188  -12.6819 C   0  0  1  0  0  0  0  0  0  0  0  0
   19.4027   -8.3633  -13.8397 C   0  0  0  0  0  0  0  0  0  0  0  0
   18.3895   -9.8173  -13.5040 S   0  0  0  0  0  0  0  0  0  0  0  0
   20.1690   -6.1962  -13.1214 C   0  0  0  0  0  0  0  0  0  0  0  0
   21.5014   -6.2398  -13.4714 O   0  0  0  0  0  0  0  0  0  0  0  0
   19.5600   -5.1073  -13.1802 O   0  0  0  0  0  0  0  0  0  0  0  0
  2  1  1  0
  2  3  2  0
  4  2  1  0
  5  4  1  0
  6  5  1  0
  6  7  1  6
  8  6  1  0
  8  9  2  0
 10 11  1  0
 11 13  1  0
 11 12  2  0
 14 13  1  1
 14 15  1  0
 14 16  1  0
 15  8  1  0
 16 17  2  0
 16 18  1  0
 18 19  1  0
 19 22  1  0
 19 20  1  6
 21 20  1  0
 22 24  2  0
 22 23  1  0
M  END
$$$$
