QNC.pdb
     RDKit          3D

 24 23  0  0  1  0  0  0  0  0999 V2000
   16.4934  -12.6755  -13.9564 N   0  0  0  0  0  0  0  0  0  0  0  0
   15.4990  -12.9108  -14.9300 C   0  0  0  0  0  0  0  0  0  0  0  0
   14.5840  -13.7185  -14.6881 O   0  0  0  0  0  0  0  0  0  0  0  0
   15.5473  -12.2045  -16.2205 C   0  0  0  0  0  0  0  0  0  0  0  0
   16.6788  -11.2311  -16.2120 C   0  0  0  0  0  0  0  0  0  0  0  0
   16.7247  -10.3907  -17.4798 C   0  0  2  0  0  0  0  0  0  0  0  0
   17.0098  -11.2174  -18.6325 N   0  0  0  0  0  0  0  0  0  0  0  0
   17.8043   -9.4145  -17.3116 C   0  0  0  0  0  0  0  0  0  0  0  0
   18.9944   -9.7892  -17.3862 O   0  0  0  0  0  0  0  0  0  0  0  0
   18.8038   -6.5414  -19.6576 N   0  0  0  0  0  0  0  0  0  0  0  0
   18.3071   -5.5027  -18.8219 C   0  0  0  0  0  0  0  0  0  0  0  0
   17.9618   -4.4084  -19.3303 O   0  0  0  0  0  0  0  0  0  0  0  0
   18.1802   -5.6676  -17.3520 C   0  0  0  0  0  0  0  0  0  0  0  0
   18.6352   -7.0749  -16.9438 C   0  0  2  0  0  0  0  0  0  0  0  0
   17.5435   -8.0157  -17.0593 N   0  0  0  0  0  0  0  0  0  0  0  0
   19.1148   -6.9623  -15.5388 C   0  0  0  0  0  0  0  0  0  0  0  0
   18.3220   -6.7383  -14.5894 O   0  0  0  0  0  0  0  0  0  0  0  0
   20.4801   -7.0988  -15.1850 N   0  0  0  0  0  0  0  0  0  0  0  0
   21.0244   -7.0499  -13.8749 C   0  0  1  0  0  0  0  0  0  0  0  0
   21.8607   -8.2256  -13.4813 C   0  0  0  0  0  0  0  0  0  0  0  0
   21.9390   -8.4640  -11.6952 S   0  0  0  0  0  0  0  0  0  0  0  0
   21.8014   -5.8215  -13.6112 C   0  0  0  0  0  0  0  0  0  0  0  0
   22.0125   -5.3881  -12.3199 O   0  0  0  0  0  0  0  0  0  0  0  0
   22.2762   -5.1619  -14.5595 O   0  0  0  0  0  0  0  0  0  0  0  0
  2  1  1  0
  2  3  2  0
  4  2  1  0
  5  4  1  0
  6  5  1  0
  6  7  1  6
  8  6  1  0
  8  9  2  0
 10 11  1  0
 11 13  1  0
 11 12  2  0
 14 13  1  1
 14 15  1  0
 14 16  1  0
 15  8  1  0
 16 17  2  0
 16 18  1  0
 18 19  1  0
 19 22  1  0
 19 20  1  6
 21 20  1  0
 22 24  2  0
 22 23  1  0
M  END
$$$$
