QNC.pdb
     RDKit          3D

 24 23  0  0  1  0  0  0  0  0999 V2000
   13.8678  -12.5290  -15.3355 N   0  0  0  0  0  0  0  0  0  0  0  0
   15.0908  -12.8196  -15.9774 C   0  0  0  0  0  0  0  0  0  0  0  0
   15.6983  -13.8673  -15.6924 O   0  0  0  0  0  0  0  0  0  0  0  0
   15.6403  -11.8880  -16.9758 C   0  0  0  0  0  0  0  0  0  0  0  0
   16.5242  -10.8958  -16.2959 C   0  0  0  0  0  0  0  0  0  0  0  0
   17.1701   -9.9310  -17.2797 C   0  0  2  0  0  0  0  0  0  0  0  0
   17.5842  -10.6244  -18.4802 N   0  0  0  0  0  0  0  0  0  0  0  0
   18.3511   -9.3683  -16.6200 C   0  0  0  0  0  0  0  0  0  0  0  0
   18.2222   -8.7535  -15.5394 O   0  0  0  0  0  0  0  0  0  0  0  0
   23.1513   -8.2954  -15.1170 N   0  0  0  0  0  0  0  0  0  0  0  0
   23.2949   -9.0797  -16.2952 C   0  0  0  0  0  0  0  0  0  0  0  0
   24.4378   -9.4468  -16.6612 O   0  0  0  0  0  0  0  0  0  0  0  0
   22.1277   -9.4854  -17.1181 C   0  0  0  0  0  0  0  0  0  0  0  0
   20.8297   -9.0104  -16.4521 C   0  0  2  0  0  0  0  0  0  0  0  0
   19.6780   -9.4981  -17.1775 N   0  0  0  0  0  0  0  0  0  0  0  0
   20.8866   -7.5226  -16.4513 C   0  0  0  0  0  0  0  0  0  0  0  0
   20.8502   -6.8627  -17.5206 O   0  0  0  0  0  0  0  0  0  0  0  0
   20.9844   -6.7630  -15.2591 N   0  0  0  0  0  0  0  0  0  0  0  0
   21.0940   -5.3512  -15.1612 C   0  0  1  0  0  0  0  0  0  0  0  0
   19.7982   -4.6048  -15.1452 C   0  0  0  0  0  0  0  0  0  0  0  0
   20.0082   -2.8419  -14.8269 S   0  0  0  0  0  0  0  0  0  0  0  0
   21.8970   -4.9070  -14.0036 C   0  0  0  0  0  0  0  0  0  0  0  0
   22.5376   -3.6867  -14.0204 O   0  0  0  0  0  0  0  0  0  0  0  0
   22.0033   -5.6360  -12.9950 O   0  0  0  0  0  0  0  0  0  0  0  0
  2  1  1  0
  2  3  2  0
  4  2  1  0
  5  4  1  0
  6  5  1  0
  6  7  1  6
  8  6  1  0
  8  9  2  0
 10 11  1  0
 11 13  1  0
 11 12  2  0
 14 13  1  6
 14 15  1  0
 14 16  1  0
 15  8  1  0
 16 17  2  0
 16 18  1  0
 18 19  1  0
 19 22  1  0
 19 20  1  1
 21 20  1  0
 22 24  2  0
 22 23  1  0
M  END
$$$$
