QNC.pdb
     RDKit          3D

 24 23  0  0  1  0  0  0  0  0999 V2000
   28.2200  -28.0791  -16.4930 N   0  0  0  0  0  0  0  0  0  0  0  0
   27.2725  -27.9902  -17.5354 C   0  0  0  0  0  0  0  0  0  0  0  0
   27.1162  -28.9553  -18.3049 O   0  0  0  0  0  0  0  0  0  0  0  0
   26.4772  -26.7637  -17.7077 C   0  0  0  0  0  0  0  0  0  0  0  0
   26.8171  -25.7948  -16.6243 C   0  0  0  0  0  0  0  0  0  0  0  0
   27.6934  -24.6558  -17.1247 C   0  0  2  0  0  0  0  0  0  0  0  0
   29.0842  -25.0537  -17.1526 N   0  0  0  0  0  0  0  0  0  0  0  0
   27.5324  -23.5428  -16.1856 C   0  0  0  0  0  0  0  0  0  0  0  0
   28.0194  -23.6265  -15.0375 O   0  0  0  0  0  0  0  0  0  0  0  0
   27.5879  -18.2890  -14.6782 N   0  0  0  0  0  0  0  0  0  0  0  0
   26.4451  -18.7987  -15.3550 C   0  0  0  0  0  0  0  0  0  0  0  0
   25.3151  -18.3033  -15.1252 O   0  0  0  0  0  0  0  0  0  0  0  0
   26.5410  -19.9091  -16.3356 C   0  0  0  0  0  0  0  0  0  0  0  0
   26.7172  -21.2429  -15.5979 C   0  0  2  0  0  0  0  0  0  0  0  0
   26.8225  -22.3348  -16.5396 N   0  0  0  0  0  0  0  0  0  0  0  0
   25.5237  -21.3899  -14.7200 C   0  0  0  0  0  0  0  0  0  0  0  0
   24.4013  -21.7124  -15.1850 O   0  0  0  0  0  0  0  0  0  0  0  0
   25.5752  -21.1782  -13.3199 N   0  0  0  0  0  0  0  0  0  0  0  0
   24.4834  -21.2334  -12.4144 C   0  0  1  0  0  0  0  0  0  0  0  0
   24.8265  -20.9997  -10.9777 C   0  0  0  0  0  0  0  0  0  0  0  0
   26.1203  -22.1037  -10.3771 S   0  0  0  0  0  0  0  0  0  0  0  0
   23.3767  -20.3252  -12.7785 C   0  0  0  0  0  0  0  0  0  0  0  0
   22.1758  -20.3763  -12.1039 O   0  0  0  0  0  0  0  0  0  0  0  0
   23.5195  -19.4993  -13.7045 O   0  0  0  0  0  0  0  0  0  0  0  0
  2  1  1  0
  2  3  2  0
  4  2  1  0
  5  4  1  0
  6  5  1  0
  6  7  1  1
  8  6  1  0
  8  9  2  0
 10 11  1  0
 11 13  1  0
 11 12  2  0
 14 13  1  6
 14 15  1  0
 14 16  1  0
 15  8  1  0
 16 17  2  0
 16 18  1  0
 18 19  1  0
 19 22  1  0
 19 20  1  1
 21 20  1  0
 22 24  2  0
 22 23  1  0
M  END
$$$$
