CYY.pdb
     RDKit          3D

 31 32  0  0  1  0  0  0  0  0999 V2000
   22.6711  -13.4097  -24.1226 N   0  0  0  0  0  0  0  0  0  0  0  0
   22.5344  -14.1508  -22.8824 C   0  0  1  0  0  0  0  0  0  0  0  0
   21.7865  -13.2635  -21.9156 C   0  0  0  0  0  0  0  0  0  0  0  0
   22.7541  -11.8158  -21.4290 S   0  0  0  0  0  0  0  0  0  0  0  0
   21.8476  -15.4489  -23.0913 C   0  0  0  0  0  0  0  0  0  0  0  0
   20.8829  -15.4863  -23.8811 O   0  0  0  0  0  0  0  0  0  0  0  0
   19.9269  -24.0579  -23.6480 O   0  0  0  0  0  0  0  0  0  0  0  0
   20.5722  -22.8144  -23.4845 C   0  0  0  0  0  0  0  0  0  0  0  0
   21.1460  -22.4705  -22.2805 C   0  0  0  0  0  0  0  0  0  0  0  0
   21.7733  -21.2576  -22.1266 C   0  0  0  0  0  0  0  0  0  0  0  0
   21.8661  -20.3143  -23.1649 C   0  0  0  0  0  0  0  0  0  0  0  0
   22.5729  -19.0317  -22.9201 C   0  0  0  0  0  0  0  0  0  0  0  0
   21.6289  -17.9009  -22.5422 C   0  0  2  0  0  0  0  0  0  0  0  0
   22.2562  -16.6188  -22.4273 N   0  0  0  0  0  0  0  0  0  0  0  0
   20.7549  -18.2570  -21.4152 C   0  0  0  0  0  0  0  0  0  0  0  0
   21.1823  -18.0943  -20.2472 O   0  0  0  0  0  0  0  0  0  0  0  0
   21.2861  -20.6868  -24.3489 C   0  0  0  0  0  0  0  0  0  0  0  0
   20.6486  -21.9128  -24.5137 C   0  0  0  0  0  0  0  0  0  0  0  0
   13.6602  -20.3945  -16.5973 O   0  0  0  0  0  0  0  0  0  0  0  0
   14.5314  -20.1724  -17.6588 C   0  0  0  0  0  0  0  0  0  0  0  0
   14.6282  -18.9261  -18.2377 C   0  0  0  0  0  0  0  0  0  0  0  0
   15.4843  -18.6831  -19.2899 C   0  0  0  0  0  0  0  0  0  0  0  0
   16.2950  -19.6947  -19.8180 C   0  0  0  0  0  0  0  0  0  0  0  0
   17.1854  -19.3933  -20.9581 C   0  0  0  0  0  0  0  0  0  0  0  0
   18.5856  -19.1324  -20.4866 C   0  0  2  0  0  0  0  0  0  0  0  0
   19.4594  -18.7721  -21.5962 N   0  0  0  0  0  0  0  0  0  0  0  0
   19.1851  -20.2367  -19.7392 C   0  0  0  0  0  0  0  0  0  0  0  0
   19.7020  -21.3689  -20.3383 O   0  0  0  0  0  0  0  0  0  0  0  0
   16.1855  -20.9348  -19.2275 C   0  0  0  0  0  0  0  0  0  0  0  0
   15.3241  -21.1786  -18.1688 C   0  0  0  0  0  0  0  0  0  0  0  0
   19.2468  -20.1819  -18.4733 O   0  0  0  0  0  0  0  0  0  0  0  0
  2  3  1  0
  2  1  1  6
  4  3  1  0
  5  2  1  0
  6  5  2  0
  8  9  2  0
  8  7  1  0
 10  9  1  0
 11 10  2  0
 13 12  1  1
 12 11  1  0
 13 14  1  0
 14  5  1  0
 15 26  1  0
 15 13  1  0
 16 15  2  0
 17 11  1  0
 17 18  2  0
 18  8  1  0
 20 19  1  0
 21 20  2  0
 22 21  1  0
 23 29  1  0
 23 22  2  0
 24 23  1  0
 25 24  1  6
 25 26  1  0
 27 28  1  0
 27 25  1  0
 29 30  2  0
 30 20  1  0
 31 27  2  0
M  END
$$$$
