CYY.pdb
     RDKit          3D

 31 32  0  0  1  0  0  0  0  0999 V2000
   27.0427  -22.8707  -17.6453 N   0  0  0  0  0  0  0  0  0  0  0  0
   28.4412  -23.1395  -17.3667 C   0  0  1  0  0  0  0  0  0  0  0  0
   28.5985  -23.1589  -15.8647 C   0  0  0  0  0  0  0  0  0  0  0  0
   28.2641  -21.5446  -15.1222 S   0  0  0  0  0  0  0  0  0  0  0  0
   28.8911  -24.4084  -17.9895 C   0  0  0  0  0  0  0  0  0  0  0  0
   28.0638  -25.0677  -18.6506 O   0  0  0  0  0  0  0  0  0  0  0  0
   32.6162  -30.5478  -22.7871 O   0  0  0  0  0  0  0  0  0  0  0  0
   32.0917  -29.4285  -22.1078 C   0  0  0  0  0  0  0  0  0  0  0  0
   32.7649  -28.2268  -22.1035 C   0  0  0  0  0  0  0  0  0  0  0  0
   32.2494  -27.1395  -21.4398 C   0  0  0  0  0  0  0  0  0  0  0  0
   31.0308  -27.1854  -20.7402 C   0  0  0  0  0  0  0  0  0  0  0  0
   30.5372  -25.9614  -20.0600 C   0  0  0  0  0  0  0  0  0  0  0  0
   30.7769  -25.9838  -18.5584 C   0  0  2  0  0  0  0  0  0  0  0  0
   30.2101  -24.8750  -17.8514 N   0  0  0  0  0  0  0  0  0  0  0  0
   32.1784  -26.2716  -18.2215 C   0  0  0  0  0  0  0  0  0  0  0  0
   33.0087  -25.3318  -18.2462 O   0  0  0  0  0  0  0  0  0  0  0  0
   30.3863  -28.3941  -20.7641 C   0  0  0  0  0  0  0  0  0  0  0  0
   30.9009  -29.5005  -21.4333 C   0  0  0  0  0  0  0  0  0  0  0  0
   39.3993  -30.4282  -15.1466 O   0  0  0  0  0  0  0  0  0  0  0  0
   38.1198  -30.1212  -15.5979 C   0  0  0  0  0  0  0  0  0  0  0  0
   37.0104  -30.6421  -14.9689 C   0  0  0  0  0  0  0  0  0  0  0  0
   35.7337  -30.3517  -15.3985 C   0  0  0  0  0  0  0  0  0  0  0  0
   35.5075  -29.5125  -16.4959 C   0  0  0  0  0  0  0  0  0  0  0  0
   34.1219  -29.2424  -16.9324 C   0  0  0  0  0  0  0  0  0  0  0  0
   33.9883  -27.8386  -17.4446 C   0  0  2  0  0  0  0  0  0  0  0  0
   32.6233  -27.5588  -17.8726 N   0  0  0  0  0  0  0  0  0  0  0  0
   34.9119  -27.5018  -18.5268 C   0  0  0  0  0  0  0  0  0  0  0  0
   36.1035  -26.8318  -18.3292 O   0  0  0  0  0  0  0  0  0  0  0  0
   36.6279  -29.0004  -17.1133 C   0  0  0  0  0  0  0  0  0  0  0  0
   37.9122  -29.2930  -16.6805 C   0  0  0  0  0  0  0  0  0  0  0  0
   34.6311  -27.8274  -19.7203 O   0  0  0  0  0  0  0  0  0  0  0  0
  2  3  1  0
  2  1  1  1
  4  3  1  0
  5  2  1  0
  6  5  2  0
  8  9  2  0
  8  7  1  0
 10  9  1  0
 11 10  2  0
 13 12  1  6
 12 11  1  0
 13 14  1  0
 14  5  1  0
 15 26  1  0
 15 13  1  0
 16 15  2  0
 17 11  1  0
 17 18  2  0
 18  8  1  0
 20 19  1  0
 21 20  2  0
 22 21  1  0
 23 29  1  0
 23 22  2  0
 24 23  1  0
 25 24  1  6
 25 26  1  0
 27 28  1  0
 27 25  1  0
 29 30  2  0
 30 20  1  0
 31 27  2  0
M  END
$$$$
