CYY.pdb
     RDKit          3D

 31 32  0  0  1  0  0  0  0  0999 V2000
   28.6703  -20.4133  -19.0238 N   0  0  0  0  0  0  0  0  0  0  0  0
   28.0928  -19.3981  -18.1626 C   0  0  1  0  0  0  0  0  0  0  0  0
   27.1756  -18.5585  -19.0199 C   0  0  0  0  0  0  0  0  0  0  0  0
   26.3207  -17.2857  -18.0617 S   0  0  0  0  0  0  0  0  0  0  0  0
   27.3805  -19.9979  -17.0080 C   0  0  0  0  0  0  0  0  0  0  0  0
   26.6627  -20.9975  -17.2114 O   0  0  0  0  0  0  0  0  0  0  0  0
   24.4893  -21.5394   -8.7300 O   0  0  0  0  0  0  0  0  0  0  0  0
   25.2054  -21.0372   -9.8366 C   0  0  0  0  0  0  0  0  0  0  0  0
   26.2492  -21.7502  -10.3837 C   0  0  0  0  0  0  0  0  0  0  0  0
   26.9437  -21.2562  -11.4616 C   0  0  0  0  0  0  0  0  0  0  0  0
   26.6387  -20.0206  -12.0590 C   0  0  0  0  0  0  0  0  0  0  0  0
   27.4300  -19.5647  -13.2297 C   0  0  0  0  0  0  0  0  0  0  0  0
   26.7885  -19.9386  -14.5569 C   0  0  2  0  0  0  0  0  0  0  0  0
   27.4968  -19.4704  -15.7100 N   0  0  0  0  0  0  0  0  0  0  0  0
   25.3441  -19.6664  -14.5745 C   0  0  0  0  0  0  0  0  0  0  0  0
   24.9556  -18.4896  -14.7677 O   0  0  0  0  0  0  0  0  0  0  0  0
   25.5958  -19.3368  -11.4918 C   0  0  0  0  0  0  0  0  0  0  0  0
   24.8871  -19.8292  -10.4001 C   0  0  0  0  0  0  0  0  0  0  0  0
   16.8682  -18.9160  -15.5773 O   0  0  0  0  0  0  0  0  0  0  0  0
   18.2458  -19.1093  -15.5921 C   0  0  0  0  0  0  0  0  0  0  0  0
   18.7860  -20.2669  -16.1077 C   0  0  0  0  0  0  0  0  0  0  0  0
   20.1473  -20.4799  -16.1327 C   0  0  0  0  0  0  0  0  0  0  0  0
   21.0431  -19.5267  -15.6341 C   0  0  0  0  0  0  0  0  0  0  0  0
   22.4940  -19.8047  -15.6653 C   0  0  0  0  0  0  0  0  0  0  0  0
   22.9486  -20.4113  -14.3707 C   0  0  2  0  0  0  0  0  0  0  0  0
   24.3824  -20.6739  -14.3837 N   0  0  0  0  0  0  0  0  0  0  0  0
   22.2377  -21.6324  -13.9952 C   0  0  0  0  0  0  0  0  0  0  0  0
   21.0892  -21.6387  -13.2279 O   0  0  0  0  0  0  0  0  0  0  0  0
   20.4859  -18.3751  -15.1221 C   0  0  0  0  0  0  0  0  0  0  0  0
   19.1162  -18.1615  -15.0973 C   0  0  0  0  0  0  0  0  0  0  0  0
   22.6750  -22.7601  -14.3776 O   0  0  0  0  0  0  0  0  0  0  0  0
  2  3  1  0
  2  1  1  6
  4  3  1  0
  5  2  1  0
  6  5  2  0
  8  9  2  0
  8  7  1  0
 10  9  1  0
 11 10  2  0
 13 12  1  1
 12 11  1  0
 13 14  1  0
 14  5  1  0
 15 26  1  0
 15 13  1  0
 16 15  2  0
 17 11  1  0
 17 18  2  0
 18  8  1  0
 20 19  1  0
 21 20  2  0
 22 21  1  0
 23 29  1  0
 23 22  2  0
 24 23  1  0
 25 24  1  6
 25 26  1  0
 27 28  1  0
 27 25  1  0
 29 30  2  0
 30 20  1  0
 31 27  2  0
M  END
$$$$
