NVC.pdb
     RDKit          3D

 22 21  0  0  1  0  0  0  0  0999 V2000
   17.1867  -14.2412  -15.2574 N   0  0  0  0  0  0  0  0  0  0  0  0
   16.9904  -13.6907  -13.9700 C   0  0  0  0  0  0  0  0  0  0  0  0
   16.9881  -14.4788  -12.9739 O   0  0  0  0  0  0  0  0  0  0  0  0
   16.7977  -12.2353  -13.8080 C   0  0  0  0  0  0  0  0  0  0  0  0
   15.7799  -11.9819  -12.7509 C   0  0  2  0  0  0  0  0  0  0  0  0
   14.4803  -12.4292  -13.1744 N   0  0  0  0  0  0  0  0  0  0  0  0
   15.6579  -10.5355  -12.4212 C   0  0  0  0  0  0  0  0  0  0  0  0
   14.9417   -9.8746  -13.2242 O   0  0  0  0  0  0  0  0  0  0  0  0
   14.6395   -8.8008   -9.0275 C   0  0  0  0  0  0  0  0  0  0  0  0
   15.9352   -8.2505   -9.5486 C   0  0  2  0  0  0  0  0  0  0  0  0
   16.0512   -6.8358   -9.0770 C   0  0  0  0  0  0  0  0  0  0  0  0
   16.0962   -8.4731  -10.9927 C   0  0  2  0  0  0  0  0  0  0  0  0
   16.2577   -9.8967  -11.3295 N   0  0  0  0  0  0  0  0  0  0  0  0
   17.0048   -7.6423  -11.7608 C   0  0  0  0  0  0  0  0  0  0  0  0
   18.2605   -7.7269  -11.4995 O   0  0  0  0  0  0  0  0  0  0  0  0
   16.7214   -6.7252  -12.7877 N   0  0  0  0  0  0  0  0  0  0  0  0
   17.7385   -5.8572  -13.4065 C   0  0  1  0  0  0  0  0  0  0  0  0
   17.7230   -6.2224  -14.8698 C   0  0  0  0  0  0  0  0  0  0  0  0
   16.6630   -7.6287  -15.2539 S   0  0  0  0  0  0  0  0  0  0  0  0
   17.4697   -4.4400  -13.2129 C   0  0  0  0  0  0  0  0  0  0  0  0
   16.4035   -4.0600  -12.6897 O   0  0  0  0  0  0  0  0  0  0  0  0
   18.4287   -3.5016  -13.6263 O   0  0  0  0  0  0  0  0  0  0  0  0
  1  2  1  0
  2  3  2  0
  4  2  1  0
  5  4  1  0
  5  6  1  6
  7  8  2  0
  7  5  1  0
 10  9  1  6
 10 12  1  0
 11 10  1  0
 12 14  1  0
 12 13  1  1
 13  7  1  0
 14 16  1  0
 15 14  2  0
 16 17  1  0
 17 20  1  0
 18 19  1  0
 17 18  1  6
 20 21  2  0
 20 22  1  0
M  END
$$$$
