NVC.pdb
     RDKit          3D

 22 21  0  0  1  0  0  0  0  0999 V2000
   29.1349  -19.0288  -16.6587 N   0  0  0  0  0  0  0  0  0  0  0  0
   27.8461  -18.4487  -16.6211 C   0  0  0  0  0  0  0  0  0  0  0  0
   27.6700  -17.3379  -17.2113 O   0  0  0  0  0  0  0  0  0  0  0  0
   26.7460  -19.1330  -15.9117 C   0  0  0  0  0  0  0  0  0  0  0  0
   27.2808  -20.3211  -15.1906 C   0  0  2  0  0  0  0  0  0  0  0  0
   27.7160  -21.3297  -16.1188 N   0  0  0  0  0  0  0  0  0  0  0  0
   26.2612  -20.9508  -14.3078 C   0  0  0  0  0  0  0  0  0  0  0  0
   25.5593  -21.8378  -14.8693 O   0  0  0  0  0  0  0  0  0  0  0  0
   24.9946  -19.8766  -10.0364 C   0  0  0  0  0  0  0  0  0  0  0  0
   25.2931  -21.1896  -10.6998 C   0  0  2  0  0  0  0  0  0  0  0  0
   26.6963  -21.5690  -10.3470 C   0  0  0  0  0  0  0  0  0  0  0  0
   24.9589  -21.1812  -12.1312 C   0  0  2  0  0  0  0  0  0  0  0  0
   26.0452  -20.6356  -12.9610 N   0  0  0  0  0  0  0  0  0  0  0  0
   23.6635  -20.6998  -12.5737 C   0  0  0  0  0  0  0  0  0  0  0  0
   23.5316  -19.4380  -12.7808 O   0  0  0  0  0  0  0  0  0  0  0  0
   22.4832  -21.4206  -12.8252 N   0  0  0  0  0  0  0  0  0  0  0  0
   21.2173  -20.7898  -13.2380 C   0  0  1  0  0  0  0  0  0  0  0  0
   21.1577  -20.9796  -14.7331 C   0  0  0  0  0  0  0  0  0  0  0  0
   19.5714  -20.5247  -15.4581 S   0  0  0  0  0  0  0  0  0  0  0  0
   20.0535  -21.3710  -12.5851 C   0  0  0  0  0  0  0  0  0  0  0  0
   20.0492  -22.5695  -12.2410 O   0  0  0  0  0  0  0  0  0  0  0  0
   18.9302  -20.5628  -12.3484 O   0  0  0  0  0  0  0  0  0  0  0  0
  1  2  1  0
  2  3  2  0
  4  2  1  0
  5  4  1  0
  5  6  1  6
  7  8  2  0
  7  5  1  0
 10  9  1  6
 10 12  1  0
 11 10  1  0
 12 14  1  0
 12 13  1  6
 13  7  1  0
 14 16  1  0
 15 14  2  0
 16 17  1  0
 17 20  1  0
 18 19  1  0
 17 18  1  6
 20 21  2  0
 20 22  1  0
M  END
$$$$
