NVC.pdb
     RDKit          3D

 22 21  0  0  1  0  0  0  0  0999 V2000
   23.8003  -18.5531  -19.8456 N   0  0  0  0  0  0  0  0  0  0  0  0
   24.0198  -19.3387  -18.6907 C   0  0  0  0  0  0  0  0  0  0  0  0
   24.9968  -19.0382  -17.9368 O   0  0  0  0  0  0  0  0  0  0  0  0
   23.1242  -20.4728  -18.3849 C   0  0  0  0  0  0  0  0  0  0  0  0
   23.9264  -21.7208  -18.2565 C   0  0  2  0  0  0  0  0  0  0  0  0
   24.3662  -22.1811  -19.5460 N   0  0  0  0  0  0  0  0  0  0  0  0
   23.1488  -22.8296  -17.6388 C   0  0  0  0  0  0  0  0  0  0  0  0
   22.3301  -23.3920  -18.4187 O   0  0  0  0  0  0  0  0  0  0  0  0
   24.1798  -25.2109  -14.1359 C   0  0  0  0  0  0  0  0  0  0  0  0
   23.3209  -25.5050  -15.3313 C   0  0  2  0  0  0  0  0  0  0  0  0
   24.2044  -26.0684  -16.3988 C   0  0  0  0  0  0  0  0  0  0  0  0
   22.4840  -24.3586  -15.7136 C   0  0  2  0  0  0  0  0  0  0  0  0
   23.2652  -23.2649  -16.3135 N   0  0  0  0  0  0  0  0  0  0  0  0
   21.4821  -23.8501  -14.7953 C   0  0  0  0  0  0  0  0  0  0  0  0
   21.8707  -23.0507  -13.8667 O   0  0  0  0  0  0  0  0  0  0  0  0
   20.0991  -24.0987  -14.7582 N   0  0  0  0  0  0  0  0  0  0  0  0
   19.1989  -23.5375  -13.7357 C   0  0  1  0  0  0  0  0  0  0  0  0
   17.9261  -23.2103  -14.4756 C   0  0  0  0  0  0  0  0  0  0  0  0
   16.5692  -22.7142  -13.3977 S   0  0  0  0  0  0  0  0  0  0  0  0
   18.9485  -24.4551  -12.6340 C   0  0  0  0  0  0  0  0  0  0  0  0
   18.4454  -24.0477  -11.5683 O   0  0  0  0  0  0  0  0  0  0  0  0
   19.2841  -25.8099  -12.7856 O   0  0  0  0  0  0  0  0  0  0  0  0
  1  2  1  0
  2  3  2  0
  4  2  1  0
  5  4  1  0
  5  6  1  6
  7  8  2  0
  7  5  1  0
 10  9  1  1
 10 12  1  0
 11 10  1  0
 12 14  1  0
 12 13  1  1
 13  7  1  0
 14 16  1  0
 15 14  2  0
 16 17  1  0
 17 20  1  0
 18 19  1  0
 17 18  1  6
 20 21  2  0
 20 22  1  0
M  END
$$$$
