NVC.pdb
     RDKit          3D

 22 21  0  0  1  0  0  0  0  0999 V2000
   18.2219  -11.5917  -12.9448 N   0  0  0  0  0  0  0  0  0  0  0  0
   18.5630  -10.2811  -13.3512 C   0  0  0  0  0  0  0  0  0  0  0  0
   19.5798  -10.1292  -14.0970 O   0  0  0  0  0  0  0  0  0  0  0  0
   17.7448   -9.1326  -12.9119 C   0  0  0  0  0  0  0  0  0  0  0  0
   16.6339   -9.6146  -12.0450 C   0  0  2  0  0  0  0  0  0  0  0  0
   15.7424  -10.4681  -12.7833 N   0  0  0  0  0  0  0  0  0  0  0  0
   15.8169   -8.4954  -11.5015 C   0  0  0  0  0  0  0  0  0  0  0  0
   14.9065   -8.0882  -12.2761 O   0  0  0  0  0  0  0  0  0  0  0  0
   15.2253   -7.6405   -7.3253 C   0  0  0  0  0  0  0  0  0  0  0  0
   14.3425   -7.3816   -8.5114 C   0  0  2  0  0  0  0  0  0  0  0  0
   13.5133   -8.6058   -8.7373 C   0  0  0  0  0  0  0  0  0  0  0  0
   15.0957   -6.8797   -9.6696 C   0  0  2  0  0  0  0  0  0  0  0  0
   15.9876   -7.8983  -10.2469 N   0  0  0  0  0  0  0  0  0  0  0  0
   15.7437   -5.5827   -9.6104 C   0  0  0  0  0  0  0  0  0  0  0  0
   16.8879   -5.5101   -9.0292 O   0  0  0  0  0  0  0  0  0  0  0  0
   15.3051   -4.3437  -10.1089 N   0  0  0  0  0  0  0  0  0  0  0  0
   16.0523   -3.0860   -9.9341 C   0  0  1  0  0  0  0  0  0  0  0  0
   15.8502   -2.3311  -11.2240 C   0  0  0  0  0  0  0  0  0  0  0  0
   16.4889   -3.1908  -12.6738 S   0  0  0  0  0  0  0  0  0  0  0  0
   15.5973   -2.3092   -8.7905 C   0  0  0  0  0  0  0  0  0  0  0  0
   16.2116   -1.2850   -8.4318 O   0  0  0  0  0  0  0  0  0  0  0  0
   14.4548   -2.7301   -8.0915 O   0  0  0  0  0  0  0  0  0  0  0  0
  1  2  1  0
  2  3  2  0
  4  2  1  0
  5  4  1  0
  5  6  1  6
  7  8  2  0
  7  5  1  0
 10  9  1  1
 10 12  1  0
 11 10  1  0
 12 14  1  0
 12 13  1  1
 13  7  1  0
 14 16  1  0
 15 14  2  0
 16 17  1  0
 17 20  1  0
 18 19  1  0
 17 18  1  6
 20 21  2  0
 20 22  1  0
M  END
$$$$
