NVC.pdb
     RDKit          3D

 22 21  0  0  1  0  0  0  0  0999 V2000
   13.6866  -23.0002   -2.9150 N   0  0  0  0  0  0  0  0  0  0  0  0
   13.1217  -23.1582   -1.6286 C   0  0  0  0  0  0  0  0  0  0  0  0
   11.9102  -23.5307   -1.5463 O   0  0  0  0  0  0  0  0  0  0  0  0
   13.9357  -22.8951   -0.4245 C   0  0  0  0  0  0  0  0  0  0  0  0
   15.2836  -22.4093   -0.8305 C   0  0  2  0  0  0  0  0  0  0  0  0
   16.0139  -23.4411   -1.5164 N   0  0  0  0  0  0  0  0  0  0  0  0
   16.1079  -21.9931    0.3369 C   0  0  0  0  0  0  0  0  0  0  0  0
   16.6913  -22.9428    0.9304 O   0  0  0  0  0  0  0  0  0  0  0  0
   18.6723  -18.5372    2.7827 C   0  0  0  0  0  0  0  0  0  0  0  0
   17.7079  -18.9207    1.6982 C   0  0  2  0  0  0  0  0  0  0  0  0
   16.7141  -17.8115    1.5599 C   0  0  0  0  0  0  0  0  0  0  0  0
   17.1581  -20.2703    1.8911 C   0  0  2  0  0  0  0  0  0  0  0  0
   16.2681  -20.6791    0.7924 N   0  0  0  0  0  0  0  0  0  0  0  0
   16.6184  -20.6594    3.1806 C   0  0  0  0  0  0  0  0  0  0  0  0
   15.3477  -20.5676    3.3511 O   0  0  0  0  0  0  0  0  0  0  0  0
   17.2883  -21.1427    4.3180 N   0  0  0  0  0  0  0  0  0  0  0  0
   16.6121  -21.4525    5.5898 C   0  0  1  0  0  0  0  0  0  0  0  0
   17.1128  -22.8227    5.9727 C   0  0  0  0  0  0  0  0  0  0  0  0
   16.8052  -24.0820    4.7202 S   0  0  0  0  0  0  0  0  0  0  0  0
   16.8910  -20.4775    6.6338 C   0  0  0  0  0  0  0  0  0  0  0  0
   17.6573  -19.5174    6.4196 O   0  0  0  0  0  0  0  0  0  0  0  0
   16.2860  -20.6331    7.8911 O   0  0  0  0  0  0  0  0  0  0  0  0
  1  2  1  0
  2  3  2  0
  4  2  1  0
  5  4  1  0
  5  6  1  1
  7  8  2  0
  7  5  1  0
 10  9  1  1
 10 12  1  0
 11 10  1  0
 12 14  1  0
 12 13  1  6
 13  7  1  0
 14 16  1  0
 15 14  2  0
 16 17  1  0
 17 20  1  0
 18 19  1  0
 17 18  1  1
 20 21  2  0
 20 22  1  0
M  END
$$$$
