NVC.pdb
     RDKit          3D

 22 21  0  0  1  0  0  0  0  0999 V2000
   17.8360  -12.6773  -11.1641 N   0  0  0  0  0  0  0  0  0  0  0  0
   17.7532  -11.7953  -12.2660 C   0  0  0  0  0  0  0  0  0  0  0  0
   18.2779  -12.1562  -13.3649 O   0  0  0  0  0  0  0  0  0  0  0  0
   17.0681  -10.4945  -12.1239 C   0  0  0  0  0  0  0  0  0  0  0  0
   16.0597  -10.5789  -11.0313 C   0  0  2  0  0  0  0  0  0  0  0  0
   15.0542  -11.5603  -11.3381 N   0  0  0  0  0  0  0  0  0  0  0  0
   15.3557   -9.2858  -10.8130 C   0  0  0  0  0  0  0  0  0  0  0  0
   14.4423   -9.0398  -11.6495 O   0  0  0  0  0  0  0  0  0  0  0  0
   14.6310   -7.3630   -7.1062 C   0  0  0  0  0  0  0  0  0  0  0  0
   13.9392   -7.2378   -8.4325 C   0  0  2  0  0  0  0  0  0  0  0  0
   12.9313   -8.3391   -8.5257 C   0  0  0  0  0  0  0  0  0  0  0  0
   14.8884   -7.1245   -9.5492 C   0  0  2  0  0  0  0  0  0  0  0  0
   15.6304   -8.3730   -9.7877 N   0  0  0  0  0  0  0  0  0  0  0  0
   15.7564   -5.9663   -9.6525 C   0  0  0  0  0  0  0  0  0  0  0  0
   16.9013   -6.0214   -9.0708 O   0  0  0  0  0  0  0  0  0  0  0  0
   15.5390   -4.7460  -10.3154 N   0  0  0  0  0  0  0  0  0  0  0  0
   16.4919   -3.6227  -10.2848 C   0  0  1  0  0  0  0  0  0  0  0  0
   16.5423   -3.1167  -11.7047 C   0  0  0  0  0  0  0  0  0  0  0  0
   17.0260   -4.3724  -12.9040 S   0  0  0  0  0  0  0  0  0  0  0  0
   16.0978   -2.5684   -9.3620 C   0  0  0  0  0  0  0  0  0  0  0  0
   14.9742   -2.5828   -8.8216 O   0  0  0  0  0  0  0  0  0  0  0  0
   17.0013   -1.5292   -9.0884 O   0  0  0  0  0  0  0  0  0  0  0  0
  1  2  1  0
  2  3  2  0
  4  2  1  0
  5  4  1  0
  5  6  1  6
  7  8  2  0
  7  5  1  0
 10  9  1  1
 10 12  1  0
 11 10  1  0
 12 14  1  0
 12 13  1  1
 13  7  1  0
 14 16  1  0
 15 14  2  0
 16 17  1  0
 17 20  1  0
 18 19  1  0
 17 18  1  6
 20 21  2  0
 20 22  1  0
M  END
$$$$
