CLV.pdb
     RDKit          3D

 22 21  0  0  1  0  0  0  0  0999 V2000
    8.5472  -15.1461   19.4070 N   0  0  0  0  0  0  0  0  0  0  0  0
    7.6380  -15.5429   20.4876 C   0  0  1  0  0  0  0  0  0  0  0  0
    7.5145  -17.0531   20.3973 C   0  0  0  0  0  0  0  0  0  0  0  0
    6.3921  -17.5506   21.7565 S   0  0  0  0  0  0  0  0  0  0  0  0
    8.1637  -15.0828   21.7756 C   0  0  0  0  0  0  0  0  0  0  0  0
    9.4269  -15.0225   21.9609 O   0  0  0  0  0  0  0  0  0  0  0  0
    8.3630  -11.9839   26.0745 C   0  0  0  0  0  0  0  0  0  0  0  0
    7.3231  -13.0749   26.2278 C   0  0  1  0  0  0  0  0  0  0  0  0
    6.2728  -12.5934   27.1637 C   0  0  0  0  0  0  0  0  0  0  0  0
    6.8371  -13.4356   24.8708 C   0  0  0  0  0  0  0  0  0  0  0  0
    7.8109  -14.2462   24.0576 C   0  0  2  0  0  0  0  0  0  0  0  0
    7.2727  -14.7050   22.8150 N   0  0  0  0  0  0  0  0  0  0  0  0
    8.1670  -15.4305   24.8799 C   0  0  0  0  0  0  0  0  0  0  0  0
    7.2810  -16.2589   25.1710 O   0  0  0  0  0  0  0  0  0  0  0  0
   12.1961  -16.7786   25.2425 C   0  0  0  0  0  0  0  0  0  0  0  0
   10.9410  -17.5846   25.1998 C   0  0  2  0  0  0  0  0  0  0  0  0
   10.5536  -17.8238   23.7615 C   0  0  0  0  0  0  0  0  0  0  0  0
    9.7967  -16.9313   25.9433 C   0  0  2  0  0  0  0  0  0  0  0  0
    9.4881  -15.6628   25.3545 N   0  0  0  0  0  0  0  0  0  0  0  0
   10.1238  -16.7584   27.3841 C   0  0  0  0  0  0  0  0  0  0  0  0
   10.3021  -17.9149   28.1652 O   0  0  0  0  0  0  0  0  0  0  0  0
   10.2474  -15.6504   27.9321 O   0  0  0  0  0  0  0  0  0  0  0  0
  2  1  1  6
  2  3  1  0
  3  4  1  0
  5  2  1  0
  6  5  2  0
  8  7  1  6
  8 10  1  0
  9  8  1  0
 11 10  1  1
 11 12  1  0
 11 13  1  0
 12  5  1  0
 13 14  2  0
 16 15  1  6
 17 16  1  0
 18 16  1  0
 19 13  1  0
 18 19  1  6
 20 18  1  0
 20 21  1  0
 22 20  2  0
M  END
$$$$
