CLV.pdb
     RDKit          3D

 22 21  0  0  1  0  0  0  0  0999 V2000
    6.0572  -19.0046   22.9318 N   0  0  0  0  0  0  0  0  0  0  0  0
    6.3126  -18.3077   24.1971 C   0  0  1  0  0  0  0  0  0  0  0  0
    6.8272  -19.3625   25.1596 C   0  0  0  0  0  0  0  0  0  0  0  0
    6.9952  -18.5280   26.7814 S   0  0  0  0  0  0  0  0  0  0  0  0
    7.2614  -17.2123   23.9801 C   0  0  0  0  0  0  0  0  0  0  0  0
    8.2490  -17.3758   23.1854 O   0  0  0  0  0  0  0  0  0  0  0  0
    6.3959  -11.7806   25.8675 C   0  0  0  0  0  0  0  0  0  0  0  0
    6.8260  -13.2332   25.8550 C   0  0  1  0  0  0  0  0  0  0  0  0
    5.6696  -14.0683   26.2745 C   0  0  0  0  0  0  0  0  0  0  0  0
    7.3631  -13.5381   24.5036 C   0  0  0  0  0  0  0  0  0  0  0  0
    7.9904  -14.9009   24.3776 C   0  0  2  0  0  0  0  0  0  0  0  0
    7.0845  -15.9728   24.6505 N   0  0  0  0  0  0  0  0  0  0  0  0
    9.0922  -14.9539   25.3720 C   0  0  0  0  0  0  0  0  0  0  0  0
   10.0925  -14.2258   25.2124 O   0  0  0  0  0  0  0  0  0  0  0  0
    9.8679  -13.4319   28.2461 C   0  0  0  0  0  0  0  0  0  0  0  0
    9.8303  -14.8811   28.5998 C   0  0  2  0  0  0  0  0  0  0  0  0
   10.7925  -15.1405   29.7324 C   0  0  0  0  0  0  0  0  0  0  0  0
   10.1541  -15.7814   27.4279 C   0  0  2  0  0  0  0  0  0  0  0  0
    9.0554  -15.8076   26.5096 N   0  0  0  0  0  0  0  0  0  0  0  0
   10.4699  -17.1615   27.8843 C   0  0  0  0  0  0  0  0  0  0  0  0
   11.5799  -17.3407   28.7300 O   0  0  0  0  0  0  0  0  0  0  0  0
    9.8075  -18.1609   27.5592 O   0  0  0  0  0  0  0  0  0  0  0  0
  2  1  1  6
  2  3  1  0
  3  4  1  0
  5  2  1  0
  6  5  2  0
  8  7  1  6
  8 10  1  0
  9  8  1  0
 11 10  1  1
 11 12  1  0
 11 13  1  0
 12  5  1  0
 13 14  2  0
 16 15  1  6
 17 16  1  0
 18 16  1  0
 19 13  1  0
 18 19  1  6
 20 18  1  0
 20 21  1  0
 22 20  2  0
M  END
$$$$
