CLV.pdb
     RDKit          3D

 22 21  0  0  1  0  0  0  0  0999 V2000
    6.7720  -16.1835   20.7688 N   0  0  0  0  0  0  0  0  0  0  0  0
    6.3227  -16.4467   22.1402 C   0  0  1  0  0  0  0  0  0  0  0  0
    6.1633  -17.9523   22.2468 C   0  0  0  0  0  0  0  0  0  0  0  0
    5.4631  -18.2701   23.9092 S   0  0  0  0  0  0  0  0  0  0  0  0
    7.2899  -15.8996   23.0953 C   0  0  0  0  0  0  0  0  0  0  0  0
    8.5323  -15.8732   22.7962 O   0  0  0  0  0  0  0  0  0  0  0  0
    5.8537  -12.1452   27.1382 C   0  0  0  0  0  0  0  0  0  0  0  0
    6.5179  -12.7618   25.9242 C   0  0  1  0  0  0  0  0  0  0  0  0
    7.4291  -11.7515   25.3244 C   0  0  0  0  0  0  0  0  0  0  0  0
    7.1752  -14.0227   26.3552 C   0  0  0  0  0  0  0  0  0  0  0  0
    7.8027  -14.8100   25.2358 C   0  0  2  0  0  0  0  0  0  0  0  0
    6.8487  -15.4003   24.3495 N   0  0  0  0  0  0  0  0  0  0  0  0
    8.5879  -15.8985   25.8716 C   0  0  0  0  0  0  0  0  0  0  0  0
    7.9863  -16.8363   26.4325 O   0  0  0  0  0  0  0  0  0  0  0  0
   11.8268  -17.4455   24.1710 C   0  0  0  0  0  0  0  0  0  0  0  0
   11.9991  -17.2677   25.6426 C   0  0  2  0  0  0  0  0  0  0  0  0
   12.7323  -18.4607   26.2041 C   0  0  0  0  0  0  0  0  0  0  0  0
   10.6864  -17.0764   26.3698 C   0  0  2  0  0  0  0  0  0  0  0  0
   10.0106  -15.9176   25.8682 N   0  0  0  0  0  0  0  0  0  0  0  0
   10.9007  -16.9466   27.8361 C   0  0  0  0  0  0  0  0  0  0  0  0
   10.7462  -15.6745   28.4170 O   0  0  0  0  0  0  0  0  0  0  0  0
   11.2078  -17.8989   28.5723 O   0  0  0  0  0  0  0  0  0  0  0  0
  2  1  1  6
  2  3  1  0
  3  4  1  0
  5  2  1  0
  6  5  2  0
  8  7  1  1
  8 10  1  0
  9  8  1  0
 11 10  1  1
 11 12  1  0
 11 13  1  0
 12  5  1  0
 13 14  2  0
 16 15  1  6
 17 16  1  0
 18 16  1  0
 19 13  1  0
 18 19  1  6
 20 18  1  0
 20 21  1  0
 22 20  2  0
M  END
$$$$
