CLV.pdb
     RDKit          3D

 22 21  0  0  1  0  0  0  0  0999 V2000
    7.8006  -14.7046   20.1847 N   0  0  0  0  0  0  0  0  0  0  0  0
    7.0998  -15.2453   21.3544 C   0  0  1  0  0  0  0  0  0  0  0  0
    6.9431  -16.7330   21.0979 C   0  0  0  0  0  0  0  0  0  0  0  0
    5.9911  -17.3931   22.5166 S   0  0  0  0  0  0  0  0  0  0  0  0
    7.8581  -14.9462   22.5721 C   0  0  0  0  0  0  0  0  0  0  0  0
    9.1355  -14.9240   22.5352 O   0  0  0  0  0  0  0  0  0  0  0  0
    5.7904  -11.8409   26.7564 C   0  0  0  0  0  0  0  0  0  0  0  0
    6.6849  -12.3580   25.6484 C   0  0  1  0  0  0  0  0  0  0  0  0
    7.7560  -11.3559   25.4042 C   0  0  0  0  0  0  0  0  0  0  0  0
    7.1658  -13.7074   26.0428 C   0  0  0  0  0  0  0  0  0  0  0  0
    7.9396  -14.4286   24.9715 C   0  0  2  0  0  0  0  0  0  0  0  0
    7.1762  -14.6818   23.7895 N   0  0  0  0  0  0  0  0  0  0  0  0
    8.3520  -15.7321   25.5514 C   0  0  0  0  0  0  0  0  0  0  0  0
    7.4826  -16.5922   25.7968 O   0  0  0  0  0  0  0  0  0  0  0  0
   12.5008  -16.9999   26.0201 C   0  0  0  0  0  0  0  0  0  0  0  0
   11.3257  -17.8229   25.6097 C   0  0  2  0  0  0  0  0  0  0  0  0
   11.1883  -17.7778   24.1080 C   0  0  0  0  0  0  0  0  0  0  0  0
   10.0365  -17.3742   26.2621 C   0  0  2  0  0  0  0  0  0  0  0  0
    9.7094  -16.0448   25.8417 N   0  0  0  0  0  0  0  0  0  0  0  0
   10.1397  -17.4290   27.7450 C   0  0  0  0  0  0  0  0  0  0  0  0
   10.3263  -18.6859   28.3491 O   0  0  0  0  0  0  0  0  0  0  0  0
   10.0701  -16.4268   28.4758 O   0  0  0  0  0  0  0  0  0  0  0  0
  2  1  1  6
  2  3  1  0
  3  4  1  0
  5  2  1  0
  6  5  2  0
  8  7  1  1
  8 10  1  0
  9  8  1  0
 11 10  1  1
 11 12  1  0
 11 13  1  0
 12  5  1  0
 13 14  2  0
 16 15  1  6
 17 16  1  0
 18 16  1  0
 19 13  1  0
 18 19  1  1
 20 18  1  0
 20 21  1  0
 22 20  2  0
M  END
$$$$
