CLV.pdb
     RDKit          3D

 22 21  0  0  1  0  0  0  0  0999 V2000
    9.0651  -15.7465   20.2162 N   0  0  0  0  0  0  0  0  0  0  0  0
    8.2048  -16.1713   21.3259 C   0  0  1  0  0  0  0  0  0  0  0  0
    8.3505  -17.6795   21.4149 C   0  0  0  0  0  0  0  0  0  0  0  0
    7.2440  -18.3710   20.1295 S   0  0  0  0  0  0  0  0  0  0  0  0
    8.5999  -15.4796   22.5558 C   0  0  0  0  0  0  0  0  0  0  0  0
    9.8387  -15.3553   22.8445 O   0  0  0  0  0  0  0  0  0  0  0  0
    8.2682  -11.7128   26.1869 C   0  0  0  0  0  0  0  0  0  0  0  0
    7.2926  -12.8180   26.5360 C   0  0  1  0  0  0  0  0  0  0  0  0
    6.1665  -12.2241   27.3042 C   0  0  0  0  0  0  0  0  0  0  0  0
    6.9020  -13.4971   25.2734 C   0  0  0  0  0  0  0  0  0  0  0  0
    8.0218  -14.2421   24.5969 C   0  0  2  0  0  0  0  0  0  0  0  0
    7.6096  -14.9491   23.4246 N   0  0  0  0  0  0  0  0  0  0  0  0
    8.5319  -15.2278   25.5837 C   0  0  0  0  0  0  0  0  0  0  0  0
    7.7904  -16.1609   25.9519 O   0  0  0  0  0  0  0  0  0  0  0  0
   11.7486  -17.1145   25.0196 C   0  0  0  0  0  0  0  0  0  0  0  0
   11.7217  -16.6381   26.4335 C   0  0  2  0  0  0  0  0  0  0  0  0
   12.2925  -17.7095   27.3291 C   0  0  0  0  0  0  0  0  0  0  0  0
   10.3337  -16.2575   26.8998 C   0  0  2  0  0  0  0  0  0  0  0  0
    9.8426  -15.1527   26.1321 N   0  0  0  0  0  0  0  0  0  0  0  0
   10.3307  -15.9138   28.3471 C   0  0  0  0  0  0  0  0  0  0  0  0
   10.1955  -14.5599   28.7051 O   0  0  0  0  0  0  0  0  0  0  0  0
   10.4410  -16.7563   29.2534 O   0  0  0  0  0  0  0  0  0  0  0  0
  2  1  1  6
  2  3  1  0
  3  4  1  0
  5  2  1  0
  6  5  2  0
  8  7  1  6
  8 10  1  0
  9  8  1  0
 11 10  1  1
 11 12  1  0
 11 13  1  0
 12  5  1  0
 13 14  2  0
 16 15  1  6
 17 16  1  0
 18 16  1  0
 19 13  1  0
 18 19  1  6
 20 18  1  0
 20 21  1  0
 22 20  2  0
M  END
$$$$
