CLV.pdb
     RDKit          3D

 22 21  0  0  1  0  0  0  0  0999 V2000
    9.6534  -17.7707   16.5929 N   0  0  0  0  0  0  0  0  0  0  0  0
    9.1376  -18.1559   17.9110 C   0  0  1  0  0  0  0  0  0  0  0  0
    9.6069  -19.5804   18.1441 C   0  0  0  0  0  0  0  0  0  0  0  0
    8.1022  -20.6235   18.0905 S   0  0  0  0  0  0  0  0  0  0  0  0
    9.6173  -17.2164   18.9280 C   0  0  0  0  0  0  0  0  0  0  0  0
   10.8472  -16.8690   18.9418 O   0  0  0  0  0  0  0  0  0  0  0  0
    6.3358  -13.2741   21.2686 C   0  0  0  0  0  0  0  0  0  0  0  0
    7.4549  -13.9733   20.5242 C   0  0  1  0  0  0  0  0  0  0  0  0
    8.3459  -12.9379   19.9369 C   0  0  0  0  0  0  0  0  0  0  0  0
    8.1172  -14.9084   21.4700 C   0  0  0  0  0  0  0  0  0  0  0  0
    9.2033  -15.7493   20.8536 C   0  0  2  0  0  0  0  0  0  0  0  0
    8.7188  -16.6934   19.8955 N   0  0  0  0  0  0  0  0  0  0  0  0
    9.8433  -16.4967   21.9659 C   0  0  0  0  0  0  0  0  0  0  0  0
    9.3371  -17.5704   22.3493 O   0  0  0  0  0  0  0  0  0  0  0  0
   13.7693  -16.9022   22.3542 C   0  0  0  0  0  0  0  0  0  0  0  0
   13.1110  -16.6362   23.6667 C   0  0  2  0  0  0  0  0  0  0  0  0
   13.7381  -17.5122   24.7229 C   0  0  0  0  0  0  0  0  0  0  0  0
   11.6149  -16.8580   23.6303 C   0  0  2  0  0  0  0  0  0  0  0  0
   11.0204  -16.0362   22.6192 N   0  0  0  0  0  0  0  0  0  0  0  0
   10.9981  -16.5662   24.9521 C   0  0  0  0  0  0  0  0  0  0  0  0
   10.0674  -15.5140   25.0298 O   0  0  0  0  0  0  0  0  0  0  0  0
   11.2606  -17.2005   25.9876 O   0  0  0  0  0  0  0  0  0  0  0  0
  2  1  1  6
  2  3  1  0
  3  4  1  0
  5  2  1  0
  6  5  2  0
  8  7  1  1
  8 10  1  0
  9  8  1  0
 11 10  1  1
 11 12  1  0
 11 13  1  0
 12  5  1  0
 13 14  2  0
 16 15  1  6
 17 16  1  0
 18 16  1  0
 19 13  1  0
 18 19  1  6
 20 18  1  0
 20 21  1  0
 22 20  2  0
M  END
$$$$
