CLV.pdb
     RDKit          3D

 22 21  0  0  1  0  0  0  0  0999 V2000
    9.3157  -15.7021   20.0943 N   0  0  0  0  0  0  0  0  0  0  0  0
    8.3195  -16.0394   21.1170 C   0  0  1  0  0  0  0  0  0  0  0  0
    8.2833  -17.5554   21.1822 C   0  0  0  0  0  0  0  0  0  0  0  0
    7.0396  -17.9768   22.4591 S   0  0  0  0  0  0  0  0  0  0  0  0
    8.6831  -15.4153   22.3919 C   0  0  0  0  0  0  0  0  0  0  0  0
    9.9152  -15.2639   22.6962 O   0  0  0  0  0  0  0  0  0  0  0  0
    8.3148  -11.8557   26.2539 C   0  0  0  0  0  0  0  0  0  0  0  0
    7.2989  -12.9596   26.4647 C   0  0  1  0  0  0  0  0  0  0  0  0
    6.1476  -12.3994   27.2207 C   0  0  0  0  0  0  0  0  0  0  0  0
    6.9596  -13.5273   25.1341 C   0  0  0  0  0  0  0  0  0  0  0  0
    8.0507  -14.3625   24.5188 C   0  0  2  0  0  0  0  0  0  0  0  0
    7.6699  -14.9800   23.2869 N   0  0  0  0  0  0  0  0  0  0  0  0
    8.3708  -15.4308   25.4994 C   0  0  0  0  0  0  0  0  0  0  0  0
    7.4763  -16.2288   25.8448 O   0  0  0  0  0  0  0  0  0  0  0  0
   12.3428  -16.7750   26.2824 C   0  0  0  0  0  0  0  0  0  0  0  0
   11.0604  -17.5347   26.3533 C   0  0  2  0  0  0  0  0  0  0  0  0
   10.7069  -18.0411   24.9769 C   0  0  0  0  0  0  0  0  0  0  0  0
    9.9198  -16.7129   26.9123 C   0  0  2  0  0  0  0  0  0  0  0  0
    9.6663  -15.5847   26.0672 N   0  0  0  0  0  0  0  0  0  0  0  0
   10.2171  -16.2563   28.2964 C   0  0  0  0  0  0  0  0  0  0  0  0
   10.3663  -17.2336   29.2976 O   0  0  0  0  0  0  0  0  0  0  0  0
   10.3403  -15.0616   28.6141 O   0  0  0  0  0  0  0  0  0  0  0  0
  2  1  1  6
  2  3  1  0
  3  4  1  0
  5  2  1  0
  6  5  2  0
  8  7  1  6
  8 10  1  0
  9  8  1  0
 11 10  1  1
 11 12  1  0
 11 13  1  0
 12  5  1  0
 13 14  2  0
 16 15  1  6
 17 16  1  0
 18 16  1  0
 19 13  1  0
 18 19  1  6
 20 18  1  0
 20 21  1  0
 22 20  2  0
M  END
$$$$
