CLV.pdb
     RDKit          3D

 22 21  0  0  1  0  0  0  0  0999 V2000
    7.4344  -17.8792   21.2295 N   0  0  0  0  0  0  0  0  0  0  0  0
    6.8892  -17.8320   22.5905 C   0  0  1  0  0  0  0  0  0  0  0  0
    7.1407  -19.2036   23.1900 C   0  0  0  0  0  0  0  0  0  0  0  0
    6.5059  -19.1291   24.9065 S   0  0  0  0  0  0  0  0  0  0  0  0
    7.5236  -16.7474   23.3444 C   0  0  0  0  0  0  0  0  0  0  0  0
    8.7782  -16.5373   23.2204 O   0  0  0  0  0  0  0  0  0  0  0  0
    7.8220  -11.8876   25.2728 C   0  0  0  0  0  0  0  0  0  0  0  0
    7.0733  -12.7642   26.2559 C   0  0  1  0  0  0  0  0  0  0  0  0
    6.1393  -11.9063   27.0321 C   0  0  0  0  0  0  0  0  0  0  0  0
    6.4280  -13.8611   25.4891 C   0  0  0  0  0  0  0  0  0  0  0  0
    7.3887  -14.8760   24.9291 C   0  0  2  0  0  0  0  0  0  0  0  0
    6.7471  -15.9321   24.2101 N   0  0  0  0  0  0  0  0  0  0  0  0
    8.1054  -15.4659   26.0883 C   0  0  0  0  0  0  0  0  0  0  0  0
    7.5170  -16.2955   26.8105 O   0  0  0  0  0  0  0  0  0  0  0  0
   12.3587  -14.9477   26.7139 C   0  0  0  0  0  0  0  0  0  0  0  0
   11.5551  -16.1900   26.9078 C   0  0  2  0  0  0  0  0  0  0  0  0
   11.5206  -16.9657   25.6144 C   0  0  0  0  0  0  0  0  0  0  0  0
   10.1461  -15.9111   27.3830 C   0  0  2  0  0  0  0  0  0  0  0  0
    9.4472  -15.1221   26.4134 N   0  0  0  0  0  0  0  0  0  0  0  0
   10.1525  -15.2150   28.6976 C   0  0  0  0  0  0  0  0  0  0  0  0
    9.5841  -13.9299   28.7683 O   0  0  0  0  0  0  0  0  0  0  0  0
   10.6315  -15.7069   29.7330 O   0  0  0  0  0  0  0  0  0  0  0  0
  2  1  1  6
  2  3  1  0
  3  4  1  0
  5  2  1  0
  6  5  2  0
  8  7  1  6
  8 10  1  0
  9  8  1  0
 11 10  1  1
 11 12  1  0
 11 13  1  0
 12  5  1  0
 13 14  2  0
 16 15  1  6
 17 16  1  0
 18 16  1  0
 19 13  1  0
 18 19  1  6
 20 18  1  0
 20 21  1  0
 22 20  2  0
M  END
$$$$
