CLV.pdb
     RDKit          3D

 22 21  0  0  1  0  0  0  0  0999 V2000
    8.0249  -14.4863   19.8925 N   0  0  0  0  0  0  0  0  0  0  0  0
    7.3212  -15.1407   21.0008 C   0  0  1  0  0  0  0  0  0  0  0  0
    7.3654  -16.6287   20.7043 C   0  0  0  0  0  0  0  0  0  0  0  0
    6.4683  -17.4445   22.0771 S   0  0  0  0  0  0  0  0  0  0  0  0
    7.9564  -14.7866   22.2729 C   0  0  0  0  0  0  0  0  0  0  0  0
    9.2177  -14.5850   22.3184 O   0  0  0  0  0  0  0  0  0  0  0  0
    5.7075  -12.0087   26.7404 C   0  0  0  0  0  0  0  0  0  0  0  0
    6.7333  -12.3951   25.6946 C   0  0  1  0  0  0  0  0  0  0  0  0
    7.9658  -11.5973   25.9295 C   0  0  0  0  0  0  0  0  0  0  0  0
    6.9173  -13.8681   25.7588 C   0  0  0  0  0  0  0  0  0  0  0  0
    7.8292  -14.4268   24.6991 C   0  0  2  0  0  0  0  0  0  0  0  0
    7.1733  -14.6676   23.4517 N   0  0  0  0  0  0  0  0  0  0  0  0
    8.3389  -15.7215   25.2182 C   0  0  0  0  0  0  0  0  0  0  0  0
    7.5527  -16.6827   25.3361 O   0  0  0  0  0  0  0  0  0  0  0  0
   11.2878  -17.6564   23.8358 C   0  0  0  0  0  0  0  0  0  0  0  0
   11.4176  -17.5875   25.3208 C   0  0  2  0  0  0  0  0  0  0  0  0
   11.9160  -18.9144   25.8374 C   0  0  0  0  0  0  0  0  0  0  0  0
   10.1218  -17.2170   26.0081 C   0  0  2  0  0  0  0  0  0  0  0  0
    9.6986  -15.9141   25.5904 N   0  0  0  0  0  0  0  0  0  0  0  0
   10.2709  -17.2545   27.4877 C   0  0  0  0  0  0  0  0  0  0  0  0
   10.4422  -18.5079   28.1036 O   0  0  0  0  0  0  0  0  0  0  0  0
   10.2522  -16.2410   28.2058 O   0  0  0  0  0  0  0  0  0  0  0  0
  2  1  1  6
  2  3  1  0
  3  4  1  0
  5  2  1  0
  6  5  2  0
  8  7  1  1
  8 10  1  0
  9  8  1  0
 11 10  1  1
 11 12  1  0
 11 13  1  0
 12  5  1  0
 13 14  2  0
 16 15  1  6
 17 16  1  0
 18 16  1  0
 19 13  1  0
 18 19  1  6
 20 18  1  0
 20 21  1  0
 22 20  2  0
M  END
$$$$
