CLV.pdb
     RDKit          3D

 22 21  0  0  1  0  0  0  0  0999 V2000
    6.7142  -19.9247   22.5887 N   0  0  0  0  0  0  0  0  0  0  0  0
    6.4013  -18.6786   23.2968 C   0  0  1  0  0  0  0  0  0  0  0  0
    6.5479  -18.9892   24.7753 C   0  0  0  0  0  0  0  0  0  0  0  0
    5.7648  -17.5929   25.6651 S   0  0  0  0  0  0  0  0  0  0  0  0
    7.2927  -17.6088   22.8406 C   0  0  0  0  0  0  0  0  0  0  0  0
    8.5391  -17.8442   22.6843 O   0  0  0  0  0  0  0  0  0  0  0  0
    8.6011  -13.7218   19.7974 C   0  0  0  0  0  0  0  0  0  0  0  0
    7.9224  -13.0806   20.9906 C   0  0  1  0  0  0  0  0  0  0  0  0
    7.2820  -11.8159   20.5421 C   0  0  0  0  0  0  0  0  0  0  0  0
    6.9938  -14.0804   21.5786 C   0  0  0  0  0  0  0  0  0  0  0  0
    7.6753  -15.2672   22.2062 C   0  0  2  0  0  0  0  0  0  0  0  0
    6.7735  -16.3142   22.5730 N   0  0  0  0  0  0  0  0  0  0  0  0
    8.3426  -14.7709   23.4366 C   0  0  0  0  0  0  0  0  0  0  0  0
    9.5637  -14.5177   23.4076 O   0  0  0  0  0  0  0  0  0  0  0  0
    6.2398  -13.4721   26.9716 C   0  0  0  0  0  0  0  0  0  0  0  0
    7.5719  -13.0007   26.4917 C   0  0  2  0  0  0  0  0  0  0  0  0
    7.3782  -11.8268   25.5643 C   0  0  0  0  0  0  0  0  0  0  0  0
    8.3645  -14.0857   25.7965 C   0  0  2  0  0  0  0  0  0  0  0  0
    7.6421  -14.5700   24.6586 N   0  0  0  0  0  0  0  0  0  0  0  0
    8.6644  -15.2082   26.7253 C   0  0  0  0  0  0  0  0  0  0  0  0
    9.4286  -14.9304   27.8735 O   0  0  0  0  0  0  0  0  0  0  0  0
    8.2771  -16.3742   26.5414 O   0  0  0  0  0  0  0  0  0  0  0  0
  2  1  1  6
  2  3  1  0
  3  4  1  0
  5  2  1  0
  6  5  2  0
  8  7  1  6
  8 10  1  0
  9  8  1  0
 11 10  1  1
 11 12  1  0
 11 13  1  0
 12  5  1  0
 13 14  2  0
 16 15  1  6
 17 16  1  0
 18 16  1  0
 19 13  1  0
 18 19  1  6
 20 18  1  0
 20 21  1  0
 22 20  2  0
M  END
$$$$
