MRL.pdb
     RDKit          3D

 28 27  0  0  1  0  0  0  0  0999 V2000
    7.6070  -11.6100   26.4958 C   0  0  0  0  0  0  0  0  0  0  0  0
    5.8349  -11.8102   26.8268 S   0  0  0  0  0  0  0  0  0  0  0  0
    5.1289  -13.0962   25.7489 C   0  0  0  0  0  0  0  0  0  0  0  0
    6.0954  -14.2659   25.6919 C   0  0  0  0  0  0  0  0  0  0  0  0
    6.7064  -14.3471   24.3045 C   0  0  2  0  0  0  0  0  0  0  0  0
    5.6990  -14.5576   23.3005 N   0  0  0  0  0  0  0  0  0  0  0  0
    7.7537  -15.3554   24.2874 C   0  0  0  0  0  0  0  0  0  0  0  0
    7.8558  -16.2619   25.1799 O   0  0  0  0  0  0  0  0  0  0  0  0
    8.7700  -14.4742   17.5887 N   0  0  0  0  0  0  0  0  0  0  0  0
    9.0671  -13.8909   18.8326 C   0  0  0  0  0  0  0  0  0  0  0  0
    8.4117  -12.8784   19.2928 N   0  0  0  0  0  0  0  0  0  0  0  0
   10.1094  -14.4211   19.6155 N   0  0  0  0  0  0  0  0  0  0  0  0
   10.6417  -15.7505   19.5245 C   0  0  0  0  0  0  0  0  0  0  0  0
   10.0706  -16.5936   20.6427 C   0  0  0  0  0  0  0  0  0  0  0  0
   10.6539  -16.2820   21.9643 C   0  0  0  0  0  0  0  0  0  0  0  0
    9.7898  -16.3537   23.1608 C   0  0  2  0  0  0  0  0  0  0  0  0
    8.7324  -15.3817   23.2644 N   0  0  0  0  0  0  0  0  0  0  0  0
   10.6810  -16.1845   24.3554 C   0  0  0  0  0  0  0  0  0  0  0  0
   11.7114  -15.4460   24.3043 O   0  0  0  0  0  0  0  0  0  0  0  0
    8.6804  -12.5040   20.2299 C   0  0  0  0  0  0  0  0  0  0  0  0
    9.8783  -14.1001   28.8232 C   0  0  1  0  0  0  0  0  0  0  0  0
   10.6590  -14.6682   27.6479 C   0  0  0  0  0  0  0  0  0  0  0  0
   12.0954  -14.1616   27.6473 C   0  0  0  0  0  0  0  0  0  0  0  0
   10.7269  -16.1545   27.8077 C   0  0  2  0  0  0  0  0  0  0  0  0
   11.3983  -16.8683   26.6531 N   0  0  0  0  0  0  0  0  0  0  0  0
   10.4085  -16.8327   25.5635 C   0  0  0  0  0  0  0  0  0  0  0  0
   11.7319  -18.2738   26.9590 O   0  0  0  0  0  0  0  0  0  0  0  0
   11.0311  -19.2510   26.5939 O   0  0  0  0  0  0  0  0  0  0  0  0
  2  1  1  0
  3  2  1  0
  4  3  1  0
  4  5  1  0
  5  6  1  6
  7  5  1  0
  7  8  2  0
 10  9  1  0
 10 12  1  0
 11 10  2  0
 13 14  1  0
 13 12  1  0
 15 14  1  0
 16 15  1  6
 16 17  1  0
 17  7  1  0
 18 16  1  0
 19 18  2  0
 21 20  1  6
 21 23  1  0
 22 21  1  0
 24 23  1  6
 24 25  1  0
 24 26  1  0
 25 18  1  0
 26 28  1  0
 27 26  2  0
M  END
$$$$
