MRL.pdb
     RDKit          3D

 28 27  0  0  1  0  0  0  0  0999 V2000
    5.3850  -11.4252   26.3623 C   0  0  0  0  0  0  0  0  0  0  0  0
    6.1005  -13.0072   26.8870 S   0  0  0  0  0  0  0  0  0  0  0  0
    5.6872  -14.3181   25.6934 C   0  0  0  0  0  0  0  0  0  0  0  0
    6.1880  -15.6446   26.2369 C   0  0  0  0  0  0  0  0  0  0  0  0
    6.0369  -16.7148   25.1707 C   0  0  2  0  0  0  0  0  0  0  0  0
    5.4061  -17.8940   25.6986 N   0  0  0  0  0  0  0  0  0  0  0  0
    7.3272  -16.9804   24.5553 C   0  0  0  0  0  0  0  0  0  0  0  0
    7.9960  -18.0435   24.7820 O   0  0  0  0  0  0  0  0  0  0  0  0
    8.3977  -15.1449   17.0531 N   0  0  0  0  0  0  0  0  0  0  0  0
    8.7040  -13.9587   17.7421 C   0  0  0  0  0  0  0  0  0  0  0  0
    8.8198  -12.8226   17.1401 N   0  0  0  0  0  0  0  0  0  0  0  0
    8.8896  -13.9953   19.1365 N   0  0  0  0  0  0  0  0  0  0  0  0
    7.9343  -14.4543   20.1039 C   0  0  0  0  0  0  0  0  0  0  0  0
    8.5200  -14.3089   21.4906 C   0  0  0  0  0  0  0  0  0  0  0  0
    9.4730  -15.3839   21.8368 C   0  0  0  0  0  0  0  0  0  0  0  0
    9.1889  -16.2404   23.0068 C   0  0  2  0  0  0  0  0  0  0  0  0
    7.9192  -16.0562   23.6606 N   0  0  0  0  0  0  0  0  0  0  0  0
   10.2638  -15.9714   24.0179 C   0  0  0  0  0  0  0  0  0  0  0  0
   11.3321  -15.3689   23.6934 O   0  0  0  0  0  0  0  0  0  0  0  0
    9.0739  -11.9869   17.7124 C   0  0  0  0  0  0  0  0  0  0  0  0
    9.6337  -13.7931   26.7882 C   0  0  2  0  0  0  0  0  0  0  0  0
   10.4114  -14.4392   27.9246 C   0  0  0  0  0  0  0  0  0  0  0  0
    9.6566  -14.3213   29.2423 C   0  0  0  0  0  0  0  0  0  0  0  0
   10.5386  -15.9010   27.6308 C   0  0  2  0  0  0  0  0  0  0  0  0
   11.2249  -16.2077   26.3161 N   0  0  0  0  0  0  0  0  0  0  0  0
   10.1267  -16.3741   25.3494 C   0  0  0  0  0  0  0  0  0  0  0  0
   12.0252  -17.4479   26.3585 O   0  0  0  0  0  0  0  0  0  0  0  0
   11.6333  -18.5457   25.8888 O   0  0  0  0  0  0  0  0  0  0  0  0
  2  1  1  0
  3  2  1  0
  4  3  1  0
  4  5  1  0
  5  6  1  1
  7  5  1  0
  7  8  2  0
 10  9  1  0
 10 12  1  0
 11 10  2  0
 13 14  1  0
 13 12  1  0
 15 14  1  0
 16 15  1  6
 16 17  1  0
 17  7  1  0
 18 16  1  0
 19 18  2  0
 21 20  1  1
 21 23  1  0
 22 21  1  0
 24 23  1  6
 24 25  1  0
 24 26  1  0
 25 18  1  0
 26 28  1  0
 27 26  2  0
M  END
$$$$
