MRL.pdb
     RDKit          3D

 28 27  0  0  1  0  0  0  0  0999 V2000
    8.7247  -11.2084   19.5984 C   0  0  0  0  0  0  0  0  0  0  0  0
    7.5075  -12.0316   18.5352 S   0  0  0  0  0  0  0  0  0  0  0  0
    7.7526  -13.8352   18.5676 C   0  0  0  0  0  0  0  0  0  0  0  0
    8.5853  -14.1898   19.7868 C   0  0  0  0  0  0  0  0  0  0  0  0
    8.7741  -15.6950   19.8472 C   0  0  2  0  0  0  0  0  0  0  0  0
    8.1437  -16.3467   18.7315 N   0  0  0  0  0  0  0  0  0  0  0  0
    8.3215  -16.1953   21.1352 C   0  0  0  0  0  0  0  0  0  0  0  0
    7.0905  -16.3972   21.4050 O   0  0  0  0  0  0  0  0  0  0  0  0
   12.2547  -21.2629   22.9387 N   0  0  0  0  0  0  0  0  0  0  0  0
   11.9027  -20.8032   24.2195 C   0  0  0  0  0  0  0  0  0  0  0  0
   12.7854  -20.5419   25.1244 N   0  0  0  0  0  0  0  0  0  0  0  0
   10.5454  -20.6131   24.5388 N   0  0  0  0  0  0  0  0  0  0  0  0
    9.4288  -20.8968   23.6834 C   0  0  0  0  0  0  0  0  0  0  0  0
    8.6946  -19.6101   23.3790 C   0  0  0  0  0  0  0  0  0  0  0  0
    9.4594  -18.4008   23.7485 C   0  0  0  0  0  0  0  0  0  0  0  0
    8.8879  -17.0732   23.4417 C   0  0  2  0  0  0  0  0  0  0  0  0
    9.2383  -16.4859   22.1745 N   0  0  0  0  0  0  0  0  0  0  0  0
    9.3502  -16.1377   24.5193 C   0  0  0  0  0  0  0  0  0  0  0  0
   10.5647  -15.7794   24.5987 O   0  0  0  0  0  0  0  0  0  0  0  0
   12.4499  -20.2252   26.0612 C   0  0  0  0  0  0  0  0  0  0  0  0
    5.7856  -12.5875   26.5672 C   0  0  2  0  0  0  0  0  0  0  0  0
    7.0579  -13.1881   25.9890 C   0  0  0  0  0  0  0  0  0  0  0  0
    8.0652  -12.1021   25.6342 C   0  0  0  0  0  0  0  0  0  0  0  0
    7.6943  -14.0372   27.0442 C   0  0  2  0  0  0  0  0  0  0  0  0
    8.9302  -14.7772   26.5770 N   0  0  0  0  0  0  0  0  0  0  0  0
    8.4618  -15.6293   25.4713 C   0  0  0  0  0  0  0  0  0  0  0  0
    9.5243  -15.6288   27.6269 O   0  0  0  0  0  0  0  0  0  0  0  0
    9.2935  -16.8591   27.7386 O   0  0  0  0  0  0  0  0  0  0  0  0
  2  1  1  0
  3  2  1  0
  4  3  1  0
  4  5  1  0
  5  6  1  6
  7  5  1  0
  7  8  2  0
 10  9  1  0
 10 12  1  0
 11 10  2  0
 13 14  1  0
 13 12  1  0
 15 14  1  0
 16 15  1  1
 16 17  1  0
 17  7  1  0
 18 16  1  0
 19 18  2  0
 21 20  1  6
 21 23  1  0
 22 21  1  0
 24 23  1  6
 24 25  1  0
 24 26  1  0
 25 18  1  0
 26 28  1  0
 27 26  2  0
M  END
$$$$
