MRL.pdb
     RDKit          3D

 28 27  0  0  1  0  0  0  0  0999 V2000
    7.0996  -11.2366   20.1392 C   0  0  0  0  0  0  0  0  0  0  0  0
    8.3087  -12.3723   19.4057 S   0  0  0  0  0  0  0  0  0  0  0  0
    7.7775  -14.0987   19.6326 C   0  0  0  0  0  0  0  0  0  0  0  0
    8.8814  -15.0153   19.1357 C   0  0  0  0  0  0  0  0  0  0  0  0
    8.4631  -16.4611   19.3347 C   0  0  2  0  0  0  0  0  0  0  0  0
    7.2426  -16.7541   18.6337 N   0  0  0  0  0  0  0  0  0  0  0  0
    8.3955  -16.7615   20.7557 C   0  0  0  0  0  0  0  0  0  0  0  0
    7.3074  -16.7167   21.4212 O   0  0  0  0  0  0  0  0  0  0  0  0
   11.1830  -20.6234   20.4895 N   0  0  0  0  0  0  0  0  0  0  0  0
   12.2709  -21.3847   20.9505 C   0  0  0  0  0  0  0  0  0  0  0  0
   12.7916  -22.3363   20.2508 N   0  0  0  0  0  0  0  0  0  0  0  0
   12.8240  -21.1084   22.2147 N   0  0  0  0  0  0  0  0  0  0  0  0
   12.3731  -20.1013   23.1320 C   0  0  0  0  0  0  0  0  0  0  0  0
   11.2398  -19.3238   22.5008 C   0  0  0  0  0  0  0  0  0  0  0  0
   10.7013  -18.2629   23.3773 C   0  0  0  0  0  0  0  0  0  0  0  0
    9.5752  -17.4387   22.8914 C   0  0  2  0  0  0  0  0  0  0  0  0
    9.5534  -17.1219   21.4869 N   0  0  0  0  0  0  0  0  0  0  0  0
    9.6211  -16.1445   23.6484 C   0  0  0  0  0  0  0  0  0  0  0  0
   10.4979  -15.2650   23.3892 O   0  0  0  0  0  0  0  0  0  0  0  0
   13.6376  -22.8179   20.6287 C   0  0  0  0  0  0  0  0  0  0  0  0
    6.3040  -11.7656   25.0875 C   0  0  2  0  0  0  0  0  0  0  0  0
    7.3171  -12.5953   25.8614 C   0  0  0  0  0  0  0  0  0  0  0  0
    6.8274  -12.8799   27.2753 C   0  0  0  0  0  0  0  0  0  0  0  0
    7.4542  -13.9199   25.1787 C   0  0  1  0  0  0  0  0  0  0  0  0
    8.7760  -14.6122   25.4371 N   0  0  0  0  0  0  0  0  0  0  0  0
    8.7021  -15.8628   24.6634 C   0  0  0  0  0  0  0  0  0  0  0  0
    8.9890  -14.9359   26.8620 O   0  0  0  0  0  0  0  0  0  0  0  0
    8.5062  -15.9503   27.4252 O   0  0  0  0  0  0  0  0  0  0  0  0
  2  1  1  0
  3  2  1  0
  4  3  1  0
  4  5  1  0
  5  6  1  1
  7  5  1  0
  7  8  2  0
 10  9  1  0
 10 12  1  0
 11 10  2  0
 13 14  1  0
 13 12  1  0
 15 14  1  0
 16 15  1  6
 16 17  1  0
 17  7  1  0
 18 16  1  0
 19 18  2  0
 21 20  1  1
 21 23  1  0
 22 21  1  0
 24 23  1  6
 24 25  1  0
 24 26  1  0
 25 18  1  0
 26 28  1  0
 27 26  2  0
M  END
$$$$
