MRL.pdb
     RDKit          3D

 28 27  0  0  1  0  0  0  0  0999 V2000
    7.7605  -12.0545   27.3063 C   0  0  0  0  0  0  0  0  0  0  0  0
    6.0642  -11.9305   26.6763 S   0  0  0  0  0  0  0  0  0  0  0  0
    5.5311  -13.5214   25.9699 C   0  0  0  0  0  0  0  0  0  0  0  0
    6.7649  -14.3301   25.6098 C   0  0  0  0  0  0  0  0  0  0  0  0
    6.3402  -15.6291   24.9488 C   0  0  2  0  0  0  0  0  0  0  0  0
    5.4230  -16.3627   25.7779 N   0  0  0  0  0  0  0  0  0  0  0  0
    7.5167  -16.3973   24.5749 C   0  0  0  0  0  0  0  0  0  0  0  0
    7.9528  -17.3761   25.2681 O   0  0  0  0  0  0  0  0  0  0  0  0
    7.8857  -14.6839   18.3465 N   0  0  0  0  0  0  0  0  0  0  0  0
    8.4746  -13.4692   18.7381 C   0  0  0  0  0  0  0  0  0  0  0  0
    7.9010  -12.3299   18.5396 N   0  0  0  0  0  0  0  0  0  0  0  0
    9.7305  -13.4807   19.3729 N   0  0  0  0  0  0  0  0  0  0  0  0
   10.3675  -14.6225   19.9640 C   0  0  0  0  0  0  0  0  0  0  0  0
    9.4024  -15.2950   20.9146 C   0  0  0  0  0  0  0  0  0  0  0  0
   10.0105  -16.4090   21.6717 C   0  0  0  0  0  0  0  0  0  0  0  0
    9.4795  -16.7354   23.0113 C   0  0  2  0  0  0  0  0  0  0  0  0
    8.2530  -16.0915   23.4046 N   0  0  0  0  0  0  0  0  0  0  0  0
   10.5340  -16.3505   24.0062 C   0  0  0  0  0  0  0  0  0  0  0  0
   11.3298  -15.3891   23.7781 O   0  0  0  0  0  0  0  0  0  0  0  0
    8.3722  -11.4723   18.9044 C   0  0  0  0  0  0  0  0  0  0  0  0
   10.1739  -13.1237   27.9400 C   0  0  2  0  0  0  0  0  0  0  0  0
   10.9147  -14.4520   27.9176 C   0  0  0  0  0  0  0  0  0  0  0  0
   10.5689  -15.2935   29.1391 C   0  0  0  0  0  0  0  0  0  0  0  0
   10.4548  -15.2224   26.7200 C   0  0  1  0  0  0  0  0  0  0  0  0
   11.3306  -16.4095   26.3776 N   0  0  0  0  0  0  0  0  0  0  0  0
   10.6767  -17.0356   25.2163 C   0  0  0  0  0  0  0  0  0  0  0  0
   11.4202  -17.3955   27.4731 O   0  0  0  0  0  0  0  0  0  0  0  0
   10.5966  -18.3304   27.6374 O   0  0  0  0  0  0  0  0  0  0  0  0
  2  1  1  0
  3  2  1  0
  4  3  1  0
  4  5  1  0
  5  6  1  1
  7  5  1  0
  7  8  2  0
 10  9  1  0
 10 12  1  0
 11 10  2  0
 13 14  1  0
 13 12  1  0
 15 14  1  0
 16 15  1  6
 16 17  1  0
 17  7  1  0
 18 16  1  0
 19 18  2  0
 21 20  1  1
 21 23  1  0
 22 21  1  0
 24 23  1  6
 24 25  1  0
 24 26  1  0
 25 18  1  0
 26 28  1  0
 27 26  2  0
M  END
$$$$
