MRL.pdb
     RDKit          3D

 28 27  0  0  1  0  0  0  0  0999 V2000
    8.4677  -11.3457   20.4807 C   0  0  0  0  0  0  0  0  0  0  0  0
    7.5687  -11.9381   19.0210 S   0  0  0  0  0  0  0  0  0  0  0  0
    7.7870  -13.7350   18.8267 C   0  0  0  0  0  0  0  0  0  0  0  0
    7.7013  -14.3851   20.1963 C   0  0  0  0  0  0  0  0  0  0  0  0
    8.0161  -15.8650   20.0718 C   0  0  2  0  0  0  0  0  0  0  0  0
    7.0872  -16.5258   19.1957 N   0  0  0  0  0  0  0  0  0  0  0  0
    8.0847  -16.4653   21.3943 C   0  0  0  0  0  0  0  0  0  0  0  0
    7.0544  -16.8941   22.0136 O   0  0  0  0  0  0  0  0  0  0  0  0
   13.9317  -21.5938   25.4011 N   0  0  0  0  0  0  0  0  0  0  0  0
   13.0526  -21.4228   24.3178 C   0  0  0  0  0  0  0  0  0  0  0  0
   13.0699  -22.1999   23.2871 N   0  0  0  0  0  0  0  0  0  0  0  0
   12.1134  -20.3751   24.3460 N   0  0  0  0  0  0  0  0  0  0  0  0
   12.1394  -19.2411   25.2248 C   0  0  0  0  0  0  0  0  0  0  0  0
   10.8556  -18.4577   25.0657 C   0  0  0  0  0  0  0  0  0  0  0  0
   10.6751  -17.9033   23.7078 C   0  0  0  0  0  0  0  0  0  0  0  0
    9.4662  -17.1048   23.4176 C   0  0  2  0  0  0  0  0  0  0  0  0
    9.3183  -16.6044   22.0755 N   0  0  0  0  0  0  0  0  0  0  0  0
    9.4887  -15.9243   24.3427 C   0  0  0  0  0  0  0  0  0  0  0  0
   10.3292  -14.9867   24.1878 O   0  0  0  0  0  0  0  0  0  0  0  0
   12.3866  -22.0136   22.5197 C   0  0  0  0  0  0  0  0  0  0  0  0
    8.0320  -11.9443   26.7074 C   0  0  2  0  0  0  0  0  0  0  0  0
    6.9452  -12.7409   26.0018 C   0  0  0  0  0  0  0  0  0  0  0  0
    7.0671  -12.6144   24.4888 C   0  0  0  0  0  0  0  0  0  0  0  0
    7.1400  -14.1879   26.3297 C   0  0  2  0  0  0  0  0  0  0  0  0
    8.5851  -14.6393   26.2906 N   0  0  0  0  0  0  0  0  0  0  0  0
    8.5868  -15.8159   25.4052 C   0  0  0  0  0  0  0  0  0  0  0  0
    9.1037  -15.0300   27.6168 O   0  0  0  0  0  0  0  0  0  0  0  0
    9.0018  -16.1898   28.0901 O   0  0  0  0  0  0  0  0  0  0  0  0
  2  1  1  0
  3  2  1  0
  4  3  1  0
  4  5  1  0
  5  6  1  6
  7  5  1  0
  7  8  2  0
 10  9  1  0
 10 12  1  0
 11 10  2  0
 13 14  1  0
 13 12  1  0
 15 14  1  0
 16 15  1  6
 16 17  1  0
 17  7  1  0
 18 16  1  0
 19 18  2  0
 21 20  1  1
 21 23  1  0
 22 21  1  0
 24 23  1  6
 24 25  1  0
 24 26  1  0
 25 18  1  0
 26 28  1  0
 27 26  2  0
M  END
$$$$
