MRL.pdb
     RDKit          3D

 28 27  0  0  1  0  0  0  0  0999 V2000
    6.5722  -11.7059   25.7564 C   0  0  0  0  0  0  0  0  0  0  0  0
    5.3795  -12.6346   26.7588 S   0  0  0  0  0  0  0  0  0  0  0  0
    5.1199  -14.2956   26.0602 C   0  0  0  0  0  0  0  0  0  0  0  0
    6.4717  -14.8898   25.7064 C   0  0  0  0  0  0  0  0  0  0  0  0
    6.2677  -16.1907   24.9509 C   0  0  2  0  0  0  0  0  0  0  0  0
    5.5152  -17.1360   25.7301 N   0  0  0  0  0  0  0  0  0  0  0  0
    7.5521  -16.7067   24.5058 C   0  0  0  0  0  0  0  0  0  0  0  0
    7.9751  -17.8703   24.8156 O   0  0  0  0  0  0  0  0  0  0  0  0
    9.5581  -12.3913   19.4104 N   0  0  0  0  0  0  0  0  0  0  0  0
    8.7320  -13.2321   18.6447 C   0  0  0  0  0  0  0  0  0  0  0  0
    7.8979  -12.7712   17.7738 N   0  0  0  0  0  0  0  0  0  0  0  0
    8.8090  -14.6262   18.8200 N   0  0  0  0  0  0  0  0  0  0  0  0
    9.7026  -15.3181   19.7042 C   0  0  0  0  0  0  0  0  0  0  0  0
    9.4340  -14.8805   21.1268 C   0  0  0  0  0  0  0  0  0  0  0  0
   10.3018  -15.5514   22.1170 C   0  0  0  0  0  0  0  0  0  0  0  0
    9.6769  -16.3816   23.1675 C   0  0  2  0  0  0  0  0  0  0  0  0
    8.4153  -15.9303   23.6950 N   0  0  0  0  0  0  0  0  0  0  0  0
   10.6485  -16.4487   24.3084 C   0  0  0  0  0  0  0  0  0  0  0  0
   11.8916  -16.5964   24.1021 O   0  0  0  0  0  0  0  0  0  0  0  0
    7.2899  -13.4525   17.2672 C   0  0  0  0  0  0  0  0  0  0  0  0
   11.2064  -13.7401   26.8755 C   0  0  2  0  0  0  0  0  0  0  0  0
   10.9868  -14.4432   28.2063 C   0  0  0  0  0  0  0  0  0  0  0  0
    9.9127  -13.7412   29.0269 C   0  0  0  0  0  0  0  0  0  0  0  0
   10.4813  -15.8237   27.9268 C   0  0  2  0  0  0  0  0  0  0  0  0
   11.1614  -16.5036   26.7569 N   0  0  0  0  0  0  0  0  0  0  0  0
   10.2197  -16.3514   25.6353 C   0  0  0  0  0  0  0  0  0  0  0  0
   11.4098  -17.9405   26.9895 O   0  0  0  0  0  0  0  0  0  0  0  0
   10.7234  -18.8581   26.4734 O   0  0  0  0  0  0  0  0  0  0  0  0
  2  1  1  0
  3  2  1  0
  4  3  1  0
  4  5  1  0
  5  6  1  1
  7  5  1  0
  7  8  2  0
 10  9  1  0
 10 12  1  0
 11 10  2  0
 13 14  1  0
 13 12  1  0
 15 14  1  0
 16 15  1  6
 16 17  1  0
 17  7  1  0
 18 16  1  0
 19 18  2  0
 21 20  1  1
 21 23  1  0
 22 21  1  0
 24 23  1  6
 24 25  1  0
 24 26  1  0
 25 18  1  0
 26 28  1  0
 27 26  2  0
M  END
$$$$
