QLH.pdb
     RDKit          3D

 28 28  0  0  1  0  0  0  0  0999 V2000
    6.6450  -12.9989   18.0896 N   0  0  0  0  0  0  0  0  0  0  0  0
    7.4622  -14.0705   17.5882 C   0  0  0  0  0  0  0  0  0  0  0  0
    7.7323  -14.1592   16.3715 O   0  0  0  0  0  0  0  0  0  0  0  0
    7.9585  -15.0420   18.5587 C   0  0  0  0  0  0  0  0  0  0  0  0
    7.3242  -14.9755   19.9120 C   0  0  0  0  0  0  0  0  0  0  0  0
    8.0839  -15.7509   20.9381 C   0  0  2  0  0  0  0  0  0  0  0  0
    7.6419  -17.1166   20.9370 N   0  0  0  0  0  0  0  0  0  0  0  0
    7.7441  -15.1371   22.2775 C   0  0  0  0  0  0  0  0  0  0  0  0
    6.6661  -14.5225   22.4235 O   0  0  0  0  0  0  0  0  0  0  0  0
    6.0540  -12.3301   26.2698 C   0  0  0  0  0  0  0  0  0  0  0  0
    7.5488  -12.6057   25.9463 C   0  0  2  0  0  0  0  0  0  0  0  0
    8.0316  -11.2282   25.4572 C   0  0  0  0  0  0  0  0  0  0  0  0
    7.5810  -13.5751   24.8575 C   0  0  0  0  0  0  0  0  0  0  0  0
    8.7902  -14.2412   24.3876 C   0  0  2  0  0  0  0  0  0  0  0  0
    8.6259  -15.2447   23.3752 N   0  0  0  0  0  0  0  0  0  0  0  0
    9.8574  -14.5664   25.3609 C   0  0  0  0  0  0  0  0  0  0  0  0
   10.2471  -13.7967   26.2517 O   0  0  0  0  0  0  0  0  0  0  0  0
   10.4822  -15.8300   25.2782 N   0  0  0  0  0  0  0  0  0  0  0  0
   10.9257  -16.6466   26.3756 C   0  0  1  0  0  0  0  0  0  0  0  0
    9.8831  -16.8544   27.4810 C   0  0  0  0  0  0  0  0  0  0  0  0
    9.9474  -15.8310   28.5328 C   0  0  0  0  0  0  0  0  0  0  0  0
   10.3671  -14.5028   28.3808 C   0  0  0  0  0  0  0  0  0  0  0  0
   10.2924  -13.8593   29.5588 N   0  0  0  0  0  0  0  0  0  0  0  0
    9.8355  -14.7530   30.4463 C   0  0  0  0  0  0  0  0  0  0  0  0
    9.6323  -15.9375   29.8121 N   0  0  0  0  0  0  0  0  0  0  0  0
   11.6659  -17.8469   26.0274 C   0  0  0  0  0  0  0  0  0  0  0  0
   11.8689  -18.2589   24.8494 O   0  0  0  0  0  0  0  0  0  0  0  0
   12.2152  -18.6409   27.0319 O   0  0  0  0  0  0  0  0  0  0  0  0
  2  3  2  0
  2  1  1  0
  4  2  1  0
  5  4  1  0
  5  6  1  0
  6  8  1  0
  6  7  1  1
  8  9  2  0
 11 10  1  6
 12 11  1  0
 13 11  1  0
 14 13  1  1
 15 14  1  0
 15  8  1  0
 16 17  2  0
 16 14  1  0
 18 16  1  0
 19 18  1  0
 19 26  1  0
 19 20  1  6
 21 25  1  0
 21 20  1  0
 22 21  2  0
 23 22  1  0
 23 24  1  0
 24 25  2  0
 26 28  1  0
 27 26  2  0
M  END
$$$$
