QLH.pdb
     RDKit          3D

 28 28  0  0  1  0  0  0  0  0999 V2000
    8.1632  -20.6964   22.4025 N   0  0  0  0  0  0  0  0  0  0  0  0
    7.7234  -20.2828   21.0975 C   0  0  0  0  0  0  0  0  0  0  0  0
    7.5091  -21.1199   20.1949 O   0  0  0  0  0  0  0  0  0  0  0  0
    7.5396  -18.8510   20.8776 C   0  0  0  0  0  0  0  0  0  0  0  0
    7.7531  -17.9866   22.0798 C   0  0  0  0  0  0  0  0  0  0  0  0
    7.5236  -16.5392   21.7911 C   0  0  2  0  0  0  0  0  0  0  0  0
    8.1751  -16.1819   20.5630 N   0  0  0  0  0  0  0  0  0  0  0  0
    8.1709  -15.7691   22.9199 C   0  0  0  0  0  0  0  0  0  0  0  0
    9.3218  -15.3049   22.7752 O   0  0  0  0  0  0  0  0  0  0  0  0
    7.7273  -11.6482   25.6621 C   0  0  0  0  0  0  0  0  0  0  0  0
    6.5674  -12.6693   25.4964 C   0  0  2  0  0  0  0  0  0  0  0  0
    5.5077  -12.1125   26.4644 C   0  0  0  0  0  0  0  0  0  0  0  0
    7.0604  -13.9592   25.9648 C   0  0  0  0  0  0  0  0  0  0  0  0
    8.0137  -14.7870   25.2352 C   0  0  2  0  0  0  0  0  0  0  0  0
    7.4971  -15.5618   24.1434 N   0  0  0  0  0  0  0  0  0  0  0  0
    9.0859  -15.4807   25.9844 C   0  0  0  0  0  0  0  0  0  0  0  0
    9.8449  -14.9241   26.7919 O   0  0  0  0  0  0  0  0  0  0  0  0
    9.2686  -16.8648   25.7725 N   0  0  0  0  0  0  0  0  0  0  0  0
   10.3009  -17.6944   26.3327 C   0  0  1  0  0  0  0  0  0  0  0  0
   11.7190  -17.3649   25.8504 C   0  0  0  0  0  0  0  0  0  0  0  0
   11.8033  -17.1774   24.3959 C   0  0  0  0  0  0  0  0  0  0  0  0
   12.5152  -16.1755   23.7231 C   0  0  0  0  0  0  0  0  0  0  0  0
   12.3634  -16.3165   22.3947 N   0  0  0  0  0  0  0  0  0  0  0  0
   11.5728  -17.3836   22.2186 C   0  0  0  0  0  0  0  0  0  0  0  0
   11.2433  -17.8919   23.4351 N   0  0  0  0  0  0  0  0  0  0  0  0
   10.2083  -17.9644   27.7569 C   0  0  0  0  0  0  0  0  0  0  0  0
    9.2686  -17.5786   28.5097 O   0  0  0  0  0  0  0  0  0  0  0  0
   11.2063  -18.7014   28.3911 O   0  0  0  0  0  0  0  0  0  0  0  0
  2  3  2  0
  2  1  1  0
  4  2  1  0
  5  4  1  0
  5  6  1  0
  6  8  1  0
  6  7  1  6
  8  9  2  0
 11 10  1  1
 12 11  1  0
 13 11  1  0
 14 13  1  1
 15 14  1  0
 15  8  1  0
 16 17  2  0
 16 14  1  0
 18 16  1  0
 19 18  1  0
 19 26  1  0
 19 20  1  1
 21 25  1  0
 21 20  1  0
 22 21  2  0
 23 22  1  0
 23 24  1  0
 24 25  2  0
 26 28  1  0
 27 26  2  0
M  END
$$$$
