QLH.pdb
     RDKit          3D

 28 28  0  0  1  0  0  0  0  0999 V2000
    8.5845  -12.3268   18.6694 N   0  0  0  0  0  0  0  0  0  0  0  0
    7.9299  -13.6044   18.5854 C   0  0  0  0  0  0  0  0  0  0  0  0
    7.6215  -14.0983   17.4799 O   0  0  0  0  0  0  0  0  0  0  0  0
    7.6451  -14.2925   19.8414 C   0  0  0  0  0  0  0  0  0  0  0  0
    8.7242  -14.2110   20.8743 C   0  0  0  0  0  0  0  0  0  0  0  0
    8.8244  -15.4547   21.6957 C   0  0  2  0  0  0  0  0  0  0  0  0
    7.5724  -16.1562   21.6653 N   0  0  0  0  0  0  0  0  0  0  0  0
    9.0915  -15.0100   23.1159 C   0  0  0  0  0  0  0  0  0  0  0  0
   10.1110  -14.3354   23.3742 O   0  0  0  0  0  0  0  0  0  0  0  0
    8.0797  -11.9065   26.1397 C   0  0  0  0  0  0  0  0  0  0  0  0
    6.9563  -12.9117   25.7616 C   0  0  2  0  0  0  0  0  0  0  0  0
    5.7778  -12.4143   26.6182 C   0  0  0  0  0  0  0  0  0  0  0  0
    7.3918  -14.2301   26.2072 C   0  0  0  0  0  0  0  0  0  0  0  0
    8.4236  -15.0202   25.5456 C   0  0  2  0  0  0  0  0  0  0  0  0
    8.2066  -15.3436   24.1645 N   0  0  0  0  0  0  0  0  0  0  0  0
    9.0932  -16.1049   26.2986 C   0  0  0  0  0  0  0  0  0  0  0  0
    9.3089  -16.0762   27.5194 O   0  0  0  0  0  0  0  0  0  0  0  0
    9.5218  -17.2500   25.5922 N   0  0  0  0  0  0  0  0  0  0  0  0
   10.2493  -18.3701   26.1249 C   0  0  1  0  0  0  0  0  0  0  0  0
    9.6885  -19.7426   25.7326 C   0  0  0  0  0  0  0  0  0  0  0  0
    8.2820  -19.9210   26.1168 C   0  0  0  0  0  0  0  0  0  0  0  0
    7.7328  -19.7227   27.3906 C   0  0  0  0  0  0  0  0  0  0  0  0
    6.4137  -19.9808   27.3679 N   0  0  0  0  0  0  0  0  0  0  0  0
    6.1225  -20.3364   26.1095 C   0  0  0  0  0  0  0  0  0  0  0  0
    7.2599  -20.2954   25.3670 N   0  0  0  0  0  0  0  0  0  0  0  0
   11.6981  -18.2841   26.0658 C   0  0  0  0  0  0  0  0  0  0  0  0
   12.4969  -19.1052   26.6010 O   0  0  0  0  0  0  0  0  0  0  0  0
   12.3048  -17.2349   25.3785 O   0  0  0  0  0  0  0  0  0  0  0  0
  2  3  2  0
  2  1  1  0
  4  2  1  0
  5  4  1  0
  5  6  1  0
  6  8  1  0
  6  7  1  1
  8  9  2  0
 11 10  1  1
 12 11  1  0
 13 11  1  0
 14 13  1  1
 15 14  1  0
 15  8  1  0
 16 17  2  0
 16 14  1  0
 18 16  1  0
 19 18  1  0
 19 26  1  0
 19 20  1  6
 21 25  1  0
 21 20  1  0
 22 21  2  0
 23 22  1  0
 23 24  1  0
 24 25  2  0
 26 28  1  0
 27 26  2  0
M  END
$$$$
