QLH.pdb
     RDKit          3D

 28 28  0  0  1  0  0  0  0  0999 V2000
    6.7188  -20.9008   18.0270 N   0  0  0  0  0  0  0  0  0  0  0  0
    7.6263  -20.1689   17.1853 C   0  0  0  0  0  0  0  0  0  0  0  0
    7.2056  -19.4750   16.2352 O   0  0  0  0  0  0  0  0  0  0  0  0
    9.0505  -20.2725   17.4902 C   0  0  0  0  0  0  0  0  0  0  0  0
    9.5620  -19.2920   18.4977 C   0  0  0  0  0  0  0  0  0  0  0  0
    9.9255  -17.9793   17.8845 C   0  0  2  0  0  0  0  0  0  0  0  0
   11.1456  -18.1146   17.1404 N   0  0  0  0  0  0  0  0  0  0  0  0
   10.1653  -17.0225   19.0305 C   0  0  0  0  0  0  0  0  0  0  0  0
   11.2694  -17.0184   19.6153 O   0  0  0  0  0  0  0  0  0  0  0  0
    9.0607  -12.2714   19.5854 C   0  0  0  0  0  0  0  0  0  0  0  0
    7.9504  -13.3551   19.6748 C   0  0  2  0  0  0  0  0  0  0  0  0
    6.7080  -12.5152   20.0225 C   0  0  0  0  0  0  0  0  0  0  0  0
    8.2985  -14.2364   20.7833 C   0  0  0  0  0  0  0  0  0  0  0  0
    9.2092  -15.3701   20.6751 C   0  0  2  0  0  0  0  0  0  0  0  0
    9.1604  -16.1270   19.4570 N   0  0  0  0  0  0  0  0  0  0  0  0
    9.4621  -16.2069   21.8700 C   0  0  0  0  0  0  0  0  0  0  0  0
    8.7315  -17.1400   22.2353 O   0  0  0  0  0  0  0  0  0  0  0  0
   10.6037  -15.9333   22.6546 N   0  0  0  0  0  0  0  0  0  0  0  0
   11.2179  -16.8065   23.6181 C   0  0  1  0  0  0  0  0  0  0  0  0
   11.3660  -18.2624   23.1594 C   0  0  0  0  0  0  0  0  0  0  0  0
   11.8607  -19.1522   24.2183 C   0  0  0  0  0  0  0  0  0  0  0  0
   12.0457  -18.8220   25.5675 C   0  0  0  0  0  0  0  0  0  0  0  0
   12.5117  -19.8875   26.2419 N   0  0  0  0  0  0  0  0  0  0  0  0
   12.6234  -20.8784   25.3472 C   0  0  0  0  0  0  0  0  0  0  0  0
   12.2269  -20.4192   24.1312 N   0  0  0  0  0  0  0  0  0  0  0  0
   12.3820  -16.2833   24.3116 C   0  0  0  0  0  0  0  0  0  0  0  0
   12.9095  -15.1546   24.0959 O   0  0  0  0  0  0  0  0  0  0  0  0
   13.0029  -17.0445   25.2997 O   0  0  0  0  0  0  0  0  0  0  0  0
  2  3  2  0
  2  1  1  0
  4  2  1  0
  5  4  1  0
  5  6  1  0
  6  8  1  0
  6  7  1  1
  8  9  2  0
 11 10  1  1
 12 11  1  0
 13 11  1  0
 14 13  1  1
 15 14  1  0
 15  8  1  0
 16 17  2  0
 16 14  1  0
 18 16  1  0
 19 18  1  0
 19 26  1  0
 19 20  1  6
 21 25  1  0
 21 20  1  0
 22 21  2  0
 23 22  1  0
 23 24  1  0
 24 25  2  0
 26 28  1  0
 27 26  2  0
M  END
$$$$
