QLH.pdb
     RDKit          3D

 28 28  0  0  1  0  0  0  0  0999 V2000
    6.6914  -19.7360   23.7884 N   0  0  0  0  0  0  0  0  0  0  0  0
    5.8132  -19.3710   22.7099 C   0  0  0  0  0  0  0  0  0  0  0  0
    4.7204  -19.9536   22.5441 O   0  0  0  0  0  0  0  0  0  0  0  0
    6.2535  -18.2961   21.8250 C   0  0  0  0  0  0  0  0  0  0  0  0
    7.5691  -17.6767   22.1764 C   0  0  0  0  0  0  0  0  0  0  0  0
    7.5542  -16.1890   22.0434 C   0  0  2  0  0  0  0  0  0  0  0  0
    8.3266  -15.7982   20.8983 N   0  0  0  0  0  0  0  0  0  0  0  0
    8.2231  -15.6410   23.2837 C   0  0  0  0  0  0  0  0  0  0  0  0
    9.4682  -15.5467   23.3277 O   0  0  0  0  0  0  0  0  0  0  0  0
    7.9672  -11.6161   25.6603 C   0  0  0  0  0  0  0  0  0  0  0  0
    6.7899  -12.6167   25.8273 C   0  0  2  0  0  0  0  0  0  0  0  0
    5.8828  -11.8819   26.8308 C   0  0  0  0  0  0  0  0  0  0  0  0
    7.3377  -13.8286   26.4255 C   0  0  0  0  0  0  0  0  0  0  0  0
    8.0211  -14.8765   25.6763 C   0  0  2  0  0  0  0  0  0  0  0  0
    7.4647  -15.2304   24.4019 N   0  0  0  0  0  0  0  0  0  0  0  0
    8.5826  -16.0349   26.4076 C   0  0  0  0  0  0  0  0  0  0  0  0
    7.9069  -16.9801   26.8411 O   0  0  0  0  0  0  0  0  0  0  0  0
    9.9755  -16.0768   26.6355 N   0  0  0  0  0  0  0  0  0  0  0  0
   10.6910  -17.0375   27.4311 C   0  0  1  0  0  0  0  0  0  0  0  0
   12.0847  -17.3964   26.9012 C   0  0  0  0  0  0  0  0  0  0  0  0
   12.0733  -17.8274   25.4970 C   0  0  0  0  0  0  0  0  0  0  0  0
   11.0026  -18.4193   24.8139 C   0  0  0  0  0  0  0  0  0  0  0  0
   11.3550  -18.6786   23.5428 N   0  0  0  0  0  0  0  0  0  0  0  0
   12.6221  -18.2632   23.4125 C   0  0  0  0  0  0  0  0  0  0  0  0
   13.0412  -17.7522   24.5999 N   0  0  0  0  0  0  0  0  0  0  0  0
   10.6352  -16.8511   28.8705 C   0  0  0  0  0  0  0  0  0  0  0  0
   11.1633  -17.6206   29.7236 O   0  0  0  0  0  0  0  0  0  0  0  0
    9.9600  -15.7553   29.4040 O   0  0  0  0  0  0  0  0  0  0  0  0
  2  3  2  0
  2  1  1  0
  4  2  1  0
  5  4  1  0
  5  6  1  0
  6  8  1  0
  6  7  1  6
  8  9  2  0
 11 10  1  1
 12 11  1  0
 13 11  1  0
 14 13  1  1
 15 14  1  0
 15  8  1  0
 16 17  2  0
 16 14  1  0
 18 16  1  0
 19 18  1  0
 19 26  1  0
 19 20  1  6
 21 25  1  0
 21 20  1  0
 22 21  2  0
 23 22  1  0
 23 24  1  0
 24 25  2  0
 26 28  1  0
 27 26  2  0
M  END
$$$$
