QLH.pdb
     RDKit          3D

 28 28  0  0  1  0  0  0  0  0999 V2000
    9.4858  -22.2593   19.1460 N   0  0  0  0  0  0  0  0  0  0  0  0
    9.3694  -22.0423   17.7293 C   0  0  0  0  0  0  0  0  0  0  0  0
    9.1496  -22.9925   16.9483 O   0  0  0  0  0  0  0  0  0  0  0  0
    9.5182  -20.6713   17.2494 C   0  0  0  0  0  0  0  0  0  0  0  0
    9.7269  -19.6403   18.3132 C   0  0  0  0  0  0  0  0  0  0  0  0
    9.3043  -18.2756   17.8773 C   0  0  2  0  0  0  0  0  0  0  0  0
   10.0050  -17.9124   16.6783 N   0  0  0  0  0  0  0  0  0  0  0  0
    9.7158  -17.3267   18.9802 C   0  0  0  0  0  0  0  0  0  0  0  0
   10.9257  -17.1854   19.2586 O   0  0  0  0  0  0  0  0  0  0  0  0
    9.0550  -12.7143   19.5554 C   0  0  0  0  0  0  0  0  0  0  0  0
    7.8500  -13.6550   19.8354 C   0  0  2  0  0  0  0  0  0  0  0  0
    6.7617  -12.6607   20.2788 C   0  0  0  0  0  0  0  0  0  0  0  0
    8.2314  -14.5234   20.9431 C   0  0  0  0  0  0  0  0  0  0  0  0
    9.0590  -15.7158   20.8032 C   0  0  2  0  0  0  0  0  0  0  0  0
    8.7547  -16.5913   19.7078 N   0  0  0  0  0  0  0  0  0  0  0  0
    9.4937  -16.4373   22.0208 C   0  0  0  0  0  0  0  0  0  0  0  0
    8.8362  -17.3317   22.5736 O   0  0  0  0  0  0  0  0  0  0  0  0
   10.7334  -16.0920   22.6018 N   0  0  0  0  0  0  0  0  0  0  0  0
   11.3119  -16.6485   23.7950 C   0  0  1  0  0  0  0  0  0  0  0  0
   12.8301  -16.8568   23.7332 C   0  0  0  0  0  0  0  0  0  0  0  0
   13.2500  -17.7012   22.6070 C   0  0  0  0  0  0  0  0  0  0  0  0
   12.5774  -18.8257   22.1104 C   0  0  0  0  0  0  0  0  0  0  0  0
   13.2559  -19.3465   21.0732 N   0  0  0  0  0  0  0  0  0  0  0  0
   14.3385  -18.5749   20.9076 C   0  0  0  0  0  0  0  0  0  0  0  0
   14.3207  -17.5868   21.8404 N   0  0  0  0  0  0  0  0  0  0  0  0
   10.8406  -16.1010   25.0551 C   0  0  0  0  0  0  0  0  0  0  0  0
   10.0008  -15.1629   25.1707 O   0  0  0  0  0  0  0  0  0  0  0  0
   11.3200  -16.6140   26.2586 O   0  0  0  0  0  0  0  0  0  0  0  0
  2  3  2  0
  2  1  1  0
  4  2  1  0
  5  4  1  0
  5  6  1  0
  6  8  1  0
  6  7  1  6
  8  9  2  0
 11 10  1  1
 12 11  1  0
 13 11  1  0
 14 13  1  1
 15 14  1  0
 15  8  1  0
 16 17  2  0
 16 14  1  0
 18 16  1  0
 19 18  1  0
 19 26  1  0
 19 20  1  6
 21 25  1  0
 21 20  1  0
 22 21  2  0
 23 22  1  0
 23 24  1  0
 24 25  2  0
 26 28  1  0
 27 26  2  0
M  END
$$$$
