QLH.pdb
     RDKit          3D

 28 28  0  0  1  0  0  0  0  0999 V2000
   10.5177  -15.2907   18.4898 N   0  0  0  0  0  0  0  0  0  0  0  0
    9.4198  -16.1673   18.1835 C   0  0  0  0  0  0  0  0  0  0  0  0
    9.4054  -16.8369   17.1287 O   0  0  0  0  0  0  0  0  0  0  0  0
    8.3315  -16.2387   19.1544 C   0  0  0  0  0  0  0  0  0  0  0  0
    8.5449  -15.4583   20.4129 C   0  0  0  0  0  0  0  0  0  0  0  0
    8.9121  -16.3288   21.5699 C   0  0  2  0  0  0  0  0  0  0  0  0
    7.9691  -17.4051   21.6835 N   0  0  0  0  0  0  0  0  0  0  0  0
    8.8065  -15.4652   22.8065 C   0  0  0  0  0  0  0  0  0  0  0  0
    8.9637  -14.2290   22.7160 O   0  0  0  0  0  0  0  0  0  0  0  0
    8.5720  -12.9490   26.5054 C   0  0  0  0  0  0  0  0  0  0  0  0
    7.3479  -12.8368   25.5545 C   0  0  2  0  0  0  0  0  0  0  0  0
    6.1926  -12.5988   26.5437 C   0  0  0  0  0  0  0  0  0  0  0  0
    7.1975  -14.1280   24.8937 C   0  0  0  0  0  0  0  0  0  0  0  0
    8.0103  -15.3015   25.1917 C   0  0  2  0  0  0  0  0  0  0  0  0
    8.5319  -16.0304   24.0710 N   0  0  0  0  0  0  0  0  0  0  0  0
    7.6274  -16.1736   26.3252 C   0  0  0  0  0  0  0  0  0  0  0  0
    6.4651  -16.5303   26.5690 O   0  0  0  0  0  0  0  0  0  0  0  0
    8.6413  -16.6328   27.1941 N   0  0  0  0  0  0  0  0  0  0  0  0
    9.2036  -17.9555   27.2408 C   0  0  1  0  0  0  0  0  0  0  0  0
    9.5088  -18.5700   25.8691 C   0  0  0  0  0  0  0  0  0  0  0  0
    8.3575  -19.2684   25.2822 C   0  0  0  0  0  0  0  0  0  0  0  0
    7.0870  -19.4120   25.8555 C   0  0  0  0  0  0  0  0  0  0  0  0
    6.2869  -20.1105   25.0314 N   0  0  0  0  0  0  0  0  0  0  0  0
    7.0259  -20.4084   23.9543 C   0  0  0  0  0  0  0  0  0  0  0  0
    8.2724  -19.8936   24.1207 N   0  0  0  0  0  0  0  0  0  0  0  0
   10.2400  -18.1802   28.2334 C   0  0  0  0  0  0  0  0  0  0  0  0
   10.2143  -19.0824   29.1189 O   0  0  0  0  0  0  0  0  0  0  0  0
   11.3706  -17.3662   28.2546 O   0  0  0  0  0  0  0  0  0  0  0  0
  2  3  2  0
  2  1  1  0
  4  2  1  0
  5  4  1  0
  5  6  1  0
  6  8  1  0
  6  7  1  1
  8  9  2  0
 11 10  1  1
 12 11  1  0
 13 11  1  0
 14 13  1  6
 15 14  1  0
 15  8  1  0
 16 17  2  0
 16 14  1  0
 18 16  1  0
 19 18  1  0
 19 26  1  0
 19 20  1  6
 21 25  1  0
 21 20  1  0
 22 21  2  0
 23 22  1  0
 23 24  1  0
 24 25  2  0
 26 28  1  0
 27 26  2  0
M  END
$$$$
