MYQ.pdb
     RDKit          3D

 30 30  0  0  1  0  0  0  0  0999 V2000
   21.2522  -26.0560  -21.2914 C   0  0  0  0  0  0  0  0  0  0  0  0
   22.9821  -25.9004  -20.8387 S   0  0  0  0  0  0  0  0  0  0  0  0
   23.1504  -24.9465  -19.3054 C   0  0  0  0  0  0  0  0  0  0  0  0
   22.5120  -25.5794  -18.1260 C   0  0  0  0  0  0  0  0  0  0  0  0
   22.4899  -24.7536  -16.9215 C   0  0  2  0  0  0  0  0  0  0  0  0
   23.8825  -24.5839  -16.3668 N   0  0  0  0  0  0  0  0  0  0  0  0
   21.7927  -25.3216  -15.7225 C   0  0  0  0  0  0  0  0  0  0  0  0
   21.8668  -26.5807  -15.5166 O   0  0  0  0  0  0  0  0  0  0  0  0
   17.3538  -25.7100   -7.9392 O   0  0  0  0  0  0  0  0  0  0  0  0
   18.0680  -25.3373   -9.0770 C   0  0  0  0  0  0  0  0  0  0  0  0
   19.1681  -26.0538   -9.4850 C   0  0  0  0  0  0  0  0  0  0  0  0
   19.8759  -25.6884  -10.6110 C   0  0  0  0  0  0  0  0  0  0  0  0
   19.5272  -24.5996  -11.3792 C   0  0  0  0  0  0  0  0  0  0  0  0
   20.3160  -24.2771  -12.5462 C   0  0  0  0  0  0  0  0  0  0  0  0
   20.3271  -25.2600  -13.6754 C   0  0  2  0  0  0  0  0  0  0  0  0
   21.0431  -24.5905  -14.7845 N   0  0  0  0  0  0  0  0  0  0  0  0
   19.0209  -25.7287  -14.0938 C   0  0  0  0  0  0  0  0  0  0  0  0
   18.3158  -24.9302  -14.8031 O   0  0  0  0  0  0  0  0  0  0  0  0
   18.4265  -23.8836  -10.9681 C   0  0  0  0  0  0  0  0  0  0  0  0
   17.6965  -24.2367   -9.8346 C   0  0  0  0  0  0  0  0  0  0  0  0
   16.6915  -30.8775  -16.2692 N   0  0  0  0  0  0  0  0  0  0  0  0
   15.5546  -30.3900  -15.5739 C   0  0  0  0  0  0  0  0  0  0  0  0
   14.4482  -30.8753  -15.9045 O   0  0  0  0  0  0  0  0  0  0  0  0
   15.6513  -29.3782  -14.5278 C   0  0  0  0  0  0  0  0  0  0  0  0
   16.9941  -28.8031  -14.2785 C   0  0  0  0  0  0  0  0  0  0  0  0
   17.0488  -27.2903  -14.2147 C   0  0  2  0  0  0  0  0  0  0  0  0
   18.4204  -26.9709  -13.8196 N   0  0  0  0  0  0  0  0  0  0  0  0
   16.1173  -26.7474  -13.2110 C   0  0  0  0  0  0  0  0  0  0  0  0
   14.8931  -26.2517  -13.5914 O   0  0  0  0  0  0  0  0  0  0  0  0
   16.4478  -26.7415  -12.0039 O   0  0  0  0  0  0  0  0  0  0  0  0
  2  3  1  0
  2  1  1  0
  4  3  1  0
  5  4  1  0
  5  6  1  1
  7  5  1  0
  8  7  2  0
  9 10  1  0
 10 11  2  0
 11 12  1  0
 13 14  1  0
 13 12  2  0
 15 14  1  1
 15 17  1  0
 15 16  1  0
 16  7  1  0
 17 18  2  0
 19 13  1  0
 20 19  2  0
 20 10  1  0
 22 21  1  0
 23 22  2  0
 24 22  1  0
 25 24  1  0
 26 25  1  1
 27 26  1  0
 27 17  1  0
 28 26  1  0
 29 28  1  0
 30 28  2  0
M  END
$$$$
