MYQ.pdb
     RDKit          3D

 30 30  0  0  1  0  0  0  0  0999 V2000
   30.2629  -21.1363   -8.5636 C   0  0  0  0  0  0  0  0  0  0  0  0
   30.2486  -22.1000  -10.0777 S   0  0  0  0  0  0  0  0  0  0  0  0
   30.1147  -21.0085  -11.5200 C   0  0  0  0  0  0  0  0  0  0  0  0
   28.7628  -20.4325  -11.7193 C   0  0  0  0  0  0  0  0  0  0  0  0
   27.9036  -21.1817  -12.6324 C   0  0  2  0  0  0  0  0  0  0  0  0
   28.4683  -21.1623  -14.0311 N   0  0  0  0  0  0  0  0  0  0  0  0
   26.5366  -20.6234  -12.8889 C   0  0  0  0  0  0  0  0  0  0  0  0
   25.7458  -20.4729  -11.8963 O   0  0  0  0  0  0  0  0  0  0  0  0
   19.8717  -16.3192  -17.0995 O   0  0  0  0  0  0  0  0  0  0  0  0
   21.0634  -16.8956  -16.6624 C   0  0  0  0  0  0  0  0  0  0  0  0
   21.6103  -17.9706  -17.3223 C   0  0  0  0  0  0  0  0  0  0  0  0
   22.7899  -18.5420  -16.8932 C   0  0  0  0  0  0  0  0  0  0  0  0
   23.4769  -18.0764  -15.7938 C   0  0  0  0  0  0  0  0  0  0  0  0
   24.7074  -18.7256  -15.4031 C   0  0  0  0  0  0  0  0  0  0  0  0
   24.6469  -19.7261  -14.2911 C   0  0  2  0  0  0  0  0  0  0  0  0
   26.0245  -20.2466  -14.1427 N   0  0  0  0  0  0  0  0  0  0  0  0
   23.6922  -20.7998  -14.4829 C   0  0  0  0  0  0  0  0  0  0  0  0
   24.0443  -21.7614  -15.2504 O   0  0  0  0  0  0  0  0  0  0  0  0
   22.9270  -17.0012  -15.1346 C   0  0  0  0  0  0  0  0  0  0  0  0
   21.7370  -16.4080  -15.5526 C   0  0  0  0  0  0  0  0  0  0  0  0
   18.6774  -22.4093  -10.8609 N   0  0  0  0  0  0  0  0  0  0  0  0
   18.7351  -21.2426  -11.6664 C   0  0  0  0  0  0  0  0  0  0  0  0
   17.9105  -20.3386  -11.3986 O   0  0  0  0  0  0  0  0  0  0  0  0
   19.6967  -21.0879  -12.7523 C   0  0  0  0  0  0  0  0  0  0  0  0
   20.6628  -22.1941  -12.9499 C   0  0  0  0  0  0  0  0  0  0  0  0
   21.5416  -22.0743  -14.1783 C   0  0  2  0  0  0  0  0  0  0  0  0
   22.4086  -20.9249  -13.9210 N   0  0  0  0  0  0  0  0  0  0  0  0
   20.7532  -21.8225  -15.3969 C   0  0  0  0  0  0  0  0  0  0  0  0
   20.2377  -22.8695  -16.1231 O   0  0  0  0  0  0  0  0  0  0  0  0
   20.5532  -20.6442  -15.7683 O   0  0  0  0  0  0  0  0  0  0  0  0
  2  3  1  0
  2  1  1  0
  4  3  1  0
  5  4  1  0
  5  6  1  6
  7  5  1  0
  8  7  2  0
  9 10  1  0
 10 11  2  0
 11 12  1  0
 13 14  1  0
 13 12  2  0
 15 14  1  6
 15 17  1  0
 15 16  1  0
 16  7  1  0
 17 18  2  0
 19 13  1  0
 20 19  2  0
 20 10  1  0
 22 21  1  0
 23 22  2  0
 24 22  1  0
 25 24  1  0
 26 25  1  1
 27 26  1  0
 27 17  1  0
 28 26  1  0
 29 28  1  0
 30 28  2  0
M  END
$$$$
