MYQ.pdb
     RDKit          3D

 30 30  0  0  1  0  0  0  0  0999 V2000
   13.0841   -7.9384   -5.0448 C   0  0  0  0  0  0  0  0  0  0  0  0
   14.2253   -7.6674   -6.4034 S   0  0  0  0  0  0  0  0  0  0  0  0
   13.4304   -8.0636   -7.9847 C   0  0  0  0  0  0  0  0  0  0  0  0
   14.2977   -7.8490   -9.1683 C   0  0  0  0  0  0  0  0  0  0  0  0
   14.7327   -6.4693   -9.3698 C   0  0  2  0  0  0  0  0  0  0  0  0
   13.5858   -5.6140   -9.8481 N   0  0  0  0  0  0  0  0  0  0  0  0
   15.7238   -6.2242  -10.4670 C   0  0  0  0  0  0  0  0  0  0  0  0
   15.2955   -6.1597  -11.6694 O   0  0  0  0  0  0  0  0  0  0  0  0
   23.0829   -3.5522  -14.7712 O   0  0  0  0  0  0  0  0  0  0  0  0
   22.0980   -3.8957  -13.8462 C   0  0  0  0  0  0  0  0  0  0  0  0
   22.1719   -5.0745  -13.1427 C   0  0  0  0  0  0  0  0  0  0  0  0
   21.1999   -5.4164  -12.2259 C   0  0  0  0  0  0  0  0  0  0  0  0
   20.1143   -4.6089  -11.9674 C   0  0  0  0  0  0  0  0  0  0  0  0
   19.1354   -5.0326  -10.9926 C   0  0  0  0  0  0  0  0  0  0  0  0
   18.0157   -5.9085  -11.4620 C   0  0  2  0  0  0  0  0  0  0  0  0
   17.1103   -6.0610  -10.3011 N   0  0  0  0  0  0  0  0  0  0  0  0
   18.4233   -7.1957  -11.9892 C   0  0  0  0  0  0  0  0  0  0  0  0
   18.8806   -8.0491  -11.1522 O   0  0  0  0  0  0  0  0  0  0  0  0
   20.0422   -3.4302  -12.6735 C   0  0  0  0  0  0  0  0  0  0  0  0
   21.0144   -3.0651  -13.6031 C   0  0  0  0  0  0  0  0  0  0  0  0
   15.2611  -11.3629  -14.6861 N   0  0  0  0  0  0  0  0  0  0  0  0
   16.5687  -11.8609  -14.9219 C   0  0  0  0  0  0  0  0  0  0  0  0
   16.6478  -13.0152  -15.4017 O   0  0  0  0  0  0  0  0  0  0  0  0
   17.7673  -11.0837  -14.6269 C   0  0  0  0  0  0  0  0  0  0  0  0
   17.5628   -9.7481  -14.0184 C   0  0  0  0  0  0  0  0  0  0  0  0
   18.8288   -8.9654  -13.7346 C   0  0  2  0  0  0  0  0  0  0  0  0
   18.3760   -7.6365  -13.3243 N   0  0  0  0  0  0  0  0  0  0  0  0
   19.6781   -8.8390  -14.9316 C   0  0  0  0  0  0  0  0  0  0  0  0
   20.6773   -9.7502  -15.1773 O   0  0  0  0  0  0  0  0  0  0  0  0
   19.4827   -7.8936  -15.7280 O   0  0  0  0  0  0  0  0  0  0  0  0
  2  3  1  0
  2  1  1  0
  4  3  1  0
  5  4  1  0
  5  6  1  6
  7  5  1  0
  8  7  2  0
  9 10  1  0
 10 11  2  0
 11 12  1  0
 13 14  1  0
 13 12  2  0
 15 14  1  1
 15 17  1  0
 15 16  1  0
 16  7  1  0
 17 18  2  0
 19 13  1  0
 20 19  2  0
 20 10  1  0
 22 21  1  0
 23 22  2  0
 24 22  1  0
 25 24  1  0
 26 25  1  6
 27 26  1  0
 27 17  1  0
 28 26  1  0
 29 28  1  0
 30 28  2  0
M  END
$$$$
