MYQ.pdb
     RDKit          3D

 30 30  0  0  1  0  0  0  0  0999 V2000
   25.2020  -21.6931  -19.7728 C   0  0  0  0  0  0  0  0  0  0  0  0
   26.9808  -21.8446  -19.9588 S   0  0  0  0  0  0  0  0  0  0  0  0
   27.6327  -23.0867  -18.8092 C   0  0  0  0  0  0  0  0  0  0  0  0
   26.8739  -23.1931  -17.5395 C   0  0  0  0  0  0  0  0  0  0  0  0
   26.9787  -22.0308  -16.6612 C   0  0  2  0  0  0  0  0  0  0  0  0
   28.3659  -21.9284  -16.0771 N   0  0  0  0  0  0  0  0  0  0  0  0
   26.1616  -22.0543  -15.4050 C   0  0  0  0  0  0  0  0  0  0  0  0
   25.8501  -23.1879  -14.9040 O   0  0  0  0  0  0  0  0  0  0  0  0
   27.9043  -21.1765   -7.7711 O   0  0  0  0  0  0  0  0  0  0  0  0
   27.2667  -20.8759   -8.9739 C   0  0  0  0  0  0  0  0  0  0  0  0
   25.9387  -20.5210   -8.9984 C   0  0  0  0  0  0  0  0  0  0  0  0
   25.3056  -20.2216  -10.1866 C   0  0  0  0  0  0  0  0  0  0  0  0
   25.9576  -20.2619  -11.3993 C   0  0  0  0  0  0  0  0  0  0  0  0
   25.2292  -19.9351  -12.6037 C   0  0  0  0  0  0  0  0  0  0  0  0
   24.8350  -21.0604  -13.5090 C   0  0  2  0  0  0  0  0  0  0  0  0
   25.6876  -20.9270  -14.7115 N   0  0  0  0  0  0  0  0  0  0  0  0
   23.4289  -21.1035  -13.8581 C   0  0  0  0  0  0  0  0  0  0  0  0
   23.0596  -20.4149  -14.8717 O   0  0  0  0  0  0  0  0  0  0  0  0
   27.2863  -20.6183  -11.3721 C   0  0  0  0  0  0  0  0  0  0  0  0
   27.9453  -20.9230  -10.1823 C   0  0  0  0  0  0  0  0  0  0  0  0
   19.4159  -25.8631  -13.7138 N   0  0  0  0  0  0  0  0  0  0  0  0
   18.5670  -24.7413  -13.8990 C   0  0  0  0  0  0  0  0  0  0  0  0
   17.3536  -24.9857  -14.0911 O   0  0  0  0  0  0  0  0  0  0  0  0
   19.0642  -23.3703  -13.8705 C   0  0  0  0  0  0  0  0  0  0  0  0
   20.5092  -23.1908  -13.5954 C   0  0  0  0  0  0  0  0  0  0  0  0
   21.0064  -21.7606  -13.6529 C   0  0  2  0  0  0  0  0  0  0  0  0
   22.4015  -21.8201  -13.2179 N   0  0  0  0  0  0  0  0  0  0  0  0
   20.2535  -20.8789  -12.7444 C   0  0  0  0  0  0  0  0  0  0  0  0
   19.0346  -20.3667  -13.1204 O   0  0  0  0  0  0  0  0  0  0  0  0
   20.7313  -20.5986  -11.6221 O   0  0  0  0  0  0  0  0  0  0  0  0
  2  3  1  0
  2  1  1  0
  4  3  1  0
  5  4  1  0
  5  6  1  1
  7  5  1  0
  8  7  2  0
  9 10  1  0
 10 11  2  0
 11 12  1  0
 13 14  1  0
 13 12  2  0
 15 14  1  1
 15 17  1  0
 15 16  1  0
 16  7  1  0
 17 18  2  0
 19 13  1  0
 20 19  2  0
 20 10  1  0
 22 21  1  0
 23 22  2  0
 24 22  1  0
 25 24  1  0
 26 25  1  1
 27 26  1  0
 27 17  1  0
 28 26  1  0
 29 28  1  0
 30 28  2  0
M  END
$$$$
