MYQ.pdb
     RDKit          3D

 30 30  0  0  1  0  0  0  0  0999 V2000
   27.2546  -20.4794  -20.5225 C   0  0  0  0  0  0  0  0  0  0  0  0
   26.6908  -20.9901  -18.8969 S   0  0  0  0  0  0  0  0  0  0  0  0
   27.6194  -20.1207  -17.6042 C   0  0  0  0  0  0  0  0  0  0  0  0
   27.1946  -20.4573  -16.2238 C   0  0  0  0  0  0  0  0  0  0  0  0
   28.2107  -21.1229  -15.4128 C   0  0  2  0  0  0  0  0  0  0  0  0
   28.4154  -22.5437  -15.8767 N   0  0  0  0  0  0  0  0  0  0  0  0
   27.8796  -21.3586  -13.9702 C   0  0  0  0  0  0  0  0  0  0  0  0
   26.9952  -22.2361  -13.6853 O   0  0  0  0  0  0  0  0  0  0  0  0
   27.6042  -19.7594   -5.1016 O   0  0  0  0  0  0  0  0  0  0  0  0
   27.9057  -19.8354   -6.4606 C   0  0  0  0  0  0  0  0  0  0  0  0
   28.7238  -20.8276   -6.9468 C   0  0  0  0  0  0  0  0  0  0  0  0
   29.0226  -20.9064   -8.2910 C   0  0  0  0  0  0  0  0  0  0  0  0
   28.5272  -20.0077   -9.2097 C   0  0  0  0  0  0  0  0  0  0  0  0
   28.8834  -20.1530  -10.6026 C   0  0  0  0  0  0  0  0  0  0  0  0
   27.8979  -20.8216  -11.5097 C   0  0  2  0  0  0  0  0  0  0  0  0
   28.4540  -20.6899  -12.8751 N   0  0  0  0  0  0  0  0  0  0  0  0
   26.5461  -20.3038  -11.4355 C   0  0  0  0  0  0  0  0  0  0  0  0
   26.2484  -19.3392  -12.2222 O   0  0  0  0  0  0  0  0  0  0  0  0
   27.7096  -19.0151   -8.7204 C   0  0  0  0  0  0  0  0  0  0  0  0
   27.3937  -18.9185   -7.3663 C   0  0  0  0  0  0  0  0  0  0  0  0
   22.9996  -20.1988  -14.8485 N   0  0  0  0  0  0  0  0  0  0  0  0
   21.9853  -20.3004  -13.8614 C   0  0  0  0  0  0  0  0  0  0  0  0
   20.8159  -20.0530  -14.2358 O   0  0  0  0  0  0  0  0  0  0  0  0
   22.2718  -20.6715  -12.4802 C   0  0  0  0  0  0  0  0  0  0  0  0
   23.6966  -20.8708  -12.1251 C   0  0  0  0  0  0  0  0  0  0  0  0
   24.1140  -20.3074  -10.7820 C   0  0  2  0  0  0  0  0  0  0  0  0
   25.5006  -20.7352  -10.5990 N   0  0  0  0  0  0  0  0  0  0  0  0
   23.2935  -20.8422   -9.6816 C   0  0  0  0  0  0  0  0  0  0  0  0
   23.8477  -21.6756   -8.7395 O   0  0  0  0  0  0  0  0  0  0  0  0
   22.0836  -20.5305   -9.6080 O   0  0  0  0  0  0  0  0  0  0  0  0
  2  3  1  0
  2  1  1  0
  4  3  1  0
  5  4  1  0
  5  6  1  6
  7  5  1  0
  8  7  2  0
  9 10  1  0
 10 11  2  0
 11 12  1  0
 13 14  1  0
 13 12  2  0
 15 14  1  1
 15 17  1  0
 15 16  1  0
 16  7  1  0
 17 18  2  0
 19 13  1  0
 20 19  2  0
 20 10  1  0
 22 21  1  0
 23 22  2  0
 24 22  1  0
 25 24  1  0
 26 25  1  6
 27 26  1  0
 27 17  1  0
 28 26  1  0
 29 28  1  0
 30 28  2  0
M  END
$$$$
