MYQ.pdb
     RDKit          3D

 30 30  0  0  1  0  0  0  0  0999 V2000
   29.7397  -22.3999  -19.9277 C   0  0  0  0  0  0  0  0  0  0  0  0
   28.8442  -22.4593  -18.3732 S   0  0  0  0  0  0  0  0  0  0  0  0
   27.0657  -22.2507  -18.6603 C   0  0  0  0  0  0  0  0  0  0  0  0
   26.2513  -22.2292  -17.4212 C   0  0  0  0  0  0  0  0  0  0  0  0
   26.7774  -23.0390  -16.3254 C   0  0  2  0  0  0  0  0  0  0  0  0
   26.4187  -24.4917  -16.5172 N   0  0  0  0  0  0  0  0  0  0  0  0
   26.1967  -22.7983  -14.9649 C   0  0  0  0  0  0  0  0  0  0  0  0
   25.0567  -23.3076  -14.6922 O   0  0  0  0  0  0  0  0  0  0  0  0
   25.2262  -19.4922   -6.6665 O   0  0  0  0  0  0  0  0  0  0  0  0
   25.6851  -19.8789   -7.9249 C   0  0  0  0  0  0  0  0  0  0  0  0
   25.7370  -21.2063   -8.2791 C   0  0  0  0  0  0  0  0  0  0  0  0
   26.1890  -21.5919   -9.5238 C   0  0  0  0  0  0  0  0  0  0  0  0
   26.6097  -20.6826  -10.4690 C   0  0  0  0  0  0  0  0  0  0  0  0
   27.0704  -21.1605  -11.7526 C   0  0  0  0  0  0  0  0  0  0  0  0
   26.0466  -21.6816  -12.7126 C   0  0  2  0  0  0  0  0  0  0  0  0
   26.7926  -22.0453  -13.9382 N   0  0  0  0  0  0  0  0  0  0  0  0
   24.9590  -20.7693  -13.0049 C   0  0  0  0  0  0  0  0  0  0  0  0
   25.2522  -19.7000  -13.6441 O   0  0  0  0  0  0  0  0  0  0  0  0
   26.5577  -19.3549  -10.1116 C   0  0  0  0  0  0  0  0  0  0  0  0
   26.1028  -18.9439   -8.8599 C   0  0  0  0  0  0  0  0  0  0  0  0
   23.4595  -20.3677  -17.0683 N   0  0  0  0  0  0  0  0  0  0  0  0
   22.3875  -21.0793  -16.4701 C   0  0  0  0  0  0  0  0  0  0  0  0
   21.9079  -22.0270  -17.1339 O   0  0  0  0  0  0  0  0  0  0  0  0
   21.8601  -20.7386  -15.1535 C   0  0  0  0  0  0  0  0  0  0  0  0
   22.5683  -19.6722  -14.4071 C   0  0  0  0  0  0  0  0  0  0  0  0
   22.6144  -19.8555  -12.9038 C   0  0  2  0  0  0  0  0  0  0  0  0
   23.5991  -20.9124  -12.6747 N   0  0  0  0  0  0  0  0  0  0  0  0
   21.3128  -20.2809  -12.3607 C   0  0  0  0  0  0  0  0  0  0  0  0
   21.1748  -21.5107  -11.7626 O   0  0  0  0  0  0  0  0  0  0  0  0
   20.3291  -19.5119  -12.4460 O   0  0  0  0  0  0  0  0  0  0  0  0
  2  3  1  0
  2  1  1  0
  4  3  1  0
  5  4  1  0
  5  6  1  6
  7  5  1  0
  8  7  2  0
  9 10  1  0
 10 11  2  0
 11 12  1  0
 13 14  1  0
 13 12  2  0
 15 14  1  1
 15 17  1  0
 15 16  1  0
 16  7  1  0
 17 18  2  0
 19 13  1  0
 20 19  2  0
 20 10  1  0
 22 21  1  0
 23 22  2  0
 24 22  1  0
 25 24  1  0
 26 25  1  6
 27 26  1  0
 27 17  1  0
 28 26  1  0
 29 28  1  0
 30 28  2  0
M  END
$$$$
