MYQ.pdb
     RDKit          3D

 30 30  0  0  1  0  0  0  0  0999 V2000
   17.6609  -15.1039  -20.1686 C   0  0  0  0  0  0  0  0  0  0  0  0
   17.9988  -13.4196  -19.6486 S   0  0  0  0  0  0  0  0  0  0  0  0
   17.4255  -13.1564  -17.9481 C   0  0  0  0  0  0  0  0  0  0  0  0
   17.5470  -11.7549  -17.4789 C   0  0  0  0  0  0  0  0  0  0  0  0
   18.9143  -11.3063  -17.2290 C   0  0  2  0  0  0  0  0  0  0  0  0
   19.6682  -12.3261  -16.4119 N   0  0  0  0  0  0  0  0  0  0  0  0
   19.0829  -10.0941  -16.3640 C   0  0  0  0  0  0  0  0  0  0  0  0
   18.0616   -9.6466  -15.7395 O   0  0  0  0  0  0  0  0  0  0  0  0
   23.2518   -2.5114  -13.8571 O   0  0  0  0  0  0  0  0  0  0  0  0
   22.8704   -3.8191  -14.1538 C   0  0  0  0  0  0  0  0  0  0  0  0
   23.0845   -4.3495  -15.4039 C   0  0  0  0  0  0  0  0  0  0  0  0
   22.7097   -5.6433  -15.7000 C   0  0  0  0  0  0  0  0  0  0  0  0
   22.1067   -6.4658  -14.7742 C   0  0  0  0  0  0  0  0  0  0  0  0
   21.7417   -7.8108  -15.1563 C   0  0  0  0  0  0  0  0  0  0  0  0
   20.3011   -8.0848  -15.4578 C   0  0  2  0  0  0  0  0  0  0  0  0
   20.2791   -9.3807  -16.1726 N   0  0  0  0  0  0  0  0  0  0  0  0
   19.6250   -7.0501  -16.2148 C   0  0  0  0  0  0  0  0  0  0  0  0
   19.7600   -7.0776  -17.4872 O   0  0  0  0  0  0  0  0  0  0  0  0
   21.8927   -5.9323  -13.5241 C   0  0  0  0  0  0  0  0  0  0  0  0
   22.2652   -4.6280  -13.2037 C   0  0  0  0  0  0  0  0  0  0  0  0
   14.3878   -6.7542  -17.6818 N   0  0  0  0  0  0  0  0  0  0  0  0
   14.4921   -5.3770  -17.3561 C   0  0  0  0  0  0  0  0  0  0  0  0
   13.4230   -4.7246  -17.3424 O   0  0  0  0  0  0  0  0  0  0  0  0
   15.7681   -4.7394  -17.0511 C   0  0  0  0  0  0  0  0  0  0  0  0
   16.9780   -5.5896  -17.1468 C   0  0  0  0  0  0  0  0  0  0  0  0
   18.2460   -4.9762  -16.5885 C   0  0  2  0  0  0  0  0  0  0  0  0
   18.8226   -6.0046  -15.7230 N   0  0  0  0  0  0  0  0  0  0  0  0
   17.9687   -3.7706  -15.7888 C   0  0  0  0  0  0  0  0  0  0  0  0
   17.7923   -2.5527  -16.4011 O   0  0  0  0  0  0  0  0  0  0  0  0
   17.8927   -3.8621  -14.5430 O   0  0  0  0  0  0  0  0  0  0  0  0
  2  3  1  0
  2  1  1  0
  4  3  1  0
  5  4  1  0
  5  6  1  1
  7  5  1  0
  8  7  2  0
  9 10  1  0
 10 11  2  0
 11 12  1  0
 13 14  1  0
 13 12  2  0
 15 14  1  6
 15 17  1  0
 15 16  1  0
 16  7  1  0
 17 18  2  0
 19 13  1  0
 20 19  2  0
 20 10  1  0
 22 21  1  0
 23 22  2  0
 24 22  1  0
 25 24  1  0
 26 25  1  1
 27 26  1  0
 27 17  1  0
 28 26  1  0
 29 28  1  0
 30 28  2  0
M  END
$$$$
