MYQ.pdb
     RDKit          3D

 30 30  0  0  1  0  0  0  0  0999 V2000
   30.3052  -17.4105  -18.2188 C   0  0  0  0  0  0  0  0  0  0  0  0
   28.9856  -16.2261  -18.4973 S   0  0  0  0  0  0  0  0  0  0  0  0
   27.5274  -17.0554  -19.1865 C   0  0  0  0  0  0  0  0  0  0  0  0
   26.8394  -17.9603  -18.2341 C   0  0  0  0  0  0  0  0  0  0  0  0
   27.6680  -19.0400  -17.7040 C   0  0  2  0  0  0  0  0  0  0  0  0
   27.8347  -20.1350  -18.7281 N   0  0  0  0  0  0  0  0  0  0  0  0
   27.1047  -19.8281  -16.5603 C   0  0  0  0  0  0  0  0  0  0  0  0
   26.2148  -20.7106  -16.8106 O   0  0  0  0  0  0  0  0  0  0  0  0
   24.8453  -21.3134   -7.9889 O   0  0  0  0  0  0  0  0  0  0  0  0
   25.4847  -20.9866   -9.1839 C   0  0  0  0  0  0  0  0  0  0  0  0
   25.8360  -21.9632  -10.0855 C   0  0  0  0  0  0  0  0  0  0  0  0
   26.4673  -21.6429  -11.2692 C   0  0  0  0  0  0  0  0  0  0  0  0
   26.7789  -20.3453  -11.6103 C   0  0  0  0  0  0  0  0  0  0  0  0
   27.4408  -20.0854  -12.8682 C   0  0  0  0  0  0  0  0  0  0  0  0
   26.6575  -20.2959  -14.1265 C   0  0  2  0  0  0  0  0  0  0  0  0
   27.4618  -19.6845  -15.2082 N   0  0  0  0  0  0  0  0  0  0  0  0
   25.3083  -19.7667  -14.1051 C   0  0  0  0  0  0  0  0  0  0  0  0
   25.1822  -18.4933  -14.1214 O   0  0  0  0  0  0  0  0  0  0  0  0
   26.4272  -19.3700  -10.7058 C   0  0  0  0  0  0  0  0  0  0  0  0
   25.7873  -19.6719   -9.5049 C   0  0  0  0  0  0  0  0  0  0  0  0
   22.8398  -18.6844  -17.6923 N   0  0  0  0  0  0  0  0  0  0  0  0
   22.3601  -19.9770  -17.3568 C   0  0  0  0  0  0  0  0  0  0  0  0
   22.2919  -20.8068  -18.2926 O   0  0  0  0  0  0  0  0  0  0  0  0
   21.9632  -20.3369  -16.0001 C   0  0  0  0  0  0  0  0  0  0  0  0
   22.2228  -19.3333  -14.9412 C   0  0  0  0  0  0  0  0  0  0  0  0
   22.8310  -19.8804  -13.6659 C   0  0  2  0  0  0  0  0  0  0  0  0
   24.0991  -20.4851  -14.0726 N   0  0  0  0  0  0  0  0  0  0  0  0
   21.9796  -20.9114  -13.0478 C   0  0  0  0  0  0  0  0  0  0  0  0
   20.7598  -20.5780  -12.5092 O   0  0  0  0  0  0  0  0  0  0  0  0
   22.3743  -22.0987  -13.0173 O   0  0  0  0  0  0  0  0  0  0  0  0
  2  3  1  0
  2  1  1  0
  4  3  1  0
  5  4  1  0
  5  6  1  6
  7  5  1  0
  8  7  2  0
  9 10  1  0
 10 11  2  0
 11 12  1  0
 13 14  1  0
 13 12  2  0
 15 14  1  1
 15 17  1  0
 15 16  1  0
 16  7  1  0
 17 18  2  0
 19 13  1  0
 20 19  2  0
 20 10  1  0
 22 21  1  0
 23 22  2  0
 24 22  1  0
 25 24  1  0
 26 25  1  6
 27 26  1  0
 27 17  1  0
 28 26  1  0
 29 28  1  0
 30 28  2  0
M  END
$$$$
