MYQ.pdb
     RDKit          3D

 30 30  0  0  1  0  0  0  0  0999 V2000
   26.3898  -19.7558  -20.2806 C   0  0  0  0  0  0  0  0  0  0  0  0
   28.1813  -19.8626  -20.3071 S   0  0  0  0  0  0  0  0  0  0  0  0
   28.7777  -20.8273  -18.8918 C   0  0  0  0  0  0  0  0  0  0  0  0
   27.7461  -21.0864  -17.8585 C   0  0  0  0  0  0  0  0  0  0  0  0
   28.2256  -21.7956  -16.6751 C   0  0  2  0  0  0  0  0  0  0  0  0
   28.4926  -23.2454  -16.9951 N   0  0  0  0  0  0  0  0  0  0  0  0
   27.2611  -21.9468  -15.5379 C   0  0  0  0  0  0  0  0  0  0  0  0
   26.3883  -22.8782  -15.6014 O   0  0  0  0  0  0  0  0  0  0  0  0
   23.0915  -20.3932   -7.7338 O   0  0  0  0  0  0  0  0  0  0  0  0
   23.9745  -20.4525   -8.8109 C   0  0  0  0  0  0  0  0  0  0  0  0
   23.7010  -19.7898   -9.9841 C   0  0  0  0  0  0  0  0  0  0  0  0
   24.5733  -19.8454  -11.0509 C   0  0  0  0  0  0  0  0  0  0  0  0
   25.7507  -20.5588  -11.0035 C   0  0  0  0  0  0  0  0  0  0  0  0
   26.6159  -20.5711  -12.1608 C   0  0  0  0  0  0  0  0  0  0  0  0
   26.1331  -21.2820  -13.3867 C   0  0  2  0  0  0  0  0  0  0  0  0
   27.2165  -21.1429  -14.3855 N   0  0  0  0  0  0  0  0  0  0  0  0
   24.8659  -20.8114  -13.9099 C   0  0  0  0  0  0  0  0  0  0  0  0
   24.9104  -19.9771  -14.8794 O   0  0  0  0  0  0  0  0  0  0  0  0
   26.0215  -21.2219   -9.8287 C   0  0  0  0  0  0  0  0  0  0  0  0
   25.1544  -21.1774   -8.7384 C   0  0  0  0  0  0  0  0  0  0  0  0
   22.0230  -24.1981  -16.9163 N   0  0  0  0  0  0  0  0  0  0  0  0
   21.1901  -23.0687  -17.1266 C   0  0  0  0  0  0  0  0  0  0  0  0
   20.2157  -23.2300  -17.8969 O   0  0  0  0  0  0  0  0  0  0  0  0
   21.4409  -21.7815  -16.4880 C   0  0  0  0  0  0  0  0  0  0  0  0
   22.6073  -21.7051  -15.5771 C   0  0  0  0  0  0  0  0  0  0  0  0
   22.3802  -20.9242  -14.2987 C   0  0  2  0  0  0  0  0  0  0  0  0
   23.5718  -21.1630  -13.4848 N   0  0  0  0  0  0  0  0  0  0  0  0
   21.1922  -21.3979  -13.5677 C   0  0  0  0  0  0  0  0  0  0  0  0
   19.9725  -20.7915  -13.7513 O   0  0  0  0  0  0  0  0  0  0  0  0
   21.3000  -22.3612  -12.7760 O   0  0  0  0  0  0  0  0  0  0  0  0
  2  3  1  0
  2  1  1  0
  4  3  1  0
  5  4  1  0
  5  6  1  6
  7  5  1  0
  8  7  2  0
  9 10  1  0
 10 11  2  0
 11 12  1  0
 13 14  1  0
 13 12  2  0
 15 14  1  1
 15 17  1  0
 15 16  1  0
 16  7  1  0
 17 18  2  0
 19 13  1  0
 20 19  2  0
 20 10  1  0
 22 21  1  0
 23 22  2  0
 24 22  1  0
 25 24  1  0
 26 25  1  6
 27 26  1  0
 27 17  1  0
 28 26  1  0
 29 28  1  0
 30 28  2  0
M  END
$$$$
