MYQ.pdb
     RDKit          3D

 30 30  0  0  1  0  0  0  0  0999 V2000
   27.1465  -18.8595   -7.7285 C   0  0  0  0  0  0  0  0  0  0  0  0
   26.7855  -20.5910   -7.4234 S   0  0  0  0  0  0  0  0  0  0  0  0
   25.0490  -20.9509   -7.8038 C   0  0  0  0  0  0  0  0  0  0  0  0
   24.7974  -21.2809   -9.2275 C   0  0  0  0  0  0  0  0  0  0  0  0
   25.0492  -20.1899  -10.1654 C   0  0  2  0  0  0  0  0  0  0  0  0
   24.0452  -19.0804   -9.9733 N   0  0  0  0  0  0  0  0  0  0  0  0
   24.8445  -20.4857  -11.6204 C   0  0  0  0  0  0  0  0  0  0  0  0
   23.7580  -20.0997  -12.1718 O   0  0  0  0  0  0  0  0  0  0  0  0
   28.7605  -16.5914  -16.7884 O   0  0  0  0  0  0  0  0  0  0  0  0
   28.2500  -17.7753  -16.2580 C   0  0  0  0  0  0  0  0  0  0  0  0
   29.0056  -18.5524  -15.4122 C   0  0  0  0  0  0  0  0  0  0  0  0
   28.5028  -19.7233  -14.8847 C   0  0  0  0  0  0  0  0  0  0  0  0
   27.2339  -20.1756  -15.1720 C   0  0  0  0  0  0  0  0  0  0  0  0
   26.7747  -21.4122  -14.5819 C   0  0  0  0  0  0  0  0  0  0  0  0
   25.4492  -21.4043  -13.8860 C   0  0  2  0  0  0  0  0  0  0  0  0
   25.7471  -21.1668  -12.4557 N   0  0  0  0  0  0  0  0  0  0  0  0
   24.6523  -22.6009  -14.0700 C   0  0  0  0  0  0  0  0  0  0  0  0
   24.7244  -23.4944  -13.1565 O   0  0  0  0  0  0  0  0  0  0  0  0
   26.4802  -19.3967  -16.0195 C   0  0  0  0  0  0  0  0  0  0  0  0
   26.9685  -18.2093  -16.5620 C   0  0  0  0  0  0  0  0  0  0  0  0
   20.1504  -21.0161  -12.2020 N   0  0  0  0  0  0  0  0  0  0  0  0
   19.6152  -22.2166  -12.7368 C   0  0  0  0  0  0  0  0  0  0  0  0
   18.4660  -22.5344  -12.3531 O   0  0  0  0  0  0  0  0  0  0  0  0
   20.3505  -23.0479  -13.6833 C   0  0  0  0  0  0  0  0  0  0  0  0
   21.7283  -22.6174  -14.0185 C   0  0  0  0  0  0  0  0  0  0  0  0
   22.4877  -23.5428  -14.9474 C   0  0  2  0  0  0  0  0  0  0  0  0
   23.7922  -22.9099  -15.1395 N   0  0  0  0  0  0  0  0  0  0  0  0
   21.8202  -23.6814  -16.2532 C   0  0  0  0  0  0  0  0  0  0  0  0
   20.8112  -24.5985  -16.4270 O   0  0  0  0  0  0  0  0  0  0  0  0
   22.1777  -22.9551  -17.2076 O   0  0  0  0  0  0  0  0  0  0  0  0
  2  3  1  0
  2  1  1  0
  4  3  1  0
  5  4  1  0
  5  6  1  1
  7  5  1  0
  8  7  2  0
  9 10  1  0
 10 11  2  0
 11 12  1  0
 13 14  1  0
 13 12  2  0
 15 14  1  6
 15 17  1  0
 15 16  1  0
 16  7  1  0
 17 18  2  0
 19 13  1  0
 20 19  2  0
 20 10  1  0
 22 21  1  0
 23 22  2  0
 24 22  1  0
 25 24  1  0
 26 25  1  1
 27 26  1  0
 27 17  1  0
 28 26  1  0
 29 28  1  0
 30 28  2  0
M  END
$$$$
