MYQ.pdb
     RDKit          3D

 30 30  0  0  1  0  0  0  0  0999 V2000
   27.5856  -16.6958  -18.1541 C   0  0  0  0  0  0  0  0  0  0  0  0
   28.6837  -17.9807  -17.5501 S   0  0  0  0  0  0  0  0  0  0  0  0
   27.7266  -19.3438  -16.8325 C   0  0  0  0  0  0  0  0  0  0  0  0
   26.7026  -18.9126  -15.8503 C   0  0  0  0  0  0  0  0  0  0  0  0
   25.8274  -19.9773  -15.3667 C   0  0  2  0  0  0  0  0  0  0  0  0
   25.4873  -20.9345  -16.4820 N   0  0  0  0  0  0  0  0  0  0  0  0
   24.4508  -19.5774  -14.9294 C   0  0  0  0  0  0  0  0  0  0  0  0
   24.3222  -18.9568  -13.8196 O   0  0  0  0  0  0  0  0  0  0  0  0
   16.4922  -15.8177  -15.3647 O   0  0  0  0  0  0  0  0  0  0  0  0
   17.7022  -16.4726  -15.5889 C   0  0  0  0  0  0  0  0  0  0  0  0
   18.8858  -15.9433  -15.1316 C   0  0  0  0  0  0  0  0  0  0  0  0
   20.0843  -16.5896  -15.3506 C   0  0  0  0  0  0  0  0  0  0  0  0
   20.1634  -17.7843  -16.0316 C   0  0  0  0  0  0  0  0  0  0  0  0
   21.4548  -18.4039  -16.2228 C   0  0  0  0  0  0  0  0  0  0  0  0
   21.9553  -19.3212  -15.1507 C   0  0  2  0  0  0  0  0  0  0  0  0
   23.2595  -19.8290  -15.6322 N   0  0  0  0  0  0  0  0  0  0  0  0
   21.0591  -20.4063  -14.8039 C   0  0  0  0  0  0  0  0  0  0  0  0
   21.1006  -21.4530  -15.5391 O   0  0  0  0  0  0  0  0  0  0  0  0
   18.9777  -18.3114  -16.4891 C   0  0  0  0  0  0  0  0  0  0  0  0
   17.7557  -17.6754  -16.2772 C   0  0  0  0  0  0  0  0  0  0  0  0
   16.5387  -22.6800  -11.3746 N   0  0  0  0  0  0  0  0  0  0  0  0
   17.4994  -23.7010  -11.5937 C   0  0  0  0  0  0  0  0  0  0  0  0
   17.0999  -24.8807  -11.4606 O   0  0  0  0  0  0  0  0  0  0  0  0
   18.8824  -23.4100  -11.9548 C   0  0  0  0  0  0  0  0  0  0  0  0
   19.2272  -21.9865  -12.1800 C   0  0  0  0  0  0  0  0  0  0  0  0
   19.1354  -21.5178  -13.6180 C   0  0  2  0  0  0  0  0  0  0  0  0
   20.1371  -20.4594  -13.7427 N   0  0  0  0  0  0  0  0  0  0  0  0
   17.8066  -20.9660  -13.9335 C   0  0  0  0  0  0  0  0  0  0  0  0
   17.3467  -19.8425  -13.2888 O   0  0  0  0  0  0  0  0  0  0  0  0
   17.0960  -21.5275  -14.7973 O   0  0  0  0  0  0  0  0  0  0  0  0
  2  3  1  0
  2  1  1  0
  4  3  1  0
  5  4  1  0
  5  6  1  6
  7  5  1  0
  8  7  2  0
  9 10  1  0
 10 11  2  0
 11 12  1  0
 13 14  1  0
 13 12  2  0
 15 14  1  6
 15 17  1  0
 15 16  1  0
 16  7  1  0
 17 18  2  0
 19 13  1  0
 20 19  2  0
 20 10  1  0
 22 21  1  0
 23 22  2  0
 24 22  1  0
 25 24  1  0
 26 25  1  1
 27 26  1  0
 27 17  1  0
 28 26  1  0
 29 28  1  0
 30 28  2  0
M  END
$$$$
