GPP.pdb
     RDKit          3D

 19 20  0  0  1  0  0  0  0  0999 V2000
   23.9333  -20.8294  -12.0700 N   0  0  0  0  0  0  0  0  0  0  0  0
   25.2818  -20.4824  -11.7603 C   0  0  0  0  0  0  0  0  0  0  0  0
   25.7007  -20.8798  -10.4063 C   0  0  0  0  0  0  0  0  0  0  0  0
   24.8185  -21.1292   -9.5513 O   0  0  0  0  0  0  0  0  0  0  0  0
   27.1037  -20.9751  -10.0869 N   0  0  0  0  0  0  0  0  0  0  0  0
   28.1298  -20.7408  -11.0748 C   0  0  0  0  0  0  0  0  0  0  0  0
   29.4234  -21.2928  -10.5493 C   0  0  0  0  0  0  0  0  0  0  0  0
   29.0773  -21.8841   -9.2271 C   0  0  0  0  0  0  0  0  0  0  0  0
   27.7174  -21.3038   -8.8562 C   0  0  1  0  0  0  0  0  0  0  0  0
   27.9222  -20.2693   -7.8616 C   0  0  0  0  0  0  0  0  0  0  0  0
   27.8629  -19.0594   -8.3357 O   0  0  0  0  0  0  0  0  0  0  0  0
   28.1714  -20.3457   -6.4904 N   0  0  0  0  0  0  0  0  0  0  0  0
   28.4556  -21.5299   -5.7233 C   0  0  0  0  0  0  0  0  0  0  0  0
   28.2617  -21.1633   -4.2646 C   0  0  0  0  0  0  0  0  0  0  0  0
   27.5992  -19.8161   -4.2995 C   0  0  0  0  0  0  0  0  0  0  0  0
   28.2017  -19.2271   -5.5783 C   0  0  1  0  0  0  0  0  0  0  0  0
   29.5660  -18.7842   -5.2514 C   0  0  0  0  0  0  0  0  0  0  0  0
   29.8453  -17.7583   -4.6006 O   0  0  0  0  0  0  0  0  0  0  0  0
   30.6204  -19.5682   -5.7017 O   0  0  0  0  0  0  0  0  0  0  0  0
  1  2  1  0
  3  2  1  0
  3  4  2  0
  5  3  1  0
  6  5  1  0
  7  8  1  0
  7  6  1  0
  8  9  1  0
  9  5  1  0
  9 10  1  1
 10 11  2  0
 12 10  1  0
 12 16  1  0
 13 12  1  0
 14 13  1  0
 14 15  1  0
 15 16  1  0
 16 17  1  1
 17 19  1  0
 18 17  2  0
M  END
$$$$
