GPP.pdb
     RDKit          3D

 19 20  0  0  1  0  0  0  0  0999 V2000
   16.9408  -10.8515  -18.6790 N   0  0  0  0  0  0  0  0  0  0  0  0
   18.1845  -10.1533  -18.7004 C   0  0  0  0  0  0  0  0  0  0  0  0
   18.8578  -10.1004  -17.3925 C   0  0  0  0  0  0  0  0  0  0  0  0
   18.2351  -10.4927  -16.3777 O   0  0  0  0  0  0  0  0  0  0  0  0
   20.2085   -9.6037  -17.2989 N   0  0  0  0  0  0  0  0  0  0  0  0
   21.0213   -9.3752  -18.4697 C   0  0  0  0  0  0  0  0  0  0  0  0
   22.4520   -9.2500  -18.0318 C   0  0  0  0  0  0  0  0  0  0  0  0
   22.4192   -9.4526  -16.5569 C   0  0  0  0  0  0  0  0  0  0  0  0
   20.9612   -9.2797  -16.1467 C   0  0  1  0  0  0  0  0  0  0  0  0
   20.8129   -7.9709  -15.5414 C   0  0  0  0  0  0  0  0  0  0  0  0
   20.4211   -7.0462  -16.3682 O   0  0  0  0  0  0  0  0  0  0  0  0
   21.0171   -7.5327  -14.2321 N   0  0  0  0  0  0  0  0  0  0  0  0
   21.6127   -8.2726  -13.1508 C   0  0  0  0  0  0  0  0  0  0  0  0
   21.2578   -7.5398  -11.8714 C   0  0  0  0  0  0  0  0  0  0  0  0
   20.2227   -6.5346  -12.2877 C   0  0  0  0  0  0  0  0  0  0  0  0
   20.6720   -6.2280  -13.7192 C   0  0  1  0  0  0  0  0  0  0  0  0
   21.8252   -5.3192  -13.6271 C   0  0  0  0  0  0  0  0  0  0  0  0
   23.0064   -5.6410  -13.8624 O   0  0  0  0  0  0  0  0  0  0  0  0
   21.5784   -4.0055  -13.2498 O   0  0  0  0  0  0  0  0  0  0  0  0
  1  2  1  0
  3  2  1  0
  3  4  2  0
  5  3  1  0
  6  5  1  0
  7  8  1  0
  7  6  1  0
  8  9  1  0
  9  5  1  0
  9 10  1  6
 10 11  2  0
 12 10  1  0
 12 16  1  0
 13 12  1  0
 14 13  1  0
 14 15  1  0
 15 16  1  0
 16 17  1  1
 17 19  1  0
 18 17  2  0
M  END
$$$$
