GPP.pdb
     RDKit          3D

 19 20  0  0  1  0  0  0  0  0999 V2000
   23.4789  -19.3777  -18.9806 N   0  0  0  0  0  0  0  0  0  0  0  0
   23.8828  -18.5456  -17.8947 C   0  0  0  0  0  0  0  0  0  0  0  0
   24.7917  -19.2084  -16.9454 C   0  0  0  0  0  0  0  0  0  0  0  0
   25.0392  -20.4277  -17.0992 O   0  0  0  0  0  0  0  0  0  0  0  0
   25.3773  -18.4541  -15.8648 N   0  0  0  0  0  0  0  0  0  0  0  0
   25.2463  -17.0194  -15.7758 C   0  0  0  0  0  0  0  0  0  0  0  0
   26.2684  -16.5136  -14.7991 C   0  0  0  0  0  0  0  0  0  0  0  0
   27.0116  -17.7274  -14.3610 C   0  0  0  0  0  0  0  0  0  0  0  0
   26.1471  -18.9139  -14.7715 C   0  0  1  0  0  0  0  0  0  0  0  0
   25.4778  -19.4178  -13.5885 C   0  0  0  0  0  0  0  0  0  0  0  0
   24.2208  -19.0921  -13.5118 O   0  0  0  0  0  0  0  0  0  0  0  0
   25.9460  -20.1873  -12.5223 N   0  0  0  0  0  0  0  0  0  0  0  0
   27.3089  -20.3213  -12.0796 C   0  0  0  0  0  0  0  0  0  0  0  0
   27.3571  -21.5363  -11.1734 C   0  0  0  0  0  0  0  0  0  0  0  0
   26.0261  -22.2041  -11.3673 C   0  0  0  0  0  0  0  0  0  0  0  0
   25.1299  -20.9942  -11.6464 C   0  0  1  0  0  0  0  0  0  0  0  0
   24.8569  -20.3485  -10.3529 C   0  0  0  0  0  0  0  0  0  0  0  0
   25.3910  -19.2943   -9.9561 O   0  0  0  0  0  0  0  0  0  0  0  0
   23.9356  -20.9599   -9.5123 O   0  0  0  0  0  0  0  0  0  0  0  0
  1  2  1  0
  3  2  1  0
  3  4  2  0
  5  3  1  0
  6  5  1  0
  7  8  1  0
  7  6  1  0
  8  9  1  0
  9  5  1  0
  9 10  1  1
 10 11  2  0
 12 10  1  0
 12 16  1  0
 13 12  1  0
 14 13  1  0
 14 15  1  0
 15 16  1  0
 16 17  1  1
 17 19  1  0
 18 17  2  0
M  END
$$$$
