GPP.pdb
     RDKit          3D

 19 20  0  0  1  0  0  0  0  0999 V2000
   24.2575  -21.3835  -12.1266 N   0  0  0  0  0  0  0  0  0  0  0  0
   24.8368  -20.3753  -11.3003 C   0  0  0  0  0  0  0  0  0  0  0  0
   25.4565  -20.8987  -10.0720 C   0  0  0  0  0  0  0  0  0  0  0  0
   24.7199  -21.4107   -9.1963 O   0  0  0  0  0  0  0  0  0  0  0  0
   26.8854  -20.8157   -9.8961 N   0  0  0  0  0  0  0  0  0  0  0  0
   27.7568  -20.3313  -10.9400 C   0  0  0  0  0  0  0  0  0  0  0  0
   29.1633  -20.7349  -10.6034 C   0  0  0  0  0  0  0  0  0  0  0  0
   29.0467  -21.5030   -9.3330 C   0  0  0  0  0  0  0  0  0  0  0  0
   27.6676  -21.1730   -8.7737 C   0  0  1  0  0  0  0  0  0  0  0  0
   27.8334  -20.2266   -7.6883 C   0  0  0  0  0  0  0  0  0  0  0  0
   27.4294  -19.0224   -7.9691 O   0  0  0  0  0  0  0  0  0  0  0  0
   28.3494  -20.3821   -6.4008 N   0  0  0  0  0  0  0  0  0  0  0  0
   29.2579  -21.4014   -5.9458 C   0  0  0  0  0  0  0  0  0  0  0  0
   29.2090  -21.3863   -4.4301 C   0  0  0  0  0  0  0  0  0  0  0  0
   28.0372  -20.5072   -4.0997 C   0  0  0  0  0  0  0  0  0  0  0  0
   28.0687  -19.5245   -5.2738 C   0  0  1  0  0  0  0  0  0  0  0  0
   29.1432  -18.5572   -5.0016 C   0  0  0  0  0  0  0  0  0  0  0  0
   29.1110  -17.6897   -4.1069 O   0  0  0  0  0  0  0  0  0  0  0  0
   30.2772  -18.6157   -5.8015 O   0  0  0  0  0  0  0  0  0  0  0  0
  1  2  1  0
  3  2  1  0
  3  4  2  0
  5  3  1  0
  6  5  1  0
  7  8  1  0
  7  6  1  0
  8  9  1  0
  9  5  1  0
  9 10  1  1
 10 11  2  0
 12 10  1  0
 12 16  1  0
 13 12  1  0
 14 13  1  0
 14 15  1  0
 15 16  1  0
 16 17  1  1
 17 19  1  0
 18 17  2  0
M  END
$$$$
