GPP.pdb
     RDKit          3D

 19 20  0  0  1  0  0  0  0  0999 V2000
   24.4039  -23.6980  -15.9353 N   0  0  0  0  0  0  0  0  0  0  0  0
   24.5824  -22.4490  -15.2698 C   0  0  0  0  0  0  0  0  0  0  0  0
   25.4107  -22.5364  -14.0562 C   0  0  0  0  0  0  0  0  0  0  0  0
   25.3429  -23.5723  -13.3534 O   0  0  0  0  0  0  0  0  0  0  0  0
   26.2783  -21.4416  -13.6976 N   0  0  0  0  0  0  0  0  0  0  0  0
   26.4674  -20.3018  -14.5629 C   0  0  0  0  0  0  0  0  0  0  0  0
   27.6914  -19.5622  -14.1055 C   0  0  0  0  0  0  0  0  0  0  0  0
   28.2106  -20.3559  -12.9573 C   0  0  0  0  0  0  0  0  0  0  0  0
   27.0682  -21.2736  -12.5371 C   0  0  1  0  0  0  0  0  0  0  0  0
   26.4666  -20.7275  -11.3366 C   0  0  0  0  0  0  0  0  0  0  0  0
   25.3206  -20.1452  -11.5360 O   0  0  0  0  0  0  0  0  0  0  0  0
   26.9017  -20.7174  -10.0104 N   0  0  0  0  0  0  0  0  0  0  0  0
   28.2511  -20.8805   -9.5371 C   0  0  0  0  0  0  0  0  0  0  0  0
   28.1608  -21.1863   -8.0545 C   0  0  0  0  0  0  0  0  0  0  0  0
   26.7023  -21.4497   -7.8122 C   0  0  0  0  0  0  0  0  0  0  0  0
   26.0618  -20.5257   -8.8519 C   0  0  1  0  0  0  0  0  0  0  0  0
   26.1227  -19.1580   -8.3134 C   0  0  0  0  0  0  0  0  0  0  0  0
   26.9402  -18.2874   -8.6709 O   0  0  0  0  0  0  0  0  0  0  0  0
   25.2004  -18.8123   -7.3340 O   0  0  0  0  0  0  0  0  0  0  0  0
  1  2  1  0
  3  2  1  0
  3  4  2  0
  5  3  1  0
  6  5  1  0
  7  8  1  0
  7  6  1  0
  8  9  1  0
  9  5  1  0
  9 10  1  1
 10 11  2  0
 12 10  1  0
 12 16  1  0
 13 12  1  0
 14 13  1  0
 14 15  1  0
 15 16  1  0
 16 17  1  1
 17 19  1  0
 18 17  2  0
M  END
$$$$
