GPP.pdb
     RDKit          3D

 19 20  0  0  1  0  0  0  0  0999 V2000
   10.5339  -23.1591   -4.1218 N   0  0  0  0  0  0  0  0  0  0  0  0
   11.0177  -22.8470   -2.8168 C   0  0  0  0  0  0  0  0  0  0  0  0
   12.2580  -23.5541   -2.4589 C   0  0  0  0  0  0  0  0  0  0  0  0
   12.5859  -24.5679   -3.1194 O   0  0  0  0  0  0  0  0  0  0  0  0
   13.0686  -23.0757   -1.3663 N   0  0  0  0  0  0  0  0  0  0  0  0
   12.7378  -21.8736   -0.6389 C   0  0  0  0  0  0  0  0  0  0  0  0
   13.9493  -21.4456    0.1379 C   0  0  0  0  0  0  0  0  0  0  0  0
   14.9981  -22.4442   -0.2092 C   0  0  0  0  0  0  0  0  0  0  0  0
   14.2590  -23.6221   -0.8337 C   0  0  1  0  0  0  0  0  0  0  0  0
   14.1797  -24.6816    0.1525 C   0  0  0  0  0  0  0  0  0  0  0  0
   13.0647  -24.6998    0.8220 O   0  0  0  0  0  0  0  0  0  0  0  0
   15.0880  -25.6803    0.5070 N   0  0  0  0  0  0  0  0  0  0  0  0
   16.4485  -25.8172    0.0577 C   0  0  0  0  0  0  0  0  0  0  0  0
   16.8801  -27.2316    0.3940 C   0  0  0  0  0  0  0  0  0  0  0  0
   15.6107  -27.9283    0.7924 C   0  0  0  0  0  0  0  0  0  0  0  0
   14.8253  -26.7709    1.4158 C   0  0  1  0  0  0  0  0  0  0  0  0
   15.3761  -26.5476    2.7616 C   0  0  0  0  0  0  0  0  0  0  0  0
   15.0963  -27.2282    3.7679 O   0  0  0  0  0  0  0  0  0  0  0  0
   16.2745  -25.5004    2.9217 O   0  0  0  0  0  0  0  0  0  0  0  0
  1  2  1  0
  3  2  1  0
  3  4  2  0
  5  3  1  0
  6  5  1  0
  7  8  1  0
  7  6  1  0
  8  9  1  0
  9  5  1  0
  9 10  1  1
 10 11  2  0
 12 10  1  0
 12 16  1  0
 13 12  1  0
 14 13  1  0
 14 15  1  0
 15 16  1  0
 16 17  1  1
 17 19  1  0
 18 17  2  0
M  END
$$$$
