GPP.pdb
     RDKit          3D

 19 20  0  0  1  0  0  0  0  0999 V2000
   14.9951  -10.7955  -13.8881 N   0  0  0  0  0  0  0  0  0  0  0  0
   15.1372   -9.3856  -13.7241 C   0  0  0  0  0  0  0  0  0  0  0  0
   16.2348   -8.8041  -14.5138 C   0  0  0  0  0  0  0  0  0  0  0  0
   16.9614   -9.5692  -15.1908 O   0  0  0  0  0  0  0  0  0  0  0  0
   16.4558   -7.3791  -14.4973 N   0  0  0  0  0  0  0  0  0  0  0  0
   15.5040   -6.4652  -13.9120 C   0  0  0  0  0  0  0  0  0  0  0  0
   15.8220   -5.0805  -14.3975 C   0  0  0  0  0  0  0  0  0  0  0  0
   16.9813   -5.2544  -15.3158 C   0  0  0  0  0  0  0  0  0  0  0  0
   17.5431   -6.6396  -15.0170 C   0  0  1  0  0  0  0  0  0  0  0  0
   18.7436   -6.4796  -14.2204 C   0  0  0  0  0  0  0  0  0  0  0  0
   18.5367   -6.5179  -12.9368 O   0  0  0  0  0  0  0  0  0  0  0  0
   20.0764   -6.2918  -14.5899 N   0  0  0  0  0  0  0  0  0  0  0  0
   20.5815   -6.0098  -15.9078 C   0  0  0  0  0  0  0  0  0  0  0  0
   22.0732   -6.2812  -15.8720 C   0  0  0  0  0  0  0  0  0  0  0  0
   22.2978   -6.9792  -14.5615 C   0  0  0  0  0  0  0  0  0  0  0  0
   21.2100   -6.3353  -13.6970 C   0  0  1  0  0  0  0  0  0  0  0  0
   21.6947   -5.0006  -13.3123 C   0  0  0  0  0  0  0  0  0  0  0  0
   21.3132   -3.9295  -13.8234 O   0  0  0  0  0  0  0  0  0  0  0  0
   22.6481   -4.9299  -12.3047 O   0  0  0  0  0  0  0  0  0  0  0  0
  1  2  1  0
  3  2  1  0
  3  4  2  0
  5  3  1  0
  6  5  1  0
  7  8  1  0
  7  6  1  0
  8  9  1  0
  9  5  1  0
  9 10  1  1
 10 11  2  0
 12 10  1  0
 12 16  1  0
 13 12  1  0
 14 13  1  0
 14 15  1  0
 15 16  1  0
 16 17  1  6
 17 19  1  0
 18 17  2  0
M  END
$$$$
