TWD.pdb
     RDKit          3D

 30 31  0  0  1  0  0  0  0  0999 V2000
   24.2018   -4.6490  -19.4665 C   0  0  0  0  0  0  0  0  0  0  0  0
   24.0152   -5.9120  -20.2618 C   0  0  1  0  0  0  0  0  0  0  0  0
   24.8011   -5.8706  -21.3818 O   0  0  0  0  0  0  0  0  0  0  0  0
   24.2139   -7.1610  -19.4240 C   0  0  2  0  0  0  0  0  0  0  0  0
   24.1526   -8.3426  -20.2628 N   0  0  0  0  0  0  0  0  0  0  0  0
   23.2504   -7.2044  -18.2901 C   0  0  0  0  0  0  0  0  0  0  0  0
   22.0407   -7.3889  -18.6206 O   0  0  0  0  0  0  0  0  0  0  0  0
   23.6051   -7.0586  -16.9315 N   0  0  0  0  0  0  0  0  0  0  0  0
   22.5940   -7.1366  -15.9031 C   0  0  1  0  0  0  0  0  0  0  0  0
   22.9564   -8.0744  -14.8087 C   0  0  0  0  0  0  0  0  0  0  0  0
   23.1413   -9.4911  -15.1751 C   0  0  0  0  0  0  0  0  0  0  0  0
   24.2873  -10.2473  -14.8501 C   0  0  0  0  0  0  0  0  0  0  0  0
   24.1138  -11.4921  -15.2780 N   0  0  0  0  0  0  0  0  0  0  0  0
   22.9254  -11.6467  -15.8778 C   0  0  0  0  0  0  0  0  0  0  0  0
   22.3468  -12.7424  -16.4735 C   0  0  0  0  0  0  0  0  0  0  0  0
   21.0879  -12.5637  -17.0371 C   0  0  0  0  0  0  0  0  0  0  0  0
   20.4577  -11.3157  -16.9881 C   0  0  0  0  0  0  0  0  0  0  0  0
   21.0735  -10.2474  -16.3809 C   0  0  0  0  0  0  0  0  0  0  0  0
   22.3227  -10.3914  -15.8107 C   0  0  0  0  0  0  0  0  0  0  0  0
   22.0488   -5.8786  -15.4597 C   0  0  0  0  0  0  0  0  0  0  0  0
   22.8165   -4.9057  -15.2549 O   0  0  0  0  0  0  0  0  0  0  0  0
   20.6637   -5.6290  -15.2183 N   0  0  0  0  0  0  0  0  0  0  0  0
   20.1161   -4.2884  -15.1913 C   0  0  1  0  0  0  0  0  0  0  0  0
   20.4400   -3.4890  -16.4023 C   0  0  0  0  0  0  0  0  0  0  0  0
   19.8738   -2.1323  -16.3146 C   0  0  0  0  0  0  0  0  0  0  0  0
   18.8686   -1.9391  -15.6037 O   0  0  0  0  0  0  0  0  0  0  0  0
   18.5927   -4.3979  -15.0702 C   0  0  0  0  0  0  0  0  0  0  0  0
   17.8831   -3.4999  -14.2954 O   0  0  0  0  0  0  0  0  0  0  0  0
   20.4151   -1.0514  -16.9934 O   0  0  0  0  0  0  0  0  0  0  0  0
   17.9725   -5.3021  -15.6717 O   0  0  0  0  0  0  0  0  0  0  0  0
  2  1  1  1
  2  3  1  0
  4  2  1  0
  4  5  1  6
  6  7  2  0
  6  4  1  0
  8  6  1  0
  9  8  1  0
  9 10  1  1
 10 11  1  0
 11 12  2  0
 11 19  1  0
 12 13  1  0
 13 14  1  0
 14 15  2  0
 15 16  1  0
 17 16  2  0
 18 17  1  0
 19 18  2  0
 19 14  1  0
 20 21  2  0
 20  9  1  0
 22 20  1  0
 23 24  1  6
 23 22  1  0
 25 29  1  0
 25 24  1  0
 26 25  2  0
 27 23  1  0
 28 27  1  0
 30 27  2  0
M  END
$$$$
