TWD.pdb
     RDKit          3D

 30 31  0  0  1  0  0  0  0  0999 V2000
   27.2881  -21.9363  -19.2753 C   0  0  0  0  0  0  0  0  0  0  0  0
   26.3526  -22.1129  -18.1108 C   0  0  1  0  0  0  0  0  0  0  0  0
   25.3387  -22.9635  -18.4603 O   0  0  0  0  0  0  0  0  0  0  0  0
   27.0763  -22.5172  -16.8402 C   0  0  2  0  0  0  0  0  0  0  0  0
   27.7458  -23.7900  -17.0278 N   0  0  0  0  0  0  0  0  0  0  0  0
   26.1520  -22.5148  -15.6733 C   0  0  0  0  0  0  0  0  0  0  0  0
   25.7704  -23.6606  -15.2886 O   0  0  0  0  0  0  0  0  0  0  0  0
   25.7050  -21.3526  -15.0079 N   0  0  0  0  0  0  0  0  0  0  0  0
   24.7253  -21.4506  -13.9513 C   0  0  1  0  0  0  0  0  0  0  0  0
   24.8940  -20.4035  -12.9103 C   0  0  0  0  0  0  0  0  0  0  0  0
   24.1374  -20.5783  -11.6564 C   0  0  0  0  0  0  0  0  0  0  0  0
   24.6244  -21.2770  -10.5315 C   0  0  0  0  0  0  0  0  0  0  0  0
   23.7229  -21.2042   -9.5596 N   0  0  0  0  0  0  0  0  0  0  0  0
   22.6452  -20.5031   -9.9375 C   0  0  0  0  0  0  0  0  0  0  0  0
   21.4835  -20.1967   -9.2691 C   0  0  0  0  0  0  0  0  0  0  0  0
   20.5313  -19.4581   -9.9637 C   0  0  0  0  0  0  0  0  0  0  0  0
   20.7669  -19.0559  -11.2826 C   0  0  0  0  0  0  0  0  0  0  0  0
   21.9441  -19.3841  -11.9115 C   0  0  0  0  0  0  0  0  0  0  0  0
   22.9106  -20.1153  -11.2500 C   0  0  0  0  0  0  0  0  0  0  0  0
   23.3641  -21.6641  -14.3728 C   0  0  0  0  0  0  0  0  0  0  0  0
   22.9108  -21.0285  -15.3569 O   0  0  0  0  0  0  0  0  0  0  0  0
   22.4474  -22.5628  -13.7476 N   0  0  0  0  0  0  0  0  0  0  0  0
   21.0750  -22.6953  -14.1913 C   0  0  1  0  0  0  0  0  0  0  0  0
   20.6251  -24.1065  -14.3200 C   0  0  0  0  0  0  0  0  0  0  0  0
   19.3188  -24.1918  -14.9948 C   0  0  0  0  0  0  0  0  0  0  0  0
   18.7505  -23.1416  -15.3516 O   0  0  0  0  0  0  0  0  0  0  0  0
   20.1746  -21.9853  -13.1751 C   0  0  0  0  0  0  0  0  0  0  0  0
   19.4629  -20.8565  -13.5351 O   0  0  0  0  0  0  0  0  0  0  0  0
   18.6888  -25.3994  -15.2532 O   0  0  0  0  0  0  0  0  0  0  0  0
   20.0728  -22.4192  -12.0066 O   0  0  0  0  0  0  0  0  0  0  0  0
  2  1  1  6
  2  3  1  0
  4  2  1  0
  4  5  1  6
  6  7  2  0
  6  4  1  0
  8  6  1  0
  9  8  1  0
  9 10  1  6
 10 11  1  0
 11 12  2  0
 11 19  1  0
 12 13  1  0
 13 14  1  0
 14 15  2  0
 15 16  1  0
 17 16  2  0
 18 17  1  0
 19 18  2  0
 19 14  1  0
 20 21  2  0
 20  9  1  0
 22 20  1  0
 23 24  1  1
 23 22  1  0
 25 29  1  0
 25 24  1  0
 26 25  2  0
 27 23  1  0
 28 27  1  0
 30 27  2  0
M  END
$$$$
