TWD.pdb
     RDKit          3D

 30 31  0  0  1  0  0  0  0  0999 V2000
   28.2641  -19.0048  -16.3571 C   0  0  0  0  0  0  0  0  0  0  0  0
   27.4699  -19.3845  -15.1374 C   0  0  1  0  0  0  0  0  0  0  0  0
   26.1357  -19.2002  -15.3816 O   0  0  0  0  0  0  0  0  0  0  0  0
   27.8104  -20.7737  -14.6315 C   0  0  2  0  0  0  0  0  0  0  0  0
   27.4339  -21.7715  -15.6143 N   0  0  0  0  0  0  0  0  0  0  0  0
   27.2052  -21.0200  -13.2940 C   0  0  0  0  0  0  0  0  0  0  0  0
   26.2086  -21.8033  -13.2919 O   0  0  0  0  0  0  0  0  0  0  0  0
   27.6686  -20.4510  -12.0880 N   0  0  0  0  0  0  0  0  0  0  0  0
   26.8923  -20.5802  -10.8770 C   0  0  1  0  0  0  0  0  0  0  0  0
   27.6223  -20.1086   -9.6715 C   0  0  0  0  0  0  0  0  0  0  0  0
   27.0149  -20.4086   -8.3613 C   0  0  0  0  0  0  0  0  0  0  0  0
   25.8264  -21.1503   -8.1935 C   0  0  0  0  0  0  0  0  0  0  0  0
   25.5843  -21.2820   -6.8948 N   0  0  0  0  0  0  0  0  0  0  0  0
   26.5249  -20.6803   -6.1538 C   0  0  0  0  0  0  0  0  0  0  0  0
   26.6616  -20.5533   -4.7917 C   0  0  0  0  0  0  0  0  0  0  0  0
   27.7589  -19.8332   -4.3315 C   0  0  0  0  0  0  0  0  0  0  0  0
   28.6699  -19.2723   -5.2329 C   0  0  0  0  0  0  0  0  0  0  0  0
   28.4943  -19.4256   -6.5874 C   0  0  0  0  0  0  0  0  0  0  0  0
   27.4161  -20.1356   -7.0771 C   0  0  0  0  0  0  0  0  0  0  0  0
   25.5218  -20.1427  -10.9582 C   0  0  0  0  0  0  0  0  0  0  0  0
   25.2584  -19.0055  -11.4223 O   0  0  0  0  0  0  0  0  0  0  0  0
   24.3934  -20.9110  -10.5393 N   0  0  0  0  0  0  0  0  0  0  0  0
   23.0474  -20.6042  -10.9772 C   0  0  1  0  0  0  0  0  0  0  0  0
   22.6445  -21.3269  -12.2125 C   0  0  0  0  0  0  0  0  0  0  0  0
   22.8208  -20.4836  -13.4069 C   0  0  0  0  0  0  0  0  0  0  0  0
   23.3777  -20.9649  -14.4126 O   0  0  0  0  0  0  0  0  0  0  0  0
   22.0811  -20.9844   -9.8506 C   0  0  0  0  0  0  0  0  0  0  0  0
   20.9956  -20.1815   -9.5552 O   0  0  0  0  0  0  0  0  0  0  0  0
   22.3902  -19.1670  -13.4621 O   0  0  0  0  0  0  0  0  0  0  0  0
   22.2631  -22.0270   -9.1843 O   0  0  0  0  0  0  0  0  0  0  0  0
  2  1  1  6
  2  3  1  0
  4  2  1  0
  4  5  1  6
  6  7  2  0
  6  4  1  0
  8  6  1  0
  9  8  1  0
  9 10  1  1
 10 11  1  0
 11 12  2  0
 11 19  1  0
 12 13  1  0
 13 14  1  0
 14 15  2  0
 15 16  1  0
 17 16  2  0
 18 17  1  0
 19 18  2  0
 19 14  1  0
 20 21  2  0
 20  9  1  0
 22 20  1  0
 23 24  1  6
 23 22  1  0
 25 29  1  0
 25 24  1  0
 26 25  2  0
 27 23  1  0
 28 27  1  0
 30 27  2  0
M  END
$$$$
