TWD.pdb
     RDKit          3D

 30 31  0  0  1  0  0  0  0  0999 V2000
   27.8608  -18.4582  -14.5327 C   0  0  0  0  0  0  0  0  0  0  0  0
   27.8402  -19.6688  -15.4252 C   0  0  1  0  0  0  0  0  0  0  0  0
   28.5437  -19.4080  -16.5702 O   0  0  0  0  0  0  0  0  0  0  0  0
   28.2894  -20.9276  -14.7075 C   0  0  2  0  0  0  0  0  0  0  0  0
   28.1877  -22.0725  -15.5919 N   0  0  0  0  0  0  0  0  0  0  0  0
   27.5440  -21.1120  -13.4322 C   0  0  0  0  0  0  0  0  0  0  0  0
   26.4051  -21.6558  -13.5501 O   0  0  0  0  0  0  0  0  0  0  0  0
   28.0246  -20.7298  -12.1610 N   0  0  0  0  0  0  0  0  0  0  0  0
   27.1856  -20.8697  -10.9938 C   0  0  1  0  0  0  0  0  0  0  0  0
   27.9289  -20.6697   -9.7225 C   0  0  0  0  0  0  0  0  0  0  0  0
   27.1296  -20.5864   -8.4858 C   0  0  0  0  0  0  0  0  0  0  0  0
   25.7799  -20.9865   -8.3899 C   0  0  0  0  0  0  0  0  0  0  0  0
   25.3758  -20.8303   -7.1349 N   0  0  0  0  0  0  0  0  0  0  0  0
   26.3550  -20.3483   -6.3574 C   0  0  0  0  0  0  0  0  0  0  0  0
   26.3743  -20.0229   -5.0217 C   0  0  0  0  0  0  0  0  0  0  0  0
   27.5642  -19.5132   -4.5130 C   0  0  0  0  0  0  0  0  0  0  0  0
   28.6788  -19.3478   -5.3421 C   0  0  0  0  0  0  0  0  0  0  0  0
   28.6145  -19.6877   -6.6722 C   0  0  0  0  0  0  0  0  0  0  0  0
   27.4487  -20.1974   -7.2085 C   0  0  0  0  0  0  0  0  0  0  0  0
   25.9085  -20.2050  -11.0532 C   0  0  0  0  0  0  0  0  0  0  0  0
   25.8599  -18.9702  -11.2789 O   0  0  0  0  0  0  0  0  0  0  0  0
   24.6457  -20.8451  -10.8675 N   0  0  0  0  0  0  0  0  0  0  0  0
   23.4110  -20.2700  -11.3599 C   0  0  1  0  0  0  0  0  0  0  0  0
   23.0793  -20.6753  -12.7514 C   0  0  0  0  0  0  0  0  0  0  0  0
   23.1010  -19.5200  -13.6645 C   0  0  0  0  0  0  0  0  0  0  0  0
   22.6485  -18.4274  -13.2713 O   0  0  0  0  0  0  0  0  0  0  0  0
   22.2742  -20.7181  -10.4356 C   0  0  0  0  0  0  0  0  0  0  0  0
   20.9863  -20.2560  -10.6308 O   0  0  0  0  0  0  0  0  0  0  0  0
   23.6078  -19.5952  -14.9527 O   0  0  0  0  0  0  0  0  0  0  0  0
   22.4983  -21.5082   -9.4924 O   0  0  0  0  0  0  0  0  0  0  0  0
  2  1  1  1
  2  3  1  0
  4  2  1  0
  4  5  1  6
  6  7  2  0
  6  4  1  0
  8  6  1  0
  9  8  1  0
  9 10  1  1
 10 11  1  0
 11 12  2  0
 11 19  1  0
 12 13  1  0
 13 14  1  0
 14 15  2  0
 15 16  1  0
 17 16  2  0
 18 17  1  0
 19 18  2  0
 19 14  1  0
 20 21  2  0
 20  9  1  0
 22 20  1  0
 23 24  1  6
 23 22  1  0
 25 29  1  0
 25 24  1  0
 26 25  2  0
 27 23  1  0
 28 27  1  0
 30 27  2  0
M  END
$$$$
