TWD.pdb
     RDKit          3D

 30 31  0  0  1  0  0  0  0  0999 V2000
   13.6866  -20.0862    2.8934 C   0  0  0  0  0  0  0  0  0  0  0  0
   14.6855  -19.5269    3.8691 C   0  0  1  0  0  0  0  0  0  0  0  0
   15.0850  -20.5107    4.7330 O   0  0  0  0  0  0  0  0  0  0  0  0
   15.8357  -18.8169    3.1803 C   0  0  2  0  0  0  0  0  0  0  0  0
   16.5530  -19.7401    2.3220 N   0  0  0  0  0  0  0  0  0  0  0  0
   16.7182  -18.1412    4.1706 C   0  0  0  0  0  0  0  0  0  0  0  0
   17.8776  -18.6404    4.2847 O   0  0  0  0  0  0  0  0  0  0  0  0
   16.3419  -17.0245    4.9480 N   0  0  0  0  0  0  0  0  0  0  0  0
   17.2712  -16.4487    5.8918 C   0  0  1  0  0  0  0  0  0  0  0  0
   16.9034  -15.0654    6.2918 C   0  0  0  0  0  0  0  0  0  0  0  0
   17.7994  -13.9804    5.8501 C   0  0  0  0  0  0  0  0  0  0  0  0
   17.5410  -13.1448    4.7428 C   0  0  0  0  0  0  0  0  0  0  0  0
   18.5130  -12.2453    4.6499 N   0  0  0  0  0  0  0  0  0  0  0  0
   19.4262  -12.4035    5.6178 C   0  0  0  0  0  0  0  0  0  0  0  0
   20.5876  -11.7192    5.8885 C   0  0  0  0  0  0  0  0  0  0  0  0
   21.3400  -12.1565    6.9734 C   0  0  0  0  0  0  0  0  0  0  0  0
   20.9144  -13.2461    7.7408 C   0  0  0  0  0  0  0  0  0  0  0  0
   19.7452  -13.9002    7.4341 C   0  0  0  0  0  0  0  0  0  0  0  0
   18.9743  -13.4907    6.3643 C   0  0  0  0  0  0  0  0  0  0  0  0
   17.6716  -17.3022    6.9815 C   0  0  0  0  0  0  0  0  0  0  0  0
   16.7996  -17.9275    7.6346 O   0  0  0  0  0  0  0  0  0  0  0  0
   19.0197  -17.5061    7.4058 N   0  0  0  0  0  0  0  0  0  0  0  0
   19.3506  -18.3287    8.5511 C   0  0  1  0  0  0  0  0  0  0  0  0
   20.0491  -19.5918    8.1944 C   0  0  0  0  0  0  0  0  0  0  0  0
   20.3018  -20.4182    9.3868 C   0  0  0  0  0  0  0  0  0  0  0  0
   19.4289  -20.4866   10.2738 O   0  0  0  0  0  0  0  0  0  0  0  0
   20.2574  -17.5129    9.4782 C   0  0  0  0  0  0  0  0  0  0  0  0
   20.7167  -16.2673    9.0940 O   0  0  0  0  0  0  0  0  0  0  0  0
   21.4778  -21.1299    9.5672 O   0  0  0  0  0  0  0  0  0  0  0  0
   20.5933  -17.9650   10.5948 O   0  0  0  0  0  0  0  0  0  0  0  0
  2  1  1  6
  2  3  1  0
  4  2  1  0
  4  5  1  1
  6  7  2  0
  6  4  1  0
  8  6  1  0
  9  8  1  0
  9 10  1  1
 10 11  1  0
 11 12  2  0
 11 19  1  0
 12 13  1  0
 13 14  1  0
 14 15  2  0
 15 16  1  0
 17 16  2  0
 18 17  1  0
 19 18  2  0
 19 14  1  0
 20 21  2  0
 20  9  1  0
 22 20  1  0
 23 24  1  6
 23 22  1  0
 25 29  1  0
 25 24  1  0
 26 25  2  0
 27 23  1  0
 28 27  1  0
 30 27  2  0
M  END
$$$$
