TWD.pdb
     RDKit          3D

 30 31  0  0  1  0  0  0  0  0999 V2000
   34.6192  -31.6295  -20.3400 C   0  0  0  0  0  0  0  0  0  0  0  0
   35.0960  -32.2741  -19.0672 C   0  0  1  0  0  0  0  0  0  0  0  0
   36.4610  -32.3753  -19.0864 O   0  0  0  0  0  0  0  0  0  0  0  0
   34.5534  -31.5860  -17.8288 C   0  0  2  0  0  0  0  0  0  0  0  0
   35.0191  -32.2636  -16.6340 N   0  0  0  0  0  0  0  0  0  0  0  0
   33.0707  -31.4679  -17.8878 C   0  0  0  0  0  0  0  0  0  0  0  0
   32.4363  -32.5289  -17.6078 O   0  0  0  0  0  0  0  0  0  0  0  0
   32.3739  -30.2866  -18.2227 N   0  0  0  0  0  0  0  0  0  0  0  0
   30.9302  -30.2801  -18.2629 C   0  0  1  0  0  0  0  0  0  0  0  0
   30.3627  -28.9100  -18.3585 C   0  0  0  0  0  0  0  0  0  0  0  0
   29.1328  -28.6399  -17.5905 C   0  0  0  0  0  0  0  0  0  0  0  0
   28.3387  -29.6421  -16.9939 C   0  0  0  0  0  0  0  0  0  0  0  0
   27.3399  -29.0627  -16.3386 N   0  0  0  0  0  0  0  0  0  0  0  0
   27.3898  -27.7277  -16.4430 C   0  0  0  0  0  0  0  0  0  0  0  0
   26.5620  -26.7485  -15.9469 C   0  0  0  0  0  0  0  0  0  0  0  0
   26.8821  -25.4319  -16.2612 C   0  0  0  0  0  0  0  0  0  0  0  0
   28.0012  -25.1409  -17.0485 C   0  0  0  0  0  0  0  0  0  0  0  0
   28.8020  -26.1525  -17.5224 C   0  0  0  0  0  0  0  0  0  0  0  0
   28.5128  -27.4700  -17.2278 C   0  0  0  0  0  0  0  0  0  0  0  0
   30.3206  -31.2450  -19.1425 C   0  0  0  0  0  0  0  0  0  0  0  0
   30.6414  -31.2696  -20.3567 O   0  0  0  0  0  0  0  0  0  0  0  0
   29.3449  -32.2092  -18.7457 N   0  0  0  0  0  0  0  0  0  0  0  0
   28.7963  -33.1764  -19.6738 C   0  0  1  0  0  0  0  0  0  0  0  0
   28.9365  -34.5845  -19.2175 C   0  0  0  0  0  0  0  0  0  0  0  0
   29.8962  -35.3247  -20.0541 C   0  0  0  0  0  0  0  0  0  0  0  0
   30.4070  -34.7566  -21.0388 O   0  0  0  0  0  0  0  0  0  0  0  0
   27.3071  -32.8680  -19.8592 C   0  0  0  0  0  0  0  0  0  0  0  0
   26.5257  -33.6495  -20.6893 O   0  0  0  0  0  0  0  0  0  0  0  0
   30.2599  -36.6365  -19.7916 O   0  0  0  0  0  0  0  0  0  0  0  0
   26.7801  -31.9045  -19.2609 O   0  0  0  0  0  0  0  0  0  0  0  0
  2  1  1  6
  2  3  1  0
  4  2  1  0
  4  5  1  1
  6  7  2  0
  6  4  1  0
  8  6  1  0
  9  8  1  0
  9 10  1  6
 10 11  1  0
 11 12  2  0
 11 19  1  0
 12 13  1  0
 13 14  1  0
 14 15  2  0
 15 16  1  0
 17 16  2  0
 18 17  1  0
 19 18  2  0
 19 14  1  0
 20 21  2  0
 20  9  1  0
 22 20  1  0
 23 24  1  1
 23 22  1  0
 25 29  1  0
 25 24  1  0
 26 25  2  0
 27 23  1  0
 28 27  1  0
 30 27  2  0
M  END
$$$$
