TWD.pdb
     RDKit          3D

 30 31  0  0  1  0  0  0  0  0999 V2000
   29.3659  -18.4752  -15.1892 C   0  0  0  0  0  0  0  0  0  0  0  0
   28.3197  -19.0584  -14.2792 C   0  0  1  0  0  0  0  0  0  0  0  0
   27.0805  -18.6231  -14.6647 O   0  0  0  0  0  0  0  0  0  0  0  0
   28.4265  -20.5672  -14.1628 C   0  0  2  0  0  0  0  0  0  0  0  0
   28.2278  -21.1855  -15.4595 N   0  0  0  0  0  0  0  0  0  0  0  0
   27.4997  -21.0912  -13.1225 C   0  0  0  0  0  0  0  0  0  0  0  0
   26.4391  -21.6237  -13.5677 O   0  0  0  0  0  0  0  0  0  0  0  0
   27.7372  -21.0270  -11.7323 N   0  0  0  0  0  0  0  0  0  0  0  0
   26.7085  -21.4234  -10.7994 C   0  0  1  0  0  0  0  0  0  0  0  0
   27.2541  -21.8270   -9.4773 C   0  0  0  0  0  0  0  0  0  0  0  0
   27.1653  -20.8383   -8.3865 C   0  0  0  0  0  0  0  0  0  0  0  0
   26.2799  -19.7397   -8.3871 C   0  0  0  0  0  0  0  0  0  0  0  0
   26.4158  -19.0803   -7.2428 N   0  0  0  0  0  0  0  0  0  0  0  0
   27.3362  -19.6487   -6.4519 C   0  0  0  0  0  0  0  0  0  0  0  0
   27.8032  -19.2972   -5.2074 C   0  0  0  0  0  0  0  0  0  0  0  0
   28.7992  -20.0972   -4.6575 C   0  0  0  0  0  0  0  0  0  0  0  0
   29.2887  -21.2051   -5.3576 C   0  0  0  0  0  0  0  0  0  0  0  0
   28.7914  -21.5199   -6.5996 C   0  0  0  0  0  0  0  0  0  0  0  0
   27.8016  -20.7471   -7.1734 C   0  0  0  0  0  0  0  0  0  0  0  0
   25.5525  -20.5656  -10.7351 C   0  0  0  0  0  0  0  0  0  0  0  0
   25.7037  -19.3189  -10.7096 O   0  0  0  0  0  0  0  0  0  0  0  0
   24.1997  -21.0208  -10.6916 N   0  0  0  0  0  0  0  0  0  0  0  0
   23.1379  -20.3499  -11.4128 C   0  0  1  0  0  0  0  0  0  0  0  0
   23.3408  -20.3278  -12.8855 C   0  0  0  0  0  0  0  0  0  0  0  0
   22.2201  -19.6609  -13.5698 C   0  0  0  0  0  0  0  0  0  0  0  0
   22.0251  -18.4459  -13.3722 O   0  0  0  0  0  0  0  0  0  0  0  0
   21.8232  -21.0764  -11.1108 C   0  0  0  0  0  0  0  0  0  0  0  0
   21.7042  -22.4353  -11.3332 O   0  0  0  0  0  0  0  0  0  0  0  0
   21.3657  -20.3310  -14.4317 O   0  0  0  0  0  0  0  0  0  0  0  0
   20.8409  -20.4478  -10.6590 O   0  0  0  0  0  0  0  0  0  0  0  0
  2  1  1  6
  2  3  1  0
  4  2  1  0
  4  5  1  6
  6  7  2  0
  6  4  1  0
  8  6  1  0
  9  8  1  0
  9 10  1  1
 10 11  1  0
 11 12  2  0
 11 19  1  0
 12 13  1  0
 13 14  1  0
 14 15  2  0
 15 16  1  0
 17 16  2  0
 18 17  1  0
 19 18  2  0
 19 14  1  0
 20 21  2  0
 20  9  1  0
 22 20  1  0
 23 24  1  6
 23 22  1  0
 25 29  1  0
 25 24  1  0
 26 25  2  0
 27 23  1  0
 28 27  1  0
 30 27  2  0
M  END
$$$$
