TWD.pdb
     RDKit          3D

 30 31  0  0  1  0  0  0  0  0999 V2000
   27.9525  -19.6495  -15.3586 C   0  0  0  0  0  0  0  0  0  0  0  0
   27.5719  -20.9625  -15.9860 C   0  0  1  0  0  0  0  0  0  0  0  0
   28.2425  -21.1184  -17.1691 O   0  0  0  0  0  0  0  0  0  0  0  0
   27.7376  -22.1314  -15.0332 C   0  0  2  0  0  0  0  0  0  0  0  0
   27.2932  -23.3594  -15.6640 N   0  0  0  0  0  0  0  0  0  0  0  0
   27.0564  -21.8663  -13.7365 C   0  0  0  0  0  0  0  0  0  0  0  0
   25.7942  -21.9797  -13.7603 O   0  0  0  0  0  0  0  0  0  0  0  0
   27.7191  -21.5138  -12.5408 N   0  0  0  0  0  0  0  0  0  0  0  0
   26.9617  -21.2491  -11.3399 C   0  0  1  0  0  0  0  0  0  0  0  0
   27.8251  -21.0363  -10.1493 C   0  0  0  0  0  0  0  0  0  0  0  0
   27.1444  -20.7869   -8.8648 C   0  0  0  0  0  0  0  0  0  0  0  0
   25.7457  -20.8460   -8.6882 C   0  0  0  0  0  0  0  0  0  0  0  0
   25.4663  -20.6232   -7.4096 N   0  0  0  0  0  0  0  0  0  0  0  0
   26.5777  -20.4131   -6.6909 C   0  0  0  0  0  0  0  0  0  0  0  0
   26.7543  -20.1319   -5.3567 C   0  0  0  0  0  0  0  0  0  0  0  0
   28.0606  -19.9407   -4.9191 C   0  0  0  0  0  0  0  0  0  0  0  0
   29.1313  -20.0352   -5.8145 C   0  0  0  0  0  0  0  0  0  0  0  0
   28.9079  -20.3196   -7.1405 C   0  0  0  0  0  0  0  0  0  0  0  0
   27.6234  -20.5161   -7.6071 C   0  0  0  0  0  0  0  0  0  0  0  0
   25.8798  -20.3067  -11.4730 C   0  0  0  0  0  0  0  0  0  0  0  0
   26.1202  -19.1333  -11.8516 O   0  0  0  0  0  0  0  0  0  0  0  0
   24.5082  -20.5944  -11.1990 N   0  0  0  0  0  0  0  0  0  0  0  0
   23.4273  -19.9053  -11.8731 C   0  0  1  0  0  0  0  0  0  0  0  0
   23.4475  -20.0688  -13.3508 C   0  0  0  0  0  0  0  0  0  0  0  0
   22.2817  -19.4218  -13.9763 C   0  0  0  0  0  0  0  0  0  0  0  0
   21.2474  -20.0900  -14.1685 O   0  0  0  0  0  0  0  0  0  0  0  0
   22.1023  -20.4576  -11.3377 C   0  0  0  0  0  0  0  0  0  0  0  0
   21.9346  -21.8156  -11.1430 O   0  0  0  0  0  0  0  0  0  0  0  0
   22.2844  -18.0906  -14.3634 O   0  0  0  0  0  0  0  0  0  0  0  0
   21.1556  -19.6853  -11.0701 O   0  0  0  0  0  0  0  0  0  0  0  0
  2  1  1  1
  2  3  1  0
  4  2  1  0
  4  5  1  6
  6  7  2  0
  6  4  1  0
  8  6  1  0
  9  8  1  0
  9 10  1  1
 10 11  1  0
 11 12  2  0
 11 19  1  0
 12 13  1  0
 13 14  1  0
 14 15  2  0
 15 16  1  0
 17 16  2  0
 18 17  1  0
 19 18  2  0
 19 14  1  0
 20 21  2  0
 20  9  1  0
 22 20  1  0
 23 24  1  6
 23 22  1  0
 25 29  1  0
 25 24  1  0
 26 25  2  0
 27 23  1  0
 28 27  1  0
 30 27  2  0
M  END
$$$$
