TWD.pdb
     RDKit          3D

 30 31  0  0  1  0  0  0  0  0999 V2000
   28.7591  -20.1775  -16.0103 C   0  0  0  0  0  0  0  0  0  0  0  0
   28.8045  -19.3526  -14.7533 C   0  0  1  0  0  0  0  0  0  0  0  0
   29.7644  -18.3841  -14.8733 O   0  0  0  0  0  0  0  0  0  0  0  0
   27.4413  -18.8141  -14.3622 C   0  0  2  0  0  0  0  0  0  0  0  0
   27.5825  -17.7611  -13.3748 N   0  0  0  0  0  0  0  0  0  0  0  0
   26.5401  -19.9112  -13.9149 C   0  0  0  0  0  0  0  0  0  0  0  0
   26.3938  -20.8577  -14.7451 O   0  0  0  0  0  0  0  0  0  0  0  0
   25.8756  -19.9446  -12.6697 N   0  0  0  0  0  0  0  0  0  0  0  0
   24.9039  -20.9761  -12.3910 C   0  0  1  0  0  0  0  0  0  0  0  0
   25.0977  -21.6055  -11.0588 C   0  0  0  0  0  0  0  0  0  0  0  0
   26.0843  -20.9784  -10.1595 C   0  0  0  0  0  0  0  0  0  0  0  0
   25.7435  -20.1578   -9.0634 C   0  0  0  0  0  0  0  0  0  0  0  0
   26.8568  -19.8000   -8.4346 N   0  0  0  0  0  0  0  0  0  0  0  0
   27.9440  -20.3174   -9.0230 C   0  0  0  0  0  0  0  0  0  0  0  0
   29.2804  -20.1956   -8.7243 C   0  0  0  0  0  0  0  0  0  0  0  0
   30.1770  -20.8505   -9.5620 C   0  0  0  0  0  0  0  0  0  0  0  0
   29.7166  -21.5943  -10.6536 C   0  0  0  0  0  0  0  0  0  0  0  0
   28.3704  -21.6896  -10.9140 C   0  0  0  0  0  0  0  0  0  0  0  0
   27.4539  -21.0525  -10.1014 C   0  0  0  0  0  0  0  0  0  0  0  0
   23.5359  -20.6548  -12.7098 C   0  0  0  0  0  0  0  0  0  0  0  0
   23.0348  -19.5822  -12.2899 O   0  0  0  0  0  0  0  0  0  0  0  0
   22.6634  -21.4777  -13.4848 N   0  0  0  0  0  0  0  0  0  0  0  0
   21.3158  -21.0678  -13.8220 C   0  0  1  0  0  0  0  0  0  0  0  0
   20.9193  -21.4132  -15.2127 C   0  0  0  0  0  0  0  0  0  0  0  0
   21.2147  -20.3100  -16.1425 C   0  0  0  0  0  0  0  0  0  0  0  0
   21.6636  -19.2389  -15.6902 O   0  0  0  0  0  0  0  0  0  0  0  0
   20.3508  -21.7577  -12.8524 C   0  0  0  0  0  0  0  0  0  0  0  0
   20.7450  -22.8797  -12.1481 O   0  0  0  0  0  0  0  0  0  0  0  0
   21.0141  -20.4118  -17.5105 O   0  0  0  0  0  0  0  0  0  0  0  0
   19.1936  -21.3134  -12.6864 O   0  0  0  0  0  0  0  0  0  0  0  0
  2  1  1  6
  2  3  1  0
  4  2  1  0
  4  5  1  1
  6  7  2  0
  6  4  1  0
  8  6  1  0
  9  8  1  0
  9 10  1  1
 10 11  1  0
 11 12  2  0
 11 19  1  0
 12 13  1  0
 13 14  1  0
 14 15  2  0
 15 16  1  0
 17 16  2  0
 18 17  1  0
 19 18  2  0
 19 14  1  0
 20 21  2  0
 20  9  1  0
 22 20  1  0
 23 24  1  6
 23 22  1  0
 25 29  1  0
 25 24  1  0
 26 25  2  0
 27 23  1  0
 28 27  1  0
 30 27  2  0
M  END
$$$$
