TWD.pdb
     RDKit          3D

 30 31  0  0  1  0  0  0  0  0999 V2000
   27.4933  -20.7449  -17.7776 C   0  0  0  0  0  0  0  0  0  0  0  0
   28.0901  -22.1159  -17.9420 C   0  0  1  0  0  0  0  0  0  0  0  0
   28.8531  -22.1520  -19.0779 O   0  0  0  0  0  0  0  0  0  0  0  0
   28.8247  -22.5826  -16.6994 C   0  0  2  0  0  0  0  0  0  0  0  0
   29.2578  -23.9575  -16.8597 N   0  0  0  0  0  0  0  0  0  0  0  0
   27.9991  -22.3735  -15.4786 C   0  0  0  0  0  0  0  0  0  0  0  0
   27.0568  -23.2060  -15.3189 O   0  0  0  0  0  0  0  0  0  0  0  0
   28.2085  -21.3428  -14.5369 N   0  0  0  0  0  0  0  0  0  0  0  0
   27.3559  -21.2335  -13.3763 C   0  0  1  0  0  0  0  0  0  0  0  0
   27.9949  -20.4890  -12.2600 C   0  0  0  0  0  0  0  0  0  0  0  0
   27.2357  -20.3917  -10.9993 C   0  0  0  0  0  0  0  0  0  0  0  0
   25.8331  -20.2528  -10.9311 C   0  0  0  0  0  0  0  0  0  0  0  0
   25.4655  -20.2464   -9.6554 N   0  0  0  0  0  0  0  0  0  0  0  0
   26.5197  -20.3703   -8.8373 C   0  0  0  0  0  0  0  0  0  0  0  0
   26.6040  -20.3939   -7.4653 C   0  0  0  0  0  0  0  0  0  0  0  0
   27.8748  -20.5122   -6.9126 C   0  0  0  0  0  0  0  0  0  0  0  0
   29.0024  -20.6019   -7.7356 C   0  0  0  0  0  0  0  0  0  0  0  0
   28.8708  -20.5754   -9.1034 C   0  0  0  0  0  0  0  0  0  0  0  0
   27.6235  -20.4600   -9.6841 C   0  0  0  0  0  0  0  0  0  0  0  0
   25.9857  -20.8696  -13.6337 C   0  0  0  0  0  0  0  0  0  0  0  0
   25.7278  -19.7784  -14.2001 O   0  0  0  0  0  0  0  0  0  0  0  0
   24.8510  -21.6641  -13.2866 N   0  0  0  0  0  0  0  0  0  0  0  0
   23.5132  -21.3317  -13.7309 C   0  0  1  0  0  0  0  0  0  0  0  0
   22.6583  -22.5211  -13.9858 C   0  0  0  0  0  0  0  0  0  0  0  0
   21.3058  -22.1257  -14.4139 C   0  0  0  0  0  0  0  0  0  0  0  0
   21.1614  -21.0840  -15.0827 O   0  0  0  0  0  0  0  0  0  0  0  0
   22.8498  -20.4754  -12.6474 C   0  0  0  0  0  0  0  0  0  0  0  0
   22.9176  -20.8477  -11.3181 O   0  0  0  0  0  0  0  0  0  0  0  0
   20.1769  -22.8682  -14.1035 O   0  0  0  0  0  0  0  0  0  0  0  0
   22.2383  -19.4281  -12.9532 O   0  0  0  0  0  0  0  0  0  0  0  0
  2  1  1  1
  2  3  1  0
  4  2  1  0
  4  5  1  6
  6  7  2  0
  6  4  1  0
  8  6  1  0
  9  8  1  0
  9 10  1  1
 10 11  1  0
 11 12  2  0
 11 19  1  0
 12 13  1  0
 13 14  1  0
 14 15  2  0
 15 16  1  0
 17 16  2  0
 18 17  1  0
 19 18  2  0
 19 14  1  0
 20 21  2  0
 20  9  1  0
 22 20  1  0
 23 24  1  1
 23 22  1  0
 25 29  1  0
 25 24  1  0
 26 25  2  0
 27 23  1  0
 28 27  1  0
 30 27  2  0
M  END
$$$$
