TWD.pdb
     RDKit          3D

 30 31  0  0  1  0  0  0  0  0999 V2000
   28.7742  -18.6598  -15.7360 C   0  0  0  0  0  0  0  0  0  0  0  0
   27.8886  -19.1793  -14.6367 C   0  0  1  0  0  0  0  0  0  0  0  0
   26.5766  -18.9670  -14.9640 O   0  0  0  0  0  0  0  0  0  0  0  0
   28.2001  -20.6183  -14.2709 C   0  0  2  0  0  0  0  0  0  0  0  0
   27.9086  -21.4944  -15.3893 N   0  0  0  0  0  0  0  0  0  0  0  0
   27.4953  -21.0182  -13.0222 C   0  0  0  0  0  0  0  0  0  0  0  0
   26.4448  -21.7060  -13.1956 O   0  0  0  0  0  0  0  0  0  0  0  0
   27.9233  -20.6847  -11.7189 N   0  0  0  0  0  0  0  0  0  0  0  0
   27.0755  -20.9589  -10.5822 C   0  0  1  0  0  0  0  0  0  0  0  0
   27.8219  -20.9747   -9.2972 C   0  0  0  0  0  0  0  0  0  0  0  0
   27.0456  -20.7212   -8.0691 C   0  0  0  0  0  0  0  0  0  0  0  0
   25.6758  -21.0272   -7.9239 C   0  0  0  0  0  0  0  0  0  0  0  0
   25.2985  -20.7234   -6.6878 N   0  0  0  0  0  0  0  0  0  0  0  0
   26.3150  -20.2270   -5.9693 C   0  0  0  0  0  0  0  0  0  0  0  0
   26.3715  -19.7729   -4.6728 C   0  0  0  0  0  0  0  0  0  0  0  0
   27.5963  -19.2885   -4.2261 C   0  0  0  0  0  0  0  0  0  0  0  0
   28.7076  -19.2737   -5.0758 C   0  0  0  0  0  0  0  0  0  0  0  0
   28.6054  -19.7390   -6.3650 C   0  0  0  0  0  0  0  0  0  0  0  0
   27.4043  -20.2277   -6.8393 C   0  0  0  0  0  0  0  0  0  0  0  0
   25.8258  -20.2429  -10.5416 C   0  0  0  0  0  0  0  0  0  0  0  0
   25.8295  -18.9885  -10.4760 O   0  0  0  0  0  0  0  0  0  0  0  0
   24.5346  -20.8523  -10.5656 N   0  0  0  0  0  0  0  0  0  0  0  0
   23.3992  -20.2259  -11.2107 C   0  0  1  0  0  0  0  0  0  0  0  0
   23.6024  -19.9774  -12.6624 C   0  0  0  0  0  0  0  0  0  0  0  0
   22.4904  -19.1979  -13.2322 C   0  0  0  0  0  0  0  0  0  0  0  0
   21.6375  -18.7085  -12.4665 O   0  0  0  0  0  0  0  0  0  0  0  0
   22.1853  -21.1444  -11.0366 C   0  0  0  0  0  0  0  0  0  0  0  0
   21.0828  -20.7230  -10.3174 O   0  0  0  0  0  0  0  0  0  0  0  0
   22.3500  -18.9822  -14.5945 O   0  0  0  0  0  0  0  0  0  0  0  0
   22.1775  -22.2875  -11.5438 O   0  0  0  0  0  0  0  0  0  0  0  0
  2  1  1  6
  2  3  1  0
  4  2  1  0
  4  5  1  6
  6  7  2  0
  6  4  1  0
  8  6  1  0
  9  8  1  0
  9 10  1  1
 10 11  1  0
 11 12  2  0
 11 19  1  0
 12 13  1  0
 13 14  1  0
 14 15  2  0
 15 16  1  0
 17 16  2  0
 18 17  1  0
 19 18  2  0
 19 14  1  0
 20 21  2  0
 20  9  1  0
 22 20  1  0
 23 24  1  6
 23 22  1  0
 25 29  1  0
 25 24  1  0
 26 25  2  0
 27 23  1  0
 28 27  1  0
 30 27  2  0
M  END
$$$$
