TWD.pdb
     RDKit          3D

 30 31  0  0  1  0  0  0  0  0999 V2000
   27.7792  -18.2308  -14.0606 C   0  0  0  0  0  0  0  0  0  0  0  0
   27.5705  -19.3673  -15.0236 C   0  0  1  0  0  0  0  0  0  0  0  0
   28.1917  -19.0846  -16.2102 O   0  0  0  0  0  0  0  0  0  0  0  0
   27.9645  -20.7084  -14.4340 C   0  0  2  0  0  0  0  0  0  0  0  0
   27.7689  -21.7626  -15.4107 N   0  0  0  0  0  0  0  0  0  0  0  0
   27.2469  -20.9628  -13.1548 C   0  0  0  0  0  0  0  0  0  0  0  0
   26.0652  -21.4035  -13.2809 O   0  0  0  0  0  0  0  0  0  0  0  0
   27.7959  -20.7481  -11.8720 N   0  0  0  0  0  0  0  0  0  0  0  0
   26.9891  -20.9533  -10.6918 C   0  0  1  0  0  0  0  0  0  0  0  0
   27.7907  -20.9623   -9.4404 C   0  0  0  0  0  0  0  0  0  0  0  0
   27.0580  -20.7701   -8.1749 C   0  0  0  0  0  0  0  0  0  0  0  0
   25.7246  -21.1810   -7.9645 C   0  0  0  0  0  0  0  0  0  0  0  0
   25.3859  -20.9079   -6.7102 N   0  0  0  0  0  0  0  0  0  0  0  0
   26.3950  -20.3350   -6.0399 C   0  0  0  0  0  0  0  0  0  0  0  0
   26.4795  -19.8786   -4.7458 C   0  0  0  0  0  0  0  0  0  0  0  0
   27.6838  -19.3013   -4.3571 C   0  0  0  0  0  0  0  0  0  0  0  0
   28.7478  -19.2004   -5.2597 C   0  0  0  0  0  0  0  0  0  0  0  0
   28.6189  -19.6715   -6.5444 C   0  0  0  0  0  0  0  0  0  0  0  0
   27.4373  -20.2511   -6.9618 C   0  0  0  0  0  0  0  0  0  0  0  0
   25.7723  -20.1849  -10.6196 C   0  0  0  0  0  0  0  0  0  0  0  0
   25.8312  -18.9327  -10.5406 O   0  0  0  0  0  0  0  0  0  0  0  0
   24.4559  -20.7383  -10.6253 N   0  0  0  0  0  0  0  0  0  0  0  0
   23.2734  -19.9111  -10.7484 C   0  0  1  0  0  0  0  0  0  0  0  0
   23.1996  -19.1661  -12.0330 C   0  0  0  0  0  0  0  0  0  0  0  0
   22.9032  -20.0688  -13.1583 C   0  0  0  0  0  0  0  0  0  0  0  0
   21.8051  -20.6572  -13.1912 O   0  0  0  0  0  0  0  0  0  0  0  0
   22.0434  -20.8179  -10.6372 C   0  0  0  0  0  0  0  0  0  0  0  0
   22.1891  -22.1821  -10.4696 O   0  0  0  0  0  0  0  0  0  0  0  0
   23.7996  -20.2939  -14.1916 O   0  0  0  0  0  0  0  0  0  0  0  0
   20.8917  -20.3340  -10.6968 O   0  0  0  0  0  0  0  0  0  0  0  0
  2  1  1  1
  2  3  1  0
  4  2  1  0
  4  5  1  6
  6  7  2  0
  6  4  1  0
  8  6  1  0
  9  8  1  0
  9 10  1  1
 10 11  1  0
 11 12  2  0
 11 19  1  0
 12 13  1  0
 13 14  1  0
 14 15  2  0
 15 16  1  0
 17 16  2  0
 18 17  1  0
 19 18  2  0
 19 14  1  0
 20 21  2  0
 20  9  1  0
 22 20  1  0
 23 24  1  6
 23 22  1  0
 25 29  1  0
 25 24  1  0
 26 25  2  0
 27 23  1  0
 28 27  1  0
 30 27  2  0
M  END
$$$$
