GQI.pdb
     RDKit          3D

 22 21  0  0  1  0  0  0  0  0999 V2000
    7.7809  -12.6031   18.2420 N   0  0  0  0  0  0  0  0  0  0  0  0
    8.7238  -13.4534   18.9155 C   0  0  0  0  0  0  0  0  0  0  0  0
    8.0600  -14.1232   20.0765 C   0  0  0  0  0  0  0  0  0  0  0  0
    6.9867  -13.6458   20.5314 O   0  0  0  0  0  0  0  0  0  0  0  0
    8.9709  -20.2144   20.6317 N   0  0  0  0  0  0  0  0  0  0  0  0
    8.6186  -19.0481   19.9029 C   0  0  0  0  0  0  0  0  0  0  0  0
    9.1614  -18.8544   18.7912 O   0  0  0  0  0  0  0  0  0  0  0  0
    7.6195  -18.0457   20.4235 C   0  0  0  0  0  0  0  0  0  0  0  0
    8.2016  -17.3990   21.6223 C   0  0  0  0  0  0  0  0  0  0  0  0
    7.8792  -15.9399   21.8153 C   0  0  2  0  0  0  0  0  0  0  0  0
    8.5713  -15.2719   20.6997 N   0  0  0  0  0  0  0  0  0  0  0  0
    8.4648  -15.4103   23.0641 C   0  0  0  0  0  0  0  0  0  0  0  0
    9.6932  -15.0935   23.0552 O   0  0  0  0  0  0  0  0  0  0  0  0
    5.8189  -11.8535   25.9255 C   0  0  0  0  0  0  0  0  0  0  0  0
    6.8556  -12.6995   25.2566 C   0  0  0  0  0  0  0  0  0  0  0  0
    7.4261  -13.7524   26.2036 C   0  0  2  0  0  0  0  0  0  0  0  0
    8.2300  -13.0265   27.2577 C   0  0  0  0  0  0  0  0  0  0  0  0
    8.3858  -14.6260   25.3997 C   0  0  2  0  0  0  0  0  0  0  0  0
    7.7241  -15.2320   24.2782 N   0  0  0  0  0  0  0  0  0  0  0  0
    9.0053  -15.6391   26.2894 C   0  0  0  0  0  0  0  0  0  0  0  0
   10.2310  -15.4430   26.8987 O   0  0  0  0  0  0  0  0  0  0  0  0
    8.4397  -16.7440   26.5385 O   0  0  0  0  0  0  0  0  0  0  0  0
  2  3  1  0
  2  1  1  0
  3 11  1  0
  4  3  2  0
  6  8  1  0
  6  5  1  0
  7  6  2  0
  9  8  1  0
 10  9  1  6
 10 12  1  0
 11 10  1  0
 12 13  2  0
 12 19  1  0
 15 14  1  0
 15 16  1  0
 16 18  1  0
 16 17  1  1
 18 20  1  0
 18 19  1  6
 20 21  1  0
 22 20  2  0
M  END
$$$$
