GQI.pdb
     RDKit          3D

 22 21  0  0  1  0  0  0  0  0999 V2000
    7.9667  -12.9517   18.7180 N   0  0  0  0  0  0  0  0  0  0  0  0
    8.4145  -14.2250   19.2118 C   0  0  0  0  0  0  0  0  0  0  0  0
    7.6571  -14.5805   20.4516 C   0  0  0  0  0  0  0  0  0  0  0  0
    6.7551  -13.8047   20.8657 O   0  0  0  0  0  0  0  0  0  0  0  0
    5.4885  -20.5872   23.4878 N   0  0  0  0  0  0  0  0  0  0  0  0
    6.6283  -19.7441   23.4145 C   0  0  0  0  0  0  0  0  0  0  0  0
    7.7425  -20.2680   23.1863 O   0  0  0  0  0  0  0  0  0  0  0  0
    6.5372  -18.2505   23.6017 C   0  0  0  0  0  0  0  0  0  0  0  0
    7.1116  -17.6024   22.3999 C   0  0  0  0  0  0  0  0  0  0  0  0
    7.1141  -16.0957   22.3921 C   0  0  2  0  0  0  0  0  0  0  0  0
    7.8962  -15.7474   21.1935 N   0  0  0  0  0  0  0  0  0  0  0  0
    7.8392  -15.5434   23.5549 C   0  0  0  0  0  0  0  0  0  0  0  0
    9.1073  -15.5756   23.5327 O   0  0  0  0  0  0  0  0  0  0  0  0
    5.7301  -11.4457   26.4245 C   0  0  0  0  0  0  0  0  0  0  0  0
    6.6559  -12.3665   25.6945 C   0  0  0  0  0  0  0  0  0  0  0  0
    7.2211  -13.4477   26.6123 C   0  0  2  0  0  0  0  0  0  0  0  0
    8.1905  -12.7780   27.5589 C   0  0  0  0  0  0  0  0  0  0  0  0
    8.0107  -14.4244   25.7445 C   0  0  2  0  0  0  0  0  0  0  0  0
    7.1922  -14.9724   24.6993 N   0  0  0  0  0  0  0  0  0  0  0  0
    8.6028  -15.4851   26.5965 C   0  0  0  0  0  0  0  0  0  0  0  0
    9.8915  -15.4076   27.0917 O   0  0  0  0  0  0  0  0  0  0  0  0
    7.9541  -16.5241   26.9165 O   0  0  0  0  0  0  0  0  0  0  0  0
  2  3  1  0
  2  1  1  0
  3 11  1  0
  4  3  2  0
  6  8  1  0
  6  5  1  0
  7  6  2  0
  9  8  1  0
 10  9  1  1
 10 12  1  0
 11 10  1  0
 12 13  2  0
 12 19  1  0
 15 14  1  0
 15 16  1  0
 16 18  1  0
 16 17  1  1
 18 20  1  0
 18 19  1  6
 20 21  1  0
 22 20  2  0
M  END
$$$$
