GQI.pdb
     RDKit          3D

 22 21  0  0  1  0  0  0  0  0999 V2000
    8.1047  -12.3882   18.4481 N   0  0  0  0  0  0  0  0  0  0  0  0
    8.8604  -13.4908   18.9760 C   0  0  0  0  0  0  0  0  0  0  0  0
    8.1520  -14.0675   20.1602 C   0  0  0  0  0  0  0  0  0  0  0  0
    7.1395  -13.4757   20.6203 O   0  0  0  0  0  0  0  0  0  0  0  0
    9.9664  -19.0633   20.8625 N   0  0  0  0  0  0  0  0  0  0  0  0
    8.7929  -18.9103   20.0785 C   0  0  0  0  0  0  0  0  0  0  0  0
    8.6695  -19.6118   19.0486 O   0  0  0  0  0  0  0  0  0  0  0  0
    7.7012  -17.9370   20.4461 C   0  0  0  0  0  0  0  0  0  0  0  0
    8.0470  -17.3336   21.7540 C   0  0  0  0  0  0  0  0  0  0  0  0
    7.7833  -15.8571   21.8975 C   0  0  2  0  0  0  0  0  0  0  0  0
    8.5555  -15.2495   20.8001 N   0  0  0  0  0  0  0  0  0  0  0  0
    8.3349  -15.3225   23.1595 C   0  0  0  0  0  0  0  0  0  0  0  0
    9.5913  -15.1652   23.2379 O   0  0  0  0  0  0  0  0  0  0  0  0
    5.5825  -11.6434   25.9240 C   0  0  0  0  0  0  0  0  0  0  0  0
    6.6266  -12.4884   25.2655 C   0  0  0  0  0  0  0  0  0  0  0  0
    7.2226  -13.5094   26.2316 C   0  0  2  0  0  0  0  0  0  0  0  0
    8.0323  -12.7467   27.2548 C   0  0  0  0  0  0  0  0  0  0  0  0
    8.1813  -14.3928   25.4374 C   0  0  2  0  0  0  0  0  0  0  0  0
    7.5322  -14.9698   24.2934 N   0  0  0  0  0  0  0  0  0  0  0  0
    8.7591  -15.4305   26.3267 C   0  0  0  0  0  0  0  0  0  0  0  0
    9.9773  -15.2710   26.9613 O   0  0  0  0  0  0  0  0  0  0  0  0
    8.1625  -16.5240   26.5524 O   0  0  0  0  0  0  0  0  0  0  0  0
  2  3  1  0
  2  1  1  0
  3 11  1  0
  4  3  2  0
  6  8  1  0
  6  5  1  0
  7  6  2  0
  9  8  1  0
 10  9  1  1
 10 12  1  0
 11 10  1  0
 12 13  2  0
 12 19  1  0
 15 14  1  0
 15 16  1  0
 16 18  1  0
 16 17  1  1
 18 20  1  0
 18 19  1  6
 20 21  1  0
 22 20  2  0
M  END
$$$$
