GQI.pdb
     RDKit          3D

 22 21  0  0  1  0  0  0  0  0999 V2000
   13.1086  -17.1482   20.4857 N   0  0  0  0  0  0  0  0  0  0  0  0
   11.9126  -17.5674   21.1635 C   0  0  0  0  0  0  0  0  0  0  0  0
   11.0434  -16.3807   21.4345 C   0  0  0  0  0  0  0  0  0  0  0  0
   11.5631  -15.2340   21.4776 O   0  0  0  0  0  0  0  0  0  0  0  0
    7.9882  -12.2956   19.6418 N   0  0  0  0  0  0  0  0  0  0  0  0
    7.4617  -13.6124   19.5787 C   0  0  0  0  0  0  0  0  0  0  0  0
    7.5406  -14.2336   18.4943 O   0  0  0  0  0  0  0  0  0  0  0  0
    6.8165  -14.2785   20.7679 C   0  0  0  0  0  0  0  0  0  0  0  0
    7.5977  -15.4948   21.0913 C   0  0  0  0  0  0  0  0  0  0  0  0
    8.8263  -15.2919   21.9395 C   0  0  2  0  0  0  0  0  0  0  0  0
    9.6593  -16.4710   21.6472 N   0  0  0  0  0  0  0  0  0  0  0  0
    8.5092  -15.3356   23.3819 C   0  0  0  0  0  0  0  0  0  0  0  0
    8.7922  -16.3954   24.0192 O   0  0  0  0  0  0  0  0  0  0  0  0
    6.3949  -10.8668   26.1016 C   0  0  0  0  0  0  0  0  0  0  0  0
    7.2938  -11.9964   25.7092 C   0  0  0  0  0  0  0  0  0  0  0  0
    6.6605  -13.3540   26.0035 C   0  0  2  0  0  0  0  0  0  0  0  0
    6.5627  -13.4931   27.5053 C   0  0  0  0  0  0  0  0  0  0  0  0
    7.6156  -14.4301   25.4932 C   0  0  2  0  0  0  0  0  0  0  0  0
    7.9060  -14.2505   24.0981 N   0  0  0  0  0  0  0  0  0  0  0  0
    7.0508  -15.7736   25.7717 C   0  0  0  0  0  0  0  0  0  0  0  0
    7.5098  -16.5738   26.8018 O   0  0  0  0  0  0  0  0  0  0  0  0
    6.1126  -16.2609   25.0753 O   0  0  0  0  0  0  0  0  0  0  0  0
  2  3  1  0
  2  1  1  0
  3 11  1  0
  4  3  2  0
  6  8  1  0
  6  5  1  0
  7  6  2  0
  9  8  1  0
 10  9  1  6
 10 12  1  0
 11 10  1  0
 12 13  2  0
 12 19  1  0
 15 14  1  0
 15 16  1  0
 16 18  1  0
 16 17  1  1
 18 20  1  0
 18 19  1  6
 20 21  1  0
 22 20  2  0
M  END
$$$$
