GQI.pdb
     RDKit          3D

 22 21  0  0  1  0  0  0  0  0999 V2000
    7.7213  -12.6210   18.8889 N   0  0  0  0  0  0  0  0  0  0  0  0
    8.5118  -13.7364   19.3324 C   0  0  0  0  0  0  0  0  0  0  0  0
    7.9061  -14.3255   20.5665 C   0  0  0  0  0  0  0  0  0  0  0  0
    6.9178  -13.7549   21.1000 O   0  0  0  0  0  0  0  0  0  0  0  0
    5.8333  -19.1024   21.7242 N   0  0  0  0  0  0  0  0  0  0  0  0
    6.3523  -19.0745   23.0453 C   0  0  0  0  0  0  0  0  0  0  0  0
    5.6855  -19.6130   23.9582 O   0  0  0  0  0  0  0  0  0  0  0  0
    7.6703  -18.4216   23.3779 C   0  0  0  0  0  0  0  0  0  0  0  0
    8.0614  -17.5690   22.2315 C   0  0  0  0  0  0  0  0  0  0  0  0
    7.7201  -16.1056   22.3422 C   0  0  2  0  0  0  0  0  0  0  0  0
    8.3821  -15.4966   21.1758 N   0  0  0  0  0  0  0  0  0  0  0  0
    8.3193  -15.4932   23.5458 C   0  0  0  0  0  0  0  0  0  0  0  0
    9.5848  -15.4758   23.6347 O   0  0  0  0  0  0  0  0  0  0  0  0
    5.7561  -11.5105   26.2076 C   0  0  0  0  0  0  0  0  0  0  0  0
    6.7540  -12.4060   25.5442 C   0  0  0  0  0  0  0  0  0  0  0  0
    7.3600  -13.4059   26.5259 C   0  0  2  0  0  0  0  0  0  0  0  0
    8.2364  -12.6293   27.4814 C   0  0  0  0  0  0  0  0  0  0  0  0
    8.2559  -14.3510   25.7293 C   0  0  2  0  0  0  0  0  0  0  0  0
    7.5536  -14.9169   24.6115 N   0  0  0  0  0  0  0  0  0  0  0  0
    8.8017  -15.3989   26.6270 C   0  0  0  0  0  0  0  0  0  0  0  0
   10.0473  -15.2957   27.2186 O   0  0  0  0  0  0  0  0  0  0  0  0
    8.1506  -16.4498   26.8997 O   0  0  0  0  0  0  0  0  0  0  0  0
  2  3  1  0
  2  1  1  0
  3 11  1  0
  4  3  2  0
  6  8  1  0
  6  5  1  0
  7  6  2  0
  9  8  1  0
 10  9  1  1
 10 12  1  0
 11 10  1  0
 12 13  2  0
 12 19  1  0
 15 14  1  0
 15 16  1  0
 16 18  1  0
 16 17  1  1
 18 20  1  0
 18 19  1  6
 20 21  1  0
 22 20  2  0
M  END
$$$$
