GQI.pdb
     RDKit          3D

 22 21  0  0  1  0  0  0  0  0999 V2000
    6.9179  -13.3253   18.4271 N   0  0  0  0  0  0  0  0  0  0  0  0
    8.0863  -13.2501   19.2606 C   0  0  0  0  0  0  0  0  0  0  0  0
    7.9348  -14.1740   20.4271 C   0  0  0  0  0  0  0  0  0  0  0  0
    6.7927  -14.3499   20.9288 O   0  0  0  0  0  0  0  0  0  0  0  0
    8.6461  -19.3033   20.8918 N   0  0  0  0  0  0  0  0  0  0  0  0
    9.0012  -19.1304   22.2553 C   0  0  0  0  0  0  0  0  0  0  0  0
    8.5001  -19.9034   23.1036 O   0  0  0  0  0  0  0  0  0  0  0  0
    9.9551  -18.0535   22.7077 C   0  0  0  0  0  0  0  0  0  0  0  0
    9.8583  -16.9253   21.7527 C   0  0  0  0  0  0  0  0  0  0  0  0
    8.8191  -15.8787   22.0605 C   0  0  2  0  0  0  0  0  0  0  0  0
    9.0083  -14.8683   21.0056 N   0  0  0  0  0  0  0  0  0  0  0  0
    9.0823  -15.2087   23.3507 C   0  0  0  0  0  0  0  0  0  0  0  0
   10.2051  -14.6386   23.5045 O   0  0  0  0  0  0  0  0  0  0  0  0
    5.7272  -11.9443   25.5706 C   0  0  0  0  0  0  0  0  0  0  0  0
    6.9303  -12.7245   25.1442 C   0  0  0  0  0  0  0  0  0  0  0  0
    7.3982  -13.6862   26.2337 C   0  0  2  0  0  0  0  0  0  0  0  0
    7.9608  -12.8537   27.3628 C   0  0  0  0  0  0  0  0  0  0  0  0
    8.5364  -14.5226   25.6545 C   0  0  2  0  0  0  0  0  0  0  0  0
    8.1419  -15.1641   24.4315 N   0  0  0  0  0  0  0  0  0  0  0  0
    9.0032  -15.5021   26.6667 C   0  0  0  0  0  0  0  0  0  0  0  0
    8.5997  -16.8247   26.6623 O   0  0  0  0  0  0  0  0  0  0  0  0
    9.8008  -15.1753   27.5939 O   0  0  0  0  0  0  0  0  0  0  0  0
  2  3  1  0
  2  1  1  0
  3 11  1  0
  4  3  2  0
  6  8  1  0
  6  5  1  0
  7  6  2  0
  9  8  1  0
 10  9  1  6
 10 12  1  0
 11 10  1  0
 12 13  2  0
 12 19  1  0
 15 14  1  0
 15 16  1  0
 16 18  1  0
 16 17  1  1
 18 20  1  0
 18 19  1  6
 20 21  1  0
 22 20  2  0
M  END
$$$$
