GQI.pdb
     RDKit          3D

 22 21  0  0  1  0  0  0  0  0999 V2000
    7.0824  -15.7833   18.5639 N   0  0  0  0  0  0  0  0  0  0  0  0
    7.8387  -16.5608   19.5068 C   0  0  0  0  0  0  0  0  0  0  0  0
    7.2034  -16.4737   20.8580 C   0  0  0  0  0  0  0  0  0  0  0  0
    6.2275  -15.6960   21.0304 O   0  0  0  0  0  0  0  0  0  0  0  0
    7.3882  -21.1141   24.6699 N   0  0  0  0  0  0  0  0  0  0  0  0
    6.8316  -20.1792   25.5817 C   0  0  0  0  0  0  0  0  0  0  0  0
    6.4980  -20.5833   26.7190 O   0  0  0  0  0  0  0  0  0  0  0  0
    6.6324  -18.7278   25.2241 C   0  0  0  0  0  0  0  0  0  0  0  0
    7.0623  -18.5391   23.8192 C   0  0  0  0  0  0  0  0  0  0  0  0
    6.9842  -17.1338   23.2813 C   0  0  2  0  0  0  0  0  0  0  0  0
    7.6377  -17.2201   21.9641 N   0  0  0  0  0  0  0  0  0  0  0  0
    7.7790  -16.1910   24.0952 C   0  0  0  0  0  0  0  0  0  0  0  0
    9.0423  -16.2341   23.9877 O   0  0  0  0  0  0  0  0  0  0  0  0
    5.7807  -11.3698   25.8649 C   0  0  0  0  0  0  0  0  0  0  0  0
    6.6756  -12.4352   25.3152 C   0  0  0  0  0  0  0  0  0  0  0  0
    7.3316  -13.2533   26.4248 C   0  0  2  0  0  0  0  0  0  0  0  0
    8.3444  -12.3627   27.1070 C   0  0  0  0  0  0  0  0  0  0  0  0
    8.0869  -14.4046   25.7656 C   0  0  2  0  0  0  0  0  0  0  0  0
    7.2039  -15.2325   24.9924 N   0  0  0  0  0  0  0  0  0  0  0  0
    8.8121  -15.1843   26.7989 C   0  0  0  0  0  0  0  0  0  0  0  0
    8.2128  -16.2010   27.5195 O   0  0  0  0  0  0  0  0  0  0  0  0
   10.0262  -14.9575   27.0767 O   0  0  0  0  0  0  0  0  0  0  0  0
  2  3  1  0
  2  1  1  0
  3 11  1  0
  4  3  2  0
  6  8  1  0
  6  5  1  0
  7  6  2  0
  9  8  1  0
 10  9  1  1
 10 12  1  0
 11 10  1  0
 12 13  2  0
 12 19  1  0
 15 14  1  0
 15 16  1  0
 16 18  1  0
 16 17  1  6
 18 20  1  0
 18 19  1  1
 20 21  1  0
 22 20  2  0
M  END
$$$$
