GQI.pdb
     RDKit          3D

 22 21  0  0  1  0  0  0  0  0999 V2000
    7.9578  -12.7078   18.8818 N   0  0  0  0  0  0  0  0  0  0  0  0
    8.6903  -13.8278   19.4059 C   0  0  0  0  0  0  0  0  0  0  0  0
    7.9467  -14.4222   20.5595 C   0  0  0  0  0  0  0  0  0  0  0  0
    6.9289  -13.8297   21.0069 O   0  0  0  0  0  0  0  0  0  0  0  0
    4.9198  -18.7740   22.2026 N   0  0  0  0  0  0  0  0  0  0  0  0
    5.7125  -18.2498   23.2572 C   0  0  0  0  0  0  0  0  0  0  0  0
    5.1452  -17.5858   24.1547 O   0  0  0  0  0  0  0  0  0  0  0  0
    7.2031  -18.4670   23.3274 C   0  0  0  0  0  0  0  0  0  0  0  0
    7.8360  -17.6455   22.2696 C   0  0  0  0  0  0  0  0  0  0  0  0
    7.6113  -16.1582   22.3567 C   0  0  2  0  0  0  0  0  0  0  0  0
    8.3223  -15.6216   21.1837 N   0  0  0  0  0  0  0  0  0  0  0  0
    8.2542  -15.5766   23.5531 C   0  0  0  0  0  0  0  0  0  0  0  0
    9.5209  -15.6034   23.6176 O   0  0  0  0  0  0  0  0  0  0  0  0
    5.6953  -11.6977   26.4037 C   0  0  0  0  0  0  0  0  0  0  0  0
    6.7654  -12.4689   25.6980 C   0  0  0  0  0  0  0  0  0  0  0  0
    7.3893  -13.5301   26.6011 C   0  0  2  0  0  0  0  0  0  0  0  0
    8.2805  -12.8161   27.5912 C   0  0  0  0  0  0  0  0  0  0  0  0
    8.2731  -14.4180   25.7288 C   0  0  2  0  0  0  0  0  0  0  0  0
    7.5293  -14.9830   24.6377 N   0  0  0  0  0  0  0  0  0  0  0  0
    8.9102  -15.4656   26.5644 C   0  0  0  0  0  0  0  0  0  0  0  0
    8.3142  -16.6903   26.8030 O   0  0  0  0  0  0  0  0  0  0  0  0
   10.0408  -15.2912   27.1067 O   0  0  0  0  0  0  0  0  0  0  0  0
  2  3  1  0
  2  1  1  0
  3 11  1  0
  4  3  2  0
  6  8  1  0
  6  5  1  0
  7  6  2  0
  9  8  1  0
 10  9  1  1
 10 12  1  0
 11 10  1  0
 12 13  2  0
 12 19  1  0
 15 14  1  0
 15 16  1  0
 16 18  1  0
 16 17  1  1
 18 20  1  0
 18 19  1  6
 20 21  1  0
 22 20  2  0
M  END
$$$$
