GQI.pdb
     RDKit          3D

 22 21  0  0  1  0  0  0  0  0999 V2000
    7.8721  -13.0447   17.3338 N   0  0  0  0  0  0  0  0  0  0  0  0
    8.8083  -13.4194   18.3578 C   0  0  0  0  0  0  0  0  0  0  0  0
    8.0871  -14.1025   19.4759 C   0  0  0  0  0  0  0  0  0  0  0  0
    6.8377  -14.2477   19.4049 O   0  0  0  0  0  0  0  0  0  0  0  0
   10.4892  -19.3240   22.7995 N   0  0  0  0  0  0  0  0  0  0  0  0
   10.1400  -18.5077   21.6918 C   0  0  0  0  0  0  0  0  0  0  0  0
   10.0298  -19.0464   20.5668 O   0  0  0  0  0  0  0  0  0  0  0  0
    9.9002  -17.0252   21.8291 C   0  0  0  0  0  0  0  0  0  0  0  0
    8.4793  -16.7592   21.5058 C   0  0  0  0  0  0  0  0  0  0  0  0
    8.0126  -15.3364   21.6733 C   0  0  2  0  0  0  0  0  0  0  0  0
    8.7311  -14.5999   20.6193 N   0  0  0  0  0  0  0  0  0  0  0  0
    8.4441  -14.7673   22.9667 C   0  0  0  0  0  0  0  0  0  0  0  0
    9.5934  -14.2335   23.0256 O   0  0  0  0  0  0  0  0  0  0  0  0
    6.8219  -10.9824   27.1910 C   0  0  0  0  0  0  0  0  0  0  0  0
    7.6703  -12.1640   26.8419 C   0  0  0  0  0  0  0  0  0  0  0  0
    7.0595  -12.9866   25.7101 C   0  0  2  0  0  0  0  0  0  0  0  0
    5.8584  -13.7112   26.2730 C   0  0  0  0  0  0  0  0  0  0  0  0
    8.0878  -14.0350   25.2933 C   0  0  2  0  0  0  0  0  0  0  0  0
    7.6380  -14.7816   24.1517 N   0  0  0  0  0  0  0  0  0  0  0  0
    8.3970  -14.9185   26.4446 C   0  0  0  0  0  0  0  0  0  0  0  0
    8.0914  -16.2671   26.4496 O   0  0  0  0  0  0  0  0  0  0  0  0
    8.9605  -14.4802   27.4902 O   0  0  0  0  0  0  0  0  0  0  0  0
  2  3  1  0
  2  1  1  0
  3 11  1  0
  4  3  2  0
  6  8  1  0
  6  5  1  0
  7  6  2  0
  9  8  1  0
 10  9  1  1
 10 12  1  0
 11 10  1  0
 12 13  2  0
 12 19  1  0
 15 14  1  0
 15 16  1  0
 16 18  1  0
 16 17  1  1
 18 20  1  0
 18 19  1  6
 20 21  1  0
 22 20  2  0
M  END
$$$$
