SRQ.pdb
     RDKit          3D

 27 26  0  0  1  0  0  0  0  0999 V2000
   17.0560  -10.5457  -18.1491 O   0  0  0  0  0  0  0  0  0  0  0  0
   17.7407  -10.1508  -17.0031 C   0  0  0  0  0  0  0  0  0  0  0  0
   18.7571  -11.2064  -16.6251 C   0  0  2  0  0  0  0  0  0  0  0  0
   18.1257  -12.3043  -15.9615 N   0  0  0  0  0  0  0  0  0  0  0  0
   19.8407  -10.6409  -15.7800 C   0  0  0  0  0  0  0  0  0  0  0  0
   19.6462  -10.4014  -14.5581 O   0  0  0  0  0  0  0  0  0  0  0  0
   27.9011  -12.7175  -16.3643 N   0  0  0  0  0  0  0  0  0  0  0  0
   27.4065  -11.3848  -16.3814 C   0  0  0  0  0  0  0  0  0  0  0  0
   28.1817  -10.3992  -16.6869 N   0  0  0  0  0  0  0  0  0  0  0  0
   26.0590  -11.0592  -16.0706 N   0  0  0  0  0  0  0  0  0  0  0  0
   25.0910  -12.0626  -15.7673 C   0  0  0  0  0  0  0  0  0  0  0  0
   23.7236  -11.5130  -15.4380 C   0  0  0  0  0  0  0  0  0  0  0  0
   23.5465  -10.0865  -15.8767 C   0  0  0  0  0  0  0  0  0  0  0  0
   22.1315   -9.6661  -15.5289 C   0  0  2  0  0  0  0  0  0  0  0  0
   21.1312  -10.3450  -16.2954 N   0  0  0  0  0  0  0  0  0  0  0  0
   22.0735   -8.1927  -15.8087 C   0  0  0  0  0  0  0  0  0  0  0  0
   21.9061   -7.7768  -16.9891 O   0  0  0  0  0  0  0  0  0  0  0  0
   27.7708   -9.4440  -16.7359 N   0  0  0  0  0  0  0  0  0  0  0  0
   18.6479   -2.2782  -15.9386 C   0  0  0  0  0  0  0  0  0  0  0  0
   19.0276   -3.6708  -15.7851 O   0  0  0  0  0  0  0  0  0  0  0  0
   18.0922   -4.4460  -15.5637 C   0  0  0  0  0  0  0  0  0  0  0  0
   20.4078   -4.0847  -15.8877 C   0  0  0  0  0  0  0  0  0  0  0  0
   20.7745   -5.4939  -15.6849 C   0  0  1  0  0  0  0  0  0  0  0  0
   22.0497   -5.7986  -14.9761 N   0  0  0  0  0  0  0  0  0  0  0  0
   22.2028   -7.2365  -14.7704 C   0  0  0  0  0  0  0  0  0  0  0  0
   22.3555   -5.0423  -13.7708 O   0  0  0  0  0  0  0  0  0  0  0  0
   22.5845   -3.6786  -13.7526 O   0  0  0  0  0  0  0  0  0  0  0  0
  1  2  1  0
  2  3  1  0
  3  5  1  0
  3  4  1  1
  5 15  1  0
  6  5  2  0
  8  7  1  0
  8 10  1  0
  9  8  2  0
 11 10  1  0
 12 11  1  0
 13 12  1  0
 14 13  1  6
 15 14  1  0
 16 14  1  0
 16 24  1  0
 17 16  2  0
 18 19  1  0
 19 21  1  0
 20 19  2  0
 21 22  1  0
 23 24  1  0
 23 22  1  6
 25 23  1  0
 26 25  1  0
 27 25  2  0
M  END
$$$$
