SRQ.pdb
     RDKit          3D

 27 26  0  0  1  0  0  0  0  0999 V2000
   19.7415  -16.8767  -14.9861 O   0  0  0  0  0  0  0  0  0  0  0  0
   19.6193  -15.5767  -15.4687 C   0  0  0  0  0  0  0  0  0  0  0  0
   18.4264  -15.4850  -16.3954 C   0  0  2  0  0  0  0  0  0  0  0  0
   18.6689  -16.2036  -17.6075 N   0  0  0  0  0  0  0  0  0  0  0  0
   18.0731  -14.0719  -16.6899 C   0  0  0  0  0  0  0  0  0  0  0  0
   18.5787  -13.4738  -17.6772 O   0  0  0  0  0  0  0  0  0  0  0  0
   13.1393  -11.2330  -11.0687 N   0  0  0  0  0  0  0  0  0  0  0  0
   13.0145  -10.3519  -12.1773 C   0  0  0  0  0  0  0  0  0  0  0  0
   12.4231   -9.2121  -12.0486 N   0  0  0  0  0  0  0  0  0  0  0  0
   13.5205  -10.6617  -13.4682 N   0  0  0  0  0  0  0  0  0  0  0  0
   13.7684  -12.0055  -13.8790 C   0  0  0  0  0  0  0  0  0  0  0  0
   15.1705  -12.2401  -14.3885 C   0  0  0  0  0  0  0  0  0  0  0  0
   15.4227  -11.5946  -15.7221 C   0  0  0  0  0  0  0  0  0  0  0  0
   16.8254  -11.9685  -16.1610 C   0  0  2  0  0  0  0  0  0  0  0  0
   17.1626  -13.3326  -15.8881 N   0  0  0  0  0  0  0  0  0  0  0  0
   17.7388  -11.0560  -15.3959 C   0  0  0  0  0  0  0  0  0  0  0  0
   18.2467  -11.4358  -14.3040 O   0  0  0  0  0  0  0  0  0  0  0  0
   12.3878   -8.5776  -12.8731 N   0  0  0  0  0  0  0  0  0  0  0  0
   21.7351   -6.7580  -17.9056 C   0  0  0  0  0  0  0  0  0  0  0  0
   21.8301   -6.6002  -16.4658 O   0  0  0  0  0  0  0  0  0  0  0  0
   22.7206   -5.8358  -16.0817 C   0  0  0  0  0  0  0  0  0  0  0  0
   20.9341   -7.3023  -15.5764 C   0  0  0  0  0  0  0  0  0  0  0  0
   19.8959   -8.1893  -16.1211 C   0  0  2  0  0  0  0  0  0  0  0  0
   18.9518   -8.8417  -15.1699 N   0  0  0  0  0  0  0  0  0  0  0  0
   18.0550   -9.7580  -15.8695 C   0  0  0  0  0  0  0  0  0  0  0  0
   18.2347   -7.9907  -14.2321 O   0  0  0  0  0  0  0  0  0  0  0  0
   18.7448   -7.5848  -13.0125 O   0  0  0  0  0  0  0  0  0  0  0  0
  1  2  1  0
  2  3  1  0
  3  5  1  0
  3  4  1  6
  5 15  1  0
  6  5  2  0
  8  7  1  0
  8 10  1  0
  9  8  2  0
 11 10  1  0
 12 11  1  0
 13 12  1  0
 14 13  1  1
 15 14  1  0
 16 14  1  0
 16 24  1  0
 17 16  2  0
 18 19  1  0
 19 21  1  0
 20 19  2  0
 21 22  1  0
 23 24  1  0
 23 22  1  1
 25 23  1  0
 26 25  1  0
 27 25  2  0
M  END
$$$$
