SRQ.pdb
     RDKit          3D

 27 26  0  0  1  0  0  0  0  0999 V2000
   31.1103  -22.4231  -13.4137 O   0  0  0  0  0  0  0  0  0  0  0  0
   29.8393  -21.8576  -13.4654 C   0  0  0  0  0  0  0  0  0  0  0  0
   29.7850  -20.6383  -12.5706 C   0  0  2  0  0  0  0  0  0  0  0  0
   29.9970  -21.0019  -11.2041 N   0  0  0  0  0  0  0  0  0  0  0  0
   28.4992  -19.9089  -12.7217 C   0  0  0  0  0  0  0  0  0  0  0  0
   27.6630  -19.8752  -11.7794 O   0  0  0  0  0  0  0  0  0  0  0  0
   24.0760  -15.9653  -18.7629 N   0  0  0  0  0  0  0  0  0  0  0  0
   23.6626  -15.1708  -17.6588 C   0  0  0  0  0  0  0  0  0  0  0  0
   22.5266  -14.5588  -17.6774 N   0  0  0  0  0  0  0  0  0  0  0  0
   24.4545  -15.0030  -16.4914 N   0  0  0  0  0  0  0  0  0  0  0  0
   25.7251  -15.6355  -16.3441 C   0  0  0  0  0  0  0  0  0  0  0  0
   25.7881  -16.6219  -15.2024 C   0  0  0  0  0  0  0  0  0  0  0  0
   27.0918  -17.3675  -15.1463 C   0  0  0  0  0  0  0  0  0  0  0  0
   27.0076  -18.3650  -14.0071 C   0  0  2  0  0  0  0  0  0  0  0  0
   28.1499  -19.2228  -13.9157 N   0  0  0  0  0  0  0  0  0  0  0  0
   25.7790  -19.1819  -14.2828 C   0  0  0  0  0  0  0  0  0  0  0  0
   25.8131  -20.1111  -15.1371 O   0  0  0  0  0  0  0  0  0  0  0  0
   22.2509  -14.0030  -16.8415 N   0  0  0  0  0  0  0  0  0  0  0  0
   21.7863  -20.7114   -9.6287 C   0  0  0  0  0  0  0  0  0  0  0  0
   21.1624  -21.2403  -10.8279 O   0  0  0  0  0  0  0  0  0  0  0  0
   20.1380  -21.9024  -10.6352 C   0  0  0  0  0  0  0  0  0  0  0  0
   21.7261  -20.9930  -12.1347 C   0  0  0  0  0  0  0  0  0  0  0  0
   22.9335  -20.1660  -12.2751 C   0  0  1  0  0  0  0  0  0  0  0  0
   23.4164  -19.8457  -13.6483 N   0  0  0  0  0  0  0  0  0  0  0  0
   24.5600  -18.9384  -13.6018 C   0  0  0  0  0  0  0  0  0  0  0  0
   22.4318  -19.4277  -14.6353 O   0  0  0  0  0  0  0  0  0  0  0  0
   21.6152  -20.3020  -15.3290 O   0  0  0  0  0  0  0  0  0  0  0  0
  1  2  1  0
  2  3  1  0
  3  5  1  0
  3  4  1  1
  5 15  1  0
  6  5  2  0
  8  7  1  0
  8 10  1  0
  9  8  2  0
 11 10  1  0
 12 11  1  0
 13 12  1  0
 14 13  1  6
 15 14  1  0
 16 14  1  0
 16 24  1  0
 17 16  2  0
 18 19  1  0
 19 21  1  0
 20 19  2  0
 21 22  1  0
 23 24  1  0
 23 22  1  1
 25 23  1  0
 26 25  1  0
 27 25  2  0
M  END
$$$$
