SRQ.pdb
     RDKit          3D

 27 26  0  0  1  0  0  0  0  0999 V2000
   28.5164  -22.0279  -20.4006 O   0  0  0  0  0  0  0  0  0  0  0  0
   27.6966  -22.6435  -19.4589 C   0  0  0  0  0  0  0  0  0  0  0  0
   28.5393  -23.1951  -18.3294 C   0  0  2  0  0  0  0  0  0  0  0  0
   29.0344  -24.4965  -18.6544 N   0  0  0  0  0  0  0  0  0  0  0  0
   27.7813  -23.2306  -17.0518 C   0  0  0  0  0  0  0  0  0  0  0  0
   27.4685  -24.3289  -16.5186 O   0  0  0  0  0  0  0  0  0  0  0  0
   24.4428  -20.3524  -10.2061 N   0  0  0  0  0  0  0  0  0  0  0  0
   25.7947  -20.3881   -9.7677 C   0  0  0  0  0  0  0  0  0  0  0  0
   26.0808  -20.6575   -8.5385 N   0  0  0  0  0  0  0  0  0  0  0  0
   26.8921  -20.1353  -10.6337 N   0  0  0  0  0  0  0  0  0  0  0  0
   26.7067  -19.7874  -12.0050 C   0  0  0  0  0  0  0  0  0  0  0  0
   26.4631  -20.9725  -12.9087 C   0  0  0  0  0  0  0  0  0  0  0  0
   27.1829  -20.8619  -14.2234 C   0  0  0  0  0  0  0  0  0  0  0  0
   26.8068  -22.0686  -15.0616 C   0  0  2  0  0  0  0  0  0  0  0  0
   27.3757  -22.0491  -16.3749 N   0  0  0  0  0  0  0  0  0  0  0  0
   25.3092  -22.0371  -15.1556 C   0  0  0  0  0  0  0  0  0  0  0  0
   24.7318  -21.1037  -15.7798 O   0  0  0  0  0  0  0  0  0  0  0  0
   27.0771  -20.6085   -8.2407 N   0  0  0  0  0  0  0  0  0  0  0  0
   21.3132  -26.9294  -13.3967 C   0  0  0  0  0  0  0  0  0  0  0  0
   20.4728  -25.8262  -13.8252 O   0  0  0  0  0  0  0  0  0  0  0  0
   19.2599  -26.0572  -13.8105 C   0  0  0  0  0  0  0  0  0  0  0  0
   21.0463  -24.5651  -14.2344 C   0  0  0  0  0  0  0  0  0  0  0  0
   22.5040  -24.3747  -14.2159 C   0  0  2  0  0  0  0  0  0  0  0  0
   23.0489  -23.0424  -14.6027 N   0  0  0  0  0  0  0  0  0  0  0  0
   24.5086  -23.0408  -14.5549 C   0  0  0  0  0  0  0  0  0  0  0  0
   22.4835  -21.8643  -13.9621 O   0  0  0  0  0  0  0  0  0  0  0  0
   21.3739  -21.1869  -14.4336 O   0  0  0  0  0  0  0  0  0  0  0  0
  1  2  1  0
  2  3  1  0
  3  5  1  0
  3  4  1  6
  5 15  1  0
  6  5  2  0
  8  7  1  0
  8 10  1  0
  9  8  2  0
 11 10  1  0
 12 11  1  0
 13 12  1  0
 14 13  1  1
 15 14  1  0
 16 14  1  0
 16 24  1  0
 17 16  2  0
 18 19  1  0
 19 21  1  0
 20 19  2  0
 21 22  1  0
 23 24  1  0
 23 22  1  6
 25 23  1  0
 26 25  1  0
 27 25  2  0
M  END
$$$$
