KFV.pdb
     RDKit          3D

 28 28  0  0  1  0  0  0  0  0999 V2000
    6.9631  -18.1187   21.1659 N   0  0  0  0  0  0  0  0  0  0  0  0
    8.3115  -17.7558   20.8546 C   0  0  1  0  0  0  0  0  0  0  0  0
    8.3535  -17.1310   19.4787 C   0  0  0  0  0  0  0  0  0  0  0  0
    7.6563  -18.1045   18.5277 C   0  0  0  0  0  0  0  0  0  0  0  0
    8.6633  -19.0159   17.8601 C   0  0  0  0  0  0  0  0  0  0  0  0
    7.9159  -19.8801   16.8741 C   0  0  0  0  0  0  0  0  0  0  0  0
    8.8022  -20.8423   16.2728 N   0  0  0  0  0  0  0  0  0  0  0  0
    8.8505  -16.7868   21.8628 C   0  0  0  0  0  0  0  0  0  0  0  0
    9.8939  -16.1346   21.6767 O   0  0  0  0  0  0  0  0  0  0  0  0
    8.1594  -16.5888   23.0864 N   0  0  0  0  0  0  0  0  0  0  0  0
    8.7584  -15.8626   24.1957 C   0  0  1  0  0  0  0  0  0  0  0  0
    7.6167  -15.2416   24.9620 C   0  0  0  0  0  0  0  0  0  0  0  0
    8.0473  -14.4262   26.1112 C   0  0  0  0  0  0  0  0  0  0  0  0
    8.0799  -13.0483   26.0615 C   0  0  0  0  0  0  0  0  0  0  0  0
    8.4896  -12.2909   27.1622 C   0  0  0  0  0  0  0  0  0  0  0  0
    8.8740  -12.9106   28.3336 C   0  0  0  0  0  0  0  0  0  0  0  0
    8.8454  -14.2981   28.3955 C   0  0  0  0  0  0  0  0  0  0  0  0
    8.4374  -15.0138   27.2955 C   0  0  0  0  0  0  0  0  0  0  0  0
    9.6321  -16.7105   25.0124 C   0  0  0  0  0  0  0  0  0  0  0  0
    9.2315  -17.7400   25.6074 O   0  0  0  0  0  0  0  0  0  0  0  0
   14.4445  -17.7968   25.4516 C   0  0  0  0  0  0  0  0  0  0  0  0
   13.3120  -16.8995   25.0026 C   0  0  2  0  0  0  0  0  0  0  0  0
   13.5903  -15.4501   25.2846 C   0  0  0  0  0  0  0  0  0  0  0  0
   11.9901  -17.3421   25.6454 C   0  0  2  0  0  0  0  0  0  0  0  0
   11.0051  -16.3786   25.1581 N   0  0  0  0  0  0  0  0  0  0  0  0
   12.1746  -17.2119   27.1117 C   0  0  0  0  0  0  0  0  0  0  0  0
   11.6520  -16.0939   27.7392 O   0  0  0  0  0  0  0  0  0  0  0  0
   12.7760  -18.0673   27.7762 O   0  0  0  0  0  0  0  0  0  0  0  0
  2  1  1  1
  2  3  1  0
  4  3  1  0
  5  4  1  0
  6  5  1  0
  7  6  1  0
  8  9  2  0
  8  2  1  0
 10  8  1  0
 11 10  1  0
 12 13  1  0
 11 12  1  1
 13 18  2  0
 14 13  1  0
 14 15  2  0
 15 16  1  0
 16 17  2  0
 18 17  1  0
 19 20  2  0
 19 11  1  0
 22 21  1  1
 22 23  1  0
 24 25  1  6
 24 22  1  0
 25 19  1  0
 26 24  1  0
 27 26  1  0
 28 26  2  0
M  END
$$$$
