KFV.pdb
     RDKit          3D

 28 28  0  0  1  0  0  0  0  0999 V2000
   10.7681  -16.6316   19.9042 N   0  0  0  0  0  0  0  0  0  0  0  0
    9.6502  -16.8742   20.7633 C   0  0  1  0  0  0  0  0  0  0  0  0
    9.6335  -18.3333   21.1579 C   0  0  0  0  0  0  0  0  0  0  0  0
    9.3060  -19.1310   19.8951 C   0  0  0  0  0  0  0  0  0  0  0  0
    9.0742  -20.5893   20.2271 C   0  0  0  0  0  0  0  0  0  0  0  0
    8.7995  -21.3156   18.9329 C   0  0  0  0  0  0  0  0  0  0  0  0
    8.6695  -22.7304   19.1658 N   0  0  0  0  0  0  0  0  0  0  0  0
    9.7270  -16.0221   21.9938 C   0  0  0  0  0  0  0  0  0  0  0  0
   10.8076  -15.6670   22.4986 O   0  0  0  0  0  0  0  0  0  0  0  0
    8.5317  -15.5909   22.6256 N   0  0  0  0  0  0  0  0  0  0  0  0
    8.5515  -14.8415   23.8724 C   0  0  1  0  0  0  0  0  0  0  0  0
    7.2834  -14.0244   23.8965 C   0  0  0  0  0  0  0  0  0  0  0  0
    7.1039  -13.2436   25.1331 C   0  0  0  0  0  0  0  0  0  0  0  0
    6.1870  -13.6011   26.0994 C   0  0  0  0  0  0  0  0  0  0  0  0
    6.0317  -12.8494   27.2673 C   0  0  0  0  0  0  0  0  0  0  0  0
    6.7991  -11.7227   27.4812 C   0  0  0  0  0  0  0  0  0  0  0  0
    7.7260  -11.3528   26.5148 C   0  0  0  0  0  0  0  0  0  0  0  0
    7.8543  -12.1135   25.3775 C   0  0  0  0  0  0  0  0  0  0  0  0
    8.7240  -15.7075   25.0428 C   0  0  0  0  0  0  0  0  0  0  0  0
    7.9153  -16.6157   25.3519 O   0  0  0  0  0  0  0  0  0  0  0  0
   12.4560  -15.4940   26.9916 C   0  0  0  0  0  0  0  0  0  0  0  0
   11.6411  -16.7606   26.8464 C   0  0  2  0  0  0  0  0  0  0  0  0
   11.9253  -17.4734   25.5546 C   0  0  0  0  0  0  0  0  0  0  0  0
   10.1437  -16.4540   26.9888 C   0  0  2  0  0  0  0  0  0  0  0  0
    9.8514  -15.5367   25.8892 N   0  0  0  0  0  0  0  0  0  0  0  0
    9.9786  -15.7770   28.2986 C   0  0  0  0  0  0  0  0  0  0  0  0
   10.1027  -16.5388   29.4480 O   0  0  0  0  0  0  0  0  0  0  0  0
    9.7363  -14.5651   28.3851 O   0  0  0  0  0  0  0  0  0  0  0  0
  2  1  1  6
  2  3  1  0
  4  3  1  0
  5  4  1  0
  6  5  1  0
  7  6  1  0
  8  9  2  0
  8  2  1  0
 10  8  1  0
 11 10  1  0
 12 13  1  0
 11 12  1  1
 13 18  2  0
 14 13  1  0
 14 15  2  0
 15 16  1  0
 16 17  2  0
 18 17  1  0
 19 20  2  0
 19 11  1  0
 22 21  1  6
 22 23  1  0
 24 25  1  6
 24 22  1  0
 25 19  1  0
 26 24  1  0
 27 26  1  0
 28 26  2  0
M  END
$$$$
