KFV.pdb
     RDKit          3D

 28 28  0  0  1  0  0  0  0  0999 V2000
   10.0169  -16.8984   19.2761 N   0  0  0  0  0  0  0  0  0  0  0  0
    9.0546  -17.1744   20.2982 C   0  0  1  0  0  0  0  0  0  0  0  0
    9.0954  -18.6474   20.6352 C   0  0  0  0  0  0  0  0  0  0  0  0
    8.3044  -19.3739   19.5468 C   0  0  0  0  0  0  0  0  0  0  0  0
    9.2382  -20.0373   18.5576 C   0  0  0  0  0  0  0  0  0  0  0  0
    8.3980  -20.8770   17.6267 C   0  0  0  0  0  0  0  0  0  0  0  0
    9.2087  -21.4248   16.5705 N   0  0  0  0  0  0  0  0  0  0  0  0
    9.3378  -16.3694   21.5302 C   0  0  0  0  0  0  0  0  0  0  0  0
   10.4923  -16.1578   21.9438 O   0  0  0  0  0  0  0  0  0  0  0  0
    8.2611  -15.8161   22.2709 N   0  0  0  0  0  0  0  0  0  0  0  0
    8.4779  -15.0975   23.5171 C   0  0  1  0  0  0  0  0  0  0  0  0
    7.2729  -14.2104   23.7106 C   0  0  0  0  0  0  0  0  0  0  0  0
    7.2843  -13.4624   24.9799 C   0  0  0  0  0  0  0  0  0  0  0  0
    6.5043  -13.8317   26.0557 C   0  0  0  0  0  0  0  0  0  0  0  0
    6.5293  -13.1112   27.2529 C   0  0  0  0  0  0  0  0  0  0  0  0
    7.3425  -12.0043   27.3862 C   0  0  0  0  0  0  0  0  0  0  0  0
    8.1327  -11.6228   26.3093 C   0  0  0  0  0  0  0  0  0  0  0  0
    8.0850  -12.3527   25.1459 C   0  0  0  0  0  0  0  0  0  0  0  0
    8.7411  -15.9983   24.6436 C   0  0  0  0  0  0  0  0  0  0  0  0
    7.9631  -16.9228   24.9815 O   0  0  0  0  0  0  0  0  0  0  0  0
   11.9711  -17.6957   24.8342 C   0  0  0  0  0  0  0  0  0  0  0  0
   11.7838  -17.0831   26.2050 C   0  0  2  0  0  0  0  0  0  0  0  0
   12.3595  -17.9430   27.2944 C   0  0  0  0  0  0  0  0  0  0  0  0
   10.2994  -16.7881   26.4622 C   0  0  2  0  0  0  0  0  0  0  0  0
    9.9260  -15.8440   25.4109 N   0  0  0  0  0  0  0  0  0  0  0  0
   10.2265  -16.1461   27.7977 C   0  0  0  0  0  0  0  0  0  0  0  0
   10.3046  -16.9568   28.9174 O   0  0  0  0  0  0  0  0  0  0  0  0
   10.0994  -14.9210   27.9311 O   0  0  0  0  0  0  0  0  0  0  0  0
  2  1  1  6
  2  3  1  0
  4  3  1  0
  5  4  1  0
  6  5  1  0
  7  6  1  0
  8  9  2  0
  8  2  1  0
 10  8  1  0
 11 10  1  0
 12 13  1  0
 11 12  1  1
 13 18  2  0
 14 13  1  0
 14 15  2  0
 15 16  1  0
 16 17  2  0
 18 17  1  0
 19 20  2  0
 19 11  1  0
 22 21  1  6
 22 23  1  0
 24 25  1  6
 24 22  1  0
 25 19  1  0
 26 24  1  0
 27 26  1  0
 28 26  2  0
M  END
$$$$
