KFV.pdb
     RDKit          3D

 28 28  0  0  1  0  0  0  0  0999 V2000
    9.6728  -18.6556   20.9958 N   0  0  0  0  0  0  0  0  0  0  0  0
   10.8486  -17.8699   21.2125 C   0  0  1  0  0  0  0  0  0  0  0  0
   11.2430  -17.1972   19.9175 C   0  0  0  0  0  0  0  0  0  0  0  0
   11.8666  -18.2747   19.0296 C   0  0  0  0  0  0  0  0  0  0  0  0
   13.1052  -17.7484   18.3372 C   0  0  0  0  0  0  0  0  0  0  0  0
   13.6212  -18.8387   17.4301 C   0  0  0  0  0  0  0  0  0  0  0  0
   14.8780  -18.4538   16.8425 N   0  0  0  0  0  0  0  0  0  0  0  0
   10.6103  -16.8308   22.2658 C   0  0  0  0  0  0  0  0  0  0  0  0
   11.4742  -15.9979   22.5953 O   0  0  0  0  0  0  0  0  0  0  0  0
    9.3560  -16.7757   22.9274 N   0  0  0  0  0  0  0  0  0  0  0  0
    9.0972  -15.8288   24.0012 C   0  0  1  0  0  0  0  0  0  0  0  0
    7.6204  -15.5236   23.9510 C   0  0  0  0  0  0  0  0  0  0  0  0
    7.2287  -14.3532   24.7557 C   0  0  0  0  0  0  0  0  0  0  0  0
    6.5088  -14.4756   25.9258 C   0  0  0  0  0  0  0  0  0  0  0  0
    6.1474  -13.3542   26.6773 C   0  0  0  0  0  0  0  0  0  0  0  0
    6.5061  -12.0882   26.2615 C   0  0  0  0  0  0  0  0  0  0  0  0
    7.2312  -11.9526   25.0844 C   0  0  0  0  0  0  0  0  0  0  0  0
    7.5710  -13.0754   24.3686 C   0  0  0  0  0  0  0  0  0  0  0  0
    9.5598  -16.3195   25.3030 C   0  0  0  0  0  0  0  0  0  0  0  0
    9.6748  -17.5383   25.5776 O   0  0  0  0  0  0  0  0  0  0  0  0
    9.1248  -14.3909   28.9184 C   0  0  0  0  0  0  0  0  0  0  0  0
   10.5523  -14.5881   28.4572 C   0  0  2  0  0  0  0  0  0  0  0  0
   11.1152  -13.3544   27.8100 C   0  0  0  0  0  0  0  0  0  0  0  0
   10.6497  -15.7972   27.5163 C   0  0  2  0  0  0  0  0  0  0  0  0
    9.9029  -15.3961   26.3258 N   0  0  0  0  0  0  0  0  0  0  0  0
    9.9734  -16.9212   28.2094 C   0  0  0  0  0  0  0  0  0  0  0  0
    8.7101  -17.2890   27.7785 O   0  0  0  0  0  0  0  0  0  0  0  0
   10.5052  -17.5278   29.1496 O   0  0  0  0  0  0  0  0  0  0  0  0
  2  1  1  6
  2  3  1  0
  4  3  1  0
  5  4  1  0
  6  5  1  0
  7  6  1  0
  8  9  2  0
  8  2  1  0
 10  8  1  0
 11 10  1  0
 12 13  1  0
 11 12  1  1
 13 18  2  0
 14 13  1  0
 14 15  2  0
 15 16  1  0
 16 17  2  0
 18 17  1  0
 19 20  2  0
 19 11  1  0
 22 21  1  6
 22 23  1  0
 24 25  1  6
 24 22  1  0
 25 19  1  0
 26 24  1  0
 27 26  1  0
 28 26  2  0
M  END
$$$$
