KFV.pdb
     RDKit          3D

 28 28  0  0  1  0  0  0  0  0999 V2000
   10.3554  -16.7306   19.6204 N   0  0  0  0  0  0  0  0  0  0  0  0
    9.4111  -17.1162   20.6236 C   0  0  1  0  0  0  0  0  0  0  0  0
    9.6352  -18.5664   20.9866 C   0  0  0  0  0  0  0  0  0  0  0  0
    9.1331  -19.4016   19.8082 C   0  0  0  0  0  0  0  0  0  0  0  0
   10.2165  -19.5610   18.7636 C   0  0  0  0  0  0  0  0  0  0  0  0
    9.7022  -20.5130   17.7116 C   0  0  0  0  0  0  0  0  0  0  0  0
   10.6294  -20.6012   16.6138 N   0  0  0  0  0  0  0  0  0  0  0  0
    9.5544  -16.2641   21.8481 C   0  0  0  0  0  0  0  0  0  0  0  0
   10.6612  -15.9567   22.3268 O   0  0  0  0  0  0  0  0  0  0  0  0
    8.3945  -15.7769   22.5048 N   0  0  0  0  0  0  0  0  0  0  0  0
    8.4779  -15.0060   23.7357 C   0  0  1  0  0  0  0  0  0  0  0  0
    7.2070  -14.1968   23.8166 C   0  0  0  0  0  0  0  0  0  0  0  0
    7.0897  -13.3975   25.0487 C   0  0  0  0  0  0  0  0  0  0  0  0
    7.8275  -12.2500   25.2514 C   0  0  0  0  0  0  0  0  0  0  0  0
    7.7019  -11.5033   26.4259 C   0  0  0  0  0  0  0  0  0  0  0  0
    6.8290  -11.9012   27.4178 C   0  0  0  0  0  0  0  0  0  0  0  0
    6.0805  -13.0555   27.2249 C   0  0  0  0  0  0  0  0  0  0  0  0
    6.2274  -13.7672   26.0585 C   0  0  0  0  0  0  0  0  0  0  0  0
    8.7215  -15.8506   24.9091 C   0  0  0  0  0  0  0  0  0  0  0  0
    7.9670  -16.7948   25.2458 O   0  0  0  0  0  0  0  0  0  0  0  0
   12.0622  -17.2891   25.3155 C   0  0  0  0  0  0  0  0  0  0  0  0
   11.7390  -16.7043   26.6730 C   0  0  2  0  0  0  0  0  0  0  0  0
   12.2898  -17.5374   27.7957 C   0  0  0  0  0  0  0  0  0  0  0  0
   10.2242  -16.5070   26.8250 C   0  0  2  0  0  0  0  0  0  0  0  0
    9.8588  -15.6153   25.7263 N   0  0  0  0  0  0  0  0  0  0  0  0
   10.0191  -15.8415   28.1350 C   0  0  0  0  0  0  0  0  0  0  0  0
   10.0537  -16.6230   29.2773 O   0  0  0  0  0  0  0  0  0  0  0  0
    9.8207  -14.6222   28.2279 O   0  0  0  0  0  0  0  0  0  0  0  0
  2  1  1  6
  2  3  1  0
  4  3  1  0
  5  4  1  0
  6  5  1  0
  7  6  1  0
  8  9  2  0
  8  2  1  0
 10  8  1  0
 11 10  1  0
 12 13  1  0
 11 12  1  1
 13 18  2  0
 14 13  1  0
 14 15  2  0
 15 16  1  0
 16 17  2  0
 18 17  1  0
 19 20  2  0
 19 11  1  0
 22 21  1  6
 22 23  1  0
 24 25  1  6
 24 22  1  0
 25 19  1  0
 26 24  1  0
 27 26  1  0
 28 26  2  0
M  END
$$$$
