KFV.pdb
     RDKit          3D

 28 28  0  0  1  0  0  0  0  0999 V2000
   10.0749  -16.5362   18.9894 N   0  0  0  0  0  0  0  0  0  0  0  0
    8.9382  -16.6293   19.8531 C   0  0  1  0  0  0  0  0  0  0  0  0
    8.5872  -18.0852   20.0583 C   0  0  0  0  0  0  0  0  0  0  0  0
    8.7790  -18.7822   18.7108 C   0  0  0  0  0  0  0  0  0  0  0  0
    7.8853  -19.9990   18.6044 C   0  0  0  0  0  0  0  0  0  0  0  0
    8.1441  -20.6417   17.2636 C   0  0  0  0  0  0  0  0  0  0  0  0
    7.2607  -21.7603   17.0610 N   0  0  0  0  0  0  0  0  0  0  0  0
    9.2203  -15.9892   21.1785 C   0  0  0  0  0  0  0  0  0  0  0  0
   10.3430  -16.0209   21.7144 O   0  0  0  0  0  0  0  0  0  0  0  0
    8.1800  -15.3141   21.8684 N   0  0  0  0  0  0  0  0  0  0  0  0
    8.3814  -14.7467   23.1928 C   0  0  1  0  0  0  0  0  0  0  0  0
    7.2807  -13.7343   23.3926 C   0  0  0  0  0  0  0  0  0  0  0  0
    7.2777  -13.1171   24.7304 C   0  0  0  0  0  0  0  0  0  0  0  0
    6.4429  -13.5539   25.7376 C   0  0  0  0  0  0  0  0  0  0  0  0
    6.4550  -12.9575   27.0014 C   0  0  0  0  0  0  0  0  0  0  0  0
    7.3103  -11.9089   27.2719 C   0  0  0  0  0  0  0  0  0  0  0  0
    8.1558  -11.4603   26.2651 C   0  0  0  0  0  0  0  0  0  0  0  0
    8.1194  -12.0683   25.0333 C   0  0  0  0  0  0  0  0  0  0  0  0
    8.4427  -15.7734   24.2376 C   0  0  0  0  0  0  0  0  0  0  0  0
    7.4965  -16.5587   24.4869 O   0  0  0  0  0  0  0  0  0  0  0  0
   11.8427  -18.6076   26.2388 C   0  0  0  0  0  0  0  0  0  0  0  0
   11.1863  -17.6748   25.2446 C   0  0  2  0  0  0  0  0  0  0  0  0
   12.1070  -16.5699   24.8096 C   0  0  0  0  0  0  0  0  0  0  0  0
    9.8807  -17.1093   25.8210 C   0  0  2  0  0  0  0  0  0  0  0  0
    9.6166  -15.9127   25.0245 N   0  0  0  0  0  0  0  0  0  0  0  0
   10.1678  -16.7510   27.2319 C   0  0  0  0  0  0  0  0  0  0  0  0
   10.3250  -15.4120   27.5469 O   0  0  0  0  0  0  0  0  0  0  0  0
   10.2683  -17.6093   28.1196 O   0  0  0  0  0  0  0  0  0  0  0  0
  2  1  1  6
  2  3  1  0
  4  3  1  0
  5  4  1  0
  6  5  1  0
  7  6  1  0
  8  9  2  0
  8  2  1  0
 10  8  1  0
 11 10  1  0
 12 13  1  0
 11 12  1  1
 13 18  2  0
 14 13  1  0
 14 15  2  0
 15 16  1  0
 16 17  2  0
 18 17  1  0
 19 20  2  0
 19 11  1  0
 22 21  1  1
 22 23  1  0
 24 25  1  6
 24 22  1  0
 25 19  1  0
 26 24  1  0
 27 26  1  0
 28 26  2  0
M  END
$$$$
