KFV.pdb
     RDKit          3D

 28 28  0  0  1  0  0  0  0  0999 V2000
    4.9717  -19.6156   21.4166 N   0  0  0  0  0  0  0  0  0  0  0  0
    5.4115  -19.5807   22.7775 C   0  0  1  0  0  0  0  0  0  0  0  0
    6.2441  -20.8097   23.0629 C   0  0  0  0  0  0  0  0  0  0  0  0
    5.3166  -22.0171   22.9209 C   0  0  0  0  0  0  0  0  0  0  0  0
    4.7238  -22.3984   24.2602 C   0  0  0  0  0  0  0  0  0  0  0  0
    3.8853  -23.6362   24.0543 C   0  0  0  0  0  0  0  0  0  0  0  0
    3.2961  -24.0595   25.2979 N   0  0  0  0  0  0  0  0  0  0  0  0
    6.2242  -18.3504   23.0452 C   0  0  0  0  0  0  0  0  0  0  0  0
    7.0885  -17.9309   22.2542 O   0  0  0  0  0  0  0  0  0  0  0  0
    6.0166  -17.6180   24.2429 N   0  0  0  0  0  0  0  0  0  0  0  0
    6.8742  -16.5044   24.6183 C   0  0  1  0  0  0  0  0  0  0  0  0
    6.1023  -15.6978   25.6332 C   0  0  0  0  0  0  0  0  0  0  0  0
    6.7731  -14.4481   26.0324 C   0  0  0  0  0  0  0  0  0  0  0  0
    6.5595  -13.2574   25.3701 C   0  0  0  0  0  0  0  0  0  0  0  0
    7.2032  -12.0811   25.7639 C   0  0  0  0  0  0  0  0  0  0  0  0
    8.0746  -12.0852   26.8338 C   0  0  0  0  0  0  0  0  0  0  0  0
    8.2977  -13.2788   27.5087 C   0  0  0  0  0  0  0  0  0  0  0  0
    7.6489  -14.4179   27.0963 C   0  0  0  0  0  0  0  0  0  0  0  0
    8.1916  -16.9461   25.0863 C   0  0  0  0  0  0  0  0  0  0  0  0
    8.3498  -17.7660   26.0227 O   0  0  0  0  0  0  0  0  0  0  0  0
   12.9301  -17.1208   23.5943 C   0  0  0  0  0  0  0  0  0  0  0  0
   11.5134  -16.6024   23.4784 C   0  0  2  0  0  0  0  0  0  0  0  0
   11.4672  -15.1104   23.3066 C   0  0  0  0  0  0  0  0  0  0  0  0
   10.6802  -17.0436   24.6899 C   0  0  2  0  0  0  0  0  0  0  0  0
    9.3671  -16.4404   24.4707 N   0  0  0  0  0  0  0  0  0  0  0  0
   11.3370  -16.4578   25.8842 C   0  0  0  0  0  0  0  0  0  0  0  0
   12.4164  -17.1300   26.4318 O   0  0  0  0  0  0  0  0  0  0  0  0
   10.9475  -15.3979   26.3940 O   0  0  0  0  0  0  0  0  0  0  0  0
  2  1  1  6
  2  3  1  0
  4  3  1  0
  5  4  1  0
  6  5  1  0
  7  6  1  0
  8  9  2  0
  8  2  1  0
 10  8  1  0
 11 10  1  0
 12 13  1  0
 11 12  1  1
 13 18  2  0
 14 13  1  0
 14 15  2  0
 15 16  1  0
 16 17  2  0
 18 17  1  0
 19 20  2  0
 19 11  1  0
 22 21  1  1
 22 23  1  0
 24 25  1  6
 24 22  1  0
 25 19  1  0
 26 24  1  0
 27 26  1  0
 28 26  2  0
M  END
$$$$
