HWC.pdb
     RDKit          3D

 31 33  0  0  1  0  0  0  0  0999 V2000
   26.8399  -21.5359  -12.7004 N   0  0  0  0  0  0  0  0  0  0  0  0
   25.8454  -20.6983  -12.1083 C   0  0  1  0  0  0  0  0  0  0  0  0
   24.6300  -20.5422  -12.9729 C   0  0  0  0  0  0  0  0  0  0  0  0
   24.9820  -19.8268  -14.2083 C   0  0  0  0  0  0  0  0  0  0  0  0
   25.3900  -18.5022  -14.2998 C   0  0  0  0  0  0  0  0  0  0  0  0
   25.6257  -18.1988  -15.6041 N   0  0  0  0  0  0  0  0  0  0  0  0
   25.3661  -19.3190  -16.2981 C   0  0  0  0  0  0  0  0  0  0  0  0
   24.9784  -20.3059  -15.4732 N   0  0  0  0  0  0  0  0  0  0  0  0
   25.3875  -21.2369  -10.7749 C   0  0  0  0  0  0  0  0  0  0  0  0
   25.3763  -22.4686  -10.5853 O   0  0  0  0  0  0  0  0  0  0  0  0
   24.9760  -20.3449   -9.7545 N   0  0  0  0  0  0  0  0  0  0  0  0
   24.4238  -20.6912   -8.4886 C   0  0  1  0  0  0  0  0  0  0  0  0
   24.6241  -19.6630   -7.3856 C   0  0  0  0  0  0  0  0  0  0  0  0
   26.0715  -19.4153   -7.1988 C   0  0  0  0  0  0  0  0  0  0  0  0
   27.0023  -18.7389   -7.9409 C   0  0  0  0  0  0  0  0  0  0  0  0
   28.2095  -18.7936   -7.3518 N   0  0  0  0  0  0  0  0  0  0  0  0
   28.1209  -19.4937   -6.2210 C   0  0  0  0  0  0  0  0  0  0  0  0
   29.0955  -19.8171   -5.2707 C   0  0  0  0  0  0  0  0  0  0  0  0
   28.6763  -20.5608   -4.1927 C   0  0  0  0  0  0  0  0  0  0  0  0
   27.3700  -20.9723   -4.0433 C   0  0  0  0  0  0  0  0  0  0  0  0
   26.4275  -20.6395   -4.9964 C   0  0  0  0  0  0  0  0  0  0  0  0
   26.7973  -19.8989   -6.0911 C   0  0  0  0  0  0  0  0  0  0  0  0
   23.0947  -21.2912   -8.5191 C   0  0  0  0  0  0  0  0  0  0  0  0
   22.2778  -20.9821   -9.4221 O   0  0  0  0  0  0  0  0  0  0  0  0
   22.7595  -22.2380   -7.4890 N   0  0  0  0  0  0  0  0  0  0  0  0
   21.4469  -22.8492   -7.4453 C   0  0  1  0  0  0  0  0  0  0  0  0
   21.2061  -23.4954   -6.1028 C   0  0  0  0  0  0  0  0  0  0  0  0
   19.6191  -24.3911   -6.1988 S   0  0  0  0  0  0  0  0  0  0  0  0
   20.4069  -21.8228   -7.6681 C   0  0  0  0  0  0  0  0  0  0  0  0
   19.5343  -22.0074   -8.5548 O   0  0  0  0  0  0  0  0  0  0  0  0
   20.3401  -20.6479   -6.9398 O   0  0  0  0  0  0  0  0  0  0  0  0
  2  1  1  6
  2  3  1  0
  3  4  1  0
  4  8  1  0
  4  5  2  0
  5  6  1  0
  7  6  1  0
  8  7  2  0
  9  2  1  0
  9 10  2  0
 11  9  1  0
 12 11  1  0
 12 13  1  1
 13 14  1  0
 14 15  2  0
 14 22  1  0
 15 16  1  0
 16 17  1  0
 17 18  2  0
 18 19  1  0
 20 19  2  0
 21 20  1  0
 22 21  2  0
 22 17  1  0
 23 12  1  0
 24 23  2  0
 25 23  1  0
 26 29  1  0
 26 25  1  0
 27 28  1  0
 26 27  1  1
 29 31  1  0
 30 29  2  0
M  END
$$$$
