HWC.pdb
     RDKit          3D

 31 33  0  0  1  0  0  0  0  0999 V2000
   14.3707  -20.3334    2.4386 N   0  0  0  0  0  0  0  0  0  0  0  0
   14.2773  -18.9415    2.7473 C   0  0  1  0  0  0  0  0  0  0  0  0
   12.9381  -18.5602    3.3041 C   0  0  0  0  0  0  0  0  0  0  0  0
   11.9166  -18.6353    2.2492 C   0  0  0  0  0  0  0  0  0  0  0  0
   10.9524  -19.6257    2.1117 C   0  0  0  0  0  0  0  0  0  0  0  0
   10.1900  -19.3551    1.0190 N   0  0  0  0  0  0  0  0  0  0  0  0
   10.6799  -18.2185    0.4972 C   0  0  0  0  0  0  0  0  0  0  0  0
   11.7175  -17.7739    1.2256 N   0  0  0  0  0  0  0  0  0  0  0  0
   15.3224  -18.5242    3.7530 C   0  0  0  0  0  0  0  0  0  0  0  0
   15.6461  -19.3145    4.6607 O   0  0  0  0  0  0  0  0  0  0  0  0
   15.9244  -17.2455    3.6594 N   0  0  0  0  0  0  0  0  0  0  0  0
   16.8426  -16.6641    4.5794 C   0  0  1  0  0  0  0  0  0  0  0  0
   17.6281  -15.4727    4.0528 C   0  0  0  0  0  0  0  0  0  0  0  0
   18.6833  -15.1086    5.0250 C   0  0  0  0  0  0  0  0  0  0  0  0
   19.4145  -15.8413    5.9212 C   0  0  0  0  0  0  0  0  0  0  0  0
   20.2671  -15.0510    6.5964 N   0  0  0  0  0  0  0  0  0  0  0  0
   20.1329  -13.7927    6.1780 C   0  0  0  0  0  0  0  0  0  0  0  0
   20.7963  -12.6255    6.5720 C   0  0  0  0  0  0  0  0  0  0  0  0
   20.4267  -11.4657    5.9324 C   0  0  0  0  0  0  0  0  0  0  0  0
   19.4570  -11.4394    4.9542 C   0  0  0  0  0  0  0  0  0  0  0  0
   18.8173  -12.6059    4.5839 C   0  0  0  0  0  0  0  0  0  0  0  0
   19.1508  -13.7893    5.1939 C   0  0  0  0  0  0  0  0  0  0  0  0
   16.3589  -16.5105    5.9468 C   0  0  0  0  0  0  0  0  0  0  0  0
   15.3076  -15.8638    6.1808 O   0  0  0  0  0  0  0  0  0  0  0  0
   17.1220  -17.1198    7.0034 N   0  0  0  0  0  0  0  0  0  0  0  0
   16.6447  -17.0919    8.3709 C   0  0  1  0  0  0  0  0  0  0  0  0
   17.0586  -18.3447    9.1037 C   0  0  0  0  0  0  0  0  0  0  0  0
   15.9090  -19.6747    8.6146 S   0  0  0  0  0  0  0  0  0  0  0  0
   17.2110  -15.9234    9.0770 C   0  0  0  0  0  0  0  0  0  0  0  0
   18.2819  -15.4092    8.6640 O   0  0  0  0  0  0  0  0  0  0  0  0
   16.6152  -15.3538   10.1887 O   0  0  0  0  0  0  0  0  0  0  0  0
  2  1  1  1
  2  3  1  0
  3  4  1  0
  4  8  1  0
  4  5  2  0
  5  6  1  0
  7  6  1  0
  8  7  2  0
  9  2  1  0
  9 10  2  0
 11  9  1  0
 12 11  1  0
 12 13  1  6
 13 14  1  0
 14 15  2  0
 14 22  1  0
 15 16  1  0
 16 17  1  0
 17 18  2  0
 18 19  1  0
 20 19  2  0
 21 20  1  0
 22 21  2  0
 22 17  1  0
 23 12  1  0
 24 23  2  0
 25 23  1  0
 26 29  1  0
 26 25  1  0
 27 28  1  0
 26 27  1  1
 29 31  1  0
 30 29  2  0
M  END
$$$$
