HWC.pdb
     RDKit          3D

 31 33  0  0  1  0  0  0  0  0999 V2000
   28.9822  -19.7518  -14.1046 N   0  0  0  0  0  0  0  0  0  0  0  0
   27.5954  -19.4138  -14.1648 C   0  0  1  0  0  0  0  0  0  0  0  0
   27.1313  -19.1178  -15.5598 C   0  0  0  0  0  0  0  0  0  0  0  0
   27.8591  -17.9577  -16.0948 C   0  0  0  0  0  0  0  0  0  0  0  0
   28.7454  -17.9689  -17.1643 C   0  0  0  0  0  0  0  0  0  0  0  0
   29.2181  -16.7096  -17.3629 N   0  0  0  0  0  0  0  0  0  0  0  0
   28.6306  -15.9416  -16.4307 C   0  0  0  0  0  0  0  0  0  0  0  0
   27.8112  -16.6774  -15.6613 N   0  0  0  0  0  0  0  0  0  0  0  0
   26.7287  -20.5250  -13.6245 C   0  0  0  0  0  0  0  0  0  0  0  0
   26.8862  -21.6849  -14.0522 O   0  0  0  0  0  0  0  0  0  0  0  0
   25.7485  -20.2441  -12.6414 N   0  0  0  0  0  0  0  0  0  0  0  0
   24.7716  -21.1437  -12.1275 C   0  0  1  0  0  0  0  0  0  0  0  0
   24.6005  -21.1278  -10.6161 C   0  0  0  0  0  0  0  0  0  0  0  0
   25.7941  -20.5151   -9.9907 C   0  0  0  0  0  0  0  0  0  0  0  0
   25.9652  -19.4133   -9.1962 C   0  0  0  0  0  0  0  0  0  0  0  0
   27.2609  -19.2579   -8.8732 N   0  0  0  0  0  0  0  0  0  0  0  0
   27.9781  -20.2330   -9.4312 C   0  0  0  0  0  0  0  0  0  0  0  0
   29.3511  -20.4974   -9.3813 C   0  0  0  0  0  0  0  0  0  0  0  0
   29.7867  -21.6044  -10.0711 C   0  0  0  0  0  0  0  0  0  0  0  0
   28.9287  -22.4185  -10.7775 C   0  0  0  0  0  0  0  0  0  0  0  0
   27.5775  -22.1348  -10.8107 C   0  0  0  0  0  0  0  0  0  0  0  0
   27.0942  -21.0402  -10.1384 C   0  0  0  0  0  0  0  0  0  0  0  0
   23.5213  -21.2168  -12.8750 C   0  0  0  0  0  0  0  0  0  0  0  0
   22.9333  -20.1668  -13.2356 O   0  0  0  0  0  0  0  0  0  0  0  0
   22.9939  -22.5204  -13.1791 N   0  0  0  0  0  0  0  0  0  0  0  0
   21.8190  -22.6663  -14.0139 C   0  0  1  0  0  0  0  0  0  0  0  0
   21.6953  -24.0849  -14.5138 C   0  0  0  0  0  0  0  0  0  0  0  0
   22.0247  -25.1967  -13.1048 S   0  0  0  0  0  0  0  0  0  0  0  0
   20.6063  -22.3323  -13.2375 C   0  0  0  0  0  0  0  0  0  0  0  0
   20.7005  -22.1233  -12.0009 O   0  0  0  0  0  0  0  0  0  0  0  0
   19.3495  -22.2351  -13.8086 O   0  0  0  0  0  0  0  0  0  0  0  0
  2  1  1  6
  2  3  1  0
  3  4  1  0
  4  8  1  0
  4  5  2  0
  5  6  1  0
  7  6  1  0
  8  7  2  0
  9  2  1  0
  9 10  2  0
 11  9  1  0
 12 11  1  0
 12 13  1  1
 13 14  1  0
 14 15  2  0
 14 22  1  0
 15 16  1  0
 16 17  1  0
 17 18  2  0
 18 19  1  0
 20 19  2  0
 21 20  1  0
 22 21  2  0
 22 17  1  0
 23 12  1  0
 24 23  2  0
 25 23  1  0
 26 29  1  0
 26 25  1  0
 27 28  1  0
 26 27  1  1
 29 31  1  0
 30 29  2  0
M  END
$$$$
