HWC.pdb
     RDKit          3D

 31 33  0  0  1  0  0  0  0  0999 V2000
   28.0959  -20.3250  -15.3937 N   0  0  0  0  0  0  0  0  0  0  0  0
   26.8385  -19.6731  -15.2059 C   0  0  1  0  0  0  0  0  0  0  0  0
   26.1590  -19.3412  -16.5010 C   0  0  0  0  0  0  0  0  0  0  0  0
   27.0035  -18.4344  -17.2924 C   0  0  0  0  0  0  0  0  0  0  0  0
   27.1358  -17.0647  -17.1033 C   0  0  0  0  0  0  0  0  0  0  0  0
   28.0024  -16.5702  -18.0270 N   0  0  0  0  0  0  0  0  0  0  0  0
   28.3932  -17.6199  -18.7682 C   0  0  0  0  0  0  0  0  0  0  0  0
   27.8015  -18.7470  -18.3388 N   0  0  0  0  0  0  0  0  0  0  0  0
   25.8871  -20.5225  -14.3990 C   0  0  0  0  0  0  0  0  0  0  0  0
   25.3949  -21.5450  -14.9141 O   0  0  0  0  0  0  0  0  0  0  0  0
   25.5621  -20.1545  -13.0705 N   0  0  0  0  0  0  0  0  0  0  0  0
   24.6785  -20.8371  -12.1868 C   0  0  1  0  0  0  0  0  0  0  0  0
   24.9208  -20.5940  -10.7049 C   0  0  0  0  0  0  0  0  0  0  0  0
   26.3330  -20.8961  -10.3797 C   0  0  0  0  0  0  0  0  0  0  0  0
   27.3344  -21.5190  -11.0752 C   0  0  0  0  0  0  0  0  0  0  0  0
   28.4647  -21.5563  -10.3482 N   0  0  0  0  0  0  0  0  0  0  0  0
   28.2547  -20.9701   -9.1697 C   0  0  0  0  0  0  0  0  0  0  0  0
   29.1182  -20.7616   -8.0887 C   0  0  0  0  0  0  0  0  0  0  0  0
   28.5898  -20.1081   -7.0004 C   0  0  0  0  0  0  0  0  0  0  0  0
   27.2821  -19.6761   -6.9624 C   0  0  0  0  0  0  0  0  0  0  0  0
   26.4506  -19.8947   -8.0431 C   0  0  0  0  0  0  0  0  0  0  0  0
   26.9315  -20.5436   -9.1528 C   0  0  0  0  0  0  0  0  0  0  0  0
   23.2725  -20.8424  -12.5748 C   0  0  0  0  0  0  0  0  0  0  0  0
   22.6639  -19.7619  -12.7756 O   0  0  0  0  0  0  0  0  0  0  0  0
   22.6179  -22.1157  -12.7166 N   0  0  0  0  0  0  0  0  0  0  0  0
   21.2074  -22.1902  -13.0378 C   0  0  1  0  0  0  0  0  0  0  0  0
   20.7418  -23.6256  -13.0566 C   0  0  0  0  0  0  0  0  0  0  0  0
   18.9549  -23.6208  -13.4263 S   0  0  0  0  0  0  0  0  0  0  0  0
   20.4219  -21.4527  -12.0259 C   0  0  0  0  0  0  0  0  0  0  0  0
   20.7138  -21.5709  -10.8083 O   0  0  0  0  0  0  0  0  0  0  0  0
   19.3631  -20.6233  -12.3522 O   0  0  0  0  0  0  0  0  0  0  0  0
  2  1  1  6
  2  3  1  0
  3  4  1  0
  4  8  1  0
  4  5  2  0
  5  6  1  0
  7  6  1  0
  8  7  2  0
  9  2  1  0
  9 10  2  0
 11  9  1  0
 12 11  1  0
 12 13  1  1
 13 14  1  0
 14 15  2  0
 14 22  1  0
 15 16  1  0
 16 17  1  0
 17 18  2  0
 18 19  1  0
 20 19  2  0
 21 20  1  0
 22 21  2  0
 22 17  1  0
 23 12  1  0
 24 23  2  0
 25 23  1  0
 26 29  1  0
 26 25  1  0
 27 28  1  0
 26 27  1  1
 29 31  1  0
 30 29  2  0
M  END
$$$$
