NRV.pdb
     RDKit          3D

 27 26  0  0  1  0  0  0  0  0999 V2000
    4.4892  -24.2862   25.6864 N   0  0  0  0  0  0  0  0  0  0  0  0
    4.0578  -23.1223   24.9585 C   0  0  0  0  0  0  0  0  0  0  0  0
    2.8618  -23.0492   24.6201 O   0  0  0  0  0  0  0  0  0  0  0  0
    5.0781  -22.1163   24.6833 C   0  0  0  0  0  0  0  0  0  0  0  0
    4.9048  -21.3280   23.4152 C   0  0  2  0  0  0  0  0  0  0  0  0
    5.1493  -22.2656   22.3050 N   0  0  0  0  0  0  0  0  0  0  0  0
    5.9262  -20.2438   23.3576 C   0  0  0  0  0  0  0  0  0  0  0  0
    7.0737  -20.4311   23.8117 O   0  0  0  0  0  0  0  0  0  0  0  0
    6.8682  -12.6446   20.1015 N   0  0  0  0  0  0  0  0  0  0  0  0
    8.0821  -13.2433   19.5990 C   0  0  0  0  0  0  0  0  0  0  0  0
    8.7711  -12.6728   18.6762 N   0  0  0  0  0  0  0  0  0  0  0  0
    8.5513  -14.4836   20.1174 N   0  0  0  0  0  0  0  0  0  0  0  0
    7.6815  -15.6051   20.3102 C   0  0  0  0  0  0  0  0  0  0  0  0
    6.9612  -15.5897   21.6569 C   0  0  0  0  0  0  0  0  0  0  0  0
    6.1200  -16.8237   21.6918 C   0  0  0  0  0  0  0  0  0  0  0  0
    6.5153  -17.8741   22.6602 C   0  0  2  0  0  0  0  0  0  0  0  0
    5.5970  -18.9839   22.7830 N   0  0  0  0  0  0  0  0  0  0  0  0
    6.9174  -17.3667   24.0011 C   0  0  0  0  0  0  0  0  0  0  0  0
    6.0307  -16.8319   24.7496 O   0  0  0  0  0  0  0  0  0  0  0  0
    9.6584  -13.1042   18.3611 C   0  0  0  0  0  0  0  0  0  0  0  0
    8.2808  -18.9104   27.1063 C   0  0  2  0  0  0  0  0  0  0  0  0
    9.2257  -17.7479   26.7457 C   0  0  0  0  0  0  0  0  0  0  0  0
   10.5010  -18.3750   26.2479 C   0  0  2  0  0  0  0  0  0  0  0  0
    8.5817  -16.8104   25.7862 N   0  0  0  0  0  0  0  0  0  0  0  0
    8.2436  -17.4357   24.5152 C   0  0  0  0  0  0  0  0  0  0  0  0
    9.5148  -15.6399   25.5063 O   0  0  0  0  0  0  0  0  0  0  0  0
   10.0477  -15.5047   24.3861 O   0  0  0  0  0  0  0  0  0  0  0  0
  2  1  1  0
  3  2  2  0
  4  2  1  0
  4  5  1  0
  5  6  1  6
  5  7  1  0
  7  8  2  0
 10  9  1  0
 10 12  1  0
 11 10  2  0
 13 12  1  0
 13 14  1  0
 15 14  1  0
 16 15  1  6
 17  7  1  0
 17 16  1  0
 18 16  1  0
 18 19  2  0
 21 20  1  1
 21 23  1  0
 22 21  1  0
 23 24  1  1
 23 25  1  0
 24 18  1  0
 25 27  1  0
 26 25  2  0
M  END
$$$$
