NRV.pdb
     RDKit          3D

 27 26  0  0  1  0  0  0  0  0999 V2000
   13.8246  -17.8982   17.6863 N   0  0  0  0  0  0  0  0  0  0  0  0
   14.1450  -17.7815   19.0844 C   0  0  0  0  0  0  0  0  0  0  0  0
   15.1843  -18.3282   19.4980 O   0  0  0  0  0  0  0  0  0  0  0  0
   13.2084  -17.0170   19.9012 C   0  0  0  0  0  0  0  0  0  0  0  0
   12.8049  -17.6435   21.2066 C   0  0  2  0  0  0  0  0  0  0  0  0
   11.7705  -18.6431   20.8869 N   0  0  0  0  0  0  0  0  0  0  0  0
   12.2074  -16.6061   22.0948 C   0  0  0  0  0  0  0  0  0  0  0  0
   12.8925  -15.6402   22.4891 O   0  0  0  0  0  0  0  0  0  0  0  0
    7.6128  -13.5615   17.8121 N   0  0  0  0  0  0  0  0  0  0  0  0
    7.3902  -13.4077   19.2303 C   0  0  0  0  0  0  0  0  0  0  0  0
    7.8434  -12.3871   19.8666 N   0  0  0  0  0  0  0  0  0  0  0  0
    6.6567  -14.3837   19.9627 N   0  0  0  0  0  0  0  0  0  0  0  0
    7.0231  -14.7709   21.2921 C   0  0  0  0  0  0  0  0  0  0  0  0
    8.5331  -14.8129   21.5172 C   0  0  0  0  0  0  0  0  0  0  0  0
    8.7367  -15.4646   22.8460 C   0  0  0  0  0  0  0  0  0  0  0  0
   10.1383  -15.7088   23.2622 C   0  0  2  0  0  0  0  0  0  0  0  0
   10.8472  -16.7124   22.5004 N   0  0  0  0  0  0  0  0  0  0  0  0
   10.3270  -15.9201   24.7240 C   0  0  0  0  0  0  0  0  0  0  0  0
   10.7215  -17.0633   25.1361 O   0  0  0  0  0  0  0  0  0  0  0  0
    7.7593  -12.3501   20.8981 C   0  0  0  0  0  0  0  0  0  0  0  0
    8.7534  -13.4087   27.8959 C   0  0  2  0  0  0  0  0  0  0  0  0
   10.1718  -14.0034   27.9891 C   0  0  0  0  0  0  0  0  0  0  0  0
   10.4337  -14.2520   29.4509 C   0  0  1  0  0  0  0  0  0  0  0  0
   10.3079  -15.2056   27.1230 N   0  0  0  0  0  0  0  0  0  0  0  0
   10.0932  -14.9207   25.7111 C   0  0  0  0  0  0  0  0  0  0  0  0
    9.3015  -16.2650   27.5520 O   0  0  0  0  0  0  0  0  0  0  0  0
    8.1815  -16.3366   27.0066 O   0  0  0  0  0  0  0  0  0  0  0  0
  2  1  1  0
  3  2  2  0
  4  2  1  0
  4  5  1  0
  5  6  1  6
  5  7  1  0
  7  8  2  0
 10  9  1  0
 10 12  1  0
 11 10  2  0
 13 12  1  0
 13 14  1  0
 15 14  1  0
 16 15  1  1
 17  7  1  0
 17 16  1  0
 18 16  1  0
 18 19  2  0
 21 20  1  1
 21 23  1  0
 22 21  1  0
 23 24  1  6
 23 25  1  0
 24 18  1  0
 25 27  1  0
 26 25  2  0
M  END
$$$$
