NRV.pdb
     RDKit          3D

 27 26  0  0  1  0  0  0  0  0999 V2000
   15.2303  -18.4356   20.4505 N   0  0  0  0  0  0  0  0  0  0  0  0
   14.8956  -17.1274   19.9532 C   0  0  0  0  0  0  0  0  0  0  0  0
   15.6535  -16.6041   19.1154 O   0  0  0  0  0  0  0  0  0  0  0  0
   13.6760  -16.5264   20.4828 C   0  0  0  0  0  0  0  0  0  0  0  0
   12.9475  -17.3215   21.5300 C   0  0  2  0  0  0  0  0  0  0  0  0
   11.9631  -18.1513   20.8132 N   0  0  0  0  0  0  0  0  0  0  0  0
   12.2170  -16.3955   22.4416 C   0  0  0  0  0  0  0  0  0  0  0  0
   12.8428  -15.5763   23.1452 O   0  0  0  0  0  0  0  0  0  0  0  0
    7.5044  -14.6319   17.6523 N   0  0  0  0  0  0  0  0  0  0  0  0
    7.5201  -14.0545   18.9755 C   0  0  0  0  0  0  0  0  0  0  0  0
    8.0433  -12.9003   19.1900 N   0  0  0  0  0  0  0  0  0  0  0  0
    6.9507  -14.7490   20.0803 N   0  0  0  0  0  0  0  0  0  0  0  0
    7.0362  -14.2481   21.4195 C   0  0  0  0  0  0  0  0  0  0  0  0
    8.4669  -14.1720   21.9485 C   0  0  0  0  0  0  0  0  0  0  0  0
    8.6217  -15.3191   22.8929 C   0  0  0  0  0  0  0  0  0  0  0  0
    9.9931  -15.6041   23.3781 C   0  0  2  0  0  0  0  0  0  0  0  0
   10.7963  -16.4413   22.5156 N   0  0  0  0  0  0  0  0  0  0  0  0
   10.0709  -16.0679   24.7909 C   0  0  0  0  0  0  0  0  0  0  0  0
   10.2763  -17.3075   25.0227 O   0  0  0  0  0  0  0  0  0  0  0  0
    8.1300  -12.5517   20.1614 C   0  0  0  0  0  0  0  0  0  0  0  0
   11.0517  -13.6683   28.1812 C   0  0  2  0  0  0  0  0  0  0  0  0
    9.9132  -14.6969   28.3226 C   0  0  0  0  0  0  0  0  0  0  0  0
    8.6277  -13.9128   28.3129 C   0  0  2  0  0  0  0  0  0  0  0  0
   10.0051  -15.7472   27.2726 N   0  0  0  0  0  0  0  0  0  0  0  0
    9.9287  -15.2123   25.9203 C   0  0  0  0  0  0  0  0  0  0  0  0
    8.8748  -16.7522   27.4504 O   0  0  0  0  0  0  0  0  0  0  0  0
    8.8776  -17.5500   28.4099 O   0  0  0  0  0  0  0  0  0  0  0  0
  2  1  1  0
  3  2  2  0
  4  2  1  0
  4  5  1  0
  5  6  1  6
  5  7  1  0
  7  8  2  0
 10  9  1  0
 10 12  1  0
 11 10  2  0
 13 12  1  0
 13 14  1  0
 15 14  1  0
 16 15  1  6
 17  7  1  0
 17 16  1  0
 18 16  1  0
 18 19  2  0
 21 20  1  1
 21 23  1  0
 22 21  1  0
 23 24  1  1
 23 25  1  0
 24 18  1  0
 25 27  1  0
 26 25  2  0
M  END
$$$$
