NRV.pdb
     RDKit          3D

 27 26  0  0  1  0  0  0  0  0999 V2000
   14.7685  -13.8978   18.4626 N   0  0  0  0  0  0  0  0  0  0  0  0
   14.0708  -14.9824   19.1011 C   0  0  0  0  0  0  0  0  0  0  0  0
   14.2269  -16.1312   18.6473 O   0  0  0  0  0  0  0  0  0  0  0  0
   13.2339  -14.6302   20.2432 C   0  0  0  0  0  0  0  0  0  0  0  0
   12.7430  -15.7768   21.0822 C   0  0  2  0  0  0  0  0  0  0  0  0
   11.8137  -16.5449   20.2350 N   0  0  0  0  0  0  0  0  0  0  0  0
   11.9926  -15.2501   22.2576 C   0  0  0  0  0  0  0  0  0  0  0  0
   12.5506  -14.4901   23.0754 O   0  0  0  0  0  0  0  0  0  0  0  0
    7.5129  -12.2774   19.7729 N   0  0  0  0  0  0  0  0  0  0  0  0
    7.8860  -13.5792   19.2722 C   0  0  0  0  0  0  0  0  0  0  0  0
    8.5945  -13.7027   18.2071 N   0  0  0  0  0  0  0  0  0  0  0  0
    7.4809  -14.7639   19.9500 N   0  0  0  0  0  0  0  0  0  0  0  0
    6.9513  -14.7355   21.2806 C   0  0  0  0  0  0  0  0  0  0  0  0
    7.8617  -14.0260   22.2807 C   0  0  0  0  0  0  0  0  0  0  0  0
    8.3394  -15.0790   23.2266 C   0  0  0  0  0  0  0  0  0  0  0  0
    9.7926  -15.1053   23.5178 C   0  0  2  0  0  0  0  0  0  0  0  0
   10.6306  -15.6133   22.4549 N   0  0  0  0  0  0  0  0  0  0  0  0
   10.1561  -15.7242   24.8224 C   0  0  0  0  0  0  0  0  0  0  0  0
   10.6847  -16.8874   24.8273 O   0  0  0  0  0  0  0  0  0  0  0  0
    8.8697  -14.6473   17.8838 C   0  0  0  0  0  0  0  0  0  0  0  0
   11.2790  -13.6498   28.2724 C   0  0  2  0  0  0  0  0  0  0  0  0
   10.3516  -14.8594   28.4981 C   0  0  0  0  0  0  0  0  0  0  0  0
    9.0003  -14.2988   28.8548 C   0  0  2  0  0  0  0  0  0  0  0  0
   10.3535  -15.7652   27.3175 N   0  0  0  0  0  0  0  0  0  0  0  0
    9.9510  -15.1004   26.0859 C   0  0  0  0  0  0  0  0  0  0  0  0
    9.4027  -16.9295   27.5612 O   0  0  0  0  0  0  0  0  0  0  0  0
    8.3736  -17.0664   26.8688 O   0  0  0  0  0  0  0  0  0  0  0  0
  2  1  1  0
  3  2  2  0
  4  2  1  0
  4  5  1  0
  5  6  1  6
  5  7  1  0
  7  8  2  0
 10  9  1  0
 10 12  1  0
 11 10  2  0
 13 12  1  0
 13 14  1  0
 15 14  1  0
 16 15  1  6
 17  7  1  0
 17 16  1  0
 18 16  1  0
 18 19  2  0
 21 20  1  1
 21 23  1  0
 22 21  1  0
 23 24  1  1
 23 25  1  0
 24 18  1  0
 25 27  1  0
 26 25  2  0
M  END
$$$$
