NRV.pdb
     RDKit          3D

 27 26  0  0  1  0  0  0  0  0999 V2000
   11.9276  -15.0491   18.2667 N   0  0  0  0  0  0  0  0  0  0  0  0
   11.9797  -13.9616   19.2077 C   0  0  0  0  0  0  0  0  0  0  0  0
   13.0470  -13.3304   19.3198 O   0  0  0  0  0  0  0  0  0  0  0  0
   10.7548  -13.6919   19.9533 C   0  0  0  0  0  0  0  0  0  0  0  0
    9.6075  -14.6302   19.7025 C   0  0  2  0  0  0  0  0  0  0  0  0
    8.7674  -13.9949   18.6720 N   0  0  0  0  0  0  0  0  0  0  0  0
    8.8029  -14.7795   20.9484 C   0  0  0  0  0  0  0  0  0  0  0  0
    7.9355  -13.9329   21.2464 O   0  0  0  0  0  0  0  0  0  0  0  0
   12.7769  -19.9008   24.3080 N   0  0  0  0  0  0  0  0  0  0  0  0
   11.5212  -20.5516   24.0173 C   0  0  0  0  0  0  0  0  0  0  0  0
   11.4104  -21.3714   23.0338 N   0  0  0  0  0  0  0  0  0  0  0  0
   10.3702  -20.3045   24.8180 N   0  0  0  0  0  0  0  0  0  0  0  0
    9.2324  -19.5943   24.3154 C   0  0  0  0  0  0  0  0  0  0  0  0
    9.5251  -18.1306   23.9923 C   0  0  0  0  0  0  0  0  0  0  0  0
    8.2482  -17.5574   23.4703 C   0  0  0  0  0  0  0  0  0  0  0  0
    8.2832  -16.1435   23.0265 C   0  0  2  0  0  0  0  0  0  0  0  0
    9.0209  -15.8921   21.8089 N   0  0  0  0  0  0  0  0  0  0  0  0
    8.6579  -15.1664   24.0858 C   0  0  0  0  0  0  0  0  0  0  0  0
    9.8783  -14.8010   24.1841 O   0  0  0  0  0  0  0  0  0  0  0  0
   10.4798  -21.7566   22.7926 C   0  0  0  0  0  0  0  0  0  0  0  0
    7.0532  -11.6853   25.0239 C   0  0  2  0  0  0  0  0  0  0  0  0
    7.2246  -12.5607   26.2803 C   0  0  0  0  0  0  0  0  0  0  0  0
    5.8431  -13.0080   26.6789 C   0  0  2  0  0  0  0  0  0  0  0  0
    8.1870  -13.6687   26.0355 N   0  0  0  0  0  0  0  0  0  0  0  0
    7.7360  -14.6027   25.0132 C   0  0  0  0  0  0  0  0  0  0  0  0
    8.4126  -14.4480   27.3243 O   0  0  0  0  0  0  0  0  0  0  0  0
    8.0558  -15.6401   27.4179 O   0  0  0  0  0  0  0  0  0  0  0  0
  2  1  1  0
  3  2  2  0
  4  2  1  0
  4  5  1  0
  5  6  1  6
  5  7  1  0
  7  8  2  0
 10  9  1  0
 10 12  1  0
 11 10  2  0
 13 12  1  0
 13 14  1  0
 15 14  1  0
 16 15  1  1
 17  7  1  0
 17 16  1  0
 18 16  1  0
 18 19  2  0
 21 20  1  1
 21 23  1  0
 22 21  1  0
 23 24  1  1
 23 25  1  0
 24 18  1  0
 25 27  1  0
 26 25  2  0
M  END
$$$$
