NRV.pdb
     RDKit          3D

 27 26  0  0  1  0  0  0  0  0999 V2000
   16.0143  -15.9298   19.8468 N   0  0  0  0  0  0  0  0  0  0  0  0
   15.2105  -14.7759   19.5414 C   0  0  0  0  0  0  0  0  0  0  0  0
   15.5911  -14.0175   18.6303 O   0  0  0  0  0  0  0  0  0  0  0  0
   14.0010  -14.6005   20.3385 C   0  0  0  0  0  0  0  0  0  0  0  0
   13.7350  -15.6538   21.3774 C   0  0  2  0  0  0  0  0  0  0  0  0
   13.1171  -16.7895   20.6706 N   0  0  0  0  0  0  0  0  0  0  0  0
   12.7643  -15.1314   22.3809 C   0  0  0  0  0  0  0  0  0  0  0  0
   13.1072  -14.2464   23.1915 O   0  0  0  0  0  0  0  0  0  0  0  0
    6.7260  -12.8377   19.9331 N   0  0  0  0  0  0  0  0  0  0  0  0
    7.1478  -13.8773   19.0242 C   0  0  0  0  0  0  0  0  0  0  0  0
    7.3549  -13.6281   17.7806 N   0  0  0  0  0  0  0  0  0  0  0  0
    7.3500  -15.2093   19.4846 N   0  0  0  0  0  0  0  0  0  0  0  0
    7.6045  -15.5074   20.8623 C   0  0  0  0  0  0  0  0  0  0  0  0
    8.7540  -14.6960   21.4562 C   0  0  0  0  0  0  0  0  0  0  0  0
    9.0177  -15.2772   22.8069 C   0  0  0  0  0  0  0  0  0  0  0  0
   10.4049  -15.1732   23.3192 C   0  0  2  0  0  0  0  0  0  0  0  0
   11.4362  -15.6417   22.4210 N   0  0  0  0  0  0  0  0  0  0  0  0
   10.6061  -15.7194   24.6897 C   0  0  0  0  0  0  0  0  0  0  0  0
   11.4142  -16.6956   24.8522 O   0  0  0  0  0  0  0  0  0  0  0  0
    7.6953  -14.3829   17.1585 C   0  0  0  0  0  0  0  0  0  0  0  0
   11.3648  -13.6834   27.9799 C   0  0  2  0  0  0  0  0  0  0  0  0
   10.2674  -14.7339   28.2377 C   0  0  0  0  0  0  0  0  0  0  0  0
    8.9776  -13.9724   28.3926 C   0  0  2  0  0  0  0  0  0  0  0  0
   10.2511  -15.7672   27.1672 N   0  0  0  0  0  0  0  0  0  0  0  0
    9.9486  -15.2224   25.8510 C   0  0  0  0  0  0  0  0  0  0  0  0
    9.2087  -16.8285   27.4928 O   0  0  0  0  0  0  0  0  0  0  0  0
    8.1845  -16.9512   26.7905 O   0  0  0  0  0  0  0  0  0  0  0  0
  2  1  1  0
  3  2  2  0
  4  2  1  0
  4  5  1  0
  5  6  1  6
  5  7  1  0
  7  8  2  0
 10  9  1  0
 10 12  1  0
 11 10  2  0
 13 12  1  0
 13 14  1  0
 15 14  1  0
 16 15  1  6
 17  7  1  0
 17 16  1  0
 18 16  1  0
 18 19  2  0
 21 20  1  1
 21 23  1  0
 22 21  1  0
 23 24  1  1
 23 25  1  0
 24 18  1  0
 25 27  1  0
 26 25  2  0
M  END
$$$$
