NRV.pdb
     RDKit          3D

 27 26  0  0  1  0  0  0  0  0999 V2000
    7.1087  -14.9347   18.1784 N   0  0  0  0  0  0  0  0  0  0  0  0
    8.0331  -13.8323   18.2074 C   0  0  0  0  0  0  0  0  0  0  0  0
    7.7094  -12.7770   17.6315 O   0  0  0  0  0  0  0  0  0  0  0  0
    9.2840  -14.0554   18.9247 C   0  0  0  0  0  0  0  0  0  0  0  0
    9.4405  -15.3995   19.5792 C   0  0  2  0  0  0  0  0  0  0  0  0
    9.0415  -16.4010   18.5747 N   0  0  0  0  0  0  0  0  0  0  0  0
    8.5160  -15.4982   20.7444 C   0  0  0  0  0  0  0  0  0  0  0  0
    7.3158  -15.7964   20.5761 O   0  0  0  0  0  0  0  0  0  0  0  0
   12.3111  -19.3770   25.6215 N   0  0  0  0  0  0  0  0  0  0  0  0
   11.9441  -20.2509   24.5324 C   0  0  0  0  0  0  0  0  0  0  0  0
   12.5566  -21.3640   24.3391 N   0  0  0  0  0  0  0  0  0  0  0  0
   10.8877  -19.9029   23.6436 N   0  0  0  0  0  0  0  0  0  0  0  0
    9.7779  -19.0983   24.0593 C   0  0  0  0  0  0  0  0  0  0  0  0
    9.8853  -17.6410   23.6154 C   0  0  0  0  0  0  0  0  0  0  0  0
    8.4930  -17.0997   23.6281 C   0  0  0  0  0  0  0  0  0  0  0  0
    8.3291  -15.6703   23.2712 C   0  0  2  0  0  0  0  0  0  0  0  0
    8.9987  -15.2510   22.0604 N   0  0  0  0  0  0  0  0  0  0  0  0
    8.5946  -14.7156   24.3826 C   0  0  0  0  0  0  0  0  0  0  0  0
    9.7999  -14.3639   24.6190 O   0  0  0  0  0  0  0  0  0  0  0  0
   12.2826  -21.9657   23.5419 C   0  0  0  0  0  0  0  0  0  0  0  0
    6.8712  -11.2642   25.2878 C   0  0  2  0  0  0  0  0  0  0  0  0
    6.9466  -12.1798   26.5248 C   0  0  0  0  0  0  0  0  0  0  0  0
    5.5399  -12.6421   26.7983 C   0  0  2  0  0  0  0  0  0  0  0  0
    7.9300  -13.2778   26.3210 N   0  0  0  0  0  0  0  0  0  0  0  0
    7.5821  -14.1592   25.2151 C   0  0  0  0  0  0  0  0  0  0  0  0
    8.0301  -14.1197   27.5859 O   0  0  0  0  0  0  0  0  0  0  0  0
    7.6703  -15.3146   27.5852 O   0  0  0  0  0  0  0  0  0  0  0  0
  2  1  1  0
  3  2  2  0
  4  2  1  0
  4  5  1  0
  5  6  1  6
  5  7  1  0
  7  8  2  0
 10  9  1  0
 10 12  1  0
 11 10  2  0
 13 12  1  0
 13 14  1  0
 15 14  1  0
 16 15  1  1
 17  7  1  0
 17 16  1  0
 18 16  1  0
 18 19  2  0
 21 20  1  1
 21 23  1  0
 22 21  1  0
 23 24  1  1
 23 25  1  0
 24 18  1  0
 25 27  1  0
 26 25  2  0
M  END
$$$$
