NRV.pdb
     RDKit          3D

 27 26  0  0  1  0  0  0  0  0999 V2000
    8.6216  -12.9487   16.8307 N   0  0  0  0  0  0  0  0  0  0  0  0
    7.9148  -14.1094   17.3041 C   0  0  0  0  0  0  0  0  0  0  0  0
    7.7362  -15.0536   16.5125 O   0  0  0  0  0  0  0  0  0  0  0  0
    7.4687  -14.0735   18.6929 C   0  0  0  0  0  0  0  0  0  0  0  0
    8.5404  -14.2250   19.7360 C   0  0  2  0  0  0  0  0  0  0  0  0
    9.3257  -15.4128   19.3571 N   0  0  0  0  0  0  0  0  0  0  0  0
    7.9122  -14.4726   21.0650 C   0  0  0  0  0  0  0  0  0  0  0  0
    7.1506  -13.6239   21.5725 O   0  0  0  0  0  0  0  0  0  0  0  0
    8.9400  -19.6714   27.3876 N   0  0  0  0  0  0  0  0  0  0  0  0
    7.5375  -20.0099   27.3320 C   0  0  0  0  0  0  0  0  0  0  0  0
    6.9265  -20.4785   28.3610 N   0  0  0  0  0  0  0  0  0  0  0  0
    6.7914  -19.8290   26.1330 N   0  0  0  0  0  0  0  0  0  0  0  0
    7.3860  -19.3074   24.9388 C   0  0  0  0  0  0  0  0  0  0  0  0
    7.3275  -17.7840   24.8475 C   0  0  0  0  0  0  0  0  0  0  0  0
    7.6763  -17.4391   23.4364 C   0  0  0  0  0  0  0  0  0  0  0  0
    7.6630  -16.0009   23.0778 C   0  0  2  0  0  0  0  0  0  0  0  0
    8.1793  -15.6825   21.7655 N   0  0  0  0  0  0  0  0  0  0  0  0
    8.2400  -15.0955   24.1095 C   0  0  0  0  0  0  0  0  0  0  0  0
    9.5071  -14.9369   24.1518 O   0  0  0  0  0  0  0  0  0  0  0  0
    5.9210  -20.7172   28.2927 C   0  0  0  0  0  0  0  0  0  0  0  0
    6.9554  -11.4379   25.2335 C   0  0  2  0  0  0  0  0  0  0  0  0
    7.2523  -12.3534   26.4368 C   0  0  0  0  0  0  0  0  0  0  0  0
    5.9177  -12.7362   27.0197 C   0  0  2  0  0  0  0  0  0  0  0  0
    8.1062  -13.5048   26.0377 N   0  0  0  0  0  0  0  0  0  0  0  0
    7.4654  -14.3834   25.0690 C   0  0  0  0  0  0  0  0  0  0  0  0
    8.4617  -14.3315   27.2662 O   0  0  0  0  0  0  0  0  0  0  0  0
    8.0694  -15.5111   27.3748 O   0  0  0  0  0  0  0  0  0  0  0  0
  2  1  1  0
  3  2  2  0
  4  2  1  0
  4  5  1  0
  5  6  1  6
  5  7  1  0
  7  8  2  0
 10  9  1  0
 10 12  1  0
 11 10  2  0
 13 12  1  0
 13 14  1  0
 15 14  1  0
 16 15  1  1
 17  7  1  0
 17 16  1  0
 18 16  1  0
 18 19  2  0
 21 20  1  1
 21 23  1  0
 22 21  1  0
 23 24  1  1
 23 25  1  0
 24 18  1  0
 25 27  1  0
 26 25  2  0
M  END
$$$$
