NRV.pdb
     RDKit          3D

 27 26  0  0  1  0  0  0  0  0999 V2000
    8.6070  -12.1377   17.8255 N   0  0  0  0  0  0  0  0  0  0  0  0
    7.9397  -13.3783   17.5320 C   0  0  0  0  0  0  0  0  0  0  0  0
    7.2399  -13.4418   16.5042 O   0  0  0  0  0  0  0  0  0  0  0  0
    8.1516  -14.4671   18.4799 C   0  0  0  0  0  0  0  0  0  0  0  0
    8.9499  -14.1291   19.7079 C   0  0  2  0  0  0  0  0  0  0  0  0
   10.0633  -15.0930   19.7594 N   0  0  0  0  0  0  0  0  0  0  0  0
    8.1029  -14.3134   20.9206 C   0  0  0  0  0  0  0  0  0  0  0  0
    7.2725  -13.4420   21.2505 O   0  0  0  0  0  0  0  0  0  0  0  0
    7.2751  -20.2440   19.9556 N   0  0  0  0  0  0  0  0  0  0  0  0
    8.1804  -20.7532   20.9584 C   0  0  0  0  0  0  0  0  0  0  0  0
    9.1239  -21.5689   20.6483 N   0  0  0  0  0  0  0  0  0  0  0  0
    8.0537  -20.3603   22.3210 N   0  0  0  0  0  0  0  0  0  0  0  0
    7.0091  -19.4875   22.7669 C   0  0  0  0  0  0  0  0  0  0  0  0
    7.0845  -18.0897   22.1563 C   0  0  0  0  0  0  0  0  0  0  0  0
    7.3100  -17.1506   23.2959 C   0  0  0  0  0  0  0  0  0  0  0  0
    7.5341  -15.7260   22.9529 C   0  0  2  0  0  0  0  0  0  0  0  0
    8.2377  -15.4884   21.7125 N   0  0  0  0  0  0  0  0  0  0  0  0
    8.1053  -14.9018   24.0536 C   0  0  0  0  0  0  0  0  0  0  0  0
    9.3752  -14.8086   24.1593 O   0  0  0  0  0  0  0  0  0  0  0  0
    9.7596  -21.9188   21.3872 C   0  0  0  0  0  0  0  0  0  0  0  0
    7.0604  -11.3000   25.5899 C   0  0  2  0  0  0  0  0  0  0  0  0
    7.1869  -12.3909   26.6707 C   0  0  0  0  0  0  0  0  0  0  0  0
    5.7859  -12.7042   27.1251 C   0  0  2  0  0  0  0  0  0  0  0  0
    7.9494  -13.5637   26.1634 N   0  0  0  0  0  0  0  0  0  0  0  0
    7.3219  -14.1999   25.0135 C   0  0  0  0  0  0  0  0  0  0  0  0
    8.0856  -14.6047   27.2664 O   0  0  0  0  0  0  0  0  0  0  0  0
    7.5492  -15.7257   27.1533 O   0  0  0  0  0  0  0  0  0  0  0  0
  2  1  1  0
  3  2  2  0
  4  2  1  0
  4  5  1  0
  5  6  1  1
  5  7  1  0
  7  8  2  0
 10  9  1  0
 10 12  1  0
 11 10  2  0
 13 12  1  0
 13 14  1  0
 15 14  1  0
 16 15  1  1
 17  7  1  0
 17 16  1  0
 18 16  1  0
 18 19  2  0
 21 20  1  1
 21 23  1  0
 22 21  1  0
 23 24  1  1
 23 25  1  0
 24 18  1  0
 25 27  1  0
 26 25  2  0
M  END
$$$$
