NRV.pdb
     RDKit          3D

 27 26  0  0  1  0  0  0  0  0999 V2000
    9.0359  -14.3963   16.5891 N   0  0  0  0  0  0  0  0  0  0  0  0
    8.1520  -13.5087   17.2974 C   0  0  0  0  0  0  0  0  0  0  0  0
    7.7157  -12.5092   16.6968 O   0  0  0  0  0  0  0  0  0  0  0  0
    7.8402  -13.8704   18.6761 C   0  0  0  0  0  0  0  0  0  0  0  0
    8.4726  -15.1345   19.1876 C   0  0  2  0  0  0  0  0  0  0  0  0
    7.8451  -16.2434   18.4474 N   0  0  0  0  0  0  0  0  0  0  0  0
    8.1659  -15.2951   20.6375 C   0  0  0  0  0  0  0  0  0  0  0  0
    6.9834  -15.3774   21.0285 O   0  0  0  0  0  0  0  0  0  0  0  0
   12.8409  -20.8548   25.3006 N   0  0  0  0  0  0  0  0  0  0  0  0
   11.6945  -20.6097   26.1435 C   0  0  0  0  0  0  0  0  0  0  0  0
   11.4306  -21.3725   27.1436 N   0  0  0  0  0  0  0  0  0  0  0  0
   10.8260  -19.5103   25.8902 N   0  0  0  0  0  0  0  0  0  0  0  0
   10.8739  -18.7698   24.6650 C   0  0  0  0  0  0  0  0  0  0  0  0
    9.8370  -17.6510   24.5916 C   0  0  0  0  0  0  0  0  0  0  0  0
    9.9879  -17.0334   23.2397 C   0  0  0  0  0  0  0  0  0  0  0  0
    9.0964  -15.8920   22.9238 C   0  0  2  0  0  0  0  0  0  0  0  0
    9.2239  -15.3547   21.5877 N   0  0  0  0  0  0  0  0  0  0  0  0
    9.0969  -14.8011   23.9372 C   0  0  0  0  0  0  0  0  0  0  0  0
   10.1091  -14.0246   24.0070 O   0  0  0  0  0  0  0  0  0  0  0  0
   10.6257  -21.1506   27.7564 C   0  0  0  0  0  0  0  0  0  0  0  0
    6.5939  -11.9508   24.6738 C   0  0  2  0  0  0  0  0  0  0  0  0
    6.9036  -12.6958   25.9865 C   0  0  0  0  0  0  0  0  0  0  0  0
    5.6651  -13.4786   26.3340 C   0  0  2  0  0  0  0  0  0  0  0  0
    8.1386  -13.5161   25.8599 N   0  0  0  0  0  0  0  0  0  0  0  0
    8.0309  -14.5598   24.8500 C   0  0  0  0  0  0  0  0  0  0  0  0
    8.4556  -14.1776   27.1944 O   0  0  0  0  0  0  0  0  0  0  0  0
    8.3945  -15.4176   27.3205 O   0  0  0  0  0  0  0  0  0  0  0  0
  2  1  1  0
  3  2  2  0
  4  2  1  0
  4  5  1  0
  5  6  1  6
  5  7  1  0
  7  8  2  0
 10  9  1  0
 10 12  1  0
 11 10  2  0
 13 12  1  0
 13 14  1  0
 15 14  1  0
 16 15  1  1
 17  7  1  0
 17 16  1  0
 18 16  1  0
 18 19  2  0
 21 20  1  1
 21 23  1  0
 22 21  1  0
 23 24  1  1
 23 25  1  0
 24 18  1  0
 25 27  1  0
 26 25  2  0
M  END
$$$$
