NRV.pdb
     RDKit          3D

 27 26  0  0  1  0  0  0  0  0999 V2000
    5.0839  -22.6231   25.0521 N   0  0  0  0  0  0  0  0  0  0  0  0
    5.3646  -21.8449   26.2295 C   0  0  0  0  0  0  0  0  0  0  0  0
    4.8645  -22.2098   27.3097 O   0  0  0  0  0  0  0  0  0  0  0  0
    6.2275  -20.6826   26.0464 C   0  0  0  0  0  0  0  0  0  0  0  0
    6.6142  -20.3625   24.6295 C   0  0  2  0  0  0  0  0  0  0  0  0
    7.4701  -21.4707   24.1707 N   0  0  0  0  0  0  0  0  0  0  0  0
    7.4099  -19.1023   24.6017 C   0  0  0  0  0  0  0  0  0  0  0  0
    8.5277  -19.0477   25.1543 O   0  0  0  0  0  0  0  0  0  0  0  0
    7.2382  -13.6225   17.9823 N   0  0  0  0  0  0  0  0  0  0  0  0
    7.9347  -13.3259   19.2118 C   0  0  0  0  0  0  0  0  0  0  0  0
    8.4317  -12.1608   19.4288 N   0  0  0  0  0  0  0  0  0  0  0  0
    8.0859  -14.3187   20.2210 N   0  0  0  0  0  0  0  0  0  0  0  0
    7.2617  -15.4894   20.2657 C   0  0  0  0  0  0  0  0  0  0  0  0
    7.6851  -16.4886   21.3403 C   0  0  0  0  0  0  0  0  0  0  0  0
    7.3023  -15.8779   22.6488 C   0  0  0  0  0  0  0  0  0  0  0  0
    7.5799  -16.6777   23.8656 C   0  0  2  0  0  0  0  0  0  0  0  0
    6.8969  -17.9495   23.9429 N   0  0  0  0  0  0  0  0  0  0  0  0
    7.4542  -15.9288   25.1464 C   0  0  0  0  0  0  0  0  0  0  0  0
    6.3130  -15.8716   25.7180 O   0  0  0  0  0  0  0  0  0  0  0  0
    8.9912  -11.9958   20.2846 C   0  0  0  0  0  0  0  0  0  0  0  0
    9.2651  -13.0776   28.8303 C   0  0  1  0  0  0  0  0  0  0  0  0
    9.5599  -14.0051   27.6357 C   0  0  0  0  0  0  0  0  0  0  0  0
   10.3939  -15.1382   28.1725 C   0  0  1  0  0  0  0  0  0  0  0  0
    8.3028  -14.4278   26.9611 N   0  0  0  0  0  0  0  0  0  0  0  0
    8.5349  -15.2595   25.7884 C   0  0  0  0  0  0  0  0  0  0  0  0
    7.5159  -13.1995   26.5240 O   0  0  0  0  0  0  0  0  0  0  0  0
    7.5419  -12.8164   25.3367 O   0  0  0  0  0  0  0  0  0  0  0  0
  2  1  1  0
  3  2  2  0
  4  2  1  0
  4  5  1  0
  5  6  1  1
  5  7  1  0
  7  8  2  0
 10  9  1  0
 10 12  1  0
 11 10  2  0
 13 12  1  0
 13 14  1  0
 15 14  1  0
 16 15  1  6
 17  7  1  0
 17 16  1  0
 18 16  1  0
 18 19  2  0
 21 20  1  6
 21 23  1  0
 22 21  1  0
 23 24  1  6
 23 25  1  0
 24 18  1  0
 25 27  1  0
 26 25  2  0
M  END
$$$$
