NRV.pdb
     RDKit          3D

 27 26  0  0  1  0  0  0  0  0999 V2000
   15.8385  -14.5785   19.8499 N   0  0  0  0  0  0  0  0  0  0  0  0
   14.4909  -14.7091   19.3625 C   0  0  0  0  0  0  0  0  0  0  0  0
   14.3240  -15.0092   18.1658 O   0  0  0  0  0  0  0  0  0  0  0  0
   13.4264  -14.4777   20.3333 C   0  0  0  0  0  0  0  0  0  0  0  0
   13.1052  -15.6257   21.2489 C   0  0  2  0  0  0  0  0  0  0  0  0
   12.3946  -16.6246   20.4311 N   0  0  0  0  0  0  0  0  0  0  0  0
   12.1931  -15.1603   22.3322 C   0  0  0  0  0  0  0  0  0  0  0  0
   12.5470  -14.2498   23.1093 O   0  0  0  0  0  0  0  0  0  0  0  0
    6.8803  -12.8494   19.7257 N   0  0  0  0  0  0  0  0  0  0  0  0
    7.4838  -13.9451   19.0048 C   0  0  0  0  0  0  0  0  0  0  0  0
    8.0331  -13.7625   17.8574 N   0  0  0  0  0  0  0  0  0  0  0  0
    7.4899  -15.2603   19.5501 N   0  0  0  0  0  0  0  0  0  0  0  0
    7.1749  -15.5154   20.9240 C   0  0  0  0  0  0  0  0  0  0  0  0
    7.9348  -14.6170   21.8975 C   0  0  0  0  0  0  0  0  0  0  0  0
    8.4881  -15.5207   22.9506 C   0  0  0  0  0  0  0  0  0  0  0  0
    9.8833  -15.2672   23.3822 C   0  0  2  0  0  0  0  0  0  0  0  0
   10.9092  -15.7546   22.4877 N   0  0  0  0  0  0  0  0  0  0  0  0
   10.1802  -15.6511   24.7899 C   0  0  0  0  0  0  0  0  0  0  0  0
   10.7617  -16.7662   25.0157 O   0  0  0  0  0  0  0  0  0  0  0  0
    8.5064  -14.5541   17.3862 C   0  0  0  0  0  0  0  0  0  0  0  0
   10.6252  -14.6975   29.6356 C   0  0  2  0  0  0  0  0  0  0  0  0
    9.9837  -14.2635   28.3035 C   0  0  0  0  0  0  0  0  0  0  0  0
   10.6179  -12.9487   27.9343 C   0  0  1  0  0  0  0  0  0  0  0  0
   10.1182  -15.3268   27.2713 N   0  0  0  0  0  0  0  0  0  0  0  0
    9.8544  -14.8496   25.9209 C   0  0  0  0  0  0  0  0  0  0  0  0
    9.1479  -16.4612   27.5721 O   0  0  0  0  0  0  0  0  0  0  0  0
    8.0131  -16.4823   27.0535 O   0  0  0  0  0  0  0  0  0  0  0  0
  2  1  1  0
  3  2  2  0
  4  2  1  0
  4  5  1  0
  5  6  1  6
  5  7  1  0
  7  8  2  0
 10  9  1  0
 10 12  1  0
 11 10  2  0
 13 12  1  0
 13 14  1  0
 15 14  1  0
 16 15  1  6
 17  7  1  0
 17 16  1  0
 18 16  1  0
 18 19  2  0
 21 20  1  1
 21 23  1  0
 22 21  1  0
 23 24  1  1
 23 25  1  0
 24 18  1  0
 25 27  1  0
 26 25  2  0
M  END
$$$$
