NRV.pdb
     RDKit          3D

 27 26  0  0  1  0  0  0  0  0999 V2000
   12.2777  -18.3391   19.6587 N   0  0  0  0  0  0  0  0  0  0  0  0
   11.3162  -18.9416   20.5438 C   0  0  0  0  0  0  0  0  0  0  0  0
   10.2378  -19.3351   20.0618 O   0  0  0  0  0  0  0  0  0  0  0  0
   11.7021  -19.0410   21.9474 C   0  0  0  0  0  0  0  0  0  0  0  0
   10.7189  -18.4940   22.9441 C   0  0  2  0  0  0  0  0  0  0  0  0
    9.4087  -19.0724   22.5975 N   0  0  0  0  0  0  0  0  0  0  0  0
   10.6381  -17.0121   22.8042 C   0  0  0  0  0  0  0  0  0  0  0  0
   11.6264  -16.2970   23.0685 O   0  0  0  0  0  0  0  0  0  0  0  0
    9.7523  -13.5457   18.5560 N   0  0  0  0  0  0  0  0  0  0  0  0
    8.4934  -13.6803   17.8620 C   0  0  0  0  0  0  0  0  0  0  0  0
    8.4443  -13.7246   16.5785 N   0  0  0  0  0  0  0  0  0  0  0  0
    7.2697  -13.7720   18.5841 N   0  0  0  0  0  0  0  0  0  0  0  0
    7.0347  -13.0205   19.7807 C   0  0  0  0  0  0  0  0  0  0  0  0
    8.1597  -13.1450   20.8060 C   0  0  0  0  0  0  0  0  0  0  0  0
    8.2668  -14.5993   21.1301 C   0  0  0  0  0  0  0  0  0  0  0  0
    9.2522  -14.9809   22.1697 C   0  0  2  0  0  0  0  0  0  0  0  0
    9.4285  -16.4020   22.3676 N   0  0  0  0  0  0  0  0  0  0  0  0
    9.0870  -14.2798   23.4729 C   0  0  0  0  0  0  0  0  0  0  0  0
    9.0607  -13.0024   23.4871 O   0  0  0  0  0  0  0  0  0  0  0  0
    7.5243  -13.7418   16.1032 C   0  0  0  0  0  0  0  0  0  0  0  0
    6.1978  -14.6241   25.9504 C   0  0  1  0  0  0  0  0  0  0  0  0
    7.3128  -13.5611   25.9187 C   0  0  0  0  0  0  0  0  0  0  0  0
    7.0437  -12.6277   27.0692 C   0  0  1  0  0  0  0  0  0  0  0  0
    8.6591  -14.1944   25.9378 N   0  0  0  0  0  0  0  0  0  0  0  0
    8.9556  -14.9446   24.7253 C   0  0  0  0  0  0  0  0  0  0  0  0
    8.7629  -15.1460   27.1222 O   0  0  0  0  0  0  0  0  0  0  0  0
    8.8804  -16.3752   26.9425 O   0  0  0  0  0  0  0  0  0  0  0  0
  2  1  1  0
  3  2  2  0
  4  2  1  0
  4  5  1  0
  5  6  1  6
  5  7  1  0
  7  8  2  0
 10  9  1  0
 10 12  1  0
 11 10  2  0
 13 12  1  0
 13 14  1  0
 15 14  1  0
 16 15  1  6
 17  7  1  0
 17 16  1  0
 18 16  1  0
 18 19  2  0
 21 20  1  6
 21 23  1  0
 22 21  1  0
 23 24  1  6
 23 25  1  0
 24 18  1  0
 25 27  1  0
 26 25  2  0
M  END
$$$$
