AHN.pdb
     RDKit          3D

 24 24  0  0  1  0  0  0  0  0999 V2000
   11.9252  -16.8213   16.1425 C   0  0  0  0  0  0  0  0  0  0  0  0
   12.0061  -17.5217   17.4806 C   0  0  2  0  0  0  0  0  0  0  0  0
   10.9403  -18.4452   17.6944 N   0  0  0  0  0  0  0  0  0  0  0  0
   12.1011  -16.5760   18.6058 C   0  0  0  0  0  0  0  0  0  0  0  0
   13.0446  -15.7541   18.6877 O   0  0  0  0  0  0  0  0  0  0  0  0
   11.1179  -16.5841   19.6186 N   0  0  0  0  0  0  0  0  0  0  0  0
   11.0382  -15.5901   20.6939 C   0  0  1  0  0  0  0  0  0  0  0  0
    9.5852  -15.4354   21.0102 C   0  0  0  0  0  0  0  0  0  0  0  0
    8.8649  -14.4584   20.1592 C   0  0  0  0  0  0  0  0  0  0  0  0
    9.3188  -13.6807   19.1507 C   0  0  0  0  0  0  0  0  0  0  0  0
    8.2656  -12.9880   18.6174 N   0  0  0  0  0  0  0  0  0  0  0  0
    7.1577  -13.3294   19.2854 C   0  0  0  0  0  0  0  0  0  0  0  0
    7.5138  -14.2163   20.2161 N   0  0  0  0  0  0  0  0  0  0  0  0
   11.6469  -16.3392   21.8671 C   0  0  0  0  0  0  0  0  0  0  0  0
   11.4154  -17.5516   21.9719 O   0  0  0  0  0  0  0  0  0  0  0  0
   15.3618  -17.4180   22.5036 N   0  0  0  0  0  0  0  0  0  0  0  0
   15.3244  -16.1670   23.1956 C   0  0  0  0  0  0  0  0  0  0  0  0
   16.1438  -15.3013   22.7848 O   0  0  0  0  0  0  0  0  0  0  0  0
   14.3828  -15.9396   24.3053 C   0  0  0  0  0  0  0  0  0  0  0  0
   13.0211  -16.4744   23.9796 C   0  0  2  0  0  0  0  0  0  0  0  0
   12.4562  -15.7343   22.8386 N   0  0  0  0  0  0  0  0  0  0  0  0
   12.0817  -16.4931   25.1069 C   0  0  0  0  0  0  0  0  0  0  0  0
   10.8859  -15.7515   25.1018 O   0  0  0  0  0  0  0  0  0  0  0  0
   12.3230  -17.1821   26.1227 O   0  0  0  0  0  0  0  0  0  0  0  0
  2  1  1  6
  2  4  1  0
  2  3  1  0
  4  5  2  0
  6  7  1  0
  6  4  1  0
  7 14  1  0
  7  8  1  1
  9 10  2  0
  9  8  1  0
 11 10  1  0
 12 13  2  0
 12 11  1  0
 13  9  1  0
 14 21  1  0
 14 15  2  0
 17 18  2  0
 17 16  1  0
 19 17  1  0
 20 19  1  1
 21 20  1  0
 22 23  1  0
 22 20  1  0
 24 22  2  0
M  END
$$$$
