AHN.pdb
     RDKit          3D

 24 24  0  0  1  0  0  0  0  0999 V2000
    7.6574  -13.0950   18.7552 C   0  0  0  0  0  0  0  0  0  0  0  0
    8.0714  -14.3302   19.5235 C   0  0  2  0  0  0  0  0  0  0  0  0
    7.0719  -15.3479   19.5277 N   0  0  0  0  0  0  0  0  0  0  0  0
    8.4967  -14.0209   20.8993 C   0  0  0  0  0  0  0  0  0  0  0  0
    9.4572  -13.2472   21.1255 O   0  0  0  0  0  0  0  0  0  0  0  0
    7.8188  -14.5997   21.9938 N   0  0  0  0  0  0  0  0  0  0  0  0
    8.1218  -14.3029   23.3977 C   0  0  1  0  0  0  0  0  0  0  0  0
    6.8041  -14.2248   24.0998 C   0  0  0  0  0  0  0  0  0  0  0  0
    6.8561  -13.6219   25.4530 C   0  0  0  0  0  0  0  0  0  0  0  0
    7.8961  -13.0795   26.1254 C   0  0  0  0  0  0  0  0  0  0  0  0
    7.4432  -12.5897   27.3207 N   0  0  0  0  0  0  0  0  0  0  0  0
    6.1278  -12.8216   27.3977 C   0  0  0  0  0  0  0  0  0  0  0  0
    5.7687  -13.4436   26.2735 N   0  0  0  0  0  0  0  0  0  0  0  0
    8.7714  -15.5945   23.8643 C   0  0  0  0  0  0  0  0  0  0  0  0
    8.1929  -16.6625   23.6212 O   0  0  0  0  0  0  0  0  0  0  0  0
   11.0137  -17.7156   22.5670 N   0  0  0  0  0  0  0  0  0  0  0  0
   12.1414  -17.4241   23.3969 C   0  0  0  0  0  0  0  0  0  0  0  0
   13.2642  -17.5268   22.8328 O   0  0  0  0  0  0  0  0  0  0  0  0
   11.9675  -17.0344   24.8067 C   0  0  0  0  0  0  0  0  0  0  0  0
   10.5171  -16.8834   25.1530 C   0  0  2  0  0  0  0  0  0  0  0  0
    9.9898  -15.6449   24.5555 N   0  0  0  0  0  0  0  0  0  0  0  0
   10.2184  -16.9392   26.5886 C   0  0  0  0  0  0  0  0  0  0  0  0
    9.6881  -15.8405   27.2899 O   0  0  0  0  0  0  0  0  0  0  0  0
   10.4310  -17.9852   27.2409 O   0  0  0  0  0  0  0  0  0  0  0  0
  2  1  1  1
  2  4  1  0
  2  3  1  0
  4  5  2  0
  6  7  1  0
  6  4  1  0
  7 14  1  0
  7  8  1  1
  9 10  2  0
  9  8  1  0
 11 10  1  0
 12 13  2  0
 12 11  1  0
 13  9  1  0
 14 21  1  0
 14 15  2  0
 17 18  2  0
 17 16  1  0
 19 17  1  0
 20 19  1  1
 21 20  1  0
 22 23  1  0
 22 20  1  0
 24 22  2  0
M  END
$$$$
