AHN.pdb
     RDKit          3D

 24 24  0  0  1  0  0  0  0  0999 V2000
   13.7952  -20.1832   12.9345 C   0  0  0  0  0  0  0  0  0  0  0  0
   12.7741  -19.0792   12.7733 C   0  0  2  0  0  0  0  0  0  0  0  0
   12.9332  -18.3420   11.5626 N   0  0  0  0  0  0  0  0  0  0  0  0
   12.7431  -18.1681   13.9303 C   0  0  0  0  0  0  0  0  0  0  0  0
   13.2120  -17.0074   13.8577 O   0  0  0  0  0  0  0  0  0  0  0  0
   12.1776  -18.5970   15.1505 N   0  0  0  0  0  0  0  0  0  0  0  0
   12.1454  -17.7848   16.3711 C   0  0  1  0  0  0  0  0  0  0  0  0
   10.8350  -18.0756   17.0295 C   0  0  0  0  0  0  0  0  0  0  0  0
    9.6713  -17.3786   16.4316 C   0  0  0  0  0  0  0  0  0  0  0  0
    9.6248  -16.4264   15.4730 C   0  0  0  0  0  0  0  0  0  0  0  0
    8.3151  -16.1355   15.2012 N   0  0  0  0  0  0  0  0  0  0  0  0
    7.5446  -16.9008   15.9827 C   0  0  0  0  0  0  0  0  0  0  0  0
    8.3578  -17.6527   16.7264 N   0  0  0  0  0  0  0  0  0  0  0  0
   13.2053  -18.4550   17.2288 C   0  0  0  0  0  0  0  0  0  0  0  0
   13.2873  -19.6907   17.1998 O   0  0  0  0  0  0  0  0  0  0  0  0
   16.2300  -18.6693   16.3086 N   0  0  0  0  0  0  0  0  0  0  0  0
   16.9505  -17.8796   17.2586 C   0  0  0  0  0  0  0  0  0  0  0  0
   18.0157  -17.3607   16.8280 O   0  0  0  0  0  0  0  0  0  0  0  0
   16.4546  -17.7055   18.6347 C   0  0  0  0  0  0  0  0  0  0  0  0
   15.1509  -18.4170   18.8358 C   0  0  2  0  0  0  0  0  0  0  0  0
   14.0959  -17.7524   18.0521 N   0  0  0  0  0  0  0  0  0  0  0  0
   14.7431  -18.5696   20.2371 C   0  0  0  0  0  0  0  0  0  0  0  0
   15.4244  -19.4162   21.1310 O   0  0  0  0  0  0  0  0  0  0  0  0
   13.7595  -17.9389   20.6841 O   0  0  0  0  0  0  0  0  0  0  0  0
  2  1  1  1
  2  4  1  0
  2  3  1  0
  4  5  2  0
  6  7  1  0
  6  4  1  0
  7 14  1  0
  7  8  1  1
  9 10  2  0
  9  8  1  0
 11 10  1  0
 12 13  2  0
 12 11  1  0
 13  9  1  0
 14 21  1  0
 14 15  2  0
 17 18  2  0
 17 16  1  0
 19 17  1  0
 20 19  1  1
 21 20  1  0
 22 23  1  0
 22 20  1  0
 24 22  2  0
M  END
$$$$
