AHN.pdb
     RDKit          3D

 24 24  0  0  1  0  0  0  0  0999 V2000
   10.1715  -19.7598   18.1203 C   0  0  0  0  0  0  0  0  0  0  0  0
    9.5110  -18.4295   17.8349 C   0  0  2  0  0  0  0  0  0  0  0  0
    9.5936  -18.0465   16.4633 N   0  0  0  0  0  0  0  0  0  0  0  0
   10.0183  -17.3520   18.7015 C   0  0  0  0  0  0  0  0  0  0  0  0
   10.8921  -16.5485   18.2976 O   0  0  0  0  0  0  0  0  0  0  0  0
    9.5198  -17.2095   20.0145 N   0  0  0  0  0  0  0  0  0  0  0  0
    9.8697  -16.1022   20.9102 C   0  0  1  0  0  0  0  0  0  0  0  0
    8.5822  -15.6203   21.4978 C   0  0  0  0  0  0  0  0  0  0  0  0
    7.8341  -14.6603   20.6516 C   0  0  0  0  0  0  0  0  0  0  0  0
    6.6047  -14.7613   20.0982 C   0  0  0  0  0  0  0  0  0  0  0  0
    6.3116  -13.5898   19.4538 N   0  0  0  0  0  0  0  0  0  0  0  0
    7.3492  -12.7583   19.6028 C   0  0  0  0  0  0  0  0  0  0  0  0
    8.2699  -13.3991   20.3248 N   0  0  0  0  0  0  0  0  0  0  0  0
   10.6025  -16.8182   22.0320 C   0  0  0  0  0  0  0  0  0  0  0  0
   10.2947  -17.9928   22.2769 O   0  0  0  0  0  0  0  0  0  0  0  0
   15.7901  -18.0712   23.6331 N   0  0  0  0  0  0  0  0  0  0  0  0
   14.9793  -17.0424   24.2072 C   0  0  0  0  0  0  0  0  0  0  0  0
   15.2072  -16.7941   25.4221 O   0  0  0  0  0  0  0  0  0  0  0  0
   13.9594  -16.3427   23.4072 C   0  0  0  0  0  0  0  0  0  0  0  0
   12.6209  -17.0045   23.5356 C   0  0  2  0  0  0  0  0  0  0  0  0
   11.6079  -16.2230   22.8062 N   0  0  0  0  0  0  0  0  0  0  0  0
   12.1904  -17.2594   24.9151 C   0  0  0  0  0  0  0  0  0  0  0  0
   12.6589  -18.3585   25.6584 O   0  0  0  0  0  0  0  0  0  0  0  0
   11.3794  -16.4917   25.4789 O   0  0  0  0  0  0  0  0  0  0  0  0
  2  1  1  6
  2  4  1  0
  2  3  1  0
  4  5  2  0
  6  7  1  0
  6  4  1  0
  7 14  1  0
  7  8  1  1
  9 10  2  0
  9  8  1  0
 11 10  1  0
 12 13  2  0
 12 11  1  0
 13  9  1  0
 14 21  1  0
 14 15  2  0
 17 18  2  0
 17 16  1  0
 19 17  1  0
 20 19  1  1
 21 20  1  0
 22 23  1  0
 22 20  1  0
 24 22  2  0
M  END
$$$$
