AHN.pdb
     RDKit          3D

 24 24  0  0  1  0  0  0  0  0999 V2000
    4.8381  -16.0036   21.2778 C   0  0  0  0  0  0  0  0  0  0  0  0
    6.0914  -16.5675   21.9093 C   0  0  2  0  0  0  0  0  0  0  0  0
    6.6811  -15.6881   22.8650 N   0  0  0  0  0  0  0  0  0  0  0  0
    7.0885  -16.9823   20.9076 C   0  0  0  0  0  0  0  0  0  0  0  0
    6.7980  -17.7941   19.9972 O   0  0  0  0  0  0  0  0  0  0  0  0
    8.4002  -16.4636   20.9618 N   0  0  0  0  0  0  0  0  0  0  0  0
    9.4492  -16.7794   19.9868 C   0  0  1  0  0  0  0  0  0  0  0  0
    9.8747  -15.4733   19.3964 C   0  0  0  0  0  0  0  0  0  0  0  0
    9.0686  -15.0240   18.2364 C   0  0  0  0  0  0  0  0  0  0  0  0
    8.0260  -15.6214   17.6166 C   0  0  0  0  0  0  0  0  0  0  0  0
    7.5616  -14.7914   16.6322 N   0  0  0  0  0  0  0  0  0  0  0  0
    8.3064  -13.6798   16.6349 C   0  0  0  0  0  0  0  0  0  0  0  0
    9.2165  -13.8151   17.6008 N   0  0  0  0  0  0  0  0  0  0  0  0
   10.5918  -17.2291   20.8813 C   0  0  0  0  0  0  0  0  0  0  0  0
   11.2571  -16.3612   21.4631 O   0  0  0  0  0  0  0  0  0  0  0  0
   13.7861  -19.8082   23.9624 N   0  0  0  0  0  0  0  0  0  0  0  0
   12.4524  -20.3203   24.0265 C   0  0  0  0  0  0  0  0  0  0  0  0
   12.2515  -21.1850   24.9217 O   0  0  0  0  0  0  0  0  0  0  0  0
   11.4113  -19.8489   23.0971 C   0  0  0  0  0  0  0  0  0  0  0  0
   11.9968  -18.9922   22.0157 C   0  0  2  0  0  0  0  0  0  0  0  0
   10.9357  -18.5726   21.0847 N   0  0  0  0  0  0  0  0  0  0  0  0
   13.1187  -19.5988   21.2900 C   0  0  0  0  0  0  0  0  0  0  0  0
   14.4554  -19.2272   21.5248 O   0  0  0  0  0  0  0  0  0  0  0  0
   12.9135  -20.4799   20.4261 O   0  0  0  0  0  0  0  0  0  0  0  0
  2  1  1  6
  2  4  1  0
  2  3  1  0
  4  5  2  0
  6  7  1  0
  6  4  1  0
  7 14  1  0
  7  8  1  1
  9 10  2  0
  9  8  1  0
 11 10  1  0
 12 13  2  0
 12 11  1  0
 13  9  1  0
 14 21  1  0
 14 15  2  0
 17 18  2  0
 17 16  1  0
 19 17  1  0
 20 19  1  1
 21 20  1  0
 22 23  1  0
 22 20  1  0
 24 22  2  0
M  END
$$$$
