AHN.pdb
     RDKit          3D

 24 24  0  0  1  0  0  0  0  0999 V2000
    7.9858  -12.1455   20.2643 C   0  0  0  0  0  0  0  0  0  0  0  0
    8.3755  -13.2581   19.3168 C   0  0  2  0  0  0  0  0  0  0  0  0
    7.6721  -13.2094   18.0769 N   0  0  0  0  0  0  0  0  0  0  0  0
    8.2454  -14.5908   19.9302 C   0  0  0  0  0  0  0  0  0  0  0  0
    7.2353  -15.3054   19.7267 O   0  0  0  0  0  0  0  0  0  0  0  0
    9.2702  -15.0857   20.7654 N   0  0  0  0  0  0  0  0  0  0  0  0
    9.2945  -16.4434   21.3193 C   0  0  1  0  0  0  0  0  0  0  0  0
   10.5106  -17.1022   20.7516 C   0  0  0  0  0  0  0  0  0  0  0  0
   10.2849  -17.8350   19.4829 C   0  0  0  0  0  0  0  0  0  0  0  0
    9.1982  -18.5132   19.0504 C   0  0  0  0  0  0  0  0  0  0  0  0
    9.4362  -18.9675   17.7812 N   0  0  0  0  0  0  0  0  0  0  0  0
   10.6632  -18.5760   17.4188 C   0  0  0  0  0  0  0  0  0  0  0  0
   11.1791  -17.8923   18.4415 N   0  0  0  0  0  0  0  0  0  0  0  0
    9.6011  -16.1851   22.7847 C   0  0  0  0  0  0  0  0  0  0  0  0
   10.4853  -15.3632   23.0624 O   0  0  0  0  0  0  0  0  0  0  0  0
    6.8974  -18.1201   24.6939 N   0  0  0  0  0  0  0  0  0  0  0  0
    7.0622  -17.4040   25.9207 C   0  0  0  0  0  0  0  0  0  0  0  0
    6.3281  -17.7895   26.8704 O   0  0  0  0  0  0  0  0  0  0  0  0
    8.0303  -16.2994   26.0323 C   0  0  0  0  0  0  0  0  0  0  0  0
    9.2780  -16.5907   25.2546 C   0  0  2  0  0  0  0  0  0  0  0  0
    8.9389  -16.8259   23.8409 N   0  0  0  0  0  0  0  0  0  0  0  0
   10.0918  -17.6899   25.7864 C   0  0  0  0  0  0  0  0  0  0  0  0
   10.6725  -17.6444   27.0674 O   0  0  0  0  0  0  0  0  0  0  0  0
   10.2956  -18.7172   25.1024 O   0  0  0  0  0  0  0  0  0  0  0  0
  2  1  1  1
  2  4  1  0
  2  3  1  0
  4  5  2  0
  6  7  1  0
  6  4  1  0
  7 14  1  0
  7  8  1  6
  9 10  2  0
  9  8  1  0
 11 10  1  0
 12 13  2  0
 12 11  1  0
 13  9  1  0
 14 21  1  0
 14 15  2  0
 17 18  2  0
 17 16  1  0
 19 17  1  0
 20 19  1  1
 21 20  1  0
 22 23  1  0
 22 20  1  0
 24 22  2  0
M  END
$$$$
