AHN.pdb
     RDKit          3D

 24 24  0  0  1  0  0  0  0  0999 V2000
   11.5431  -17.9202   15.3125 C   0  0  0  0  0  0  0  0  0  0  0  0
   10.7489  -16.6334   15.2853 C   0  0  2  0  0  0  0  0  0  0  0  0
   10.6932  -16.0373   13.9906 N   0  0  0  0  0  0  0  0  0  0  0  0
   11.2242  -15.6576   16.2810 C   0  0  0  0  0  0  0  0  0  0  0  0
   12.0178  -14.7394   15.9655 O   0  0  0  0  0  0  0  0  0  0  0  0
   10.7860  -15.7461   17.6199 N   0  0  0  0  0  0  0  0  0  0  0  0
   11.1641  -14.7973   18.6723 C   0  0  1  0  0  0  0  0  0  0  0  0
   10.0445  -14.8076   19.6631 C   0  0  0  0  0  0  0  0  0  0  0  0
    8.7968  -14.1569   19.1972 C   0  0  0  0  0  0  0  0  0  0  0  0
    8.4712  -12.8465   19.1284 C   0  0  0  0  0  0  0  0  0  0  0  0
    7.2288  -12.7280   18.5661 N   0  0  0  0  0  0  0  0  0  0  0  0
    6.7781  -13.9554   18.2824 C   0  0  0  0  0  0  0  0  0  0  0  0
    7.7202  -14.8207   18.6608 N   0  0  0  0  0  0  0  0  0  0  0  0
   12.3261  -15.5102   19.3427 C   0  0  0  0  0  0  0  0  0  0  0  0
   12.3411  -16.7488   19.3274 O   0  0  0  0  0  0  0  0  0  0  0  0
   16.1453  -13.5418   18.1636 N   0  0  0  0  0  0  0  0  0  0  0  0
   16.0852  -14.7792   18.8779 C   0  0  0  0  0  0  0  0  0  0  0  0
   16.3022  -15.8102   18.1856 O   0  0  0  0  0  0  0  0  0  0  0  0
   15.7884  -14.8109   20.3204 C   0  0  0  0  0  0  0  0  0  0  0  0
   14.5160  -15.5532   20.5965 C   0  0  2  0  0  0  0  0  0  0  0  0
   13.3828  -14.8441   19.9785 N   0  0  0  0  0  0  0  0  0  0  0  0
   14.2545  -15.8193   22.0157 C   0  0  0  0  0  0  0  0  0  0  0  0
   15.0910  -16.6411   22.7935 O   0  0  0  0  0  0  0  0  0  0  0  0
   13.2617  -15.3131   22.5839 O   0  0  0  0  0  0  0  0  0  0  0  0
  2  1  1  6
  2  4  1  0
  2  3  1  0
  4  5  2  0
  6  7  1  0
  6  4  1  0
  7 14  1  0
  7  8  1  1
  9 10  2  0
  9  8  1  0
 11 10  1  0
 12 13  2  0
 12 11  1  0
 13  9  1  0
 14 21  1  0
 14 15  2  0
 17 18  2  0
 17 16  1  0
 19 17  1  0
 20 19  1  1
 21 20  1  0
 22 23  1  0
 22 20  1  0
 24 22  2  0
M  END
$$$$
