AHN.pdb
     RDKit          3D

 24 24  0  0  1  0  0  0  0  0999 V2000
    7.7704  -12.7988   19.1727 C   0  0  0  0  0  0  0  0  0  0  0  0
    8.1281  -14.1339   19.7867 C   0  0  2  0  0  0  0  0  0  0  0  0
    7.0599  -15.0777   19.7354 N   0  0  0  0  0  0  0  0  0  0  0  0
    8.6330  -14.0025   21.1641 C   0  0  0  0  0  0  0  0  0  0  0  0
    9.7099  -13.4086   21.4089 O   0  0  0  0  0  0  0  0  0  0  0  0
    7.9006  -14.5511   22.2389 N   0  0  0  0  0  0  0  0  0  0  0  0
    8.3719  -14.5733   23.6274 C   0  0  1  0  0  0  0  0  0  0  0  0
    7.1497  -14.6993   24.4793 C   0  0  0  0  0  0  0  0  0  0  0  0
    6.8632  -13.5214   25.3324 C   0  0  0  0  0  0  0  0  0  0  0  0
    7.5854  -12.3966   25.5353 C   0  0  0  0  0  0  0  0  0  0  0  0
    6.8808  -11.5607   26.3590 N   0  0  0  0  0  0  0  0  0  0  0  0
    5.7235  -12.1558   26.6698 C   0  0  0  0  0  0  0  0  0  0  0  0
    5.7078  -13.3384   26.0529 N   0  0  0  0  0  0  0  0  0  0  0  0
    9.0783  -15.9162   23.7036 C   0  0  0  0  0  0  0  0  0  0  0  0
    8.6164  -16.8594   23.0465 O   0  0  0  0  0  0  0  0  0  0  0  0
   12.9608  -19.5138   23.0239 N   0  0  0  0  0  0  0  0  0  0  0  0
   13.1313  -18.4428   23.9561 C   0  0  0  0  0  0  0  0  0  0  0  0
   14.0128  -18.6328   24.8372 O   0  0  0  0  0  0  0  0  0  0  0  0
   12.3180  -17.2180   23.8643 C   0  0  0  0  0  0  0  0  0  0  0  0
   10.9563  -17.4254   24.4551 C   0  0  2  0  0  0  0  0  0  0  0  0
   10.2242  -16.1478   24.4768 N   0  0  0  0  0  0  0  0  0  0  0  0
   10.9502  -18.0537   25.7812 C   0  0  0  0  0  0  0  0  0  0  0  0
   10.3905  -17.4250   26.9088 O   0  0  0  0  0  0  0  0  0  0  0  0
   11.4521  -19.1872   25.9487 O   0  0  0  0  0  0  0  0  0  0  0  0
  2  1  1  1
  2  4  1  0
  2  3  1  0
  4  5  2  0
  6  7  1  0
  6  4  1  0
  7 14  1  0
  7  8  1  1
  9 10  2  0
  9  8  1  0
 11 10  1  0
 12 13  2  0
 12 11  1  0
 13  9  1  0
 14 21  1  0
 14 15  2  0
 17 18  2  0
 17 16  1  0
 19 17  1  0
 20 19  1  1
 21 20  1  0
 22 23  1  0
 22 20  1  0
 24 22  2  0
M  END
$$$$
