AHN.pdb
     RDKit          3D

 24 24  0  0  1  0  0  0  0  0999 V2000
    7.8242  -18.1838   19.9514 C   0  0  0  0  0  0  0  0  0  0  0  0
    8.1505  -16.7271   19.7090 C   0  0  2  0  0  0  0  0  0  0  0  0
    9.0455  -16.5282   18.6162 N   0  0  0  0  0  0  0  0  0  0  0  0
    8.6571  -16.0552   20.9179 C   0  0  0  0  0  0  0  0  0  0  0  0
    9.8832  -16.0209   21.1782 O   0  0  0  0  0  0  0  0  0  0  0  0
    7.7560  -15.4338   21.8092 N   0  0  0  0  0  0  0  0  0  0  0  0
    8.1422  -14.8684   23.1061 C   0  0  1  0  0  0  0  0  0  0  0  0
    6.9397  -14.1420   23.6175 C   0  0  0  0  0  0  0  0  0  0  0  0
    7.1187  -13.4992   24.9412 C   0  0  0  0  0  0  0  0  0  0  0  0
    8.1843  -13.5010   25.7733 C   0  0  0  0  0  0  0  0  0  0  0  0
    7.9029  -12.7104   26.8547 N   0  0  0  0  0  0  0  0  0  0  0  0
    6.6696  -12.2144   26.7020 C   0  0  0  0  0  0  0  0  0  0  0  0
    6.1925  -12.6869   25.5493 N   0  0  0  0  0  0  0  0  0  0  0  0
    8.2811  -16.1117   23.9680 C   0  0  0  0  0  0  0  0  0  0  0  0
    7.7531  -17.1604   23.5732 O   0  0  0  0  0  0  0  0  0  0  0  0
   12.6131  -19.1560   25.5023 N   0  0  0  0  0  0  0  0  0  0  0  0
   11.2032  -19.1432   25.2632 C   0  0  0  0  0  0  0  0  0  0  0  0
   10.6016  -20.2157   25.5409 O   0  0  0  0  0  0  0  0  0  0  0  0
   10.5333  -17.9447   24.7296 C   0  0  0  0  0  0  0  0  0  0  0  0
    9.5822  -17.3634   25.7315 C   0  0  2  0  0  0  0  0  0  0  0  0
    8.9736  -16.1381   25.1863 N   0  0  0  0  0  0  0  0  0  0  0  0
   10.1610  -17.1143   27.0567 C   0  0  0  0  0  0  0  0  0  0  0  0
   10.1675  -18.0903   28.0703 O   0  0  0  0  0  0  0  0  0  0  0  0
   10.6743  -16.0060   27.3268 O   0  0  0  0  0  0  0  0  0  0  0  0
  2  1  1  1
  2  4  1  0
  2  3  1  0
  4  5  2  0
  6  7  1  0
  6  4  1  0
  7 14  1  0
  7  8  1  1
  9 10  2  0
  9  8  1  0
 11 10  1  0
 12 13  2  0
 12 11  1  0
 13  9  1  0
 14 21  1  0
 14 15  2  0
 17 18  2  0
 17 16  1  0
 19 17  1  0
 20 19  1  6
 21 20  1  0
 22 23  1  0
 22 20  1  0
 24 22  2  0
M  END
$$$$
