AHN.pdb
     RDKit          3D

 24 24  0  0  1  0  0  0  0  0999 V2000
   12.4486  -15.7790   16.0288 C   0  0  0  0  0  0  0  0  0  0  0  0
   12.5578  -16.5975   17.2959 C   0  0  2  0  0  0  0  0  0  0  0  0
   11.6595  -17.7051   17.3259 N   0  0  0  0  0  0  0  0  0  0  0  0
   12.4048  -15.7779   18.5101 C   0  0  0  0  0  0  0  0  0  0  0  0
   13.1979  -14.8414   18.7677 O   0  0  0  0  0  0  0  0  0  0  0  0
   11.3494  -16.0407   19.4099 N   0  0  0  0  0  0  0  0  0  0  0  0
   11.0886  -15.2567   20.6216 C   0  0  1  0  0  0  0  0  0  0  0  0
    9.6015  -15.1840   20.7576 C   0  0  0  0  0  0  0  0  0  0  0  0
    8.9591  -14.0973   19.9806 C   0  0  0  0  0  0  0  0  0  0  0  0
    9.5053  -13.1777   19.1537 C   0  0  0  0  0  0  0  0  0  0  0  0
    8.5029  -12.4206   18.6098 N   0  0  0  0  0  0  0  0  0  0  0  0
    7.3353  -12.8628   19.0908 C   0  0  0  0  0  0  0  0  0  0  0  0
    7.6049  -13.8742   19.9177 N   0  0  0  0  0  0  0  0  0  0  0  0
   11.5663  -16.1942   21.7175 C   0  0  0  0  0  0  0  0  0  0  0  0
   11.1508  -17.3612   21.7127 O   0  0  0  0  0  0  0  0  0  0  0  0
   13.1006  -19.6773   22.9775 N   0  0  0  0  0  0  0  0  0  0  0  0
   14.2561  -18.9209   22.6065 C   0  0  0  0  0  0  0  0  0  0  0  0
   15.3358  -19.5710   22.5736 O   0  0  0  0  0  0  0  0  0  0  0  0
   14.1564  -17.4854   22.2915 C   0  0  0  0  0  0  0  0  0  0  0  0
   13.4038  -16.7471   23.3568 C   0  0  2  0  0  0  0  0  0  0  0  0
   12.4513  -15.8117   22.7349 N   0  0  0  0  0  0  0  0  0  0  0  0
   14.2470  -16.0573   24.3399 C   0  0  0  0  0  0  0  0  0  0  0  0
   14.5671  -16.6255   25.5868 O   0  0  0  0  0  0  0  0  0  0  0  0
   14.7134  -14.9234   24.0916 O   0  0  0  0  0  0  0  0  0  0  0  0
  2  1  1  6
  2  4  1  0
  2  3  1  0
  4  5  2  0
  6  7  1  0
  6  4  1  0
  7 14  1  0
  7  8  1  1
  9 10  2  0
  9  8  1  0
 11 10  1  0
 12 13  2  0
 12 11  1  0
 13  9  1  0
 14 21  1  0
 14 15  2  0
 17 18  2  0
 17 16  1  0
 19 17  1  0
 20 19  1  6
 21 20  1  0
 22 23  1  0
 22 20  1  0
 24 22  2  0
M  END
$$$$
