ERT.pdb
     RDKit          3D

 28 27  0  0  1  0  0  0  0  0999 V2000
    8.4375  -12.6008   18.2202 N   0  0  0  0  0  0  0  0  0  0  0  0
    8.6940  -13.9987   18.4717 C   0  0  1  0  0  0  0  0  0  0  0  0
   10.1632  -14.2427   18.4681 C   0  0  0  0  0  0  0  0  0  0  0  0
   10.8435  -13.3312   19.4485 C   0  0  0  0  0  0  0  0  0  0  0  0
   12.2839  -13.5387   19.6118 C   0  0  0  0  0  0  0  0  0  0  0  0
   12.8371  -14.5975   19.2267 O   0  0  0  0  0  0  0  0  0  0  0  0
    8.0566  -14.3610   19.7683 C   0  0  0  0  0  0  0  0  0  0  0  0
    7.5855  -13.4906   20.5403 O   0  0  0  0  0  0  0  0  0  0  0  0
   13.0806  -12.5679   20.1987 O   0  0  0  0  0  0  0  0  0  0  0  0
    3.4101  -21.4578   21.8775 N   0  0  0  0  0  0  0  0  0  0  0  0
    2.9547  -20.1061   21.7161 C   0  0  0  0  0  0  0  0  0  0  0  0
    1.7560  -19.8802   21.3616 N   0  0  0  0  0  0  0  0  0  0  0  0
    3.8580  -19.0097   21.9569 N   0  0  0  0  0  0  0  0  0  0  0  0
    5.2517  -19.2464   22.2725 C   0  0  0  0  0  0  0  0  0  0  0  0
    5.9323  -17.9122   22.4912 C   0  0  0  0  0  0  0  0  0  0  0  0
    6.6996  -17.4853   21.2743 C   0  0  0  0  0  0  0  0  0  0  0  0
    7.3405  -16.1614   21.3582 C   0  0  2  0  0  0  0  0  0  0  0  0
    7.9810  -15.7232   20.1382 N   0  0  0  0  0  0  0  0  0  0  0  0
    8.1574  -15.9074   22.5833 C   0  0  0  0  0  0  0  0  0  0  0  0
    9.3858  -16.1386   22.6669 O   0  0  0  0  0  0  0  0  0  0  0  0
    1.4315  -18.9058   21.1972 C   0  0  0  0  0  0  0  0  0  0  0  0
    7.8648  -12.6369   24.7944 C   0  0  2  0  0  0  0  0  0  0  0  0
    7.7152  -13.8919   25.6212 O   0  0  0  0  0  0  0  0  0  0  0  0
    6.3566  -14.1383   25.8463 C   0  0  2  0  0  0  0  0  0  0  0  0
    8.3770  -15.0955   24.9621 N   0  0  0  0  0  0  0  0  0  0  0  0
    7.5698  -15.3705   23.7644 C   0  0  0  0  0  0  0  0  0  0  0  0
    8.4520  -16.2385   25.8680 O   0  0  0  0  0  0  0  0  0  0  0  0
    7.7010  -17.3631   25.5339 O   0  0  0  0  0  0  0  0  0  0  0  0
  2  1  1  1
  2  7  1  0
  2  3  1  0
  4  3  1  0
  4  5  1  0
  5  6  2  0
  7  8  2  0
  9  5  1  0
 11 12  2  0
 11 10  1  0
 13 11  1  0
 14 15  1  0
 14 13  1  0
 16 15  1  0
 17 16  1  6
 18 17  1  0
 18  7  1  0
 19 20  2  0
 19 17  1  0
 22 21  1  1
 22 23  1  0
 24 22  1  0
 24 25  1  1
 25 19  1  0
 26 27  1  0
 26 24  1  0
 28 26  2  0
M  END
$$$$
