ERT.pdb
     RDKit          3D

 28 27  0  0  1  0  0  0  0  0999 V2000
    9.7600  -17.4503   20.2227 N   0  0  0  0  0  0  0  0  0  0  0  0
    8.7831  -16.3879   20.2142 C   0  0  1  0  0  0  0  0  0  0  0  0
    7.6496  -16.7625   19.3237 C   0  0  0  0  0  0  0  0  0  0  0  0
    8.1665  -17.2326   17.9947 C   0  0  0  0  0  0  0  0  0  0  0  0
    7.1450  -17.5666   17.0000 C   0  0  0  0  0  0  0  0  0  0  0  0
    7.4552  -17.8435   15.8157 O   0  0  0  0  0  0  0  0  0  0  0  0
    8.3513  -16.1439   21.6187 C   0  0  0  0  0  0  0  0  0  0  0  0
    7.5055  -15.2628   21.9076 O   0  0  0  0  0  0  0  0  0  0  0  0
    5.8011  -17.5866   17.3392 O   0  0  0  0  0  0  0  0  0  0  0  0
    9.2610  -21.8963   27.5247 N   0  0  0  0  0  0  0  0  0  0  0  0
    8.0541  -21.1276   27.4100 C   0  0  0  0  0  0  0  0  0  0  0  0
    6.9730  -21.6953   27.0598 N   0  0  0  0  0  0  0  0  0  0  0  0
    8.0722  -19.7148   27.6926 N   0  0  0  0  0  0  0  0  0  0  0  0
    9.1370  -18.8679   27.1958 C   0  0  0  0  0  0  0  0  0  0  0  0
    8.5278  -17.7679   26.3531 C   0  0  0  0  0  0  0  0  0  0  0  0
    8.9589  -17.8765   24.9199 C   0  0  0  0  0  0  0  0  0  0  0  0
    8.5106  -16.7863   24.0362 C   0  0  2  0  0  0  0  0  0  0  0  0
    8.9105  -16.9275   22.6539 N   0  0  0  0  0  0  0  0  0  0  0  0
    8.6857  -15.4007   24.5675 C   0  0  0  0  0  0  0  0  0  0  0  0
    9.7662  -14.7677   24.5317 O   0  0  0  0  0  0  0  0  0  0  0  0
    6.0978  -21.1425   26.9600 C   0  0  0  0  0  0  0  0  0  0  0  0
    6.4218  -11.2598   26.0962 C   0  0  1  0  0  0  0  0  0  0  0  0
    6.4452  -12.6440   25.4925 O   0  0  0  0  0  0  0  0  0  0  0  0
    6.1561  -12.5578   24.1265 C   0  0  1  0  0  0  0  0  0  0  0  0
    7.7793  -13.3450   25.7157 N   0  0  0  0  0  0  0  0  0  0  0  0
    7.6011  -14.6960   25.1638 C   0  0  0  0  0  0  0  0  0  0  0  0
    8.1586  -13.3558   27.1259 O   0  0  0  0  0  0  0  0  0  0  0  0
    8.0233  -14.5617   27.8100 O   0  0  0  0  0  0  0  0  0  0  0  0
  2  1  1  1
  2  7  1  0
  2  3  1  0
  4  3  1  0
  4  5  1  0
  5  6  2  0
  7  8  2  0
  9  5  1  0
 11 12  2  0
 11 10  1  0
 13 11  1  0
 14 15  1  0
 14 13  1  0
 16 15  1  0
 17 16  1  1
 18 17  1  0
 18  7  1  0
 19 20  2  0
 19 17  1  0
 22 21  1  1
 22 23  1  0
 24 22  1  0
 24 25  1  1
 25 19  1  0
 26 27  1  0
 26 24  1  0
 28 26  2  0
M  END
$$$$
