ERT.pdb
     RDKit          3D

 28 27  0  0  1  0  0  0  0  0999 V2000
   10.6010  -18.4202   19.5719 N   0  0  0  0  0  0  0  0  0  0  0  0
   11.5742  -17.7607   20.4092 C   0  0  1  0  0  0  0  0  0  0  0  0
   12.5481  -17.0261   19.5547 C   0  0  0  0  0  0  0  0  0  0  0  0
   12.9166  -17.8540   18.3575 C   0  0  0  0  0  0  0  0  0  0  0  0
   13.8864  -17.2480   17.4426 C   0  0  0  0  0  0  0  0  0  0  0  0
   13.5149  -16.6396   16.4095 O   0  0  0  0  0  0  0  0  0  0  0  0
   10.8454  -16.8630   21.3481 C   0  0  0  0  0  0  0  0  0  0  0  0
   11.4346  -16.2567   22.2758 O   0  0  0  0  0  0  0  0  0  0  0  0
   15.2474  -17.3293   17.6925 O   0  0  0  0  0  0  0  0  0  0  0  0
    6.8915  -12.9120   16.8041 N   0  0  0  0  0  0  0  0  0  0  0  0
    7.8850  -13.9174   17.0548 C   0  0  0  0  0  0  0  0  0  0  0  0
    8.3063  -14.6426   16.1008 N   0  0  0  0  0  0  0  0  0  0  0  0
    8.4016  -14.1008   18.3873 N   0  0  0  0  0  0  0  0  0  0  0  0
    7.9304  -13.2872   19.4891 C   0  0  0  0  0  0  0  0  0  0  0  0
    8.6179  -13.7445   20.7577 C   0  0  0  0  0  0  0  0  0  0  0  0
    7.8483  -14.8437   21.4295 C   0  0  0  0  0  0  0  0  0  0  0  0
    8.6624  -15.8794   22.0890 C   0  0  2  0  0  0  0  0  0  0  0  0
    9.4516  -16.6901   21.1887 N   0  0  0  0  0  0  0  0  0  0  0  0
    7.9753  -16.6704   23.1544 C   0  0  0  0  0  0  0  0  0  0  0  0
    6.8963  -17.2842   22.9857 O   0  0  0  0  0  0  0  0  0  0  0  0
    9.0033  -15.3934   16.2799 C   0  0  0  0  0  0  0  0  0  0  0  0
    9.9362  -18.8041   25.9199 C   0  0  2  0  0  0  0  0  0  0  0  0
    8.8990  -17.8921   26.5310 O   0  0  0  0  0  0  0  0  0  0  0  0
    9.5291  -16.7539   27.0452 C   0  0  2  0  0  0  0  0  0  0  0  0
    7.8176  -17.5017   25.5313 N   0  0  0  0  0  0  0  0  0  0  0  0
    8.5236  -16.7770   24.4645 C   0  0  0  0  0  0  0  0  0  0  0  0
    6.7636  -16.7055   26.1539 O   0  0  0  0  0  0  0  0  0  0  0  0
    5.8372  -17.3847   26.9420 O   0  0  0  0  0  0  0  0  0  0  0  0
  2  1  1  6
  2  7  1  0
  2  3  1  0
  4  3  1  0
  4  5  1  0
  5  6  2  0
  7  8  2  0
  9  5  1  0
 11 12  2  0
 11 10  1  0
 13 11  1  0
 14 15  1  0
 14 13  1  0
 16 15  1  0
 17 16  1  6
 18 17  1  0
 18  7  1  0
 19 20  2  0
 19 17  1  0
 22 21  1  1
 22 23  1  0
 24 22  1  0
 24 25  1  1
 25 19  1  0
 26 27  1  0
 26 24  1  0
 28 26  2  0
M  END
$$$$
