ERT.pdb
     RDKit          3D

 28 27  0  0  1  0  0  0  0  0999 V2000
    8.9394  -20.4774   18.5409 N   0  0  0  0  0  0  0  0  0  0  0  0
    9.4719  -19.1585   18.7858 C   0  0  1  0  0  0  0  0  0  0  0  0
    9.4821  -18.3829   17.5143 C   0  0  0  0  0  0  0  0  0  0  0  0
    9.1923  -19.2877   16.3517 C   0  0  0  0  0  0  0  0  0  0  0  0
    9.1707  -18.6426   15.0371 C   0  0  0  0  0  0  0  0  0  0  0  0
    8.1089  -18.5512   14.3740 O   0  0  0  0  0  0  0  0  0  0  0  0
    8.6446  -18.5135   19.8432 C   0  0  0  0  0  0  0  0  0  0  0  0
    8.8458  -17.3306   20.2116 O   0  0  0  0  0  0  0  0  0  0  0  0
   10.3266  -18.1125   14.4856 O   0  0  0  0  0  0  0  0  0  0  0  0
    0.6902  -20.9859   20.8453 N   0  0  0  0  0  0  0  0  0  0  0  0
    1.7959  -21.3655   20.0123 C   0  0  0  0  0  0  0  0  0  0  0  0
    1.6856  -22.3582   19.2276 N   0  0  0  0  0  0  0  0  0  0  0  0
    3.0273  -20.6194   20.0683 N   0  0  0  0  0  0  0  0  0  0  0  0
    3.1677  -19.4754   20.9456 C   0  0  0  0  0  0  0  0  0  0  0  0
    4.5292  -18.8544   20.7180 C   0  0  0  0  0  0  0  0  0  0  0  0
    5.5190  -19.3182   21.7460 C   0  0  0  0  0  0  0  0  0  0  0  0
    6.8825  -18.7779   21.6059 C   0  0  2  0  0  0  0  0  0  0  0  0
    7.6042  -19.2555   20.4476 N   0  0  0  0  0  0  0  0  0  0  0  0
    7.7068  -18.7534   22.8520 C   0  0  0  0  0  0  0  0  0  0  0  0
    8.3357  -19.7418   23.2958 O   0  0  0  0  0  0  0  0  0  0  0  0
    2.4759  -22.6284   18.6078 C   0  0  0  0  0  0  0  0  0  0  0  0
    9.9170  -15.9844   26.3174 C   0  0  2  0  0  0  0  0  0  0  0  0
    9.1835  -16.1826   25.0121 O   0  0  0  0  0  0  0  0  0  0  0  0
   10.0643  -15.9605   23.9482 C   0  0  1  0  0  0  0  0  0  0  0  0
    8.5573  -17.5678   24.9103 N   0  0  0  0  0  0  0  0  0  0  0  0
    7.8304  -17.5684   23.6324 C   0  0  0  0  0  0  0  0  0  0  0  0
    7.6945  -17.8596   26.0518 O   0  0  0  0  0  0  0  0  0  0  0  0
    8.2771  -18.5093   27.1376 O   0  0  0  0  0  0  0  0  0  0  0  0
  2  1  1  6
  2  7  1  0
  2  3  1  0
  4  3  1  0
  4  5  1  0
  5  6  2  0
  7  8  2  0
  9  5  1  0
 11 12  2  0
 11 10  1  0
 13 11  1  0
 14 15  1  0
 14 13  1  0
 16 15  1  0
 17 16  1  1
 18 17  1  0
 18  7  1  0
 19 20  2  0
 19 17  1  0
 22 21  1  6
 22 23  1  0
 24 22  1  0
 24 25  1  6
 25 19  1  0
 26 27  1  0
 26 24  1  0
 28 26  2  0
M  END
$$$$
