ERT.pdb
     RDKit          3D

 28 27  0  0  1  0  0  0  0  0999 V2000
   12.7079  -17.7801   17.3106 N   0  0  0  0  0  0  0  0  0  0  0  0
   11.5912  -18.4427   17.9410 C   0  0  1  0  0  0  0  0  0  0  0  0
   11.8296  -19.9129   17.9552 C   0  0  0  0  0  0  0  0  0  0  0  0
   12.9576  -20.2472   18.8880 C   0  0  0  0  0  0  0  0  0  0  0  0
   13.2710  -21.6719   19.0177 C   0  0  0  0  0  0  0  0  0  0  0  0
   12.4873  -22.5528   18.5873 O   0  0  0  0  0  0  0  0  0  0  0  0
   11.4280  -17.8760   19.3087 C   0  0  0  0  0  0  0  0  0  0  0  0
   12.4127  -17.5094   19.9952 O   0  0  0  0  0  0  0  0  0  0  0  0
   14.4466  -22.0897   19.6217 O   0  0  0  0  0  0  0  0  0  0  0  0
    7.7123  -12.2080   17.3399 N   0  0  0  0  0  0  0  0  0  0  0  0
    7.6464  -13.4069   18.1266 C   0  0  0  0  0  0  0  0  0  0  0  0
    8.0101  -14.5150   17.6233 N   0  0  0  0  0  0  0  0  0  0  0  0
    7.1683  -13.3500   19.4847 N   0  0  0  0  0  0  0  0  0  0  0  0
    7.1624  -14.5304   20.3240 C   0  0  0  0  0  0  0  0  0  0  0  0
    8.5493  -15.1367   20.3170 C   0  0  0  0  0  0  0  0  0  0  0  0
    8.6173  -16.3531   21.1932 C   0  0  0  0  0  0  0  0  0  0  0  0
    9.8746  -17.1179   21.1237 C   0  0  2  0  0  0  0  0  0  0  0  0
   10.1272  -17.7482   19.8472 N   0  0  0  0  0  0  0  0  0  0  0  0
   10.1666  -18.0025   22.2921 C   0  0  0  0  0  0  0  0  0  0  0  0
    9.5268  -19.0462   22.5580 O   0  0  0  0  0  0  0  0  0  0  0  0
    7.9001  -15.3980   18.1617 C   0  0  0  0  0  0  0  0  0  0  0  0
   13.6842  -17.3165   24.5181 C   0  0  2  0  0  0  0  0  0  0  0  0
   13.0254  -18.6712   24.4100 O   0  0  0  0  0  0  0  0  0  0  0  0
   13.4257  -19.4677   25.4882 C   0  0  1  0  0  0  0  0  0  0  0  0
   11.5064  -18.5678   24.3539 N   0  0  0  0  0  0  0  0  0  0  0  0
   11.2221  -17.7023   23.2000 C   0  0  0  0  0  0  0  0  0  0  0  0
   10.9504  -18.0489   25.6006 O   0  0  0  0  0  0  0  0  0  0  0  0
   11.0524  -18.8616   26.7274 O   0  0  0  0  0  0  0  0  0  0  0  0
  2  1  1  1
  2  7  1  0
  2  3  1  0
  4  3  1  0
  4  5  1  0
  5  6  2  0
  7  8  2  0
  9  5  1  0
 11 12  2  0
 11 10  1  0
 13 11  1  0
 14 15  1  0
 14 13  1  0
 16 15  1  0
 17 16  1  6
 18 17  1  0
 18  7  1  0
 19 20  2  0
 19 17  1  0
 22 21  1  6
 22 23  1  0
 24 22  1  0
 24 25  1  6
 25 19  1  0
 26 27  1  0
 26 24  1  0
 28 26  2  0
M  END
$$$$
