ERT.pdb
     RDKit          3D

 28 27  0  0  1  0  0  0  0  0999 V2000
    8.3183  -13.3615   18.6257 N   0  0  0  0  0  0  0  0  0  0  0  0
    9.0584  -14.1897   19.5474 C   0  0  1  0  0  0  0  0  0  0  0  0
   10.3956  -13.5830   19.7966 C   0  0  0  0  0  0  0  0  0  0  0  0
   11.4800  -14.4911   19.2927 C   0  0  0  0  0  0  0  0  0  0  0  0
   12.8458  -14.1105   19.6592 C   0  0  0  0  0  0  0  0  0  0  0  0
   13.0687  -13.1379   20.4206 O   0  0  0  0  0  0  0  0  0  0  0  0
    8.2530  -14.3316   20.7923 C   0  0  0  0  0  0  0  0  0  0  0  0
    7.4312  -13.4540   21.1527 O   0  0  0  0  0  0  0  0  0  0  0  0
   13.9356  -14.8164   19.1739 O   0  0  0  0  0  0  0  0  0  0  0  0
    7.5442  -20.7135   23.0417 N   0  0  0  0  0  0  0  0  0  0  0  0
    7.7051  -20.5483   24.4585 C   0  0  0  0  0  0  0  0  0  0  0  0
    8.5155  -21.2915   25.0944 N   0  0  0  0  0  0  0  0  0  0  0  0
    6.9474  -19.5399   25.1552 N   0  0  0  0  0  0  0  0  0  0  0  0
    5.9935  -18.7056   24.4538 C   0  0  0  0  0  0  0  0  0  0  0  0
    6.5485  -17.2997   24.3710 C   0  0  0  0  0  0  0  0  0  0  0  0
    7.1979  -17.0470   23.0421 C   0  0  0  0  0  0  0  0  0  0  0  0
    7.7093  -15.6812   22.8332 C   0  0  2  0  0  0  0  0  0  0  0  0
    8.4201  -15.4872   21.5891 N   0  0  0  0  0  0  0  0  0  0  0  0
    8.3826  -15.0489   24.0078 C   0  0  0  0  0  0  0  0  0  0  0  0
    9.5748  -15.2599   24.3296 O   0  0  0  0  0  0  0  0  0  0  0  0
    8.6076  -21.2058   26.1268 C   0  0  0  0  0  0  0  0  0  0  0  0
    7.6372  -11.2838   25.6406 C   0  0  2  0  0  0  0  0  0  0  0  0
    7.4249  -12.4798   26.5381 O   0  0  0  0  0  0  0  0  0  0  0  0
    6.0683  -12.8214   26.5405 C   0  0  2  0  0  0  0  0  0  0  0  0
    8.2776  -13.6707   26.1185 N   0  0  0  0  0  0  0  0  0  0  0  0
    7.6875  -14.1407   24.8566 C   0  0  0  0  0  0  0  0  0  0  0  0
    8.3097  -14.7059   27.1479 O   0  0  0  0  0  0  0  0  0  0  0  0
    8.9105  -14.3762   28.3607 O   0  0  0  0  0  0  0  0  0  0  0  0
  2  1  1  6
  2  7  1  0
  2  3  1  0
  4  3  1  0
  4  5  1  0
  5  6  2  0
  7  8  2  0
  9  5  1  0
 11 12  2  0
 11 10  1  0
 13 11  1  0
 14 15  1  0
 14 13  1  0
 16 15  1  0
 17 16  1  1
 18 17  1  0
 18  7  1  0
 19 20  2  0
 19 17  1  0
 22 21  1  1
 22 23  1  0
 24 22  1  0
 24 25  1  1
 25 19  1  0
 26 27  1  0
 26 24  1  0
 28 26  2  0
M  END
$$$$
