ERT.pdb
     RDKit          3D

 28 27  0  0  1  0  0  0  0  0999 V2000
    7.1547  -16.3552   19.2785 N   0  0  0  0  0  0  0  0  0  0  0  0
    8.4041  -16.2649   19.9954 C   0  0  1  0  0  0  0  0  0  0  0  0
    9.1473  -15.0543   19.5477 C   0  0  0  0  0  0  0  0  0  0  0  0
    8.2112  -13.8871   19.4221 C   0  0  0  0  0  0  0  0  0  0  0  0
    8.8469  -12.5864   19.2014 C   0  0  0  0  0  0  0  0  0  0  0  0
   10.0849  -12.4893   19.0182 O   0  0  0  0  0  0  0  0  0  0  0  0
    8.1013  -16.2441   21.4537 C   0  0  0  0  0  0  0  0  0  0  0  0
    6.9491  -15.9992   21.8870 O   0  0  0  0  0  0  0  0  0  0  0  0
    8.0968  -11.4208   19.1883 O   0  0  0  0  0  0  0  0  0  0  0  0
   11.9894  -21.9467   25.9135 N   0  0  0  0  0  0  0  0  0  0  0  0
   12.4336  -20.9391   24.9926 C   0  0  0  0  0  0  0  0  0  0  0  0
   13.6572  -20.8849   24.6557 N   0  0  0  0  0  0  0  0  0  0  0  0
   11.4907  -19.9927   24.4529 N   0  0  0  0  0  0  0  0  0  0  0  0
   10.0946  -20.0283   24.8369 C   0  0  0  0  0  0  0  0  0  0  0  0
    9.3427  -18.9941   24.0268 C   0  0  0  0  0  0  0  0  0  0  0  0
    9.6256  -17.6049   24.5184 C   0  0  0  0  0  0  0  0  0  0  0  0
    8.9273  -16.5223   23.8037 C   0  0  2  0  0  0  0  0  0  0  0  0
    9.1416  -16.5076   22.3738 N   0  0  0  0  0  0  0  0  0  0  0  0
    9.0058  -15.1684   24.4310 C   0  0  0  0  0  0  0  0  0  0  0  0
    9.9492  -14.3647   24.2477 O   0  0  0  0  0  0  0  0  0  0  0  0
   13.9856  -20.1620   23.9839 C   0  0  0  0  0  0  0  0  0  0  0  0
    6.4645  -12.2185   24.6967 C   0  0  2  0  0  0  0  0  0  0  0  0
    6.7908  -12.7831   26.0590 O   0  0  0  0  0  0  0  0  0  0  0  0
    5.7841  -13.6753   26.4431 C   0  0  2  0  0  0  0  0  0  0  0  0
    8.1524  -13.4660   26.0861 N   0  0  0  0  0  0  0  0  0  0  0  0
    7.9811  -14.6969   25.3005 C   0  0  0  0  0  0  0  0  0  0  0  0
    8.6040  -13.7243   27.4506 O   0  0  0  0  0  0  0  0  0  0  0  0
    8.8768  -12.6158   28.2490 O   0  0  0  0  0  0  0  0  0  0  0  0
  2  1  1  6
  2  7  1  0
  2  3  1  0
  4  3  1  0
  4  5  1  0
  5  6  2  0
  7  8  2  0
  9  5  1  0
 11 12  2  0
 11 10  1  0
 13 11  1  0
 14 15  1  0
 14 13  1  0
 16 15  1  0
 17 16  1  1
 18 17  1  0
 18  7  1  0
 19 20  2  0
 19 17  1  0
 22 21  1  1
 22 23  1  0
 24 22  1  0
 24 25  1  1
 25 19  1  0
 26 27  1  0
 26 24  1  0
 28 26  2  0
M  END
$$$$
