ERT.pdb
     RDKit          3D

 28 27  0  0  1  0  0  0  0  0999 V2000
   10.3123  -17.5066   17.6658 N   0  0  0  0  0  0  0  0  0  0  0  0
    9.3167  -17.6475   18.7013 C   0  0  1  0  0  0  0  0  0  0  0  0
    8.8944  -19.0728   18.7936 C   0  0  0  0  0  0  0  0  0  0  0  0
   10.0770  -19.9782   18.6035 C   0  0  0  0  0  0  0  0  0  0  0  0
    9.8028  -21.4118   18.7242 C   0  0  0  0  0  0  0  0  0  0  0  0
   10.4283  -22.1276   19.5438 O   0  0  0  0  0  0  0  0  0  0  0  0
    9.8975  -17.1388   19.9750 C   0  0  0  0  0  0  0  0  0  0  0  0
   11.1373  -17.0414   20.1449 O   0  0  0  0  0  0  0  0  0  0  0  0
    8.8411  -22.0213   17.9337 O   0  0  0  0  0  0  0  0  0  0  0  0
    8.4350  -11.0624   19.8641 N   0  0  0  0  0  0  0  0  0  0  0  0
    8.9534  -12.4009   19.8743 C   0  0  0  0  0  0  0  0  0  0  0  0
    9.6794  -12.8058   18.9138 N   0  0  0  0  0  0  0  0  0  0  0  0
    8.6491  -13.2811   20.9737 N   0  0  0  0  0  0  0  0  0  0  0  0
    7.4944  -14.1546   20.9331 C   0  0  0  0  0  0  0  0  0  0  0  0
    7.4028  -14.8980   22.2484 C   0  0  0  0  0  0  0  0  0  0  0  0
    8.7621  -15.1269   22.8415 C   0  0  0  0  0  0  0  0  0  0  0  0
    9.5103  -16.2722   22.2948 C   0  0  2  0  0  0  0  0  0  0  0  0
    9.0269  -16.7555   21.0207 N   0  0  0  0  0  0  0  0  0  0  0  0
    9.8316  -17.3646   23.2624 C   0  0  0  0  0  0  0  0  0  0  0  0
    9.0786  -18.3384   23.4952 O   0  0  0  0  0  0  0  0  0  0  0  0
   10.0557  -13.7753   18.9121 C   0  0  0  0  0  0  0  0  0  0  0  0
   13.5353  -19.6766   25.5966 C   0  0  2  0  0  0  0  0  0  0  0  0
   12.9608  -18.5559   24.7630 O   0  0  0  0  0  0  0  0  0  0  0  0
   13.3889  -18.6981   23.4388 C   0  0  1  0  0  0  0  0  0  0  0  0
   11.4396  -18.5099   24.8334 N   0  0  0  0  0  0  0  0  0  0  0  0
   11.0504  -17.3636   23.9993 C   0  0  0  0  0  0  0  0  0  0  0  0
   10.9622  -18.3965   26.2088 O   0  0  0  0  0  0  0  0  0  0  0  0
   11.0402  -19.5380   27.0035 O   0  0  0  0  0  0  0  0  0  0  0  0
  2  1  1  6
  2  7  1  0
  2  3  1  0
  4  3  1  0
  4  5  1  0
  5  6  2  0
  7  8  2  0
  9  5  1  0
 11 12  2  0
 11 10  1  0
 13 11  1  0
 14 15  1  0
 14 13  1  0
 16 15  1  0
 17 16  1  1
 18 17  1  0
 18  7  1  0
 19 20  2  0
 19 17  1  0
 22 21  1  1
 22 23  1  0
 24 22  1  0
 24 25  1  1
 25 19  1  0
 26 27  1  0
 26 24  1  0
 28 26  2  0
M  END
$$$$
