ERT.pdb
     RDKit          3D

 28 27  0  0  1  0  0  0  0  0999 V2000
   11.9462  -17.7852   20.7451 N   0  0  0  0  0  0  0  0  0  0  0  0
   12.8877  -16.9826   21.4885 C   0  0  1  0  0  0  0  0  0  0  0  0
   13.6413  -16.1047   20.5506 C   0  0  0  0  0  0  0  0  0  0  0  0
   12.7366  -15.6156   19.4566 C   0  0  0  0  0  0  0  0  0  0  0  0
   13.3470  -14.6969   18.4933 C   0  0  0  0  0  0  0  0  0  0  0  0
   13.1833  -14.8456   17.2578 O   0  0  0  0  0  0  0  0  0  0  0  0
   12.1310  -16.2101   22.5127 C   0  0  0  0  0  0  0  0  0  0  0  0
   12.6817  -15.3307   23.2190 O   0  0  0  0  0  0  0  0  0  0  0  0
   14.1260  -13.6328   18.9201 O   0  0  0  0  0  0  0  0  0  0  0  0
    8.5906  -13.9735   18.4030 N   0  0  0  0  0  0  0  0  0  0  0  0
    8.3205  -12.9603   19.3834 C   0  0  0  0  0  0  0  0  0  0  0  0
    8.4093  -11.7334   19.0666 N   0  0  0  0  0  0  0  0  0  0  0  0
    7.9491  -13.3377   20.7235 N   0  0  0  0  0  0  0  0  0  0  0  0
    8.4832  -14.5365   21.3364 C   0  0  0  0  0  0  0  0  0  0  0  0
    7.9525  -14.6353   22.7505 C   0  0  0  0  0  0  0  0  0  0  0  0
    8.5095  -15.8348   23.4596 C   0  0  0  0  0  0  0  0  0  0  0  0
    9.9621  -15.8118   23.7042 C   0  0  2  0  0  0  0  0  0  0  0  0
   10.7543  -16.4757   22.6931 N   0  0  0  0  0  0  0  0  0  0  0  0
   10.3947  -16.1252   25.0997 C   0  0  0  0  0  0  0  0  0  0  0  0
   10.8746  -17.2269   25.4539 O   0  0  0  0  0  0  0  0  0  0  0  0
    8.2619  -10.9939   19.7829 C   0  0  0  0  0  0  0  0  0  0  0  0
    9.1358  -13.5362   28.0661 C   0  0  1  0  0  0  0  0  0  0  0  0
   10.4764  -14.1899   28.3038 O   0  0  0  0  0  0  0  0  0  0  0  0
   10.6489  -14.4060   29.6752 C   0  0  1  0  0  0  0  0  0  0  0  0
   10.6233  -15.4953   27.5321 N   0  0  0  0  0  0  0  0  0  0  0  0
   10.2843  -15.1602   26.1413 C   0  0  0  0  0  0  0  0  0  0  0  0
    9.7765  -16.5503   28.0821 O   0  0  0  0  0  0  0  0  0  0  0  0
    8.5148  -16.7118   27.5141 O   0  0  0  0  0  0  0  0  0  0  0  0
  2  1  1  6
  2  7  1  0
  2  3  1  0
  4  3  1  0
  4  5  1  0
  5  6  2  0
  7  8  2  0
  9  5  1  0
 11 12  2  0
 11 10  1  0
 13 11  1  0
 14 15  1  0
 14 13  1  0
 16 15  1  0
 17 16  1  1
 18 17  1  0
 18  7  1  0
 19 20  2  0
 19 17  1  0
 22 21  1  1
 22 23  1  0
 24 22  1  0
 24 25  1  6
 25 19  1  0
 26 27  1  0
 26 24  1  0
 28 26  2  0
M  END
$$$$
