ERT.pdb
     RDKit          3D

 28 27  0  0  1  0  0  0  0  0999 V2000
   14.3370  -17.9764   20.8581 N   0  0  0  0  0  0  0  0  0  0  0  0
   13.3958  -18.4739   21.8327 C   0  0  1  0  0  0  0  0  0  0  0  0
   14.0980  -19.3793   22.7843 C   0  0  0  0  0  0  0  0  0  0  0  0
   15.5746  -19.3744   22.5123 C   0  0  0  0  0  0  0  0  0  0  0  0
   16.3841  -20.2162   23.3958 C   0  0  0  0  0  0  0  0  0  0  0  0
   16.9756  -19.7342   24.3924 O   0  0  0  0  0  0  0  0  0  0  0  0
   12.7694  -17.3051   22.5109 C   0  0  0  0  0  0  0  0  0  0  0  0
   13.3924  -16.2298   22.6870 O   0  0  0  0  0  0  0  0  0  0  0  0
   16.5206  -21.5746   23.1559 O   0  0  0  0  0  0  0  0  0  0  0  0
    5.9149  -13.3139   20.4675 N   0  0  0  0  0  0  0  0  0  0  0  0
    7.2680  -13.6850   20.1641 C   0  0  0  0  0  0  0  0  0  0  0  0
    7.6862  -13.6287   18.9660 N   0  0  0  0  0  0  0  0  0  0  0  0
    8.1479  -14.1199   21.2191 N   0  0  0  0  0  0  0  0  0  0  0  0
    7.6822  -14.2159   22.5872 C   0  0  0  0  0  0  0  0  0  0  0  0
    8.8330  -14.6691   23.4599 C   0  0  0  0  0  0  0  0  0  0  0  0
    9.5652  -15.8235   22.8412 C   0  0  0  0  0  0  0  0  0  0  0  0
   10.7386  -16.3073   23.5891 C   0  0  2  0  0  0  0  0  0  0  0  0
   11.4361  -17.4114   22.9684 N   0  0  0  0  0  0  0  0  0  0  0  0
   10.5508  -16.4750   25.0621 C   0  0  0  0  0  0  0  0  0  0  0  0
   10.4448  -17.5850   25.6332 O   0  0  0  0  0  0  0  0  0  0  0  0
    8.6539  -13.9299   18.7326 C   0  0  0  0  0  0  0  0  0  0  0  0
   10.2815  -14.0798   29.4551 C   0  0  1  0  0  0  0  0  0  0  0  0
   10.2554  -14.1054   27.9452 O   0  0  0  0  0  0  0  0  0  0  0  0
   11.2321  -13.2344   27.4509 C   0  0  1  0  0  0  0  0  0  0  0  0
   10.4588  -15.5101   27.3915 N   0  0  0  0  0  0  0  0  0  0  0  0
   10.4797  -15.3483   25.9304 C   0  0  0  0  0  0  0  0  0  0  0  0
    9.4178  -16.4288   27.8438 O   0  0  0  0  0  0  0  0  0  0  0  0
    9.6440  -17.1039   29.0412 O   0  0  0  0  0  0  0  0  0  0  0  0
  2  1  1  6
  2  7  1  0
  2  3  1  0
  4  3  1  0
  4  5  1  0
  5  6  2  0
  7  8  2  0
  9  5  1  0
 11 12  2  0
 11 10  1  0
 13 11  1  0
 14 15  1  0
 14 13  1  0
 16 15  1  0
 17 16  1  6
 18 17  1  0
 18  7  1  0
 19 20  2  0
 19 17  1  0
 22 21  1  6
 22 23  1  0
 24 22  1  0
 24 25  1  6
 25 19  1  0
 26 27  1  0
 26 24  1  0
 28 26  2  0
M  END
$$$$
