ERT.pdb
     RDKit          3D

 28 27  0  0  1  0  0  0  0  0999 V2000
   11.0304  -19.8724   17.0007 N   0  0  0  0  0  0  0  0  0  0  0  0
    9.9195  -19.9669   17.9172 C   0  0  1  0  0  0  0  0  0  0  0  0
    9.8077  -21.3644   18.4199 C   0  0  0  0  0  0  0  0  0  0  0  0
   11.1316  -22.0639   18.3086 C   0  0  0  0  0  0  0  0  0  0  0  0
   11.1544  -23.4537   18.7696 C   0  0  0  0  0  0  0  0  0  0  0  0
   10.1291  -23.9984   19.2468 O   0  0  0  0  0  0  0  0  0  0  0  0
   10.1365  -18.9804   19.0119 C   0  0  0  0  0  0  0  0  0  0  0  0
   11.2806  -18.5517   19.2994 O   0  0  0  0  0  0  0  0  0  0  0  0
   12.3132  -24.2103   18.6920 O   0  0  0  0  0  0  0  0  0  0  0  0
    8.1521  -12.1442   18.9216 N   0  0  0  0  0  0  0  0  0  0  0  0
    8.0993  -12.7079   20.2407 C   0  0  0  0  0  0  0  0  0  0  0  0
    8.8183  -12.2194   21.1670 N   0  0  0  0  0  0  0  0  0  0  0  0
    7.2308  -13.8256   20.5105 N   0  0  0  0  0  0  0  0  0  0  0  0
    7.1759  -14.4274   21.8268 C   0  0  0  0  0  0  0  0  0  0  0  0
    8.2596  -15.4798   21.9239 C   0  0  0  0  0  0  0  0  0  0  0  0
    8.1180  -16.5101   20.8421 C   0  0  0  0  0  0  0  0  0  0  0  0
    9.1480  -17.5633   20.8276 C   0  0  2  0  0  0  0  0  0  0  0  0
    9.0220  -18.5151   19.7465 N   0  0  0  0  0  0  0  0  0  0  0  0
    9.4527  -18.1973   22.1459 C   0  0  0  0  0  0  0  0  0  0  0  0
    8.6415  -18.9039   22.7880 O   0  0  0  0  0  0  0  0  0  0  0  0
    8.9000  -12.7078   22.0816 C   0  0  0  0  0  0  0  0  0  0  0  0
   13.0688  -19.2918   25.4120 C   0  0  1  0  0  0  0  0  0  0  0  0
   12.5625  -18.6376   24.1484 O   0  0  0  0  0  0  0  0  0  0  0  0
   13.1636  -19.2443   23.0405 C   0  0  1  0  0  0  0  0  0  0  0  0
   11.0443  -18.7017   24.0376 N   0  0  0  0  0  0  0  0  0  0  0  0
   10.7225  -18.0313   22.7693 C   0  0  0  0  0  0  0  0  0  0  0  0
   10.3888  -18.0830   25.1865 O   0  0  0  0  0  0  0  0  0  0  0  0
   10.0670  -16.7316   25.0815 O   0  0  0  0  0  0  0  0  0  0  0  0
  2  1  1  6
  2  7  1  0
  2  3  1  0
  4  3  1  0
  4  5  1  0
  5  6  2  0
  7  8  2  0
  9  5  1  0
 11 12  2  0
 11 10  1  0
 13 11  1  0
 14 15  1  0
 14 13  1  0
 16 15  1  0
 17 16  1  1
 18 17  1  0
 18  7  1  0
 19 20  2  0
 19 17  1  0
 22 21  1  1
 22 23  1  0
 24 22  1  0
 24 25  1  1
 25 19  1  0
 26 27  1  0
 26 24  1  0
 28 26  2  0
M  END
$$$$
