ERT.pdb
     RDKit          3D

 28 27  0  0  1  0  0  0  0  0999 V2000
   13.3665  -17.9774   21.3791 N   0  0  0  0  0  0  0  0  0  0  0  0
   14.1668  -17.1417   22.2418 C   0  0  1  0  0  0  0  0  0  0  0  0
   15.0801  -16.3048   21.4149 C   0  0  0  0  0  0  0  0  0  0  0  0
   14.3445  -15.7483   20.2301 C   0  0  0  0  0  0  0  0  0  0  0  0
   15.1254  -14.8724   19.3541 C   0  0  0  0  0  0  0  0  0  0  0  0
   15.9834  -15.3378   18.5650 O   0  0  0  0  0  0  0  0  0  0  0  0
   13.2459  -16.3260   23.0815 C   0  0  0  0  0  0  0  0  0  0  0  0
   13.6683  -15.4123   23.8312 O   0  0  0  0  0  0  0  0  0  0  0  0
   14.9386  -13.4990   19.3714 O   0  0  0  0  0  0  0  0  0  0  0  0
    6.3567  -13.0862   19.6111 N   0  0  0  0  0  0  0  0  0  0  0  0
    7.6373  -13.4098   19.0489 C   0  0  0  0  0  0  0  0  0  0  0  0
    7.8030  -13.3742   17.7900 N   0  0  0  0  0  0  0  0  0  0  0  0
    8.7308  -13.7736   19.9138 N   0  0  0  0  0  0  0  0  0  0  0  0
    8.4943  -14.4569   21.1688 C   0  0  0  0  0  0  0  0  0  0  0  0
    9.8295  -14.7622   21.8133 C   0  0  0  0  0  0  0  0  0  0  0  0
    9.6544  -15.5048   23.1054 C   0  0  0  0  0  0  0  0  0  0  0  0
   10.8984  -15.8459   23.8170 C   0  0  2  0  0  0  0  0  0  0  0  0
   11.8580  -16.5894   23.0314 N   0  0  0  0  0  0  0  0  0  0  0  0
   10.7336  -16.3700   25.2066 C   0  0  0  0  0  0  0  0  0  0  0  0
   10.8524  -17.5774   25.5189 O   0  0  0  0  0  0  0  0  0  0  0  0
    8.7290  -13.6027   17.3753 C   0  0  0  0  0  0  0  0  0  0  0  0
   10.8333  -13.6530   28.4040 C   0  0  2  0  0  0  0  0  0  0  0  0
    9.8675  -14.8103   28.4982 O   0  0  0  0  0  0  0  0  0  0  0  0
    8.5963  -14.3859   28.0969 C   0  0  2  0  0  0  0  0  0  0  0  0
   10.3211  -16.0052   27.6688 N   0  0  0  0  0  0  0  0  0  0  0  0
   10.4227  -15.5012   26.2915 C   0  0  0  0  0  0  0  0  0  0  0  0
    9.4015  -17.1329   27.7919 O   0  0  0  0  0  0  0  0  0  0  0  0
    9.4145  -17.8335   28.9959 O   0  0  0  0  0  0  0  0  0  0  0  0
  2  1  1  6
  2  7  1  0
  2  3  1  0
  4  3  1  0
  4  5  1  0
  5  6  2  0
  7  8  2  0
  9  5  1  0
 11 12  2  0
 11 10  1  0
 13 11  1  0
 14 15  1  0
 14 13  1  0
 16 15  1  0
 17 16  1  6
 18 17  1  0
 18  7  1  0
 19 20  2  0
 19 17  1  0
 22 21  1  1
 22 23  1  0
 24 22  1  0
 24 25  1  1
 25 19  1  0
 26 27  1  0
 26 24  1  0
 28 26  2  0
M  END
$$$$
