ERT.pdb
     RDKit          3D

 28 27  0  0  1  0  0  0  0  0999 V2000
    9.9376  -19.1448   19.0110 N   0  0  0  0  0  0  0  0  0  0  0  0
   11.2258  -18.7432   19.5234 C   0  0  1  0  0  0  0  0  0  0  0  0
   11.9540  -17.9657   18.4826 C   0  0  0  0  0  0  0  0  0  0  0  0
   11.5676  -18.4430   17.1124 C   0  0  0  0  0  0  0  0  0  0  0  0
   12.2767  -17.8105   15.9980 C   0  0  0  0  0  0  0  0  0  0  0  0
   13.4934  -18.0364   15.7883 O   0  0  0  0  0  0  0  0  0  0  0  0
   11.0049  -17.9615   20.7719 C   0  0  0  0  0  0  0  0  0  0  0  0
   11.9592  -17.5861   21.4955 O   0  0  0  0  0  0  0  0  0  0  0  0
   11.6218  -16.9411   15.1397 O   0  0  0  0  0  0  0  0  0  0  0  0
    7.6061  -12.3047   17.4205 N   0  0  0  0  0  0  0  0  0  0  0  0
    7.8353  -13.5964   18.0033 C   0  0  0  0  0  0  0  0  0  0  0  0
    7.8181  -14.6336   17.2702 N   0  0  0  0  0  0  0  0  0  0  0  0
    8.0846  -13.7127   19.4177 N   0  0  0  0  0  0  0  0  0  0  0  0
    8.0773  -15.0043   20.0731 C   0  0  0  0  0  0  0  0  0  0  0  0
    8.3175  -14.7979   21.5533 C   0  0  0  0  0  0  0  0  0  0  0  0
    8.1728  -16.0834   22.3138 C   0  0  0  0  0  0  0  0  0  0  0  0
    9.3796  -16.9261   22.3746 C   0  0  2  0  0  0  0  0  0  0  0  0
    9.6830  -17.6341   21.1510 N   0  0  0  0  0  0  0  0  0  0  0  0
    9.5282  -17.7670   23.6009 C   0  0  0  0  0  0  0  0  0  0  0  0
    8.8207  -18.7697   23.8530 O   0  0  0  0  0  0  0  0  0  0  0  0
    7.9849  -15.5728   17.6847 C   0  0  0  0  0  0  0  0  0  0  0  0
   11.8351  -20.6016   26.1272 C   0  0  1  0  0  0  0  0  0  0  0  0
   11.1974  -19.6858   25.1095 O   0  0  0  0  0  0  0  0  0  0  0  0
   10.1173  -20.3418   24.5095 C   0  0  1  0  0  0  0  0  0  0  0  0
   10.7490  -18.3667   25.7260 N   0  0  0  0  0  0  0  0  0  0  0  0
   10.5135  -17.4694   24.5854 C   0  0  0  0  0  0  0  0  0  0  0  0
   11.7370  -17.8413   26.6642 O   0  0  0  0  0  0  0  0  0  0  0  0
   11.7728  -18.4130   27.9340 O   0  0  0  0  0  0  0  0  0  0  0  0
  2  1  1  6
  2  7  1  0
  2  3  1  0
  4  3  1  0
  4  5  1  0
  5  6  2  0
  7  8  2  0
  9  5  1  0
 11 12  2  0
 11 10  1  0
 13 11  1  0
 14 15  1  0
 14 13  1  0
 16 15  1  0
 17 16  1  6
 18 17  1  0
 18  7  1  0
 19 20  2  0
 19 17  1  0
 22 21  1  6
 22 23  1  0
 24 22  1  0
 24 25  1  6
 25 19  1  0
 26 27  1  0
 26 24  1  0
 28 26  2  0
M  END
$$$$
