ERT.pdb
     RDKit          3D

 28 27  0  0  1  0  0  0  0  0999 V2000
   15.9111  -13.0296   16.6539 N   0  0  0  0  0  0  0  0  0  0  0  0
   15.8176  -14.3934   17.1171 C   0  0  1  0  0  0  0  0  0  0  0  0
   17.1860  -14.9626   17.2652 C   0  0  0  0  0  0  0  0  0  0  0  0
   17.1082  -16.3875   17.7320 C   0  0  0  0  0  0  0  0  0  0  0  0
   18.3929  -17.0364   18.0024 C   0  0  0  0  0  0  0  0  0  0  0  0
   19.0035  -17.6701   17.1073 O   0  0  0  0  0  0  0  0  0  0  0  0
   15.0546  -14.3972   18.3963 C   0  0  0  0  0  0  0  0  0  0  0  0
   15.3594  -13.6418   19.3512 O   0  0  0  0  0  0  0  0  0  0  0  0
   18.9735  -16.9691   19.2593 O   0  0  0  0  0  0  0  0  0  0  0  0
    6.5783  -13.5095   19.7638 N   0  0  0  0  0  0  0  0  0  0  0  0
    7.7378  -13.0821   19.0334 C   0  0  0  0  0  0  0  0  0  0  0  0
    7.6075  -12.3027   18.0389 N   0  0  0  0  0  0  0  0  0  0  0  0
    9.0457  -13.5379   19.4306 N   0  0  0  0  0  0  0  0  0  0  0  0
    9.2410  -14.8687   19.9679 C   0  0  0  0  0  0  0  0  0  0  0  0
   10.6707  -14.9915   20.4499 C   0  0  0  0  0  0  0  0  0  0  0  0
   11.6305  -15.0612   19.2985 C   0  0  0  0  0  0  0  0  0  0  0  0
   13.0502  -15.2118   19.6618 C   0  0  2  0  0  0  0  0  0  0  0  0
   13.9568  -15.2766   18.5372 N   0  0  0  0  0  0  0  0  0  0  0  0
   13.3493  -16.2175   20.7257 C   0  0  0  0  0  0  0  0  0  0  0  0
   13.1264  -17.4451   20.6122 O   0  0  0  0  0  0  0  0  0  0  0  0
    8.4409  -12.0030   17.4936 C   0  0  0  0  0  0  0  0  0  0  0  0
   16.5868  -16.8283   22.2305 C   0  0  2  0  0  0  0  0  0  0  0  0
   15.6597  -16.5984   23.4003 O   0  0  0  0  0  0  0  0  0  0  0  0
   15.8556  -15.3061   23.8990 C   0  0  2  0  0  0  0  0  0  0  0  0
   14.1986  -16.8133   23.0255 N   0  0  0  0  0  0  0  0  0  0  0  0
   13.9235  -15.8281   21.9695 C   0  0  0  0  0  0  0  0  0  0  0  0
   13.3145  -16.6680   24.1787 O   0  0  0  0  0  0  0  0  0  0  0  0
   13.4358  -17.6139   25.1942 O   0  0  0  0  0  0  0  0  0  0  0  0
  2  1  1  1
  2  7  1  0
  2  3  1  0
  4  3  1  0
  4  5  1  0
  5  6  2  0
  7  8  2  0
  9  5  1  0
 11 12  2  0
 11 10  1  0
 13 11  1  0
 14 15  1  0
 14 13  1  0
 16 15  1  0
 17 16  1  6
 18 17  1  0
 18  7  1  0
 19 20  2  0
 19 17  1  0
 22 21  1  1
 22 23  1  0
 24 22  1  0
 24 25  1  1
 25 19  1  0
 26 27  1  0
 26 24  1  0
 28 26  2  0
M  END
$$$$
