LIT.pdb
     RDKit          3D

 24 23  0  0  1  0  0  0  0  0999 V2000
   16.1586  -11.6812  -20.2128 C   0  0  0  0  0  0  0  0  0  0  0  0
   17.0755  -12.7051  -19.5440 C   0  0  2  0  0  0  0  0  0  0  0  0
   16.2782  -13.9452  -19.1653 C   0  0  0  0  0  0  0  0  0  0  0  0
   17.6361  -12.1403  -18.2599 C   0  0  0  0  0  0  0  0  0  0  0  0
   18.3529  -10.8581  -18.5955 C   0  0  2  0  0  0  0  0  0  0  0  0
   19.3906  -11.0891  -19.5800 N   0  0  0  0  0  0  0  0  0  0  0  0
   18.9690  -10.2733  -17.3473 C   0  0  0  0  0  0  0  0  0  0  0  0
   18.3030  -10.0773  -16.3209 O   0  0  0  0  0  0  0  0  0  0  0  0
   24.2411  -10.6779  -14.3473 C   0  0  0  0  0  0  0  0  0  0  0  0
   23.0779   -9.7356  -14.7258 C   0  0  0  0  0  0  0  0  0  0  0  0
   22.2873  -10.3112  -15.8622 C   0  0  2  0  0  0  0  0  0  0  0  0
   23.2471  -10.2530  -17.0661 C   0  0  0  0  0  0  0  0  0  0  0  0
   21.0781   -9.5018  -16.2515 C   0  0  2  0  0  0  0  0  0  0  0  0
   20.3279   -9.9483  -17.3618 N   0  0  0  0  0  0  0  0  0  0  0  0
   21.3552   -8.0817  -16.3732 C   0  0  0  0  0  0  0  0  0  0  0  0
   21.9242   -7.6034  -17.3683 O   0  0  0  0  0  0  0  0  0  0  0  0
   20.3165   -3.4852  -15.4451 C   0  0  0  0  0  0  0  0  0  0  0  0
   19.9851   -4.9574  -15.5296 C   0  0  1  0  0  0  0  0  0  0  0  0
   19.2881   -5.2344  -16.6792 O   0  0  0  0  0  0  0  0  0  0  0  0
   21.2550   -5.7739  -15.4040 C   0  0  2  0  0  0  0  0  0  0  0  0
   20.9730   -7.1915  -15.3344 N   0  0  0  0  0  0  0  0  0  0  0  0
   22.0274   -5.3864  -14.2170 C   0  0  0  0  0  0  0  0  0  0  0  0
   21.9218   -5.9941  -13.1461 O   0  0  0  0  0  0  0  0  0  0  0  0
   22.9046   -4.3081  -14.2873 O   0  0  0  0  0  0  0  0  0  0  0  0
  2  1  1  1
  2  4  1  0
  3  2  1  0
  5  4  1  0
  5  6  1  6
  7  5  1  0
  8  7  2  0
  9 10  1  0
 11 10  1  0
 11 13  1  0
 11 12  1  6
 13 14  1  6
 14  7  1  0
 15 16  2  0
 15 13  1  0
 18 17  1  6
 18 20  1  0
 19 18  1  0
 20 21  1  1
 21 15  1  0
 22 20  1  0
 23 22  2  0
 24 22  1  0
M  END
$$$$
