LIT.pdb
     RDKit          3D

 24 23  0  0  1  0  0  0  0  0999 V2000
   28.9242  -17.3937  -15.1476 C   0  0  0  0  0  0  0  0  0  0  0  0
   28.1635  -18.2458  -16.1634 C   0  0  2  0  0  0  0  0  0  0  0  0
   27.4176  -17.3464  -17.1390 C   0  0  0  0  0  0  0  0  0  0  0  0
   27.1210  -19.0842  -15.4616 C   0  0  0  0  0  0  0  0  0  0  0  0
   27.8375  -20.0091  -14.5120 C   0  0  2  0  0  0  0  0  0  0  0  0
   28.6467  -20.9678  -15.2370 N   0  0  0  0  0  0  0  0  0  0  0  0
   26.8333  -20.7462  -13.6588 C   0  0  0  0  0  0  0  0  0  0  0  0
   26.4119  -21.8693  -13.9700 O   0  0  0  0  0  0  0  0  0  0  0  0
   26.9058  -20.2777   -8.1076 C   0  0  0  0  0  0  0  0  0  0  0  0
   26.7134  -20.8965   -9.5091 C   0  0  0  0  0  0  0  0  0  0  0  0
   25.4889  -20.3334  -10.1658 C   0  0  2  0  0  0  0  0  0  0  0  0
   24.3164  -21.0596   -9.4788 C   0  0  0  0  0  0  0  0  0  0  0  0
   25.3715  -20.6455  -11.6347 C   0  0  2  0  0  0  0  0  0  0  0  0
   26.3739  -20.1355  -12.4890 N   0  0  0  0  0  0  0  0  0  0  0  0
   24.0564  -20.3561  -12.1776 C   0  0  0  0  0  0  0  0  0  0  0  0
   23.5799  -19.2090  -12.1764 O   0  0  0  0  0  0  0  0  0  0  0  0
   21.9722  -23.4243  -14.3412 C   0  0  0  0  0  0  0  0  0  0  0  0
   21.8704  -21.9519  -14.6670 C   0  0  1  0  0  0  0  0  0  0  0  0
   20.7063  -21.6820  -15.3424 O   0  0  0  0  0  0  0  0  0  0  0  0
   22.0127  -21.1378  -13.3974 C   0  0  2  0  0  0  0  0  0  0  0  0
   23.2711  -21.4012  -12.7332 N   0  0  0  0  0  0  0  0  0  0  0  0
   20.9166  -21.4100  -12.4592 C   0  0  0  0  0  0  0  0  0  0  0  0
   21.1170  -21.9442  -11.3630 O   0  0  0  0  0  0  0  0  0  0  0  0
   19.6134  -21.0617  -12.8022 O   0  0  0  0  0  0  0  0  0  0  0  0
  2  1  1  1
  2  4  1  0
  3  2  1  0
  5  4  1  0
  5  6  1  6
  7  5  1  0
  8  7  2  0
  9 10  1  0
 11 10  1  0
 11 13  1  0
 11 12  1  1
 13 14  1  6
 14  7  1  0
 15 16  2  0
 15 13  1  0
 18 17  1  1
 18 20  1  0
 19 18  1  0
 20 21  1  1
 21 15  1  0
 22 20  1  0
 23 22  2  0
 24 22  1  0
M  END
$$$$
