LIT.pdb
     RDKit          3D

 24 23  0  0  1  0  0  0  0  0999 V2000
   27.9837  -16.3896  -15.3599 C   0  0  0  0  0  0  0  0  0  0  0  0
   27.5023  -17.1665  -16.5851 C   0  0  2  0  0  0  0  0  0  0  0  0
   26.7196  -16.2441  -17.5089 C   0  0  0  0  0  0  0  0  0  0  0  0
   26.5550  -18.2656  -16.1643 C   0  0  0  0  0  0  0  0  0  0  0  0
   27.3054  -19.1919  -15.2426 C   0  0  2  0  0  0  0  0  0  0  0  0
   28.3785  -19.8638  -15.9473 N   0  0  0  0  0  0  0  0  0  0  0  0
   26.3610  -20.2218  -14.6706 C   0  0  0  0  0  0  0  0  0  0  0  0
   26.0270  -21.2283  -15.3116 O   0  0  0  0  0  0  0  0  0  0  0  0
   25.4705  -20.5003   -8.8981 C   0  0  0  0  0  0  0  0  0  0  0  0
   25.2164  -20.0394  -10.3496 C   0  0  0  0  0  0  0  0  0  0  0  0
   25.2326  -21.2136  -11.2816 C   0  0  2  0  0  0  0  0  0  0  0  0
   26.6904  -21.7114  -11.2469 C   0  0  0  0  0  0  0  0  0  0  0  0
   24.9416  -20.8709  -12.7192 C   0  0  2  0  0  0  0  0  0  0  0  0
   25.8564  -20.0237  -13.3828 N   0  0  0  0  0  0  0  0  0  0  0  0
   23.5830  -20.4052  -12.9326 C   0  0  0  0  0  0  0  0  0  0  0  0
   23.2521  -19.2240  -12.7369 O   0  0  0  0  0  0  0  0  0  0  0  0
   21.5067  -19.9772  -15.8314 C   0  0  0  0  0  0  0  0  0  0  0  0
   20.7732  -21.0064  -15.0025 C   0  0  1  0  0  0  0  0  0  0  0  0
   20.9540  -22.2656  -15.5181 O   0  0  0  0  0  0  0  0  0  0  0  0
   21.2072  -20.8987  -13.5550 C   0  0  2  0  0  0  0  0  0  0  0  0
   22.5833  -21.3102  -13.3789 N   0  0  0  0  0  0  0  0  0  0  0  0
   20.3548  -21.7101  -12.6770 C   0  0  0  0  0  0  0  0  0  0  0  0
   20.8106  -22.6494  -12.0158 O   0  0  0  0  0  0  0  0  0  0  0  0
   18.9964  -21.4233  -12.5784 O   0  0  0  0  0  0  0  0  0  0  0  0
  2  1  1  1
  2  4  1  0
  3  2  1  0
  5  4  1  0
  5  6  1  6
  7  5  1  0
  8  7  2  0
  9 10  1  0
 11 10  1  0
 11 13  1  0
 11 12  1  6
 13 14  1  1
 14  7  1  0
 15 16  2  0
 15 13  1  0
 18 17  1  6
 18 20  1  0
 19 18  1  0
 20 21  1  6
 21 15  1  0
 22 20  1  0
 23 22  2  0
 24 22  1  0
M  END
$$$$
