LIT.pdb
     RDKit          3D

 24 23  0  0  1  0  0  0  0  0999 V2000
   24.3908   -9.4548  -20.3674 C   0  0  0  0  0  0  0  0  0  0  0  0
   22.9606   -9.3829  -20.9021 C   0  0  2  0  0  0  0  0  0  0  0  0
   22.8635   -8.3120  -21.9796 C   0  0  0  0  0  0  0  0  0  0  0  0
   22.0129   -8.9756  -19.7983 C   0  0  0  0  0  0  0  0  0  0  0  0
   22.0772  -10.0305  -18.7242 C   0  0  2  0  0  0  0  0  0  0  0  0
   21.5458  -11.2898  -19.2049 N   0  0  0  0  0  0  0  0  0  0  0  0
   21.2876   -9.5825  -17.5178 C   0  0  0  0  0  0  0  0  0  0  0  0
   20.0937   -9.8806  -17.3717 O   0  0  0  0  0  0  0  0  0  0  0  0
   23.0701  -10.6570  -12.6800 C   0  0  0  0  0  0  0  0  0  0  0  0
   22.2334  -10.3178  -13.9327 C   0  0  0  0  0  0  0  0  0  0  0  0
   22.0538   -8.8345  -14.0556 C   0  0  2  0  0  0  0  0  0  0  0  0
   21.1028   -8.4657  -12.9008 C   0  0  0  0  0  0  0  0  0  0  0  0
   21.3659   -8.3939  -15.3212 C   0  0  2  0  0  0  0  0  0  0  0  0
   21.9310   -8.8112  -16.5464 N   0  0  0  0  0  0  0  0  0  0  0  0
   21.0910   -6.9686  -15.3565 C   0  0  0  0  0  0  0  0  0  0  0  0
   21.9786   -6.1207  -15.1662 O   0  0  0  0  0  0  0  0  0  0  0  0
   20.4241   -4.7814  -18.0333 C   0  0  0  0  0  0  0  0  0  0  0  0
   19.1581   -4.7481  -17.2083 C   0  0  1  0  0  0  0  0  0  0  0  0
   18.2007   -5.5675  -17.7524 O   0  0  0  0  0  0  0  0  0  0  0  0
   19.4780   -5.0970  -15.7692 C   0  0  2  0  0  0  0  0  0  0  0  0
   19.7735   -6.5051  -15.6149 N   0  0  0  0  0  0  0  0  0  0  0  0
   18.3702   -4.7450  -14.8722 C   0  0  0  0  0  0  0  0  0  0  0  0
   18.0344   -3.5707  -14.6838 O   0  0  0  0  0  0  0  0  0  0  0  0
   17.6723   -5.7517  -14.2112 O   0  0  0  0  0  0  0  0  0  0  0  0
  2  1  1  1
  2  4  1  0
  3  2  1  0
  5  4  1  0
  5  6  1  6
  7  5  1  0
  8  7  2  0
  9 10  1  0
 11 10  1  0
 11 13  1  0
 11 12  1  1
 13 14  1  6
 14  7  1  0
 15 16  2  0
 15 13  1  0
 18 17  1  6
 18 20  1  0
 19 18  1  0
 20 21  1  6
 21 15  1  0
 22 20  1  0
 23 22  2  0
 24 22  1  0
M  END
$$$$
