LIT.pdb
     RDKit          3D

 24 23  0  0  1  0  0  0  0  0999 V2000
   17.3710  -10.8951  -19.6605 C   0  0  0  0  0  0  0  0  0  0  0  0
   16.5601  -10.3815  -18.4709 C   0  0  2  0  0  0  0  0  0  0  0  0
   15.6011   -9.2918  -18.9292 C   0  0  0  0  0  0  0  0  0  0  0  0
   17.4777   -9.7512  -17.4497 C   0  0  0  0  0  0  0  0  0  0  0  0
   18.3955  -10.8272  -16.9297 C   0  0  2  0  0  0  0  0  0  0  0  0
   17.6388  -11.8961  -16.3097 N   0  0  0  0  0  0  0  0  0  0  0  0
   19.3523  -10.2408  -15.9196 C   0  0  0  0  0  0  0  0  0  0  0  0
   19.0379  -10.0971  -14.7296 O   0  0  0  0  0  0  0  0  0  0  0  0
   24.3284  -12.0585  -15.1847 C   0  0  0  0  0  0  0  0  0  0  0  0
   22.9227  -11.4251  -15.1021 C   0  0  0  0  0  0  0  0  0  0  0  0
   22.9721   -9.9862  -15.5202 C   0  0  2  0  0  0  0  0  0  0  0  0
   23.7988   -9.2944  -14.4192 C   0  0  0  0  0  0  0  0  0  0  0  0
   21.6333   -9.2960  -15.5341 C   0  0  2  0  0  0  0  0  0  0  0  0
   20.6240   -9.8533  -16.3499 N   0  0  0  0  0  0  0  0  0  0  0  0
   21.7295   -7.8655  -15.7638 C   0  0  0  0  0  0  0  0  0  0  0  0
   22.1938   -7.3961  -16.8159 O   0  0  0  0  0  0  0  0  0  0  0  0
   19.3075   -5.4225  -16.3790 C   0  0  0  0  0  0  0  0  0  0  0  0
   19.9521   -4.9259  -15.1052 C   0  0  1  0  0  0  0  0  0  0  0  0
   19.1530   -5.1885  -14.0206 O   0  0  0  0  0  0  0  0  0  0  0  0
   21.3381   -5.5223  -14.9692 C   0  0  2  0  0  0  0  0  0  0  0  0
   21.2850   -6.9545  -14.7689 N   0  0  0  0  0  0  0  0  0  0  0  0
   22.0767   -4.9158  -13.8546 C   0  0  0  0  0  0  0  0  0  0  0  0
   22.4412   -5.5803  -12.8785 O   0  0  0  0  0  0  0  0  0  0  0  0
   22.3801   -3.5578  -13.8868 O   0  0  0  0  0  0  0  0  0  0  0  0
  2  1  1  6
  2  4  1  0
  3  2  1  0
  5  4  1  0
  5  6  1  1
  7  5  1  0
  8  7  2  0
  9 10  1  0
 11 10  1  0
 11 13  1  0
 11 12  1  1
 13 14  1  6
 14  7  1  0
 15 16  2  0
 15 13  1  0
 18 17  1  6
 18 20  1  0
 19 18  1  0
 20 21  1  1
 21 15  1  0
 22 20  1  0
 23 22  2  0
 24 22  1  0
M  END
$$$$
