LIT.pdb
     RDKit          3D

 24 23  0  0  1  0  0  0  0  0999 V2000
   28.8959  -18.2323  -15.9919 C   0  0  0  0  0  0  0  0  0  0  0  0
   28.2025  -19.2077  -16.9427 C   0  0  2  0  0  0  0  0  0  0  0  0
   27.6139  -18.4495  -18.1242 C   0  0  0  0  0  0  0  0  0  0  0  0
   27.0477  -19.8842  -16.2420 C   0  0  0  0  0  0  0  0  0  0  0  0
   27.5997  -20.6128  -15.0440 C   0  0  2  0  0  0  0  0  0  0  0  0
   28.4707  -21.6955  -15.4544 N   0  0  0  0  0  0  0  0  0  0  0  0
   26.4666  -21.1693  -14.2156 C   0  0  0  0  0  0  0  0  0  0  0  0
   25.9661  -22.2773  -14.4549 O   0  0  0  0  0  0  0  0  0  0  0  0
   26.2867  -20.7238   -8.7346 C   0  0  0  0  0  0  0  0  0  0  0  0
   26.0823  -21.2430  -10.1744 C   0  0  0  0  0  0  0  0  0  0  0  0
   24.9975  -20.4684  -10.8605 C   0  0  2  0  0  0  0  0  0  0  0  0
   23.6940  -20.9833  -10.2204 C   0  0  0  0  0  0  0  0  0  0  0  0
   24.8755  -20.7427  -12.3366 C   0  0  2  0  0  0  0  0  0  0  0  0
   25.9775  -20.4050  -13.1530 N   0  0  0  0  0  0  0  0  0  0  0  0
   23.6477  -20.2267  -12.9148 C   0  0  0  0  0  0  0  0  0  0  0  0
   23.3899  -19.0119  -12.9402 O   0  0  0  0  0  0  0  0  0  0  0  0
   22.4077  -20.1624  -16.2789 C   0  0  0  0  0  0  0  0  0  0  0  0
   21.3671  -20.9611  -15.5281 C   0  0  1  0  0  0  0  0  0  0  0  0
   21.4960  -22.3013  -15.7948 O   0  0  0  0  0  0  0  0  0  0  0  0
   21.4538  -20.6478  -14.0484 C   0  0  2  0  0  0  0  0  0  0  0  0
   22.6959  -21.1198  -13.4752 N   0  0  0  0  0  0  0  0  0  0  0  0
   20.3347  -21.2426  -13.3070 C   0  0  0  0  0  0  0  0  0  0  0  0
   20.5142  -22.1075  -12.4429 O   0  0  0  0  0  0  0  0  0  0  0  0
   19.0330  -20.8295  -13.5758 O   0  0  0  0  0  0  0  0  0  0  0  0
  2  1  1  1
  2  4  1  0
  3  2  1  0
  5  4  1  0
  5  6  1  6
  7  5  1  0
  8  7  2  0
  9 10  1  0
 11 10  1  0
 11 13  1  0
 11 12  1  1
 13 14  1  6
 14  7  1  0
 15 16  2  0
 15 13  1  0
 18 17  1  6
 18 20  1  0
 19 18  1  0
 20 21  1  1
 21 15  1  0
 22 20  1  0
 23 22  2  0
 24 22  1  0
M  END
$$$$
