THC.pdb
     RDKit          3D

 24 24  0  0  1  0  0  0  0  0999 V2000
    8.7818  -12.4942   20.0730 C   0  0  0  0  0  0  0  0  0  0  0  0
    8.0932  -13.3622   19.0665 C   0  0  1  0  0  0  0  0  0  0  0  0
    8.3239  -12.9114   17.7857 O   0  0  0  0  0  0  0  0  0  0  0  0
    8.6206  -14.7794   19.2176 C   0  0  2  0  0  0  0  0  0  0  0  0
    8.0693  -15.6352   18.1999 N   0  0  0  0  0  0  0  0  0  0  0  0
    8.2611  -15.2757   20.5664 C   0  0  0  0  0  0  0  0  0  0  0  0
    7.0725  -15.6308   20.8080 O   0  0  0  0  0  0  0  0  0  0  0  0
    9.2690  -15.3393   21.5578 N   0  0  0  0  0  0  0  0  0  0  0  0
    9.0107  -15.8690   22.8764 C   0  0  1  0  0  0  0  0  0  0  0  0
   10.1355  -16.8233   23.1918 C   0  0  0  0  0  0  0  0  0  0  0  0
    9.8497  -18.1992   22.7159 C   0  0  0  0  0  0  0  0  0  0  0  0
    8.7348  -18.6379   22.0378 C   0  0  0  0  0  0  0  0  0  0  0  0
    8.8542  -19.9508   21.7881 N   0  0  0  0  0  0  0  0  0  0  0  0
   10.0273  -20.3715   22.2925 C   0  0  0  0  0  0  0  0  0  0  0  0
   10.6250  -19.3058   22.8528 N   0  0  0  0  0  0  0  0  0  0  0  0
    8.9038  -14.7657   23.8316 C   0  0  0  0  0  0  0  0  0  0  0  0
    9.8848  -13.9900   24.0288 O   0  0  0  0  0  0  0  0  0  0  0  0
    7.7183  -14.5423   24.5478 N   0  0  0  0  0  0  0  0  0  0  0  0
    7.6201  -13.5742   25.6253 C   0  0  1  0  0  0  0  0  0  0  0  0
    6.1237  -13.3361   25.8405 C   0  0  0  0  0  0  0  0  0  0  0  0
    5.9064  -12.2070   27.2394 S   0  0  0  0  0  0  0  0  0  0  0  0
    8.1772  -14.0728   26.8796 C   0  0  0  0  0  0  0  0  0  0  0  0
    8.3218  -15.2987   27.0954 O   0  0  0  0  0  0  0  0  0  0  0  0
    8.5597  -13.1814   27.8647 O   0  0  0  0  0  0  0  0  0  0  0  0
  2  1  1  1
  3  2  1  0
  4  5  1  6
  4  6  1  0
  4  2  1  0
  6  7  2  0
  8  9  1  0
  8  6  1  0
  9 10  1  1
 10 11  1  0
 11 15  1  0
 11 12  2  0
 12 13  1  0
 14 13  1  0
 15 14  2  0
 16 17  2  0
 16  9  1  0
 18 16  1  0
 19 22  1  0
 19 18  1  0
 19 20  1  1
 21 20  1  0
 22 24  1  0
 23 22  2  0
M  END
$$$$
