THC.pdb
     RDKit          3D

 24 24  0  0  1  0  0  0  0  0999 V2000
    8.8767  -12.7343   21.0970 C   0  0  0  0  0  0  0  0  0  0  0  0
    7.7347  -13.3177   20.3250 C   0  0  1  0  0  0  0  0  0  0  0  0
    7.5531  -12.6519   19.1331 O   0  0  0  0  0  0  0  0  0  0  0  0
    8.0382  -14.7825   20.0568 C   0  0  2  0  0  0  0  0  0  0  0  0
    6.9801  -15.3857   19.2895 N   0  0  0  0  0  0  0  0  0  0  0  0
    8.2006  -15.4765   21.3555 C   0  0  0  0  0  0  0  0  0  0  0  0
    7.1793  -15.8495   21.9996 O   0  0  0  0  0  0  0  0  0  0  0  0
    9.5088  -15.7052   21.8446 N   0  0  0  0  0  0  0  0  0  0  0  0
    9.7484  -16.3952   23.0906 C   0  0  1  0  0  0  0  0  0  0  0  0
   10.9691  -17.2572   22.8848 C   0  0  0  0  0  0  0  0  0  0  0  0
   10.6331  -18.5595   22.2583 C   0  0  0  0  0  0  0  0  0  0  0  0
    9.3916  -19.0062   21.8655 C   0  0  0  0  0  0  0  0  0  0  0  0
    9.5064  -20.2373   21.3443 N   0  0  0  0  0  0  0  0  0  0  0  0
   10.8009  -20.5970   21.3922 C   0  0  0  0  0  0  0  0  0  0  0  0
   11.4775  -19.5765   21.9468 N   0  0  0  0  0  0  0  0  0  0  0  0
    9.9070  -15.4159   24.1663 C   0  0  0  0  0  0  0  0  0  0  0  0
   10.1274  -14.1983   23.8986 O   0  0  0  0  0  0  0  0  0  0  0  0
    9.8192  -15.8008   25.5125 N   0  0  0  0  0  0  0  0  0  0  0  0
    9.8776  -14.8503   26.6085 C   0  0  1  0  0  0  0  0  0  0  0  0
    8.5327  -14.1199   26.6025 C   0  0  0  0  0  0  0  0  0  0  0  0
    8.4880  -12.9657   27.9971 S   0  0  0  0  0  0  0  0  0  0  0  0
   10.0262  -15.5006   27.9074 C   0  0  0  0  0  0  0  0  0  0  0  0
    9.6484  -16.6796   28.1013 O   0  0  0  0  0  0  0  0  0  0  0  0
   10.5967  -14.8104   28.9608 O   0  0  0  0  0  0  0  0  0  0  0  0
  2  1  1  6
  3  2  1  0
  4  5  1  1
  4  6  1  0
  4  2  1  0
  6  7  2  0
  8  9  1  0
  8  6  1  0
  9 10  1  6
 10 11  1  0
 11 15  1  0
 11 12  2  0
 12 13  1  0
 14 13  1  0
 15 14  2  0
 16 17  2  0
 16  9  1  0
 18 16  1  0
 19 22  1  0
 19 18  1  0
 19 20  1  1
 21 20  1  0
 22 24  1  0
 23 22  2  0
M  END
$$$$
