THC.pdb
     RDKit          3D

 24 24  0  0  1  0  0  0  0  0999 V2000
    8.2980  -12.2037   18.4833 C   0  0  0  0  0  0  0  0  0  0  0  0
    8.3838  -13.3289   19.4668 C   0  0  1  0  0  0  0  0  0  0  0  0
    7.2779  -13.3528   20.2874 O   0  0  0  0  0  0  0  0  0  0  0  0
    8.4807  -14.6333   18.6931 C   0  0  2  0  0  0  0  0  0  0  0  0
    7.3327  -14.8022   17.8412 N   0  0  0  0  0  0  0  0  0  0  0  0
    8.5797  -15.7503   19.6612 C   0  0  0  0  0  0  0  0  0  0  0  0
    7.5760  -16.4887   19.8720 O   0  0  0  0  0  0  0  0  0  0  0  0
    9.8084  -15.9621   20.3306 N   0  0  0  0  0  0  0  0  0  0  0  0
    9.9661  -16.9938   21.3290 C   0  0  1  0  0  0  0  0  0  0  0  0
   11.1339  -17.8452   20.8967 C   0  0  0  0  0  0  0  0  0  0  0  0
   11.3852  -18.9658   21.8360 C   0  0  0  0  0  0  0  0  0  0  0  0
   10.7463  -19.2204   23.0287 C   0  0  0  0  0  0  0  0  0  0  0  0
   11.2637  -20.3274   23.5828 N   0  0  0  0  0  0  0  0  0  0  0  0
   12.2272  -20.7954   22.7705 C   0  0  0  0  0  0  0  0  0  0  0  0
   12.2956  -19.9663   21.7147 N   0  0  0  0  0  0  0  0  0  0  0  0
   10.1561  -16.3757   22.6416 C   0  0  0  0  0  0  0  0  0  0  0  0
   11.1033  -15.5581   22.8351 O   0  0  0  0  0  0  0  0  0  0  0  0
    9.2981  -16.6726   23.7111 N   0  0  0  0  0  0  0  0  0  0  0  0
    9.4762  -16.1173   25.0407 C   0  0  1  0  0  0  0  0  0  0  0  0
    8.1311  -15.4924   25.4181 C   0  0  0  0  0  0  0  0  0  0  0  0
    7.8557  -14.0299   24.3864 S   0  0  0  0  0  0  0  0  0  0  0  0
    9.7891  -17.1376   26.0373 C   0  0  0  0  0  0  0  0  0  0  0  0
    9.7569  -18.3597   25.7619 O   0  0  0  0  0  0  0  0  0  0  0  0
   10.1317  -16.7613   27.3228 O   0  0  0  0  0  0  0  0  0  0  0  0
  2  1  1  6
  3  2  1  0
  4  5  1  1
  4  6  1  0
  4  2  1  0
  6  7  2  0
  8  9  1  0
  8  6  1  0
  9 10  1  6
 10 11  1  0
 11 15  1  0
 11 12  2  0
 12 13  1  0
 14 13  1  0
 15 14  2  0
 16 17  2  0
 16  9  1  0
 18 16  1  0
 19 22  1  0
 19 18  1  0
 19 20  1  1
 21 20  1  0
 22 24  1  0
 23 22  2  0
M  END
$$$$
