THC.pdb
     RDKit          3D

 24 24  0  0  1  0  0  0  0  0999 V2000
    9.8397  -14.0092   18.5657 C   0  0  0  0  0  0  0  0  0  0  0  0
    9.3330  -14.2462   19.9541 C   0  0  1  0  0  0  0  0  0  0  0  0
    9.6425  -13.1883   20.7799 O   0  0  0  0  0  0  0  0  0  0  0  0
    7.8253  -14.4255   19.8882 C   0  0  2  0  0  0  0  0  0  0  0  0
    7.1990  -13.2461   19.3506 N   0  0  0  0  0  0  0  0  0  0  0  0
    7.3230  -14.7056   21.2535 C   0  0  0  0  0  0  0  0  0  0  0  0
    6.8167  -13.7727   21.9394 O   0  0  0  0  0  0  0  0  0  0  0  0
    7.4249  -16.0241   21.7575 N   0  0  0  0  0  0  0  0  0  0  0  0
    7.0893  -16.3469   23.1247 C   0  0  1  0  0  0  0  0  0  0  0  0
    7.0962  -17.8515   23.2325 C   0  0  0  0  0  0  0  0  0  0  0  0
    6.8312  -18.3127   24.6175 C   0  0  0  0  0  0  0  0  0  0  0  0
    6.4661  -17.5468   25.7017 C   0  0  0  0  0  0  0  0  0  0  0  0
    6.3235  -18.3370   26.7766 N   0  0  0  0  0  0  0  0  0  0  0  0
    6.5897  -19.6024   26.4087 C   0  0  0  0  0  0  0  0  0  0  0  0
    6.8964  -19.5805   25.1001 N   0  0  0  0  0  0  0  0  0  0  0  0
    8.0424  -15.6985   24.0259 C   0  0  0  0  0  0  0  0  0  0  0  0
    9.2598  -15.5833   23.6977 O   0  0  0  0  0  0  0  0  0  0  0  0
    7.6324  -15.1919   25.2682 N   0  0  0  0  0  0  0  0  0  0  0  0
    8.5272  -14.4781   26.1614 C   0  0  1  0  0  0  0  0  0  0  0  0
    7.6416  -13.5294   26.9725 C   0  0  0  0  0  0  0  0  0  0  0  0
    6.8037  -12.3962   25.8355 S   0  0  0  0  0  0  0  0  0  0  0  0
    9.2074  -15.3655   27.1006 C   0  0  0  0  0  0  0  0  0  0  0  0
    8.9752  -16.5966   27.1303 O   0  0  0  0  0  0  0  0  0  0  0  0
   10.1345  -14.8489   27.9866 O   0  0  0  0  0  0  0  0  0  0  0  0
  2  1  1  6
  3  2  1  0
  4  5  1  1
  4  6  1  0
  4  2  1  0
  6  7  2  0
  8  9  1  0
  8  6  1  0
  9 10  1  6
 10 11  1  0
 11 15  1  0
 11 12  2  0
 12 13  1  0
 14 13  1  0
 15 14  2  0
 16 17  2  0
 16  9  1  0
 18 16  1  0
 19 22  1  0
 19 18  1  0
 19 20  1  1
 21 20  1  0
 22 24  1  0
 23 22  2  0
M  END
$$$$
