THC.pdb
     RDKit          3D

 24 24  0  0  1  0  0  0  0  0999 V2000
    8.6401  -12.4950   20.1255 C   0  0  0  0  0  0  0  0  0  0  0  0
    8.0505  -13.2945   19.0058 C   0  0  1  0  0  0  0  0  0  0  0  0
    8.3820  -12.7522   17.7839 O   0  0  0  0  0  0  0  0  0  0  0  0
    8.5823  -14.7149   19.1014 C   0  0  2  0  0  0  0  0  0  0  0  0
    8.0575  -15.5242   18.0329 N   0  0  0  0  0  0  0  0  0  0  0  0
    8.1968  -15.2758   20.4172 C   0  0  0  0  0  0  0  0  0  0  0  0
    7.0264  -15.7195   20.5916 O   0  0  0  0  0  0  0  0  0  0  0  0
    9.1599  -15.2998   21.4539 N   0  0  0  0  0  0  0  0  0  0  0  0
    8.8975  -15.9327   22.7254 C   0  0  1  0  0  0  0  0  0  0  0  0
    9.9277  -17.0219   22.8920 C   0  0  0  0  0  0  0  0  0  0  0  0
    9.4842  -18.3053   22.2941 C   0  0  0  0  0  0  0  0  0  0  0  0
    8.2901  -18.5680   21.6613 C   0  0  0  0  0  0  0  0  0  0  0  0
    8.2704  -19.8490   21.2629 N   0  0  0  0  0  0  0  0  0  0  0  0
    9.4310  -20.4221   21.6263 C   0  0  0  0  0  0  0  0  0  0  0  0
   10.1613  -19.4818   22.2502 N   0  0  0  0  0  0  0  0  0  0  0  0
    8.9423  -14.9274   23.7877 C   0  0  0  0  0  0  0  0  0  0  0  0
    9.9311  -14.1430   23.8880 O   0  0  0  0  0  0  0  0  0  0  0  0
    7.8965  -14.8093   24.7154 N   0  0  0  0  0  0  0  0  0  0  0  0
    8.0088  -14.0261   25.9327 C   0  0  1  0  0  0  0  0  0  0  0  0
    6.5740  -13.7222   26.3700 C   0  0  0  0  0  0  0  0  0  0  0  0
    6.0483  -12.1652   25.6095 S   0  0  0  0  0  0  0  0  0  0  0  0
    8.6584  -14.7611   27.0144 C   0  0  0  0  0  0  0  0  0  0  0  0
    8.9036  -15.9867   26.9242 O   0  0  0  0  0  0  0  0  0  0  0  0
    9.0184  -14.1014   28.1748 O   0  0  0  0  0  0  0  0  0  0  0  0
  2  1  1  1
  3  2  1  0
  4  5  1  6
  4  6  1  0
  4  2  1  0
  6  7  2  0
  8  9  1  0
  8  6  1  0
  9 10  1  1
 10 11  1  0
 11 15  1  0
 11 12  2  0
 12 13  1  0
 14 13  1  0
 15 14  2  0
 16 17  2  0
 16  9  1  0
 18 16  1  0
 19 22  1  0
 19 18  1  0
 19 20  1  1
 21 20  1  0
 22 24  1  0
 23 22  2  0
M  END
$$$$
