THC.pdb
     RDKit          3D

 24 24  0  0  1  0  0  0  0  0999 V2000
   10.4391  -14.1489   18.7226 C   0  0  0  0  0  0  0  0  0  0  0  0
    9.9117  -14.2465   20.1201 C   0  0  1  0  0  0  0  0  0  0  0  0
   10.0294  -13.0419   20.7774 O   0  0  0  0  0  0  0  0  0  0  0  0
    8.4498  -14.6563   20.0514 C   0  0  2  0  0  0  0  0  0  0  0  0
    7.6644  -13.6244   19.4267 N   0  0  0  0  0  0  0  0  0  0  0  0
    7.9674  -14.9170   21.4276 C   0  0  0  0  0  0  0  0  0  0  0  0
    7.2494  -14.0580   22.0139 O   0  0  0  0  0  0  0  0  0  0  0  0
    8.3275  -16.1334   22.0547 N   0  0  0  0  0  0  0  0  0  0  0  0
    7.8896  -16.4625   23.3911 C   0  0  1  0  0  0  0  0  0  0  0  0
    7.6085  -17.9445   23.4061 C   0  0  0  0  0  0  0  0  0  0  0  0
    6.3102  -18.2724   22.7671 C   0  0  0  0  0  0  0  0  0  0  0  0
    5.3990  -17.3970   22.2206 C   0  0  0  0  0  0  0  0  0  0  0  0
    4.3505  -18.0860   21.7450 N   0  0  0  0  0  0  0  0  0  0  0  0
    4.5657  -19.3933   21.9734 C   0  0  0  0  0  0  0  0  0  0  0  0
    5.7540  -19.4991   22.5926 N   0  0  0  0  0  0  0  0  0  0  0  0
    8.9161  -16.0592   24.3527 C   0  0  0  0  0  0  0  0  0  0  0  0
   10.1335  -16.3401   24.1477 O   0  0  0  0  0  0  0  0  0  0  0  0
    8.5778  -15.3555   25.5183 N   0  0  0  0  0  0  0  0  0  0  0  0
    9.5500  -15.0114   26.5402 C   0  0  1  0  0  0  0  0  0  0  0  0
    8.8597  -13.9926   27.4500 C   0  0  0  0  0  0  0  0  0  0  0  0
    9.9929  -13.5416   28.7885 S   0  0  0  0  0  0  0  0  0  0  0  0
    9.9298  -16.1574   27.3615 C   0  0  0  0  0  0  0  0  0  0  0  0
    9.1061  -17.0510   27.6674 O   0  0  0  0  0  0  0  0  0  0  0  0
   11.2284  -16.2739   27.8212 O   0  0  0  0  0  0  0  0  0  0  0  0
  2  1  1  6
  3  2  1  0
  4  5  1  1
  4  6  1  0
  4  2  1  0
  6  7  2  0
  8  9  1  0
  8  6  1  0
  9 10  1  6
 10 11  1  0
 11 15  1  0
 11 12  2  0
 12 13  1  0
 14 13  1  0
 15 14  2  0
 16 17  2  0
 16  9  1  0
 18 16  1  0
 19 22  1  0
 19 18  1  0
 19 20  1  1
 21 20  1  0
 22 24  1  0
 23 22  2  0
M  END
$$$$
