THC.pdb
     RDKit          3D

 24 24  0  0  1  0  0  0  0  0999 V2000
   17.8143  -20.0675   19.7518 C   0  0  0  0  0  0  0  0  0  0  0  0
   18.0560  -19.4400   18.4145 C   0  0  1  0  0  0  0  0  0  0  0  0
   19.1185  -20.0376   17.7735 O   0  0  0  0  0  0  0  0  0  0  0  0
   16.7958  -19.5952   17.5793 C   0  0  2  0  0  0  0  0  0  0  0  0
   16.9997  -19.0709   16.2544 N   0  0  0  0  0  0  0  0  0  0  0  0
   15.6890  -18.8812   18.2574 C   0  0  0  0  0  0  0  0  0  0  0  0
   15.6454  -17.6185   18.2272 O   0  0  0  0  0  0  0  0  0  0  0  0
   14.7005  -19.6405   18.9275 N   0  0  0  0  0  0  0  0  0  0  0  0
   13.6125  -19.0157   19.6431 C   0  0  1  0  0  0  0  0  0  0  0  0
   12.3755  -19.8293   19.3543 C   0  0  0  0  0  0  0  0  0  0  0  0
   11.7281  -19.4272   18.0813 C   0  0  0  0  0  0  0  0  0  0  0  0
   11.3944  -18.1550   17.6747 C   0  0  0  0  0  0  0  0  0  0  0  0
   10.8236  -18.2111   16.4618 N   0  0  0  0  0  0  0  0  0  0  0  0
   10.7811  -19.4977   16.0743 C   0  0  0  0  0  0  0  0  0  0  0  0
   11.3305  -20.2288   17.0595 N   0  0  0  0  0  0  0  0  0  0  0  0
   13.9413  -18.9495   21.0674 C   0  0  0  0  0  0  0  0  0  0  0  0
   14.4572  -19.9459   21.6541 O   0  0  0  0  0  0  0  0  0  0  0  0
   13.6940  -17.7871   21.8128 N   0  0  0  0  0  0  0  0  0  0  0  0
   14.0999  -17.6396   23.1990 C   0  0  1  0  0  0  0  0  0  0  0  0
   14.1233  -16.1338   23.4714 C   0  0  0  0  0  0  0  0  0  0  0  0
   15.4744  -15.3889   22.5234 S   0  0  0  0  0  0  0  0  0  0  0  0
   13.1514  -18.2463   24.1286 C   0  0  0  0  0  0  0  0  0  0  0  0
   12.0419  -18.6853   23.7454 O   0  0  0  0  0  0  0  0  0  0  0  0
   13.4711  -18.3462   25.4700 O   0  0  0  0  0  0  0  0  0  0  0  0
  2  1  1  1
  3  2  1  0
  4  5  1  6
  4  6  1  0
  4  2  1  0
  6  7  2  0
  8  9  1  0
  8  6  1  0
  9 10  1  1
 10 11  1  0
 11 15  1  0
 11 12  2  0
 12 13  1  0
 14 13  1  0
 15 14  2  0
 16 17  2  0
 16  9  1  0
 18 16  1  0
 19 22  1  0
 19 18  1  0
 19 20  1  1
 21 20  1  0
 22 24  1  0
 23 22  2  0
M  END
$$$$
