THC.pdb
     RDKit          3D

 24 24  0  0  1  0  0  0  0  0999 V2000
    7.9746  -20.4320   18.6985 C   0  0  0  0  0  0  0  0  0  0  0  0
    8.8353  -20.6703   17.4972 C   0  0  1  0  0  0  0  0  0  0  0  0
    8.4399  -21.8049   16.8239 O   0  0  0  0  0  0  0  0  0  0  0  0
    8.7237  -19.4619   16.5824 C   0  0  2  0  0  0  0  0  0  0  0  0
    9.4830  -19.6686   15.3771 N   0  0  0  0  0  0  0  0  0  0  0  0
    9.2177  -18.2706   17.3114 C   0  0  0  0  0  0  0  0  0  0  0  0
   10.4504  -18.1572   17.5657 O   0  0  0  0  0  0  0  0  0  0  0  0
    8.2859  -17.2818   17.7072 N   0  0  0  0  0  0  0  0  0  0  0  0
    8.6602  -16.1774   18.5595 C   0  0  1  0  0  0  0  0  0  0  0  0
    7.5770  -15.1361   18.4262 C   0  0  0  0  0  0  0  0  0  0  0  0
    7.8620  -13.9277   19.2385 C   0  0  0  0  0  0  0  0  0  0  0  0
    7.3218  -13.5904   20.4590 C   0  0  0  0  0  0  0  0  0  0  0  0
    7.8341  -12.4182   20.8634 N   0  0  0  0  0  0  0  0  0  0  0  0
    8.6973  -11.9889   19.9264 C   0  0  0  0  0  0  0  0  0  0  0  0
    8.7094  -12.9077   18.9452 N   0  0  0  0  0  0  0  0  0  0  0  0
    8.8342  -16.6581   19.9306 C   0  0  0  0  0  0  0  0  0  0  0  0
    8.0343  -17.5096   20.4186 O   0  0  0  0  0  0  0  0  0  0  0  0
    9.8856  -16.1896   20.7326 N   0  0  0  0  0  0  0  0  0  0  0  0
   10.0646  -16.5989   22.1140 C   0  0  1  0  0  0  0  0  0  0  0  0
   11.5762  -16.7099   22.3263 C   0  0  0  0  0  0  0  0  0  0  0  0
   12.2344  -17.9648   21.1989 S   0  0  0  0  0  0  0  0  0  0  0  0
    9.5524  -15.6132   23.0617 C   0  0  0  0  0  0  0  0  0  0  0  0
    9.6289  -15.7880   24.3003 O   0  0  0  0  0  0  0  0  0  0  0  0
    8.9650  -14.4517   22.5959 O   0  0  0  0  0  0  0  0  0  0  0  0
  2  1  1  1
  3  2  1  0
  4  5  1  6
  4  6  1  0
  4  2  1  0
  6  7  2  0
  8  9  1  0
  8  6  1  0
  9 10  1  1
 10 11  1  0
 11 15  1  0
 11 12  2  0
 12 13  1  0
 14 13  1  0
 15 14  2  0
 16 17  2  0
 16  9  1  0
 18 16  1  0
 19 22  1  0
 19 18  1  0
 19 20  1  1
 21 20  1  0
 22 24  1  0
 23 22  2  0
M  END
$$$$
