THC.pdb
     RDKit          3D

 24 24  0  0  1  0  0  0  0  0999 V2000
    8.7381  -12.6258   20.1124 C   0  0  0  0  0  0  0  0  0  0  0  0
    8.1730  -13.5396   19.0702 C   0  0  1  0  0  0  0  0  0  0  0  0
    8.6146  -13.1884   17.8137 O   0  0  0  0  0  0  0  0  0  0  0  0
    8.6093  -14.9593   19.3924 C   0  0  2  0  0  0  0  0  0  0  0  0
    8.0759  -15.8836   18.4263 N   0  0  0  0  0  0  0  0  0  0  0  0
    8.1381  -15.3003   20.7549 C   0  0  0  0  0  0  0  0  0  0  0  0
    6.9022  -15.4507   20.9720 O   0  0  0  0  0  0  0  0  0  0  0  0
    9.0947  -15.4497   21.7870 N   0  0  0  0  0  0  0  0  0  0  0  0
    8.7283  -15.9051   23.1078 C   0  0  1  0  0  0  0  0  0  0  0  0
    9.7420  -16.9485   23.5069 C   0  0  0  0  0  0  0  0  0  0  0  0
    9.4799  -18.2573   22.8591 C   0  0  0  0  0  0  0  0  0  0  0  0
    8.7046  -19.2898   23.3368 C   0  0  0  0  0  0  0  0  0  0  0  0
    8.7223  -20.3029   22.4573 N   0  0  0  0  0  0  0  0  0  0  0  0
    9.4956  -19.9456   21.4172 C   0  0  0  0  0  0  0  0  0  0  0  0
    9.9511  -18.7059   21.6669 N   0  0  0  0  0  0  0  0  0  0  0  0
    8.6840  -14.7629   24.0214 C   0  0  0  0  0  0  0  0  0  0  0  0
    9.6877  -14.0012   24.1458 O   0  0  0  0  0  0  0  0  0  0  0  0
    7.5349  -14.4862   24.7770 N   0  0  0  0  0  0  0  0  0  0  0  0
    7.4937  -13.4550   25.7982 C   0  0  1  0  0  0  0  0  0  0  0  0
    6.0181  -13.0819   25.9586 C   0  0  0  0  0  0  0  0  0  0  0  0
    5.8661  -11.8521   27.2790 S   0  0  0  0  0  0  0  0  0  0  0  0
    7.9774  -13.9277   27.0923 C   0  0  0  0  0  0  0  0  0  0  0  0
    7.8857  -15.1308   27.4308 O   0  0  0  0  0  0  0  0  0  0  0  0
    8.5540  -13.0367   27.9783 O   0  0  0  0  0  0  0  0  0  0  0  0
  2  1  1  1
  3  2  1  0
  4  5  1  6
  4  6  1  0
  4  2  1  0
  6  7  2  0
  8  9  1  0
  8  6  1  0
  9 10  1  1
 10 11  1  0
 11 15  1  0
 11 12  2  0
 12 13  1  0
 14 13  1  0
 15 14  2  0
 16 17  2  0
 16  9  1  0
 18 16  1  0
 19 22  1  0
 19 18  1  0
 19 20  1  1
 21 20  1  0
 22 24  1  0
 23 22  2  0
M  END
$$$$
