THC.pdb
     RDKit          3D

 24 24  0  0  1  0  0  0  0  0999 V2000
   14.1301  -17.2446   19.7899 C   0  0  0  0  0  0  0  0  0  0  0  0
   14.6770  -16.0318   19.1039 C   0  0  1  0  0  0  0  0  0  0  0  0
   15.6402  -16.3781   18.1823 O   0  0  0  0  0  0  0  0  0  0  0  0
   13.5296  -15.3186   18.4079 C   0  0  2  0  0  0  0  0  0  0  0  0
   14.0205  -14.2123   17.6286 N   0  0  0  0  0  0  0  0  0  0  0  0
   12.5733  -14.8474   19.4365 C   0  0  0  0  0  0  0  0  0  0  0  0
   12.8649  -13.8485   20.1536 O   0  0  0  0  0  0  0  0  0  0  0  0
   11.3464  -15.5359   19.5895 N   0  0  0  0  0  0  0  0  0  0  0  0
   10.3976  -15.1856   20.6207 C   0  0  1  0  0  0  0  0  0  0  0  0
    9.0250  -15.4835   20.0707 C   0  0  0  0  0  0  0  0  0  0  0  0
    8.6464  -14.5509   18.9806 C   0  0  0  0  0  0  0  0  0  0  0  0
    8.4941  -13.1849   19.0600 C   0  0  0  0  0  0  0  0  0  0  0  0
    8.1428  -12.7061   17.8568 N   0  0  0  0  0  0  0  0  0  0  0  0
    8.0645  -13.7376   16.9983 C   0  0  0  0  0  0  0  0  0  0  0  0
    8.3706  -14.8517   17.6853 N   0  0  0  0  0  0  0  0  0  0  0  0
   10.7064  -15.9330   21.8402 C   0  0  0  0  0  0  0  0  0  0  0  0
   11.2785  -17.0606   21.7745 O   0  0  0  0  0  0  0  0  0  0  0  0
   10.3776  -15.4210   23.1043 N   0  0  0  0  0  0  0  0  0  0  0  0
   10.6584  -16.1315   24.3388 C   0  0  1  0  0  0  0  0  0  0  0  0
    9.7759  -15.4818   25.4071 C   0  0  0  0  0  0  0  0  0  0  0  0
   10.0346  -16.3399   26.9805 S   0  0  0  0  0  0  0  0  0  0  0  0
   10.3019  -17.5456   24.2655 C   0  0  0  0  0  0  0  0  0  0  0  0
   11.0420  -18.4375   24.7420 O   0  0  0  0  0  0  0  0  0  0  0  0
    9.1200  -17.9263   23.6575 O   0  0  0  0  0  0  0  0  0  0  0  0
  2  1  1  6
  3  2  1  0
  4  5  1  1
  4  6  1  0
  4  2  1  0
  6  7  2  0
  8  9  1  0
  8  6  1  0
  9 10  1  6
 10 11  1  0
 11 15  1  0
 11 12  2  0
 12 13  1  0
 14 13  1  0
 15 14  2  0
 16 17  2  0
 16  9  1  0
 18 16  1  0
 19 22  1  0
 19 18  1  0
 19 20  1  1
 21 20  1  0
 22 24  1  0
 23 22  2  0
M  END
$$$$
