WDK.pdb
     RDKit          3D

 32 33  0  0  1  0  0  0  0  0999 V2000
    6.3244  -17.4545   24.2836 N   0  0  0  0  0  0  0  0  0  0  0  0
    7.4431  -16.6552   23.9051 C   0  0  1  0  0  0  0  0  0  0  0  0
    8.1281  -15.9190   25.0081 C   0  0  0  0  0  0  0  0  0  0  0  0
    7.2338  -14.9323   25.6044 C   0  0  0  0  0  0  0  0  0  0  0  0
    6.0478  -15.2157   26.2408 C   0  0  0  0  0  0  0  0  0  0  0  0
    5.5366  -14.0646   26.6698 N   0  0  0  0  0  0  0  0  0  0  0  0
    6.3451  -13.0428   26.3360 C   0  0  0  0  0  0  0  0  0  0  0  0
    6.2400  -11.6734   26.5548 C   0  0  0  0  0  0  0  0  0  0  0  0
    7.2124  -10.8035   26.1020 C   0  0  0  0  0  0  0  0  0  0  0  0
    8.2774  -11.3469   25.4321 C   0  0  0  0  0  0  0  0  0  0  0  0
    8.4045  -12.7009   25.2026 C   0  0  0  0  0  0  0  0  0  0  0  0
    7.4219  -13.5772   25.6613 C   0  0  0  0  0  0  0  0  0  0  0  0
    8.4780  -17.4166   23.1642 C   0  0  0  0  0  0  0  0  0  0  0  0
    8.6618  -18.6159   23.3959 O   0  0  0  0  0  0  0  0  0  0  0  0
    9.2533  -16.7504   22.1868 N   0  0  0  0  0  0  0  0  0  0  0  0
   10.5622  -17.1628   21.7766 C   0  0  1  0  0  0  0  0  0  0  0  0
   11.1909  -16.3566   20.6951 C   0  0  0  0  0  0  0  0  0  0  0  0
   12.3921  -17.0223   20.1605 C   0  0  0  0  0  0  0  0  0  0  0  0
   12.7907  -18.1007   20.6522 O   0  0  0  0  0  0  0  0  0  0  0  0
   11.4476  -17.2649   22.9862 C   0  0  0  0  0  0  0  0  0  0  0  0
   11.8700  -16.2051   23.5404 O   0  0  0  0  0  0  0  0  0  0  0  0
   13.1160  -16.4851   19.1064 O   0  0  0  0  0  0  0  0  0  0  0  0
   11.8442  -18.4945   23.5519 N   0  0  0  0  0  0  0  0  0  0  0  0
   12.5468  -18.5771   24.8096 C   0  0  1  0  0  0  0  0  0  0  0  0
   11.8689  -19.5184   25.7736 C   0  0  0  0  0  0  0  0  0  0  0  0
   12.6285  -19.6752   27.0614 C   0  0  0  0  0  0  0  0  0  0  0  0
   11.8582  -20.5422   28.0075 C   0  0  0  0  0  0  0  0  0  0  0  0
   12.4449  -20.5850   29.3966 C   0  0  0  0  0  0  0  0  0  0  0  0
   11.7452  -21.4854   30.2632 N   0  0  0  0  0  0  0  0  0  0  0  0
   13.9787  -18.9264   24.6128 C   0  0  0  0  0  0  0  0  0  0  0  0
   14.3843  -19.6173   23.6664 O   0  0  0  0  0  0  0  0  0  0  0  0
   14.9200  -18.4651   25.5234 O   0  0  0  0  0  0  0  0  0  0  0  0
  2  1  1  1
  3  4  1  0
  3  2  1  0
  4  5  2  0
  5  6  1  0
  7  6  1  0
  8  7  2  0
  9  8  1  0
 10 11  1  0
 10  9  2  0
 11 12  2  0
 12  4  1  0
 12  7  1  0
 13  2  1  0
 13 14  2  0
 15 13  1  0
 16 15  1  0
 16 17  1  6
 18 19  2  0
 18 17  1  0
 20 16  1  0
 21 20  2  0
 22 18  1  0
 23 20  1  0
 24 25  1  1
 24 23  1  0
 25 26  1  0
 27 28  1  0
 27 26  1  0
 28 29  1  0
 30 32  1  0
 30 24  1  0
 31 30  2  0
M  END
$$$$
