WDK.pdb
     RDKit          3D

 32 33  0  0  1  0  0  0  0  0999 V2000
    6.4812  -17.8393   23.6336 N   0  0  0  0  0  0  0  0  0  0  0  0
    7.5019  -16.8436   23.6109 C   0  0  1  0  0  0  0  0  0  0  0  0
    8.0897  -16.4747   24.9322 C   0  0  0  0  0  0  0  0  0  0  0  0
    7.3080  -15.4204   25.5696 C   0  0  0  0  0  0  0  0  0  0  0  0
    6.1929  -15.6184   26.3502 C   0  0  0  0  0  0  0  0  0  0  0  0
    5.7785  -14.4256   26.7694 N   0  0  0  0  0  0  0  0  0  0  0  0
    6.5817  -13.4587   26.2904 C   0  0  0  0  0  0  0  0  0  0  0  0
    6.5546  -12.0767   26.4433 C   0  0  0  0  0  0  0  0  0  0  0  0
    7.5011  -11.2747   25.8363 C   0  0  0  0  0  0  0  0  0  0  0  0
    8.4608  -11.8980   25.0821 C   0  0  0  0  0  0  0  0  0  0  0  0
    8.5090  -13.2662   24.9153 C   0  0  0  0  0  0  0  0  0  0  0  0
    7.5529  -14.0737   25.5297 C   0  0  0  0  0  0  0  0  0  0  0  0
    8.6229  -17.1804   22.7000 C   0  0  0  0  0  0  0  0  0  0  0  0
    8.8852  -18.3580   22.4353 O   0  0  0  0  0  0  0  0  0  0  0  0
    9.3892  -16.1334   22.1370 N   0  0  0  0  0  0  0  0  0  0  0  0
   10.6071  -16.3269   21.4084 C   0  0  1  0  0  0  0  0  0  0  0  0
   11.0054  -15.2189   20.4982 C   0  0  0  0  0  0  0  0  0  0  0  0
   12.2037  -15.5727   19.7167 C   0  0  0  0  0  0  0  0  0  0  0  0
   12.3215  -16.7138   19.2189 O   0  0  0  0  0  0  0  0  0  0  0  0
   11.7046  -16.6838   22.3704 C   0  0  0  0  0  0  0  0  0  0  0  0
   12.8274  -17.0660   21.9208 O   0  0  0  0  0  0  0  0  0  0  0  0
   13.2320  -14.6660   19.5068 O   0  0  0  0  0  0  0  0  0  0  0  0
   11.5560  -16.6174   23.7714 N   0  0  0  0  0  0  0  0  0  0  0  0
   12.6050  -17.0115   24.6806 C   0  0  1  0  0  0  0  0  0  0  0  0
   12.2592  -16.6916   26.1134 C   0  0  0  0  0  0  0  0  0  0  0  0
   11.0900  -15.7541   26.2320 C   0  0  0  0  0  0  0  0  0  0  0  0
   10.8042  -15.4724   27.6739 C   0  0  0  0  0  0  0  0  0  0  0  0
    9.5892  -14.6041   27.8873 C   0  0  0  0  0  0  0  0  0  0  0  0
    9.2946  -14.3991   29.2738 N   0  0  0  0  0  0  0  0  0  0  0  0
   12.9678  -18.4431   24.5074 C   0  0  0  0  0  0  0  0  0  0  0  0
   12.3373  -19.2186   23.7736 O   0  0  0  0  0  0  0  0  0  0  0  0
   14.0624  -18.9524   25.1934 O   0  0  0  0  0  0  0  0  0  0  0  0
  2  1  1  1
  3  4  1  0
  3  2  1  0
  4  5  2  0
  5  6  1  0
  7  6  1  0
  8  7  2  0
  9  8  1  0
 10 11  1  0
 10  9  2  0
 11 12  2  0
 12  4  1  0
 12  7  1  0
 13  2  1  0
 13 14  2  0
 15 13  1  0
 16 15  1  0
 16 17  1  1
 18 19  2  0
 18 17  1  0
 20 16  1  0
 21 20  2  0
 22 18  1  0
 23 20  1  0
 24 25  1  1
 24 23  1  0
 25 26  1  0
 27 28  1  0
 27 26  1  0
 28 29  1  0
 30 32  1  0
 30 24  1  0
 31 30  2  0
M  END
$$$$
