WDK.pdb
     RDKit          3D

 32 33  0  0  1  0  0  0  0  0999 V2000
    6.4971  -17.2719   24.0451 N   0  0  0  0  0  0  0  0  0  0  0  0
    7.5900  -16.3948   23.7802 C   0  0  1  0  0  0  0  0  0  0  0  0
    8.1204  -15.6339   24.9495 C   0  0  0  0  0  0  0  0  0  0  0  0
    7.1277  -14.6847   25.4419 C   0  0  0  0  0  0  0  0  0  0  0  0
    5.9132  -15.0189   25.9944 C   0  0  0  0  0  0  0  0  0  0  0  0
    5.3056  -13.8880   26.3441 N   0  0  0  0  0  0  0  0  0  0  0  0
    6.0789  -12.8304   26.0394 C   0  0  0  0  0  0  0  0  0  0  0  0
    5.8798  -11.4639   26.2037 C   0  0  0  0  0  0  0  0  0  0  0  0
    6.8342  -10.5517   25.7981 C   0  0  0  0  0  0  0  0  0  0  0  0
    7.9776  -11.0506   25.2307 C   0  0  0  0  0  0  0  0  0  0  0  0
    8.1986  -12.4008   25.0570 C   0  0  0  0  0  0  0  0  0  0  0  0
    7.2340  -13.3198   25.4679 C   0  0  0  0  0  0  0  0  0  0  0  0
    8.7369  -17.0744   23.1301 C   0  0  0  0  0  0  0  0  0  0  0  0
    9.0277  -18.2379   23.4260 O   0  0  0  0  0  0  0  0  0  0  0  0
    9.4950  -16.3715   22.1650 N   0  0  0  0  0  0  0  0  0  0  0  0
   10.7718  -16.7977   21.6753 C   0  0  1  0  0  0  0  0  0  0  0  0
   11.3338  -16.0080   20.5460 C   0  0  0  0  0  0  0  0  0  0  0  0
   12.5067  -16.6774   19.9561 C   0  0  0  0  0  0  0  0  0  0  0  0
   13.4432  -17.0731   20.6842 O   0  0  0  0  0  0  0  0  0  0  0  0
   11.7333  -16.8927   22.8258 C   0  0  0  0  0  0  0  0  0  0  0  0
   12.1016  -15.8339   23.4192 O   0  0  0  0  0  0  0  0  0  0  0  0
   12.6148  -16.8907   18.5900 O   0  0  0  0  0  0  0  0  0  0  0  0
   12.2607  -18.1145   23.2932 N   0  0  0  0  0  0  0  0  0  0  0  0
   12.9296  -18.2323   24.5664 C   0  0  1  0  0  0  0  0  0  0  0  0
   12.3110  -19.3015   25.4317 C   0  0  0  0  0  0  0  0  0  0  0  0
   13.0423  -19.4901   26.7315 C   0  0  0  0  0  0  0  0  0  0  0  0
   12.4069  -20.5915   27.5211 C   0  0  0  0  0  0  0  0  0  0  0  0
   13.0212  -20.7847   28.8852 C   0  0  0  0  0  0  0  0  0  0  0  0
   12.2698  -21.6870   29.7055 N   0  0  0  0  0  0  0  0  0  0  0  0
   14.3925  -18.4379   24.3972 C   0  0  0  0  0  0  0  0  0  0  0  0
   15.2349  -18.0110   25.2008 O   0  0  0  0  0  0  0  0  0  0  0  0
   14.8548  -19.1393   23.2915 O   0  0  0  0  0  0  0  0  0  0  0  0
  2  1  1  1
  3  4  1  0
  3  2  1  0
  4  5  2  0
  5  6  1  0
  7  6  1  0
  8  7  2  0
  9  8  1  0
 10 11  1  0
 10  9  2  0
 11 12  2  0
 12  4  1  0
 12  7  1  0
 13  2  1  0
 13 14  2  0
 15 13  1  0
 16 15  1  0
 16 17  1  6
 18 19  2  0
 18 17  1  0
 20 16  1  0
 21 20  2  0
 22 18  1  0
 23 20  1  0
 24 25  1  6
 24 23  1  0
 25 26  1  0
 27 28  1  0
 27 26  1  0
 28 29  1  0
 30 32  1  0
 30 24  1  0
 31 30  2  0
M  END
$$$$
