WDK.pdb
     RDKit          3D

 32 33  0  0  1  0  0  0  0  0999 V2000
    6.7513  -17.2282   23.8154 N   0  0  0  0  0  0  0  0  0  0  0  0
    8.0089  -16.5934   24.0373 C   0  0  1  0  0  0  0  0  0  0  0  0
    8.2095  -15.9857   25.3856 C   0  0  0  0  0  0  0  0  0  0  0  0
    7.2312  -14.9307   25.6280 C   0  0  0  0  0  0  0  0  0  0  0  0
    5.9488  -15.1250   26.0861 C   0  0  0  0  0  0  0  0  0  0  0  0
    5.3784  -13.9288   26.2044 N   0  0  0  0  0  0  0  0  0  0  0  0
    6.2412  -12.9633   25.8399 C   0  0  0  0  0  0  0  0  0  0  0  0
    6.1095  -11.5799   25.7872 C   0  0  0  0  0  0  0  0  0  0  0  0
    7.1535  -10.7811   25.3638 C   0  0  0  0  0  0  0  0  0  0  0  0
    8.3163  -11.4089   25.0006 C   0  0  0  0  0  0  0  0  0  0  0  0
    8.4717  -12.7786   25.0442 C   0  0  0  0  0  0  0  0  0  0  0  0
    7.4166  -13.5829   25.4727 C   0  0  0  0  0  0  0  0  0  0  0  0
    9.1649  -17.4834   23.7703 C   0  0  0  0  0  0  0  0  0  0  0  0
    9.1994  -18.6259   24.2385 O   0  0  0  0  0  0  0  0  0  0  0  0
   10.2295  -17.0060   22.9708 N   0  0  0  0  0  0  0  0  0  0  0  0
   11.5244  -17.6145   22.9047 C   0  0  1  0  0  0  0  0  0  0  0  0
   12.4945  -16.9832   21.9691 C   0  0  0  0  0  0  0  0  0  0  0  0
   11.9822  -16.9818   20.5874 C   0  0  0  0  0  0  0  0  0  0  0  0
   11.8984  -15.9131   19.9437 O   0  0  0  0  0  0  0  0  0  0  0  0
   12.0831  -17.7347   24.2942 C   0  0  0  0  0  0  0  0  0  0  0  0
   12.2712  -16.6864   24.9831 O   0  0  0  0  0  0  0  0  0  0  0  0
   11.5789  -18.1498   19.9574 O   0  0  0  0  0  0  0  0  0  0  0  0
   12.4174  -18.9693   24.8885 N   0  0  0  0  0  0  0  0  0  0  0  0
   12.8608  -19.0745   26.2577 C   0  0  1  0  0  0  0  0  0  0  0  0
   12.0583  -20.0883   27.0342 C   0  0  0  0  0  0  0  0  0  0  0  0
   12.5422  -20.2506   28.4482 C   0  0  0  0  0  0  0  0  0  0  0  0
   11.7759  -21.3410   29.1293 C   0  0  0  0  0  0  0  0  0  0  0  0
   12.2154  -21.5865   30.5514 C   0  0  0  0  0  0  0  0  0  0  0  0
   11.5998  -22.7448   31.1266 N   0  0  0  0  0  0  0  0  0  0  0  0
   14.3203  -19.3472   26.3391 C   0  0  0  0  0  0  0  0  0  0  0  0
   14.9115  -20.1127   25.5632 O   0  0  0  0  0  0  0  0  0  0  0  0
   15.0722  -18.7232   27.3257 O   0  0  0  0  0  0  0  0  0  0  0  0
  2  1  1  1
  3  4  1  0
  3  2  1  0
  4  5  2  0
  5  6  1  0
  7  6  1  0
  8  7  2  0
  9  8  1  0
 10 11  1  0
 10  9  2  0
 11 12  2  0
 12  4  1  0
 12  7  1  0
 13  2  1  0
 13 14  2  0
 15 13  1  0
 16 15  1  0
 16 17  1  6
 18 19  2  0
 18 17  1  0
 20 16  1  0
 21 20  2  0
 22 18  1  0
 23 20  1  0
 24 25  1  6
 24 23  1  0
 25 26  1  0
 27 28  1  0
 27 26  1  0
 28 29  1  0
 30 32  1  0
 30 24  1  0
 31 30  2  0
M  END
$$$$
