IIH.pdb
     RDKit          3D

 27 27  0  0  1  0  0  0  0  0999 V2000
    7.0077  -17.8385   18.5973 C   0  0  0  0  0  0  0  0  0  0  0  0
    7.0654  -16.4185   19.1146 C   0  0  0  0  0  0  0  0  0  0  0  0
    7.5859  -16.3032   20.5109 C   0  0  2  0  0  0  0  0  0  0  0  0
    6.8834  -17.3469   21.3577 C   0  0  0  0  0  0  0  0  0  0  0  0
    7.3489  -14.9101   21.0590 C   0  0  2  0  0  0  0  0  0  0  0  0
    8.0912  -14.0350   20.1109 N   0  0  0  0  0  0  0  0  0  0  0  0
    7.9824  -14.6819   22.3730 C   0  0  0  0  0  0  0  0  0  0  0  0
    9.2351  -14.6444   22.4460 O   0  0  0  0  0  0  0  0  0  0  0  0
    5.7647  -11.7733   26.5764 C   0  0  0  0  0  0  0  0  0  0  0  0
    6.9015  -12.2876   25.7334 C   0  0  0  0  0  0  0  0  0  0  0  0
    7.2660  -13.6981   25.9533 C   0  0  2  0  0  0  0  0  0  0  0  0
    8.1359  -13.8693   27.2128 C   0  0  0  0  0  0  0  0  0  0  0  0
    7.9525  -14.4480   24.8809 C   0  0  2  0  0  0  0  0  0  0  0  0
    7.2875  -14.4924   23.6017 N   0  0  0  0  0  0  0  0  0  0  0  0
    8.4081  -15.8098   25.3043 C   0  0  0  0  0  0  0  0  0  0  0  0
    7.6949  -16.8408   25.2085 O   0  0  0  0  0  0  0  0  0  0  0  0
    9.7063  -15.9952   25.8483 N   0  0  0  0  0  0  0  0  0  0  0  0
   10.2332  -17.3193   26.1279 C   0  0  1  0  0  0  0  0  0  0  0  0
   11.4101  -17.5401   25.2053 C   0  0  0  0  0  0  0  0  0  0  0  0
   10.9657  -18.2474   23.9920 C   0  0  0  0  0  0  0  0  0  0  0  0
    9.7180  -18.7528   23.7028 C   0  0  0  0  0  0  0  0  0  0  0  0
    9.7160  -19.3280   22.4927 N   0  0  0  0  0  0  0  0  0  0  0  0
   10.9579  -19.1942   22.0031 C   0  0  0  0  0  0  0  0  0  0  0  0
   11.7229  -18.5320   22.9225 N   0  0  0  0  0  0  0  0  0  0  0  0
   10.5990  -17.4877   27.5377 C   0  0  0  0  0  0  0  0  0  0  0  0
   10.9649  -16.5522   28.2675 O   0  0  0  0  0  0  0  0  0  0  0  0
   10.5208  -18.7890   28.0607 O   0  0  0  0  0  0  0  0  0  0  0  0
  1  2  1  0
  2  3  1  0
  3  4  1  1
  5  3  1  0
  5  6  1  6
  7  8  2  0
  7  5  1  0
  9 10  1  0
 10 11  1  0
 11 13  1  0
 11 12  1  1
 13 14  1  6
 14  7  1  0
 15 13  1  0
 16 15  2  0
 17 15  1  0
 18 25  1  0
 18 17  1  0
 18 19  1  6
 20 19  1  0
 21 20  2  0
 22 21  1  0
 23 22  1  0
 23 24  2  0
 24 20  1  0
 25 27  1  0
 26 25  2  0
M  END
$$$$
