IIH.pdb
     RDKit          3D

 27 27  0  0  1  0  0  0  0  0999 V2000
    6.5277  -18.5446   19.2217 C   0  0  0  0  0  0  0  0  0  0  0  0
    6.8167  -17.0734   19.4201 C   0  0  0  0  0  0  0  0  0  0  0  0
    7.3133  -16.7328   20.7881 C   0  0  2  0  0  0  0  0  0  0  0  0
    6.3343  -17.3052   21.7950 C   0  0  0  0  0  0  0  0  0  0  0  0
    7.4462  -15.2319   20.9527 C   0  0  2  0  0  0  0  0  0  0  0  0
    8.5030  -14.8688   19.9694 N   0  0  0  0  0  0  0  0  0  0  0  0
    7.9871  -14.8325   22.2672 C   0  0  0  0  0  0  0  0  0  0  0  0
    9.1947  -15.0608   22.5229 O   0  0  0  0  0  0  0  0  0  0  0  0
    7.3968  -11.1187   27.2421 C   0  0  0  0  0  0  0  0  0  0  0  0
    7.8638  -12.4225   26.6510 C   0  0  0  0  0  0  0  0  0  0  0  0
    7.3392  -12.7345   25.3101 C   0  0  2  0  0  0  0  0  0  0  0  0
    5.7995  -12.7749   25.2988 C   0  0  0  0  0  0  0  0  0  0  0  0
    7.7824  -13.9657   24.6235 C   0  0  2  0  0  0  0  0  0  0  0  0
    7.2484  -14.1917   23.3028 N   0  0  0  0  0  0  0  0  0  0  0  0
    7.6713  -15.1939   25.4723 C   0  0  0  0  0  0  0  0  0  0  0  0
    6.6169  -15.8704   25.5789 O   0  0  0  0  0  0  0  0  0  0  0  0
    8.7897  -15.6571   26.2141 N   0  0  0  0  0  0  0  0  0  0  0  0
    8.9418  -17.0571   26.5687 C   0  0  1  0  0  0  0  0  0  0  0  0
    9.1638  -17.8254   25.2858 C   0  0  0  0  0  0  0  0  0  0  0  0
    9.3704  -19.2519   25.5893 C   0  0  0  0  0  0  0  0  0  0  0  0
    9.3552  -19.8786   26.8152 C   0  0  0  0  0  0  0  0  0  0  0  0
    9.5862  -21.1906   26.6720 N   0  0  0  0  0  0  0  0  0  0  0  0
    9.7498  -21.4094   25.3586 C   0  0  0  0  0  0  0  0  0  0  0  0
    9.6174  -20.2210   24.6959 N   0  0  0  0  0  0  0  0  0  0  0  0
   10.0233  -17.2734   27.5348 C   0  0  0  0  0  0  0  0  0  0  0  0
   10.1522  -18.3154   28.1976 O   0  0  0  0  0  0  0  0  0  0  0  0
   10.9464  -16.2271   27.6959 O   0  0  0  0  0  0  0  0  0  0  0  0
  1  2  1  0
  2  3  1  0
  3  4  1  1
  5  3  1  0
  5  6  1  6
  7  8  2  0
  7  5  1  0
  9 10  1  0
 10 11  1  0
 11 13  1  0
 11 12  1  1
 13 14  1  6
 14  7  1  0
 15 13  1  0
 16 15  2  0
 17 15  1  0
 18 25  1  0
 18 17  1  0
 18 19  1  6
 20 19  1  0
 21 20  2  0
 22 21  1  0
 23 22  1  0
 23 24  2  0
 24 20  1  0
 25 27  1  0
 26 25  2  0
M  END
$$$$
