IIH.pdb
     RDKit          3D

 27 27  0  0  1  0  0  0  0  0999 V2000
    6.8132  -18.1395   18.9579 C   0  0  0  0  0  0  0  0  0  0  0  0
    6.8726  -16.6852   19.3687 C   0  0  0  0  0  0  0  0  0  0  0  0
    7.4767  -16.4610   20.7173 C   0  0  2  0  0  0  0  0  0  0  0  0
    6.7762  -17.3792   21.7002 C   0  0  0  0  0  0  0  0  0  0  0  0
    7.3359  -15.0106   21.1342 C   0  0  2  0  0  0  0  0  0  0  0  0
    8.2071  -14.2873   20.1680 N   0  0  0  0  0  0  0  0  0  0  0  0
    7.9118  -14.7246   22.4634 C   0  0  0  0  0  0  0  0  0  0  0  0
    9.1602  -14.7009   22.5931 O   0  0  0  0  0  0  0  0  0  0  0  0
    5.6324  -11.3116   26.1444 C   0  0  0  0  0  0  0  0  0  0  0  0
    6.7482  -11.9873   25.3921 C   0  0  0  0  0  0  0  0  0  0  0  0
    7.0998  -13.3395   25.8595 C   0  0  2  0  0  0  0  0  0  0  0  0
    7.9688  -13.2921   27.1303 C   0  0  0  0  0  0  0  0  0  0  0  0
    7.7789  -14.2744   24.9382 C   0  0  2  0  0  0  0  0  0  0  0  0
    7.1641  -14.4631   23.6471 N   0  0  0  0  0  0  0  0  0  0  0  0
    8.1282  -15.5855   25.5709 C   0  0  0  0  0  0  0  0  0  0  0  0
    7.2708  -16.4263   25.9431 O   0  0  0  0  0  0  0  0  0  0  0  0
    9.4864  -15.9412   25.7816 N   0  0  0  0  0  0  0  0  0  0  0  0
    9.8588  -17.2298   26.3383 C   0  0  1  0  0  0  0  0  0  0  0  0
   10.9796  -17.7815   25.4871 C   0  0  0  0  0  0  0  0  0  0  0  0
   11.3856  -19.1035   25.9944 C   0  0  0  0  0  0  0  0  0  0  0  0
   10.5866  -20.1605   26.3685 C   0  0  0  0  0  0  0  0  0  0  0  0
   11.3377  -21.1923   26.7766 N   0  0  0  0  0  0  0  0  0  0  0  0
   12.6165  -20.8022   26.6661 C   0  0  0  0  0  0  0  0  0  0  0  0
   12.6449  -19.5222   26.1867 N   0  0  0  0  0  0  0  0  0  0  0  0
   10.2346  -17.1387   27.7526 C   0  0  0  0  0  0  0  0  0  0  0  0
   10.2074  -18.1043   28.5327 O   0  0  0  0  0  0  0  0  0  0  0  0
   10.6425  -15.8782   28.2190 O   0  0  0  0  0  0  0  0  0  0  0  0
  1  2  1  0
  2  3  1  0
  3  4  1  1
  5  3  1  0
  5  6  1  6
  7  8  2  0
  7  5  1  0
  9 10  1  0
 10 11  1  0
 11 13  1  0
 11 12  1  1
 13 14  1  6
 14  7  1  0
 15 13  1  0
 16 15  2  0
 17 15  1  0
 18 25  1  0
 18 17  1  0
 18 19  1  6
 20 19  1  0
 21 20  2  0
 22 21  1  0
 23 22  1  0
 23 24  2  0
 24 20  1  0
 25 27  1  0
 26 25  2  0
M  END
$$$$
