IIH.pdb
     RDKit          3D

 27 27  0  0  1  0  0  0  0  0999 V2000
    6.9465  -17.5132   18.5465 C   0  0  0  0  0  0  0  0  0  0  0  0
    6.8991  -16.1023   19.0892 C   0  0  0  0  0  0  0  0  0  0  0  0
    7.4560  -15.9652   20.4693 C   0  0  2  0  0  0  0  0  0  0  0  0
    6.8102  -17.0258   21.3399 C   0  0  0  0  0  0  0  0  0  0  0  0
    7.1927  -14.5774   21.0191 C   0  0  2  0  0  0  0  0  0  0  0  0
    7.9010  -13.6860   20.0603 N   0  0  0  0  0  0  0  0  0  0  0  0
    7.8379  -14.3323   22.3243 C   0  0  0  0  0  0  0  0  0  0  0  0
    9.0478  -13.9986   22.3516 O   0  0  0  0  0  0  0  0  0  0  0  0
    5.4065  -11.4605   26.4134 C   0  0  0  0  0  0  0  0  0  0  0  0
    6.4352  -12.0051   25.4580 C   0  0  0  0  0  0  0  0  0  0  0  0
    6.9819  -13.3292   25.8024 C   0  0  2  0  0  0  0  0  0  0  0  0
    7.7881  -13.2861   27.1141 C   0  0  0  0  0  0  0  0  0  0  0  0
    7.8325  -14.0417   24.8264 C   0  0  2  0  0  0  0  0  0  0  0  0
    7.1993  -14.4391   23.5929 N   0  0  0  0  0  0  0  0  0  0  0  0
    8.6100  -15.1713   25.4270 C   0  0  0  0  0  0  0  0  0  0  0  0
    9.4173  -15.0282   26.3802 O   0  0  0  0  0  0  0  0  0  0  0  0
    8.4603  -16.4914   24.9265 N   0  0  0  0  0  0  0  0  0  0  0  0
    9.4560  -17.5185   25.1768 C   0  0  1  0  0  0  0  0  0  0  0  0
   10.6179  -17.2561   24.2461 C   0  0  0  0  0  0  0  0  0  0  0  0
   11.6440  -18.2977   24.4249 C   0  0  0  0  0  0  0  0  0  0  0  0
   11.6418  -19.3624   25.2979 C   0  0  0  0  0  0  0  0  0  0  0  0
   12.7606  -20.0858   25.1553 N   0  0  0  0  0  0  0  0  0  0  0  0
   13.4818  -19.4898   24.1938 C   0  0  0  0  0  0  0  0  0  0  0  0
   12.7969  -18.3943   23.7468 N   0  0  0  0  0  0  0  0  0  0  0  0
    9.8737  -17.5598   26.5816 C   0  0  0  0  0  0  0  0  0  0  0  0
   10.0459  -18.6138   27.2149 O   0  0  0  0  0  0  0  0  0  0  0  0
   10.0818  -16.3243   27.2165 O   0  0  0  0  0  0  0  0  0  0  0  0
  1  2  1  0
  2  3  1  0
  3  4  1  1
  5  3  1  0
  5  6  1  6
  7  8  2  0
  7  5  1  0
  9 10  1  0
 10 11  1  0
 11 13  1  0
 11 12  1  1
 13 14  1  6
 14  7  1  0
 15 13  1  0
 16 15  2  0
 17 15  1  0
 18 25  1  0
 18 17  1  0
 18 19  1  6
 20 19  1  0
 21 20  2  0
 22 21  1  0
 23 22  1  0
 23 24  2  0
 24 20  1  0
 25 27  1  0
 26 25  2  0
M  END
$$$$
