IIH.pdb
     RDKit          3D

 27 27  0  0  1  0  0  0  0  0999 V2000
    6.9636  -18.2813   18.8657 C   0  0  0  0  0  0  0  0  0  0  0  0
    7.0000  -16.8088   19.2091 C   0  0  0  0  0  0  0  0  0  0  0  0
    7.6208  -16.5114   20.5357 C   0  0  2  0  0  0  0  0  0  0  0  0
    6.9569  -17.3993   21.5704 C   0  0  0  0  0  0  0  0  0  0  0  0
    7.4547  -15.0471   20.8900 C   0  0  2  0  0  0  0  0  0  0  0  0
    8.2570  -14.3469   19.8500 N   0  0  0  0  0  0  0  0  0  0  0  0
    8.0827  -14.6804   22.1751 C   0  0  0  0  0  0  0  0  0  0  0  0
    9.3342  -14.6070   22.2414 O   0  0  0  0  0  0  0  0  0  0  0  0
    7.4204  -11.6256   27.5460 C   0  0  0  0  0  0  0  0  0  0  0  0
    8.1047  -12.7074   26.7529 C   0  0  0  0  0  0  0  0  0  0  0  0
    7.4687  -13.0508   25.4691 C   0  0  2  0  0  0  0  0  0  0  0  0
    5.9847  -13.4207   25.6525 C   0  0  0  0  0  0  0  0  0  0  0  0
    8.0523  -14.1183   24.6303 C   0  0  2  0  0  0  0  0  0  0  0  0
    7.3836  -14.3913   23.3817 N   0  0  0  0  0  0  0  0  0  0  0  0
    8.3336  -15.3810   25.3837 C   0  0  0  0  0  0  0  0  0  0  0  0
    7.4397  -16.1903   25.7396 O   0  0  0  0  0  0  0  0  0  0  0  0
    9.6651  -15.7242   25.7370 N   0  0  0  0  0  0  0  0  0  0  0  0
    9.9784  -16.9776   26.4004 C   0  0  1  0  0  0  0  0  0  0  0  0
   11.3026  -17.4587   25.8526 C   0  0  0  0  0  0  0  0  0  0  0  0
   11.1076  -18.0294   24.5087 C   0  0  0  0  0  0  0  0  0  0  0  0
    9.9315  -18.2085   23.8157 C   0  0  0  0  0  0  0  0  0  0  0  0
   10.1736  -18.7610   22.6193 N   0  0  0  0  0  0  0  0  0  0  0  0
   11.5012  -18.9376   22.5409 C   0  0  0  0  0  0  0  0  0  0  0  0
   12.0727  -18.4890   23.6990 N   0  0  0  0  0  0  0  0  0  0  0  0
   10.0013  -16.8453   27.8604 C   0  0  0  0  0  0  0  0  0  0  0  0
   10.1425  -15.7609   28.4484 O   0  0  0  0  0  0  0  0  0  0  0  0
    9.8531  -18.0270   28.6052 O   0  0  0  0  0  0  0  0  0  0  0  0
  1  2  1  0
  2  3  1  0
  3  4  1  1
  5  3  1  0
  5  6  1  6
  7  8  2  0
  7  5  1  0
  9 10  1  0
 10 11  1  0
 11 13  1  0
 11 12  1  1
 13 14  1  6
 14  7  1  0
 15 13  1  0
 16 15  2  0
 17 15  1  0
 18 25  1  0
 18 17  1  0
 18 19  1  6
 20 19  1  0
 21 20  2  0
 22 21  1  0
 23 22  1  0
 23 24  2  0
 24 20  1  0
 25 27  1  0
 26 25  2  0
M  END
$$$$
