TFR.pdb
     RDKit          3D

 30 30  0  0  1  0  0  0  0  0999 V2000
   31.4982  -19.5869  -13.0144 C   0  0  0  0  0  0  0  0  0  0  0  0
   30.4872  -20.1167  -12.0091 C   0  0  1  0  0  0  0  0  0  0  0  0
   29.4063  -20.5942  -12.7539 O   0  0  0  0  0  0  0  0  0  0  0  0
   31.0696  -21.3051  -11.2614 C   0  0  2  0  0  0  0  0  0  0  0  0
   31.3574  -22.3292  -12.2237 N   0  0  0  0  0  0  0  0  0  0  0  0
   30.0166  -21.7387  -10.2881 C   0  0  0  0  0  0  0  0  0  0  0  0
   29.2958  -22.7421  -10.4931 O   0  0  0  0  0  0  0  0  0  0  0  0
   29.8241  -20.9946   -9.0948 N   0  0  0  0  0  0  0  0  0  0  0  0
   28.7670  -21.3188   -8.1648 C   0  0  1  0  0  0  0  0  0  0  0  0
   29.3348  -21.2288   -6.7812 C   0  0  0  0  0  0  0  0  0  0  0  0
   28.7476  -20.1945   -5.9423 C   0  0  0  0  0  0  0  0  0  0  0  0
   29.1983  -18.9025   -5.9817 C   0  0  0  0  0  0  0  0  0  0  0  0
   28.5949  -17.9772   -5.1597 C   0  0  0  0  0  0  0  0  0  0  0  0
   27.5653  -18.3010   -4.3084 C   0  0  0  0  0  0  0  0  0  0  0  0
   27.1129  -19.5951   -4.2682 C   0  0  0  0  0  0  0  0  0  0  0  0
   27.7199  -20.5165   -5.0924 C   0  0  0  0  0  0  0  0  0  0  0  0
   27.6285  -20.4352   -8.4158 C   0  0  0  0  0  0  0  0  0  0  0  0
   27.7082  -19.1887   -8.5726 O   0  0  0  0  0  0  0  0  0  0  0  0
   25.0746  -23.5914  -13.6944 N   0  0  0  0  0  0  0  0  0  0  0  0
   24.2624  -22.4667  -13.9821 C   0  0  0  0  0  0  0  0  0  0  0  0
   23.1188  -22.7233  -14.5673 N   0  0  0  0  0  0  0  0  0  0  0  0
   24.6467  -21.1400  -13.6640 N   0  0  0  0  0  0  0  0  0  0  0  0
   25.7418  -20.9113  -12.7727 C   0  0  0  0  0  0  0  0  0  0  0  0
   25.3540  -21.1576  -11.3157 C   0  0  0  0  0  0  0  0  0  0  0  0
   25.4368  -19.9160  -10.5022 C   0  0  0  0  0  0  0  0  0  0  0  0
   25.1993  -20.1530   -9.0297 C   0  0  2  0  0  0  0  0  0  0  0  0
   26.3118  -20.9716   -8.4986 N   0  0  0  0  0  0  0  0  0  0  0  0
   23.9798  -20.9701   -8.8813 C   0  0  0  0  0  0  0  0  0  0  0  0
   22.6864  -20.5445   -9.1398 O   0  0  0  0  0  0  0  0  0  0  0  0
   24.1008  -22.1599   -8.4848 O   0  0  0  0  0  0  0  0  0  0  0  0
  2  1  1  6
  2  3  1  0
  4  2  1  0
  4  5  1  6
  6  4  1  0
  7  6  2  0
  8  6  1  0
  9  8  1  0
  9 10  1  1
 10 11  1  0
 11 12  2  0
 12 13  1  0
 14 13  2  0
 15 14  1  0
 16 11  1  0
 16 15  2  0
 17 18  2  0
 17  9  1  0
 19 20  1  0
 20 22  1  0
 21 20  2  0
 22 23  1  0
 24 25  1  0
 24 23  1  0
 26 25  1  6
 26 27  1  0
 27 17  1  0
 28 26  1  0
 29 28  1  0
 30 28  2  0
M  END
$$$$
