TFR.pdb
     RDKit          3D

 30 30  0  0  1  0  0  0  0  0999 V2000
   21.0315  -17.2538  -15.4120 C   0  0  0  0  0  0  0  0  0  0  0  0
   22.4517  -17.2105  -15.9549 C   0  0  1  0  0  0  0  0  0  0  0  0
   22.5985  -18.3419  -16.7608 O   0  0  0  0  0  0  0  0  0  0  0  0
   22.6283  -15.9989  -16.8556 C   0  0  2  0  0  0  0  0  0  0  0  0
   23.8568  -16.1655  -17.5773 N   0  0  0  0  0  0  0  0  0  0  0  0
   22.6767  -14.8098  -15.9457 C   0  0  0  0  0  0  0  0  0  0  0  0
   21.7337  -14.5272  -15.1717 O   0  0  0  0  0  0  0  0  0  0  0  0
   23.8233  -13.9731  -15.9555 N   0  0  0  0  0  0  0  0  0  0  0  0
   23.9107  -12.8016  -15.1145 C   0  0  1  0  0  0  0  0  0  0  0  0
   25.3489  -12.6188  -14.7368 C   0  0  0  0  0  0  0  0  0  0  0  0
   26.2858  -13.4690  -15.4564 C   0  0  0  0  0  0  0  0  0  0  0  0
   26.8449  -13.0718  -16.6411 C   0  0  0  0  0  0  0  0  0  0  0  0
   27.7234  -13.9284  -17.2661 C   0  0  0  0  0  0  0  0  0  0  0  0
   28.0563  -15.1572  -16.7479 C   0  0  0  0  0  0  0  0  0  0  0  0
   27.4968  -15.5563  -15.5610 C   0  0  0  0  0  0  0  0  0  0  0  0
   26.6189  -14.6957  -14.9403 C   0  0  0  0  0  0  0  0  0  0  0  0
   23.3163  -11.6668  -15.8207 C   0  0  0  0  0  0  0  0  0  0  0  0
   23.4649  -11.4271  -17.0476 O   0  0  0  0  0  0  0  0  0  0  0  0
   15.3836   -9.4604  -17.5517 N   0  0  0  0  0  0  0  0  0  0  0  0
   16.1261   -8.3247  -17.9594 C   0  0  0  0  0  0  0  0  0  0  0  0
   15.4583   -7.4149  -18.6246 N   0  0  0  0  0  0  0  0  0  0  0  0
   17.5054   -8.1657  -17.6743 N   0  0  0  0  0  0  0  0  0  0  0  0
   18.2123   -9.1993  -16.9830 C   0  0  0  0  0  0  0  0  0  0  0  0
   19.6896   -8.8566  -16.7984 C   0  0  0  0  0  0  0  0  0  0  0  0
   20.4280   -9.9426  -16.1016 C   0  0  0  0  0  0  0  0  0  0  0  0
   21.8732   -9.5992  -15.8293 C   0  0  2  0  0  0  0  0  0  0  0  0
   22.5014  -10.7342  -15.1173 N   0  0  0  0  0  0  0  0  0  0  0  0
   21.9116   -8.4564  -14.8967 C   0  0  0  0  0  0  0  0  0  0  0  0
   21.8419   -7.1194  -15.2548 O   0  0  0  0  0  0  0  0  0  0  0  0
   22.0182   -8.6931  -13.6637 O   0  0  0  0  0  0  0  0  0  0  0  0
  2  1  1  6
  2  3  1  0
  4  2  1  0
  4  5  1  1
  6  4  1  0
  7  6  2  0
  8  6  1  0
  9  8  1  0
  9 10  1  6
 10 11  1  0
 11 12  2  0
 12 13  1  0
 14 13  2  0
 15 14  1  0
 16 11  1  0
 16 15  2  0
 17 18  2  0
 17  9  1  0
 19 20  1  0
 20 22  1  0
 21 20  2  0
 22 23  1  0
 24 25  1  0
 24 23  1  0
 26 25  1  1
 26 27  1  0
 27 17  1  0
 28 26  1  0
 29 28  1  0
 30 28  2  0
M  END
$$$$
