TFR.pdb
     RDKit          3D

 30 30  0  0  1  0  0  0  0  0999 V2000
   25.2817  -18.3181  -16.5263 C   0  0  0  0  0  0  0  0  0  0  0  0
   26.3737  -17.8757  -15.5643 C   0  0  1  0  0  0  0  0  0  0  0  0
   25.7312  -17.5312  -14.3728 O   0  0  0  0  0  0  0  0  0  0  0  0
   27.2950  -19.0431  -15.2495 C   0  0  2  0  0  0  0  0  0  0  0  0
   27.9816  -19.3969  -16.4582 N   0  0  0  0  0  0  0  0  0  0  0  0
   26.4094  -20.1521  -14.7699 C   0  0  0  0  0  0  0  0  0  0  0  0
   25.8192  -20.9207  -15.5631 O   0  0  0  0  0  0  0  0  0  0  0  0
   26.2289  -20.3438  -13.3751 N   0  0  0  0  0  0  0  0  0  0  0  0
   25.4396  -21.4383  -12.8590 C   0  0  1  0  0  0  0  0  0  0  0  0
   26.1413  -21.9743  -11.6486 C   0  0  0  0  0  0  0  0  0  0  0  0
   25.9040  -21.2294  -10.4209 C   0  0  0  0  0  0  0  0  0  0  0  0
   24.8896  -21.5670   -9.5661 C   0  0  0  0  0  0  0  0  0  0  0  0
   24.7246  -20.8172   -8.4230 C   0  0  0  0  0  0  0  0  0  0  0  0
   25.5348  -19.7512   -8.1120 C   0  0  0  0  0  0  0  0  0  0  0  0
   26.5515  -19.4120   -8.9677 C   0  0  0  0  0  0  0  0  0  0  0  0
   26.7119  -20.1653  -10.1094 C   0  0  0  0  0  0  0  0  0  0  0  0
   24.0770  -20.9652  -12.6150 C   0  0  0  0  0  0  0  0  0  0  0  0
   23.7628  -19.7673  -12.3892 O   0  0  0  0  0  0  0  0  0  0  0  0
   17.1744  -23.0798  -17.3995 N   0  0  0  0  0  0  0  0  0  0  0  0
   16.6398  -22.2877  -16.3535 C   0  0  0  0  0  0  0  0  0  0  0  0
   15.3717  -21.9780  -16.4630 N   0  0  0  0  0  0  0  0  0  0  0  0
   17.4136  -21.8487  -15.2500 N   0  0  0  0  0  0  0  0  0  0  0  0
   18.8062  -22.1684  -15.1860 C   0  0  0  0  0  0  0  0  0  0  0  0
   19.4859  -21.5239  -13.9791 C   0  0  0  0  0  0  0  0  0  0  0  0
   20.9325  -21.8601  -13.9121 C   0  0  0  0  0  0  0  0  0  0  0  0
   21.5926  -21.3948  -12.6360 C   0  0  2  0  0  0  0  0  0  0  0  0
   22.9890  -21.8842  -12.6220 N   0  0  0  0  0  0  0  0  0  0  0  0
   20.9164  -22.0472  -11.4984 C   0  0  0  0  0  0  0  0  0  0  0  0
   19.8099  -21.5534  -10.8257 O   0  0  0  0  0  0  0  0  0  0  0  0
   21.3681  -23.1484  -11.0849 O   0  0  0  0  0  0  0  0  0  0  0  0
  2  1  1  6
  2  3  1  0
  4  2  1  0
  4  5  1  6
  6  4  1  0
  7  6  2  0
  8  6  1  0
  9  8  1  0
  9 10  1  1
 10 11  1  0
 11 12  2  0
 12 13  1  0
 14 13  2  0
 15 14  1  0
 16 11  1  0
 16 15  2  0
 17 18  2  0
 17  9  1  0
 19 20  1  0
 20 22  1  0
 21 20  2  0
 22 23  1  0
 24 25  1  0
 24 23  1  0
 26 25  1  6
 26 27  1  0
 27 17  1  0
 28 26  1  0
 29 28  1  0
 30 28  2  0
M  END
$$$$
