TFR.pdb
     RDKit          3D

 30 30  0  0  1  0  0  0  0  0999 V2000
   12.1121  -16.2049    6.6589 C   0  0  0  0  0  0  0  0  0  0  0  0
   11.8592  -15.0478    5.7046 C   0  0  1  0  0  0  0  0  0  0  0  0
   10.8997  -14.2374    6.3158 O   0  0  0  0  0  0  0  0  0  0  0  0
   13.1186  -14.2094    5.5572 C   0  0  2  0  0  0  0  0  0  0  0  0
   12.8022  -13.0878    4.7207 N   0  0  0  0  0  0  0  0  0  0  0  0
   14.1396  -15.1035    4.9230 C   0  0  0  0  0  0  0  0  0  0  0  0
   14.0042  -15.5450    3.7590 O   0  0  0  0  0  0  0  0  0  0  0  0
   15.2988  -15.4657    5.6578 N   0  0  0  0  0  0  0  0  0  0  0  0
   16.3267  -16.3024    5.0829 C   0  0  1  0  0  0  0  0  0  0  0  0
   17.6535  -15.7345    5.4850 C   0  0  0  0  0  0  0  0  0  0  0  0
   18.1739  -14.7030    4.5999 C   0  0  0  0  0  0  0  0  0  0  0  0
   18.5163  -14.9808    3.3040 C   0  0  0  0  0  0  0  0  0  0  0  0
   19.0021  -13.9548    2.5246 C   0  0  0  0  0  0  0  0  0  0  0  0
   19.1542  -12.6729    2.9967 C   0  0  0  0  0  0  0  0  0  0  0  0
   18.8115  -12.3933    4.2950 C   0  0  0  0  0  0  0  0  0  0  0  0
   18.3262  -13.4231    5.0700 C   0  0  0  0  0  0  0  0  0  0  0  0
   16.1018  -17.6851    5.5041 C   0  0  0  0  0  0  0  0  0  0  0  0
   15.7771  -18.0370    6.6684 O   0  0  0  0  0  0  0  0  0  0  0  0
   14.5574  -23.3623   -0.6781 N   0  0  0  0  0  0  0  0  0  0  0  0
   13.6483  -22.3317   -0.3333 C   0  0  0  0  0  0  0  0  0  0  0  0
   12.5952  -22.2180   -1.1041 N   0  0  0  0  0  0  0  0  0  0  0  0
   13.8493  -21.4683    0.7727 N   0  0  0  0  0  0  0  0  0  0  0  0
   15.0140  -21.6183    1.5893 C   0  0  0  0  0  0  0  0  0  0  0  0
   14.9314  -20.7782    2.8626 C   0  0  0  0  0  0  0  0  0  0  0  0
   16.0776  -21.0372    3.7733 C   0  0  0  0  0  0  0  0  0  0  0  0
   16.0741  -20.1553    4.9993 C   0  0  2  0  0  0  0  0  0  0  0  0
   16.2470  -18.7499    4.5695 N   0  0  0  0  0  0  0  0  0  0  0  0
   17.2597  -20.4857    5.8129 C   0  0  0  0  0  0  0  0  0  0  0  0
   18.4155  -19.7260    5.9013 O   0  0  0  0  0  0  0  0  0  0  0  0
   17.2427  -21.5464    6.4928 O   0  0  0  0  0  0  0  0  0  0  0  0
  2  1  1  1
  2  3  1  0
  4  2  1  0
  4  5  1  6
  6  4  1  0
  7  6  2  0
  8  6  1  0
  9  8  1  0
  9 10  1  1
 10 11  1  0
 11 12  2  0
 12 13  1  0
 14 13  2  0
 15 14  1  0
 16 11  1  0
 16 15  2  0
 17 18  2  0
 17  9  1  0
 19 20  1  0
 20 22  1  0
 21 20  2  0
 22 23  1  0
 24 25  1  0
 24 23  1  0
 26 25  1  6
 26 27  1  0
 27 17  1  0
 28 26  1  0
 29 28  1  0
 30 28  2  0
M  END
$$$$
