TFR.pdb
     RDKit          3D

 30 30  0  0  1  0  0  0  0  0999 V2000
   28.9672  -20.8360  -19.3940 C   0  0  0  0  0  0  0  0  0  0  0  0
   28.1294  -21.2447  -18.1919 C   0  0  1  0  0  0  0  0  0  0  0  0
   27.2666  -22.2486  -18.6380 O   0  0  0  0  0  0  0  0  0  0  0  0
   29.0170  -21.8648  -17.1250 C   0  0  2  0  0  0  0  0  0  0  0  0
   29.5600  -23.0801  -17.6597 N   0  0  0  0  0  0  0  0  0  0  0  0
   28.1287  -22.1254  -15.9473 C   0  0  0  0  0  0  0  0  0  0  0  0
   27.6549  -23.2603  -15.7112 O   0  0  0  0  0  0  0  0  0  0  0  0
   27.8097  -21.0582  -15.0675 N   0  0  0  0  0  0  0  0  0  0  0  0
   26.9486  -21.2536  -13.9240 C   0  0  1  0  0  0  0  0  0  0  0  0
   27.3904  -20.3028  -12.8538 C   0  0  0  0  0  0  0  0  0  0  0  0
   26.6543  -20.4017  -11.6021 C   0  0  0  0  0  0  0  0  0  0  0  0
   25.4853  -19.7171  -11.4056 C   0  0  0  0  0  0  0  0  0  0  0  0
   24.8432  -19.8589  -10.1958 C   0  0  0  0  0  0  0  0  0  0  0  0
   25.3293  -20.6560   -9.1871 C   0  0  0  0  0  0  0  0  0  0  0  0
   26.5005  -21.3424   -9.3828 C   0  0  0  0  0  0  0  0  0  0  0  0
   27.1385  -21.1970  -10.5945 C   0  0  0  0  0  0  0  0  0  0  0  0
   25.5573  -21.0932  -14.3465 C   0  0  0  0  0  0  0  0  0  0  0  0
   25.1314  -20.1581  -15.0739 O   0  0  0  0  0  0  0  0  0  0  0  0
   18.5762  -26.7536  -13.9272 N   0  0  0  0  0  0  0  0  0  0  0  0
   18.0715  -25.5095  -14.3797 C   0  0  0  0  0  0  0  0  0  0  0  0
   16.7870  -25.4732  -14.6344 N   0  0  0  0  0  0  0  0  0  0  0  0
   18.8900  -24.3652  -14.5521 N   0  0  0  0  0  0  0  0  0  0  0  0
   20.2870  -24.4390  -14.2543 C   0  0  0  0  0  0  0  0  0  0  0  0
   20.9784  -23.0864  -14.4167 C   0  0  0  0  0  0  0  0  0  0  0  0
   22.4361  -23.1715  -14.1377 C   0  0  0  0  0  0  0  0  0  0  0  0
   23.1540  -21.8551  -14.3185 C   0  0  2  0  0  0  0  0  0  0  0  0
   24.5715  -22.0345  -13.9336 N   0  0  0  0  0  0  0  0  0  0  0  0
   22.5883  -20.8824  -13.3641 C   0  0  0  0  0  0  0  0  0  0  0  0
   21.8545  -19.7555  -13.6993 O   0  0  0  0  0  0  0  0  0  0  0  0
   22.7779  -21.0719  -12.1329 O   0  0  0  0  0  0  0  0  0  0  0  0
  2  1  1  6
  2  3  1  0
  4  2  1  0
  4  5  1  6
  6  4  1  0
  7  6  2  0
  8  6  1  0
  9  8  1  0
  9 10  1  1
 10 11  1  0
 11 12  2  0
 12 13  1  0
 14 13  2  0
 15 14  1  0
 16 11  1  0
 16 15  2  0
 17 18  2  0
 17  9  1  0
 19 20  1  0
 20 22  1  0
 21 20  2  0
 22 23  1  0
 24 25  1  0
 24 23  1  0
 26 25  1  1
 26 27  1  0
 27 17  1  0
 28 26  1  0
 29 28  1  0
 30 28  2  0
M  END
$$$$
