GND.pdb
     RDKit          3D

 21 20  0  0  1  0  0  0  0  0999 V2000
    9.9457  -15.6146   14.0023 N   0  0  0  0  0  0  0  0  0  0  0  0
   10.0133  -16.2747   15.2712 C   0  0  0  0  0  0  0  0  0  0  0  0
   10.4401  -15.3274   16.3754 C   0  0  0  0  0  0  0  0  0  0  0  0
   11.4513  -14.6489   16.1027 O   0  0  0  0  0  0  0  0  0  0  0  0
    8.0760  -12.6469   18.0065 N   0  0  0  0  0  0  0  0  0  0  0  0
    7.8769  -13.4076   19.2390 C   0  0  0  0  0  0  0  0  0  0  0  0
    6.8177  -13.1283   19.8123 O   0  0  0  0  0  0  0  0  0  0  0  0
    8.9206  -14.3388   19.5807 C   0  0  0  0  0  0  0  0  0  0  0  0
   10.1273  -14.4839   18.7041 C   0  0  2  0  0  0  0  0  0  0  0  0
    9.6877  -15.3066   17.5474 N   0  0  0  0  0  0  0  0  0  0  0  0
   11.2969  -15.1338   19.3165 C   0  0  0  0  0  0  0  0  0  0  0  0
   11.2804  -16.4178   19.4308 O   0  0  0  0  0  0  0  0  0  0  0  0
   12.4391  -14.4564   19.7809 N   0  0  0  0  0  0  0  0  0  0  0  0
   13.5487  -15.1657   20.4157 C   0  0  1  0  0  0  0  0  0  0  0  0
   14.8495  -14.4308   20.2145 C   0  0  0  0  0  0  0  0  0  0  0  0
   15.2632  -14.4155   18.7994 C   0  0  0  0  0  0  0  0  0  0  0  0
   15.4208  -13.3111   18.2293 O   0  0  0  0  0  0  0  0  0  0  0  0
   13.2464  -15.5080   21.8106 C   0  0  0  0  0  0  0  0  0  0  0  0
   12.1925  -15.1167   22.3428 O   0  0  0  0  0  0  0  0  0  0  0  0
   15.4876  -15.5681   18.0652 O   0  0  0  0  0  0  0  0  0  0  0  0
   14.1293  -16.2697   22.5487 O   0  0  0  0  0  0  0  0  0  0  0  0
  2  1  1  0
  3  2  1  0
  3 10  1  0
  4  3  2  0
  5  6  1  0
  6  7  2  0
  6  8  1  0
  9  8  1  1
 10  9  1  0
 11  9  1  0
 12 11  2  0
 13 11  1  0
 14 13  1  0
 14 15  1  1
 16 15  1  0
 16 17  2  0
 18 14  1  0
 18 21  1  0
 19 18  2  0
 20 16  1  0
M  END
$$$$
