GND.pdb
     RDKit          3D

 21 20  0  0  1  0  0  0  0  0999 V2000
    8.7208  -13.0551   17.4174 N   0  0  0  0  0  0  0  0  0  0  0  0
    7.8859  -13.8341   18.2813 C   0  0  0  0  0  0  0  0  0  0  0  0
    8.4126  -13.8548   19.7028 C   0  0  0  0  0  0  0  0  0  0  0  0
    9.5496  -13.3575   19.8329 O   0  0  0  0  0  0  0  0  0  0  0  0
    8.2994  -14.7416   24.9183 N   0  0  0  0  0  0  0  0  0  0  0  0
    6.9440  -14.6937   24.3726 C   0  0  0  0  0  0  0  0  0  0  0  0
    6.0704  -14.7690   25.2441 O   0  0  0  0  0  0  0  0  0  0  0  0
    6.8446  -14.5692   22.9415 C   0  0  0  0  0  0  0  0  0  0  0  0
    8.0799  -14.4719   22.0989 C   0  0  2  0  0  0  0  0  0  0  0  0
    7.6037  -14.4079   20.6928 N   0  0  0  0  0  0  0  0  0  0  0  0
    9.0313  -15.5885   22.2150 C   0  0  0  0  0  0  0  0  0  0  0  0
    8.8567  -16.6098   21.4480 O   0  0  0  0  0  0  0  0  0  0  0  0
   10.1258  -15.6208   23.0984 N   0  0  0  0  0  0  0  0  0  0  0  0
   11.1891  -16.6158   22.9689 C   0  0  1  0  0  0  0  0  0  0  0  0
   12.3216  -16.0935   22.1219 C   0  0  0  0  0  0  0  0  0  0  0  0
   13.4127  -17.0764   21.9901 C   0  0  0  0  0  0  0  0  0  0  0  0
   14.0769  -17.3798   23.0081 O   0  0  0  0  0  0  0  0  0  0  0  0
   11.5946  -17.1492   24.2748 C   0  0  0  0  0  0  0  0  0  0  0  0
   12.1798  -18.2436   24.3559 O   0  0  0  0  0  0  0  0  0  0  0  0
   13.7414  -17.6842   20.7900 O   0  0  0  0  0  0  0  0  0  0  0  0
   11.3310  -16.4410   25.4296 O   0  0  0  0  0  0  0  0  0  0  0  0
  2  1  1  0
  3  2  1  0
  3 10  1  0
  4  3  2  0
  5  6  1  0
  6  7  2  0
  6  8  1  0
  9  8  1  1
 10  9  1  0
 11  9  1  0
 12 11  2  0
 13 11  1  0
 14 13  1  0
 14 15  1  1
 16 15  1  0
 16 17  2  0
 18 14  1  0
 18 21  1  0
 19 18  2  0
 20 16  1  0
M  END
$$$$
