GND.pdb
     RDKit          3D

 21 20  0  0  1  0  0  0  0  0999 V2000
    5.6835  -18.9153   19.3697 N   0  0  0  0  0  0  0  0  0  0  0  0
    5.9262  -18.1964   20.5840 C   0  0  0  0  0  0  0  0  0  0  0  0
    7.2447  -17.4493   20.5408 C   0  0  0  0  0  0  0  0  0  0  0  0
    8.2227  -18.1582   20.2273 O   0  0  0  0  0  0  0  0  0  0  0  0
    7.0447  -12.2589   19.2279 N   0  0  0  0  0  0  0  0  0  0  0  0
    7.8784  -13.4548   19.3379 C   0  0  0  0  0  0  0  0  0  0  0  0
    8.2201  -13.9071   18.2392 O   0  0  0  0  0  0  0  0  0  0  0  0
    8.1621  -13.9046   20.6759 C   0  0  0  0  0  0  0  0  0  0  0  0
    8.5151  -15.3372   20.9379 C   0  0  2  0  0  0  0  0  0  0  0  0
    7.2373  -16.0899   20.8445 N   0  0  0  0  0  0  0  0  0  0  0  0
    9.1265  -15.6237   22.2454 C   0  0  0  0  0  0  0  0  0  0  0  0
    8.5596  -15.1344   23.2948 O   0  0  0  0  0  0  0  0  0  0  0  0
   10.2834  -16.4011   22.4366 N   0  0  0  0  0  0  0  0  0  0  0  0
   10.8618  -16.6053   23.7636 C   0  0  1  0  0  0  0  0  0  0  0  0
   10.6390  -18.0175   24.2419 C   0  0  0  0  0  0  0  0  0  0  0  0
   11.2264  -19.0114   23.3249 C   0  0  0  0  0  0  0  0  0  0  0  0
   12.3267  -19.5308   23.6234 O   0  0  0  0  0  0  0  0  0  0  0  0
   12.2558  -16.1496   23.8236 C   0  0  0  0  0  0  0  0  0  0  0  0
   12.8506  -15.7987   22.7893 O   0  0  0  0  0  0  0  0  0  0  0  0
   10.6186  -19.4013   22.1432 O   0  0  0  0  0  0  0  0  0  0  0  0
   12.9233  -16.1047   25.0306 O   0  0  0  0  0  0  0  0  0  0  0  0
  2  1  1  0
  3  2  1  0
  3 10  1  0
  4  3  2  0
  5  6  1  0
  6  7  2  0
  6  8  1  0
  9  8  1  1
 10  9  1  0
 11  9  1  0
 12 11  2  0
 13 11  1  0
 14 13  1  0
 14 15  1  6
 16 15  1  0
 16 17  2  0
 18 14  1  0
 18 21  1  0
 19 18  2  0
 20 16  1  0
M  END
$$$$
