GND.pdb
     RDKit          3D

 21 20  0  0  1  0  0  0  0  0999 V2000
    7.0860  -19.3645   19.6917 N   0  0  0  0  0  0  0  0  0  0  0  0
    7.4267  -20.1645   20.8294 C   0  0  0  0  0  0  0  0  0  0  0  0
    6.6462  -19.7505   22.0615 C   0  0  0  0  0  0  0  0  0  0  0  0
    5.9792  -18.7061   21.9156 O   0  0  0  0  0  0  0  0  0  0  0  0
    3.3348  -21.4789   22.9019 N   0  0  0  0  0  0  0  0  0  0  0  0
    4.5150  -21.9945   23.5937 C   0  0  0  0  0  0  0  0  0  0  0  0
    4.9210  -23.0633   23.1235 O   0  0  0  0  0  0  0  0  0  0  0  0
    5.0050  -21.1945   24.6861 C   0  0  0  0  0  0  0  0  0  0  0  0
    6.0566  -20.1525   24.4538 C   0  0  2  0  0  0  0  0  0  0  0  0
    6.7455  -20.5492   23.1984 N   0  0  0  0  0  0  0  0  0  0  0  0
    7.0692  -20.0088   25.5119 C   0  0  0  0  0  0  0  0  0  0  0  0
    8.0485  -20.8471   25.5252 O   0  0  0  0  0  0  0  0  0  0  0  0
    7.0520  -19.0162   26.5087 N   0  0  0  0  0  0  0  0  0  0  0  0
    8.0072  -19.0215   27.6154 C   0  0  1  0  0  0  0  0  0  0  0  0
    7.9007  -20.2926   28.4189 C   0  0  0  0  0  0  0  0  0  0  0  0
    8.8667  -20.3259   29.5323 C   0  0  0  0  0  0  0  0  0  0  0  0
    9.0939  -19.2687   30.1650 O   0  0  0  0  0  0  0  0  0  0  0  0
    9.3642  -18.6936   27.1622 C   0  0  0  0  0  0  0  0  0  0  0  0
    9.6404  -18.6860   25.9496 O   0  0  0  0  0  0  0  0  0  0  0  0
    9.5389  -21.4744   29.9156 O   0  0  0  0  0  0  0  0  0  0  0  0
   10.3506  -18.3890   28.0780 O   0  0  0  0  0  0  0  0  0  0  0  0
  2  1  1  0
  3  2  1  0
  3 10  1  0
  4  3  2  0
  5  6  1  0
  6  7  2  0
  6  8  1  0
  9  8  1  1
 10  9  1  0
 11  9  1  0
 12 11  2  0
 13 11  1  0
 14 13  1  0
 14 15  1  6
 16 15  1  0
 16 17  2  0
 18 14  1  0
 18 21  1  0
 19 18  2  0
 20 16  1  0
M  END
$$$$
