GND.pdb
     RDKit          3D

 21 20  0  0  1  0  0  0  0  0999 V2000
    4.1936  -18.7805   22.3984 N   0  0  0  0  0  0  0  0  0  0  0  0
    4.6756  -17.4427   22.5657 C   0  0  0  0  0  0  0  0  0  0  0  0
    5.7565  -17.1047   21.5578 C   0  0  0  0  0  0  0  0  0  0  0  0
    6.0966  -18.0627   20.8341 O   0  0  0  0  0  0  0  0  0  0  0  0
    8.1531  -11.8390   19.5998 N   0  0  0  0  0  0  0  0  0  0  0  0
    7.7729  -13.2173   19.2946 C   0  0  0  0  0  0  0  0  0  0  0  0
    8.1285  -13.5771   18.1665 O   0  0  0  0  0  0  0  0  0  0  0  0
    7.0623  -13.9195   20.3315 C   0  0  0  0  0  0  0  0  0  0  0  0
    7.2476  -15.3951   20.5154 C   0  0  2  0  0  0  0  0  0  0  0  0
    6.2486  -15.8018   21.5375 N   0  0  0  0  0  0  0  0  0  0  0  0
    8.5783  -15.8278   20.9709 C   0  0  0  0  0  0  0  0  0  0  0  0
    9.5769  -15.6371   20.1782 O   0  0  0  0  0  0  0  0  0  0  0  0
    8.8437  -16.4292   22.2148 N   0  0  0  0  0  0  0  0  0  0  0  0
   10.1703  -16.9415   22.5535 C   0  0  1  0  0  0  0  0  0  0  0  0
   11.1656  -15.8186   22.6991 C   0  0  0  0  0  0  0  0  0  0  0  0
   12.5255  -16.3170   22.9749 C   0  0  0  0  0  0  0  0  0  0  0  0
   12.9826  -17.2446   22.2676 O   0  0  0  0  0  0  0  0  0  0  0  0
   10.1197  -17.8682   23.6907 C   0  0  0  0  0  0  0  0  0  0  0  0
   10.9521  -18.7865   23.7947 O   0  0  0  0  0  0  0  0  0  0  0  0
   13.3272  -15.8075   23.9827 O   0  0  0  0  0  0  0  0  0  0  0  0
    9.1465  -17.7306   24.6594 O   0  0  0  0  0  0  0  0  0  0  0  0
  2  1  1  0
  3  2  1  0
  3 10  1  0
  4  3  2  0
  5  6  1  0
  6  7  2  0
  6  8  1  0
  9  8  1  1
 10  9  1  0
 11  9  1  0
 12 11  2  0
 13 11  1  0
 14 13  1  0
 14 15  1  1
 16 15  1  0
 16 17  2  0
 18 14  1  0
 18 21  1  0
 19 18  2  0
 20 16  1  0
M  END
$$$$
