GND.pdb
     RDKit          3D

 21 20  0  0  1  0  0  0  0  0999 V2000
    7.4336  -19.2737   16.2918 N   0  0  0  0  0  0  0  0  0  0  0  0
    7.0528  -18.9086   17.6229 C   0  0  0  0  0  0  0  0  0  0  0  0
    7.8202  -17.6970   18.1146 C   0  0  0  0  0  0  0  0  0  0  0  0
    8.7767  -17.3680   17.3839 O   0  0  0  0  0  0  0  0  0  0  0  0
    9.0360  -13.2482   20.0691 N   0  0  0  0  0  0  0  0  0  0  0  0
    7.5906  -13.4678   20.0746 C   0  0  0  0  0  0  0  0  0  0  0  0
    6.9430  -12.4153   20.1087 O   0  0  0  0  0  0  0  0  0  0  0  0
    7.1617  -14.8419   20.0398 C   0  0  0  0  0  0  0  0  0  0  0  0
    8.1592  -15.9458   19.8612 C   0  0  2  0  0  0  0  0  0  0  0  0
    7.3974  -17.0886   19.2941 N   0  0  0  0  0  0  0  0  0  0  0  0
    8.8415  -16.4044   21.0817 C   0  0  0  0  0  0  0  0  0  0  0  0
    8.2144  -17.2311   21.8469 O   0  0  0  0  0  0  0  0  0  0  0  0
   10.1347  -16.0125   21.4730 N   0  0  0  0  0  0  0  0  0  0  0  0
   10.7298  -16.4689   22.7279 C   0  0  1  0  0  0  0  0  0  0  0  0
   12.2353  -16.4305   22.6610 C   0  0  0  0  0  0  0  0  0  0  0  0
   12.7645  -17.3073   21.6004 C   0  0  0  0  0  0  0  0  0  0  0  0
   12.2123  -18.4143   21.4021 O   0  0  0  0  0  0  0  0  0  0  0  0
   10.1489  -15.7790   23.8860 C   0  0  0  0  0  0  0  0  0  0  0  0
    9.3406  -14.8474   23.7260 O   0  0  0  0  0  0  0  0  0  0  0  0
   13.8478  -16.9660   20.8080 O   0  0  0  0  0  0  0  0  0  0  0  0
   10.4933  -16.1572   25.1677 O   0  0  0  0  0  0  0  0  0  0  0  0
  2  1  1  0
  3  2  1  0
  3 10  1  0
  4  3  2  0
  5  6  1  0
  6  7  2  0
  6  8  1  0
  9  8  1  1
 10  9  1  0
 11  9  1  0
 12 11  2  0
 13 11  1  0
 14 13  1  0
 14 15  1  6
 16 15  1  0
 16 17  2  0
 18 14  1  0
 18 21  1  0
 19 18  2  0
 20 16  1  0
M  END
$$$$
