GND.pdb
     RDKit          3D

 21 20  0  0  1  0  0  0  0  0999 V2000
   10.1648  -17.4207   16.0576 N   0  0  0  0  0  0  0  0  0  0  0  0
    9.3589  -17.3960   17.2408 C   0  0  0  0  0  0  0  0  0  0  0  0
    9.8809  -16.3978   18.2555 C   0  0  0  0  0  0  0  0  0  0  0  0
   11.0135  -15.9460   17.9905 O   0  0  0  0  0  0  0  0  0  0  0  0
    7.9479  -13.1591   19.2202 N   0  0  0  0  0  0  0  0  0  0  0  0
    7.4975  -13.6793   20.5101 C   0  0  0  0  0  0  0  0  0  0  0  0
    6.4379  -13.1698   20.8921 O   0  0  0  0  0  0  0  0  0  0  0  0
    8.3393  -14.6784   21.1155 C   0  0  0  0  0  0  0  0  0  0  0  0
    9.5641  -15.1719   20.4071 C   0  0  2  0  0  0  0  0  0  0  0  0
    9.0732  -16.0915   19.3482 N   0  0  0  0  0  0  0  0  0  0  0  0
   10.5410  -15.8978   21.2342 C   0  0  0  0  0  0  0  0  0  0  0  0
   10.3101  -17.1409   21.4862 O   0  0  0  0  0  0  0  0  0  0  0  0
   11.7163  -15.3362   21.7656 N   0  0  0  0  0  0  0  0  0  0  0  0
   12.6685  -16.1331   22.5373 C   0  0  1  0  0  0  0  0  0  0  0  0
   14.0453  -15.5201   22.5008 C   0  0  0  0  0  0  0  0  0  0  0  0
   15.0346  -16.3385   23.2257 C   0  0  0  0  0  0  0  0  0  0  0  0
   15.1150  -17.5607   22.9623 O   0  0  0  0  0  0  0  0  0  0  0  0
   12.1632  -16.4279   23.8835 C   0  0  0  0  0  0  0  0  0  0  0  0
   11.3060  -15.6969   24.4105 O   0  0  0  0  0  0  0  0  0  0  0  0
   15.8842  -15.8201   24.1887 O   0  0  0  0  0  0  0  0  0  0  0  0
   12.6341  -17.5217   24.5809 O   0  0  0  0  0  0  0  0  0  0  0  0
  2  1  1  0
  3  2  1  0
  3 10  1  0
  4  3  2  0
  5  6  1  0
  6  7  2  0
  6  8  1  0
  9  8  1  1
 10  9  1  0
 11  9  1  0
 12 11  2  0
 13 11  1  0
 14 13  1  0
 14 15  1  1
 16 15  1  0
 16 17  2  0
 18 14  1  0
 18 21  1  0
 19 18  2  0
 20 16  1  0
M  END
$$$$
