GND.pdb
     RDKit          3D

 21 20  0  0  1  0  0  0  0  0999 V2000
    8.8038  -18.3390   16.0458 N   0  0  0  0  0  0  0  0  0  0  0  0
    8.1156  -18.0762   17.2736 C   0  0  0  0  0  0  0  0  0  0  0  0
    8.6658  -16.8497   17.9748 C   0  0  0  0  0  0  0  0  0  0  0  0
    9.7632  -16.4567   17.5293 O   0  0  0  0  0  0  0  0  0  0  0  0
    7.4099  -11.8276   20.2374 N   0  0  0  0  0  0  0  0  0  0  0  0
    7.3812  -13.1192   20.9219 C   0  0  0  0  0  0  0  0  0  0  0  0
    7.4740  -13.0159   22.1504 O   0  0  0  0  0  0  0  0  0  0  0  0
    7.2522  -14.2778   20.0769 C   0  0  0  0  0  0  0  0  0  0  0  0
    8.4426  -15.1374   19.7778 C   0  0  2  0  0  0  0  0  0  0  0  0
    7.9184  -16.2986   19.0130 N   0  0  0  0  0  0  0  0  0  0  0  0
    9.1816  -15.6468   20.9439 C   0  0  0  0  0  0  0  0  0  0  0  0
    8.7479  -16.7216   21.5084 O   0  0  0  0  0  0  0  0  0  0  0  0
   10.3349  -15.0502   21.4856 N   0  0  0  0  0  0  0  0  0  0  0  0
   11.0386  -15.6336   22.6265 C   0  0  1  0  0  0  0  0  0  0  0  0
   10.0840  -16.3580   23.5411 C   0  0  0  0  0  0  0  0  0  0  0  0
   10.7778  -16.9834   24.6819 C   0  0  0  0  0  0  0  0  0  0  0  0
   11.9989  -16.7545   24.8437 O   0  0  0  0  0  0  0  0  0  0  0  0
   12.2000  -16.4239   22.2009 C   0  0  0  0  0  0  0  0  0  0  0  0
   13.3518  -15.9717   22.3261 O   0  0  0  0  0  0  0  0  0  0  0  0
   10.1430  -17.8158   25.5884 O   0  0  0  0  0  0  0  0  0  0  0  0
   12.0268  -17.6801   21.6565 O   0  0  0  0  0  0  0  0  0  0  0  0
  2  1  1  0
  3  2  1  0
  3 10  1  0
  4  3  2  0
  5  6  1  0
  6  7  2  0
  6  8  1  0
  9  8  1  1
 10  9  1  0
 11  9  1  0
 12 11  2  0
 13 11  1  0
 14 13  1  0
 14 15  1  6
 16 15  1  0
 16 17  2  0
 18 14  1  0
 18 21  1  0
 19 18  2  0
 20 16  1  0
M  END
$$$$
