RDL.pdb
     RDKit          3D

 28 27  0  0  1  0  0  0  0  0999 V2000
    8.4198  -15.5292   16.1046 N   0  0  0  0  0  0  0  0  0  0  0  0
    8.0142  -14.3061   15.4895 C   0  0  0  0  0  0  0  0  0  0  0  0
    7.7009  -14.3071   14.2486 N   0  0  0  0  0  0  0  0  0  0  0  0
    7.9771  -13.1348   16.2884 N   0  0  0  0  0  0  0  0  0  0  0  0
    8.2863  -13.2568   17.7253 C   0  0  0  0  0  0  0  0  0  0  0  0
    7.3196  -14.2258   18.3014 C   0  0  0  0  0  0  0  0  0  0  0  0
    7.3397  -14.4225   19.7674 C   0  0  0  0  0  0  0  0  0  0  0  0
    8.6555  -14.2263   20.4605 C   0  0  2  0  0  0  0  0  0  0  0  0
    9.7142  -14.7051   19.6089 N   0  0  0  0  0  0  0  0  0  0  0  0
    8.6113  -15.1028   21.6763 C   0  0  0  0  0  0  0  0  0  0  0  0
    7.4912  -15.2098   22.2554 O   0  0  0  0  0  0  0  0  0  0  0  0
    7.4069  -13.4871   13.7142 N   0  0  0  0  0  0  0  0  0  0  0  0
    9.7500  -15.7756   22.1563 C   0  0  1  0  0  0  0  0  0  0  0  0
    9.5497  -16.6735   23.3392 C   0  0  0  0  0  0  0  0  0  0  0  0
   10.6112  -17.7148   23.1953 C   0  0  0  0  0  0  0  0  0  0  0  0
   10.7492  -18.6936   24.2528 O   0  0  0  0  0  0  0  0  0  0  0  0
    9.8111  -19.1338   24.9490 C   0  0  0  0  0  0  0  0  0  0  0  0
    9.6285  -15.8323   24.5404 O   0  0  0  0  0  0  0  0  0  0  0  0
   10.7378  -15.2102   24.7191 O   0  0  0  0  0  0  0  0  0  0  0  0
   12.0099  -19.2437   24.5869 C   0  0  0  0  0  0  0  0  0  0  0  0
    6.2817  -12.2149   26.1890 C   0  0  1  0  0  0  0  0  0  0  0  0
    7.5592  -12.9743   25.9402 C   0  0  0  0  0  0  0  0  0  0  0  0
    8.6641  -11.9024   25.8618 C   0  0  0  0  0  0  0  0  0  0  0  0
    7.9333  -13.8697   27.0831 C   0  0  2  0  0  0  0  0  0  0  0  0
    8.9693  -14.8952   26.7731 N   0  0  0  0  0  0  0  0  0  0  0  0
    8.6503  -15.6079   25.5233 C   0  0  0  0  0  0  0  0  0  0  0  0
    9.2170  -15.8665   27.8663 O   0  0  0  0  0  0  0  0  0  0  0  0
    9.5801  -15.4574   28.9980 O   0  0  0  0  0  0  0  0  0  0  0  0
  2  4  1  0
  2  1  1  0
  3  2  2  0
  5  4  1  0
  6  5  1  0
  7  6  1  0
  8  9  1  6
  8  7  1  0
 10  8  1  0
 11 10  2  0
 12 10  1  0
 13 14  1  1
 13 12  1  0
 15 19  1  0
 15 14  1  0
 16 15  2  0
 17 13  1  0
 18 17  2  0
 21 20  1  6
 22 21  1  0
 23 21  1  0
 24 23  1  6
 24 25  1  0
 25 17  1  0
 26 28  1  0
 26 24  1  0
 27 26  2  0
M  END
$$$$
