RDL.pdb
     RDKit          3D

 28 27  0  0  1  0  0  0  0  0999 V2000
    9.7656  -13.3170   18.9527 N   0  0  0  0  0  0  0  0  0  0  0  0
    8.5332  -12.6435   19.2105 C   0  0  0  0  0  0  0  0  0  0  0  0
    8.5595  -11.4256   19.6030 N   0  0  0  0  0  0  0  0  0  0  0  0
    7.3250  -13.3610   19.0189 N   0  0  0  0  0  0  0  0  0  0  0  0
    7.3001  -14.7953   19.3616 C   0  0  0  0  0  0  0  0  0  0  0  0
    6.9506  -14.8962   20.8015 C   0  0  0  0  0  0  0  0  0  0  0  0
    6.8181  -16.2514   21.3798 C   0  0  0  0  0  0  0  0  0  0  0  0
    7.8194  -17.2779   20.9396 C   0  0  2  0  0  0  0  0  0  0  0  0
    7.1533  -18.5433   20.7649 N   0  0  0  0  0  0  0  0  0  0  0  0
    8.7857  -17.4201   22.0773 C   0  0  0  0  0  0  0  0  0  0  0  0
    8.5082  -18.2951   22.9484 O   0  0  0  0  0  0  0  0  0  0  0  0
    7.7417  -10.8756   19.8733 N   0  0  0  0  0  0  0  0  0  0  0  0
    9.9434  -16.6271   22.1802 C   0  0  2  0  0  0  0  0  0  0  0  0
   10.7890  -16.8297   23.4007 C   0  0  0  0  0  0  0  0  0  0  0  0
   12.0961  -16.1955   23.0527 C   0  0  0  0  0  0  0  0  0  0  0  0
   12.9363  -16.8624   22.0807 O   0  0  0  0  0  0  0  0  0  0  0  0
   12.9772  -18.0962   21.8950 C   0  0  0  0  0  0  0  0  0  0  0  0
   10.0649  -16.2380   24.5330 O   0  0  0  0  0  0  0  0  0  0  0  0
   10.5927  -15.1877   25.0505 O   0  0  0  0  0  0  0  0  0  0  0  0
   13.8076  -16.1327   21.2369 C   0  0  0  0  0  0  0  0  0  0  0  0
    7.7629  -12.7015   27.1319 C   0  0  2  0  0  0  0  0  0  0  0  0
    6.9280  -13.5678   26.2246 C   0  0  0  0  0  0  0  0  0  0  0  0
    6.2571  -12.5959   25.2340 C   0  0  0  0  0  0  0  0  0  0  0  0
    7.7549  -14.5005   25.3914 C   0  0  1  0  0  0  0  0  0  0  0  0
    8.1171  -15.7876   26.0498 N   0  0  0  0  0  0  0  0  0  0  0  0
    8.8647  -16.6609   25.1278 C   0  0  0  0  0  0  0  0  0  0  0  0
    6.9681  -16.5232   26.6317 O   0  0  0  0  0  0  0  0  0  0  0  0
    6.4216  -16.1023   27.6826 O   0  0  0  0  0  0  0  0  0  0  0  0
  2  4  1  0
  2  1  1  0
  3  2  2  0
  5  4  1  0
  6  5  1  0
  7  6  1  0
  8  9  1  1
  8  7  1  0
 10  8  1  0
 11 10  2  0
 12 10  1  0
 13 14  1  6
 13 12  1  0
 15 19  1  0
 15 14  1  0
 16 15  2  0
 17 13  1  0
 18 17  2  0
 21 20  1  1
 22 21  1  0
 23 21  1  0
 24 23  1  1
 24 25  1  0
 25 17  1  0
 26 28  1  0
 26 24  1  0
 27 26  2  0
M  END
$$$$
