RDL.pdb
     RDKit          3D

 28 27  0  0  1  0  0  0  0  0999 V2000
    9.8138  -15.1172   15.8558 N   0  0  0  0  0  0  0  0  0  0  0  0
    8.5723  -14.5193   15.4817 C   0  0  0  0  0  0  0  0  0  0  0  0
    7.8724  -15.0634   14.5586 N   0  0  0  0  0  0  0  0  0  0  0  0
    8.1675  -13.3387   16.1554 N   0  0  0  0  0  0  0  0  0  0  0  0
    8.2836  -13.2960   17.6250 C   0  0  0  0  0  0  0  0  0  0  0  0
    7.2943  -14.2594   18.1714 C   0  0  0  0  0  0  0  0  0  0  0  0
    7.1204  -14.3024   19.6398 C   0  0  0  0  0  0  0  0  0  0  0  0
    8.3202  -13.9669   20.4754 C   0  0  2  0  0  0  0  0  0  0  0  0
    9.5112  -14.1423   19.6840 N   0  0  0  0  0  0  0  0  0  0  0  0
    8.3470  -14.9827   21.5780 C   0  0  0  0  0  0  0  0  0  0  0  0
    7.2546  -15.1894   22.1825 O   0  0  0  0  0  0  0  0  0  0  0  0
    6.9992  -14.6884   14.1824 N   0  0  0  0  0  0  0  0  0  0  0  0
    9.5200  -15.6753   21.9299 C   0  0  1  0  0  0  0  0  0  0  0  0
    9.4289  -16.5916   23.1122 C   0  0  0  0  0  0  0  0  0  0  0  0
   10.5299  -17.5786   22.8991 C   0  0  0  0  0  0  0  0  0  0  0  0
   10.4878  -18.3945   21.7042 O   0  0  0  0  0  0  0  0  0  0  0  0
   11.3472  -18.3847   20.7987 C   0  0  0  0  0  0  0  0  0  0  0  0
    9.5331  -15.7575   24.3164 O   0  0  0  0  0  0  0  0  0  0  0  0
   10.6235  -15.0914   24.4460 O   0  0  0  0  0  0  0  0  0  0  0  0
    9.4249  -19.2988   21.4673 C   0  0  0  0  0  0  0  0  0  0  0  0
    5.9578  -12.4421   26.4095 C   0  0  1  0  0  0  0  0  0  0  0  0
    7.2648  -13.0684   25.9970 C   0  0  0  0  0  0  0  0  0  0  0  0
    8.2656  -11.9002   25.8988 C   0  0  0  0  0  0  0  0  0  0  0  0
    7.8159  -13.9975   27.0367 C   0  0  2  0  0  0  0  0  0  0  0  0
    8.9456  -14.8579   26.5842 N   0  0  0  0  0  0  0  0  0  0  0  0
    8.5969  -15.5817   25.3488 C   0  0  0  0  0  0  0  0  0  0  0  0
    9.4423  -15.8073   27.6098 O   0  0  0  0  0  0  0  0  0  0  0  0
    9.1884  -17.0339   27.5038 O   0  0  0  0  0  0  0  0  0  0  0  0
  2  4  1  0
  2  1  1  0
  3  2  2  0
  5  4  1  0
  6  5  1  0
  7  6  1  0
  8  9  1  6
  8  7  1  0
 10  8  1  0
 11 10  2  0
 12 10  1  0
 13 14  1  1
 13 12  1  0
 15 19  1  0
 15 14  1  0
 16 15  2  0
 17 13  1  0
 18 17  2  0
 21 20  1  6
 22 21  1  0
 23 21  1  0
 24 23  1  6
 24 25  1  0
 25 17  1  0
 26 28  1  0
 26 24  1  0
 27 26  2  0
M  END
$$$$
