RDL.pdb
     RDKit          3D

 28 27  0  0  1  0  0  0  0  0999 V2000
    9.7258  -13.8732   19.3640 N   0  0  0  0  0  0  0  0  0  0  0  0
    8.7708  -12.8540   19.0670 C   0  0  0  0  0  0  0  0  0  0  0  0
    9.1272  -11.6269   19.1388 N   0  0  0  0  0  0  0  0  0  0  0  0
    7.4588  -13.2510   18.7033 N   0  0  0  0  0  0  0  0  0  0  0  0
    7.1031  -14.6782   18.8123 C   0  0  0  0  0  0  0  0  0  0  0  0
    6.4439  -14.8666   20.1297 C   0  0  0  0  0  0  0  0  0  0  0  0
    7.2169  -15.5502   21.1897 C   0  0  0  0  0  0  0  0  0  0  0  0
    7.7754  -16.9022   20.8576 C   0  0  2  0  0  0  0  0  0  0  0  0
    6.6896  -17.8341   20.6907 N   0  0  0  0  0  0  0  0  0  0  0  0
    8.5637  -17.3253   22.0610 C   0  0  0  0  0  0  0  0  0  0  0  0
    8.0003  -18.1413   22.8472 O   0  0  0  0  0  0  0  0  0  0  0  0
    8.4973  -10.8251   19.0695 N   0  0  0  0  0  0  0  0  0  0  0  0
    9.8624  -16.8460   22.3119 C   0  0  2  0  0  0  0  0  0  0  0  0
   10.5425  -17.3640   23.5428 C   0  0  0  0  0  0  0  0  0  0  0  0
   11.8923  -17.7912   23.0659 C   0  0  0  0  0  0  0  0  0  0  0  0
   12.8469  -18.2492   24.0530 O   0  0  0  0  0  0  0  0  0  0  0  0
   12.6286  -18.3261   25.2797 C   0  0  0  0  0  0  0  0  0  0  0  0
   10.5206  -16.2837   24.5374 O   0  0  0  0  0  0  0  0  0  0  0  0
   10.6256  -15.0906   24.0736 O   0  0  0  0  0  0  0  0  0  0  0  0
   14.1500  -18.6591   23.6821 C   0  0  0  0  0  0  0  0  0  0  0  0
    8.4061  -12.4407   26.8533 C   0  0  2  0  0  0  0  0  0  0  0  0
    7.7953  -13.8085   27.0163 C   0  0  0  0  0  0  0  0  0  0  0  0
    6.3772  -13.6971   26.4225 C   0  0  0  0  0  0  0  0  0  0  0  0
    8.4993  -14.8577   26.2091 C   0  0  1  0  0  0  0  0  0  0  0  0
    9.8362  -15.2655   26.7265 N   0  0  0  0  0  0  0  0  0  0  0  0
   10.3939  -16.3753   25.9334 C   0  0  0  0  0  0  0  0  0  0  0  0
    9.8569  -15.6078   28.1694 O   0  0  0  0  0  0  0  0  0  0  0  0
    9.5578  -16.7704   28.5423 O   0  0  0  0  0  0  0  0  0  0  0  0
  2  4  1  0
  2  1  1  0
  3  2  2  0
  5  4  1  0
  6  5  1  0
  7  6  1  0
  8  9  1  1
  8  7  1  0
 10  8  1  0
 11 10  2  0
 12 10  1  0
 13 14  1  6
 13 12  1  0
 15 19  1  0
 15 14  1  0
 16 15  2  0
 17 13  1  0
 18 17  2  0
 21 20  1  1
 22 21  1  0
 23 21  1  0
 24 23  1  6
 24 25  1  0
 25 17  1  0
 26 28  1  0
 26 24  1  0
 27 26  2  0
M  END
$$$$
