RDL.pdb
     RDKit          3D

 28 27  0  0  1  0  0  0  0  0999 V2000
    7.6727  -12.6407   17.9465 N   0  0  0  0  0  0  0  0  0  0  0  0
    8.7792  -12.8110   18.8329 C   0  0  0  0  0  0  0  0  0  0  0  0
    9.1709  -11.8172   19.5378 N   0  0  0  0  0  0  0  0  0  0  0  0
    9.4000  -14.0848   18.8921 N   0  0  0  0  0  0  0  0  0  0  0  0
    8.8897  -15.0683   19.8655 C   0  0  0  0  0  0  0  0  0  0  0  0
    7.4560  -14.7557   20.0945 C   0  0  0  0  0  0  0  0  0  0  0  0
    6.7265  -15.5775   21.0848 C   0  0  0  0  0  0  0  0  0  0  0  0
    7.1727  -17.0005   21.2464 C   0  0  2  0  0  0  0  0  0  0  0  0
    6.0776  -17.8788   20.9227 N   0  0  0  0  0  0  0  0  0  0  0  0
    7.4817  -17.1686   22.7041 C   0  0  0  0  0  0  0  0  0  0  0  0
    6.4905  -17.2897   23.4815 O   0  0  0  0  0  0  0  0  0  0  0  0
   10.0243  -11.7930   20.0995 N   0  0  0  0  0  0  0  0  0  0  0  0
    8.8011  -17.1919   23.1921 C   0  0  2  0  0  0  0  0  0  0  0  0
    8.9682  -17.4242   24.6631 C   0  0  0  0  0  0  0  0  0  0  0  0
   10.0157  -18.4856   24.7518 C   0  0  0  0  0  0  0  0  0  0  0  0
   10.3860  -18.9651   26.0665 O   0  0  0  0  0  0  0  0  0  0  0  0
    9.8016  -18.6678   27.1289 C   0  0  0  0  0  0  0  0  0  0  0  0
    9.3061  -16.1306   25.2708 O   0  0  0  0  0  0  0  0  0  0  0  0
   10.3773  -15.5693   24.8383 O   0  0  0  0  0  0  0  0  0  0  0  0
   11.4828  -19.8412   26.2486 C   0  0  0  0  0  0  0  0  0  0  0  0
    5.9480  -12.1371   26.3211 C   0  0  1  0  0  0  0  0  0  0  0  0
    7.1181  -13.0127   25.9538 C   0  0  0  0  0  0  0  0  0  0  0  0
    7.8656  -12.2517   24.8411 C   0  0  0  0  0  0  0  0  0  0  0  0
    8.0991  -13.1705   27.0765 C   0  0  2  0  0  0  0  0  0  0  0  0
    9.1683  -14.1833   26.8475 N   0  0  0  0  0  0  0  0  0  0  0  0
    8.6122  -15.4155   26.2609 C   0  0  0  0  0  0  0  0  0  0  0  0
    9.9730  -14.5079   28.0503 O   0  0  0  0  0  0  0  0  0  0  0  0
   10.5888  -13.5957   28.6576 O   0  0  0  0  0  0  0  0  0  0  0  0
  2  4  1  0
  2  1  1  0
  3  2  2  0
  5  4  1  0
  6  5  1  0
  7  6  1  0
  8  9  1  1
  8  7  1  0
 10  8  1  0
 11 10  2  0
 12 10  1  0
 13 14  1  6
 13 12  1  0
 15 19  1  0
 15 14  1  0
 16 15  2  0
 17 13  1  0
 18 17  2  0
 21 20  1  6
 22 21  1  0
 23 21  1  0
 24 23  1  6
 24 25  1  0
 25 17  1  0
 26 28  1  0
 26 24  1  0
 27 26  2  0
M  END
$$$$
