RDL.pdb
     RDKit          3D

 28 27  0  0  1  0  0  0  0  0999 V2000
    7.4882  -12.7095   16.1097 N   0  0  0  0  0  0  0  0  0  0  0  0
    8.2222  -13.9146   15.8913 C   0  0  0  0  0  0  0  0  0  0  0  0
    7.9528  -14.6305   14.8651 N   0  0  0  0  0  0  0  0  0  0  0  0
    9.2251  -14.2675   16.8300 N   0  0  0  0  0  0  0  0  0  0  0  0
    9.1159  -13.7405   18.2031 C   0  0  0  0  0  0  0  0  0  0  0  0
    7.7324  -14.0133   18.6690 C   0  0  0  0  0  0  0  0  0  0  0  0
    7.5532  -14.4177   20.0806 C   0  0  0  0  0  0  0  0  0  0  0  0
    8.5535  -15.3844   20.6418 C   0  0  2  0  0  0  0  0  0  0  0  0
    8.6310  -16.5371   19.7812 N   0  0  0  0  0  0  0  0  0  0  0  0
    7.9948  -15.8311   21.9597 C   0  0  0  0  0  0  0  0  0  0  0  0
    6.7336  -15.8508   22.0613 O   0  0  0  0  0  0  0  0  0  0  0  0
    8.3967  -15.5218   14.6352 N   0  0  0  0  0  0  0  0  0  0  0  0
    8.8211  -16.2106   23.0334 C   0  0  1  0  0  0  0  0  0  0  0  0
    8.1489  -16.8817   24.1925 C   0  0  0  0  0  0  0  0  0  0  0  0
    8.7033  -18.2689   24.1872 C   0  0  0  0  0  0  0  0  0  0  0  0
   10.1423  -18.4243   24.1621 O   0  0  0  0  0  0  0  0  0  0  0  0
   10.9655  -17.4867   24.2046 C   0  0  0  0  0  0  0  0  0  0  0  0
    8.4359  -16.0757   25.3862 O   0  0  0  0  0  0  0  0  0  0  0  0
    7.8583  -16.4514   26.4701 O   0  0  0  0  0  0  0  0  0  0  0  0
   10.7434  -19.7034   24.0837 C   0  0  0  0  0  0  0  0  0  0  0  0
    5.9819  -12.2481   26.3237 C   0  0  1  0  0  0  0  0  0  0  0  0
    7.2927  -12.8761   25.9260 C   0  0  0  0  0  0  0  0  0  0  0  0
    8.2150  -11.6983   25.5547 C   0  0  0  0  0  0  0  0  0  0  0  0
    7.9652  -13.5839   27.0638 C   0  0  2  0  0  0  0  0  0  0  0  0
    9.3047  -14.1578   26.7514 N   0  0  0  0  0  0  0  0  0  0  0  0
    9.2643  -14.9479   25.5082 C   0  0  0  0  0  0  0  0  0  0  0  0
    9.8987  -14.9606   27.8480 O   0  0  0  0  0  0  0  0  0  0  0  0
    9.9509  -16.2128   27.7509 O   0  0  0  0  0  0  0  0  0  0  0  0
  2  4  1  0
  2  1  1  0
  3  2  2  0
  5  4  1  0
  6  5  1  0
  7  6  1  0
  8  9  1  6
  8  7  1  0
 10  8  1  0
 11 10  2  0
 12 10  1  0
 13 14  1  6
 13 12  1  0
 15 19  1  0
 15 14  1  0
 16 15  2  0
 17 13  1  0
 18 17  2  0
 21 20  1  6
 22 21  1  0
 23 21  1  0
 24 23  1  6
 24 25  1  0
 25 17  1  0
 26 28  1  0
 26 24  1  0
 27 26  2  0
M  END
$$$$
