RDL.pdb
     RDKit          3D

 28 27  0  0  1  0  0  0  0  0999 V2000
    7.1348  -15.7781   15.5591 N   0  0  0  0  0  0  0  0  0  0  0  0
    8.1738  -15.0046   14.9582 C   0  0  0  0  0  0  0  0  0  0  0  0
    8.8177  -15.4915   13.9651 N   0  0  0  0  0  0  0  0  0  0  0  0
    8.4482  -13.7205   15.4942 N   0  0  0  0  0  0  0  0  0  0  0  0
    7.7023  -13.2866   16.6902 C   0  0  0  0  0  0  0  0  0  0  0  0
    8.2892  -13.9968   17.8550 C   0  0  0  0  0  0  0  0  0  0  0  0
    7.6566  -13.7846   19.1753 C   0  0  0  0  0  0  0  0  0  0  0  0
    8.5531  -13.3441   20.2944 C   0  0  2  0  0  0  0  0  0  0  0  0
    9.8988  -13.2112   19.7976 N   0  0  0  0  0  0  0  0  0  0  0  0
    8.5398  -14.4628   21.2928 C   0  0  0  0  0  0  0  0  0  0  0  0
    7.4044  -14.8337   21.7108 O   0  0  0  0  0  0  0  0  0  0  0  0
    9.5446  -15.0038   13.4376 N   0  0  0  0  0  0  0  0  0  0  0  0
    9.7222  -15.0750   21.7474 C   0  0  1  0  0  0  0  0  0  0  0  0
    9.5621  -16.2051   22.7184 C   0  0  0  0  0  0  0  0  0  0  0  0
   10.7009  -17.1211   22.4088 C   0  0  0  0  0  0  0  0  0  0  0  0
   10.8936  -18.2756   23.2605 O   0  0  0  0  0  0  0  0  0  0  0  0
    9.9818  -19.0203   23.6759 C   0  0  0  0  0  0  0  0  0  0  0  0
    9.5507  -15.6208   24.0657 O   0  0  0  0  0  0  0  0  0  0  0  0
   10.5837  -14.9281   24.3866 O   0  0  0  0  0  0  0  0  0  0  0  0
   12.1831  -18.6581   23.7015 C   0  0  0  0  0  0  0  0  0  0  0  0
    5.7875  -12.6800   25.9968 C   0  0  1  0  0  0  0  0  0  0  0  0
    7.1706  -13.2277   25.7564 C   0  0  0  0  0  0  0  0  0  0  0  0
    8.1264  -12.0396   25.9817 C   0  0  0  0  0  0  0  0  0  0  0  0
    7.5640  -14.2698   26.7601 C   0  0  2  0  0  0  0  0  0  0  0  0
    8.7432  -15.1000   26.3839 N   0  0  0  0  0  0  0  0  0  0  0  0
    8.5579  -15.7102   25.0554 C   0  0  0  0  0  0  0  0  0  0  0  0
    9.1030  -16.1401   27.3782 O   0  0  0  0  0  0  0  0  0  0  0  0
    8.9974  -17.3565   27.0791 O   0  0  0  0  0  0  0  0  0  0  0  0
  2  4  1  0
  2  1  1  0
  3  2  2  0
  5  4  1  0
  6  5  1  0
  7  6  1  0
  8  9  1  6
  8  7  1  0
 10  8  1  0
 11 10  2  0
 12 10  1  0
 13 14  1  1
 13 12  1  0
 15 19  1  0
 15 14  1  0
 16 15  2  0
 17 13  1  0
 18 17  2  0
 21 20  1  6
 22 21  1  0
 23 21  1  0
 24 23  1  6
 24 25  1  0
 25 17  1  0
 26 28  1  0
 26 24  1  0
 27 26  2  0
M  END
$$$$
