RDL.pdb
     RDKit          3D

 28 27  0  0  1  0  0  0  0  0999 V2000
    7.8471  -13.2350   17.0567 N   0  0  0  0  0  0  0  0  0  0  0  0
    8.5806  -12.9872   18.2565 C   0  0  0  0  0  0  0  0  0  0  0  0
    9.4481  -12.0464   18.2728 N   0  0  0  0  0  0  0  0  0  0  0  0
    8.3128  -13.8025   19.3856 N   0  0  0  0  0  0  0  0  0  0  0  0
    7.2015  -14.7687   19.3045 C   0  0  0  0  0  0  0  0  0  0  0  0
    7.2219  -15.5670   20.5565 C   0  0  0  0  0  0  0  0  0  0  0  0
    7.5055  -17.0143   20.4403 C   0  0  0  0  0  0  0  0  0  0  0  0
    7.4568  -17.8191   21.7052 C   0  0  2  0  0  0  0  0  0  0  0  0
    6.4893  -17.2360   22.5994 N   0  0  0  0  0  0  0  0  0  0  0  0
    8.8102  -17.6740   22.3341 C   0  0  0  0  0  0  0  0  0  0  0  0
    9.7686  -18.2631   21.7545 O   0  0  0  0  0  0  0  0  0  0  0  0
   10.0847  -11.8450   19.0465 N   0  0  0  0  0  0  0  0  0  0  0  0
    9.0146  -16.9244   23.5070 C   0  0  2  0  0  0  0  0  0  0  0  0
   10.4378  -16.6765   23.9053 C   0  0  0  0  0  0  0  0  0  0  0  0
   11.0327  -15.9739   22.7288 C   0  0  0  0  0  0  0  0  0  0  0  0
   12.4733  -15.8433   22.6738 O   0  0  0  0  0  0  0  0  0  0  0  0
   13.2852  -16.7720   22.8655 C   0  0  0  0  0  0  0  0  0  0  0  0
   10.4105  -15.9199   25.1637 O   0  0  0  0  0  0  0  0  0  0  0  0
   11.5296  -15.4143   25.5398 O   0  0  0  0  0  0  0  0  0  0  0  0
   13.0895  -14.6016   22.3872 C   0  0  0  0  0  0  0  0  0  0  0  0
    5.9834  -13.5039   27.1361 C   0  0  1  0  0  0  0  0  0  0  0  0
    7.3219  -13.9763   26.6302 C   0  0  0  0  0  0  0  0  0  0  0  0
    7.9163  -12.7780   25.8643 C   0  0  0  0  0  0  0  0  0  0  0  0
    8.2867  -14.2778   27.7376 C   0  0  2  0  0  0  0  0  0  0  0  0
    9.5094  -15.0251   27.3281 N   0  0  0  0  0  0  0  0  0  0  0  0
    9.3220  -15.6662   26.0146 C   0  0  0  0  0  0  0  0  0  0  0  0
    9.9799  -16.0217   28.3207 O   0  0  0  0  0  0  0  0  0  0  0  0
   10.2368  -15.6616   29.4973 O   0  0  0  0  0  0  0  0  0  0  0  0
  2  4  1  0
  2  1  1  0
  3  2  2  0
  5  4  1  0
  6  5  1  0
  7  6  1  0
  8  9  1  1
  8  7  1  0
 10  8  1  0
 11 10  2  0
 12 10  1  0
 13 14  1  6
 13 12  1  0
 15 19  1  0
 15 14  1  0
 16 15  2  0
 17 13  1  0
 18 17  2  0
 21 20  1  6
 22 21  1  0
 23 21  1  0
 24 23  1  6
 24 25  1  0
 25 17  1  0
 26 28  1  0
 26 24  1  0
 27 26  2  0
M  END
$$$$
