CAA.pdb
     RDKit          3D

 17 16  0  0  1  0  0  0  0  0999 V2000
   15.4784  -10.3232  -12.5388 N   0  0  0  0  0  0  0  0  0  0  0  0
   15.8341   -8.9981  -12.0046 C   0  0  1  0  0  0  0  0  0  0  0  0
   16.3599   -9.2698  -10.6124 C   0  0  0  0  0  0  0  0  0  0  0  0
   15.0913   -9.3556   -9.3530 S   0  0  0  0  0  0  0  0  0  0  0  0
   16.8022   -8.3522  -12.8965 C   0  0  0  0  0  0  0  0  0  0  0  0
   17.7353   -9.0536  -13.3793 O   0  0  0  0  0  0  0  0  0  0  0  0
   17.0463   -5.0675  -14.6517 C   0  0  0  0  0  0  0  0  0  0  0  0
   17.6885   -6.3484  -14.1826 C   0  0  2  0  0  0  0  0  0  0  0  0
   16.7710   -6.9831  -13.2643 N   0  0  0  0  0  0  0  0  0  0  0  0
   19.0292   -6.1587  -13.6256 C   0  0  0  0  0  0  0  0  0  0  0  0
   19.1425   -5.8781  -12.4051 O   0  0  0  0  0  0  0  0  0  0  0  0
   22.5798   -6.6368  -14.9139 C   0  0  0  0  0  0  0  0  0  0  0  0
   21.5477   -6.2326  -13.8923 C   0  0  2  0  0  0  0  0  0  0  0  0
   20.2035   -6.2797  -14.4103 N   0  0  0  0  0  0  0  0  0  0  0  0
   21.8518   -4.8609  -13.3706 C   0  0  0  0  0  0  0  0  0  0  0  0
   21.3443   -3.8330  -13.8377 O   0  0  0  0  0  0  0  0  0  0  0  0
   22.7433   -4.7307  -12.3147 O   0  0  0  0  0  0  0  0  0  0  0  0
  2  1  1  6
  2  3  1  0
  4  3  1  0
  5  2  1  0
  6  5  2  0
  8  7  1  1
  8  9  1  0
  9  5  1  0
 10  8  1  0
 10 14  1  0
 11 10  2  0
 13 15  1  0
 13 12  1  6
 13 14  1  0
 15 17  1  0
 16 15  2  0
M  END
$$$$
