CAA.pdb
     RDKit          3D

 17 16  0  0  1  0  0  0  0  0999 V2000
   20.5483  -10.2937  -18.3498 N   0  0  0  0  0  0  0  0  0  0  0  0
   20.7330   -9.7557  -16.9918 C   0  0  1  0  0  0  0  0  0  0  0  0
   22.2192   -9.4989  -16.8754 C   0  0  0  0  0  0  0  0  0  0  0  0
   23.1581  -10.8920  -16.2584 S   0  0  0  0  0  0  0  0  0  0  0  0
   19.9019   -8.5601  -16.8195 C   0  0  0  0  0  0  0  0  0  0  0  0
   19.8163   -7.7443  -17.7802 O   0  0  0  0  0  0  0  0  0  0  0  0
   17.0792   -7.5658  -14.7430 C   0  0  0  0  0  0  0  0  0  0  0  0
   18.3081   -7.1014  -15.4826 C   0  0  2  0  0  0  0  0  0  0  0  0
   19.1768   -8.2450  -15.6423 N   0  0  0  0  0  0  0  0  0  0  0  0
   18.9676   -5.9544  -14.8556 C   0  0  0  0  0  0  0  0  0  0  0  0
   18.3158   -4.8892  -14.7073 O   0  0  0  0  0  0  0  0  0  0  0  0
   22.1593   -5.4104  -12.9032 C   0  0  0  0  0  0  0  0  0  0  0  0
   20.9870   -4.9293  -13.7196 C   0  0  2  0  0  0  0  0  0  0  0  0
   20.3123   -5.9998  -14.4096 N   0  0  0  0  0  0  0  0  0  0  0  0
   21.4365   -3.8871  -14.6984 C   0  0  0  0  0  0  0  0  0  0  0  0
   21.8859   -2.7864  -14.3537 O   0  0  0  0  0  0  0  0  0  0  0  0
   21.3471   -4.1632  -16.0557 O   0  0  0  0  0  0  0  0  0  0  0  0
  2  1  1  6
  2  3  1  0
  4  3  1  0
  5  2  1  0
  6  5  2  0
  8  7  1  1
  8  9  1  0
  9  5  1  0
 10  8  1  0
 10 14  1  0
 11 10  2  0
 13 15  1  0
 13 12  1  6
 13 14  1  0
 15 17  1  0
 16 15  2  0
M  END
$$$$
