CAA.pdb
     RDKit          3D

 17 16  0  0  1  0  0  0  0  0999 V2000
   18.5975  -14.0861  -16.7689 N   0  0  0  0  0  0  0  0  0  0  0  0
   17.8809  -12.8028  -16.6820 C   0  0  1  0  0  0  0  0  0  0  0  0
   17.1941  -12.8328  -15.3345 C   0  0  0  0  0  0  0  0  0  0  0  0
   15.7642  -13.9066  -15.2637 S   0  0  0  0  0  0  0  0  0  0  0  0
   18.8300  -11.6976  -16.8477 C   0  0  0  0  0  0  0  0  0  0  0  0
   19.9511  -11.7769  -16.2709 O   0  0  0  0  0  0  0  0  0  0  0  0
   19.0758   -8.6383  -18.9736 C   0  0  0  0  0  0  0  0  0  0  0  0
   19.4963   -9.4198  -17.7548 C   0  0  2  0  0  0  0  0  0  0  0  0
   18.5836  -10.5314  -17.6158 N   0  0  0  0  0  0  0  0  0  0  0  0
   19.6030   -8.6015  -16.5454 C   0  0  0  0  0  0  0  0  0  0  0  0
   18.5797   -8.4399  -15.8328 O   0  0  0  0  0  0  0  0  0  0  0  0
   22.4193   -7.0655  -14.5320 C   0  0  0  0  0  0  0  0  0  0  0  0
   20.9800   -7.1776  -14.9657 C   0  0  2  0  0  0  0  0  0  0  0  0
   20.8161   -7.9852  -16.1481 N   0  0  0  0  0  0  0  0  0  0  0  0
   20.4036   -5.8123  -15.1894 C   0  0  0  0  0  0  0  0  0  0  0  0
   20.1576   -5.3595  -16.3148 O   0  0  0  0  0  0  0  0  0  0  0  0
   20.1311   -5.0140  -14.0871 O   0  0  0  0  0  0  0  0  0  0  0  0
  2  1  1  1
  2  3  1  0
  4  3  1  0
  5  2  1  0
  6  5  2  0
  8  7  1  6
  8  9  1  0
  9  5  1  0
 10  8  1  0
 10 14  1  0
 11 10  2  0
 13 15  1  0
 13 12  1  6
 13 14  1  0
 15 17  1  0
 16 15  2  0
M  END
$$$$
