CAA.pdb
     RDKit          3D

 17 16  0  0  1  0  0  0  0  0999 V2000
   18.5984  -13.4855  -16.8410 N   0  0  0  0  0  0  0  0  0  0  0  0
   19.3826  -12.2585  -16.6233 C   0  0  1  0  0  0  0  0  0  0  0  0
   20.2693  -12.1436  -17.8435 C   0  0  0  0  0  0  0  0  0  0  0  0
   21.7617  -13.1278  -17.7612 S   0  0  0  0  0  0  0  0  0  0  0  0
   18.4753  -11.1229  -16.4313 C   0  0  0  0  0  0  0  0  0  0  0  0
   17.7177  -10.7911  -17.3861 O   0  0  0  0  0  0  0  0  0  0  0  0
   17.2677   -9.0343  -13.6046 C   0  0  0  0  0  0  0  0  0  0  0  0
   17.5686   -9.1751  -15.0752 C   0  0  2  0  0  0  0  0  0  0  0  0
   18.3811  -10.3584  -15.2407 N   0  0  0  0  0  0  0  0  0  0  0  0
   18.1636   -7.9749  -15.6663 C   0  0  0  0  0  0  0  0  0  0  0  0
   19.4135   -7.8412  -15.6337 O   0  0  0  0  0  0  0  0  0  0  0  0
   16.8632   -4.9391  -17.5687 C   0  0  0  0  0  0  0  0  0  0  0  0
   17.9145   -5.7534  -16.8588 C   0  0  2  0  0  0  0  0  0  0  0  0
   17.3837   -6.9589  -16.2736 N   0  0  0  0  0  0  0  0  0  0  0  0
   18.5850   -4.9215  -15.8078 C   0  0  0  0  0  0  0  0  0  0  0  0
   18.2377   -4.9264  -14.6197 O   0  0  0  0  0  0  0  0  0  0  0  0
   19.6451   -4.1057  -16.1780 O   0  0  0  0  0  0  0  0  0  0  0  0
  2  1  1  6
  2  3  1  0
  4  3  1  0
  5  2  1  0
  6  5  2  0
  8  7  1  1
  8  9  1  0
  9  5  1  0
 10  8  1  0
 10 14  1  0
 11 10  2  0
 13 15  1  0
 13 12  1  1
 13 14  1  0
 15 17  1  0
 16 15  2  0
M  END
$$$$
