CAA.pdb
     RDKit          3D

 17 16  0  0  1  0  0  0  0  0999 V2000
   16.3323  -10.7946  -11.2758 N   0  0  0  0  0  0  0  0  0  0  0  0
   16.9485   -9.4773  -11.0462 C   0  0  1  0  0  0  0  0  0  0  0  0
   17.5507   -9.0933  -12.3797 C   0  0  0  0  0  0  0  0  0  0  0  0
   19.0919   -9.9222  -12.7545 S   0  0  0  0  0  0  0  0  0  0  0  0
   15.9349   -8.5398  -10.5529 C   0  0  0  0  0  0  0  0  0  0  0  0
   14.8066   -8.5212  -11.1207 O   0  0  0  0  0  0  0  0  0  0  0  0
   15.2138   -6.5863   -7.5426 C   0  0  0  0  0  0  0  0  0  0  0  0
   15.1757   -6.6380   -9.0489 C   0  0  2  0  0  0  0  0  0  0  0  0
   16.1258   -7.6407   -9.4730 N   0  0  0  0  0  0  0  0  0  0  0  0
   15.3851   -5.3348   -9.6826 C   0  0  0  0  0  0  0  0  0  0  0  0
   16.5628   -4.9469   -9.8922 O   0  0  0  0  0  0  0  0  0  0  0  0
   13.1461   -2.6373  -11.1740 C   0  0  0  0  0  0  0  0  0  0  0  0
   14.4584   -3.2071  -10.6991 C   0  0  2  0  0  0  0  0  0  0  0  0
   14.3106   -4.4947  -10.0686 N   0  0  0  0  0  0  0  0  0  0  0  0
   15.1255   -2.2469   -9.7614 C   0  0  0  0  0  0  0  0  0  0  0  0
   15.0189   -2.3213   -8.5304 O   0  0  0  0  0  0  0  0  0  0  0  0
   15.8999   -1.2246  -10.2921 O   0  0  0  0  0  0  0  0  0  0  0  0
  2  1  1  6
  2  3  1  0
  4  3  1  0
  5  2  1  0
  6  5  2  0
  8  7  1  1
  8  9  1  0
  9  5  1  0
 10  8  1  0
 10 14  1  0
 11 10  2  0
 13 15  1  0
 13 12  1  1
 13 14  1  0
 15 17  1  0
 16 15  2  0
M  END
$$$$
