CAA.pdb
     RDKit          3D

 17 16  0  0  1  0  0  0  0  0999 V2000
   17.5268  -11.5049  -16.4523 N   0  0  0  0  0  0  0  0  0  0  0  0
   18.4802  -10.6014  -17.1174 C   0  0  1  0  0  0  0  0  0  0  0  0
   17.6326   -9.7566  -18.0428 C   0  0  0  0  0  0  0  0  0  0  0  0
   17.1048  -10.6014  -19.5296 S   0  0  0  0  0  0  0  0  0  0  0  0
   19.2154   -9.8330  -16.1080 C   0  0  0  0  0  0  0  0  0  0  0  0
   18.5584   -9.2534  -15.1980 O   0  0  0  0  0  0  0  0  0  0  0  0
   22.7934   -9.4217  -15.1255 C   0  0  0  0  0  0  0  0  0  0  0  0
   21.3615   -8.9531  -15.0711 C   0  0  2  0  0  0  0  0  0  0  0  0
   20.6256   -9.6889  -16.0737 N   0  0  0  0  0  0  0  0  0  0  0  0
   21.2178   -7.5013  -15.1944 C   0  0  0  0  0  0  0  0  0  0  0  0
   21.2747   -6.9833  -16.3388 O   0  0  0  0  0  0  0  0  0  0  0  0
   20.0361   -4.7019  -12.9599 C   0  0  0  0  0  0  0  0  0  0  0  0
   20.8076   -5.2340  -14.1406 C   0  0  2  0  0  0  0  0  0  0  0  0
   21.0170   -6.6584  -14.0725 N   0  0  0  0  0  0  0  0  0  0  0  0
   22.1225   -4.5242  -14.2565 C   0  0  0  0  0  0  0  0  0  0  0  0
   23.1862   -5.0011  -13.8402 O   0  0  0  0  0  0  0  0  0  0  0  0
   22.1552   -3.2735  -14.8576 O   0  0  0  0  0  0  0  0  0  0  0  0
  2  1  1  1
  2  3  1  0
  4  3  1  0
  5  2  1  0
  6  5  2  0
  8  7  1  6
  8  9  1  0
  9  5  1  0
 10  8  1  0
 10 14  1  0
 11 10  2  0
 13 15  1  0
 13 12  1  1
 13 14  1  0
 15 17  1  0
 16 15  2  0
M  END
$$$$
