CAA.pdb
     RDKit          3D

 17 16  0  0  1  0  0  0  0  0999 V2000
   19.2936  -11.7500  -17.6236 N   0  0  0  0  0  0  0  0  0  0  0  0
   18.9010  -10.9366  -16.4609 C   0  0  1  0  0  0  0  0  0  0  0  0
   19.4338  -11.6907  -15.2626 C   0  0  0  0  0  0  0  0  0  0  0  0
   18.4647  -13.1251  -14.8084 S   0  0  0  0  0  0  0  0  0  0  0  0
   19.4398   -9.5807  -16.6051 C   0  0  0  0  0  0  0  0  0  0  0  0
   20.5890   -9.4414  -17.1108 O   0  0  0  0  0  0  0  0  0  0  0  0
   18.1203   -6.1047  -16.2378 C   0  0  0  0  0  0  0  0  0  0  0  0
   19.2831   -7.0574  -16.3529 C   0  0  2  0  0  0  0  0  0  0  0  0
   18.7613   -8.3979  -16.2159 N   0  0  0  0  0  0  0  0  0  0  0  0
   20.3741   -6.7611  -15.4225 C   0  0  0  0  0  0  0  0  0  0  0  0
   20.3403   -7.2658  -14.2712 O   0  0  0  0  0  0  0  0  0  0  0  0
   23.6462   -4.8128  -15.5886 C   0  0  0  0  0  0  0  0  0  0  0  0
   22.5639   -5.6007  -14.8958 C   0  0  2  0  0  0  0  0  0  0  0  0
   21.4662   -5.9274  -15.7708 N   0  0  0  0  0  0  0  0  0  0  0  0
   22.0644   -4.8460  -13.7012 C   0  0  0  0  0  0  0  0  0  0  0  0
   21.1287   -4.0375  -13.7562 O   0  0  0  0  0  0  0  0  0  0  0  0
   22.6756   -5.0593  -12.4734 O   0  0  0  0  0  0  0  0  0  0  0  0
  2  1  1  6
  2  3  1  0
  4  3  1  0
  5  2  1  0
  6  5  2  0
  8  7  1  1
  8  9  1  0
  9  5  1  0
 10  8  1  0
 10 14  1  0
 11 10  2  0
 13 15  1  0
 13 12  1  6
 13 14  1  0
 15 17  1  0
 16 15  2  0
M  END
$$$$
