CAA.pdb
     RDKit          3D

 17 16  0  0  1  0  0  0  0  0999 V2000
   21.8976  -12.1706  -17.7772 N   0  0  0  0  0  0  0  0  0  0  0  0
   21.7367  -11.6784  -16.3990 C   0  0  1  0  0  0  0  0  0  0  0  0
   23.0331  -12.0354  -15.7060 C   0  0  0  0  0  0  0  0  0  0  0  0
   23.1726  -13.7617  -15.2550 S   0  0  0  0  0  0  0  0  0  0  0  0
   21.4434  -10.2420  -16.4210 C   0  0  0  0  0  0  0  0  0  0  0  0
   22.1528   -9.4951  -17.1522 O   0  0  0  0  0  0  0  0  0  0  0  0
   18.6786   -8.0533  -15.2076 C   0  0  0  0  0  0  0  0  0  0  0  0
   20.0875   -8.2108  -15.7204 C   0  0  2  0  0  0  0  0  0  0  0  0
   20.4111   -9.6184  -15.6752 N   0  0  0  0  0  0  0  0  0  0  0  0
   21.0602   -7.3688  -15.0214 C   0  0  0  0  0  0  0  0  0  0  0  0
   21.6011   -7.8107  -13.9757 O   0  0  0  0  0  0  0  0  0  0  0  0
   22.6386   -3.9512  -15.6209 C   0  0  0  0  0  0  0  0  0  0  0  0
   22.3549   -5.1998  -14.8253 C   0  0  2  0  0  0  0  0  0  0  0  0
   21.4148   -6.0749  -15.4792 N   0  0  0  0  0  0  0  0  0  0  0  0
   21.8570   -4.8358  -13.4594 C   0  0  0  0  0  0  0  0  0  0  0  0
   20.6567   -4.6880  -13.1956 O   0  0  0  0  0  0  0  0  0  0  0  0
   22.7800   -4.6547  -12.4387 O   0  0  0  0  0  0  0  0  0  0  0  0
  2  1  1  6
  2  3  1  0
  4  3  1  0
  5  2  1  0
  6  5  2  0
  8  7  1  1
  8  9  1  0
  9  5  1  0
 10  8  1  0
 10 14  1  0
 11 10  2  0
 13 15  1  0
 13 12  1  6
 13 14  1  0
 15 17  1  0
 16 15  2  0
M  END
$$$$
