CAA.pdb
     RDKit          3D

 17 16  0  0  1  0  0  0  0  0999 V2000
   21.0943   -9.5833  -16.2338 N   0  0  0  0  0  0  0  0  0  0  0  0
   20.8269   -8.4977  -15.2757 C   0  0  1  0  0  0  0  0  0  0  0  0
   22.1728   -7.8488  -15.0396 C   0  0  0  0  0  0  0  0  0  0  0  0
   22.1249   -6.4413  -13.9353 S   0  0  0  0  0  0  0  0  0  0  0  0
   19.8130   -7.5937  -15.8276 C   0  0  0  0  0  0  0  0  0  0  0  0
   19.9469   -7.1967  -17.0194 O   0  0  0  0  0  0  0  0  0  0  0  0
   16.3754   -6.5266  -15.0335 C   0  0  0  0  0  0  0  0  0  0  0  0
   17.7167   -6.1728  -15.6239 C   0  0  2  0  0  0  0  0  0  0  0  0
   18.6786   -7.1248  -15.1177 N   0  0  0  0  0  0  0  0  0  0  0  0
   18.1044   -4.7792  -15.3972 C   0  0  0  0  0  0  0  0  0  0  0  0
   18.6965   -4.4829  -14.3280 O   0  0  0  0  0  0  0  0  0  0  0  0
   18.0415   -1.5615  -17.4265 C   0  0  0  0  0  0  0  0  0  0  0  0
   18.1784   -2.3635  -16.1575 C   0  0  2  0  0  0  0  0  0  0  0  0
   17.8376   -3.7524  -16.3372 N   0  0  0  0  0  0  0  0  0  0  0  0
   17.3339   -1.7608  -15.0759 C   0  0  0  0  0  0  0  0  0  0  0  0
   16.2804   -2.2738  -14.6770 O   0  0  0  0  0  0  0  0  0  0  0  0
   17.7473   -0.5721  -14.4905 O   0  0  0  0  0  0  0  0  0  0  0  0
  2  1  1  6
  2  3  1  0
  4  3  1  0
  5  2  1  0
  6  5  2  0
  8  7  1  1
  8  9  1  0
  9  5  1  0
 10  8  1  0
 10 14  1  0
 11 10  2  0
 13 15  1  0
 13 12  1  6
 13 14  1  0
 15 17  1  0
 16 15  2  0
M  END
$$$$
