CAA.pdb
     RDKit          3D

 17 16  0  0  1  0  0  0  0  0999 V2000
   23.0934  -12.4375  -18.1395 N   0  0  0  0  0  0  0  0  0  0  0  0
   23.0670  -11.8754  -16.7790 C   0  0  1  0  0  0  0  0  0  0  0  0
   24.4779  -12.0473  -16.2611 C   0  0  0  0  0  0  0  0  0  0  0  0
   24.7905  -13.6351  -15.4969 S   0  0  0  0  0  0  0  0  0  0  0  0
   22.6123  -10.4825  -16.8313 C   0  0  0  0  0  0  0  0  0  0  0  0
   23.2429   -9.6718  -17.5667 O   0  0  0  0  0  0  0  0  0  0  0  0
   19.5258   -8.6544  -15.9416 C   0  0  0  0  0  0  0  0  0  0  0  0
   21.0102   -8.6136  -16.2022 C   0  0  2  0  0  0  0  0  0  0  0  0
   21.5043   -9.9684  -16.1110 N   0  0  0  0  0  0  0  0  0  0  0  0
   21.7283   -7.6743  -15.3387 C   0  0  0  0  0  0  0  0  0  0  0  0
   22.1293   -8.0718  -14.2150 O   0  0  0  0  0  0  0  0  0  0  0  0
   23.0575   -4.1245  -15.6991 C   0  0  0  0  0  0  0  0  0  0  0  0
   22.7364   -5.3849  -14.9371 C   0  0  2  0  0  0  0  0  0  0  0  0
   21.9884   -6.3346  -15.7218 N   0  0  0  0  0  0  0  0  0  0  0  0
   21.9885   -5.0494  -13.6824 C   0  0  0  0  0  0  0  0  0  0  0  0
   20.7528   -5.0621  -13.6091 O   0  0  0  0  0  0  0  0  0  0  0  0
   22.7094   -4.7079  -12.5465 O   0  0  0  0  0  0  0  0  0  0  0  0
  2  1  1  6
  2  3  1  0
  4  3  1  0
  5  2  1  0
  6  5  2  0
  8  7  1  1
  8  9  1  0
  9  5  1  0
 10  8  1  0
 10 14  1  0
 11 10  2  0
 13 15  1  0
 13 12  1  6
 13 14  1  0
 15 17  1  0
 16 15  2  0
M  END
$$$$
