GSD.pdb
     RDKit          3D

 19 18  0  0  1  0  0  0  0  0999 V2000
    8.1358  -13.4128   16.9731 N   0  0  0  0  0  0  0  0  0  0  0  0
    7.7235  -14.4324   17.9109 C   0  0  0  0  0  0  0  0  0  0  0  0
    8.3269  -14.1047   19.2401 C   0  0  0  0  0  0  0  0  0  0  0  0
    9.4143  -13.4838   19.3136 O   0  0  0  0  0  0  0  0  0  0  0  0
    6.6800  -15.4227   22.9915 O   0  0  0  0  0  0  0  0  0  0  0  0
    7.4482  -14.2466   22.8938 C   0  0  0  0  0  0  0  0  0  0  0  0
    8.3707  -14.2725   21.7038 C   0  0  2  0  0  0  0  0  0  0  0  0
    7.7162  -14.4701   20.4607 N   0  0  0  0  0  0  0  0  0  0  0  0
    9.4171  -15.2991   21.9478 C   0  0  0  0  0  0  0  0  0  0  0  0
    9.2942  -16.4035   21.3630 O   0  0  0  0  0  0  0  0  0  0  0  0
   10.5267  -15.0994   22.7921 N   0  0  0  0  0  0  0  0  0  0  0  0
   11.4922  -16.1798   23.1002 C   0  0  1  0  0  0  0  0  0  0  0  0
   12.8321  -15.5913   23.3933 C   0  0  0  0  0  0  0  0  0  0  0  0
   13.9112  -16.4297   22.8646 C   0  0  0  0  0  0  0  0  0  0  0  0
   13.7392  -17.5231   22.2874 O   0  0  0  0  0  0  0  0  0  0  0  0
   10.9824  -16.9567   24.2468 C   0  0  0  0  0  0  0  0  0  0  0  0
   10.1396  -16.5924   25.0682 O   0  0  0  0  0  0  0  0  0  0  0  0
   15.2692  -16.0432   22.9764 O   0  0  0  0  0  0  0  0  0  0  0  0
   11.4997  -18.2579   24.4435 O   0  0  0  0  0  0  0  0  0  0  0  0
  1  2  1  0
  3  4  2  0
  3  2  1  0
  5  6  1  0
  7  6  1  1
  7  8  1  0
  8  3  1  0
  9 11  1  0
  9  7  1  0
 10  9  2  0
 12 11  1  0
 12 16  1  0
 13 14  1  0
 12 13  1  1
 14 15  2  0
 16 19  1  0
 17 16  2  0
 18 14  1  0
M  END
$$$$
