GSD.pdb
     RDKit          3D

 19 18  0  0  1  0  0  0  0  0999 V2000
    3.2116  -19.2027   20.3829 N   0  0  0  0  0  0  0  0  0  0  0  0
    3.3986  -17.9405   21.0617 C   0  0  0  0  0  0  0  0  0  0  0  0
    4.8112  -17.8876   21.5518 C   0  0  0  0  0  0  0  0  0  0  0  0
    5.5751  -18.8723   21.4096 O   0  0  0  0  0  0  0  0  0  0  0  0
    6.5591  -14.4782   23.5355 O   0  0  0  0  0  0  0  0  0  0  0  0
    7.3024  -15.3502   22.7169 C   0  0  0  0  0  0  0  0  0  0  0  0
    6.6903  -16.7247   22.6548 C   0  0  2  0  0  0  0  0  0  0  0  0
    5.3504  -16.7476   22.1889 N   0  0  0  0  0  0  0  0  0  0  0  0
    6.8214  -17.3541   23.9946 C   0  0  0  0  0  0  0  0  0  0  0  0
    5.8924  -17.1652   24.8180 O   0  0  0  0  0  0  0  0  0  0  0  0
    7.9219  -18.1422   24.3840 N   0  0  0  0  0  0  0  0  0  0  0  0
    8.0379  -18.7257   25.7407 C   0  0  1  0  0  0  0  0  0  0  0  0
    7.9249  -20.2119   25.6626 C   0  0  0  0  0  0  0  0  0  0  0  0
    8.1156  -20.8319   26.9764 C   0  0  0  0  0  0  0  0  0  0  0  0
    8.1555  -20.2052   28.0553 O   0  0  0  0  0  0  0  0  0  0  0  0
    9.3293  -18.3134   26.3239 C   0  0  0  0  0  0  0  0  0  0  0  0
   10.2102  -17.6521   25.7720 O   0  0  0  0  0  0  0  0  0  0  0  0
    8.2730  -22.2325   27.1163 O   0  0  0  0  0  0  0  0  0  0  0  0
    9.6072  -18.7055   27.6537 O   0  0  0  0  0  0  0  0  0  0  0  0
  1  2  1  0
  3  4  2  0
  3  2  1  0
  5  6  1  0
  7  6  1  1
  7  8  1  0
  8  3  1  0
  9 11  1  0
  9  7  1  0
 10  9  2  0
 12 11  1  0
 12 16  1  0
 13 14  1  0
 12 13  1  6
 14 15  2  0
 16 19  1  0
 17 16  2  0
 18 14  1  0
M  END
$$$$
