GSD.pdb
     RDKit          3D

 19 18  0  0  1  0  0  0  0  0999 V2000
   -1.5995  -25.9090   28.4234 N   0  0  0  0  0  0  0  0  0  0  0  0
   -3.0214  -26.1062   28.2556 C   0  0  0  0  0  0  0  0  0  0  0  0
   -3.7281  -25.0719   29.0736 C   0  0  0  0  0  0  0  0  0  0  0  0
   -3.4895  -24.9527   30.2993 O   0  0  0  0  0  0  0  0  0  0  0  0
   -5.7133  -20.8897   29.8045 O   0  0  0  0  0  0  0  0  0  0  0  0
   -5.0075  -21.8009   28.9955 C   0  0  0  0  0  0  0  0  0  0  0  0
   -5.3547  -23.2299   29.3200 C   0  0  2  0  0  0  0  0  0  0  0  0
   -4.6839  -24.1907   28.5203 N   0  0  0  0  0  0  0  0  0  0  0  0
   -6.8313  -23.3795   29.2433 C   0  0  0  0  0  0  0  0  0  0  0  0
   -7.3479  -23.4594   28.1016 O   0  0  0  0  0  0  0  0  0  0  0  0
   -7.6713  -23.4352   30.3724 N   0  0  0  0  0  0  0  0  0  0  0  0
   -9.1359  -23.6275   30.2615 C   0  0  1  0  0  0  0  0  0  0  0  0
   -9.6348  -24.3978   31.4384 C   0  0  0  0  0  0  0  0  0  0  0  0
   -9.1695  -25.7868   31.4040 C   0  0  0  0  0  0  0  0  0  0  0  0
   -9.2447  -26.5335   30.4065 O   0  0  0  0  0  0  0  0  0  0  0  0
   -9.7811  -22.3032   30.1715 C   0  0  0  0  0  0  0  0  0  0  0  0
   -9.2402  -21.2072   30.3268 O   0  0  0  0  0  0  0  0  0  0  0  0
   -8.5825  -26.3973   32.5393 O   0  0  0  0  0  0  0  0  0  0  0  0
  -11.1634  -22.2621   29.8766 O   0  0  0  0  0  0  0  0  0  0  0  0
  1  2  1  0
  3  4  2  0
  3  2  1  0
  5  6  1  0
  7  6  1  6
  7  8  1  0
  8  3  1  0
  9 11  1  0
  9  7  1  0
 10  9  2  0
 12 11  1  0
 12 16  1  0
 13 14  1  0
 12 13  1  1
 14 15  2  0
 16 19  1  0
 17 16  2  0
 18 14  1  0
M  END
$$$$
