GSD.pdb
     RDKit          3D

 19 18  0  0  1  0  0  0  0  0999 V2000
   14.0037  -20.5446   17.2421 N   0  0  0  0  0  0  0  0  0  0  0  0
   13.4270  -20.7583   18.5500 C   0  0  0  0  0  0  0  0  0  0  0  0
   13.5586  -19.4845   19.3236 C   0  0  0  0  0  0  0  0  0  0  0  0
   14.2014  -18.5147   18.8548 O   0  0  0  0  0  0  0  0  0  0  0  0
   11.8821  -18.9049   23.2272 O   0  0  0  0  0  0  0  0  0  0  0  0
   12.0495  -17.8317   22.3311 C   0  0  0  0  0  0  0  0  0  0  0  0
   13.1378  -18.1007   21.3255 C   0  0  2  0  0  0  0  0  0  0  0  0
   12.9772  -19.3088   20.5993 N   0  0  0  0  0  0  0  0  0  0  0  0
   14.4457  -18.0472   22.0291 C   0  0  0  0  0  0  0  0  0  0  0  0
   14.9538  -19.1362   22.3931 O   0  0  0  0  0  0  0  0  0  0  0  0
   15.1366  -16.8514   22.3056 N   0  0  0  0  0  0  0  0  0  0  0  0
   16.3989  -16.8268   23.0805 C   0  0  1  0  0  0  0  0  0  0  0  0
   17.0650  -15.5010   22.9189 C   0  0  0  0  0  0  0  0  0  0  0  0
   18.4765  -15.5614   23.3071 C   0  0  0  0  0  0  0  0  0  0  0  0
   19.0444  -16.5795   23.7535 O   0  0  0  0  0  0  0  0  0  0  0  0
   16.0900  -17.1057   24.4964 C   0  0  0  0  0  0  0  0  0  0  0  0
   15.1883  -16.6016   25.1677 O   0  0  0  0  0  0  0  0  0  0  0  0
   19.3215  -14.4299   23.1984 O   0  0  0  0  0  0  0  0  0  0  0  0
   16.8989  -18.0464   25.1746 O   0  0  0  0  0  0  0  0  0  0  0  0
  1  2  1  0
  3  4  2  0
  3  2  1  0
  5  6  1  0
  7  6  1  1
  7  8  1  0
  8  3  1  0
  9 11  1  0
  9  7  1  0
 10  9  2  0
 12 11  1  0
 12 16  1  0
 13 14  1  0
 12 13  1  1
 14 15  2  0
 16 19  1  0
 17 16  2  0
 18 14  1  0
M  END
$$$$
