GSD.pdb
     RDKit          3D

 19 18  0  0  1  0  0  0  0  0999 V2000
    2.5548  -19.2616   21.0451 N   0  0  0  0  0  0  0  0  0  0  0  0
    2.9363  -17.9529   21.5255 C   0  0  0  0  0  0  0  0  0  0  0  0
    4.4065  -17.7918   21.3003 C   0  0  0  0  0  0  0  0  0  0  0  0
    5.1306  -18.7883   21.0636 O   0  0  0  0  0  0  0  0  0  0  0  0
    6.4930  -13.9990   21.3538 O   0  0  0  0  0  0  0  0  0  0  0  0
    6.8439  -15.0743   20.5150 C   0  0  0  0  0  0  0  0  0  0  0  0
    6.4379  -16.4015   21.0993 C   0  0  2  0  0  0  0  0  0  0  0  0
    5.0462  -16.5326   21.3415 N   0  0  0  0  0  0  0  0  0  0  0  0
    7.2383  -16.6332   22.3298 C   0  0  0  0  0  0  0  0  0  0  0  0
    6.6264  -16.6461   23.4262 O   0  0  0  0  0  0  0  0  0  0  0  0
    8.6321  -16.8363   22.3294 N   0  0  0  0  0  0  0  0  0  0  0  0
    9.3947  -17.0991   23.5719 C   0  0  1  0  0  0  0  0  0  0  0  0
    9.2737  -18.5394   23.9437 C   0  0  0  0  0  0  0  0  0  0  0  0
   10.0997  -18.8612   25.1104 C   0  0  0  0  0  0  0  0  0  0  0  0
   10.2331  -18.1228   26.1079 O   0  0  0  0  0  0  0  0  0  0  0  0
   10.8028  -16.7156   23.3524 C   0  0  0  0  0  0  0  0  0  0  0  0
   11.5194  -17.0496   22.4075 O   0  0  0  0  0  0  0  0  0  0  0  0
   10.8278  -20.0736   25.1880 O   0  0  0  0  0  0  0  0  0  0  0  0
   11.4151  -15.8777   24.3127 O   0  0  0  0  0  0  0  0  0  0  0  0
  1  2  1  0
  3  4  2  0
  3  2  1  0
  5  6  1  0
  7  6  1  1
  7  8  1  0
  8  3  1  0
  9 11  1  0
  9  7  1  0
 10  9  2  0
 12 11  1  0
 12 16  1  0
 13 14  1  0
 12 13  1  6
 14 15  2  0
 16 19  1  0
 17 16  2  0
 18 14  1  0
M  END
$$$$
