GSD.pdb
     RDKit          3D

 19 18  0  0  1  0  0  0  0  0999 V2000
   -1.6484  -27.2788   29.3553 N   0  0  0  0  0  0  0  0  0  0  0  0
   -2.0992  -26.7594   30.6265 C   0  0  0  0  0  0  0  0  0  0  0  0
   -2.8709  -25.5052   30.3623 C   0  0  0  0  0  0  0  0  0  0  0  0
   -3.3230  -24.8203   31.3110 O   0  0  0  0  0  0  0  0  0  0  0  0
   -4.2242  -24.2462   26.4653 O   0  0  0  0  0  0  0  0  0  0  0  0
   -3.7926  -23.3148   27.4292 C   0  0  0  0  0  0  0  0  0  0  0  0
   -3.8948  -23.8625   28.8284 C   0  0  2  0  0  0  0  0  0  0  0  0
   -3.1271  -25.0338   29.0552 N   0  0  0  0  0  0  0  0  0  0  0  0
   -5.3319  -24.0730   29.1425 C   0  0  0  0  0  0  0  0  0  0  0  0
   -5.7973  -25.2285   28.9846 O   0  0  0  0  0  0  0  0  0  0  0  0
   -6.1891  -23.0545   29.6026 N   0  0  0  0  0  0  0  0  0  0  0  0
   -7.6079  -23.3078   29.9450 C   0  0  1  0  0  0  0  0  0  0  0  0
   -7.6899  -24.3038   31.0535 C   0  0  0  0  0  0  0  0  0  0  0  0
   -9.0746  -24.5085   31.4865 C   0  0  0  0  0  0  0  0  0  0  0  0
  -10.0789  -24.1472   30.8391 O   0  0  0  0  0  0  0  0  0  0  0  0
   -8.2389  -22.0281   30.3226 C   0  0  0  0  0  0  0  0  0  0  0  0
   -7.6872  -20.9296   30.4041 O   0  0  0  0  0  0  0  0  0  0  0  0
   -9.3781  -25.1522   32.7111 O   0  0  0  0  0  0  0  0  0  0  0  0
   -9.6198  -22.0385   30.6264 O   0  0  0  0  0  0  0  0  0  0  0  0
  1  2  1  0
  3  4  2  0
  3  2  1  0
  5  6  1  0
  7  6  1  6
  7  8  1  0
  8  3  1  0
  9 11  1  0
  9  7  1  0
 10  9  2  0
 12 11  1  0
 12 16  1  0
 13 14  1  0
 12 13  1  1
 14 15  2  0
 16 19  1  0
 17 16  2  0
 18 14  1  0
M  END
$$$$
