GSD.pdb
     RDKit          3D

 19 18  0  0  1  0  0  0  0  0999 V2000
    6.8956  -12.4983   19.2921 N   0  0  0  0  0  0  0  0  0  0  0  0
    8.2483  -12.3602   18.8023 C   0  0  0  0  0  0  0  0  0  0  0  0
    8.9970  -13.6039   19.1644 C   0  0  0  0  0  0  0  0  0  0  0  0
    8.4667  -14.4831   19.8849 O   0  0  0  0  0  0  0  0  0  0  0  0
   12.4676  -15.0719   17.1121 O   0  0  0  0  0  0  0  0  0  0  0  0
   11.4864  -15.8071   17.8046 C   0  0  0  0  0  0  0  0  0  0  0  0
   10.9790  -15.0699   19.0158 C   0  0  2  0  0  0  0  0  0  0  0  0
   10.3164  -13.8502   18.7228 N   0  0  0  0  0  0  0  0  0  0  0  0
   12.1170  -14.8711   19.9507 C   0  0  0  0  0  0  0  0  0  0  0  0
   12.7831  -13.8128   19.8373 O   0  0  0  0  0  0  0  0  0  0  0  0
   12.4827  -15.7984   20.9458 N   0  0  0  0  0  0  0  0  0  0  0  0
   13.5777  -15.5367   21.9085 C   0  0  1  0  0  0  0  0  0  0  0  0
   13.2930  -16.2314   23.1984 C   0  0  0  0  0  0  0  0  0  0  0  0
   14.3874  -16.0504   24.1556 C   0  0  0  0  0  0  0  0  0  0  0  0
   15.4249  -15.3946   23.9281 O   0  0  0  0  0  0  0  0  0  0  0  0
   14.8482  -15.9988   21.3166 C   0  0  0  0  0  0  0  0  0  0  0  0
   15.9822  -15.6252   21.6204 O   0  0  0  0  0  0  0  0  0  0  0  0
   14.3408  -16.6271   25.4485 O   0  0  0  0  0  0  0  0  0  0  0  0
   14.7830  -16.9719   20.2929 O   0  0  0  0  0  0  0  0  0  0  0  0
  1  2  1  0
  3  4  2  0
  3  2  1  0
  5  6  1  0
  7  6  1  6
  7  8  1  0
  8  3  1  0
  9 11  1  0
  9  7  1  0
 10  9  2  0
 12 11  1  0
 12 16  1  0
 13 14  1  0
 12 13  1  1
 14 15  2  0
 16 19  1  0
 17 16  2  0
 18 14  1  0
M  END
$$$$
