GSD.pdb
     RDKit          3D

 19 18  0  0  1  0  0  0  0  0999 V2000
    8.0992  -14.7679   13.5788 N   0  0  0  0  0  0  0  0  0  0  0  0
    7.4699  -15.0053   14.8580 C   0  0  0  0  0  0  0  0  0  0  0  0
    8.3385  -14.4017   15.9161 C   0  0  0  0  0  0  0  0  0  0  0  0
    9.5272  -14.0885   15.6665 O   0  0  0  0  0  0  0  0  0  0  0  0
    7.3067  -14.1072   20.0860 O   0  0  0  0  0  0  0  0  0  0  0  0
    7.9612  -13.0517   19.4223 C   0  0  0  0  0  0  0  0  0  0  0  0
    8.6977  -13.5259   18.1973 C   0  0  2  0  0  0  0  0  0  0  0  0
    7.8755  -14.1566   17.2284 N   0  0  0  0  0  0  0  0  0  0  0  0
    9.8120  -14.4061   18.6354 C   0  0  0  0  0  0  0  0  0  0  0  0
    9.6954  -15.6385   18.4245 O   0  0  0  0  0  0  0  0  0  0  0  0
   10.9787  -13.9345   19.2679 N   0  0  0  0  0  0  0  0  0  0  0  0
   12.0926  -14.8341   19.6480 C   0  0  1  0  0  0  0  0  0  0  0  0
   13.3760  -14.0724   19.6580 C   0  0  0  0  0  0  0  0  0  0  0  0
   14.5185  -14.9538   19.9124 C   0  0  0  0  0  0  0  0  0  0  0  0
   15.1253  -15.0291   21.0007 O   0  0  0  0  0  0  0  0  0  0  0  0
   11.8003  -15.4149   20.9729 C   0  0  0  0  0  0  0  0  0  0  0  0
   11.0568  -14.9458   21.8359 O   0  0  0  0  0  0  0  0  0  0  0  0
   15.0294  -15.8097   18.9061 O   0  0  0  0  0  0  0  0  0  0  0  0
   12.4265  -16.6371   21.3094 O   0  0  0  0  0  0  0  0  0  0  0  0
  1  2  1  0
  3  4  2  0
  3  2  1  0
  5  6  1  0
  7  6  1  1
  7  8  1  0
  8  3  1  0
  9 11  1  0
  9  7  1  0
 10  9  2  0
 12 11  1  0
 12 16  1  0
 13 14  1  0
 12 13  1  1
 14 15  2  0
 16 19  1  0
 17 16  2  0
 18 14  1  0
M  END
$$$$
