GSD.pdb
     RDKit          3D

 19 18  0  0  1  0  0  0  0  0999 V2000
    7.5581  -12.8859   18.2006 N   0  0  0  0  0  0  0  0  0  0  0  0
    8.1623  -12.8432   19.5129 C   0  0  0  0  0  0  0  0  0  0  0  0
    8.4908  -14.2469   19.9130 C   0  0  0  0  0  0  0  0  0  0  0  0
    8.5229  -15.1649   19.0588 O   0  0  0  0  0  0  0  0  0  0  0  0
   11.6357  -15.3879   21.3982 O   0  0  0  0  0  0  0  0  0  0  0  0
   10.6014  -16.2247   20.9371 C   0  0  0  0  0  0  0  0  0  0  0  0
    9.2792  -15.8927   21.5772 C   0  0  2  0  0  0  0  0  0  0  0  0
    8.7772  -14.6071   21.2489 N   0  0  0  0  0  0  0  0  0  0  0  0
    9.4135  -16.0763   23.0457 C   0  0  0  0  0  0  0  0  0  0  0  0
    9.6766  -15.0608   23.7359 O   0  0  0  0  0  0  0  0  0  0  0  0
    9.2629  -17.3167   23.6957 N   0  0  0  0  0  0  0  0  0  0  0  0
    9.3690  -17.4584   25.1665 C   0  0  1  0  0  0  0  0  0  0  0  0
    8.5927  -18.6511   25.6163 C   0  0  0  0  0  0  0  0  0  0  0  0
    7.2057  -18.5937   25.1476 C   0  0  0  0  0  0  0  0  0  0  0  0
    6.7036  -17.6251   24.5409 O   0  0  0  0  0  0  0  0  0  0  0  0
   10.7949  -17.5757   25.5285 C   0  0  0  0  0  0  0  0  0  0  0  0
   11.2694  -17.5778   26.6655 O   0  0  0  0  0  0  0  0  0  0  0  0
    6.3097  -19.6702   25.3582 O   0  0  0  0  0  0  0  0  0  0  0  0
   11.7335  -17.7005   24.4784 O   0  0  0  0  0  0  0  0  0  0  0  0
  1  2  1  0
  3  4  2  0
  3  2  1  0
  5  6  1  0
  7  6  1  6
  7  8  1  0
  8  3  1  0
  9 11  1  0
  9  7  1  0
 10  9  2  0
 12 11  1  0
 12 16  1  0
 13 14  1  0
 12 13  1  6
 14 15  2  0
 16 19  1  0
 17 16  2  0
 18 14  1  0
M  END
$$$$
