VNL.pdb
     RDKit          3D

 24 23  0  0  1  0  0  0  0  0999 V2000
    6.9942  -14.8117   18.5706 C   0  0  0  0  0  0  0  0  0  0  0  0
    7.5805  -13.5051   19.0524 C   0  0  2  0  0  0  0  0  0  0  0  0
    7.7249  -12.5525   17.9062 C   0  0  0  0  0  0  0  0  0  0  0  0
    8.9112  -13.7374   19.7461 C   0  0  2  0  0  0  0  0  0  0  0  0
    9.8541  -14.3446   18.8376 N   0  0  0  0  0  0  0  0  0  0  0  0
    8.6642  -14.5881   20.9147 C   0  0  0  0  0  0  0  0  0  0  0  0
    7.7757  -14.2670   21.7447 O   0  0  0  0  0  0  0  0  0  0  0  0
   10.9910  -19.0878   20.4745 N   0  0  0  0  0  0  0  0  0  0  0  0
    9.8516  -18.6493   21.1916 C   0  0  0  0  0  0  0  0  0  0  0  0
    8.7169  -18.9899   20.7797 O   0  0  0  0  0  0  0  0  0  0  0  0
    9.9606  -17.8134   22.3947 C   0  0  0  0  0  0  0  0  0  0  0  0
    9.0983  -16.5866   22.3381 C   0  0  2  0  0  0  0  0  0  0  0  0
    9.3861  -15.7951   21.1843 N   0  0  0  0  0  0  0  0  0  0  0  0
    9.2789  -15.8243   23.6095 C   0  0  0  0  0  0  0  0  0  0  0  0
   10.4283  -15.4825   23.9867 O   0  0  0  0  0  0  0  0  0  0  0  0
    6.0832  -11.9733   27.1003 C   0  0  0  0  0  0  0  0  0  0  0  0
    7.3685  -12.8171   27.0653 C   0  0  2  0  0  0  0  0  0  0  0  0
    8.4984  -11.8282   27.0893 C   0  0  0  0  0  0  0  0  0  0  0  0
    7.2907  -13.6529   25.8447 C   0  0  0  0  0  0  0  0  0  0  0  0
    8.3567  -14.6842   25.6772 C   0  0  2  0  0  0  0  0  0  0  0  0
    8.1874  -15.4532   24.4411 N   0  0  0  0  0  0  0  0  0  0  0  0
    8.5857  -15.5467   26.8339 C   0  0  0  0  0  0  0  0  0  0  0  0
    8.0436  -16.8110   26.8625 O   0  0  0  0  0  0  0  0  0  0  0  0
    9.2661  -15.1577   27.8001 O   0  0  0  0  0  0  0  0  0  0  0  0
  2  1  1  6
  2  3  1  0
  4  2  1  0
  4  5  1  6
  6  7  2  0
  6  4  1  0
  9 11  1  0
  9  8  1  0
 10  9  2  0
 12 11  1  1
 12 14  1  0
 12 13  1  0
 13  6  1  0
 14 21  1  0
 15 14  2  0
 17 16  1  6
 18 17  1  0
 19 17  1  0
 20 19  1  1
 20 22  1  0
 21 20  1  0
 22 24  2  0
 22 23  1  0
M  END
$$$$
