VNL.pdb
     RDKit          3D

 24 23  0  0  1  0  0  0  0  0999 V2000
    7.4168  -12.6833   18.6998 C   0  0  0  0  0  0  0  0  0  0  0  0
    7.5639  -13.4722   19.9801 C   0  0  2  0  0  0  0  0  0  0  0  0
    8.3630  -12.6910   20.9767 C   0  0  0  0  0  0  0  0  0  0  0  0
    8.1961  -14.8256   19.7069 C   0  0  2  0  0  0  0  0  0  0  0  0
    7.4033  -15.5700   18.7582 N   0  0  0  0  0  0  0  0  0  0  0  0
    8.3101  -15.5328   20.9865 C   0  0  0  0  0  0  0  0  0  0  0  0
    7.2805  -16.0036   21.5341 O   0  0  0  0  0  0  0  0  0  0  0  0
   11.6286  -18.5973   20.7716 N   0  0  0  0  0  0  0  0  0  0  0  0
   10.7059  -18.4922   21.8404 C   0  0  0  0  0  0  0  0  0  0  0  0
    9.7782  -19.3330   21.9156 O   0  0  0  0  0  0  0  0  0  0  0  0
   10.8041  -17.4346   22.8551 C   0  0  0  0  0  0  0  0  0  0  0  0
    9.6158  -16.5183   22.8659 C   0  0  2  0  0  0  0  0  0  0  0  0
    9.5494  -15.7304   21.6763 N   0  0  0  0  0  0  0  0  0  0  0  0
    9.6783  -15.6797   24.1000 C   0  0  0  0  0  0  0  0  0  0  0  0
   10.6436  -14.8963   24.2868 O   0  0  0  0  0  0  0  0  0  0  0  0
    8.3044  -12.0098   26.1888 C   0  0  0  0  0  0  0  0  0  0  0  0
    7.2253  -13.0555   25.8615 C   0  0  2  0  0  0  0  0  0  0  0  0
    5.9144  -12.3858   26.1584 C   0  0  0  0  0  0  0  0  0  0  0  0
    7.5256  -14.2449   26.6919 C   0  0  0  0  0  0  0  0  0  0  0  0
    8.7822  -14.9820   26.3662 C   0  0  2  0  0  0  0  0  0  0  0  0
    8.6742  -15.7211   25.1052 N   0  0  0  0  0  0  0  0  0  0  0  0
    9.3248  -15.8076   27.4424 C   0  0  0  0  0  0  0  0  0  0  0  0
    9.4400  -17.1677   27.2694 O   0  0  0  0  0  0  0  0  0  0  0  0
    9.6872  -15.3014   28.5195 O   0  0  0  0  0  0  0  0  0  0  0  0
  2  1  1  6
  2  3  1  0
  4  2  1  0
  4  5  1  6
  6  7  2  0
  6  4  1  0
  9 11  1  0
  9  8  1  0
 10  9  2  0
 12 11  1  6
 12 14  1  0
 12 13  1  0
 13  6  1  0
 14 21  1  0
 15 14  2  0
 17 16  1  1
 18 17  1  0
 19 17  1  0
 20 19  1  1
 20 22  1  0
 21 20  1  0
 22 24  2  0
 22 23  1  0
M  END
$$$$
