VNL.pdb
     RDKit          3D

 24 23  0  0  1  0  0  0  0  0999 V2000
    7.1203  -12.9817   20.8578 C   0  0  0  0  0  0  0  0  0  0  0  0
    8.3983  -13.1773   20.0758 C   0  0  2  0  0  0  0  0  0  0  0  0
    8.4033  -12.2916   18.8685 C   0  0  0  0  0  0  0  0  0  0  0  0
    8.5732  -14.6355   19.6896 C   0  0  2  0  0  0  0  0  0  0  0  0
    7.5625  -15.0295   18.7377 N   0  0  0  0  0  0  0  0  0  0  0  0
    8.4993  -15.4354   20.9164 C   0  0  0  0  0  0  0  0  0  0  0  0
    7.3892  -15.8785   21.3075 O   0  0  0  0  0  0  0  0  0  0  0  0
    9.5060  -19.5184   21.6713 N   0  0  0  0  0  0  0  0  0  0  0  0
   10.4878  -18.5098   21.8248 C   0  0  0  0  0  0  0  0  0  0  0  0
   11.3556  -18.3773   20.9288 O   0  0  0  0  0  0  0  0  0  0  0  0
   10.5182  -17.6217   22.9945 C   0  0  0  0  0  0  0  0  0  0  0  0
    9.5010  -16.5208   22.9231 C   0  0  2  0  0  0  0  0  0  0  0  0
    9.6373  -15.7566   21.7240 N   0  0  0  0  0  0  0  0  0  0  0  0
    9.6294  -15.6798   24.1505 C   0  0  0  0  0  0  0  0  0  0  0  0
   10.6577  -14.9809   24.3361 O   0  0  0  0  0  0  0  0  0  0  0  0
    7.8697  -12.0572   25.8605 C   0  0  0  0  0  0  0  0  0  0  0  0
    6.9296  -13.2735   25.9042 C   0  0  2  0  0  0  0  0  0  0  0  0
    5.5898  -12.7307   26.3110 C   0  0  0  0  0  0  0  0  0  0  0  0
    7.5318  -14.2375   26.8542 C   0  0  0  0  0  0  0  0  0  0  0  0
    8.7931  -14.9036   26.4140 C   0  0  2  0  0  0  0  0  0  0  0  0
    8.6206  -15.6258   25.1504 N   0  0  0  0  0  0  0  0  0  0  0  0
    9.4610  -15.7186   27.4259 C   0  0  0  0  0  0  0  0  0  0  0  0
    9.6559  -17.0622   27.2028 O   0  0  0  0  0  0  0  0  0  0  0  0
    9.8598  -15.2179   28.4927 O   0  0  0  0  0  0  0  0  0  0  0  0
  2  1  1  6
  2  3  1  0
  4  2  1  0
  4  5  1  6
  6  7  2  0
  6  4  1  0
  9 11  1  0
  9  8  1  0
 10  9  2  0
 12 11  1  1
 12 14  1  0
 12 13  1  0
 13  6  1  0
 14 21  1  0
 15 14  2  0
 17 16  1  1
 18 17  1  0
 19 17  1  0
 20 19  1  1
 20 22  1  0
 21 20  1  0
 22 24  2  0
 22 23  1  0
M  END
$$$$
