VNL.pdb
     RDKit          3D

 24 23  0  0  1  0  0  0  0  0999 V2000
    8.3466  -13.2828   17.8874 C   0  0  0  0  0  0  0  0  0  0  0  0
    7.7352  -13.6137   19.2290 C   0  0  2  0  0  0  0  0  0  0  0  0
    7.2201  -12.3679   19.8808 C   0  0  0  0  0  0  0  0  0  0  0  0
    8.7417  -14.3237   20.1171 C   0  0  2  0  0  0  0  0  0  0  0  0
    9.4042  -15.3771   19.3860 N   0  0  0  0  0  0  0  0  0  0  0  0
    8.0203  -14.8471   21.2816 C   0  0  0  0  0  0  0  0  0  0  0  0
    7.3000  -14.0778   21.9679 O   0  0  0  0  0  0  0  0  0  0  0  0
    6.9277  -18.2415   25.3408 N   0  0  0  0  0  0  0  0  0  0  0  0
    6.5041  -18.6500   24.0530 C   0  0  0  0  0  0  0  0  0  0  0  0
    5.5630  -19.4747   23.9655 O   0  0  0  0  0  0  0  0  0  0  0  0
    7.1309  -18.1391   22.8266 C   0  0  0  0  0  0  0  0  0  0  0  0
    7.3816  -16.6601   22.8669 C   0  0  2  0  0  0  0  0  0  0  0  0
    8.0809  -16.2140   21.7040 N   0  0  0  0  0  0  0  0  0  0  0  0
    8.1145  -16.3404   24.1282 C   0  0  0  0  0  0  0  0  0  0  0  0
    9.3629  -16.4756   24.1885 O   0  0  0  0  0  0  0  0  0  0  0  0
    8.3689  -12.2107   26.1827 C   0  0  0  0  0  0  0  0  0  0  0  0
    7.0471  -12.9877   26.3012 C   0  0  2  0  0  0  0  0  0  0  0  0
    6.0773  -12.0350   26.9393 C   0  0  0  0  0  0  0  0  0  0  0  0
    7.3435  -14.2055   27.0908 C   0  0  0  0  0  0  0  0  0  0  0  0
    8.1693  -15.2498   26.4159 C   0  0  2  0  0  0  0  0  0  0  0  0
    7.4561  -15.8773   25.2997 N   0  0  0  0  0  0  0  0  0  0  0  0
    8.7821  -16.2373   27.3010 C   0  0  0  0  0  0  0  0  0  0  0  0
    8.5979  -17.5794   27.0604 O   0  0  0  0  0  0  0  0  0  0  0  0
    9.4722  -15.8859   28.2747 O   0  0  0  0  0  0  0  0  0  0  0  0
  2  1  1  6
  2  3  1  0
  4  2  1  0
  4  5  1  6
  6  7  2  0
  6  4  1  0
  9 11  1  0
  9  8  1  0
 10  9  2  0
 12 11  1  6
 12 14  1  0
 12 13  1  0
 13  6  1  0
 14 21  1  0
 15 14  2  0
 17 16  1  1
 18 17  1  0
 19 17  1  0
 20 19  1  1
 20 22  1  0
 21 20  1  0
 22 24  2  0
 22 23  1  0
M  END
$$$$
