VNL.pdb
     RDKit          3D

 24 23  0  0  1  0  0  0  0  0999 V2000
    7.7561  -12.8160   18.3098 C   0  0  0  0  0  0  0  0  0  0  0  0
    7.7967  -13.6532   19.5670 C   0  0  2  0  0  0  0  0  0  0  0  0
    8.4245  -12.8762   20.6825 C   0  0  0  0  0  0  0  0  0  0  0  0
    8.5357  -14.9567   19.3201 C   0  0  2  0  0  0  0  0  0  0  0  0
    8.0791  -15.5710   18.0966 N   0  0  0  0  0  0  0  0  0  0  0  0
    8.3074  -15.8269   20.4781 C   0  0  0  0  0  0  0  0  0  0  0  0
    7.7578  -16.9469   20.3193 O   0  0  0  0  0  0  0  0  0  0  0  0
   10.8108  -19.2643   22.0421 N   0  0  0  0  0  0  0  0  0  0  0  0
   11.3436  -17.9877   22.3442 C   0  0  0  0  0  0  0  0  0  0  0  0
   12.3629  -17.9210   23.0721 O   0  0  0  0  0  0  0  0  0  0  0  0
   10.7408  -16.7495   21.8330 C   0  0  0  0  0  0  0  0  0  0  0  0
    9.5181  -16.3323   22.5964 C   0  0  2  0  0  0  0  0  0  0  0  0
    8.6779  -15.4796   21.8171 N   0  0  0  0  0  0  0  0  0  0  0  0
    9.9550  -15.6884   23.8710 C   0  0  0  0  0  0  0  0  0  0  0  0
   10.7107  -16.3028   24.6659 O   0  0  0  0  0  0  0  0  0  0  0  0
    5.6107  -12.3372   26.2302 C   0  0  0  0  0  0  0  0  0  0  0  0
    6.9589  -12.9505   26.6438 C   0  0  2  0  0  0  0  0  0  0  0  0
    7.6470  -11.8940   27.4595 C   0  0  0  0  0  0  0  0  0  0  0  0
    7.6525  -13.3277   25.3904 C   0  0  0  0  0  0  0  0  0  0  0  0
    8.9347  -14.0770   25.5408 C   0  0  2  0  0  0  0  0  0  0  0  0
    9.5498  -14.3783   24.2450 N   0  0  0  0  0  0  0  0  0  0  0  0
    8.8802  -15.2504   26.4093 C   0  0  0  0  0  0  0  0  0  0  0  0
    9.6048  -15.2701   27.5788 O   0  0  0  0  0  0  0  0  0  0  0  0
    8.1865  -16.2388   26.1100 O   0  0  0  0  0  0  0  0  0  0  0  0
  2  1  1  6
  2  3  1  0
  4  2  1  0
  4  5  1  6
  6  7  2  0
  6  4  1  0
  9 11  1  0
  9  8  1  0
 10  9  2  0
 12 11  1  6
 12 14  1  0
 12 13  1  0
 13  6  1  0
 14 21  1  0
 15 14  2  0
 17 16  1  6
 18 17  1  0
 19 17  1  0
 20 19  1  6
 20 22  1  0
 21 20  1  0
 22 24  2  0
 22 23  1  0
M  END
$$$$
