VNL.pdb
     RDKit          3D

 24 23  0  0  1  0  0  0  0  0999 V2000
    9.3655  -12.5564   19.8210 C   0  0  0  0  0  0  0  0  0  0  0  0
    8.4014  -13.1901   18.8453 C   0  0  2  0  0  0  0  0  0  0  0  0
    6.9931  -13.0015   19.3178 C   0  0  0  0  0  0  0  0  0  0  0  0
    8.7243  -14.6611   18.6505 C   0  0  2  0  0  0  0  0  0  0  0  0
    7.8825  -15.2305   17.6258 N   0  0  0  0  0  0  0  0  0  0  0  0
    8.5358  -15.3351   19.9391 C   0  0  0  0  0  0  0  0  0  0  0  0
    7.3791  -15.6591   20.3115 O   0  0  0  0  0  0  0  0  0  0  0  0
   11.2280  -18.5524   24.3742 N   0  0  0  0  0  0  0  0  0  0  0  0
   10.1514  -18.1767   23.5348 C   0  0  0  0  0  0  0  0  0  0  0  0
    8.9850  -18.4744   23.8873 O   0  0  0  0  0  0  0  0  0  0  0  0
   10.3608  -17.4541   22.2731 C   0  0  0  0  0  0  0  0  0  0  0  0
    9.3689  -16.3489   22.0573 C   0  0  2  0  0  0  0  0  0  0  0  0
    9.6094  -15.6598   20.8294 N   0  0  0  0  0  0  0  0  0  0  0  0
    9.4146  -15.4369   23.2389 C   0  0  0  0  0  0  0  0  0  0  0  0
   10.4113  -14.6950   23.4299 O   0  0  0  0  0  0  0  0  0  0  0  0
    6.8781  -13.2537   27.7223 C   0  0  0  0  0  0  0  0  0  0  0  0
    7.3157  -12.4895   26.4616 C   0  0  2  0  0  0  0  0  0  0  0  0
    6.3346  -11.3621   26.3150 C   0  0  0  0  0  0  0  0  0  0  0  0
    7.3151  -13.4712   25.3523 C   0  0  0  0  0  0  0  0  0  0  0  0
    8.4099  -14.4859   25.3630 C   0  0  2  0  0  0  0  0  0  0  0  0
    8.3593  -15.3607   24.1882 N   0  0  0  0  0  0  0  0  0  0  0  0
    8.5560  -15.2414   26.6049 C   0  0  0  0  0  0  0  0  0  0  0  0
    9.5183  -14.8768   27.5182 O   0  0  0  0  0  0  0  0  0  0  0  0
    7.8221  -16.2144   26.8543 O   0  0  0  0  0  0  0  0  0  0  0  0
  2  1  1  1
  2  3  1  0
  4  2  1  0
  4  5  1  6
  6  7  2  0
  6  4  1  0
  9 11  1  0
  9  8  1  0
 10  9  2  0
 12 11  1  1
 12 14  1  0
 12 13  1  0
 13  6  1  0
 14 21  1  0
 15 14  2  0
 17 16  1  1
 18 17  1  0
 19 17  1  0
 20 19  1  1
 20 22  1  0
 21 20  1  0
 22 24  2  0
 22 23  1  0
M  END
$$$$
