VNL.pdb
     RDKit          3D

 24 23  0  0  1  0  0  0  0  0999 V2000
    7.7420  -12.6828   18.4523 C   0  0  0  0  0  0  0  0  0  0  0  0
    7.7575  -13.4334   19.7636 C   0  0  2  0  0  0  0  0  0  0  0  0
    8.5414  -12.6687   20.7847 C   0  0  0  0  0  0  0  0  0  0  0  0
    8.3169  -14.8324   19.5746 C   0  0  2  0  0  0  0  0  0  0  0  0
    7.5537  -15.5507   18.5823 N   0  0  0  0  0  0  0  0  0  0  0  0
    8.2809  -15.5084   20.8755 C   0  0  0  0  0  0  0  0  0  0  0  0
    7.1850  -15.9189   21.3361 O   0  0  0  0  0  0  0  0  0  0  0  0
    9.6731  -18.5408   20.7034 N   0  0  0  0  0  0  0  0  0  0  0  0
    9.9899  -18.7209   22.0716 C   0  0  0  0  0  0  0  0  0  0  0  0
    9.9555  -19.8813   22.5467 O   0  0  0  0  0  0  0  0  0  0  0  0
   10.3547  -17.5959   22.9429 C   0  0  0  0  0  0  0  0  0  0  0  0
    9.3579  -16.4749   22.9038 C   0  0  2  0  0  0  0  0  0  0  0  0
    9.4414  -15.7403   21.6816 N   0  0  0  0  0  0  0  0  0  0  0  0
    9.5733  -15.6104   24.1022 C   0  0  0  0  0  0  0  0  0  0  0  0
   10.6834  -15.0513   24.2902 O   0  0  0  0  0  0  0  0  0  0  0  0
    8.0926  -11.8502   25.9760 C   0  0  0  0  0  0  0  0  0  0  0  0
    7.0468  -12.9758   26.0433 C   0  0  2  0  0  0  0  0  0  0  0  0
    5.7998  -12.3334   26.5794 C   0  0  0  0  0  0  0  0  0  0  0  0
    7.6248  -14.0374   26.8995 C   0  0  0  0  0  0  0  0  0  0  0  0
    8.8270  -14.7416   26.3636 C   0  0  2  0  0  0  0  0  0  0  0  0
    8.5594  -15.3788   25.0712 N   0  0  0  0  0  0  0  0  0  0  0  0
    9.4934  -15.6479   27.2956 C   0  0  0  0  0  0  0  0  0  0  0  0
    9.5093  -17.0001   27.0416 O   0  0  0  0  0  0  0  0  0  0  0  0
   10.0507  -15.2180   28.3215 O   0  0  0  0  0  0  0  0  0  0  0  0
  2  1  1  6
  2  3  1  0
  4  2  1  0
  4  5  1  6
  6  7  2  0
  6  4  1  0
  9 11  1  0
  9  8  1  0
 10  9  2  0
 12 11  1  6
 12 14  1  0
 12 13  1  0
 13  6  1  0
 14 21  1  0
 15 14  2  0
 17 16  1  1
 18 17  1  0
 19 17  1  0
 20 19  1  1
 20 22  1  0
 21 20  1  0
 22 24  2  0
 22 23  1  0
M  END
$$$$
