VNL.pdb
     RDKit          3D

 24 23  0  0  1  0  0  0  0  0999 V2000
    7.7506  -12.5699   18.5181 C   0  0  0  0  0  0  0  0  0  0  0  0
    7.7631  -13.4216   19.7661 C   0  0  2  0  0  0  0  0  0  0  0  0
    8.4707  -12.7025   20.8726 C   0  0  0  0  0  0  0  0  0  0  0  0
    8.4027  -14.7707   19.4889 C   0  0  2  0  0  0  0  0  0  0  0  0
    7.6890  -15.4612   18.4417 N   0  0  0  0  0  0  0  0  0  0  0  0
    8.3958  -15.5349   20.7404 C   0  0  0  0  0  0  0  0  0  0  0  0
    7.3314  -16.0750   21.1368 O   0  0  0  0  0  0  0  0  0  0  0  0
   11.4224  -18.7797   20.7160 N   0  0  0  0  0  0  0  0  0  0  0  0
   10.4887  -18.5931   21.7639 C   0  0  0  0  0  0  0  0  0  0  0  0
    9.5075  -19.3709   21.8374 O   0  0  0  0  0  0  0  0  0  0  0  0
   10.6361  -17.5227   22.7591 C   0  0  0  0  0  0  0  0  0  0  0  0
    9.5049  -16.5369   22.7339 C   0  0  2  0  0  0  0  0  0  0  0  0
    9.5512  -15.7142   21.5671 N   0  0  0  0  0  0  0  0  0  0  0  0
    9.5479  -15.7377   23.9946 C   0  0  0  0  0  0  0  0  0  0  0  0
   10.6168  -15.1866   24.3606 O   0  0  0  0  0  0  0  0  0  0  0  0
    8.1386  -11.9535   26.0327 C   0  0  0  0  0  0  0  0  0  0  0  0
    7.0052  -12.9298   25.6756 C   0  0  2  0  0  0  0  0  0  0  0  0
    5.7320  -12.2012   25.9969 C   0  0  0  0  0  0  0  0  0  0  0  0
    7.2428  -14.1590   26.4673 C   0  0  0  0  0  0  0  0  0  0  0  0
    8.4828  -14.9258   26.1469 C   0  0  2  0  0  0  0  0  0  0  0  0
    8.4101  -15.5614   24.8283 N   0  0  0  0  0  0  0  0  0  0  0  0
    8.9335  -15.8547   27.1805 C   0  0  0  0  0  0  0  0  0  0  0  0
    9.6117  -15.3791   28.2792 O   0  0  0  0  0  0  0  0  0  0  0  0
    8.7143  -17.0756   27.0861 O   0  0  0  0  0  0  0  0  0  0  0  0
  2  1  1  6
  2  3  1  0
  4  2  1  0
  4  5  1  6
  6  7  2  0
  6  4  1  0
  9 11  1  0
  9  8  1  0
 10  9  2  0
 12 11  1  1
 12 14  1  0
 12 13  1  0
 13  6  1  0
 14 21  1  0
 15 14  2  0
 17 16  1  1
 18 17  1  0
 19 17  1  0
 20 19  1  1
 20 22  1  0
 21 20  1  0
 22 24  2  0
 22 23  1  0
M  END
$$$$
