VNL.pdb
     RDKit          3D

 24 23  0  0  1  0  0  0  0  0999 V2000
    7.3735  -13.0283   20.3754 C   0  0  0  0  0  0  0  0  0  0  0  0
    8.5665  -13.3124   19.4927 C   0  0  2  0  0  0  0  0  0  0  0  0
    8.5396  -12.4220   18.2892 C   0  0  0  0  0  0  0  0  0  0  0  0
    8.6017  -14.7771   19.0932 C   0  0  2  0  0  0  0  0  0  0  0  0
    7.4648  -15.1012   18.2654 N   0  0  0  0  0  0  0  0  0  0  0  0
    8.6186  -15.5761   20.3227 C   0  0  0  0  0  0  0  0  0  0  0  0
    7.5381  -15.9989   20.8079 O   0  0  0  0  0  0  0  0  0  0  0  0
   10.3364  -19.9694   21.7481 N   0  0  0  0  0  0  0  0  0  0  0  0
   10.9325  -18.7313   21.4068 C   0  0  0  0  0  0  0  0  0  0  0  0
   11.4440  -18.6064   20.2684 O   0  0  0  0  0  0  0  0  0  0  0  0
   10.9681  -17.5983   22.3412 C   0  0  0  0  0  0  0  0  0  0  0  0
    9.7704  -16.7019   22.2238 C   0  0  2  0  0  0  0  0  0  0  0  0
    9.8155  -15.9185   21.0302 N   0  0  0  0  0  0  0  0  0  0  0  0
    9.6900  -15.8589   23.4539 C   0  0  0  0  0  0  0  0  0  0  0  0
   10.6381  -15.0928   23.7613 O   0  0  0  0  0  0  0  0  0  0  0  0
    5.5448  -12.9336   26.7123 C   0  0  0  0  0  0  0  0  0  0  0  0
    7.0174  -13.3757   26.7416 C   0  0  2  0  0  0  0  0  0  0  0  0
    7.8175  -12.1051   26.7635 C   0  0  0  0  0  0  0  0  0  0  0  0
    7.2251  -14.2287   25.5485 C   0  0  0  0  0  0  0  0  0  0  0  0
    8.4757  -15.0432   25.5242 C   0  0  2  0  0  0  0  0  0  0  0  0
    8.5647  -15.8771   24.3221 N   0  0  0  0  0  0  0  0  0  0  0  0
    8.7572  -15.8013   26.7409 C   0  0  0  0  0  0  0  0  0  0  0  0
    9.5809  -15.2669   27.7047 O   0  0  0  0  0  0  0  0  0  0  0  0
    8.2631  -16.9283   26.9237 O   0  0  0  0  0  0  0  0  0  0  0  0
  2  1  1  1
  2  3  1  0
  4  2  1  0
  4  5  1  6
  6  7  2  0
  6  4  1  0
  9 11  1  0
  9  8  1  0
 10  9  2  0
 12 11  1  1
 12 14  1  0
 12 13  1  0
 13  6  1  0
 14 21  1  0
 15 14  2  0
 17 16  1  6
 18 17  1  0
 19 17  1  0
 20 19  1  1
 20 22  1  0
 21 20  1  0
 22 24  2  0
 22 23  1  0
M  END
$$$$
