VNL.pdb
     RDKit          3D

 24 23  0  0  1  0  0  0  0  0999 V2000
    7.1128  -13.0676   20.7976 C   0  0  0  0  0  0  0  0  0  0  0  0
    8.2485  -13.3411   19.8393 C   0  0  2  0  0  0  0  0  0  0  0  0
    8.1078  -12.4868   18.6176 C   0  0  0  0  0  0  0  0  0  0  0  0
    8.3020  -14.8149   19.4773 C   0  0  2  0  0  0  0  0  0  0  0  0
    7.0752  -15.2209   18.8347 N   0  0  0  0  0  0  0  0  0  0  0  0
    8.5399  -15.5706   20.7113 C   0  0  0  0  0  0  0  0  0  0  0  0
    7.5668  -16.0492   21.3482 O   0  0  0  0  0  0  0  0  0  0  0  0
   10.8522  -19.7421   21.7812 N   0  0  0  0  0  0  0  0  0  0  0  0
   11.3043  -18.4412   21.4523 C   0  0  0  0  0  0  0  0  0  0  0  0
   11.7169  -18.2272   20.2873 O   0  0  0  0  0  0  0  0  0  0  0  0
   11.3035  -17.3444   22.4294 C   0  0  0  0  0  0  0  0  0  0  0  0
   10.0146  -16.5762   22.4497 C   0  0  2  0  0  0  0  0  0  0  0  0
    9.8420  -15.8083   21.2577 N   0  0  0  0  0  0  0  0  0  0  0  0
    9.9896  -15.7295   23.6796 C   0  0  0  0  0  0  0  0  0  0  0  0
   10.3109  -14.5156   23.6209 O   0  0  0  0  0  0  0  0  0  0  0  0
    6.5958  -12.6005   26.0818 C   0  0  0  0  0  0  0  0  0  0  0  0
    7.7423  -13.4175   26.7007 C   0  0  2  0  0  0  0  0  0  0  0  0
    8.7520  -12.4063   27.1623 C   0  0  0  0  0  0  0  0  0  0  0  0
    8.2169  -14.3433   25.6461 C   0  0  0  0  0  0  0  0  0  0  0  0
    9.2121  -15.3736   26.0659 C   0  0  2  0  0  0  0  0  0  0  0  0
    9.6106  -16.2383   24.9516 N   0  0  0  0  0  0  0  0  0  0  0  0
    8.8593  -16.1410   27.2579 C   0  0  0  0  0  0  0  0  0  0  0  0
    8.1691  -17.3243   27.1303 O   0  0  0  0  0  0  0  0  0  0  0  0
    9.1732  -15.7426   28.3940 O   0  0  0  0  0  0  0  0  0  0  0  0
  2  1  1  1
  2  3  1  0
  4  2  1  0
  4  5  1  1
  6  7  2  0
  6  4  1  0
  9 11  1  0
  9  8  1  0
 10  9  2  0
 12 11  1  6
 12 14  1  0
 12 13  1  0
 13  6  1  0
 14 21  1  0
 15 14  2  0
 17 16  1  6
 18 17  1  0
 19 17  1  0
 20 19  1  6
 20 22  1  0
 21 20  1  0
 22 24  2  0
 22 23  1  0
M  END
$$$$
