VNL.pdb
     RDKit          3D

 24 23  0  0  1  0  0  0  0  0999 V2000
    6.8411  -14.3419   19.3800 C   0  0  0  0  0  0  0  0  0  0  0  0
    7.7735  -13.2473   19.8444 C   0  0  2  0  0  0  0  0  0  0  0  0
    8.0456  -12.2932   18.7230 C   0  0  0  0  0  0  0  0  0  0  0  0
    9.0621  -13.8362   20.3911 C   0  0  2  0  0  0  0  0  0  0  0  0
    9.7096  -14.6488   19.3895 N   0  0  0  0  0  0  0  0  0  0  0  0
    8.7256  -14.6184   21.5849 C   0  0  0  0  0  0  0  0  0  0  0  0
    7.7946  -14.2373   22.3397 O   0  0  0  0  0  0  0  0  0  0  0  0
    9.7933  -19.4652   21.2990 N   0  0  0  0  0  0  0  0  0  0  0  0
    9.1058  -18.8581   22.3776 C   0  0  0  0  0  0  0  0  0  0  0  0
    7.9178  -19.1957   22.5966 O   0  0  0  0  0  0  0  0  0  0  0  0
    9.7399  -17.8523   23.2402 C   0  0  0  0  0  0  0  0  0  0  0  0
    9.0711  -16.5108   23.1685 C   0  0  2  0  0  0  0  0  0  0  0  0
    9.4038  -15.8219   21.9622 N   0  0  0  0  0  0  0  0  0  0  0  0
    9.4427  -15.7330   24.3879 C   0  0  0  0  0  0  0  0  0  0  0  0
   10.6260  -15.3433   24.5560 O   0  0  0  0  0  0  0  0  0  0  0  0
    7.6998  -11.9627   25.9365 C   0  0  0  0  0  0  0  0  0  0  0  0
    6.8601  -13.1867   26.3388 C   0  0  2  0  0  0  0  0  0  0  0  0
    5.6105  -12.6300   26.9583 C   0  0  0  0  0  0  0  0  0  0  0  0
    7.7046  -13.9969   27.2470 C   0  0  0  0  0  0  0  0  0  0  0  0
    8.8725  -14.6891   26.6264 C   0  0  2  0  0  0  0  0  0  0  0  0
    8.5013  -15.3996   25.3995 N   0  0  0  0  0  0  0  0  0  0  0  0
    9.6610  -15.5251   27.5284 C   0  0  0  0  0  0  0  0  0  0  0  0
    9.8705  -16.8506   27.2247 O   0  0  0  0  0  0  0  0  0  0  0  0
   10.1503  -15.0586   28.5728 O   0  0  0  0  0  0  0  0  0  0  0  0
  2  1  1  6
  2  3  1  0
  4  2  1  0
  4  5  1  6
  6  7  2  0
  6  4  1  0
  9 11  1  0
  9  8  1  0
 10  9  2  0
 12 11  1  1
 12 14  1  0
 12 13  1  0
 13  6  1  0
 14 21  1  0
 15 14  2  0
 17 16  1  1
 18 17  1  0
 19 17  1  0
 20 19  1  1
 20 22  1  0
 21 20  1  0
 22 24  2  0
 22 23  1  0
M  END
$$$$
