ILG.pdb
     RDKit          3D

 21 20  0  0  1  0  0  0  0  0999 V2000
   19.4951  -15.5692  -18.2226 C   0  0  0  0  0  0  0  0  0  0  0  0
   19.2772  -14.0675  -18.3251 C   0  0  0  0  0  0  0  0  0  0  0  0
   19.8664  -13.4019  -17.0998 C   0  0  2  0  0  0  0  0  0  0  0  0
   19.4392  -14.1301  -15.8725 C   0  0  0  0  0  0  0  0  0  0  0  0
   19.6459  -11.9262  -17.0624 C   0  0  2  0  0  0  0  0  0  0  0  0
   19.8654  -11.4150  -18.4040 N   0  0  0  0  0  0  0  0  0  0  0  0
   20.4373  -11.2170  -16.0477 C   0  0  0  0  0  0  0  0  0  0  0  0
   20.2985  -11.5423  -14.8403 O   0  0  0  0  0  0  0  0  0  0  0  0
   25.7407  -10.6203  -16.3442 C   0  0  0  0  0  0  0  0  0  0  0  0
   24.3423  -10.7357  -15.8059 C   0  0  1  0  0  0  0  0  0  0  0  0
   24.4998  -11.2920  -14.3842 C   0  0  0  0  0  0  0  0  0  0  0  0
   23.5991   -9.4454  -15.7936 C   0  0  0  0  0  0  0  0  0  0  0  0
   22.2004   -9.5498  -15.2805 C   0  0  2  0  0  0  0  0  0  0  0  0
   21.3586  -10.1781  -16.3387 N   0  0  0  0  0  0  0  0  0  0  0  0
   21.5335   -8.2717  -14.9808 C   0  0  0  0  0  0  0  0  0  0  0  0
   22.0226   -7.4829  -14.1066 O   0  0  0  0  0  0  0  0  0  0  0  0
   20.3471   -7.8132  -15.6048 N   0  0  0  0  0  0  0  0  0  0  0  0
   19.7663   -6.5172  -15.2629 C   0  0  0  0  0  0  0  0  0  0  0  0
   20.2882   -5.4398  -16.1130 C   0  0  0  0  0  0  0  0  0  0  0  0
   21.1639   -5.7332  -16.9631 O   0  0  0  0  0  0  0  0  0  0  0  0
   19.7911   -4.1493  -15.9389 O   0  0  0  0  0  0  0  0  0  0  0  0
  2  1  1  0
  3  4  1  1
  3  2  1  0
  5  7  1  0
  5  3  1  0
  5  6  1  6
  7  8  2  0
 10  9  1  1
 10 12  1  0
 11 10  1  0
 13 12  1  6
 14  7  1  0
 14 13  1  0
 15 17  1  0
 15 13  1  0
 16 15  2  0
 18 17  1  0
 19 18  1  0
 19 21  1  0
 20 19  2  0
M  END
$$$$
