ILG.pdb
     RDKit          3D

 21 20  0  0  1  0  0  0  0  0999 V2000
   26.2204  -33.5923  -23.0383 C   0  0  0  0  0  0  0  0  0  0  0  0
   26.3196  -32.0859  -22.8536 C   0  0  0  0  0  0  0  0  0  0  0  0
   27.0151  -31.7978  -21.5402 C   0  0  2  0  0  0  0  0  0  0  0  0
   26.3112  -32.4978  -20.4296 C   0  0  0  0  0  0  0  0  0  0  0  0
   27.2650  -30.3448  -21.3075 C   0  0  2  0  0  0  0  0  0  0  0  0
   28.0708  -29.8551  -22.4121 N   0  0  0  0  0  0  0  0  0  0  0  0
   27.8470  -30.0288  -19.9959 C   0  0  0  0  0  0  0  0  0  0  0  0
   29.0783  -30.2205  -19.8216 O   0  0  0  0  0  0  0  0  0  0  0  0
   28.5287  -26.4042  -18.1847 C   0  0  0  0  0  0  0  0  0  0  0  0
   27.9608  -26.8536  -16.8678 C   0  0  1  0  0  0  0  0  0  0  0  0
   27.1831  -25.6455  -16.3282 C   0  0  0  0  0  0  0  0  0  0  0  0
   27.0800  -28.0494  -16.9748 C   0  0  0  0  0  0  0  0  0  0  0  0
   27.7420  -29.2451  -17.5769 C   0  0  2  0  0  0  0  0  0  0  0  0
   27.1078  -29.5160  -18.8988 N   0  0  0  0  0  0  0  0  0  0  0  0
   27.5939  -30.5028  -16.8254 C   0  0  0  0  0  0  0  0  0  0  0  0
   26.5387  -31.2065  -16.9551 O   0  0  0  0  0  0  0  0  0  0  0  0
   28.5607  -31.0306  -15.9344 N   0  0  0  0  0  0  0  0  0  0  0  0
   28.2621  -32.1890  -15.0960 C   0  0  0  0  0  0  0  0  0  0  0  0
   28.4154  -33.4518  -15.8292 C   0  0  0  0  0  0  0  0  0  0  0  0
   28.2936  -34.5234  -15.1870 O   0  0  0  0  0  0  0  0  0  0  0  0
   28.6872  -33.4039  -17.1956 O   0  0  0  0  0  0  0  0  0  0  0  0
  2  1  1  0
  3  4  1  1
  3  2  1  0
  5  7  1  0
  5  3  1  0
  5  6  1  6
  7  8  2  0
 10  9  1  6
 10 12  1  0
 11 10  1  0
 13 12  1  1
 14  7  1  0
 14 13  1  0
 15 17  1  0
 15 13  1  0
 16 15  2  0
 18 17  1  0
 19 18  1  0
 19 21  1  0
 20 19  2  0
M  END
$$$$
