ILG.pdb
     RDKit          3D

 21 20  0  0  1  0  0  0  0  0999 V2000
   21.9586  -19.7428  -17.2182 C   0  0  0  0  0  0  0  0  0  0  0  0
   21.2012  -19.4623  -15.9295 C   0  0  0  0  0  0  0  0  0  0  0  0
   21.6260  -20.4693  -14.8820 C   0  0  2  0  0  0  0  0  0  0  0  0
   21.5860  -21.8438  -15.4547 C   0  0  0  0  0  0  0  0  0  0  0  0
   20.9108  -20.3103  -13.5817 C   0  0  2  0  0  0  0  0  0  0  0  0
   20.8558  -18.8904  -13.2812 N   0  0  0  0  0  0  0  0  0  0  0  0
   21.4690  -21.1034  -12.4780 C   0  0  0  0  0  0  0  0  0  0  0  0
   21.4833  -22.3570  -12.5845 O   0  0  0  0  0  0  0  0  0  0  0  0
   25.9499  -19.7778   -9.6741 C   0  0  0  0  0  0  0  0  0  0  0  0
   24.8746  -20.6213  -10.2993 C   0  0  1  0  0  0  0  0  0  0  0  0
   25.4943  -22.0164  -10.4578 C   0  0  0  0  0  0  0  0  0  0  0  0
   23.6222  -20.6831   -9.4962 C   0  0  0  0  0  0  0  0  0  0  0  0
   22.4984  -21.4003  -10.1695 C   0  0  2  0  0  0  0  0  0  0  0  0
   21.9994  -20.5468  -11.2856 N   0  0  0  0  0  0  0  0  0  0  0  0
   21.3129  -21.6559   -9.3344 C   0  0  0  0  0  0  0  0  0  0  0  0
   20.3472  -20.8234   -9.3201 O   0  0  0  0  0  0  0  0  0  0  0  0
   21.1346  -22.7948   -8.5108 N   0  0  0  0  0  0  0  0  0  0  0  0
   19.9893  -22.9040   -7.6106 C   0  0  0  0  0  0  0  0  0  0  0  0
   18.9305  -23.7540   -8.1694 C   0  0  0  0  0  0  0  0  0  0  0  0
   19.0448  -24.1285   -9.3620 O   0  0  0  0  0  0  0  0  0  0  0  0
   17.8540  -24.1042   -7.3560 O   0  0  0  0  0  0  0  0  0  0  0  0
  2  1  1  0
  3  4  1  6
  3  2  1  0
  5  7  1  0
  5  3  1  0
  5  6  1  1
  7  8  2  0
 10  9  1  1
 10 12  1  0
 11 10  1  0
 13 12  1  1
 14  7  1  0
 14 13  1  0
 15 17  1  0
 15 13  1  0
 16 15  2  0
 18 17  1  0
 19 18  1  0
 19 21  1  0
 20 19  2  0
M  END
$$$$
