ILG.pdb
     RDKit          3D

 21 20  0  0  1  0  0  0  0  0999 V2000
   29.2927  -18.4875  -16.5331 C   0  0  0  0  0  0  0  0  0  0  0  0
   27.7723  -18.4614  -16.5069 C   0  0  0  0  0  0  0  0  0  0  0  0
   27.2801  -19.5247  -15.5483 C   0  0  2  0  0  0  0  0  0  0  0  0
   27.9842  -20.8105  -15.8127 C   0  0  0  0  0  0  0  0  0  0  0  0
   25.7923  -19.6253  -15.4867 C   0  0  2  0  0  0  0  0  0  0  0  0
   25.2601  -18.2740  -15.4889 N   0  0  0  0  0  0  0  0  0  0  0  0
   25.2816  -20.4352  -14.3723 C   0  0  0  0  0  0  0  0  0  0  0  0
   25.4729  -21.6786  -14.3944 O   0  0  0  0  0  0  0  0  0  0  0  0
   26.3541  -19.8061   -9.2670 C   0  0  0  0  0  0  0  0  0  0  0  0
   25.9295  -20.3655  -10.5958 C   0  0  1  0  0  0  0  0  0  0  0  0
   26.3432  -21.8431  -10.5644 C   0  0  0  0  0  0  0  0  0  0  0  0
   24.4713  -20.2263  -10.8633 C   0  0  0  0  0  0  0  0  0  0  0  0
   24.0354  -20.7798  -12.1802 C   0  0  2  0  0  0  0  0  0  0  0  0
   24.5790  -19.9059  -13.2591 N   0  0  0  0  0  0  0  0  0  0  0  0
   22.5816  -20.8025  -12.4133 C   0  0  0  0  0  0  0  0  0  0  0  0
   21.8018  -21.3224  -11.5488 O   0  0  0  0  0  0  0  0  0  0  0  0
   21.9382  -20.2722  -13.5587 N   0  0  0  0  0  0  0  0  0  0  0  0
   20.4831  -20.2933  -13.6852 C   0  0  0  0  0  0  0  0  0  0  0  0
   20.0003  -21.5534  -14.2642 C   0  0  0  0  0  0  0  0  0  0  0  0
   20.8528  -22.4115  -14.5994 O   0  0  0  0  0  0  0  0  0  0  0  0
   18.6268  -21.7382  -14.4142 O   0  0  0  0  0  0  0  0  0  0  0  0
  2  1  1  0
  3  4  1  6
  3  2  1  0
  5  7  1  0
  5  3  1  0
  5  6  1  1
  7  8  2  0
 10  9  1  1
 10 12  1  0
 11 10  1  0
 13 12  1  1
 14  7  1  0
 14 13  1  0
 15 17  1  0
 15 13  1  0
 16 15  2  0
 18 17  1  0
 19 18  1  0
 19 21  1  0
 20 19  2  0
M  END
$$$$
