RYM.pdb
     RDKit          3D

 32 32  0  0  1  0  0  0  0  0999 V2000
   27.9743  -26.9225  -18.2784 N   0  0  0  0  0  0  0  0  0  0  0  0
   28.6429  -25.7479  -17.7933 C   0  0  0  0  0  0  0  0  0  0  0  0
   29.7256  -25.3195  -18.3411 N   0  0  0  0  0  0  0  0  0  0  0  0
   28.0811  -25.0529  -16.6788 N   0  0  0  0  0  0  0  0  0  0  0  0
   26.9006  -25.5153  -16.0147 C   0  0  0  0  0  0  0  0  0  0  0  0
   25.6406  -25.2233  -16.7262 C   0  0  0  0  0  0  0  0  0  0  0  0
   24.7324  -24.1722  -16.2116 C   0  0  0  0  0  0  0  0  0  0  0  0
   24.2460  -24.1963  -14.8308 C   0  0  2  0  0  0  0  0  0  0  0  0
   23.5399  -25.3885  -14.4214 N   0  0  0  0  0  0  0  0  0  0  0  0
   23.4716  -22.9752  -14.4555 C   0  0  0  0  0  0  0  0  0  0  0  0
   22.2126  -23.1334  -14.4058 O   0  0  0  0  0  0  0  0  0  0  0  0
   30.2259  -24.4600  -18.0644 O   0  0  0  0  0  0  0  0  0  0  0  0
   24.3679  -21.1217   -7.5538 C   0  0  0  0  0  0  0  0  0  0  0  0
   24.3149  -20.7465   -8.9044 C   0  0  0  0  0  0  0  0  0  0  0  0
   25.4258  -20.8087   -9.7158 C   0  0  0  0  0  0  0  0  0  0  0  0
   25.3485  -20.4327  -11.0475 C   0  0  0  0  0  0  0  0  0  0  0  0
   24.1760  -19.9852  -11.6159 C   0  0  0  0  0  0  0  0  0  0  0  0
   24.0810  -19.5849  -13.0387 C   0  0  2  0  0  0  0  0  0  0  0  0
   23.2991  -20.5731  -13.8795 N   0  0  0  0  0  0  0  0  0  0  0  0
   24.0922  -21.7373  -14.1759 C   0  0  0  0  0  0  0  0  0  0  0  0
   22.9532  -19.9105  -15.1707 O   0  0  0  0  0  0  0  0  0  0  0  0
   23.6554  -20.0994  -16.1983 C   0  0  0  0  0  0  0  0  0  0  0  0
   23.0603  -19.9251  -10.7908 C   0  0  0  0  0  0  0  0  0  0  0  0
   23.1362  -20.3008   -9.4595 C   0  0  0  0  0  0  0  0  0  0  0  0
   19.2191  -21.3957  -20.9229 S   0  0  0  0  0  0  0  0  0  0  0  0
   19.9092  -21.5651  -19.2528 C   0  0  0  0  0  0  0  0  0  0  0  0
   20.3449  -19.9007  -18.6177 C   0  0  0  0  0  0  0  0  0  0  0  0
   20.9574  -20.0869  -17.2678 C   0  0  1  0  0  0  0  0  0  0  0  0
   21.2832  -18.7760  -16.5905 N   0  0  0  0  0  0  0  0  0  0  0  0
   21.8328  -19.0513  -15.2878 C   0  0  0  0  0  0  0  0  0  0  0  0
   20.1235  -17.8524  -16.5105 O   0  0  0  0  0  0  0  0  0  0  0  0
   19.5380  -17.5356  -15.4542 O   0  0  0  0  0  0  0  0  0  0  0  0
  1  2  1  0
  2  3  2  0
  2  4  1  0
  4  5  1  0
  5  6  1  0
  7  8  1  0
  7  6  1  0
  8  9  1  6
  8 10  1  0
 10 11  2  0
 12 13  1  0
 13 23  2  0
 13 14  1  0
 14 15  2  0
 15 16  1  0
 16 17  1  0
 18 17  1  1
 18 20  1  0
 19 10  1  0
 19 18  1  0
 20 29  1  0
 21 20  2  0
 22 16  2  0
 23 22  1  0
 25 24  1  0
 26 25  1  0
 27 26  1  0
 28 30  1  0
 28 27  1  6
 29 28  1  0
 30 32  1  0
 31 30  2  0
M  END
$$$$
