RYM.pdb
     RDKit          3D

 32 32  0  0  1  0  0  0  0  0999 V2000
   31.1574  -23.1887  -17.8401 N   0  0  0  0  0  0  0  0  0  0  0  0
   30.4710  -23.7261  -16.6990 C   0  0  0  0  0  0  0  0  0  0  0  0
   30.8605  -24.8153  -16.1352 N   0  0  0  0  0  0  0  0  0  0  0  0
   29.3346  -23.0244  -16.1922 N   0  0  0  0  0  0  0  0  0  0  0  0
   28.8904  -21.7894  -16.7630 C   0  0  0  0  0  0  0  0  0  0  0  0
   29.3001  -20.5842  -16.0154 C   0  0  0  0  0  0  0  0  0  0  0  0
   28.2703  -19.7179  -15.3960 C   0  0  0  0  0  0  0  0  0  0  0  0
   26.8507  -20.0733  -15.4398 C   0  0  2  0  0  0  0  0  0  0  0  0
   26.0880  -19.5291  -16.5397 N   0  0  0  0  0  0  0  0  0  0  0  0
   26.1423  -19.8385  -14.1457 C   0  0  0  0  0  0  0  0  0  0  0  0
   25.9197  -18.6189  -13.8703 O   0  0  0  0  0  0  0  0  0  0  0  0
   30.4301  -25.2296  -15.2933 O   0  0  0  0  0  0  0  0  0  0  0  0
   19.7674  -18.7374  -15.2961 C   0  0  0  0  0  0  0  0  0  0  0  0
   20.7371  -19.3857  -14.5168 C   0  0  0  0  0  0  0  0  0  0  0  0
   21.6076  -20.3028  -15.0622 C   0  0  0  0  0  0  0  0  0  0  0  0
   22.5574  -20.9302  -14.2718 C   0  0  0  0  0  0  0  0  0  0  0  0
   22.6757  -20.6720  -12.9237 C   0  0  0  0  0  0  0  0  0  0  0  0
   23.6896  -21.3334  -12.0705 C   0  0  2  0  0  0  0  0  0  0  0  0
   25.0252  -20.6187  -12.0781 N   0  0  0  0  0  0  0  0  0  0  0  0
   25.7488  -20.8930  -13.2920 C   0  0  0  0  0  0  0  0  0  0  0  0
   25.8326  -21.1341  -10.9342 O   0  0  0  0  0  0  0  0  0  0  0  0
   26.0156  -22.3703  -10.7821 C   0  0  0  0  0  0  0  0  0  0  0  0
   21.7938  -19.7462  -12.3812 C   0  0  0  0  0  0  0  0  0  0  0  0
   20.8439  -19.1181  -13.1703 C   0  0  0  0  0  0  0  0  0  0  0  0
   28.9728  -19.0825   -3.9725 S   0  0  0  0  0  0  0  0  0  0  0  0
   28.5984  -18.6509   -5.6951 C   0  0  0  0  0  0  0  0  0  0  0  0
   27.6430  -20.0186   -6.4568 C   0  0  0  0  0  0  0  0  0  0  0  0
   27.4467  -19.6747   -7.8973 C   0  0  1  0  0  0  0  0  0  0  0  0
   26.6738  -20.7336   -8.6486 N   0  0  0  0  0  0  0  0  0  0  0  0
   26.4176  -20.2603   -9.9847 C   0  0  0  0  0  0  0  0  0  0  0  0
   25.4214  -21.1428   -7.9642 O   0  0  0  0  0  0  0  0  0  0  0  0
   25.3580  -21.9723   -7.0331 O   0  0  0  0  0  0  0  0  0  0  0  0
  1  2  1  0
  2  3  2  0
  2  4  1  0
  4  5  1  0
  5  6  1  0
  7  8  1  0
  7  6  1  0
  8  9  1  6
  8 10  1  0
 10 11  2  0
 12 13  1  0
 13 23  2  0
 13 14  1  0
 14 15  2  0
 15 16  1  0
 16 17  1  0
 18 17  1  6
 18 20  1  0
 19 10  1  0
 19 18  1  0
 20 29  1  0
 21 20  2  0
 22 16  2  0
 23 22  1  0
 25 24  1  0
 26 25  1  0
 27 26  1  0
 28 30  1  0
 28 27  1  6
 29 28  1  0
 30 32  1  0
 31 30  2  0
M  END
$$$$
