RYM.pdb
     RDKit          3D

 32 32  0  0  1  0  0  0  0  0999 V2000
   30.3157  -27.1550  -17.6553 N   0  0  0  0  0  0  0  0  0  0  0  0
   29.8692  -28.4089  -18.1943 C   0  0  0  0  0  0  0  0  0  0  0  0
   30.6887  -29.3799  -18.3980 N   0  0  0  0  0  0  0  0  0  0  0  0
   28.4836  -28.5645  -18.5052 N   0  0  0  0  0  0  0  0  0  0  0  0
   27.5025  -27.6080  -18.0917 C   0  0  0  0  0  0  0  0  0  0  0  0
   27.0711  -27.7385  -16.6860 C   0  0  0  0  0  0  0  0  0  0  0  0
   25.9741  -26.8861  -16.1715 C   0  0  0  0  0  0  0  0  0  0  0  0
   26.0445  -25.4258  -16.2502 C   0  0  2  0  0  0  0  0  0  0  0  0
   27.3545  -24.8383  -16.0880 N   0  0  0  0  0  0  0  0  0  0  0  0
   25.0506  -24.7380  -15.3723 C   0  0  0  0  0  0  0  0  0  0  0  0
   25.5037  -24.3510  -14.2509 O   0  0  0  0  0  0  0  0  0  0  0  0
   30.4400  -30.2774  -18.8432 O   0  0  0  0  0  0  0  0  0  0  0  0
   20.0841  -23.7243  -20.7770 C   0  0  0  0  0  0  0  0  0  0  0  0
   20.6518  -23.4329  -19.5277 C   0  0  0  0  0  0  0  0  0  0  0  0
   22.0158  -23.3591  -19.3534 C   0  0  0  0  0  0  0  0  0  0  0  0
   22.5531  -23.0694  -18.1092 C   0  0  0  0  0  0  0  0  0  0  0  0
   21.7624  -22.8448  -17.0035 C   0  0  0  0  0  0  0  0  0  0  0  0
   22.3256  -22.5303  -15.6704 C   0  0  1  0  0  0  0  0  0  0  0  0
   22.8194  -23.7580  -14.9330 N   0  0  0  0  0  0  0  0  0  0  0  0
   23.7078  -24.5323  -15.7598 C   0  0  0  0  0  0  0  0  0  0  0  0
   21.6377  -24.6076  -14.6051 O   0  0  0  0  0  0  0  0  0  0  0  0
   21.2437  -25.4967  -15.4046 C   0  0  0  0  0  0  0  0  0  0  0  0
   20.3878  -22.9215  -17.1876 C   0  0  0  0  0  0  0  0  0  0  0  0
   19.8495  -23.2109  -18.4309 C   0  0  0  0  0  0  0  0  0  0  0  0
   19.7863  -29.0692   -9.8783 S   0  0  0  0  0  0  0  0  0  0  0  0
   19.1056  -27.3979   -9.6850 C   0  0  0  0  0  0  0  0  0  0  0  0
   18.7471  -26.7059  -11.3451 C   0  0  0  0  0  0  0  0  0  0  0  0
   19.9071  -25.8457  -11.7276 C   0  0  1  0  0  0  0  0  0  0  0  0
   19.7823  -25.2882  -13.1265 N   0  0  0  0  0  0  0  0  0  0  0  0
   20.9207  -24.4471  -13.3937 C   0  0  0  0  0  0  0  0  0  0  0  0
   18.5046  -24.5691  -13.3600 O   0  0  0  0  0  0  0  0  0  0  0  0
   18.3428  -23.3399  -13.2120 O   0  0  0  0  0  0  0  0  0  0  0  0
  1  2  1  0
  2  3  2  0
  2  4  1  0
  4  5  1  0
  5  6  1  0
  7  8  1  0
  7  6  1  0
  8  9  1  1
  8 10  1  0
 10 11  2  0
 12 13  1  0
 13 23  2  0
 13 14  1  0
 14 15  2  0
 15 16  1  0
 16 17  1  0
 18 17  1  1
 18 20  1  0
 19 10  1  0
 19 18  1  0
 20 29  1  0
 21 20  2  0
 22 16  2  0
 23 22  1  0
 25 24  1  0
 26 25  1  0
 27 26  1  0
 28 30  1  0
 28 27  1  6
 29 28  1  0
 30 32  1  0
 31 30  2  0
M  END
$$$$
