RYM.pdb
     RDKit          3D

 32 32  0  0  1  0  0  0  0  0999 V2000
   28.8136  -27.6537  -16.5766 N   0  0  0  0  0  0  0  0  0  0  0  0
   27.3924  -27.4484  -16.5751 C   0  0  0  0  0  0  0  0  0  0  0  0
   26.5753  -28.4233  -16.3802 N   0  0  0  0  0  0  0  0  0  0  0  0
   26.8923  -26.1286  -16.7963 N   0  0  0  0  0  0  0  0  0  0  0  0
   27.5849  -25.1841  -17.6188 C   0  0  0  0  0  0  0  0  0  0  0  0
   28.4662  -24.2572  -16.8818 C   0  0  0  0  0  0  0  0  0  0  0  0
   27.8908  -23.3513  -15.8606 C   0  0  0  0  0  0  0  0  0  0  0  0
   26.9775  -22.2688  -16.2319 C   0  0  2  0  0  0  0  0  0  0  0  0
   27.3769  -21.4508  -17.3540 N   0  0  0  0  0  0  0  0  0  0  0  0
   26.5763  -21.4114  -15.0763 C   0  0  0  0  0  0  0  0  0  0  0  0
   27.2034  -20.3111  -14.9824 O   0  0  0  0  0  0  0  0  0  0  0  0
   25.5464  -28.3437  -16.4048 O   0  0  0  0  0  0  0  0  0  0  0  0
   21.8483  -17.6993  -17.8462 C   0  0  0  0  0  0  0  0  0  0  0  0
   22.2695  -18.4318  -16.7264 C   0  0  0  0  0  0  0  0  0  0  0  0
   22.6909  -17.8094  -15.5726 C   0  0  0  0  0  0  0  0  0  0  0  0
   23.1022  -18.5548  -14.4790 C   0  0  0  0  0  0  0  0  0  0  0  0
   23.1101  -19.9324  -14.4920 C   0  0  0  0  0  0  0  0  0  0  0  0
   23.5435  -20.7389  -13.3279 C   0  0  2  0  0  0  0  0  0  0  0  0
   25.0500  -20.8449  -13.2105 N   0  0  0  0  0  0  0  0  0  0  0  0
   25.5744  -21.7944  -14.1570 C   0  0  0  0  0  0  0  0  0  0  0  0
   25.3743  -21.3347  -11.8391 O   0  0  0  0  0  0  0  0  0  0  0  0
   25.1007  -22.5148  -11.4967 C   0  0  0  0  0  0  0  0  0  0  0  0
   22.6840  -20.5525  -15.6595 C   0  0  0  0  0  0  0  0  0  0  0  0
   22.2724  -19.8085  -16.7534 C   0  0  0  0  0  0  0  0  0  0  0  0
   29.2576  -18.9213   -6.8906 S   0  0  0  0  0  0  0  0  0  0  0  0
   27.5278  -18.7004   -6.3876 C   0  0  0  0  0  0  0  0  0  0  0  0
   26.5024  -19.9827   -7.2047 C   0  0  0  0  0  0  0  0  0  0  0  0
   26.5978  -19.7552   -8.6781 C   0  0  2  0  0  0  0  0  0  0  0  0
   25.8426  -20.7917   -9.4774 N   0  0  0  0  0  0  0  0  0  0  0  0
   25.9956  -20.4980  -10.8792 C   0  0  0  0  0  0  0  0  0  0  0  0
   24.4123  -20.9004   -9.0946 O   0  0  0  0  0  0  0  0  0  0  0  0
   23.4686  -20.3603   -9.7083 O   0  0  0  0  0  0  0  0  0  0  0  0
  1  2  1  0
  2  3  2  0
  2  4  1  0
  4  5  1  0
  5  6  1  0
  7  8  1  0
  7  6  1  0
  8  9  1  6
  8 10  1  0
 10 11  2  0
 12 13  1  0
 13 23  2  0
 13 14  1  0
 14 15  2  0
 15 16  1  0
 16 17  1  0
 18 17  1  6
 18 20  1  0
 19 10  1  0
 19 18  1  0
 20 29  1  0
 21 20  2  0
 22 16  2  0
 23 22  1  0
 25 24  1  0
 26 25  1  0
 27 26  1  0
 28 30  1  0
 28 27  1  6
 29 28  1  0
 30 32  1  0
 31 30  2  0
M  END
$$$$
