RYM.pdb
     RDKit          3D

 32 32  0  0  1  0  0  0  0  0999 V2000
   21.3289  -28.9229  -14.4793 N   0  0  0  0  0  0  0  0  0  0  0  0
   20.1472  -29.4785  -15.0767 C   0  0  0  0  0  0  0  0  0  0  0  0
   19.9047  -30.7415  -15.0318 N   0  0  0  0  0  0  0  0  0  0  0  0
   19.2327  -28.5968  -15.7303 N   0  0  0  0  0  0  0  0  0  0  0  0
   19.4678  -27.1875  -15.8139 C   0  0  0  0  0  0  0  0  0  0  0  0
   20.5351  -26.7972  -16.7560 C   0  0  0  0  0  0  0  0  0  0  0  0
   21.5469  -25.7955  -16.3467 C   0  0  0  0  0  0  0  0  0  0  0  0
   21.2009  -24.3803  -16.2016 C   0  0  2  0  0  0  0  0  0  0  0  0
   21.9404  -23.4525  -17.0262 N   0  0  0  0  0  0  0  0  0  0  0  0
   21.1843  -23.9185  -14.7809 C   0  0  0  0  0  0  0  0  0  0  0  0
   22.3292  -23.7785  -14.2496 O   0  0  0  0  0  0  0  0  0  0  0  0
   19.0781  -31.1980  -15.4489 O   0  0  0  0  0  0  0  0  0  0  0  0
   23.3607  -18.2754  -15.0862 C   0  0  0  0  0  0  0  0  0  0  0  0
   22.4591  -19.1411  -14.4493 C   0  0  0  0  0  0  0  0  0  0  0  0
   22.6808  -19.6023  -13.1709 C   0  0  0  0  0  0  0  0  0  0  0  0
   21.7751  -20.4569  -12.5625 C   0  0  0  0  0  0  0  0  0  0  0  0
   20.6274  -20.8804  -13.1961 C   0  0  0  0  0  0  0  0  0  0  0  0
   19.6507  -21.7899  -12.5541 C   0  0  2  0  0  0  0  0  0  0  0  0
   20.0205  -23.2517  -12.6995 N   0  0  0  0  0  0  0  0  0  0  0  0
   19.9858  -23.6564  -14.0805 C   0  0  0  0  0  0  0  0  0  0  0  0
   19.0106  -24.0608  -11.9570 O   0  0  0  0  0  0  0  0  0  0  0  0
   18.1019  -24.6770  -12.5729 C   0  0  0  0  0  0  0  0  0  0  0  0
   20.4114  -20.4110  -14.4854 C   0  0  0  0  0  0  0  0  0  0  0  0
   21.3159  -19.5566  -15.0947 C   0  0  0  0  0  0  0  0  0  0  0  0
   18.6810  -30.7852  -10.4851 S   0  0  0  0  0  0  0  0  0  0  0  0
   19.4764  -29.2082  -10.9028 C   0  0  0  0  0  0  0  0  0  0  0  0
   18.5802  -27.8484  -10.0598 C   0  0  0  0  0  0  0  0  0  0  0  0
   19.1417  -26.5621  -10.5717 C   0  0  2  0  0  0  0  0  0  0  0  0
   18.5220  -25.3525   -9.9113 N   0  0  0  0  0  0  0  0  0  0  0  0
   19.0353  -24.1647  -10.5442 C   0  0  0  0  0  0  0  0  0  0  0  0
   18.7235  -25.3188   -8.4407 O   0  0  0  0  0  0  0  0  0  0  0  0
   19.7662  -24.9306   -7.8743 O   0  0  0  0  0  0  0  0  0  0  0  0
  1  2  1  0
  2  3  2  0
  2  4  1  0
  4  5  1  0
  5  6  1  0
  7  8  1  0
  7  6  1  0
  8  9  1  6
  8 10  1  0
 10 11  2  0
 12 13  1  0
 13 23  2  0
 13 14  1  0
 14 15  2  0
 15 16  1  0
 16 17  1  0
 18 17  1  6
 18 20  1  0
 19 10  1  0
 19 18  1  0
 20 29  1  0
 21 20  2  0
 22 16  2  0
 23 22  1  0
 25 24  1  0
 26 25  1  0
 27 26  1  0
 28 30  1  0
 28 27  1  6
 29 28  1  0
 30 32  1  0
 31 30  2  0
M  END
$$$$
