RYM.pdb
     RDKit          3D

 32 32  0  0  1  0  0  0  0  0999 V2000
   31.0003  -20.9869  -20.7674 N   0  0  0  0  0  0  0  0  0  0  0  0
   29.6422  -21.4160  -20.9504 C   0  0  0  0  0  0  0  0  0  0  0  0
   29.3658  -22.5852  -21.4113 N   0  0  0  0  0  0  0  0  0  0  0  0
   28.5886  -20.5138  -20.6087 N   0  0  0  0  0  0  0  0  0  0  0  0
   27.2141  -20.9123  -20.6278 C   0  0  0  0  0  0  0  0  0  0  0  0
   26.9477  -22.2302  -20.0184 C   0  0  0  0  0  0  0  0  0  0  0  0
   26.1529  -22.3163  -18.7713 C   0  0  0  0  0  0  0  0  0  0  0  0
   25.9544  -21.1466  -17.9134 C   0  0  2  0  0  0  0  0  0  0  0  0
   27.0831  -20.2553  -17.7747 N   0  0  0  0  0  0  0  0  0  0  0  0
   25.3882  -21.4857  -16.5732 C   0  0  0  0  0  0  0  0  0  0  0  0
   24.5508  -22.4404  -16.5712 O   0  0  0  0  0  0  0  0  0  0  0  0
   28.4271  -22.8942  -21.7098 O   0  0  0  0  0  0  0  0  0  0  0  0
   23.2435  -21.2335   -7.9690 C   0  0  0  0  0  0  0  0  0  0  0  0
   23.8524  -21.0051   -9.2119 C   0  0  0  0  0  0  0  0  0  0  0  0
   23.3258  -20.1159  -10.1220 C   0  0  0  0  0  0  0  0  0  0  0  0
   23.9459  -19.9069  -11.3437 C   0  0  0  0  0  0  0  0  0  0  0  0
   25.1004  -20.5676  -11.7023 C   0  0  0  0  0  0  0  0  0  0  0  0
   25.7737  -20.3489  -13.0032 C   0  0  1  0  0  0  0  0  0  0  0  0
   25.1134  -21.0966  -14.1433 N   0  0  0  0  0  0  0  0  0  0  0  0
   25.7565  -20.7972  -15.3959 C   0  0  0  0  0  0  0  0  0  0  0  0
   23.6948  -20.6436  -14.2339 O   0  0  0  0  0  0  0  0  0  0  0  0
   23.4183  -19.4274  -14.4051 C   0  0  0  0  0  0  0  0  0  0  0  0
   25.6249  -21.4630  -10.7790 C   0  0  0  0  0  0  0  0  0  0  0  0
   25.0062  -21.6727   -9.5573 C   0  0  0  0  0  0  0  0  0  0  0  0
   20.5411  -22.6024  -18.2726 S   0  0  0  0  0  0  0  0  0  0  0  0
   19.8281  -20.9789  -17.8855 C   0  0  0  0  0  0  0  0  0  0  0  0
   20.6134  -20.3330  -16.3593 C   0  0  0  0  0  0  0  0  0  0  0  0
   20.5423  -21.4147  -15.3313 C   0  0  2  0  0  0  0  0  0  0  0  0
   21.2676  -21.0542  -14.0556 N   0  0  0  0  0  0  0  0  0  0  0  0
   22.6157  -21.5559  -14.1311 C   0  0  0  0  0  0  0  0  0  0  0  0
   20.5749  -21.5306  -12.8319 O   0  0  0  0  0  0  0  0  0  0  0  0
   19.4475  -21.1462  -12.4574 O   0  0  0  0  0  0  0  0  0  0  0  0
  1  2  1  0
  2  3  2  0
  2  4  1  0
  4  5  1  0
  5  6  1  0
  7  8  1  0
  7  6  1  0
  8  9  1  1
  8 10  1  0
 10 11  2  0
 12 13  1  0
 13 23  2  0
 13 14  1  0
 14 15  2  0
 15 16  1  0
 16 17  1  0
 18 17  1  1
 18 20  1  0
 19 10  1  0
 19 18  1  0
 20 29  1  0
 21 20  2  0
 22 16  2  0
 23 22  1  0
 25 24  1  0
 26 25  1  0
 27 26  1  0
 28 30  1  0
 28 27  1  6
 29 28  1  0
 30 32  1  0
 31 30  2  0
M  END
$$$$
