FGD.pdb
     RDKit          3D

 24 24  0  0  1  0  0  0  0  0999 V2000
    6.3233  -16.0448   25.4596 N   0  0  0  0  0  0  0  0  0  0  0  0
    7.2695  -15.3814   24.6026 C   0  0  1  0  0  0  0  0  0  0  0  0
    8.0978  -14.4026   25.4022 C   0  0  0  0  0  0  0  0  0  0  0  0
    7.2603  -13.3046   25.8898 C   0  0  0  0  0  0  0  0  0  0  0  0
    7.6972  -11.9985   25.7747 C   0  0  0  0  0  0  0  0  0  0  0  0
    6.9084  -10.9546   26.2347 C   0  0  0  0  0  0  0  0  0  0  0  0
    5.6789  -11.2515   26.8091 C   0  0  0  0  0  0  0  0  0  0  0  0
    5.2671  -12.5570   26.9121 C   0  0  0  0  0  0  0  0  0  0  0  0
    6.0366  -13.6094   26.4608 C   0  0  0  0  0  0  0  0  0  0  0  0
    8.1343  -16.3432   23.8704 C   0  0  0  0  0  0  0  0  0  0  0  0
    8.6020  -17.3118   24.5141 O   0  0  0  0  0  0  0  0  0  0  0  0
    8.4508  -16.2210   22.5031 N   0  0  0  0  0  0  0  0  0  0  0  0
    9.7277  -15.8961   21.9677 C   0  0  0  0  0  0  0  0  0  0  0  0
   10.8692  -16.6433   22.5049 C   0  0  0  0  0  0  0  0  0  0  0  0
   11.2296  -17.6849   21.8560 O   0  0  0  0  0  0  0  0  0  0  0  0
   11.6196  -16.3446   23.6570 N   0  0  0  0  0  0  0  0  0  0  0  0
   12.7082  -17.1534   24.1668 C   0  0  1  0  0  0  0  0  0  0  0  0
   14.0018  -16.3868   24.2938 C   0  0  0  0  0  0  0  0  0  0  0  0
   14.5581  -16.0113   22.9750 C   0  0  0  0  0  0  0  0  0  0  0  0
   14.2135  -16.6642   21.9625 O   0  0  0  0  0  0  0  0  0  0  0  0
   12.2969  -17.7082   25.4777 C   0  0  0  0  0  0  0  0  0  0  0  0
   13.0822  -18.6630   26.0893 O   0  0  0  0  0  0  0  0  0  0  0  0
   15.4356  -14.9728   22.8374 O   0  0  0  0  0  0  0  0  0  0  0  0
   11.2478  -17.3309   26.0497 O   0  0  0  0  0  0  0  0  0  0  0  0
  2  1  1  1
  3  2  1  0
  4  9  2  0
  4  3  1  0
  5  4  1  0
  6  7  1  0
  6  5  2  0
  7  8  2  0
  8  9  1  0
 10  2  1  0
 10 12  1  0
 11 10  2  0
 13 12  1  0
 13 14  1  0
 14 16  1  0
 15 14  2  0
 16 17  1  0
 17 21  1  0
 17 18  1  1
 19 18  1  0
 20 19  2  0
 21 24  2  0
 21 22  1  0
 23 19  1  0
M  END
$$$$
