FGD.pdb
     RDKit          3D

 24 24  0  0  1  0  0  0  0  0999 V2000
    6.4512  -16.2897   25.3127 N   0  0  0  0  0  0  0  0  0  0  0  0
    7.1672  -15.4209   24.4169 C   0  0  1  0  0  0  0  0  0  0  0  0
    8.0641  -14.4911   25.2007 C   0  0  0  0  0  0  0  0  0  0  0  0
    7.2781  -13.4137   25.8058 C   0  0  0  0  0  0  0  0  0  0  0  0
    6.4707  -13.6759   26.8964 C   0  0  0  0  0  0  0  0  0  0  0  0
    5.7241  -12.6596   27.4735 C   0  0  0  0  0  0  0  0  0  0  0  0
    5.8069  -11.3826   26.9332 C   0  0  0  0  0  0  0  0  0  0  0  0
    6.6161  -11.1473   25.8496 C   0  0  0  0  0  0  0  0  0  0  0  0
    7.3666  -12.1441   25.2610 C   0  0  0  0  0  0  0  0  0  0  0  0
    7.9395  -16.1785   23.3978 C   0  0  0  0  0  0  0  0  0  0  0  0
    8.3564  -17.3180   23.7123 O   0  0  0  0  0  0  0  0  0  0  0  0
    8.2230  -15.6841   22.1094 N   0  0  0  0  0  0  0  0  0  0  0  0
    9.0052  -16.3381   21.1178 C   0  0  0  0  0  0  0  0  0  0  0  0
   10.3820  -16.6765   21.4919 C   0  0  0  0  0  0  0  0  0  0  0  0
   11.2591  -16.6201   20.5628 O   0  0  0  0  0  0  0  0  0  0  0  0
   10.8530  -17.0566   22.7620 N   0  0  0  0  0  0  0  0  0  0  0  0
   12.2475  -17.2582   23.0999 C   0  0  1  0  0  0  0  0  0  0  0  0
   13.1013  -16.0449   22.8241 C   0  0  0  0  0  0  0  0  0  0  0  0
   14.5278  -16.2856   23.1355 C   0  0  0  0  0  0  0  0  0  0  0  0
   15.2569  -15.3110   23.4335 O   0  0  0  0  0  0  0  0  0  0  0  0
   12.3258  -17.6404   24.5292 C   0  0  0  0  0  0  0  0  0  0  0  0
   12.9711  -18.8055   24.8878 O   0  0  0  0  0  0  0  0  0  0  0  0
   15.0653  -17.5415   23.1054 O   0  0  0  0  0  0  0  0  0  0  0  0
   11.8184  -16.9289   25.4273 O   0  0  0  0  0  0  0  0  0  0  0  0
  2  1  1  1
  3  2  1  0
  4  9  2  0
  4  3  1  0
  5  4  1  0
  6  7  1  0
  6  5  2  0
  7  8  2  0
  8  9  1  0
 10  2  1  0
 10 12  1  0
 11 10  2  0
 13 12  1  0
 13 14  1  0
 14 16  1  0
 15 14  2  0
 16 17  1  0
 17 21  1  0
 17 18  1  1
 19 18  1  0
 20 19  2  0
 21 24  2  0
 21 22  1  0
 23 19  1  0
M  END
$$$$
