FGD.pdb
     RDKit          3D

 24 24  0  0  1  0  0  0  0  0999 V2000
    8.7334  -15.2373   25.0228 N   0  0  0  0  0  0  0  0  0  0  0  0
    7.4108  -15.7831   24.8724 C   0  0  1  0  0  0  0  0  0  0  0  0
    6.4499  -14.7036   24.4310 C   0  0  0  0  0  0  0  0  0  0  0  0
    6.5819  -13.5222   25.2864 C   0  0  0  0  0  0  0  0  0  0  0  0
    7.5390  -12.5667   25.0023 C   0  0  0  0  0  0  0  0  0  0  0  0
    7.6686  -11.4459   25.8088 C   0  0  0  0  0  0  0  0  0  0  0  0
    6.8200  -11.3085   26.8999 C   0  0  0  0  0  0  0  0  0  0  0  0
    5.8772  -12.2714   27.1614 C   0  0  0  0  0  0  0  0  0  0  0  0
    5.7322  -13.3932   26.3717 C   0  0  0  0  0  0  0  0  0  0  0  0
    7.3835  -16.9397   23.9393 C   0  0  0  0  0  0  0  0  0  0  0  0
    6.4079  -17.7233   24.0122 O   0  0  0  0  0  0  0  0  0  0  0  0
    8.3897  -17.1958   22.9869 N   0  0  0  0  0  0  0  0  0  0  0  0
    8.7207  -18.4679   22.4440 C   0  0  0  0  0  0  0  0  0  0  0  0
    9.8574  -19.1626   23.0568 C   0  0  0  0  0  0  0  0  0  0  0  0
   10.3599  -20.1348   22.3949 O   0  0  0  0  0  0  0  0  0  0  0  0
   10.4639  -18.8810   24.2947 N   0  0  0  0  0  0  0  0  0  0  0  0
   11.7817  -18.3011   24.4563 C   0  0  1  0  0  0  0  0  0  0  0  0
   12.1126  -17.2853   23.3906 C   0  0  0  0  0  0  0  0  0  0  0  0
   13.5706  -17.1678   23.1669 C   0  0  0  0  0  0  0  0  0  0  0  0
   14.2363  -18.2059   22.9448 O   0  0  0  0  0  0  0  0  0  0  0  0
   11.8554  -17.6899   25.8040 C   0  0  0  0  0  0  0  0  0  0  0  0
   12.9938  -17.8552   26.5650 O   0  0  0  0  0  0  0  0  0  0  0  0
   14.2044  -15.9576   23.1970 O   0  0  0  0  0  0  0  0  0  0  0  0
   10.9050  -17.0223   26.2744 O   0  0  0  0  0  0  0  0  0  0  0  0
  2  1  1  6
  3  2  1  0
  4  9  2  0
  4  3  1  0
  5  4  1  0
  6  7  1  0
  6  5  2  0
  7  8  2  0
  8  9  1  0
 10  2  1  0
 10 12  1  0
 11 10  2  0
 13 12  1  0
 13 14  1  0
 14 16  1  0
 15 14  2  0
 16 17  1  0
 17 21  1  0
 17 18  1  6
 19 18  1  0
 20 19  2  0
 21 24  2  0
 21 22  1  0
 23 19  1  0
M  END
$$$$
