FGD.pdb
     RDKit          3D

 24 24  0  0  1  0  0  0  0  0999 V2000
    7.2581  -16.7815   22.7944 N   0  0  0  0  0  0  0  0  0  0  0  0
    8.4501  -16.6966   21.9933 C   0  0  1  0  0  0  0  0  0  0  0  0
    9.1754  -15.4015   22.2761 C   0  0  0  0  0  0  0  0  0  0  0  0
    8.5489  -14.2962   21.5476 C   0  0  0  0  0  0  0  0  0  0  0  0
    7.7295  -13.4054   22.2146 C   0  0  0  0  0  0  0  0  0  0  0  0
    7.1335  -12.3568   21.5299 C   0  0  0  0  0  0  0  0  0  0  0  0
    7.3783  -12.2251   20.1689 C   0  0  0  0  0  0  0  0  0  0  0  0
    8.1961  -13.1229   19.5288 C   0  0  0  0  0  0  0  0  0  0  0  0
    8.7982  -14.1724   20.1915 C   0  0  0  0  0  0  0  0  0  0  0  0
    9.3446  -17.8668   22.1920 C   0  0  0  0  0  0  0  0  0  0  0  0
    9.5123  -18.2785   23.3641 O   0  0  0  0  0  0  0  0  0  0  0  0
   10.0061  -18.5290   21.1391 N   0  0  0  0  0  0  0  0  0  0  0  0
   10.9941  -19.5422   21.2804 C   0  0  0  0  0  0  0  0  0  0  0  0
   12.2342  -19.1536   21.9595 C   0  0  0  0  0  0  0  0  0  0  0  0
   13.1563  -20.0379   22.0200 O   0  0  0  0  0  0  0  0  0  0  0  0
   12.5297  -17.9133   22.5542 N   0  0  0  0  0  0  0  0  0  0  0  0
   13.8083  -17.5599   23.1368 C   0  0  1  0  0  0  0  0  0  0  0  0
   14.2144  -16.1360   22.8458 C   0  0  0  0  0  0  0  0  0  0  0  0
   15.5174  -15.7926   23.4573 C   0  0  0  0  0  0  0  0  0  0  0  0
   15.8464  -16.3424   24.5342 O   0  0  0  0  0  0  0  0  0  0  0  0
   13.7309  -17.7947   24.5977 C   0  0  0  0  0  0  0  0  0  0  0  0
   14.8771  -18.1076   25.2984 O   0  0  0  0  0  0  0  0  0  0  0  0
   16.3662  -14.8930   22.8763 O   0  0  0  0  0  0  0  0  0  0  0  0
   12.6451  -17.7162   25.2182 O   0  0  0  0  0  0  0  0  0  0  0  0
  2  1  1  1
  3  2  1  0
  4  9  2  0
  4  3  1  0
  5  4  1  0
  6  7  1  0
  6  5  2  0
  7  8  2  0
  8  9  1  0
 10  2  1  0
 10 12  1  0
 11 10  2  0
 13 12  1  0
 13 14  1  0
 14 16  1  0
 15 14  2  0
 16 17  1  0
 17 21  1  0
 17 18  1  1
 19 18  1  0
 20 19  2  0
 21 24  2  0
 21 22  1  0
 23 19  1  0
M  END
$$$$
