FGD.pdb
     RDKit          3D

 24 24  0  0  1  0  0  0  0  0999 V2000
    6.1124  -17.0195   25.3132 N   0  0  0  0  0  0  0  0  0  0  0  0
    6.8915  -15.9356   24.7765 C   0  0  1  0  0  0  0  0  0  0  0  0
    7.6232  -15.2207   25.8887 C   0  0  0  0  0  0  0  0  0  0  0  0
    7.0978  -13.8639   26.0555 C   0  0  0  0  0  0  0  0  0  0  0  0
    5.9004  -13.6627   26.7153 C   0  0  0  0  0  0  0  0  0  0  0  0
    5.3980  -12.3800   26.8762 C   0  0  0  0  0  0  0  0  0  0  0  0
    6.1219  -11.3116   26.3622 C   0  0  0  0  0  0  0  0  0  0  0  0
    7.3089  -11.5373   25.7107 C   0  0  0  0  0  0  0  0  0  0  0  0
    7.8256  -12.8050   25.5402 C   0  0  0  0  0  0  0  0  0  0  0  0
    7.8332  -16.3903   23.7204 C   0  0  0  0  0  0  0  0  0  0  0  0
    8.3421  -17.5290   23.8457 O   0  0  0  0  0  0  0  0  0  0  0  0
    8.1785  -15.6127   22.5975 N   0  0  0  0  0  0  0  0  0  0  0  0
    9.2362  -15.8853   21.6868 C   0  0  0  0  0  0  0  0  0  0  0  0
   10.5716  -16.0513   22.2691 C   0  0  0  0  0  0  0  0  0  0  0  0
   11.4530  -15.1852   21.9391 O   0  0  0  0  0  0  0  0  0  0  0  0
   10.9978  -17.0575   23.1554 N   0  0  0  0  0  0  0  0  0  0  0  0
   12.3108  -17.1202   23.7646 C   0  0  1  0  0  0  0  0  0  0  0  0
   12.4569  -18.2698   24.7312 C   0  0  0  0  0  0  0  0  0  0  0  0
   13.7607  -18.2468   25.4308 C   0  0  0  0  0  0  0  0  0  0  0  0
   14.6185  -17.3999   25.0884 O   0  0  0  0  0  0  0  0  0  0  0  0
   13.3183  -17.2142   22.6823 C   0  0  0  0  0  0  0  0  0  0  0  0
   13.2679  -18.2693   21.7953 O   0  0  0  0  0  0  0  0  0  0  0  0
   14.0488  -19.1248   26.4374 O   0  0  0  0  0  0  0  0  0  0  0  0
   14.2211  -16.3554   22.5500 O   0  0  0  0  0  0  0  0  0  0  0  0
  2  1  1  1
  3  2  1  0
  4  9  2  0
  4  3  1  0
  5  4  1  0
  6  7  1  0
  6  5  2  0
  7  8  2  0
  8  9  1  0
 10  2  1  0
 10 12  1  0
 11 10  2  0
 13 12  1  0
 13 14  1  0
 14 16  1  0
 15 14  2  0
 16 17  1  0
 17 21  1  0
 17 18  1  1
 19 18  1  0
 20 19  2  0
 21 24  2  0
 21 22  1  0
 23 19  1  0
M  END
$$$$
