FGD.pdb
     RDKit          3D

 24 24  0  0  1  0  0  0  0  0999 V2000
    9.1671  -14.6536   24.7784 N   0  0  0  0  0  0  0  0  0  0  0  0
    7.9964  -14.9454   23.9947 C   0  0  1  0  0  0  0  0  0  0  0  0
    7.1447  -13.7055   23.8510 C   0  0  0  0  0  0  0  0  0  0  0  0
    6.8672  -13.1220   25.1652 C   0  0  0  0  0  0  0  0  0  0  0  0
    7.6006  -12.0381   25.6089 C   0  0  0  0  0  0  0  0  0  0  0  0
    7.3422  -11.4814   26.8527 C   0  0  0  0  0  0  0  0  0  0  0  0
    6.3367  -12.0353   27.6347 C   0  0  0  0  0  0  0  0  0  0  0  0
    5.6219  -13.1120   27.1717 C   0  0  0  0  0  0  0  0  0  0  0  0
    5.8633  -13.6803   25.9380 C   0  0  0  0  0  0  0  0  0  0  0  0
    8.3385  -15.5181   22.6665 C   0  0  0  0  0  0  0  0  0  0  0  0
    7.4149  -16.0509   22.0073 O   0  0  0  0  0  0  0  0  0  0  0  0
    9.6358  -15.4919   22.1179 N   0  0  0  0  0  0  0  0  0  0  0  0
   10.3383  -16.6066   21.5824 C   0  0  0  0  0  0  0  0  0  0  0  0
   11.3723  -17.1977   22.4375 C   0  0  0  0  0  0  0  0  0  0  0  0
   11.9186  -18.2746   22.0160 O   0  0  0  0  0  0  0  0  0  0  0  0
   11.8372  -16.7139   23.6742 N   0  0  0  0  0  0  0  0  0  0  0  0
   12.7732  -17.4091   24.5344 C   0  0  1  0  0  0  0  0  0  0  0  0
   14.0557  -16.6434   24.7491 C   0  0  0  0  0  0  0  0  0  0  0  0
   14.7237  -16.3071   23.4722 C   0  0  0  0  0  0  0  0  0  0  0  0
   15.0223  -15.1126   23.2394 O   0  0  0  0  0  0  0  0  0  0  0  0
   12.1007  -17.6780   25.8270 C   0  0  0  0  0  0  0  0  0  0  0  0
   12.7747  -18.3652   26.8148 O   0  0  0  0  0  0  0  0  0  0  0  0
   15.0210  -17.2662   22.5453 O   0  0  0  0  0  0  0  0  0  0  0  0
   10.9282  -17.2953   26.0485 O   0  0  0  0  0  0  0  0  0  0  0  0
  2  1  1  6
  3  2  1  0
  4  9  2  0
  4  3  1  0
  5  4  1  0
  6  7  1  0
  6  5  2  0
  7  8  2  0
  8  9  1  0
 10  2  1  0
 10 12  1  0
 11 10  2  0
 13 12  1  0
 13 14  1  0
 14 16  1  0
 15 14  2  0
 16 17  1  0
 17 21  1  0
 17 18  1  1
 19 18  1  0
 20 19  2  0
 21 24  2  0
 21 22  1  0
 23 19  1  0
M  END
$$$$
