FGD.pdb
     RDKit          3D

 24 24  0  0  1  0  0  0  0  0999 V2000
    5.7104  -15.9690   24.4038 N   0  0  0  0  0  0  0  0  0  0  0  0
    7.0908  -15.6193   24.1985 C   0  0  1  0  0  0  0  0  0  0  0  0
    7.7021  -15.1342   25.4925 C   0  0  0  0  0  0  0  0  0  0  0  0
    7.1816  -13.8095   25.8376 C   0  0  0  0  0  0  0  0  0  0  0  0
    7.9820  -12.6926   25.6904 C   0  0  0  0  0  0  0  0  0  0  0  0
    7.4945  -11.4356   26.0156 C   0  0  0  0  0  0  0  0  0  0  0  0
    6.1930  -11.3277   26.4889 C   0  0  0  0  0  0  0  0  0  0  0  0
    5.4175  -12.4521   26.6264 C   0  0  0  0  0  0  0  0  0  0  0  0
    5.8835  -13.7111   26.3086 C   0  0  0  0  0  0  0  0  0  0  0  0
    7.8750  -16.7429   23.6229 C   0  0  0  0  0  0  0  0  0  0  0  0
    9.0255  -16.4900   23.1944 O   0  0  0  0  0  0  0  0  0  0  0  0
    7.3939  -18.0643   23.5361 N   0  0  0  0  0  0  0  0  0  0  0  0
    8.0083  -19.1311   22.8241 C   0  0  0  0  0  0  0  0  0  0  0  0
    9.3810  -19.4694   23.2130 C   0  0  0  0  0  0  0  0  0  0  0  0
   10.0893  -20.0826   22.3423 O   0  0  0  0  0  0  0  0  0  0  0  0
   10.0136  -19.1945   24.4393 N   0  0  0  0  0  0  0  0  0  0  0  0
   11.3705  -18.7059   24.5779 C   0  0  1  0  0  0  0  0  0  0  0  0
   11.6622  -17.5193   23.6923 C   0  0  0  0  0  0  0  0  0  0  0  0
   13.0492  -17.0302   23.8556 C   0  0  0  0  0  0  0  0  0  0  0  0
   13.7943  -17.5870   24.6953 O   0  0  0  0  0  0  0  0  0  0  0  0
   11.5956  -18.3648   26.0021 C   0  0  0  0  0  0  0  0  0  0  0  0
   10.8202  -17.3934   26.6000 O   0  0  0  0  0  0  0  0  0  0  0  0
   13.5335  -15.9895   23.1143 O   0  0  0  0  0  0  0  0  0  0  0  0
   12.4772  -18.9389   26.6827 O   0  0  0  0  0  0  0  0  0  0  0  0
  2  1  1  1
  3  2  1  0
  4  9  2  0
  4  3  1  0
  5  4  1  0
  6  7  1  0
  6  5  2  0
  7  8  2  0
  8  9  1  0
 10  2  1  0
 10 12  1  0
 11 10  2  0
 13 12  1  0
 13 14  1  0
 14 16  1  0
 15 14  2  0
 16 17  1  0
 17 21  1  0
 17 18  1  6
 19 18  1  0
 20 19  2  0
 21 24  2  0
 21 22  1  0
 23 19  1  0
M  END
$$$$
