FGD.pdb
     RDKit          3D

 24 24  0  0  1  0  0  0  0  0999 V2000
    8.9724  -15.0359   24.4193 N   0  0  0  0  0  0  0  0  0  0  0  0
    7.6500  -15.0491   23.8529 C   0  0  1  0  0  0  0  0  0  0  0  0
    7.1191  -13.6389   23.7390 C   0  0  0  0  0  0  0  0  0  0  0  0
    7.1277  -12.9831   25.0484 C   0  0  0  0  0  0  0  0  0  0  0  0
    6.0049  -13.0310   25.8527 C   0  0  0  0  0  0  0  0  0  0  0  0
    6.0073  -12.4118   27.0937 C   0  0  0  0  0  0  0  0  0  0  0  0
    7.1562  -11.7480   27.5049 C   0  0  0  0  0  0  0  0  0  0  0  0
    8.2588  -11.7145   26.6879 C   0  0  0  0  0  0  0  0  0  0  0  0
    8.2768  -12.3239   25.4504 C   0  0  0  0  0  0  0  0  0  0  0  0
    7.6082  -15.7456   22.5406 C   0  0  0  0  0  0  0  0  0  0  0  0
    6.8813  -16.7623   22.4444 O   0  0  0  0  0  0  0  0  0  0  0  0
    8.3377  -15.3238   21.4116 N   0  0  0  0  0  0  0  0  0  0  0  0
    9.2165  -16.1300   20.6367 C   0  0  0  0  0  0  0  0  0  0  0  0
   10.4128  -16.6325   21.3195 C   0  0  0  0  0  0  0  0  0  0  0  0
   10.3960  -17.8605   21.6769 O   0  0  0  0  0  0  0  0  0  0  0  0
   11.5845  -15.9171   21.6273 N   0  0  0  0  0  0  0  0  0  0  0  0
   12.4959  -16.2477   22.7040 C   0  0  1  0  0  0  0  0  0  0  0  0
   11.7860  -16.6538   23.9722 C   0  0  0  0  0  0  0  0  0  0  0  0
   12.7301  -17.1053   25.0185 C   0  0  0  0  0  0  0  0  0  0  0  0
   13.9615  -17.0224   24.8018 O   0  0  0  0  0  0  0  0  0  0  0  0
   13.3915  -17.3308   22.2349 C   0  0  0  0  0  0  0  0  0  0  0  0
   14.6487  -17.0173   21.7619 O   0  0  0  0  0  0  0  0  0  0  0  0
   12.2907  -17.6084   26.2106 O   0  0  0  0  0  0  0  0  0  0  0  0
   13.0354  -18.5320   22.2564 O   0  0  0  0  0  0  0  0  0  0  0  0
  2  1  1  6
  3  2  1  0
  4  9  2  0
  4  3  1  0
  5  4  1  0
  6  7  1  0
  6  5  2  0
  7  8  2  0
  8  9  1  0
 10  2  1  0
 10 12  1  0
 11 10  2  0
 13 12  1  0
 13 14  1  0
 14 16  1  0
 15 14  2  0
 16 17  1  0
 17 21  1  0
 17 18  1  1
 19 18  1  0
 20 19  2  0
 21 24  2  0
 21 22  1  0
 23 19  1  0
M  END
$$$$
