FGD.pdb
     RDKit          3D

 24 24  0  0  1  0  0  0  0  0999 V2000
    6.3690  -16.1707   25.5149 N   0  0  0  0  0  0  0  0  0  0  0  0
    7.3751  -15.5908   24.6655 C   0  0  1  0  0  0  0  0  0  0  0  0
    8.2375  -14.6362   25.4582 C   0  0  0  0  0  0  0  0  0  0  0  0
    7.4388  -13.5076   25.9409 C   0  0  0  0  0  0  0  0  0  0  0  0
    6.9089  -13.5316   27.2170 C   0  0  0  0  0  0  0  0  0  0  0  0
    6.1516  -12.4656   27.6794 C   0  0  0  0  0  0  0  0  0  0  0  0
    5.9408  -11.3825   26.8356 C   0  0  0  0  0  0  0  0  0  0  0  0
    6.4778  -11.3823   25.5723 C   0  0  0  0  0  0  0  0  0  0  0  0
    7.2336  -12.4323   25.0935 C   0  0  0  0  0  0  0  0  0  0  0  0
    8.2013  -16.6238   23.9880 C   0  0  0  0  0  0  0  0  0  0  0  0
    8.3652  -17.7172   24.5786 O   0  0  0  0  0  0  0  0  0  0  0  0
    8.8030  -16.4365   22.7279 N   0  0  0  0  0  0  0  0  0  0  0  0
    9.6619  -17.3581   22.0679 C   0  0  0  0  0  0  0  0  0  0  0  0
   10.9384  -17.6479   22.7286 C   0  0  0  0  0  0  0  0  0  0  0  0
   11.5094  -18.7487   22.4154 O   0  0  0  0  0  0  0  0  0  0  0  0
   11.6126  -16.8502   23.6713 N   0  0  0  0  0  0  0  0  0  0  0  0
   12.7482  -17.2840   24.4595 C   0  0  1  0  0  0  0  0  0  0  0  0
   13.8907  -16.2984   24.4380 C   0  0  0  0  0  0  0  0  0  0  0  0
   14.5915  -16.2869   23.1347 C   0  0  0  0  0  0  0  0  0  0  0  0
   14.2145  -17.0743   22.2358 O   0  0  0  0  0  0  0  0  0  0  0  0
   12.2847  -17.5188   25.8471 C   0  0  0  0  0  0  0  0  0  0  0  0
   13.1516  -18.0639   26.7712 O   0  0  0  0  0  0  0  0  0  0  0  0
   15.6361  -15.4404   22.8909 O   0  0  0  0  0  0  0  0  0  0  0  0
   11.1186  -17.2338   26.2063 O   0  0  0  0  0  0  0  0  0  0  0  0
  2  1  1  1
  3  2  1  0
  4  9  2  0
  4  3  1  0
  5  4  1  0
  6  7  1  0
  6  5  2  0
  7  8  2  0
  8  9  1  0
 10  2  1  0
 10 12  1  0
 11 10  2  0
 13 12  1  0
 13 14  1  0
 14 16  1  0
 15 14  2  0
 16 17  1  0
 17 21  1  0
 17 18  1  1
 19 18  1  0
 20 19  2  0
 21 24  2  0
 21 22  1  0
 23 19  1  0
M  END
$$$$
