KLV.pdb
     RDKit          3D

 25 24  0  0  1  0  0  0  0  0999 V2000
   27.1101  -19.6522  -16.9580 N   0  0  0  0  0  0  0  0  0  0  0  0
   25.7717  -20.0907  -17.2923 C   0  0  1  0  0  0  0  0  0  0  0  0
   25.8638  -21.0276  -18.5014 C   0  0  0  0  0  0  0  0  0  0  0  0
   26.7797  -20.3798  -19.4844 C   0  0  0  0  0  0  0  0  0  0  0  0
   26.1022  -19.9218  -20.7434 C   0  0  0  0  0  0  0  0  0  0  0  0
   27.0265  -19.2960  -21.7341 C   0  0  0  0  0  0  0  0  0  0  0  0
   26.2529  -18.8482  -22.8890 N   0  0  0  0  0  0  0  0  0  0  0  0
   25.2155  -20.8013  -16.1206 C   0  0  0  0  0  0  0  0  0  0  0  0
   24.2826  -21.6517  -16.2284 O   0  0  0  0  0  0  0  0  0  0  0  0
   25.8119  -20.1111   -9.9904 C   0  0  0  0  0  0  0  0  0  0  0  0
   25.0017  -20.8147  -11.0906 C   0  0  2  0  0  0  0  0  0  0  0  0
   24.9250  -22.2541  -10.6902 C   0  0  0  0  0  0  0  0  0  0  0  0
   25.6943  -20.5281  -12.3714 C   0  0  0  0  0  0  0  0  0  0  0  0
   24.9397  -20.8392  -13.6192 C   0  0  2  0  0  0  0  0  0  0  0  0
   25.7043  -20.5607  -14.8202 N   0  0  0  0  0  0  0  0  0  0  0  0
   23.6001  -20.2118  -13.6260 C   0  0  0  0  0  0  0  0  0  0  0  0
   23.4822  -18.9409  -13.5811 O   0  0  0  0  0  0  0  0  0  0  0  0
   21.2093  -19.8382  -16.1619 C   0  0  0  0  0  0  0  0  0  0  0  0
   20.4260  -20.4486  -15.0386 C   0  0  2  0  0  0  0  0  0  0  0  0
   19.0186  -19.9127  -14.9857 C   0  0  0  0  0  0  0  0  0  0  0  0
   21.1154  -20.2640  -13.6938 C   0  0  2  0  0  0  0  0  0  0  0  0
   22.3945  -20.9453  -13.6833 N   0  0  0  0  0  0  0  0  0  0  0  0
   20.2170  -20.8537  -12.6869 C   0  0  0  0  0  0  0  0  0  0  0  0
   19.2753  -20.1138  -12.0164 O   0  0  0  0  0  0  0  0  0  0  0  0
   20.2964  -22.0818  -12.4120 O   0  0  0  0  0  0  0  0  0  0  0  0
  2  3  1  0
  2  1  1  1
  4  3  1  0
  4  5  1  0
  6  5  1  0
  6  7  1  0
  8  2  1  0
  9  8  2  0
 11 10  1  1
 11 13  1  0
 12 11  1  0
 14 13  1  1
 14 15  1  0
 15  8  1  0
 16 14  1  0
 16 17  2  0
 19 18  1  6
 19 21  1  0
 20 19  1  0
 21 22  1  6
 22 16  1  0
 23 21  1  0
 24 23  1  0
 25 23  2  0
M  END
$$$$
