KLV.pdb
     RDKit          3D

 25 24  0  0  1  0  0  0  0  0999 V2000
   32.7210  -32.0240  -17.3626 N   0  0  0  0  0  0  0  0  0  0  0  0
   31.4686  -31.2984  -17.3474 C   0  0  1  0  0  0  0  0  0  0  0  0
   31.3031  -30.6023  -18.7024 C   0  0  0  0  0  0  0  0  0  0  0  0
   32.2197  -29.4257  -18.7013 C   0  0  0  0  0  0  0  0  0  0  0  0
   32.1965  -28.6298  -19.9740 C   0  0  0  0  0  0  0  0  0  0  0  0
   33.1922  -27.5186  -20.0105 C   0  0  0  0  0  0  0  0  0  0  0  0
   33.1487  -26.8844  -21.3253 N   0  0  0  0  0  0  0  0  0  0  0  0
   30.3775  -32.2710  -17.1219 C   0  0  0  0  0  0  0  0  0  0  0  0
   30.4936  -33.4961  -17.4229 O   0  0  0  0  0  0  0  0  0  0  0  0
   26.0576  -33.0014  -12.9938 C   0  0  0  0  0  0  0  0  0  0  0  0
   26.4854  -33.4989  -14.3836 C   0  0  2  0  0  0  0  0  0  0  0  0
   26.7694  -34.9597  -14.2296 C   0  0  0  0  0  0  0  0  0  0  0  0
   27.6295  -32.6505  -14.8002 C   0  0  0  0  0  0  0  0  0  0  0  0
   28.0939  -32.8059  -16.2085 C   0  0  2  0  0  0  0  0  0  0  0  0
   29.1488  -31.8727  -16.5565 N   0  0  0  0  0  0  0  0  0  0  0  0
   26.9673  -32.7914  -17.1670 C   0  0  0  0  0  0  0  0  0  0  0  0
   26.4136  -31.6886  -17.4957 O   0  0  0  0  0  0  0  0  0  0  0  0
   24.5934  -34.6005  -21.0003 C   0  0  0  0  0  0  0  0  0  0  0  0
   25.6532  -34.7287  -19.9475 C   0  0  2  0  0  0  0  0  0  0  0  0
   25.8574  -36.1636  -19.5350 C   0  0  0  0  0  0  0  0  0  0  0  0
   25.3584  -33.8631  -18.7303 C   0  0  2  0  0  0  0  0  0  0  0  0
   26.4403  -33.9546  -17.7705 N   0  0  0  0  0  0  0  0  0  0  0  0
   24.1134  -34.3878  -18.1446 C   0  0  0  0  0  0  0  0  0  0  0  0
   22.8720  -34.0022  -18.5854 O   0  0  0  0  0  0  0  0  0  0  0  0
   24.1626  -35.2232  -17.2013 O   0  0  0  0  0  0  0  0  0  0  0  0
  2  3  1  0
  2  1  1  6
  4  3  1  0
  4  5  1  0
  6  5  1  0
  6  7  1  0
  8  2  1  0
  9  8  2  0
 11 10  1  1
 11 13  1  0
 12 11  1  0
 14 13  1  1
 14 15  1  0
 15  8  1  0
 16 14  1  0
 16 17  2  0
 19 18  1  6
 19 21  1  0
 20 19  1  0
 21 22  1  1
 22 16  1  0
 23 21  1  0
 24 23  1  0
 25 23  2  0
M  END
$$$$
