KLV.pdb
     RDKit          3D

 25 24  0  0  1  0  0  0  0  0999 V2000
   27.3456  -25.0506  -18.7428 N   0  0  0  0  0  0  0  0  0  0  0  0
   27.4038  -25.3368  -17.3251 C   0  0  1  0  0  0  0  0  0  0  0  0
   26.3231  -24.5060  -16.6250 C   0  0  0  0  0  0  0  0  0  0  0  0
   26.5646  -23.0807  -16.9925 C   0  0  0  0  0  0  0  0  0  0  0  0
   25.6477  -22.1081  -16.3091 C   0  0  0  0  0  0  0  0  0  0  0  0
   25.9600  -20.6776  -16.5980 C   0  0  0  0  0  0  0  0  0  0  0  0
   24.9722  -19.8318  -15.9333 N   0  0  0  0  0  0  0  0  0  0  0  0
   27.1554  -26.7827  -17.1383 C   0  0  0  0  0  0  0  0  0  0  0  0
   27.1981  -27.3322  -15.9975 O   0  0  0  0  0  0  0  0  0  0  0  0
   24.2055  -29.8872  -16.5600 C   0  0  0  0  0  0  0  0  0  0  0  0
   24.1079  -29.1148  -17.8851 C   0  0  2  0  0  0  0  0  0  0  0  0
   22.7929  -29.4950  -18.4886 C   0  0  0  0  0  0  0  0  0  0  0  0
   25.3156  -29.4722  -18.6701 C   0  0  0  0  0  0  0  0  0  0  0  0
   26.6271  -29.0468  -18.1024 C   0  0  2  0  0  0  0  0  0  0  0  0
   26.8574  -27.6204  -18.2326 N   0  0  0  0  0  0  0  0  0  0  0  0
   27.7453  -29.8645  -18.6212 C   0  0  0  0  0  0  0  0  0  0  0  0
   28.3472  -29.5274  -19.6959 O   0  0  0  0  0  0  0  0  0  0  0  0
   30.7460  -31.5473  -16.6032 C   0  0  0  0  0  0  0  0  0  0  0  0
   30.0914  -32.5289  -17.5284 C   0  0  2  0  0  0  0  0  0  0  0  0
   31.0987  -33.4530  -18.1628 C   0  0  0  0  0  0  0  0  0  0  0  0
   29.2568  -31.8383  -18.5981 C   0  0  2  0  0  0  0  0  0  0  0  0
   28.2157  -31.0360  -17.9877 N   0  0  0  0  0  0  0  0  0  0  0  0
   28.6607  -32.9117  -19.4111 C   0  0  0  0  0  0  0  0  0  0  0  0
   27.3530  -33.3036  -19.2692 O   0  0  0  0  0  0  0  0  0  0  0  0
   29.3570  -33.5091  -20.2763 O   0  0  0  0  0  0  0  0  0  0  0  0
  2  3  1  0
  2  1  1  6
  4  3  1  0
  4  5  1  0
  6  5  1  0
  6  7  1  0
  8  2  1  0
  9  8  2  0
 11 10  1  1
 11 13  1  0
 12 11  1  0
 14 13  1  6
 14 15  1  0
 15  8  1  0
 16 14  1  0
 16 17  2  0
 19 18  1  6
 19 21  1  0
 20 19  1  0
 21 22  1  1
 22 16  1  0
 23 21  1  0
 24 23  1  0
 25 23  2  0
M  END
$$$$
