KLV.pdb
     RDKit          3D

 25 24  0  0  1  0  0  0  0  0999 V2000
   26.3935  -21.3545  -12.7614 N   0  0  0  0  0  0  0  0  0  0  0  0
   25.3105  -20.6010  -12.1660 C   0  0  1  0  0  0  0  0  0  0  0  0
   24.0477  -20.8379  -13.0012 C   0  0  0  0  0  0  0  0  0  0  0  0
   23.5381  -19.4965  -13.4085 C   0  0  0  0  0  0  0  0  0  0  0  0
   23.8741  -19.1167  -14.8215 C   0  0  0  0  0  0  0  0  0  0  0  0
   22.6853  -19.0072  -15.7171 C   0  0  0  0  0  0  0  0  0  0  0  0
   23.1350  -18.6697  -17.0649 N   0  0  0  0  0  0  0  0  0  0  0  0
   25.1209  -21.0856  -10.7816 C   0  0  0  0  0  0  0  0  0  0  0  0
   24.9011  -22.3052  -10.5185 O   0  0  0  0  0  0  0  0  0  0  0  0
   27.8333  -21.0175   -7.1340 C   0  0  0  0  0  0  0  0  0  0  0  0
   27.2407  -19.6615   -7.5487 C   0  0  2  0  0  0  0  0  0  0  0  0
   27.9471  -18.6326   -6.7239 C   0  0  0  0  0  0  0  0  0  0  0  0
   25.7737  -19.7651   -7.3494 C   0  0  0  0  0  0  0  0  0  0  0  0
   25.0327  -20.6352   -8.3069 C   0  0  2  0  0  0  0  0  0  0  0  0
   25.1772  -20.2024   -9.6840 N   0  0  0  0  0  0  0  0  0  0  0  0
   23.6222  -20.8251   -7.9036 C   0  0  0  0  0  0  0  0  0  0  0  0
   22.7428  -19.9470   -8.1980 O   0  0  0  0  0  0  0  0  0  0  0  0
   21.4291  -24.0380   -8.1821 C   0  0  0  0  0  0  0  0  0  0  0  0
   21.2740  -23.4561   -6.8090 C   0  0  2  0  0  0  0  0  0  0  0  0
   19.8468  -23.5303   -6.3309 C   0  0  0  0  0  0  0  0  0  0  0  0
   21.7856  -22.0242   -6.7332 C   0  0  2  0  0  0  0  0  0  0  0  0
   23.1589  -21.9528   -7.1905 N   0  0  0  0  0  0  0  0  0  0  0  0
   21.7004  -21.6317   -5.3165 C   0  0  0  0  0  0  0  0  0  0  0  0
   20.5207  -21.2512   -4.7270 O   0  0  0  0  0  0  0  0  0  0  0  0
   22.7359  -21.6364   -4.5968 O   0  0  0  0  0  0  0  0  0  0  0  0
  2  3  1  0
  2  1  1  6
  4  3  1  0
  4  5  1  0
  6  5  1  0
  6  7  1  0
  8  2  1  0
  9  8  2  0
 11 10  1  1
 11 13  1  0
 12 11  1  0
 14 13  1  1
 14 15  1  0
 15  8  1  0
 16 14  1  0
 16 17  2  0
 19 18  1  6
 19 21  1  0
 20 19  1  0
 21 22  1  1
 22 16  1  0
 23 21  1  0
 24 23  1  0
 25 23  2  0
M  END
$$$$
