KLV.pdb
     RDKit          3D

 25 24  0  0  1  0  0  0  0  0999 V2000
   27.0610  -19.1921  -18.1321 N   0  0  0  0  0  0  0  0  0  0  0  0
   25.6830  -19.2735  -18.5678 C   0  0  1  0  0  0  0  0  0  0  0  0
   25.3986  -20.7201  -18.9857 C   0  0  0  0  0  0  0  0  0  0  0  0
   25.5918  -20.7916  -20.4630 C   0  0  0  0  0  0  0  0  0  0  0  0
   25.1954  -22.1064  -21.0698 C   0  0  0  0  0  0  0  0  0  0  0  0
   26.3500  -22.9930  -21.3986 C   0  0  0  0  0  0  0  0  0  0  0  0
   25.8436  -24.2546  -21.9324 N   0  0  0  0  0  0  0  0  0  0  0  0
   24.8192  -18.8766  -17.4349 C   0  0  0  0  0  0  0  0  0  0  0  0
   25.0156  -19.2996  -16.2569 O   0  0  0  0  0  0  0  0  0  0  0  0
   23.8174  -15.1448  -15.2080 C   0  0  0  0  0  0  0  0  0  0  0  0
   23.2597  -15.1391  -16.6400 C   0  0  2  0  0  0  0  0  0  0  0  0
   22.7178  -13.7632  -16.8666 C   0  0  0  0  0  0  0  0  0  0  0  0
   22.2775  -16.2492  -16.7132 C   0  0  0  0  0  0  0  0  0  0  0  0
   22.8202  -17.6285  -16.5512 C   0  0  2  0  0  0  0  0  0  0  0  0
   23.7291  -18.0015  -17.6187 N   0  0  0  0  0  0  0  0  0  0  0  0
   21.7471  -18.6223  -16.3295 C   0  0  0  0  0  0  0  0  0  0  0  0
   21.0420  -19.0403  -17.3088 O   0  0  0  0  0  0  0  0  0  0  0  0
   22.0196  -21.9243  -14.3683 C   0  0  0  0  0  0  0  0  0  0  0  0
   20.7618  -21.2274  -13.9440 C   0  0  2  0  0  0  0  0  0  0  0  0
   19.6254  -22.1981  -13.7511 C   0  0  0  0  0  0  0  0  0  0  0  0
   20.3610  -20.1272  -14.9171 C   0  0  2  0  0  0  0  0  0  0  0  0
   21.4352  -19.1655  -15.0636 N   0  0  0  0  0  0  0  0  0  0  0  0
   19.1731  -19.4782  -14.3373 C   0  0  0  0  0  0  0  0  0  0  0  0
   17.8979  -19.9243  -14.5795 O   0  0  0  0  0  0  0  0  0  0  0  0
   19.3057  -18.4731  -13.5874 O   0  0  0  0  0  0  0  0  0  0  0  0
  2  3  1  0
  2  1  1  1
  4  3  1  0
  4  5  1  0
  6  5  1  0
  6  7  1  0
  8  2  1  0
  9  8  2  0
 11 10  1  1
 11 13  1  0
 12 11  1  0
 14 13  1  6
 14 15  1  0
 15  8  1  0
 16 14  1  0
 16 17  2  0
 19 18  1  6
 19 21  1  0
 20 19  1  0
 21 22  1  1
 22 16  1  0
 23 21  1  0
 24 23  1  0
 25 23  2  0
M  END
$$$$
