KLV.pdb
     RDKit          3D

 25 24  0  0  1  0  0  0  0  0999 V2000
   21.4853  -23.7891  -14.2720 N   0  0  0  0  0  0  0  0  0  0  0  0
   20.5557  -22.8024  -13.7645 C   0  0  1  0  0  0  0  0  0  0  0  0
   19.8298  -23.4061  -12.5575 C   0  0  0  0  0  0  0  0  0  0  0  0
   18.9784  -24.5169  -13.0734 C   0  0  0  0  0  0  0  0  0  0  0  0
   17.9528  -24.0854  -14.0812 C   0  0  0  0  0  0  0  0  0  0  0  0
   17.0439  -25.1822  -14.5264 C   0  0  0  0  0  0  0  0  0  0  0  0
   16.0603  -24.6360  -15.4576 N   0  0  0  0  0  0  0  0  0  0  0  0
   21.3285  -21.6061  -13.3659 C   0  0  0  0  0  0  0  0  0  0  0  0
   20.7737  -20.5769  -12.8782 O   0  0  0  0  0  0  0  0  0  0  0  0
   24.3060  -20.6903  -10.3685 C   0  0  0  0  0  0  0  0  0  0  0  0
   24.9048  -21.5164  -11.5178 C   0  0  2  0  0  0  0  0  0  0  0  0
   26.2635  -21.9405  -11.0571 C   0  0  0  0  0  0  0  0  0  0  0  0
   24.8633  -20.6518  -12.7232 C   0  0  0  0  0  0  0  0  0  0  0  0
   23.5135  -20.3595  -13.2852 C   0  0  2  0  0  0  0  0  0  0  0  0
   22.7300  -21.5591  -13.5129 N   0  0  0  0  0  0  0  0  0  0  0  0
   23.5877  -19.4811  -14.4732 C   0  0  0  0  0  0  0  0  0  0  0  0
   24.1898  -18.3568  -14.4080 O   0  0  0  0  0  0  0  0  0  0  0  0
   24.2702  -20.5592  -18.2143 C   0  0  0  0  0  0  0  0  0  0  0  0
   23.1194  -19.6001  -18.1541 C   0  0  2  0  0  0  0  0  0  0  0  0
   23.1537  -18.6172  -19.2959 C   0  0  0  0  0  0  0  0  0  0  0  0
   23.0562  -18.8650  -16.8223 C   0  0  2  0  0  0  0  0  0  0  0  0
   23.0206  -19.8099  -15.7242 N   0  0  0  0  0  0  0  0  0  0  0  0
   21.8167  -18.0705  -16.8498 C   0  0  0  0  0  0  0  0  0  0  0  0
   21.7907  -16.7595  -17.2556 O   0  0  0  0  0  0  0  0  0  0  0  0
   20.7253  -18.5907  -16.4915 O   0  0  0  0  0  0  0  0  0  0  0  0
  2  3  1  0
  2  1  1  1
  4  3  1  0
  4  5  1  0
  6  5  1  0
  6  7  1  0
  8  2  1  0
  9  8  2  0
 11 10  1  1
 11 13  1  0
 12 11  1  0
 14 13  1  6
 14 15  1  0
 15  8  1  0
 16 14  1  0
 16 17  2  0
 19 18  1  1
 19 21  1  0
 20 19  1  0
 21 22  1  1
 22 16  1  0
 23 21  1  0
 24 23  1  0
 25 23  2  0
M  END
$$$$
