KLV.pdb
     RDKit          3D

 25 24  0  0  1  0  0  0  0  0999 V2000
   28.2933  -21.6492  -15.0830 N   0  0  0  0  0  0  0  0  0  0  0  0
   27.6214  -20.4933  -14.5281 C   0  0  1  0  0  0  0  0  0  0  0  0
   26.8442  -19.8055  -15.6555 C   0  0  0  0  0  0  0  0  0  0  0  0
   27.7764  -18.8326  -16.2952 C   0  0  0  0  0  0  0  0  0  0  0  0
   28.9570  -19.4684  -16.9703 C   0  0  0  0  0  0  0  0  0  0  0  0
   29.8367  -18.5001  -17.6885 C   0  0  0  0  0  0  0  0  0  0  0  0
   29.0028  -17.5806  -18.4579 N   0  0  0  0  0  0  0  0  0  0  0  0
   26.7020  -20.9617  -13.4686 C   0  0  0  0  0  0  0  0  0  0  0  0
   25.9703  -21.9854  -13.6152 O   0  0  0  0  0  0  0  0  0  0  0  0
   26.3102  -19.7437   -7.6298 C   0  0  0  0  0  0  0  0  0  0  0  0
   26.1816  -20.6763   -8.8445 C   0  0  2  0  0  0  0  0  0  0  0  0
   27.5078  -21.3538   -8.9870 C   0  0  0  0  0  0  0  0  0  0  0  0
   25.7555  -19.8264   -9.9840 C   0  0  0  0  0  0  0  0  0  0  0  0
   25.5320  -20.5212  -11.2841 C   0  0  2  0  0  0  0  0  0  0  0  0
   26.5991  -20.2822  -12.2375 N   0  0  0  0  0  0  0  0  0  0  0  0
   24.1881  -20.2424  -11.8360 C   0  0  0  0  0  0  0  0  0  0  0  0
   23.8759  -19.0618  -12.2096 O   0  0  0  0  0  0  0  0  0  0  0  0
   22.6983  -21.6882  -14.8215 C   0  0  0  0  0  0  0  0  0  0  0  0
   21.6259  -21.7891  -13.7785 C   0  0  2  0  0  0  0  0  0  0  0  0
   20.2638  -21.4909  -14.3499 C   0  0  0  0  0  0  0  0  0  0  0  0
   21.9069  -20.8929  -12.5803 C   0  0  2  0  0  0  0  0  0  0  0  0
   23.1867  -21.2268  -11.9879 N   0  0  0  0  0  0  0  0  0  0  0  0
   20.8208  -21.1412  -11.6175 C   0  0  0  0  0  0  0  0  0  0  0  0
   19.5867  -20.5512  -11.7307 O   0  0  0  0  0  0  0  0  0  0  0  0
   21.0063  -21.9205  -10.6436 O   0  0  0  0  0  0  0  0  0  0  0  0
  2  3  1  0
  2  1  1  6
  4  3  1  0
  4  5  1  0
  6  5  1  0
  6  7  1  0
  8  2  1  0
  9  8  2  0
 11 10  1  1
 11 13  1  0
 12 11  1  0
 14 13  1  1
 14 15  1  0
 15  8  1  0
 16 14  1  0
 16 17  2  0
 19 18  1  6
 19 21  1  0
 20 19  1  0
 21 22  1  1
 22 16  1  0
 23 21  1  0
 24 23  1  0
 25 23  2  0
M  END
$$$$
