KLV.pdb
     RDKit          3D

 25 24  0  0  1  0  0  0  0  0999 V2000
   27.2715  -21.7875  -17.0962 N   0  0  0  0  0  0  0  0  0  0  0  0
   26.4383  -20.7028  -16.6223 C   0  0  1  0  0  0  0  0  0  0  0  0
   25.7267  -20.0839  -17.8301 C   0  0  0  0  0  0  0  0  0  0  0  0
   26.7853  -19.5153  -18.7137 C   0  0  0  0  0  0  0  0  0  0  0  0
   27.6447  -18.4781  -18.0508 C   0  0  0  0  0  0  0  0  0  0  0  0
   28.6112  -17.8139  -18.9738 C   0  0  0  0  0  0  0  0  0  0  0  0
   29.4067  -16.8511  -18.2167 N   0  0  0  0  0  0  0  0  0  0  0  0
   25.4574  -21.2614  -15.6666 C   0  0  0  0  0  0  0  0  0  0  0  0
   24.8865  -22.3755  -15.8606 O   0  0  0  0  0  0  0  0  0  0  0  0
   25.7070  -22.4059  -11.4718 C   0  0  0  0  0  0  0  0  0  0  0  0
   25.6315  -20.8736  -11.5633 C   0  0  2  0  0  0  0  0  0  0  0  0
   25.8579  -20.3655  -10.1745 C   0  0  0  0  0  0  0  0  0  0  0  0
   24.3160  -20.5529  -12.1707 C   0  0  0  0  0  0  0  0  0  0  0  0
   24.0925  -21.0339  -13.5642 C   0  0  2  0  0  0  0  0  0  0  0  0
   25.1120  -20.5710  -14.4867 N   0  0  0  0  0  0  0  0  0  0  0  0
   22.7172  -20.7539  -14.0317 C   0  0  0  0  0  0  0  0  0  0  0  0
   22.3616  -19.5602  -14.3135 O   0  0  0  0  0  0  0  0  0  0  0  0
   20.9184  -22.3150  -16.9224 C   0  0  0  0  0  0  0  0  0  0  0  0
   19.9570  -22.3292  -15.7720 C   0  0  2  0  0  0  0  0  0  0  0  0
   18.5562  -21.9911  -16.2130 C   0  0  0  0  0  0  0  0  0  0  0  0
   20.3974  -21.4030  -14.6467 C   0  0  2  0  0  0  0  0  0  0  0  0
   21.7307  -21.7510  -14.1979 N   0  0  0  0  0  0  0  0  0  0  0  0
   19.4277  -21.5928  -13.5549 C   0  0  0  0  0  0  0  0  0  0  0  0
   18.2779  -20.8501  -13.4534 O   0  0  0  0  0  0  0  0  0  0  0  0
   19.6388  -22.4632  -12.6672 O   0  0  0  0  0  0  0  0  0  0  0  0
  2  3  1  0
  2  1  1  6
  4  3  1  0
  4  5  1  0
  6  5  1  0
  6  7  1  0
  8  2  1  0
  9  8  2  0
 11 10  1  1
 11 13  1  0
 12 11  1  0
 14 13  1  1
 14 15  1  0
 15  8  1  0
 16 14  1  0
 16 17  2  0
 19 18  1  6
 19 21  1  0
 20 19  1  0
 21 22  1  1
 22 16  1  0
 23 21  1  0
 24 23  1  0
 25 23  2  0
M  END
$$$$
