KLV.pdb
     RDKit          3D

 25 24  0  0  1  0  0  0  0  0999 V2000
   22.8040  -20.2724  -17.3641 N   0  0  0  0  0  0  0  0  0  0  0  0
   23.9881  -19.7481  -16.7175 C   0  0  1  0  0  0  0  0  0  0  0  0
   25.1523  -20.7018  -17.0064 C   0  0  0  0  0  0  0  0  0  0  0  0
   24.8382  -21.9903  -16.3238 C   0  0  0  0  0  0  0  0  0  0  0  0
   25.8590  -23.0678  -16.5494 C   0  0  0  0  0  0  0  0  0  0  0  0
   25.5031  -24.3773  -15.9283 C   0  0  0  0  0  0  0  0  0  0  0  0
   26.5455  -25.3509  -16.2416 N   0  0  0  0  0  0  0  0  0  0  0  0
   24.2600  -18.4060  -17.2760 C   0  0  0  0  0  0  0  0  0  0  0  0
   23.9427  -18.0924  -18.4617 O   0  0  0  0  0  0  0  0  0  0  0  0
   22.8914  -14.1596  -16.9403 C   0  0  0  0  0  0  0  0  0  0  0  0
   23.5298  -14.7105  -15.6554 C   0  0  2  0  0  0  0  0  0  0  0  0
   23.3076  -13.6689  -14.6048 C   0  0  0  0  0  0  0  0  0  0  0  0
   24.9441  -15.0150  -15.9857 C   0  0  0  0  0  0  0  0  0  0  0  0
   25.1743  -16.0765  -17.0072 C   0  0  2  0  0  0  0  0  0  0  0  0
   24.8904  -17.4077  -16.5053 N   0  0  0  0  0  0  0  0  0  0  0  0
   26.5117  -15.9642  -17.6294 C   0  0  0  0  0  0  0  0  0  0  0  0
   27.5596  -16.2710  -16.9670 O   0  0  0  0  0  0  0  0  0  0  0  0
   27.8885  -17.8020  -20.4576 C   0  0  0  0  0  0  0  0  0  0  0  0
   28.1382  -16.3556  -20.7632 C   0  0  2  0  0  0  0  0  0  0  0  0
   29.4589  -16.1539  -21.4603 C   0  0  0  0  0  0  0  0  0  0  0  0
   28.0573  -15.4851  -19.5168 C   0  0  2  0  0  0  0  0  0  0  0  0
   26.7217  -15.5275  -18.9560 N   0  0  0  0  0  0  0  0  0  0  0  0
   28.3838  -14.1160  -19.9496 C   0  0  0  0  0  0  0  0  0  0  0  0
   29.6749  -13.6576  -20.0326 O   0  0  0  0  0  0  0  0  0  0  0  0
   27.4606  -13.3152  -20.2606 O   0  0  0  0  0  0  0  0  0  0  0  0
  2  3  1  0
  2  1  1  6
  4  3  1  0
  4  5  1  0
  6  5  1  0
  6  7  1  0
  8  2  1  0
  9  8  2  0
 11 10  1  6
 11 13  1  0
 12 11  1  0
 14 13  1  1
 14 15  1  0
 15  8  1  0
 16 14  1  0
 16 17  2  0
 19 18  1  1
 19 21  1  0
 20 19  1  0
 21 22  1  6
 22 16  1  0
 23 21  1  0
 24 23  1  0
 25 23  2  0
M  END
$$$$
