FPK.pdb
     RDKit          3D

 28 29  0  0  1  0  0  0  0  0999 V2000
    6.4850  -16.2673   25.5384 N   0  0  0  0  0  0  0  0  0  0  0  0
    7.0048  -15.4752   24.4947 C   0  0  1  0  0  0  0  0  0  0  0  0
    8.0241  -14.4479   24.9864 C   0  0  0  0  0  0  0  0  0  0  0  0
    7.3994  -13.4756   25.9051 C   0  0  0  0  0  0  0  0  0  0  0  0
    6.1654  -12.9380   25.6028 C   0  0  0  0  0  0  0  0  0  0  0  0
    5.6100  -12.0252   26.4837 C   0  0  0  0  0  0  0  0  0  0  0  0
    6.2427  -11.6366   27.6457 C   0  0  0  0  0  0  0  0  0  0  0  0
    7.4893  -12.1876   27.9393 C   0  0  0  0  0  0  0  0  0  0  0  0
    8.0552  -13.1069   27.0579 C   0  0  0  0  0  0  0  0  0  0  0  0
    7.5294  -16.1834   23.2984 C   0  0  0  0  0  0  0  0  0  0  0  0
    7.9956  -17.3532   23.6180 O   0  0  0  0  0  0  0  0  0  0  0  0
    7.5461  -15.7158   21.9933 N   0  0  0  0  0  0  0  0  0  0  0  0
    6.3726  -15.1655   21.2861 C   0  0  0  0  0  0  0  0  0  0  0  0
    6.9736  -13.9071   20.6624 C   0  0  0  0  0  0  0  0  0  0  0  0
    8.4963  -14.0358   20.8249 C   0  0  0  0  0  0  0  0  0  0  0  0
    8.5743  -15.5505   21.0253 C   0  0  1  0  0  0  0  0  0  0  0  0
    9.8935  -16.0758   21.2259 C   0  0  0  0  0  0  0  0  0  0  0  0
   10.6944  -15.6248   22.0670 O   0  0  0  0  0  0  0  0  0  0  0  0
   10.4103  -17.1833   20.4609 N   0  0  0  0  0  0  0  0  0  0  0  0
   11.6794  -17.7902   20.7042 C   0  0  1  0  0  0  0  0  0  0  0  0
   11.5696  -18.7492   21.8671 C   0  0  0  0  0  0  0  0  0  0  0  0
   12.8850  -19.3603   22.2622 C   0  0  0  0  0  0  0  0  0  0  0  0
   12.8251  -20.1976   23.4998 C   0  0  0  0  0  0  0  0  0  0  0  0
   14.1928  -20.6581   23.9537 C   0  0  0  0  0  0  0  0  0  0  0  0
   14.0320  -21.3006   25.2384 N   0  0  0  0  0  0  0  0  0  0  0  0
   12.1331  -18.6048   19.5283 C   0  0  0  0  0  0  0  0  0  0  0  0
   11.2909  -18.9968   18.5095 O   0  0  0  0  0  0  0  0  0  0  0  0
   13.3375  -18.9400   19.4784 O   0  0  0  0  0  0  0  0  0  0  0  0
  2  1  1  1
  3  2  1  0
  3  4  1  0
  4  5  2  0
  4  9  1  0
  5  6  1  0
  6  7  2  0
  7  8  1  0
  9  8  2  0
 10 12  1  0
 10  2  1  0
 11 10  2  0
 12 16  1  0
 13 14  1  0
 13 12  1  0
 14 15  1  0
 15 16  1  0
 16 17  1  1
 17 18  2  0
 19 20  1  0
 19 17  1  0
 20 26  1  0
 20 21  1  1
 22 21  1  0
 23 22  1  0
 24 23  1  0
 25 24  1  0
 26 27  1  0
 28 26  2  0
M  END
$$$$
