FPK.pdb
     RDKit          3D

 28 29  0  0  1  0  0  0  0  0999 V2000
    5.8367  -17.8001   24.8604 N   0  0  0  0  0  0  0  0  0  0  0  0
    6.6457  -16.6524   24.7359 C   0  0  1  0  0  0  0  0  0  0  0  0
    7.2976  -16.2450   26.0569 C   0  0  0  0  0  0  0  0  0  0  0  0
    7.2341  -14.7832   26.2533 C   0  0  0  0  0  0  0  0  0  0  0  0
    6.0397  -14.1161   26.0747 C   0  0  0  0  0  0  0  0  0  0  0  0
    6.0162  -12.7443   26.2622 C   0  0  0  0  0  0  0  0  0  0  0  0
    7.1373  -12.0252   26.6194 C   0  0  0  0  0  0  0  0  0  0  0  0
    8.3378  -12.7116   26.7969 C   0  0  0  0  0  0  0  0  0  0  0  0
    8.3701  -14.0922   26.6099 C   0  0  0  0  0  0  0  0  0  0  0  0
    7.6541  -16.6450   23.6446 C   0  0  0  0  0  0  0  0  0  0  0  0
    8.6103  -17.4897   23.8895 O   0  0  0  0  0  0  0  0  0  0  0  0
    7.6340  -15.8686   22.4960 N   0  0  0  0  0  0  0  0  0  0  0  0
    6.4062  -15.4382   21.7979 C   0  0  0  0  0  0  0  0  0  0  0  0
    6.7098  -13.9597   21.5621 C   0  0  0  0  0  0  0  0  0  0  0  0
    8.2029  -13.7754   21.8754 C   0  0  0  0  0  0  0  0  0  0  0  0
    8.6458  -15.2321   21.7263 C   0  0  1  0  0  0  0  0  0  0  0  0
   10.0396  -15.4766   21.9593 C   0  0  0  0  0  0  0  0  0  0  0  0
   10.9498  -15.0051   21.2512 O   0  0  0  0  0  0  0  0  0  0  0  0
   10.5102  -16.2994   23.0457 N   0  0  0  0  0  0  0  0  0  0  0  0
   11.8878  -16.4426   23.3916 C   0  0  1  0  0  0  0  0  0  0  0  0
   12.0669  -16.2074   24.8737 C   0  0  0  0  0  0  0  0  0  0  0  0
   10.9691  -16.8046   25.7091 C   0  0  0  0  0  0  0  0  0  0  0  0
   11.1489  -16.6183   27.1820 C   0  0  0  0  0  0  0  0  0  0  0  0
   10.0219  -17.2302   27.9846 C   0  0  0  0  0  0  0  0  0  0  0  0
   10.2857  -16.9627   29.3802 N   0  0  0  0  0  0  0  0  0  0  0  0
   12.3794  -17.8350   23.1241 C   0  0  0  0  0  0  0  0  0  0  0  0
   11.5600  -18.8569   22.6936 O   0  0  0  0  0  0  0  0  0  0  0  0
   13.5951  -18.0709   23.3030 O   0  0  0  0  0  0  0  0  0  0  0  0
  2  1  1  1
  3  2  1  0
  3  4  1  0
  4  5  2  0
  4  9  1  0
  5  6  1  0
  6  7  2  0
  7  8  1  0
  9  8  2  0
 10 12  1  0
 10  2  1  0
 11 10  2  0
 12 16  1  0
 13 14  1  0
 13 12  1  0
 14 15  1  0
 15 16  1  0
 16 17  1  1
 17 18  2  0
 19 20  1  0
 19 17  1  0
 20 26  1  0
 20 21  1  1
 22 21  1  0
 23 22  1  0
 24 23  1  0
 25 24  1  0
 26 27  1  0
 28 26  2  0
M  END
$$$$
