FPK.pdb
     RDKit          3D

 28 29  0  0  1  0  0  0  0  0999 V2000
    5.4247  -17.7586   24.5875 N   0  0  0  0  0  0  0  0  0  0  0  0
    6.1442  -16.5478   24.6428 C   0  0  1  0  0  0  0  0  0  0  0  0
    6.3062  -16.0233   26.0692 C   0  0  0  0  0  0  0  0  0  0  0  0
    6.5070  -14.5607   26.0791 C   0  0  0  0  0  0  0  0  0  0  0  0
    5.4452  -13.7186   25.8212 C   0  0  0  0  0  0  0  0  0  0  0  0
    5.6692  -12.3520   25.8336 C   0  0  0  0  0  0  0  0  0  0  0  0
    6.9086  -11.8061   26.0932 C   0  0  0  0  0  0  0  0  0  0  0  0
    7.9731  -12.6683   26.3523 C   0  0  0  0  0  0  0  0  0  0  0  0
    7.7560  -14.0449   26.3417 C   0  0  0  0  0  0  0  0  0  0  0  0
    7.4459  -16.4956   23.9282 C   0  0  0  0  0  0  0  0  0  0  0  0
    8.3534  -17.1727   24.5652 O   0  0  0  0  0  0  0  0  0  0  0  0
    7.7191  -15.8347   22.7404 N   0  0  0  0  0  0  0  0  0  0  0  0
    6.7015  -15.4560   21.7399 C   0  0  0  0  0  0  0  0  0  0  0  0
    7.1059  -14.0122   21.4470 C   0  0  0  0  0  0  0  0  0  0  0  0
    8.4928  -13.8207   22.0804 C   0  0  0  0  0  0  0  0  0  0  0  0
    8.9037  -15.2915   22.1719 C   0  0  1  0  0  0  0  0  0  0  0  0
   10.1965  -15.5330   22.7435 C   0  0  0  0  0  0  0  0  0  0  0  0
   10.9456  -14.6290   23.1605 O   0  0  0  0  0  0  0  0  0  0  0  0
   10.7451  -16.8590   22.8847 N   0  0  0  0  0  0  0  0  0  0  0  0
   11.9725  -17.1409   23.5572 C   0  0  1  0  0  0  0  0  0  0  0  0
   11.8091  -18.3721   24.4182 C   0  0  0  0  0  0  0  0  0  0  0  0
   12.1075  -18.1276   25.8711 C   0  0  0  0  0  0  0  0  0  0  0  0
   12.0421  -19.3534   26.7252 C   0  0  0  0  0  0  0  0  0  0  0  0
   12.4072  -19.0744   28.1666 C   0  0  0  0  0  0  0  0  0  0  0  0
   11.6569  -19.9937   28.9919 N   0  0  0  0  0  0  0  0  0  0  0  0
   13.0730  -17.4500   22.5850 C   0  0  0  0  0  0  0  0  0  0  0  0
   14.4109  -17.3143   22.8887 O   0  0  0  0  0  0  0  0  0  0  0  0
   12.7507  -17.8509   21.4444 O   0  0  0  0  0  0  0  0  0  0  0  0
  2  1  1  1
  3  2  1  0
  3  4  1  0
  4  5  2  0
  4  9  1  0
  5  6  1  0
  6  7  2  0
  7  8  1  0
  9  8  2  0
 10 12  1  0
 10  2  1  0
 11 10  2  0
 12 16  1  0
 13 14  1  0
 13 12  1  0
 14 15  1  0
 15 16  1  0
 16 17  1  1
 17 18  2  0
 19 20  1  0
 19 17  1  0
 20 26  1  0
 20 21  1  1
 22 21  1  0
 23 22  1  0
 24 23  1  0
 25 24  1  0
 26 27  1  0
 28 26  2  0
M  END
$$$$
