FPK.pdb
     RDKit          3D

 28 29  0  0  1  0  0  0  0  0999 V2000
    6.5357  -16.8242   25.9756 N   0  0  0  0  0  0  0  0  0  0  0  0
    6.4342  -16.2701   24.6835 C   0  0  1  0  0  0  0  0  0  0  0  0
    5.8532  -14.8565   24.6925 C   0  0  0  0  0  0  0  0  0  0  0  0
    6.6017  -13.9791   25.6142 C   0  0  0  0  0  0  0  0  0  0  0  0
    7.9570  -13.7918   25.4374 C   0  0  0  0  0  0  0  0  0  0  0  0
    8.6296  -12.9663   26.3228 C   0  0  0  0  0  0  0  0  0  0  0  0
    7.9967  -12.3282   27.3686 C   0  0  0  0  0  0  0  0  0  0  0  0
    6.6268  -12.5260   27.5359 C   0  0  0  0  0  0  0  0  0  0  0  0
    5.9425  -13.3553   26.6493 C   0  0  0  0  0  0  0  0  0  0  0  0
    7.6455  -16.3193   23.8242 C   0  0  0  0  0  0  0  0  0  0  0  0
    8.6586  -16.8054   24.4763 O   0  0  0  0  0  0  0  0  0  0  0  0
    7.7457  -15.9188   22.5006 N   0  0  0  0  0  0  0  0  0  0  0  0
    6.5942  -15.7013   21.6024 C   0  0  0  0  0  0  0  0  0  0  0  0
    6.9695  -14.3630   20.9685 C   0  0  0  0  0  0  0  0  0  0  0  0
    8.4385  -14.1108   21.3425 C   0  0  0  0  0  0  0  0  0  0  0  0
    8.8384  -15.5509   21.6687 C   0  0  1  0  0  0  0  0  0  0  0  0
   10.1991  -15.7308   22.0839 C   0  0  0  0  0  0  0  0  0  0  0  0
   11.1519  -15.0696   21.6286 O   0  0  0  0  0  0  0  0  0  0  0  0
   10.5837  -16.7048   23.0751 N   0  0  0  0  0  0  0  0  0  0  0  0
   11.9090  -16.8287   23.5913 C   0  0  1  0  0  0  0  0  0  0  0  0
   11.8774  -17.5930   24.8947 C   0  0  0  0  0  0  0  0  0  0  0  0
   11.1178  -16.8861   25.9822 C   0  0  0  0  0  0  0  0  0  0  0  0
   11.1336  -17.5926   27.3001 C   0  0  0  0  0  0  0  0  0  0  0  0
   10.3346  -16.8630   28.3575 C   0  0  0  0  0  0  0  0  0  0  0  0
   10.3993  -17.6465   29.5704 N   0  0  0  0  0  0  0  0  0  0  0  0
   12.7885  -17.6147   22.6636 C   0  0  0  0  0  0  0  0  0  0  0  0
   12.3120  -18.2890   21.5595 O   0  0  0  0  0  0  0  0  0  0  0  0
   14.0141  -17.6540   22.9123 O   0  0  0  0  0  0  0  0  0  0  0  0
  2  1  1  1
  3  2  1  0
  3  4  1  0
  4  5  2  0
  4  9  1  0
  5  6  1  0
  6  7  2  0
  7  8  1  0
  9  8  2  0
 10 12  1  0
 10  2  1  0
 11 10  2  0
 12 16  1  0
 13 14  1  0
 13 12  1  0
 14 15  1  0
 15 16  1  0
 16 17  1  1
 17 18  2  0
 19 20  1  0
 19 17  1  0
 20 26  1  0
 20 21  1  1
 22 21  1  0
 23 22  1  0
 24 23  1  0
 25 24  1  0
 26 27  1  0
 28 26  2  0
M  END
$$$$
