FPK.pdb
     RDKit          3D

 28 29  0  0  1  0  0  0  0  0999 V2000
    5.5605  -17.6068   25.0923 N   0  0  0  0  0  0  0  0  0  0  0  0
    6.3910  -16.4687   25.0473 C   0  0  1  0  0  0  0  0  0  0  0  0
    6.7457  -15.9429   26.4379 C   0  0  0  0  0  0  0  0  0  0  0  0
    6.5881  -14.4767   26.5088 C   0  0  0  0  0  0  0  0  0  0  0  0
    5.3404  -13.9102   26.3487 C   0  0  0  0  0  0  0  0  0  0  0  0
    5.2286  -12.5315   26.4162 C   0  0  0  0  0  0  0  0  0  0  0  0
    6.3135  -11.7094   26.6368 C   0  0  0  0  0  0  0  0  0  0  0  0
    7.5687  -12.2948   26.7971 C   0  0  0  0  0  0  0  0  0  0  0  0
    7.6898  -13.6815   26.7304 C   0  0  0  0  0  0  0  0  0  0  0  0
    7.6121  -16.5494   24.2046 C   0  0  0  0  0  0  0  0  0  0  0  0
    8.5069  -17.3140   24.7548 O   0  0  0  0  0  0  0  0  0  0  0  0
    7.8284  -15.9211   22.9877 N   0  0  0  0  0  0  0  0  0  0  0  0
    6.7619  -15.5453   22.0383 C   0  0  0  0  0  0  0  0  0  0  0  0
    7.1751  -14.1168   21.6885 C   0  0  0  0  0  0  0  0  0  0  0  0
    8.5995  -13.9382   22.2368 C   0  0  0  0  0  0  0  0  0  0  0  0
    8.9880  -15.4143   22.3397 C   0  0  1  0  0  0  0  0  0  0  0  0
   10.3070  -15.6680   22.8420 C   0  0  0  0  0  0  0  0  0  0  0  0
   10.8073  -15.0561   23.8051 O   0  0  0  0  0  0  0  0  0  0  0  0
   11.1759  -16.6646   22.2669 N   0  0  0  0  0  0  0  0  0  0  0  0
   12.4929  -16.9383   22.7453 C   0  0  1  0  0  0  0  0  0  0  0  0
   12.6787  -18.4304   22.8971 C   0  0  0  0  0  0  0  0  0  0  0  0
   11.7261  -19.0530   23.8793 C   0  0  0  0  0  0  0  0  0  0  0  0
   11.8664  -20.5357   24.0140 C   0  0  0  0  0  0  0  0  0  0  0  0
   10.9556  -21.1090   25.0773 C   0  0  0  0  0  0  0  0  0  0  0  0
   11.0787  -22.5482   25.0268 N   0  0  0  0  0  0  0  0  0  0  0  0
   13.5376  -16.4811   21.7698 C   0  0  0  0  0  0  0  0  0  0  0  0
   14.8394  -16.2045   22.1299 O   0  0  0  0  0  0  0  0  0  0  0  0
   13.2014  -16.3477   20.5721 O   0  0  0  0  0  0  0  0  0  0  0  0
  2  1  1  1
  3  2  1  0
  3  4  1  0
  4  5  2  0
  4  9  1  0
  5  6  1  0
  6  7  2  0
  7  8  1  0
  9  8  2  0
 10 12  1  0
 10  2  1  0
 11 10  2  0
 12 16  1  0
 13 14  1  0
 13 12  1  0
 14 15  1  0
 15 16  1  0
 16 17  1  1
 17 18  2  0
 19 20  1  0
 19 17  1  0
 20 26  1  0
 20 21  1  6
 22 21  1  0
 23 22  1  0
 24 23  1  0
 25 24  1  0
 26 27  1  0
 28 26  2  0
M  END
$$$$
