FPK.pdb
     RDKit          3D

 28 29  0  0  1  0  0  0  0  0999 V2000
    5.7698  -17.8280   24.8812 N   0  0  0  0  0  0  0  0  0  0  0  0
    6.5214  -16.6356   24.8669 C   0  0  1  0  0  0  0  0  0  0  0  0
    6.9929  -16.2196   26.2600 C   0  0  0  0  0  0  0  0  0  0  0  0
    7.0175  -14.7498   26.3969 C   0  0  0  0  0  0  0  0  0  0  0  0
    5.8341  -14.0414   26.4246 C   0  0  0  0  0  0  0  0  0  0  0  0
    5.8932  -12.6634   26.5492 C   0  0  0  0  0  0  0  0  0  0  0  0
    7.0859  -11.9781   26.6462 C   0  0  0  0  0  0  0  0  0  0  0  0
    8.2745  -12.7061   26.6170 C   0  0  0  0  0  0  0  0  0  0  0  0
    8.2237  -14.0931   26.4918 C   0  0  0  0  0  0  0  0  0  0  0  0
    7.6466  -16.5510   23.9002 C   0  0  0  0  0  0  0  0  0  0  0  0
    8.6307  -17.3171   24.2642 O   0  0  0  0  0  0  0  0  0  0  0  0
    7.7001  -15.7814   22.7482 N   0  0  0  0  0  0  0  0  0  0  0  0
    6.5175  -15.3160   21.9967 C   0  0  0  0  0  0  0  0  0  0  0  0
    6.8783  -13.8494   21.7671 C   0  0  0  0  0  0  0  0  0  0  0  0
    8.3620  -13.7112   22.1426 C   0  0  0  0  0  0  0  0  0  0  0  0
    8.7636  -15.1823   22.0192 C   0  0  1  0  0  0  0  0  0  0  0  0
   10.1376  -15.4699   22.3121 C   0  0  0  0  0  0  0  0  0  0  0  0
   11.0898  -15.0633   21.6192 O   0  0  0  0  0  0  0  0  0  0  0  0
   10.5372  -16.2644   23.4470 N   0  0  0  0  0  0  0  0  0  0  0  0
   11.8902  -16.3996   23.8822 C   0  0  1  0  0  0  0  0  0  0  0  0
   11.9181  -16.9130   25.3033 C   0  0  0  0  0  0  0  0  0  0  0  0
   11.4478  -15.9022   26.3118 C   0  0  0  0  0  0  0  0  0  0  0  0
   11.3522  -16.4281   27.7084 C   0  0  0  0  0  0  0  0  0  0  0  0
   10.8220  -15.3969   28.6801 C   0  0  0  0  0  0  0  0  0  0  0  0
   10.8113  -16.0006   29.9933 N   0  0  0  0  0  0  0  0  0  0  0  0
   12.6348  -17.4070   23.0561 C   0  0  0  0  0  0  0  0  0  0  0  0
   12.0117  -18.3078   22.2187 O   0  0  0  0  0  0  0  0  0  0  0  0
   13.8833  -17.4226   23.1374 O   0  0  0  0  0  0  0  0  0  0  0  0
  2  1  1  1
  3  2  1  0
  3  4  1  0
  4  5  2  0
  4  9  1  0
  5  6  1  0
  6  7  2  0
  7  8  1  0
  9  8  2  0
 10 12  1  0
 10  2  1  0
 11 10  2  0
 12 16  1  0
 13 14  1  0
 13 12  1  0
 14 15  1  0
 15 16  1  0
 16 17  1  1
 17 18  2  0
 19 20  1  0
 19 17  1  0
 20 26  1  0
 20 21  1  1
 22 21  1  0
 23 22  1  0
 24 23  1  0
 25 24  1  0
 26 27  1  0
 28 26  2  0
M  END
$$$$
