FVE.pdb
     RDKit          3D

 28 28  0  0  1  0  0  0  0  0999 V2000
    5.5255  -17.8984   25.3693 N   0  0  0  0  0  0  0  0  0  0  0  0
    6.2690  -16.6825   25.2833 C   0  0  1  0  0  0  0  0  0  0  0  0
    6.8576  -16.3019   26.6003 C   0  0  0  0  0  0  0  0  0  0  0  0
    6.9774  -14.8312   26.6442 C   0  0  0  0  0  0  0  0  0  0  0  0
    8.2058  -14.2241   26.6223 C   0  0  0  0  0  0  0  0  0  0  0  0
    8.3397  -12.8321   26.6642 C   0  0  0  0  0  0  0  0  0  0  0  0
    7.1813  -12.0634   26.7296 C   0  0  0  0  0  0  0  0  0  0  0  0
    5.9423  -12.6561   26.7525 C   0  0  0  0  0  0  0  0  0  0  0  0
    5.8554  -14.0319   26.7095 C   0  0  0  0  0  0  0  0  0  0  0  0
    7.2617  -16.6984   24.1708 C   0  0  0  0  0  0  0  0  0  0  0  0
    7.9621  -17.7006   23.9882 O   0  0  0  0  0  0  0  0  0  0  0  0
    8.3979  -13.0883   21.8144 C   0  0  0  0  0  0  0  0  0  0  0  0
    8.1290  -14.4360   21.2414 C   0  0  2  0  0  0  0  0  0  0  0  0
    6.6943  -14.5415   20.7619 C   0  0  0  0  0  0  0  0  0  0  0  0
    8.3692  -15.5688   22.2150 C   0  0  2  0  0  0  0  0  0  0  0  0
    7.4378  -15.5896   23.2977 N   0  0  0  0  0  0  0  0  0  0  0  0
    9.7938  -15.6114   22.6723 C   0  0  0  0  0  0  0  0  0  0  0  0
   10.2550  -14.8597   23.5414 O   0  0  0  0  0  0  0  0  0  0  0  0
   10.6760  -16.5560   22.0906 N   0  0  0  0  0  0  0  0  0  0  0  0
   11.9545  -16.8810   22.7155 C   0  0  1  0  0  0  0  0  0  0  0  0
   12.0293  -18.3198   23.0871 C   0  0  0  0  0  0  0  0  0  0  0  0
   13.2239  -18.8128   23.7906 C   0  0  0  0  0  0  0  0  0  0  0  0
   13.3690  -20.2129   24.1049 C   0  0  0  0  0  0  0  0  0  0  0  0
   12.6635  -21.1701   23.7695 O   0  0  0  0  0  0  0  0  0  0  0  0
   13.0274  -16.3460   21.8903 C   0  0  0  0  0  0  0  0  0  0  0  0
   12.8392  -16.0815   20.6874 O   0  0  0  0  0  0  0  0  0  0  0  0
   14.4796  -20.5588   24.9173 O   0  0  0  0  0  0  0  0  0  0  0  0
   14.2781  -16.1175   22.4371 O   0  0  0  0  0  0  0  0  0  0  0  0
  2 10  1  0
  2  1  1  1
  3  4  1  0
  3  2  1  0
  4  5  2  0
  5  6  1  0
  7  6  2  0
  8  7  1  0
  9  8  2  0
  9  4  1  0
 10 11  2  0
 13 12  1  1
 14 13  1  0
 15 13  1  0
 15 16  1  1
 16 10  1  0
 17 15  1  0
 18 17  2  0
 19 17  1  0
 20 19  1  0
 20 21  1  6
 22 21  1  0
 23 22  1  0
 24 23  2  0
 25 20  1  0
 25 28  1  0
 26 25  2  0
 27 23  1  0
M  END
$$$$
