FVE.pdb
     RDKit          3D

 28 28  0  0  1  0  0  0  0  0999 V2000
    5.9003  -18.1372   25.5834 N   0  0  0  0  0  0  0  0  0  0  0  0
    6.5326  -16.8812   25.3364 C   0  0  1  0  0  0  0  0  0  0  0  0
    7.1822  -16.3399   26.5656 C   0  0  0  0  0  0  0  0  0  0  0  0
    7.0194  -14.8727   26.5654 C   0  0  0  0  0  0  0  0  0  0  0  0
    5.7865  -14.3014   26.3876 C   0  0  0  0  0  0  0  0  0  0  0  0
    5.6123  -12.9132   26.3834 C   0  0  0  0  0  0  0  0  0  0  0  0
    6.7347  -12.1108   26.5663 C   0  0  0  0  0  0  0  0  0  0  0  0
    7.9777  -12.6673   26.7457 C   0  0  0  0  0  0  0  0  0  0  0  0
    8.1048  -14.0406   26.7431 C   0  0  0  0  0  0  0  0  0  0  0  0
    7.4394  -16.9219   24.1534 C   0  0  0  0  0  0  0  0  0  0  0  0
    7.9680  -17.9893   23.8225 O   0  0  0  0  0  0  0  0  0  0  0  0
    8.8678  -13.3431   21.9250 C   0  0  0  0  0  0  0  0  0  0  0  0
    8.1911  -14.5192   21.3121 C   0  0  2  0  0  0  0  0  0  0  0  0
    6.7026  -14.2691   21.1659 C   0  0  0  0  0  0  0  0  0  0  0  0
    8.3635  -15.7984   22.1012 C   0  0  2  0  0  0  0  0  0  0  0  0
    7.7250  -15.7641   23.3785 N   0  0  0  0  0  0  0  0  0  0  0  0
    9.8006  -16.2093   22.1802 C   0  0  0  0  0  0  0  0  0  0  0  0
   10.5405  -16.2996   21.1915 O   0  0  0  0  0  0  0  0  0  0  0  0
   10.3610  -16.5150   23.4456 N   0  0  0  0  0  0  0  0  0  0  0  0
   11.7160  -17.0446   23.5642 C   0  0  1  0  0  0  0  0  0  0  0  0
   12.7059  -16.1668   22.8835 C   0  0  0  0  0  0  0  0  0  0  0  0
   14.1353  -16.5054   22.9681 C   0  0  0  0  0  0  0  0  0  0  0  0
   15.1236  -15.7071   22.2854 C   0  0  0  0  0  0  0  0  0  0  0  0
   15.7803  -14.7465   22.7006 O   0  0  0  0  0  0  0  0  0  0  0  0
   11.9661  -17.3804   24.9582 C   0  0  0  0  0  0  0  0  0  0  0  0
   11.1580  -17.0572   25.8497 O   0  0  0  0  0  0  0  0  0  0  0  0
   15.3932  -16.0641   20.9389 O   0  0  0  0  0  0  0  0  0  0  0  0
   13.1108  -18.0728   25.3127 O   0  0  0  0  0  0  0  0  0  0  0  0
  2 10  1  0
  2  1  1  1
  3  4  1  0
  3  2  1  0
  4  5  2  0
  5  6  1  0
  7  6  2  0
  8  7  1  0
  9  8  2  0
  9  4  1  0
 10 11  2  0
 13 12  1  1
 14 13  1  0
 15 13  1  0
 15 16  1  1
 16 10  1  0
 17 15  1  0
 18 17  2  0
 19 17  1  0
 20 19  1  0
 20 21  1  1
 22 21  1  0
 23 22  1  0
 24 23  2  0
 25 20  1  0
 25 28  1  0
 26 25  2  0
 27 23  1  0
M  END
$$$$
