FVE.pdb
     RDKit          3D

 28 28  0  0  1  0  0  0  0  0999 V2000
    9.2920  -16.9907   21.5950 N   0  0  0  0  0  0  0  0  0  0  0  0
    8.7714  -15.8033   22.1929 C   0  0  1  0  0  0  0  0  0  0  0  0
    7.3688  -15.5373   21.7596 C   0  0  0  0  0  0  0  0  0  0  0  0
    7.3671  -14.3204   20.9238 C   0  0  0  0  0  0  0  0  0  0  0  0
    7.4543  -14.4040   19.5588 C   0  0  0  0  0  0  0  0  0  0  0  0
    7.4552  -13.2623   18.7501 C   0  0  0  0  0  0  0  0  0  0  0  0
    7.3645  -12.0195   19.3699 C   0  0  0  0  0  0  0  0  0  0  0  0
    7.2765  -11.9181   20.7370 C   0  0  0  0  0  0  0  0  0  0  0  0
    7.2789  -13.0691   21.4969 C   0  0  0  0  0  0  0  0  0  0  0  0
    8.9501  -15.7844   23.6732 C   0  0  0  0  0  0  0  0  0  0  0  0
    9.4898  -16.7426   24.2379 O   0  0  0  0  0  0  0  0  0  0  0  0
    6.4562  -13.9220   26.5282 C   0  0  0  0  0  0  0  0  0  0  0  0
    7.9017  -13.5672   26.5698 C   0  0  2  0  0  0  0  0  0  0  0  0
    8.1433  -12.2141   25.9292 C   0  0  0  0  0  0  0  0  0  0  0  0
    8.7933  -14.5692   25.8700 C   0  0  2  0  0  0  0  0  0  0  0  0
    8.5179  -14.6913   24.4738 N   0  0  0  0  0  0  0  0  0  0  0  0
    8.8046  -15.8878   26.5782 C   0  0  0  0  0  0  0  0  0  0  0  0
    7.7773  -16.5084   26.8827 O   0  0  0  0  0  0  0  0  0  0  0  0
   10.0480  -16.4720   26.9265 N   0  0  0  0  0  0  0  0  0  0  0  0
   10.1121  -17.7248   27.6727 C   0  0  1  0  0  0  0  0  0  0  0  0
   11.1026  -18.6630   27.0788 C   0  0  0  0  0  0  0  0  0  0  0  0
   11.0725  -18.9065   25.6280 C   0  0  0  0  0  0  0  0  0  0  0  0
   12.2967  -19.0180   24.8737 C   0  0  0  0  0  0  0  0  0  0  0  0
   12.5076  -18.7810   23.6796 O   0  0  0  0  0  0  0  0  0  0  0  0
   10.2457  -17.4188   29.0893 C   0  0  0  0  0  0  0  0  0  0  0  0
   10.3523  -16.2414   29.4829 O   0  0  0  0  0  0  0  0  0  0  0  0
   13.4353  -19.4638   25.5935 O   0  0  0  0  0  0  0  0  0  0  0  0
   10.2505  -18.4391   30.0244 O   0  0  0  0  0  0  0  0  0  0  0  0
  2 10  1  0
  2  1  1  1
  3  4  1  0
  3  2  1  0
  4  5  2  0
  5  6  1  0
  7  6  2  0
  8  7  1  0
  9  8  2  0
  9  4  1  0
 10 11  2  0
 13 12  1  6
 14 13  1  0
 15 13  1  0
 15 16  1  6
 16 10  1  0
 17 15  1  0
 18 17  2  0
 19 17  1  0
 20 19  1  0
 20 21  1  6
 22 21  1  0
 23 22  1  0
 24 23  2  0
 25 20  1  0
 25 28  1  0
 26 25  2  0
 27 23  1  0
M  END
$$$$
