FVE.pdb
     RDKit          3D

 28 28  0  0  1  0  0  0  0  0999 V2000
    5.9208  -18.0390   25.8669 N   0  0  0  0  0  0  0  0  0  0  0  0
    6.4187  -16.7189   25.6476 C   0  0  1  0  0  0  0  0  0  0  0  0
    6.9901  -16.1311   26.8942 C   0  0  0  0  0  0  0  0  0  0  0  0
    6.8951  -14.6612   26.7966 C   0  0  0  0  0  0  0  0  0  0  0  0
    8.0206  -13.8798   26.8231 C   0  0  0  0  0  0  0  0  0  0  0  0
    7.9507  -12.4853   26.7329 C   0  0  0  0  0  0  0  0  0  0  0  0
    6.6946  -11.8979   26.6138 C   0  0  0  0  0  0  0  0  0  0  0  0
    5.5565  -12.6666   26.5858 C   0  0  0  0  0  0  0  0  0  0  0  0
    5.6705  -14.0381   26.6775 C   0  0  0  0  0  0  0  0  0  0  0  0
    7.3406  -16.6439   24.4781 C   0  0  0  0  0  0  0  0  0  0  0  0
    8.1873  -17.5284   24.3071 O   0  0  0  0  0  0  0  0  0  0  0  0
    6.3181  -14.6340   20.9143 C   0  0  0  0  0  0  0  0  0  0  0  0
    7.7063  -14.4239   21.4099 C   0  0  2  0  0  0  0  0  0  0  0  0
    8.6964  -14.4362   20.2614 C   0  0  0  0  0  0  0  0  0  0  0  0
    8.1571  -15.4636   22.4122 C   0  0  2  0  0  0  0  0  0  0  0  0
    7.2840  -15.5793   23.5368 N   0  0  0  0  0  0  0  0  0  0  0  0
    9.5883  -15.2684   22.8047 C   0  0  0  0  0  0  0  0  0  0  0  0
    9.9697  -14.3784   23.5763 O   0  0  0  0  0  0  0  0  0  0  0  0
   10.5728  -16.1394   22.2746 N   0  0  0  0  0  0  0  0  0  0  0  0
   11.8329  -16.3709   22.9740 C   0  0  1  0  0  0  0  0  0  0  0  0
   11.6758  -17.3725   24.0631 C   0  0  0  0  0  0  0  0  0  0  0  0
   12.8663  -17.8013   24.8139 C   0  0  0  0  0  0  0  0  0  0  0  0
   12.7758  -18.8435   25.8068 C   0  0  0  0  0  0  0  0  0  0  0  0
   12.3468  -18.7901   26.9642 O   0  0  0  0  0  0  0  0  0  0  0  0
   12.8769  -16.6113   21.9888 C   0  0  0  0  0  0  0  0  0  0  0  0
   14.0565  -16.2775   22.2113 O   0  0  0  0  0  0  0  0  0  0  0  0
   13.2437  -20.1238   25.4129 O   0  0  0  0  0  0  0  0  0  0  0  0
   12.5710  -17.2233   20.7859 O   0  0  0  0  0  0  0  0  0  0  0  0
  2 10  1  0
  2  1  1  1
  3  4  1  0
  3  2  1  0
  4  5  2  0
  5  6  1  0
  7  6  2  0
  8  7  1  0
  9  8  2  0
  9  4  1  0
 10 11  2  0
 13 12  1  6
 14 13  1  0
 15 13  1  0
 15 16  1  1
 16 10  1  0
 17 15  1  0
 18 17  2  0
 19 17  1  0
 20 19  1  0
 20 21  1  1
 22 21  1  0
 23 22  1  0
 24 23  2  0
 25 20  1  0
 25 28  1  0
 26 25  2  0
 27 23  1  0
M  END
$$$$
