FVE.pdb
     RDKit          3D

 28 28  0  0  1  0  0  0  0  0999 V2000
    5.7456  -17.4033   25.8785 N   0  0  0  0  0  0  0  0  0  0  0  0
    6.5618  -16.2778   25.5534 C   0  0  1  0  0  0  0  0  0  0  0  0
    7.3085  -15.7763   26.7437 C   0  0  0  0  0  0  0  0  0  0  0  0
    7.0725  -14.3234   26.8576 C   0  0  0  0  0  0  0  0  0  0  0  0
    8.1090  -13.4323   26.7600 C   0  0  0  0  0  0  0  0  0  0  0  0
    7.9055  -12.0521   26.8663 C   0  0  0  0  0  0  0  0  0  0  0  0
    6.6080  -11.5948   27.0766 C   0  0  0  0  0  0  0  0  0  0  0  0
    5.5578  -12.4746   27.1768 C   0  0  0  0  0  0  0  0  0  0  0  0
    5.8027  -13.8274   27.0662 C   0  0  0  0  0  0  0  0  0  0  0  0
    7.4313  -16.5270   24.3679 C   0  0  0  0  0  0  0  0  0  0  0  0
    7.9940  -17.6202   24.2392 O   0  0  0  0  0  0  0  0  0  0  0  0
    8.5577  -13.3565   21.3943 C   0  0  0  0  0  0  0  0  0  0  0  0
    8.2126  -14.7748   21.1004 C   0  0  2  0  0  0  0  0  0  0  0  0
    6.7407  -14.9126   20.7628 C   0  0  0  0  0  0  0  0  0  0  0  0
    8.5093  -15.7212   22.2428 C   0  0  2  0  0  0  0  0  0  0  0  0
    7.6423  -15.5422   23.3637 N   0  0  0  0  0  0  0  0  0  0  0  0
    9.9580  -15.6967   22.6183 C   0  0  0  0  0  0  0  0  0  0  0  0
   10.4502  -14.8607   23.3877 O   0  0  0  0  0  0  0  0  0  0  0  0
   10.8273  -16.6748   22.0738 N   0  0  0  0  0  0  0  0  0  0  0  0
   12.2185  -16.7734   22.5043 C   0  0  1  0  0  0  0  0  0  0  0  0
   12.4766  -18.0483   23.2268 C   0  0  0  0  0  0  0  0  0  0  0  0
   12.0186  -18.1838   24.6185 C   0  0  0  0  0  0  0  0  0  0  0  0
   12.3078  -19.3761   25.3769 C   0  0  0  0  0  0  0  0  0  0  0  0
   13.3562  -20.0258   25.4489 O   0  0  0  0  0  0  0  0  0  0  0  0
   13.0807  -16.4576   21.3749 C   0  0  0  0  0  0  0  0  0  0  0  0
   12.6306  -16.4310   20.2134 O   0  0  0  0  0  0  0  0  0  0  0  0
   11.2431  -19.8914   26.1605 O   0  0  0  0  0  0  0  0  0  0  0  0
   14.4200  -16.1754   21.5793 O   0  0  0  0  0  0  0  0  0  0  0  0
  2 10  1  0
  2  1  1  1
  3  4  1  0
  3  2  1  0
  4  5  2  0
  5  6  1  0
  7  6  2  0
  8  7  1  0
  9  8  2  0
  9  4  1  0
 10 11  2  0
 13 12  1  1
 14 13  1  0
 15 13  1  0
 15 16  1  1
 16 10  1  0
 17 15  1  0
 18 17  2  0
 19 17  1  0
 20 19  1  0
 20 21  1  6
 22 21  1  0
 23 22  1  0
 24 23  2  0
 25 20  1  0
 25 28  1  0
 26 25  2  0
 27 23  1  0
M  END
$$$$
