FVE.pdb
     RDKit          3D

 28 28  0  0  1  0  0  0  0  0999 V2000
    5.9045  -17.6389   25.7818 N   0  0  0  0  0  0  0  0  0  0  0  0
    6.5824  -16.4561   25.3576 C   0  0  1  0  0  0  0  0  0  0  0  0
    7.5558  -15.9806   26.3834 C   0  0  0  0  0  0  0  0  0  0  0  0
    7.3390  -14.5350   26.5898 C   0  0  0  0  0  0  0  0  0  0  0  0
    6.0773  -14.0309   26.7683 C   0  0  0  0  0  0  0  0  0  0  0  0
    5.8517  -12.6641   26.9643 C   0  0  0  0  0  0  0  0  0  0  0  0
    6.9526  -11.8125   26.9745 C   0  0  0  0  0  0  0  0  0  0  0  0
    8.2239  -12.3015   26.7971 C   0  0  0  0  0  0  0  0  0  0  0  0
    8.4016  -13.6560   26.6070 C   0  0  0  0  0  0  0  0  0  0  0  0
    7.1740  -16.5949   23.9959 C   0  0  0  0  0  0  0  0  0  0  0  0
    7.3520  -17.7205   23.5166 O   0  0  0  0  0  0  0  0  0  0  0  0
    6.7461  -13.5408   21.1431 C   0  0  0  0  0  0  0  0  0  0  0  0
    8.0682  -14.2255   21.1590 C   0  0  2  0  0  0  0  0  0  0  0  0
    8.5617  -14.4776   19.7475 C   0  0  0  0  0  0  0  0  0  0  0  0
    8.0553  -15.5543   21.8821 C   0  0  2  0  0  0  0  0  0  0  0  0
    7.5474  -15.4669   23.2143 N   0  0  0  0  0  0  0  0  0  0  0  0
    9.3864  -16.2351   21.8106 C   0  0  0  0  0  0  0  0  0  0  0  0
    9.7887  -16.8450   20.8110 O   0  0  0  0  0  0  0  0  0  0  0  0
   10.2449  -16.1894   22.9374 N   0  0  0  0  0  0  0  0  0  0  0  0
   11.5409  -16.8607   22.9280 C   0  0  1  0  0  0  0  0  0  0  0  0
   12.6618  -15.8821   22.9347 C   0  0  0  0  0  0  0  0  0  0  0  0
   14.0403  -16.3787   23.0690 C   0  0  0  0  0  0  0  0  0  0  0  0
   15.1597  -15.4712   23.0090 C   0  0  0  0  0  0  0  0  0  0  0  0
   15.1985  -14.2963   22.6288 O   0  0  0  0  0  0  0  0  0  0  0  0
   11.5427  -17.8878   23.9593 C   0  0  0  0  0  0  0  0  0  0  0  0
   12.3656  -18.8229   23.9304 O   0  0  0  0  0  0  0  0  0  0  0  0
   16.4066  -15.9876   23.4471 O   0  0  0  0  0  0  0  0  0  0  0  0
   10.6271  -17.8350   24.9957 O   0  0  0  0  0  0  0  0  0  0  0  0
  2 10  1  0
  2  1  1  1
  3  4  1  0
  3  2  1  0
  4  5  2  0
  5  6  1  0
  7  6  2  0
  8  7  1  0
  9  8  2  0
  9  4  1  0
 10 11  2  0
 13 12  1  6
 14 13  1  0
 15 13  1  0
 15 16  1  1
 16 10  1  0
 17 15  1  0
 18 17  2  0
 19 17  1  0
 20 19  1  0
 20 21  1  1
 22 21  1  0
 23 22  1  0
 24 23  2  0
 25 20  1  0
 25 28  1  0
 26 25  2  0
 27 23  1  0
M  END
$$$$
