FVE.pdb
     RDKit          3D

 28 28  0  0  1  0  0  0  0  0999 V2000
    6.0605  -16.8760   26.0722 N   0  0  0  0  0  0  0  0  0  0  0  0
    6.7320  -15.7790   25.4524 C   0  0  1  0  0  0  0  0  0  0  0  0
    7.7299  -15.1546   26.3691 C   0  0  0  0  0  0  0  0  0  0  0  0
    7.2720  -13.7876   26.6871 C   0  0  0  0  0  0  0  0  0  0  0  0
    8.0787  -12.9165   27.3715 C   0  0  0  0  0  0  0  0  0  0  0  0
    7.6622  -11.6177   27.6829 C   0  0  0  0  0  0  0  0  0  0  0  0
    6.3912  -11.2215   27.2771 C   0  0  0  0  0  0  0  0  0  0  0  0
    5.5700  -12.0823   26.5904 C   0  0  0  0  0  0  0  0  0  0  0  0
    6.0201  -13.3541   26.3039 C   0  0  0  0  0  0  0  0  0  0  0  0
    7.2921  -16.1339   24.1168 C   0  0  0  0  0  0  0  0  0  0  0  0
    7.8322  -17.2335   23.9510 O   0  0  0  0  0  0  0  0  0  0  0  0
    8.3329  -14.6082   19.4520 C   0  0  0  0  0  0  0  0  0  0  0  0
    7.7276  -14.3300   20.7837 C   0  0  2  0  0  0  0  0  0  0  0  0
    8.2687  -13.0370   21.3622 C   0  0  0  0  0  0  0  0  0  0  0  0
    7.9710  -15.4225   21.8015 C   0  0  2  0  0  0  0  0  0  0  0  0
    7.2288  -15.2444   23.0089 N   0  0  0  0  0  0  0  0  0  0  0  0
    9.4325  -15.6366   22.0434 C   0  0  0  0  0  0  0  0  0  0  0  0
   10.1166  -14.9117   22.7780 O   0  0  0  0  0  0  0  0  0  0  0  0
   10.0844  -16.7217   21.4060 N   0  0  0  0  0  0  0  0  0  0  0  0
   11.5231  -16.9256   21.5438 C   0  0  1  0  0  0  0  0  0  0  0  0
   11.8287  -18.2171   22.2166 C   0  0  0  0  0  0  0  0  0  0  0  0
   11.3460  -18.4371   23.5891 C   0  0  0  0  0  0  0  0  0  0  0  0
   11.5898  -19.6879   24.2646 C   0  0  0  0  0  0  0  0  0  0  0  0
   12.2657  -19.9168   25.2732 O   0  0  0  0  0  0  0  0  0  0  0  0
   12.1561  -16.6748   20.2573 C   0  0  0  0  0  0  0  0  0  0  0  0
   11.5236  -16.8185   19.1936 O   0  0  0  0  0  0  0  0  0  0  0  0
   10.9700  -20.8332   23.7012 O   0  0  0  0  0  0  0  0  0  0  0  0
   13.4768  -16.2652   20.1996 O   0  0  0  0  0  0  0  0  0  0  0  0
  2 10  1  0
  2  1  1  1
  3  4  1  0
  3  2  1  0
  4  5  2  0
  5  6  1  0
  7  6  2  0
  8  7  1  0
  9  8  2  0
  9  4  1  0
 10 11  2  0
 13 12  1  6
 14 13  1  0
 15 13  1  0
 15 16  1  1
 16 10  1  0
 17 15  1  0
 18 17  2  0
 19 17  1  0
 20 19  1  0
 20 21  1  6
 22 21  1  0
 23 22  1  0
 24 23  2  0
 25 20  1  0
 25 28  1  0
 26 25  2  0
 27 23  1  0
M  END
$$$$
