FVE.pdb
     RDKit          3D

 28 28  0  0  1  0  0  0  0  0999 V2000
    8.4872  -16.0329   25.6228 N   0  0  0  0  0  0  0  0  0  0  0  0
    7.2435  -16.3023   24.9753 C   0  0  1  0  0  0  0  0  0  0  0  0
    6.0997  -15.6676   25.6928 C   0  0  0  0  0  0  0  0  0  0  0  0
    6.4913  -14.2922   26.0594 C   0  0  0  0  0  0  0  0  0  0  0  0
    5.5989  -13.4427   26.6594 C   0  0  0  0  0  0  0  0  0  0  0  0
    5.9510  -12.1357   27.0133 C   0  0  0  0  0  0  0  0  0  0  0  0
    7.2469  -11.7084   26.7391 C   0  0  0  0  0  0  0  0  0  0  0  0
    8.1535  -12.5472   26.1381 C   0  0  0  0  0  0  0  0  0  0  0  0
    7.7650  -13.8282   25.8057 C   0  0  0  0  0  0  0  0  0  0  0  0
    7.2792  -15.9880   23.5181 C   0  0  0  0  0  0  0  0  0  0  0  0
    6.2254  -15.9516   22.8728 O   0  0  0  0  0  0  0  0  0  0  0  0
    8.4360  -12.8281   21.8717 C   0  0  0  0  0  0  0  0  0  0  0  0
    7.8275  -14.0104   21.2017 C   0  0  2  0  0  0  0  0  0  0  0  0
    6.3909  -14.2027   21.6476 C   0  0  0  0  0  0  0  0  0  0  0  0
    8.5646  -15.3047   21.4667 C   0  0  2  0  0  0  0  0  0  0  0  0
    8.4958  -15.7244   22.8302 N   0  0  0  0  0  0  0  0  0  0  0  0
    9.9657  -15.2598   20.9419 C   0  0  0  0  0  0  0  0  0  0  0  0
   10.6734  -14.2441   20.9700 O   0  0  0  0  0  0  0  0  0  0  0  0
   10.5286  -16.4327   20.3796 N   0  0  0  0  0  0  0  0  0  0  0  0
   11.6156  -17.1437   21.0454 C   0  0  1  0  0  0  0  0  0  0  0  0
   11.3418  -17.3223   22.4969 C   0  0  0  0  0  0  0  0  0  0  0  0
   12.2926  -18.0950   23.3116 C   0  0  0  0  0  0  0  0  0  0  0  0
   12.0103  -18.3870   24.6955 C   0  0  0  0  0  0  0  0  0  0  0  0
   11.0217  -18.9327   25.1969 O   0  0  0  0  0  0  0  0  0  0  0  0
   11.9369  -18.3350   20.2732 C   0  0  0  0  0  0  0  0  0  0  0  0
   11.0366  -19.0357   19.7725 O   0  0  0  0  0  0  0  0  0  0  0  0
   13.0030  -17.9970   25.6313 O   0  0  0  0  0  0  0  0  0  0  0  0
   13.2567  -18.7037   20.0794 O   0  0  0  0  0  0  0  0  0  0  0  0
  2 10  1  0
  2  1  1  1
  3  4  1  0
  3  2  1  0
  4  5  2  0
  5  6  1  0
  7  6  2  0
  8  7  1  0
  9  8  2  0
  9  4  1  0
 10 11  2  0
 13 12  1  1
 14 13  1  0
 15 13  1  0
 15 16  1  1
 16 10  1  0
 17 15  1  0
 18 17  2  0
 19 17  1  0
 20 19  1  0
 20 21  1  1
 22 21  1  0
 23 22  1  0
 24 23  2  0
 25 20  1  0
 25 28  1  0
 26 25  2  0
 27 23  1  0
M  END
$$$$
