VAD.pdb
     RDKit          3D

 21 20  0  0  1  0  0  0  0  0999 V2000
    6.9951  -13.5177   18.3031 C   0  0  0  0  0  0  0  0  0  0  0  0
    7.4168  -14.1413   19.6263 C   0  0  1  0  0  0  0  0  0  0  0  0
    8.2334  -15.3649   19.3055 C   0  0  0  0  0  0  0  0  0  0  0  0
    8.1716  -13.1093   20.3894 C   0  0  2  0  0  0  0  0  0  0  0  0
    9.2828  -12.6616   19.5727 N   0  0  0  0  0  0  0  0  0  0  0  0
    8.6046  -13.5312   21.7305 C   0  0  0  0  0  0  0  0  0  0  0  0
    9.7850  -13.9462   21.8608 O   0  0  0  0  0  0  0  0  0  0  0  0
    7.1201  -13.6120   25.1797 C   0  0  0  0  0  0  0  0  0  0  0  0
    8.1701  -14.0469   24.1711 C   0  0  2  0  0  0  0  0  0  0  0  0
    7.8095  -13.5108   22.8847 N   0  0  0  0  0  0  0  0  0  0  0  0
    8.4078  -15.4812   24.1859 C   0  0  0  0  0  0  0  0  0  0  0  0
    7.6021  -16.3114   23.7002 O   0  0  0  0  0  0  0  0  0  0  0  0
    9.5921  -15.9978   24.7669 N   0  0  0  0  0  0  0  0  0  0  0  0
    9.8235  -17.4247   24.9178 C   0  0  1  0  0  0  0  0  0  0  0  0
   10.8541  -17.8861   23.9295 C   0  0  0  0  0  0  0  0  0  0  0  0
   12.1640  -17.2769   24.1395 C   0  0  0  0  0  0  0  0  0  0  0  0
   12.4726  -16.4718   25.0599 O   0  0  0  0  0  0  0  0  0  0  0  0
   10.1158  -17.7927   26.2979 C   0  0  0  0  0  0  0  0  0  0  0  0
   10.1926  -18.9931   26.6327 O   0  0  0  0  0  0  0  0  0  0  0  0
   13.2178  -17.5851   23.2576 O   0  0  0  0  0  0  0  0  0  0  0  0
   10.3134  -16.8214   27.2583 O   0  0  0  0  0  0  0  0  0  0  0  0
  2  1  1  6
  2  3  1  0
  4  2  1  0
  4  5  1  6
  6  4  1  0
  6  7  2  0
  9  8  1  1
  9 10  1  0
 10  6  1  0
 11 12  2  0
 11  9  1  0
 13 11  1  0
 14 13  1  0
 14 15  1  6
 16 15  1  0
 16 20  1  0
 17 16  2  0
 18 14  1  0
 19 18  2  0
 21 18  1  0
M  END
$$$$
