VAD.pdb
     RDKit          3D

 21 20  0  0  1  0  0  0  0  0999 V2000
    7.3273  -13.8475   18.3147 C   0  0  0  0  0  0  0  0  0  0  0  0
    7.8043  -14.2873   19.6919 C   0  0  1  0  0  0  0  0  0  0  0  0
    9.0302  -15.1382   19.4916 C   0  0  0  0  0  0  0  0  0  0  0  0
    8.0614  -13.0582   20.4922 C   0  0  2  0  0  0  0  0  0  0  0  0
    9.0603  -12.2661   19.8017 N   0  0  0  0  0  0  0  0  0  0  0  0
    8.4236  -13.3042   21.8967 C   0  0  0  0  0  0  0  0  0  0  0  0
    9.6295  -13.1593   22.2241 O   0  0  0  0  0  0  0  0  0  0  0  0
    6.5838  -13.9173   25.0998 C   0  0  0  0  0  0  0  0  0  0  0  0
    7.8704  -13.9139   24.2911 C   0  0  2  0  0  0  0  0  0  0  0  0
    7.5343  -13.6890   22.9095 N   0  0  0  0  0  0  0  0  0  0  0  0
    8.6925  -15.0885   24.5325 C   0  0  0  0  0  0  0  0  0  0  0  0
    9.0885  -15.4209   25.6757 O   0  0  0  0  0  0  0  0  0  0  0  0
    9.0814  -15.9163   23.4506 N   0  0  0  0  0  0  0  0  0  0  0  0
    9.8353  -17.1437   23.6451 C   0  0  1  0  0  0  0  0  0  0  0  0
    9.8507  -17.9445   22.3763 C   0  0  0  0  0  0  0  0  0  0  0  0
   10.5836  -19.2010   22.4992 C   0  0  0  0  0  0  0  0  0  0  0  0
   10.3548  -20.1186   23.3336 O   0  0  0  0  0  0  0  0  0  0  0  0
   11.1570  -16.8951   24.2080 C   0  0  0  0  0  0  0  0  0  0  0  0
   11.8250  -15.9038   23.8472 O   0  0  0  0  0  0  0  0  0  0  0  0
   11.6577  -19.4616   21.6266 O   0  0  0  0  0  0  0  0  0  0  0  0
   11.6929  -17.7499   25.1498 O   0  0  0  0  0  0  0  0  0  0  0  0
  2  1  1  6
  2  3  1  0
  4  2  1  0
  4  5  1  6
  6  4  1  0
  6  7  2  0
  9  8  1  1
  9 10  1  0
 10  6  1  0
 11 12  2  0
 11  9  1  0
 13 11  1  0
 14 13  1  0
 14 15  1  6
 16 15  1  0
 16 20  1  0
 17 16  2  0
 18 14  1  0
 19 18  2  0
 21 18  1  0
M  END
$$$$
