VAD.pdb
     RDKit          3D

 21 20  0  0  1  0  0  0  0  0999 V2000
    8.2573  -11.8610   25.1881 C   0  0  0  0  0  0  0  0  0  0  0  0
    7.3832  -12.4063   26.3089 C   0  0  1  0  0  0  0  0  0  0  0  0
    6.8250  -11.2253   27.0576 C   0  0  0  0  0  0  0  0  0  0  0  0
    6.3353  -13.2615   25.6862 C   0  0  2  0  0  0  0  0  0  0  0  0
    5.4403  -13.7183   26.7314 N   0  0  0  0  0  0  0  0  0  0  0  0
    6.8526  -14.3741   24.8746 C   0  0  0  0  0  0  0  0  0  0  0  0
    7.2637  -15.3978   25.4792 O   0  0  0  0  0  0  0  0  0  0  0  0
    7.2409  -15.1293   21.2142 C   0  0  0  0  0  0  0  0  0  0  0  0
    7.5558  -15.4103   22.6740 C   0  0  2  0  0  0  0  0  0  0  0  0
    6.9277  -14.3924   23.4751 N   0  0  0  0  0  0  0  0  0  0  0  0
    8.9776  -15.5863   22.9215 C   0  0  0  0  0  0  0  0  0  0  0  0
    9.7815  -14.6257   22.9942 O   0  0  0  0  0  0  0  0  0  0  0  0
    9.5119  -16.8871   23.0928 N   0  0  0  0  0  0  0  0  0  0  0  0
   10.8892  -17.1126   23.4985 C   0  0  1  0  0  0  0  0  0  0  0  0
   11.7308  -15.9210   23.1472 C   0  0  0  0  0  0  0  0  0  0  0  0
   12.9895  -16.2778   22.4997 C   0  0  0  0  0  0  0  0  0  0  0  0
   13.3836  -17.4449   22.2290 O   0  0  0  0  0  0  0  0  0  0  0  0
   10.9924  -17.5236   24.8935 C   0  0  0  0  0  0  0  0  0  0  0  0
   10.5979  -16.7710   25.8084 O   0  0  0  0  0  0  0  0  0  0  0  0
   13.8843  -15.2584   22.1215 O   0  0  0  0  0  0  0  0  0  0  0  0
   11.5269  -18.7514   25.2276 O   0  0  0  0  0  0  0  0  0  0  0  0
  2  1  1  6
  2  3  1  0
  4  2  1  0
  4  5  1  1
  6  4  1  0
  6  7  2  0
  9  8  1  6
  9 10  1  0
 10  6  1  0
 11 12  2  0
 11  9  1  0
 13 11  1  0
 14 13  1  0
 14 15  1  1
 16 15  1  0
 16 20  1  0
 17 16  2  0
 18 14  1  0
 19 18  2  0
 21 18  1  0
M  END
$$$$
