TRM.pdb
     RDKit          3D

 27 26  0  0  1  0  0  0  0  0999 V2000
   24.6802  -16.6115  -18.3703 C   0  0  0  0  0  0  0  0  0  0  0  0
   25.5528  -17.6933  -18.9957 C   0  0  1  0  0  0  0  0  0  0  0  0
   26.5921  -17.0510  -19.6416 O   0  0  0  0  0  0  0  0  0  0  0  0
   26.0131  -18.6004  -17.8910 C   0  0  2  0  0  0  0  0  0  0  0  0
   26.9175  -19.5771  -18.4687 N   0  0  0  0  0  0  0  0  0  0  0  0
   24.9346  -19.3227  -17.2200 C   0  0  0  0  0  0  0  0  0  0  0  0
   24.3751  -20.2962  -17.7463 O   0  0  0  0  0  0  0  0  0  0  0  0
   23.4859  -21.0290   -8.9959 N   0  0  0  0  0  0  0  0  0  0  0  0
   24.4303  -20.7243  -10.0005 C   0  0  0  0  0  0  0  0  0  0  0  0
   25.6740  -20.5993   -9.7092 N   0  0  0  0  0  0  0  0  0  0  0  0
   24.0313  -20.5496  -11.3498 N   0  0  0  0  0  0  0  0  0  0  0  0
   22.6322  -20.4894  -11.6349 C   0  0  0  0  0  0  0  0  0  0  0  0
   22.3236  -20.4382  -13.1184 C   0  0  0  0  0  0  0  0  0  0  0  0
   23.4716  -19.6690  -13.7558 C   0  0  0  0  0  0  0  0  0  0  0  0
   23.3926  -19.6428  -15.2488 C   0  0  2  0  0  0  0  0  0  0  0  0
   24.4428  -18.9679  -15.9152 N   0  0  0  0  0  0  0  0  0  0  0  0
   22.0320  -19.2160  -15.6592 C   0  0  0  0  0  0  0  0  0  0  0  0
   21.7455  -18.0017  -15.5442 O   0  0  0  0  0  0  0  0  0  0  0  0
   26.3504  -20.3365  -10.4365 C   0  0  0  0  0  0  0  0  0  0  0  0
   18.8143  -21.0305  -20.8002 S   0  0  0  0  0  0  0  0  0  0  0  0
   17.4049  -20.6637  -19.7263 C   0  0  0  0  0  0  0  0  0  0  0  0
   17.9641  -19.7249  -18.2605 C   0  0  0  0  0  0  0  0  0  0  0  0
   19.2227  -20.3467  -17.7300 C   0  0  2  0  0  0  0  0  0  0  0  0
   19.7677  -19.5387  -16.5752 N   0  0  0  0  0  0  0  0  0  0  0  0
   21.0340  -20.0758  -16.1699 C   0  0  0  0  0  0  0  0  0  0  0  0
   18.7947  -19.4641  -15.4544 O   0  0  0  0  0  0  0  0  0  0  0  0
   18.7284  -20.2941  -14.5163 O   0  0  0  0  0  0  0  0  0  0  0  0
  2  1  1  1
  3  2  1  0
  4  5  1  6
  4  2  1  0
  6  4  1  0
  7  6  2  0
  8  9  1  0
  9 10  2  0
  9 11  1  0
 11 12  1  0
 13 14  1  0
 13 12  1  0
 15 14  1  1
 15 16  1  0
 16  6  1  0
 17 18  2  0
 17 15  1  0
 19 20  1  0
 20 21  1  0
 22 21  1  0
 23 22  1  6
 23 24  1  0
 24 17  1  0
 25 27  1  0
 25 23  1  0
 26 25  2  0
M  END
$$$$
