TRM.pdb
     RDKit          3D

 27 26  0  0  1  0  0  0  0  0999 V2000
   26.7832  -14.4166  -15.4143 C   0  0  0  0  0  0  0  0  0  0  0  0
   26.4186  -15.7778  -14.8337 C   0  0  1  0  0  0  0  0  0  0  0  0
   25.1241  -15.6813  -14.3595 O   0  0  0  0  0  0  0  0  0  0  0  0
   26.5738  -16.7945  -15.9279 C   0  0  2  0  0  0  0  0  0  0  0  0
   25.6697  -16.4292  -17.0025 N   0  0  0  0  0  0  0  0  0  0  0  0
   26.2652  -18.1639  -15.5218 C   0  0  0  0  0  0  0  0  0  0  0  0
   25.1089  -18.6104  -15.5586 O   0  0  0  0  0  0  0  0  0  0  0  0
   30.6919  -24.8142  -17.2441 N   0  0  0  0  0  0  0  0  0  0  0  0
   30.5736  -24.1642  -15.9962 C   0  0  0  0  0  0  0  0  0  0  0  0
   31.3336  -24.4931  -15.0156 N   0  0  0  0  0  0  0  0  0  0  0  0
   29.6174  -23.1368  -15.7951 N   0  0  0  0  0  0  0  0  0  0  0  0
   28.8244  -22.7283  -16.9117 C   0  0  0  0  0  0  0  0  0  0  0  0
   27.8512  -21.6138  -16.5810 C   0  0  0  0  0  0  0  0  0  0  0  0
   27.8674  -21.4836  -15.0649 C   0  0  0  0  0  0  0  0  0  0  0  0
   26.9791  -20.3880  -14.5682 C   0  0  2  0  0  0  0  0  0  0  0  0
   27.2626  -19.0895  -15.0540 N   0  0  0  0  0  0  0  0  0  0  0  0
   26.8686  -20.4794  -13.0913 C   0  0  0  0  0  0  0  0  0  0  0  0
   27.9257  -20.3934  -12.4241 O   0  0  0  0  0  0  0  0  0  0  0  0
   31.2476  -24.0114  -14.1122 C   0  0  0  0  0  0  0  0  0  0  0  0
   29.1709  -19.6971   -7.7064 S   0  0  0  0  0  0  0  0  0  0  0  0
   27.4673  -19.1037   -7.8473 C   0  0  0  0  0  0  0  0  0  0  0  0
   26.4517  -20.3283   -8.7482 C   0  0  0  0  0  0  0  0  0  0  0  0
   26.5006  -20.0218  -10.2165 C   0  0  1  0  0  0  0  0  0  0  0  0
   25.6958  -21.0349  -10.9970 N   0  0  0  0  0  0  0  0  0  0  0  0
   25.6610  -20.6566  -12.3798 C   0  0  0  0  0  0  0  0  0  0  0  0
   24.3379  -21.2141  -10.4203 O   0  0  0  0  0  0  0  0  0  0  0  0
   24.1091  -21.5063   -9.2222 O   0  0  0  0  0  0  0  0  0  0  0  0
  2  1  1  6
  3  2  1  0
  4  5  1  6
  4  2  1  0
  6  4  1  0
  7  6  2  0
  8  9  1  0
  9 10  2  0
  9 11  1  0
 11 12  1  0
 13 14  1  0
 13 12  1  0
 15 14  1  1
 15 16  1  0
 16  6  1  0
 17 18  2  0
 17 15  1  0
 19 20  1  0
 20 21  1  0
 22 21  1  0
 23 22  1  6
 23 24  1  0
 24 17  1  0
 25 27  1  0
 25 23  1  0
 26 25  2  0
M  END
$$$$
