TRM.pdb
     RDKit          3D

 27 26  0  0  1  0  0  0  0  0999 V2000
   23.2487  -18.5585  -14.5854 C   0  0  0  0  0  0  0  0  0  0  0  0
   23.0481  -19.4667  -15.7928 C   0  0  1  0  0  0  0  0  0  0  0  0
   22.1616  -18.8260  -16.6376 O   0  0  0  0  0  0  0  0  0  0  0  0
   24.3950  -19.6995  -16.4147 C   0  0  2  0  0  0  0  0  0  0  0  0
   24.1970  -20.4889  -17.6159 N   0  0  0  0  0  0  0  0  0  0  0  0
   25.3373  -20.4117  -15.5545 C   0  0  0  0  0  0  0  0  0  0  0  0
   25.2283  -21.6269  -15.3329 O   0  0  0  0  0  0  0  0  0  0  0  0
   31.2278  -23.1194  -11.9158 N   0  0  0  0  0  0  0  0  0  0  0  0
   31.4924  -22.0706  -11.0080 C   0  0  0  0  0  0  0  0  0  0  0  0
   32.3112  -22.2425  -10.0347 N   0  0  0  0  0  0  0  0  0  0  0  0
   30.8641  -20.8073  -11.1476 N   0  0  0  0  0  0  0  0  0  0  0  0
   29.5740  -20.7620  -11.7609 C   0  0  0  0  0  0  0  0  0  0  0  0
   29.6169  -20.9542  -13.2641 C   0  0  0  0  0  0  0  0  0  0  0  0
   28.6753  -19.9089  -13.8442 C   0  0  0  0  0  0  0  0  0  0  0  0
   27.2593  -20.3837  -13.9201 C   0  0  2  0  0  0  0  0  0  0  0  0
   26.4499  -19.7702  -14.9056 N   0  0  0  0  0  0  0  0  0  0  0  0
   26.6706  -20.3864  -12.5580 C   0  0  0  0  0  0  0  0  0  0  0  0
   26.3486  -19.2813  -12.0631 O   0  0  0  0  0  0  0  0  0  0  0  0
   32.4792  -21.4844   -9.3618 C   0  0  0  0  0  0  0  0  0  0  0  0
   28.3940  -18.9422   -7.6347 S   0  0  0  0  0  0  0  0  0  0  0  0
   26.6031  -18.9300   -7.3764 C   0  0  0  0  0  0  0  0  0  0  0  0
   25.8278  -20.2963   -8.3117 C   0  0  0  0  0  0  0  0  0  0  0  0
   26.4939  -20.4144   -9.6513 C   0  0  2  0  0  0  0  0  0  0  0  0
   25.7781  -21.4292  -10.5121 N   0  0  0  0  0  0  0  0  0  0  0  0
   26.4457  -21.5414  -11.7762 C   0  0  0  0  0  0  0  0  0  0  0  0
   24.3355  -21.1020  -10.6559 O   0  0  0  0  0  0  0  0  0  0  0  0
   23.8657  -20.3374  -11.5321 O   0  0  0  0  0  0  0  0  0  0  0  0
  2  1  1  1
  3  2  1  0
  4  5  1  6
  4  2  1  0
  6  4  1  0
  7  6  2  0
  8  9  1  0
  9 10  2  0
  9 11  1  0
 11 12  1  0
 13 14  1  0
 13 12  1  0
 15 14  1  1
 15 16  1  0
 16  6  1  0
 17 18  2  0
 17 15  1  0
 19 20  1  0
 20 21  1  0
 22 21  1  0
 23 22  1  1
 23 24  1  0
 24 17  1  0
 25 27  1  0
 25 23  1  0
 26 25  2  0
M  END
$$$$
