TRM.pdb
     RDKit          3D

 27 26  0  0  1  0  0  0  0  0999 V2000
   27.4046  -10.8987  -15.4328 C   0  0  0  0  0  0  0  0  0  0  0  0
   27.6484  -11.2183  -16.9029 C   0  0  1  0  0  0  0  0  0  0  0  0
   28.8113  -11.9623  -16.9672 O   0  0  0  0  0  0  0  0  0  0  0  0
   26.4445  -11.9568  -17.4128 C   0  0  2  0  0  0  0  0  0  0  0  0
   26.7308  -12.3865  -18.7689 N   0  0  0  0  0  0  0  0  0  0  0  0
   25.2195  -11.1607  -17.4388 C   0  0  0  0  0  0  0  0  0  0  0  0
   25.0465  -10.2566  -18.2697 O   0  0  0  0  0  0  0  0  0  0  0  0
   18.0489   -9.9887  -13.7473 N   0  0  0  0  0  0  0  0  0  0  0  0
   17.4296  -10.0765  -15.0132 C   0  0  0  0  0  0  0  0  0  0  0  0
   16.3215   -9.4698  -15.2399 N   0  0  0  0  0  0  0  0  0  0  0  0
   18.0128  -10.8328  -16.0612 N   0  0  0  0  0  0  0  0  0  0  0  0
   19.2977  -11.4161  -15.8350 C   0  0  0  0  0  0  0  0  0  0  0  0
   20.4467  -10.4864  -16.1727 C   0  0  0  0  0  0  0  0  0  0  0  0
   21.7119  -11.3202  -16.0314 C   0  0  0  0  0  0  0  0  0  0  0  0
   22.9309  -10.6117  -16.5295 C   0  0  2  0  0  0  0  0  0  0  0  0
   24.1328  -11.3586  -16.5167 N   0  0  0  0  0  0  0  0  0  0  0  0
   23.0272   -9.2840  -15.8739 C   0  0  0  0  0  0  0  0  0  0  0  0
   23.4303   -9.2505  -14.6881 O   0  0  0  0  0  0  0  0  0  0  0  0
   15.8638   -9.5566  -16.1556 C   0  0  0  0  0  0  0  0  0  0  0  0
   24.7577   -3.8090  -18.4824 S   0  0  0  0  0  0  0  0  0  0  0  0
   23.8428   -3.0999  -17.0916 C   0  0  0  0  0  0  0  0  0  0  0  0
   23.3533   -4.4216  -15.9271 C   0  0  0  0  0  0  0  0  0  0  0  0
   23.1905   -5.7073  -16.6837 C   0  0  2  0  0  0  0  0  0  0  0  0
   22.8213   -6.8323  -15.7449 N   0  0  0  0  0  0  0  0  0  0  0  0
   22.6982   -8.0539  -16.4858 C   0  0  0  0  0  0  0  0  0  0  0  0
   21.5975   -6.5124  -14.9649 O   0  0  0  0  0  0  0  0  0  0  0  0
   21.5931   -5.8918  -13.8749 O   0  0  0  0  0  0  0  0  0  0  0  0
  2  1  1  1
  3  2  1  0
  4  5  1  6
  4  2  1  0
  6  4  1  0
  7  6  2  0
  8  9  1  0
  9 10  2  0
  9 11  1  0
 11 12  1  0
 13 14  1  0
 13 12  1  0
 15 14  1  1
 15 16  1  0
 16  6  1  0
 17 18  2  0
 17 15  1  0
 19 20  1  0
 20 21  1  0
 22 21  1  0
 23 22  1  1
 23 24  1  0
 24 17  1  0
 25 27  1  0
 25 23  1  0
 26 25  2  0
M  END
$$$$
