TRM.pdb
     RDKit          3D

 27 26  0  0  1  0  0  0  0  0999 V2000
   21.7163  -21.5328  -14.2573 C   0  0  0  0  0  0  0  0  0  0  0  0
   20.8913  -20.8153  -13.1956 C   0  0  1  0  0  0  0  0  0  0  0  0
   19.6167  -21.3471  -13.2465 O   0  0  0  0  0  0  0  0  0  0  0  0
   21.5691  -21.0286  -11.8727 C   0  0  2  0  0  0  0  0  0  0  0  0
   20.7845  -20.3487  -10.8591 N   0  0  0  0  0  0  0  0  0  0  0  0
   22.9352  -20.5140  -11.8093 C   0  0  0  0  0  0  0  0  0  0  0  0
   23.1722  -19.2984  -11.7467 O   0  0  0  0  0  0  0  0  0  0  0  0
   30.2943  -21.9766   -8.7897 N   0  0  0  0  0  0  0  0  0  0  0  0
   30.9366  -21.8218  -10.0376 C   0  0  0  0  0  0  0  0  0  0  0  0
   32.1871  -21.5389  -10.0961 N   0  0  0  0  0  0  0  0  0  0  0  0
   30.2207  -21.9742  -11.2519 N   0  0  0  0  0  0  0  0  0  0  0  0
   28.8453  -22.3554  -11.1783 C   0  0  0  0  0  0  0  0  0  0  0  0
   27.8976  -21.2823  -11.6773 C   0  0  0  0  0  0  0  0  0  0  0  0
   26.4953  -21.8319  -11.4598 C   0  0  0  0  0  0  0  0  0  0  0  0
   25.4272  -20.8925  -11.9212 C   0  0  2  0  0  0  0  0  0  0  0  0
   24.0969  -21.3630  -11.8146 N   0  0  0  0  0  0  0  0  0  0  0  0
   25.7852  -20.3649  -13.2611 C   0  0  0  0  0  0  0  0  0  0  0  0
   25.4548  -21.0456  -14.2598 O   0  0  0  0  0  0  0  0  0  0  0  0
   32.6400  -21.3881  -11.0059 C   0  0  0  0  0  0  0  0  0  0  0  0
   26.1479  -14.0603  -15.0718 S   0  0  0  0  0  0  0  0  0  0  0  0
   27.4074  -14.8523  -16.1018 C   0  0  0  0  0  0  0  0  0  0  0  0
   27.0973  -16.6517  -16.1947 C   0  0  0  0  0  0  0  0  0  0  0  0
   27.0233  -17.2097  -14.8035 C   0  0  2  0  0  0  0  0  0  0  0  0
   26.6234  -18.6665  -14.8368 N   0  0  0  0  0  0  0  0  0  0  0  0
   26.4712  -19.1524  -13.4963 C   0  0  0  0  0  0  0  0  0  0  0  0
   27.5819  -19.4773  -15.6321 O   0  0  0  0  0  0  0  0  0  0  0  0
   28.5987  -20.0391  -15.1592 O   0  0  0  0  0  0  0  0  0  0  0  0
  2  1  1  6
  3  2  1  0
  4  5  1  1
  4  2  1  0
  6  4  1  0
  7  6  2  0
  8  9  1  0
  9 10  2  0
  9 11  1  0
 11 12  1  0
 13 14  1  0
 13 12  1  0
 15 14  1  6
 15 16  1  0
 16  6  1  0
 17 18  2  0
 17 15  1  0
 19 20  1  0
 20 21  1  0
 22 21  1  0
 23 22  1  6
 23 24  1  0
 24 17  1  0
 25 27  1  0
 25 23  1  0
 26 25  2  0
M  END
$$$$
