TRM.pdb
     RDKit          3D

 27 26  0  0  1  0  0  0  0  0999 V2000
   27.5948  -27.9753  -19.6559 C   0  0  0  0  0  0  0  0  0  0  0  0
   27.5496  -27.1359  -18.3847 C   0  0  1  0  0  0  0  0  0  0  0  0
   26.2485  -27.1754  -17.9204 O   0  0  0  0  0  0  0  0  0  0  0  0
   28.5404  -27.7201  -17.4192 C   0  0  2  0  0  0  0  0  0  0  0  0
   28.4974  -26.9250  -16.2062 N   0  0  0  0  0  0  0  0  0  0  0  0
   29.9179  -27.7296  -17.9064 C   0  0  0  0  0  0  0  0  0  0  0  0
   30.6175  -26.7057  -17.9049 O   0  0  0  0  0  0  0  0  0  0  0  0
   33.3801  -34.7721  -16.1630 N   0  0  0  0  0  0  0  0  0  0  0  0
   34.1094  -33.7066  -16.7344 C   0  0  0  0  0  0  0  0  0  0  0  0
   35.3282  -33.8737  -17.1004 N   0  0  0  0  0  0  0  0  0  0  0  0
   33.5175  -32.4314  -16.9179 N   0  0  0  0  0  0  0  0  0  0  0  0
   34.3072  -31.4038  -17.5205 C   0  0  0  0  0  0  0  0  0  0  0  0
   33.5949  -30.0678  -17.5990 C   0  0  0  0  0  0  0  0  0  0  0  0
   32.6553  -30.1667  -18.7920 C   0  0  0  0  0  0  0  0  0  0  0  0
   31.8527  -28.9225  -19.0016 C   0  0  2  0  0  0  0  0  0  0  0  0
   30.5631  -28.9091  -18.4190 N   0  0  0  0  0  0  0  0  0  0  0  0
   31.8792  -28.5599  -20.4402 C   0  0  0  0  0  0  0  0  0  0  0  0
   30.9235  -28.9449  -21.1532 O   0  0  0  0  0  0  0  0  0  0  0  0
   35.8492  -33.0986  -17.5288 C   0  0  0  0  0  0  0  0  0  0  0  0
   29.5854  -24.4398  -25.7537 S   0  0  0  0  0  0  0  0  0  0  0  0
   29.7403  -25.1656  -24.1034 C   0  0  0  0  0  0  0  0  0  0  0  0
   31.3250  -26.0668  -23.9637 C   0  0  0  0  0  0  0  0  0  0  0  0
   31.4541  -26.6209  -22.5750 C   0  0  1  0  0  0  0  0  0  0  0  0
   32.7450  -27.3926  -22.4296 N   0  0  0  0  0  0  0  0  0  0  0  0
   32.9012  -27.8130  -21.0675 C   0  0  0  0  0  0  0  0  0  0  0  0
   33.9077  -26.6084  -22.9214 O   0  0  0  0  0  0  0  0  0  0  0  0
   34.0317  -26.1844  -24.0953 O   0  0  0  0  0  0  0  0  0  0  0  0
  2  1  1  6
  3  2  1  0
  4  5  1  1
  4  2  1  0
  6  4  1  0
  7  6  2  0
  8  9  1  0
  9 10  2  0
  9 11  1  0
 11 12  1  0
 13 14  1  0
 13 12  1  0
 15 14  1  6
 15 16  1  0
 16  6  1  0
 17 18  2  0
 17 15  1  0
 19 20  1  0
 20 21  1  0
 22 21  1  0
 23 22  1  6
 23 24  1  0
 24 17  1  0
 25 27  1  0
 25 23  1  0
 26 25  2  0
M  END
$$$$
