TRM.pdb
     RDKit          3D

 27 26  0  0  1  0  0  0  0  0999 V2000
   10.8758   -8.7786  -10.8188 C   0  0  0  0  0  0  0  0  0  0  0  0
   10.8159  -10.2376  -10.3825 C   0  0  1  0  0  0  0  0  0  0  0  0
    9.5490  -10.6986  -10.6862 O   0  0  0  0  0  0  0  0  0  0  0  0
   11.9038  -10.9742  -11.1098 C   0  0  2  0  0  0  0  0  0  0  0  0
   11.9165  -12.3402  -10.6206 N   0  0  0  0  0  0  0  0  0  0  0  0
   13.2391  -10.4121  -10.9193 C   0  0  0  0  0  0  0  0  0  0  0  0
   13.9048  -10.6434   -9.8990 O   0  0  0  0  0  0  0  0  0  0  0  0
   18.5074  -11.3997  -16.9224 N   0  0  0  0  0  0  0  0  0  0  0  0
   19.1073  -11.4109  -15.6443 C   0  0  0  0  0  0  0  0  0  0  0  0
   20.2579  -11.9521  -15.4694 N   0  0  0  0  0  0  0  0  0  0  0  0
   18.4579  -10.8277  -14.5270 N   0  0  0  0  0  0  0  0  0  0  0  0
   17.1511  -10.2817  -14.7182 C   0  0  0  0  0  0  0  0  0  0  0  0
   16.2507  -10.4422  -13.5090 C   0  0  0  0  0  0  0  0  0  0  0  0
   16.0419   -9.0396  -12.9568 C   0  0  0  0  0  0  0  0  0  0  0  0
   15.1789   -9.0206  -11.7357 C   0  0  2  0  0  0  0  0  0  0  0  0
   13.8785   -9.5584  -11.8851 N   0  0  0  0  0  0  0  0  0  0  0  0
   15.2162   -7.6659  -11.1314 C   0  0  0  0  0  0  0  0  0  0  0  0
   14.6779   -6.7312  -11.7690 O   0  0  0  0  0  0  0  0  0  0  0  0
   20.6486  -12.0392  -14.5231 C   0  0  0  0  0  0  0  0  0  0  0  0
   12.9735   -4.6208   -5.7868 S   0  0  0  0  0  0  0  0  0  0  0  0
   13.3211   -6.3544   -6.1714 C   0  0  0  0  0  0  0  0  0  0  0  0
   13.9105   -6.5057   -7.8955 C   0  0  0  0  0  0  0  0  0  0  0  0
   15.3098   -5.9707   -7.9848 C   0  0  2  0  0  0  0  0  0  0  0  0
   15.7976   -5.9971   -9.4147 N   0  0  0  0  0  0  0  0  0  0  0  0
   15.8135   -7.3497   -9.8907 C   0  0  0  0  0  0  0  0  0  0  0  0
   17.1174   -5.3281   -9.5532 O   0  0  0  0  0  0  0  0  0  0  0  0
   18.1754   -5.9101   -9.8927 O   0  0  0  0  0  0  0  0  0  0  0  0
  2  1  1  6
  3  2  1  0
  4  5  1  1
  4  2  1  0
  6  4  1  0
  7  6  2  0
  8  9  1  0
  9 10  2  0
  9 11  1  0
 11 12  1  0
 13 14  1  0
 13 12  1  0
 15 14  1  6
 15 16  1  0
 16  6  1  0
 17 18  2  0
 17 15  1  0
 19 20  1  0
 20 21  1  0
 22 21  1  0
 23 22  1  6
 23 24  1  0
 24 17  1  0
 25 27  1  0
 25 23  1  0
 26 25  2  0
M  END
$$$$
