TRM.pdb
     RDKit          3D

 27 26  0  0  1  0  0  0  0  0999 V2000
   18.2409  -19.3930  -12.8026 C   0  0  0  0  0  0  0  0  0  0  0  0
   18.8761  -18.9544  -11.4885 C   0  0  1  0  0  0  0  0  0  0  0  0
   17.8998  -19.0519  -10.5153 O   0  0  0  0  0  0  0  0  0  0  0  0
   20.0564  -19.8473  -11.2342 C   0  0  2  0  0  0  0  0  0  0  0  0
   20.6271  -19.4721   -9.9540 N   0  0  0  0  0  0  0  0  0  0  0  0
   21.1080  -19.7529  -12.2443 C   0  0  0  0  0  0  0  0  0  0  0  0
   21.8349  -18.7527  -12.3380 O   0  0  0  0  0  0  0  0  0  0  0  0
   26.1058  -21.1614  -17.2090 N   0  0  0  0  0  0  0  0  0  0  0  0
   26.7036  -22.2890  -16.6049 C   0  0  0  0  0  0  0  0  0  0  0  0
   27.9812  -22.3903  -16.5355 N   0  0  0  0  0  0  0  0  0  0  0  0
   25.9124  -23.3328  -16.0621 N   0  0  0  0  0  0  0  0  0  0  0  0
   24.4908  -23.1958  -16.1143 C   0  0  0  0  0  0  0  0  0  0  0  0
   24.0085  -21.8037  -15.7563 C   0  0  0  0  0  0  0  0  0  0  0  0
   22.9476  -21.9945  -14.6821 C   0  0  0  0  0  0  0  0  0  0  0  0
   22.3459  -20.7034  -14.2267 C   0  0  2  0  0  0  0  0  0  0  0  0
   21.3802  -20.7967  -13.1966 N   0  0  0  0  0  0  0  0  0  0  0  0
   21.9061  -19.9243  -15.4105 C   0  0  0  0  0  0  0  0  0  0  0  0
   20.7998  -20.2183  -15.9201 O   0  0  0  0  0  0  0  0  0  0  0  0
   28.4099  -23.1899  -16.0532 C   0  0  0  0  0  0  0  0  0  0  0  0
   25.6365  -16.1951  -19.0817 S   0  0  0  0  0  0  0  0  0  0  0  0
   24.1662  -16.2623  -20.1343 C   0  0  0  0  0  0  0  0  0  0  0  0
   22.7500  -16.9258  -19.1875 C   0  0  0  0  0  0  0  0  0  0  0  0
   23.2662  -17.7126  -18.0184 C   0  0  2  0  0  0  0  0  0  0  0  0
   22.1216  -18.2093  -17.1661 N   0  0  0  0  0  0  0  0  0  0  0  0
   22.6408  -18.8756  -16.0074 C   0  0  0  0  0  0  0  0  0  0  0  0
   21.1912  -19.0652  -17.9474 O   0  0  0  0  0  0  0  0  0  0  0  0
   21.5041  -20.1638  -18.4654 O   0  0  0  0  0  0  0  0  0  0  0  0
  2  1  1  6
  3  2  1  0
  4  5  1  1
  4  2  1  0
  6  4  1  0
  7  6  2  0
  8  9  1  0
  9 10  2  0
  9 11  1  0
 11 12  1  0
 13 14  1  0
 13 12  1  0
 15 14  1  6
 15 16  1  0
 16  6  1  0
 17 18  2  0
 17 15  1  0
 19 20  1  0
 20 21  1  0
 22 21  1  0
 23 22  1  1
 23 24  1  0
 24 17  1  0
 25 27  1  0
 25 23  1  0
 26 25  2  0
M  END
$$$$
