TRM.pdb
     RDKit          3D

 27 26  0  0  1  0  0  0  0  0999 V2000
   28.0624  -21.5229  -14.1183 C   0  0  0  0  0  0  0  0  0  0  0  0
   28.3667  -20.1343  -14.6675 C   0  0  1  0  0  0  0  0  0  0  0  0
   29.1040  -20.3094  -15.8232 O   0  0  0  0  0  0  0  0  0  0  0  0
   27.0553  -19.4411  -14.9016 C   0  0  2  0  0  0  0  0  0  0  0  0
   27.3375  -18.1554  -15.5122 N   0  0  0  0  0  0  0  0  0  0  0  0
   26.2770  -19.2052  -13.6877 C   0  0  0  0  0  0  0  0  0  0  0  0
   26.6316  -18.3767  -12.8360 O   0  0  0  0  0  0  0  0  0  0  0  0
   18.3458  -21.9352  -11.3536 N   0  0  0  0  0  0  0  0  0  0  0  0
   19.5082  -22.4112  -11.9987 C   0  0  0  0  0  0  0  0  0  0  0  0
   19.4389  -23.3867  -12.8299 N   0  0  0  0  0  0  0  0  0  0  0  0
   20.7752  -21.8269  -11.7464 N   0  0  0  0  0  0  0  0  0  0  0  0
   20.8141  -20.5827  -11.0443 C   0  0  0  0  0  0  0  0  0  0  0  0
   22.2185  -20.0432  -10.8567 C   0  0  0  0  0  0  0  0  0  0  0  0
   22.9165  -20.2252  -12.1966 C   0  0  0  0  0  0  0  0  0  0  0  0
   24.3434  -19.7784  -12.1716 C   0  0  2  0  0  0  0  0  0  0  0  0
   25.0558  -19.9046  -13.3878 N   0  0  0  0  0  0  0  0  0  0  0  0
   25.0236  -20.3791  -10.9976 C   0  0  0  0  0  0  0  0  0  0  0  0
   25.4098  -21.5670  -11.0960 O   0  0  0  0  0  0  0  0  0  0  0  0
   20.2947  -23.7633  -13.2559 C   0  0  0  0  0  0  0  0  0  0  0  0
   29.0493  -19.9424   -4.2972 S   0  0  0  0  0  0  0  0  0  0  0  0
   28.3090  -19.0799   -5.7052 C   0  0  0  0  0  0  0  0  0  0  0  0
   27.2626  -20.2326   -6.6638 C   0  0  0  0  0  0  0  0  0  0  0  0
   26.7130  -19.5158   -7.8623 C   0  0  1  0  0  0  0  0  0  0  0  0
   25.8239  -20.4342   -8.6681 N   0  0  0  0  0  0  0  0  0  0  0  0
   25.2686  -19.7129   -9.7761 C   0  0  0  0  0  0  0  0  0  0  0  0
   24.7811  -21.0671   -7.8192 O   0  0  0  0  0  0  0  0  0  0  0  0
   23.5612  -20.7783   -7.8608 O   0  0  0  0  0  0  0  0  0  0  0  0
  2  1  1  6
  3  2  1  0
  4  5  1  1
  4  2  1  0
  6  4  1  0
  7  6  2  0
  8  9  1  0
  9 10  2  0
  9 11  1  0
 11 12  1  0
 13 14  1  0
 13 12  1  0
 15 14  1  6
 15 16  1  0
 16  6  1  0
 17 18  2  0
 17 15  1  0
 19 20  1  0
 20 21  1  0
 22 21  1  0
 23 22  1  6
 23 24  1  0
 24 17  1  0
 25 27  1  0
 25 23  1  0
 26 25  2  0
M  END
$$$$
