CFQ.pdb
     RDKit          3D

 27 27  0  0  1  0  0  0  0  0999 V2000
    8.6037  -17.2015   19.1963 N   0  0  0  0  0  0  0  0  0  0  0  0
    8.0166  -17.4276   20.4762 C   0  0  1  0  0  0  0  0  0  0  0  0
    8.5441  -18.7774   20.9808 C   0  0  0  0  0  0  0  0  0  0  0  0
    7.7957  -20.1189   20.0279 S   0  0  0  0  0  0  0  0  0  0  0  0
    8.4944  -16.4132   21.4447 C   0  0  0  0  0  0  0  0  0  0  0  0
    9.5759  -15.7762   21.2779 O   0  0  0  0  0  0  0  0  0  0  0  0
    7.7196  -16.1483   22.5898 N   0  0  0  0  0  0  0  0  0  0  0  0
    8.0090  -15.1106   23.5562 C   0  0  1  0  0  0  0  0  0  0  0  0
    6.7023  -14.7918   24.2485 C   0  0  0  0  0  0  0  0  0  0  0  0
    6.8073  -13.7562   25.2801 C   0  0  0  0  0  0  0  0  0  0  0  0
    7.2526  -12.4848   24.9386 C   0  0  0  0  0  0  0  0  0  0  0  0
    7.3770  -11.4620   25.8387 C   0  0  0  0  0  0  0  0  0  0  0  0
    7.0457  -11.6925   27.1599 C   0  0  0  0  0  0  0  0  0  0  0  0
    6.6034  -12.9329   27.5328 C   0  0  0  0  0  0  0  0  0  0  0  0
    6.4859  -13.9487   26.6078 C   0  0  0  0  0  0  0  0  0  0  0  0
    9.0732  -15.5438   24.4971 C   0  0  0  0  0  0  0  0  0  0  0  0
    9.5702  -14.7163   25.3035 O   0  0  0  0  0  0  0  0  0  0  0  0
   14.6442  -15.8586   24.3086 N   0  0  0  0  0  0  0  0  0  0  0  0
   13.7207  -16.1327   23.2863 C   0  0  0  0  0  0  0  0  0  0  0  0
   13.9347  -15.7819   22.1161 O   0  0  0  0  0  0  0  0  0  0  0  0
   12.4664  -16.8561   23.6159 C   0  0  0  0  0  0  0  0  0  0  0  0
   11.9379  -16.4417   24.9613 C   0  0  0  0  0  0  0  0  0  0  0  0
   10.7518  -17.2486   25.3477 C   0  0  2  0  0  0  0  0  0  0  0  0
    9.5751  -16.8630   24.5434 N   0  0  0  0  0  0  0  0  0  0  0  0
   10.3817  -17.1087   26.7630 C   0  0  0  0  0  0  0  0  0  0  0  0
   11.2041  -17.4364   27.8215 O   0  0  0  0  0  0  0  0  0  0  0  0
    9.2422  -16.6645   27.0575 O   0  0  0  0  0  0  0  0  0  0  0  0
  2  5  1  0
  2  1  1  6
  3  2  1  0
  4  3  1  0
  5  6  2  0
  7  8  1  0
  7  5  1  0
  9 10  1  0
  8  9  1  1
 10 15  2  0
 11 12  2  0
 11 10  1  0
 12 13  1  0
 13 14  2  0
 15 14  1  0
 16  8  1  0
 16 17  2  0
 18 19  1  0
 19 21  1  0
 20 19  2  0
 21 22  1  0
 23 22  1  6
 23 24  1  0
 23 25  1  0
 24 16  1  0
 25 27  2  0
 25 26  1  0
M  END
$$$$
