CFQ.pdb
     RDKit          3D

 27 27  0  0  1  0  0  0  0  0999 V2000
    9.8509  -16.0842   18.9630 N   0  0  0  0  0  0  0  0  0  0  0  0
    8.8105  -16.3744   19.8942 C   0  0  1  0  0  0  0  0  0  0  0  0
    8.8045  -17.8947   20.1024 C   0  0  0  0  0  0  0  0  0  0  0  0
    7.5354  -18.3394   21.3104 S   0  0  0  0  0  0  0  0  0  0  0  0
    9.1258  -15.7814   21.2150 C   0  0  0  0  0  0  0  0  0  0  0  0
   10.2926  -15.8068   21.7060 O   0  0  0  0  0  0  0  0  0  0  0  0
    8.0929  -15.1687   21.9493 N   0  0  0  0  0  0  0  0  0  0  0  0
    8.2445  -14.6180   23.2790 C   0  0  1  0  0  0  0  0  0  0  0  0
    6.9821  -13.8359   23.5667 C   0  0  0  0  0  0  0  0  0  0  0  0
    6.9218  -13.2699   24.9172 C   0  0  0  0  0  0  0  0  0  0  0  0
    5.9553  -13.7169   25.8102 C   0  0  0  0  0  0  0  0  0  0  0  0
    5.8321  -13.2435   27.0879 C   0  0  0  0  0  0  0  0  0  0  0  0
    6.7087  -12.2697   27.5255 C   0  0  0  0  0  0  0  0  0  0  0  0
    7.6739  -11.8054   26.6732 C   0  0  0  0  0  0  0  0  0  0  0  0
    7.7789  -12.2976   25.3895 C   0  0  0  0  0  0  0  0  0  0  0  0
    8.5001  -15.6923   24.2721 C   0  0  0  0  0  0  0  0  0  0  0  0
    7.6451  -16.5977   24.4485 O   0  0  0  0  0  0  0  0  0  0  0  0
   13.4162  -18.8572   24.7008 N   0  0  0  0  0  0  0  0  0  0  0  0
   13.0796  -17.6718   24.0265 C   0  0  0  0  0  0  0  0  0  0  0  0
   13.7699  -17.2487   23.0871 O   0  0  0  0  0  0  0  0  0  0  0  0
   11.8745  -16.9138   24.4486 C   0  0  0  0  0  0  0  0  0  0  0  0
   11.2069  -17.5671   25.6270 C   0  0  0  0  0  0  0  0  0  0  0  0
    9.9515  -16.8631   25.9956 C   0  0  2  0  0  0  0  0  0  0  0  0
    9.6758  -15.7617   25.0515 N   0  0  0  0  0  0  0  0  0  0  0  0
    9.9758  -16.2874   27.3475 C   0  0  0  0  0  0  0  0  0  0  0  0
    9.7789  -14.9514   27.6312 O   0  0  0  0  0  0  0  0  0  0  0  0
   10.1909  -17.0416   28.3310 O   0  0  0  0  0  0  0  0  0  0  0  0
  2  5  1  0
  2  1  1  6
  3  2  1  0
  4  3  1  0
  5  6  2  0
  7  8  1  0
  7  5  1  0
  9 10  1  0
  8  9  1  1
 10 15  2  0
 11 12  2  0
 11 10  1  0
 12 13  1  0
 13 14  2  0
 15 14  1  0
 16  8  1  0
 16 17  2  0
 18 19  1  0
 19 21  1  0
 20 19  2  0
 21 22  1  0
 23 22  1  6
 23 24  1  0
 23 25  1  0
 24 16  1  0
 25 27  2  0
 25 26  1  0
M  END
$$$$
