CFQ.pdb
     RDKit          3D

 27 27  0  0  1  0  0  0  0  0999 V2000
    8.4705  -13.0003   18.3102 N   0  0  0  0  0  0  0  0  0  0  0  0
    7.7172  -13.8897   19.1320 C   0  0  1  0  0  0  0  0  0  0  0  0
    7.8826  -15.2964   18.5414 C   0  0  0  0  0  0  0  0  0  0  0  0
    6.9876  -16.4933   19.5582 S   0  0  0  0  0  0  0  0  0  0  0  0
    8.2999  -13.9460   20.4931 C   0  0  0  0  0  0  0  0  0  0  0  0
    9.5486  -14.0134   20.6915 O   0  0  0  0  0  0  0  0  0  0  0  0
    7.4357  -13.9238   21.6041 N   0  0  0  0  0  0  0  0  0  0  0  0
    7.8689  -13.8107   22.9804 C   0  0  1  0  0  0  0  0  0  0  0  0
    6.7979  -13.0254   23.7047 C   0  0  0  0  0  0  0  0  0  0  0  0
    7.1178  -12.7232   25.1026 C   0  0  0  0  0  0  0  0  0  0  0  0
    6.1167  -12.7713   26.0654 C   0  0  0  0  0  0  0  0  0  0  0  0
    6.3311  -12.5061   27.3904 C   0  0  0  0  0  0  0  0  0  0  0  0
    7.6054  -12.1716   27.8057 C   0  0  0  0  0  0  0  0  0  0  0  0
    8.6166  -12.1144   26.8850 C   0  0  0  0  0  0  0  0  0  0  0  0
    8.3767  -12.3859   25.5546 C   0  0  0  0  0  0  0  0  0  0  0  0
    8.1063  -15.1512   23.5737 C   0  0  0  0  0  0  0  0  0  0  0  0
    7.2938  -16.0858   23.3535 O   0  0  0  0  0  0  0  0  0  0  0  0
   12.8735  -17.8231   22.0032 N   0  0  0  0  0  0  0  0  0  0  0  0
   12.4812  -18.8026   22.9304 C   0  0  0  0  0  0  0  0  0  0  0  0
   13.0343  -19.9121   22.9658 O   0  0  0  0  0  0  0  0  0  0  0  0
   11.3838  -18.5010   23.8843 C   0  0  0  0  0  0  0  0  0  0  0  0
   10.8441  -17.1139   23.6706 C   0  0  0  0  0  0  0  0  0  0  0  0
    9.7205  -16.8225   24.5979 C   0  0  2  0  0  0  0  0  0  0  0  0
    9.2181  -15.4494   24.3919 N   0  0  0  0  0  0  0  0  0  0  0  0
   10.0814  -16.9502   26.0167 C   0  0  0  0  0  0  0  0  0  0  0  0
   10.0504  -18.1327   26.7272 O   0  0  0  0  0  0  0  0  0  0  0  0
   10.4449  -15.9265   26.6512 O   0  0  0  0  0  0  0  0  0  0  0  0
  2  5  1  0
  2  1  1  6
  3  2  1  0
  4  3  1  0
  5  6  2  0
  7  8  1  0
  7  5  1  0
  9 10  1  0
  8  9  1  1
 10 15  2  0
 11 12  2  0
 11 10  1  0
 12 13  1  0
 13 14  2  0
 15 14  1  0
 16  8  1  0
 16 17  2  0
 18 19  1  0
 19 21  1  0
 20 19  2  0
 21 22  1  0
 23 22  1  6
 23 24  1  0
 23 25  1  0
 24 16  1  0
 25 27  2  0
 25 26  1  0
M  END
$$$$
