CFQ.pdb
     RDKit          3D

 27 27  0  0  1  0  0  0  0  0999 V2000
   10.0990  -17.3363   20.2103 N   0  0  0  0  0  0  0  0  0  0  0  0
    8.9568  -17.2476   21.0596 C   0  0  1  0  0  0  0  0  0  0  0  0
    8.7603  -18.6306   21.6948 C   0  0  0  0  0  0  0  0  0  0  0  0
   10.0202  -18.9038   22.9620 S   0  0  0  0  0  0  0  0  0  0  0  0
    9.2238  -16.3162   22.1807 C   0  0  0  0  0  0  0  0  0  0  0  0
   10.3980  -15.9833   22.5177 O   0  0  0  0  0  0  0  0  0  0  0  0
    8.1348  -15.7830   22.8957 N   0  0  0  0  0  0  0  0  0  0  0  0
    8.2459  -14.7905   23.9431 C   0  0  1  0  0  0  0  0  0  0  0  0
    6.8772  -14.1623   24.0866 C   0  0  0  0  0  0  0  0  0  0  0  0
    6.7709  -13.2013   25.1879 C   0  0  0  0  0  0  0  0  0  0  0  0
    7.4913  -12.0138   25.1393 C   0  0  0  0  0  0  0  0  0  0  0  0
    7.4467  -11.0636   26.1227 C   0  0  0  0  0  0  0  0  0  0  0  0
    6.6472  -11.2845   27.2275 C   0  0  0  0  0  0  0  0  0  0  0  0
    5.9233  -12.4432   27.3095 C   0  0  0  0  0  0  0  0  0  0  0  0
    5.9840  -13.3866   26.3058 C   0  0  0  0  0  0  0  0  0  0  0  0
    8.7383  -15.4021   25.2036 C   0  0  0  0  0  0  0  0  0  0  0  0
    9.3344  -14.6912   26.0529 O   0  0  0  0  0  0  0  0  0  0  0  0
    6.3129  -20.5921   27.6444 N   0  0  0  0  0  0  0  0  0  0  0  0
    7.3992  -20.8244   26.7846 C   0  0  0  0  0  0  0  0  0  0  0  0
    7.6150  -21.9505   26.3118 O   0  0  0  0  0  0  0  0  0  0  0  0
    8.3038  -19.6991   26.4375 C   0  0  0  0  0  0  0  0  0  0  0  0
    7.9063  -18.4405   27.1580 C   0  0  0  0  0  0  0  0  0  0  0  0
    8.8424  -17.3269   26.8566 C   0  0  2  0  0  0  0  0  0  0  0  0
    8.5741  -16.7696   25.5158 N   0  0  0  0  0  0  0  0  0  0  0  0
   10.2573  -17.7223   26.8932 C   0  0  0  0  0  0  0  0  0  0  0  0
   10.9221  -18.1414   28.0274 O   0  0  0  0  0  0  0  0  0  0  0  0
   10.9322  -17.6831   25.8323 O   0  0  0  0  0  0  0  0  0  0  0  0
  2  5  1  0
  2  1  1  6
  3  2  1  0
  4  3  1  0
  5  6  2  0
  7  8  1  0
  7  5  1  0
  9 10  1  0
  8  9  1  1
 10 15  2  0
 11 12  2  0
 11 10  1  0
 12 13  1  0
 13 14  2  0
 15 14  1  0
 16  8  1  0
 16 17  2  0
 18 19  1  0
 19 21  1  0
 20 19  2  0
 21 22  1  0
 23 22  1  6
 23 24  1  0
 23 25  1  0
 24 16  1  0
 25 27  2  0
 25 26  1  0
M  END
$$$$
