CFQ.pdb
     RDKit          3D

 27 27  0  0  1  0  0  0  0  0999 V2000
    9.4334  -16.3059   18.8028 N   0  0  0  0  0  0  0  0  0  0  0  0
    8.5495  -16.6449   19.8694 C   0  0  1  0  0  0  0  0  0  0  0  0
    8.6746  -18.1579   20.0934 C   0  0  0  0  0  0  0  0  0  0  0  0
    7.4620  -18.6943   21.3220 S   0  0  0  0  0  0  0  0  0  0  0  0
    8.9984  -16.0060   21.1287 C   0  0  0  0  0  0  0  0  0  0  0  0
   10.2222  -15.9093   21.4386 O   0  0  0  0  0  0  0  0  0  0  0  0
    8.0311  -15.4886   22.0109 N   0  0  0  0  0  0  0  0  0  0  0  0
    8.3314  -14.8009   23.2484 C   0  0  1  0  0  0  0  0  0  0  0  0
    7.1110  -13.9738   23.5873 C   0  0  0  0  0  0  0  0  0  0  0  0
    7.1802  -13.3092   24.8916 C   0  0  0  0  0  0  0  0  0  0  0  0
    6.4052  -13.7767   25.9462 C   0  0  0  0  0  0  0  0  0  0  0  0
    6.4125  -13.2161   27.1942 C   0  0  0  0  0  0  0  0  0  0  0  0
    7.2291  -12.1273   27.4313 C   0  0  0  0  0  0  0  0  0  0  0  0
    8.0065  -11.6395   26.4159 C   0  0  0  0  0  0  0  0  0  0  0  0
    7.9826  -12.2211   25.1659 C   0  0  0  0  0  0  0  0  0  0  0  0
    8.6929  -15.7661   24.3175 C   0  0  0  0  0  0  0  0  0  0  0  0
    7.9464  -16.7515   24.5495 O   0  0  0  0  0  0  0  0  0  0  0  0
   14.0568  -18.0994   24.4057 N   0  0  0  0  0  0  0  0  0  0  0  0
   13.6503  -18.6515   25.6317 C   0  0  0  0  0  0  0  0  0  0  0  0
   14.2621  -19.6014   26.1430 O   0  0  0  0  0  0  0  0  0  0  0  0
   12.4659  -18.0851   26.3257 C   0  0  0  0  0  0  0  0  0  0  0  0
   11.8605  -16.9582   25.5352 C   0  0  0  0  0  0  0  0  0  0  0  0
   10.4280  -16.7659   25.8789 C   0  0  2  0  0  0  0  0  0  0  0  0
    9.8546  -15.6425   25.1111 N   0  0  0  0  0  0  0  0  0  0  0  0
   10.1976  -16.4876   27.3034 C   0  0  0  0  0  0  0  0  0  0  0  0
   10.2644  -17.4344   28.3050 O   0  0  0  0  0  0  0  0  0  0  0  0
    9.9165  -15.3148   27.6610 O   0  0  0  0  0  0  0  0  0  0  0  0
  2  5  1  0
  2  1  1  6
  3  2  1  0
  4  3  1  0
  5  6  2  0
  7  8  1  0
  7  5  1  0
  9 10  1  0
  8  9  1  1
 10 15  2  0
 11 12  2  0
 11 10  1  0
 12 13  1  0
 13 14  2  0
 15 14  1  0
 16  8  1  0
 16 17  2  0
 18 19  1  0
 19 21  1  0
 20 19  2  0
 21 22  1  0
 23 22  1  1
 23 24  1  0
 23 25  1  0
 24 16  1  0
 25 27  2  0
 25 26  1  0
M  END
$$$$
