RGM.pdb
     RDKit          3D

 24 23  0  0  1  0  0  0  0  0999 V2000
    9.4853  -20.2375   15.2179 N   0  0  0  0  0  0  0  0  0  0  0  0
    8.3620  -19.9819   14.3551 C   0  0  0  0  0  0  0  0  0  0  0  0
    8.2697  -20.6461   13.2756 N   0  0  0  0  0  0  0  0  0  0  0  0
    7.3905  -19.0127   14.7024 N   0  0  0  0  0  0  0  0  0  0  0  0
    7.5401  -18.1518   15.8335 C   0  0  0  0  0  0  0  0  0  0  0  0
    7.2016  -18.8315   17.1620 C   0  0  0  0  0  0  0  0  0  0  0  0
    6.7791  -17.7433   18.0932 C   0  0  0  0  0  0  0  0  0  0  0  0
    7.9349  -17.1352   18.8130 C   0  0  2  0  0  0  0  0  0  0  0  0
    9.1389  -17.9438   18.6370 N   0  0  0  0  0  0  0  0  0  0  0  0
    7.7233  -16.9133   20.2598 C   0  0  0  0  0  0  0  0  0  0  0  0
    6.7441  -16.2615   20.7068 O   0  0  0  0  0  0  0  0  0  0  0  0
    7.4722  -20.5550   12.6149 N   0  0  0  0  0  0  0  0  0  0  0  0
    8.6479  -17.4453   21.2319 C   0  0  0  0  0  0  0  0  0  0  0  0
    8.3299  -17.2847   22.6206 C   0  0  0  0  0  0  0  0  0  0  0  0
    8.9178  -16.0673   23.2148 O   0  0  0  0  0  0  0  0  0  0  0  0
    9.2706  -15.0788   22.5188 C   0  0  0  0  0  0  0  0  0  0  0  0
    6.3908  -10.8511   26.5925 S   0  0  0  0  0  0  0  0  0  0  0  0
    7.2241  -12.1305   25.6325 C   0  0  0  0  0  0  0  0  0  0  0  0
    6.3874  -13.7362   25.9565 C   0  0  0  0  0  0  0  0  0  0  0  0
    7.0499  -14.8197   25.1722 C   0  0  1  0  0  0  0  0  0  0  0  0
    8.5164  -14.8914   25.4194 N   0  0  0  0  0  0  0  0  0  0  0  0
    9.0997  -15.9883   24.6126 C   0  0  0  0  0  0  0  0  0  0  0  0
    8.8526  -15.1924   26.8180 O   0  0  0  0  0  0  0  0  0  0  0  0
    8.6645  -16.3312   27.2855 O   0  0  0  0  0  0  0  0  0  0  0  0
  2  1  1  0
  2  3  2  0
  4  2  1  0
  5  4  1  0
  6  7  1  0
  6  5  1  0
  7  8  1  0
  8  9  1  1
 10  8  1  0
 10 12  1  0
 11 10  2  0
 13 12  1  0
 14 13  1  0
 15 14  2  0
 17 16  1  0
 18 17  1  0
 19 18  1  0
 20 21  1  0
 20 19  1  6
 21 14  1  0
 22 20  1  0
 23 22  2  0
 24 22  1  0
M  END
$$$$
