RGM.pdb
     RDKit          3D

 24 23  0  0  1  0  0  0  0  0999 V2000
    1.2526  -21.9492   19.1171 N   0  0  0  0  0  0  0  0  0  0  0  0
    0.5066  -20.9973   19.8974 C   0  0  0  0  0  0  0  0  0  0  0  0
   -0.7417  -20.8914   19.6838 N   0  0  0  0  0  0  0  0  0  0  0  0
    1.1515  -20.2000   20.8732 N   0  0  0  0  0  0  0  0  0  0  0  0
    2.5384  -19.8641   20.7909 C   0  0  0  0  0  0  0  0  0  0  0  0
    2.8101  -18.6092   19.9585 C   0  0  0  0  0  0  0  0  0  0  0  0
    3.7094  -17.7473   20.7822 C   0  0  0  0  0  0  0  0  0  0  0  0
    4.8129  -18.5250   21.4155 C   0  0  2  0  0  0  0  0  0  0  0  0
    4.5836  -18.6759   22.8505 N   0  0  0  0  0  0  0  0  0  0  0  0
    6.1675  -17.9680   21.2106 C   0  0  0  0  0  0  0  0  0  0  0  0
    6.8649  -18.2432   20.2000 O   0  0  0  0  0  0  0  0  0  0  0  0
   -1.3588  -20.2426   20.2120 N   0  0  0  0  0  0  0  0  0  0  0  0
    6.7519  -17.0712   22.1786 C   0  0  0  0  0  0  0  0  0  0  0  0
    7.9168  -16.3304   21.7917 C   0  0  0  0  0  0  0  0  0  0  0  0
    8.4424  -15.4684   22.8693 O   0  0  0  0  0  0  0  0  0  0  0  0
    9.4163  -14.6889   22.6960 C   0  0  0  0  0  0  0  0  0  0  0  0
    7.5519  -11.0646   27.5584 S   0  0  0  0  0  0  0  0  0  0  0  0
    6.3821  -11.9530   26.5119 C   0  0  0  0  0  0  0  0  0  0  0  0
    7.3291  -13.0885   25.4177 C   0  0  0  0  0  0  0  0  0  0  0  0
    7.8591  -14.2343   26.2141 C   0  0  2  0  0  0  0  0  0  0  0  0
    8.6132  -15.2110   25.3810 N   0  0  0  0  0  0  0  0  0  0  0  0
    7.8458  -15.5042   24.1483 C   0  0  0  0  0  0  0  0  0  0  0  0
    8.8181  -16.5038   26.0493 O   0  0  0  0  0  0  0  0  0  0  0  0
    8.1575  -17.5044   25.7129 O   0  0  0  0  0  0  0  0  0  0  0  0
  2  1  1  0
  2  3  2  0
  4  2  1  0
  5  4  1  0
  6  7  1  0
  6  5  1  0
  7  8  1  0
  8  9  1  1
 10  8  1  0
 10 12  1  0
 11 10  2  0
 13 12  1  0
 14 13  1  0
 15 14  2  0
 17 16  1  0
 18 17  1  0
 19 18  1  0
 20 21  1  0
 20 19  1  6
 21 14  1  0
 22 20  1  0
 23 22  2  0
 24 22  1  0
M  END
$$$$
