RGM.pdb
     RDKit          3D

 24 23  0  0  1  0  0  0  0  0999 V2000
    8.2315  -13.5911   14.2794 N   0  0  0  0  0  0  0  0  0  0  0  0
    8.1617  -14.0867   15.6289 C   0  0  0  0  0  0  0  0  0  0  0  0
    8.1841  -15.3445   15.8093 N   0  0  0  0  0  0  0  0  0  0  0  0
    8.0668  -13.1929   16.7224 N   0  0  0  0  0  0  0  0  0  0  0  0
    8.0887  -13.6407   18.0796 C   0  0  0  0  0  0  0  0  0  0  0  0
    6.7737  -14.2819   18.5280 C   0  0  0  0  0  0  0  0  0  0  0  0
    6.7778  -14.2449   20.0209 C   0  0  0  0  0  0  0  0  0  0  0  0
    8.0434  -14.7845   20.5960 C   0  0  2  0  0  0  0  0  0  0  0  0
    8.4802  -15.9718   19.8652 N   0  0  0  0  0  0  0  0  0  0  0  0
    7.9851  -15.1126   22.0368 C   0  0  0  0  0  0  0  0  0  0  0  0
    7.5302  -14.3114   22.8939 O   0  0  0  0  0  0  0  0  0  0  0  0
    8.1767  -15.7870   16.7500 N   0  0  0  0  0  0  0  0  0  0  0  0
    8.4557  -16.3870   22.5241 C   0  0  0  0  0  0  0  0  0  0  0  0
    8.3215  -16.6626   23.9246 C   0  0  0  0  0  0  0  0  0  0  0  0
    9.3340  -15.9766   24.7521 O   0  0  0  0  0  0  0  0  0  0  0  0
   10.3266  -15.3846   24.2517 C   0  0  0  0  0  0  0  0  0  0  0  0
    6.3776  -11.9177   26.3911 S   0  0  0  0  0  0  0  0  0  0  0  0
    7.9775  -11.7944   27.2145 C   0  0  0  0  0  0  0  0  0  0  0  0
    9.0932  -13.0752   26.5087 C   0  0  0  0  0  0  0  0  0  0  0  0
    9.5077  -14.0306   27.5780 C   0  0  2  0  0  0  0  0  0  0  0  0
   10.1585  -15.2537   27.0328 N   0  0  0  0  0  0  0  0  0  0  0  0
    9.2034  -15.9725   26.1577 C   0  0  0  0  0  0  0  0  0  0  0  0
   10.5546  -16.2111   28.0751 O   0  0  0  0  0  0  0  0  0  0  0  0
    9.9623  -17.3000   28.1954 O   0  0  0  0  0  0  0  0  0  0  0  0
  2  1  1  0
  2  3  2  0
  4  2  1  0
  5  4  1  0
  6  7  1  0
  6  5  1  0
  7  8  1  0
  8  9  1  6
 10  8  1  0
 10 12  1  0
 11 10  2  0
 13 12  1  0
 14 13  1  0
 15 14  2  0
 17 16  1  0
 18 17  1  0
 19 18  1  0
 20 21  1  0
 20 19  1  6
 21 14  1  0
 22 20  1  0
 23 22  2  0
 24 22  1  0
M  END
$$$$
