RGM.pdb
     RDKit          3D

 24 23  0  0  1  0  0  0  0  0999 V2000
    6.7265  -24.2522   19.5140 N   0  0  0  0  0  0  0  0  0  0  0  0
    5.6314  -23.5152   20.0878 C   0  0  0  0  0  0  0  0  0  0  0  0
    4.4744  -23.6689   19.5851 N   0  0  0  0  0  0  0  0  0  0  0  0
    5.8434  -22.6409   21.1807 N   0  0  0  0  0  0  0  0  0  0  0  0
    6.9353  -21.7194   21.2216 C   0  0  0  0  0  0  0  0  0  0  0  0
    7.3613  -21.2220   19.8387 C   0  0  0  0  0  0  0  0  0  0  0  0
    8.5802  -20.3861   20.0517 C   0  0  0  0  0  0  0  0  0  0  0  0
    8.3242  -19.2365   20.9664 C   0  0  2  0  0  0  0  0  0  0  0  0
    7.3543  -18.3140   20.3809 N   0  0  0  0  0  0  0  0  0  0  0  0
    9.5266  -18.4701   21.3585 C   0  0  0  0  0  0  0  0  0  0  0  0
   10.5480  -19.0195   21.8468 O   0  0  0  0  0  0  0  0  0  0  0  0
    3.6223  -23.2063   19.9603 N   0  0  0  0  0  0  0  0  0  0  0  0
    9.5760  -17.0372   21.1932 C   0  0  0  0  0  0  0  0  0  0  0  0
   10.7680  -16.3538   21.6023 C   0  0  0  0  0  0  0  0  0  0  0  0
   10.6406  -15.7005   22.9206 O   0  0  0  0  0  0  0  0  0  0  0  0
   11.5801  -15.0440   23.4425 C   0  0  0  0  0  0  0  0  0  0  0  0
    6.0733  -11.6670   27.6474 S   0  0  0  0  0  0  0  0  0  0  0  0
    6.2644  -12.5800   26.1038 C   0  0  0  0  0  0  0  0  0  0  0  0
    7.7590  -13.6433   26.2400 C   0  0  0  0  0  0  0  0  0  0  0  0
    8.0728  -14.2485   24.9121 C   0  0  1  0  0  0  0  0  0  0  0  0
    9.2452  -15.1648   24.9626 N   0  0  0  0  0  0  0  0  0  0  0  0
    9.4296  -15.8036   23.6388 C   0  0  0  0  0  0  0  0  0  0  0  0
    9.0789  -16.2635   25.9244 O   0  0  0  0  0  0  0  0  0  0  0  0
    8.8298  -17.4189   25.5321 O   0  0  0  0  0  0  0  0  0  0  0  0
  2  1  1  0
  2  3  2  0
  4  2  1  0
  5  4  1  0
  6  7  1  0
  6  5  1  0
  7  8  1  0
  8  9  1  6
 10  8  1  0
 10 12  1  0
 11 10  2  0
 13 12  1  0
 14 13  1  0
 15 14  2  0
 17 16  1  0
 18 17  1  0
 19 18  1  0
 20 21  1  0
 20 19  1  6
 21 14  1  0
 22 20  1  0
 23 22  2  0
 24 22  1  0
M  END
$$$$
