RGM.pdb
     RDKit          3D

 24 23  0  0  1  0  0  0  0  0999 V2000
    7.2028  -14.2007   14.4714 N   0  0  0  0  0  0  0  0  0  0  0  0
    8.4908  -14.3051   15.1052 C   0  0  0  0  0  0  0  0  0  0  0  0
    9.2651  -15.2451   14.7419 N   0  0  0  0  0  0  0  0  0  0  0  0
    8.8786  -13.3850   16.1086 N   0  0  0  0  0  0  0  0  0  0  0  0
    8.9493  -13.7454   17.4899 C   0  0  0  0  0  0  0  0  0  0  0  0
    7.6443  -13.4967   18.2492 C   0  0  0  0  0  0  0  0  0  0  0  0
    7.8737  -13.9769   19.6444 C   0  0  0  0  0  0  0  0  0  0  0  0
    8.1666  -15.4381   19.6980 C   0  0  2  0  0  0  0  0  0  0  0  0
    6.9400  -16.2185   19.5530 N   0  0  0  0  0  0  0  0  0  0  0  0
    8.8714  -15.8899   20.9171 C   0  0  0  0  0  0  0  0  0  0  0  0
   10.0353  -15.5078   21.2049 O   0  0  0  0  0  0  0  0  0  0  0  0
   10.2526  -15.3259   15.0568 N   0  0  0  0  0  0  0  0  0  0  0  0
    8.2402  -16.8022   21.8403 C   0  0  0  0  0  0  0  0  0  0  0  0
    8.9785  -17.2003   23.0029 C   0  0  0  0  0  0  0  0  0  0  0  0
    9.2962  -16.0743   23.9040 O   0  0  0  0  0  0  0  0  0  0  0  0
    9.8430  -15.0160   23.4954 C   0  0  0  0  0  0  0  0  0  0  0  0
    5.9744  -12.2648   25.8685 S   0  0  0  0  0  0  0  0  0  0  0  0
    7.1137  -11.7766   27.1786 C   0  0  0  0  0  0  0  0  0  0  0  0
    8.3383  -13.1283   27.4158 C   0  0  0  0  0  0  0  0  0  0  0  0
    8.1245  -14.1912   26.3898 C   0  0  1  0  0  0  0  0  0  0  0  0
    9.3075  -15.0812   26.2316 N   0  0  0  0  0  0  0  0  0  0  0  0
    8.9838  -16.1673   25.2776 C   0  0  0  0  0  0  0  0  0  0  0  0
    9.7038  -15.7435   27.4823 O   0  0  0  0  0  0  0  0  0  0  0  0
    9.9952  -15.0737   28.4910 O   0  0  0  0  0  0  0  0  0  0  0  0
  2  1  1  0
  2  3  2  0
  4  2  1  0
  5  4  1  0
  6  7  1  0
  6  5  1  0
  7  8  1  0
  8  9  1  1
 10  8  1  0
 10 12  1  0
 11 10  2  0
 13 12  1  0
 14 13  1  0
 15 14  2  0
 17 16  1  0
 18 17  1  0
 19 18  1  0
 20 21  1  0
 20 19  1  6
 21 14  1  0
 22 20  1  0
 23 22  2  0
 24 22  1  0
M  END
$$$$
