RGM.pdb
     RDKit          3D

 24 23  0  0  1  0  0  0  0  0999 V2000
    9.2120  -13.1064   17.5105 N   0  0  0  0  0  0  0  0  0  0  0  0
    7.7956  -13.3573   17.4612 C   0  0  0  0  0  0  0  0  0  0  0  0
    7.0162  -12.5131   18.0043 N   0  0  0  0  0  0  0  0  0  0  0  0
    7.2893  -14.5169   16.8266 N   0  0  0  0  0  0  0  0  0  0  0  0
    8.1411  -15.4802   16.2025 C   0  0  0  0  0  0  0  0  0  0  0  0
    9.1962  -16.0594   17.1474 C   0  0  0  0  0  0  0  0  0  0  0  0
    8.4549  -16.5745   18.3370 C   0  0  0  0  0  0  0  0  0  0  0  0
    9.3713  -17.0994   19.3899 C   0  0  2  0  0  0  0  0  0  0  0  0
    9.9675  -18.3666   18.9736 N   0  0  0  0  0  0  0  0  0  0  0  0
    8.7534  -17.2839   20.7207 C   0  0  0  0  0  0  0  0  0  0  0  0
    8.5425  -18.4215   21.2154 O   0  0  0  0  0  0  0  0  0  0  0  0
    5.9872  -12.6456   18.0707 N   0  0  0  0  0  0  0  0  0  0  0  0
    8.3617  -16.1462   21.5176 C   0  0  0  0  0  0  0  0  0  0  0  0
    7.7892  -16.3943   22.8084 C   0  0  0  0  0  0  0  0  0  0  0  0
    8.6919  -16.0416   23.9226 O   0  0  0  0  0  0  0  0  0  0  0  0
    9.8995  -15.7331   23.7415 C   0  0  0  0  0  0  0  0  0  0  0  0
    6.6792  -10.6279   26.0818 S   0  0  0  0  0  0  0  0  0  0  0  0
    6.9811  -12.0426   27.1589 C   0  0  0  0  0  0  0  0  0  0  0  0
    7.9730  -13.2799   26.2270 C   0  0  0  0  0  0  0  0  0  0  0  0
    8.2402  -14.4683   27.0897 C   0  0  2  0  0  0  0  0  0  0  0  0
    9.0062  -15.5302   26.3810 N   0  0  0  0  0  0  0  0  0  0  0  0
    8.2034  -16.0444   25.2471 C   0  0  0  0  0  0  0  0  0  0  0  0
    9.3025  -16.6930   27.2295 O   0  0  0  0  0  0  0  0  0  0  0  0
    8.5609  -17.6935   27.2176 O   0  0  0  0  0  0  0  0  0  0  0  0
  2  1  1  0
  2  3  2  0
  4  2  1  0
  5  4  1  0
  6  7  1  0
  6  5  1  0
  7  8  1  0
  8  9  1  6
 10  8  1  0
 10 12  1  0
 11 10  2  0
 13 12  1  0
 14 13  1  0
 15 14  2  0
 17 16  1  0
 18 17  1  0
 19 18  1  0
 20 21  1  0
 20 19  1  6
 21 14  1  0
 22 20  1  0
 23 22  2  0
 24 22  1  0
M  END
$$$$
