RGM.pdb
     RDKit          3D

 24 23  0  0  1  0  0  0  0  0999 V2000
    7.5474  -21.1626   16.3016 N   0  0  0  0  0  0  0  0  0  0  0  0
    6.5735  -21.9743   16.9830 C   0  0  0  0  0  0  0  0  0  0  0  0
    6.4562  -23.1911   16.6356 N   0  0  0  0  0  0  0  0  0  0  0  0
    5.7677  -21.4262   18.0097 N   0  0  0  0  0  0  0  0  0  0  0  0
    5.8351  -20.0474   18.3802 C   0  0  0  0  0  0  0  0  0  0  0  0
    7.1463  -19.6688   19.0722 C   0  0  0  0  0  0  0  0  0  0  0  0
    7.0192  -18.2300   19.4515 C   0  0  0  0  0  0  0  0  0  0  0  0
    7.2689  -18.0045   20.9043 C   0  0  2  0  0  0  0  0  0  0  0  0
    6.2616  -18.6844   21.7152 N   0  0  0  0  0  0  0  0  0  0  0  0
    7.3257  -16.5851   21.3156 C   0  0  0  0  0  0  0  0  0  0  0  0
    6.3493  -15.9971   21.8488 O   0  0  0  0  0  0  0  0  0  0  0  0
    5.7881  -23.8509   17.0819 N   0  0  0  0  0  0  0  0  0  0  0  0
    8.5243  -15.8060   21.1179 C   0  0  0  0  0  0  0  0  0  0  0  0
    8.4853  -14.4139   21.4585 C   0  0  0  0  0  0  0  0  0  0  0  0
    8.7550  -14.1569   22.8874 O   0  0  0  0  0  0  0  0  0  0  0  0
    9.2105  -13.0582   23.3017 C   0  0  0  0  0  0  0  0  0  0  0  0
    5.7650  -10.7240   26.9275 S   0  0  0  0  0  0  0  0  0  0  0  0
    5.7990  -12.5209   26.7772 C   0  0  0  0  0  0  0  0  0  0  0  0
    7.4034  -13.0095   26.0220 C   0  0  0  0  0  0  0  0  0  0  0  0
    7.4938  -14.4974   25.9431 C   0  0  2  0  0  0  0  0  0  0  0  0
    8.7470  -14.9613   25.2868 N   0  0  0  0  0  0  0  0  0  0  0  0
    8.4999  -15.1665   23.8406 C   0  0  0  0  0  0  0  0  0  0  0  0
    9.2272  -16.2504   25.8039 O   0  0  0  0  0  0  0  0  0  0  0  0
    9.0776  -17.2954   25.1431 O   0  0  0  0  0  0  0  0  0  0  0  0
  2  1  1  0
  2  3  2  0
  4  2  1  0
  5  4  1  0
  6  7  1  0
  6  5  1  0
  7  8  1  0
  8  9  1  1
 10  8  1  0
 10 12  1  0
 11 10  2  0
 13 12  1  0
 14 13  1  0
 15 14  2  0
 17 16  1  0
 18 17  1  0
 19 18  1  0
 20 21  1  0
 20 19  1  6
 21 14  1  0
 22 20  1  0
 23 22  2  0
 24 22  1  0
M  END
$$$$
