RGM.pdb
     RDKit          3D

 24 23  0  0  1  0  0  0  0  0999 V2000
    3.3692  -22.7540   24.7699 N   0  0  0  0  0  0  0  0  0  0  0  0
    4.4990  -22.7154   23.8791 C   0  0  0  0  0  0  0  0  0  0  0  0
    4.6985  -23.7131   23.1176 N   0  0  0  0  0  0  0  0  0  0  0  0
    5.3643  -21.5953   23.8583 N   0  0  0  0  0  0  0  0  0  0  0  0
    5.2659  -20.5719   22.8652 C   0  0  0  0  0  0  0  0  0  0  0  0
    5.2257  -21.1160   21.4356 C   0  0  0  0  0  0  0  0  0  0  0  0
    5.4716  -19.9491   20.5367 C   0  0  0  0  0  0  0  0  0  0  0  0
    6.8614  -19.4230   20.6612 C   0  0  2  0  0  0  0  0  0  0  0  0
    7.4020  -19.6959   21.9907 N   0  0  0  0  0  0  0  0  0  0  0  0
    7.0105  -17.9790   20.3789 C   0  0  0  0  0  0  0  0  0  0  0  0
    6.8022  -17.4889   19.2388 O   0  0  0  0  0  0  0  0  0  0  0  0
    5.4898  -23.7698   22.4455 N   0  0  0  0  0  0  0  0  0  0  0  0
    7.4075  -17.0600   21.4185 C   0  0  0  0  0  0  0  0  0  0  0  0
    7.4818  -15.6661   21.0915 C   0  0  0  0  0  0  0  0  0  0  0  0
    7.8471  -14.8172   22.2433 O   0  0  0  0  0  0  0  0  0  0  0  0
    8.0054  -13.5720   22.1410 C   0  0  0  0  0  0  0  0  0  0  0  0
    6.4867  -11.4530   27.5140 S   0  0  0  0  0  0  0  0  0  0  0  0
    5.7582  -12.8738   26.6751 C   0  0  0  0  0  0  0  0  0  0  0  0
    6.8374  -13.3251   25.2556 C   0  0  0  0  0  0  0  0  0  0  0  0
    7.8423  -14.3412   25.6865 C   0  0  2  0  0  0  0  0  0  0  0  0
    8.7802  -14.7189   24.5936 N   0  0  0  0  0  0  0  0  0  0  0  0
    8.0305  -15.4031   23.5145 C   0  0  0  0  0  0  0  0  0  0  0  0
    9.8217  -15.6614   25.0256 O   0  0  0  0  0  0  0  0  0  0  0  0
    9.7937  -16.8510   24.6584 O   0  0  0  0  0  0  0  0  0  0  0  0
  2  1  1  0
  2  3  2  0
  4  2  1  0
  5  4  1  0
  6  7  1  0
  6  5  1  0
  7  8  1  0
  8  9  1  1
 10  8  1  0
 10 12  1  0
 11 10  2  0
 13 12  1  0
 14 13  1  0
 15 14  2  0
 17 16  1  0
 18 17  1  0
 19 18  1  0
 20 21  1  0
 20 19  1  6
 21 14  1  0
 22 20  1  0
 23 22  2  0
 24 22  1  0
M  END
$$$$
