RGM.pdb
     RDKit          3D

 24 23  0  0  1  0  0  0  0  0999 V2000
    9.0342  -14.0217   13.4021 N   0  0  0  0  0  0  0  0  0  0  0  0
    8.5261  -14.3549   14.7068 C   0  0  0  0  0  0  0  0  0  0  0  0
    7.6713  -15.2908   14.7981 N   0  0  0  0  0  0  0  0  0  0  0  0
    8.9672  -13.6533   15.8544 N   0  0  0  0  0  0  0  0  0  0  0  0
    8.5238  -13.9870   17.1716 C   0  0  0  0  0  0  0  0  0  0  0  0
    7.0981  -13.5175   17.4688 C   0  0  0  0  0  0  0  0  0  0  0  0
    6.7892  -13.9704   18.8578 C   0  0  0  0  0  0  0  0  0  0  0  0
    7.9775  -14.5634   19.5361 C   0  0  2  0  0  0  0  0  0  0  0  0
    8.5037  -15.6901   18.7691 N   0  0  0  0  0  0  0  0  0  0  0  0
    7.7458  -15.0075   20.9275 C   0  0  0  0  0  0  0  0  0  0  0  0
    7.2372  -14.2568   21.8000 O   0  0  0  0  0  0  0  0  0  0  0  0
    7.2232  -15.7380   13.9733 N   0  0  0  0  0  0  0  0  0  0  0  0
    8.1001  -16.3425   21.3458 C   0  0  0  0  0  0  0  0  0  0  0  0
    7.8121  -16.7224   22.6979 C   0  0  0  0  0  0  0  0  0  0  0  0
    8.6562  -16.0266   23.6899 O   0  0  0  0  0  0  0  0  0  0  0  0
    9.8100  -15.6027   23.4159 C   0  0  0  0  0  0  0  0  0  0  0  0
    7.0269  -10.8322   27.5572 S   0  0  0  0  0  0  0  0  0  0  0  0
    6.0809  -12.0961   26.6852 C   0  0  0  0  0  0  0  0  0  0  0  0
    7.2560  -13.1576   25.7494 C   0  0  0  0  0  0  0  0  0  0  0  0
    7.9520  -14.0894   26.6849 C   0  0  2  0  0  0  0  0  0  0  0  0
    8.9057  -14.9953   25.9874 N   0  0  0  0  0  0  0  0  0  0  0  0
    8.1709  -15.8189   24.9993 C   0  0  0  0  0  0  0  0  0  0  0  0
    9.5699  -15.9432   26.8929 O   0  0  0  0  0  0  0  0  0  0  0  0
   10.4470  -15.5546   27.6871 O   0  0  0  0  0  0  0  0  0  0  0  0
  2  1  1  0
  2  3  2  0
  4  2  1  0
  5  4  1  0
  6  7  1  0
  6  5  1  0
  7  8  1  0
  8  9  1  6
 10  8  1  0
 10 12  1  0
 11 10  2  0
 13 12  1  0
 14 13  1  0
 15 14  2  0
 17 16  1  0
 18 17  1  0
 19 18  1  0
 20 21  1  0
 20 19  1  6
 21 14  1  0
 22 20  1  0
 23 22  2  0
 24 22  1  0
M  END
$$$$
