INA.pdb
     RDKit          3D

 22 21  0  0  1  0  0  0  0  0999 V2000
    5.3596  -11.5865   26.7377 C   0  0  0  0  0  0  0  0  0  0  0  0
    5.3215  -12.8860   25.9643 C   0  0  0  0  0  0  0  0  0  0  0  0
    6.6528  -13.5437   25.8751 C   0  0  2  0  0  0  0  0  0  0  0  0
    7.7534  -12.6124   25.4396 C   0  0  0  0  0  0  0  0  0  0  0  0
    6.6851  -14.7943   25.0246 C   0  0  2  0  0  0  0  0  0  0  0  0
    5.6476  -15.6841   25.5914 N   0  0  0  0  0  0  0  0  0  0  0  0
    7.9527  -15.5456   25.1093 C   0  0  0  0  0  0  0  0  0  0  0  0
    8.1227  -16.4368   25.9945 O   0  0  0  0  0  0  0  0  0  0  0  0
   13.6100  -16.0584   22.8997 N   0  0  0  0  0  0  0  0  0  0  0  0
   12.2904  -16.6058   23.0306 C   0  0  0  0  0  0  0  0  0  0  0  0
   12.1952  -17.8587   23.0939 O   0  0  0  0  0  0  0  0  0  0  0  0
   11.0944  -15.7037   23.0851 C   0  0  0  0  0  0  0  0  0  0  0  0
   10.2858  -16.1424   24.3071 C   0  0  2  0  0  0  0  0  0  0  0  0
    9.0649  -15.3625   24.2462 N   0  0  0  0  0  0  0  0  0  0  0  0
   11.0241  -15.9762   25.5511 C   0  0  0  0  0  0  0  0  0  0  0  0
   12.1301  -16.5351   25.7017 O   0  0  0  0  0  0  0  0  0  0  0  0
   10.6947  -13.9883   28.7467 C   0  0  0  0  0  0  0  0  0  0  0  0
   11.2377  -15.1248   27.8831 C   0  0  2  0  0  0  0  0  0  0  0  0
   10.5254  -15.1900   26.6182 N   0  0  0  0  0  0  0  0  0  0  0  0
   11.0103  -16.3797   28.6237 C   0  0  0  0  0  0  0  0  0  0  0  0
   11.5770  -16.5734   29.7144 O   0  0  0  0  0  0  0  0  0  0  0  0
   10.1699  -17.3337   28.1034 O   0  0  0  0  0  0  0  0  0  0  0  0
  2  1  1  0
  2  3  1  0
  3  5  1  0
  3  4  1  6
  5  7  1  0
  5  6  1  1
  7 14  1  0
  7  8  2  0
  9 10  1  0
 10 12  1  0
 10 11  2  0
 13 12  1  6
 13 15  1  0
 14 13  1  0
 15 16  2  0
 18 17  1  1
 19 18  1  0
 19 15  1  0
 20 18  1  0
 20 22  1  0
 21 20  2  0
M  END
$$$$
