INA.pdb
     RDKit          3D

 22 21  0  0  1  0  0  0  0  0999 V2000
    5.6830  -11.2680   26.4349 C   0  0  0  0  0  0  0  0  0  0  0  0
    5.5959  -12.5798   25.6867 C   0  0  0  0  0  0  0  0  0  0  0  0
    6.8581  -13.3647   25.7490 C   0  0  2  0  0  0  0  0  0  0  0  0
    8.0900  -12.5408   25.4806 C   0  0  0  0  0  0  0  0  0  0  0  0
    6.8786  -14.6005   24.8768 C   0  0  2  0  0  0  0  0  0  0  0  0
    5.7300  -15.4189   25.3246 N   0  0  0  0  0  0  0  0  0  0  0  0
    8.0742  -15.4460   25.0613 C   0  0  0  0  0  0  0  0  0  0  0  0
    8.1233  -16.3099   25.9876 O   0  0  0  0  0  0  0  0  0  0  0  0
   12.4651  -17.9856   22.1604 N   0  0  0  0  0  0  0  0  0  0  0  0
   12.3629  -16.9892   23.1875 C   0  0  0  0  0  0  0  0  0  0  0  0
   13.2389  -17.0073   24.0904 O   0  0  0  0  0  0  0  0  0  0  0  0
   11.2513  -15.9838   23.1643 C   0  0  0  0  0  0  0  0  0  0  0  0
   10.3525  -16.3156   24.3567 C   0  0  2  0  0  0  0  0  0  0  0  0
    9.2421  -15.3884   24.2562 N   0  0  0  0  0  0  0  0  0  0  0  0
   11.0625  -16.2418   25.6257 C   0  0  0  0  0  0  0  0  0  0  0  0
   12.0308  -16.9982   25.8458 O   0  0  0  0  0  0  0  0  0  0  0  0
   10.8254  -14.2187   28.8212 C   0  0  0  0  0  0  0  0  0  0  0  0
   11.3992  -15.2998   27.9079 C   0  0  2  0  0  0  0  0  0  0  0  0
   10.6890  -15.3272   26.6403 N   0  0  0  0  0  0  0  0  0  0  0  0
   11.2061  -16.5927   28.5906 C   0  0  0  0  0  0  0  0  0  0  0  0
   10.0578  -17.0250   28.7975 O   0  0  0  0  0  0  0  0  0  0  0  0
   12.3001  -17.3173   28.9970 O   0  0  0  0  0  0  0  0  0  0  0  0
  2  1  1  0
  2  3  1  0
  3  5  1  0
  3  4  1  6
  5  7  1  0
  5  6  1  1
  7 14  1  0
  7  8  2  0
  9 10  1  0
 10 12  1  0
 10 11  2  0
 13 12  1  6
 13 15  1  0
 14 13  1  0
 15 16  2  0
 18 17  1  1
 19 18  1  0
 19 15  1  0
 20 18  1  0
 20 22  1  0
 21 20  2  0
M  END
$$$$
