INA.pdb
     RDKit          3D

 22 21  0  0  1  0  0  0  0  0999 V2000
    5.9085  -11.2551   26.6670 C   0  0  0  0  0  0  0  0  0  0  0  0
    5.6579  -12.6415   26.1164 C   0  0  0  0  0  0  0  0  0  0  0  0
    6.8188  -13.1799   25.3579 C   0  0  2  0  0  0  0  0  0  0  0  0
    7.3259  -12.2426   24.2935 C   0  0  0  0  0  0  0  0  0  0  0  0
    6.6024  -14.5521   24.7593 C   0  0  2  0  0  0  0  0  0  0  0  0
    6.3379  -15.4466   25.9080 N   0  0  0  0  0  0  0  0  0  0  0  0
    7.7905  -15.1056   24.0807 C   0  0  0  0  0  0  0  0  0  0  0  0
    8.2212  -14.5948   23.0035 O   0  0  0  0  0  0  0  0  0  0  0  0
   10.4203  -17.6901   22.1345 N   0  0  0  0  0  0  0  0  0  0  0  0
   10.5288  -16.2630   22.0358 C   0  0  0  0  0  0  0  0  0  0  0  0
   10.7808  -15.7863   20.8990 O   0  0  0  0  0  0  0  0  0  0  0  0
   10.3478  -15.4004   23.2484 C   0  0  0  0  0  0  0  0  0  0  0  0
    9.9825  -16.3468   24.3932 C   0  0  2  0  0  0  0  0  0  0  0  0
    8.5461  -16.2155   24.5418 N   0  0  0  0  0  0  0  0  0  0  0  0
   10.7250  -16.0579   25.6119 C   0  0  0  0  0  0  0  0  0  0  0  0
   11.9727  -16.0252   25.5914 O   0  0  0  0  0  0  0  0  0  0  0  0
   10.1918  -14.3909   28.8391 C   0  0  0  0  0  0  0  0  0  0  0  0
   10.8437  -15.5182   28.0416 C   0  0  2  0  0  0  0  0  0  0  0  0
   10.0733  -15.8083   26.8441 N   0  0  0  0  0  0  0  0  0  0  0  0
   10.8506  -16.7136   28.9053 C   0  0  0  0  0  0  0  0  0  0  0  0
   11.4802  -16.7057   29.9787 O   0  0  0  0  0  0  0  0  0  0  0  0
   10.1587  -17.8357   28.5192 O   0  0  0  0  0  0  0  0  0  0  0  0
  2  1  1  0
  2  3  1  0
  3  5  1  0
  3  4  1  6
  5  7  1  0
  5  6  1  1
  7 14  1  0
  7  8  2  0
  9 10  1  0
 10 12  1  0
 10 11  2  0
 13 12  1  6
 13 15  1  0
 14 13  1  0
 15 16  2  0
 18 17  1  1
 19 18  1  0
 19 15  1  0
 20 18  1  0
 20 22  1  0
 21 20  2  0
M  END
$$$$
