INA.pdb
     RDKit          3D

 22 21  0  0  1  0  0  0  0  0999 V2000
    6.3487  -11.4903   27.0590 C   0  0  0  0  0  0  0  0  0  0  0  0
    5.9637  -12.8026   26.4127 C   0  0  0  0  0  0  0  0  0  0  0  0
    7.0574  -13.3823   25.5876 C   0  0  2  0  0  0  0  0  0  0  0  0
    7.5934  -12.4316   24.5497 C   0  0  0  0  0  0  0  0  0  0  0  0
    6.7241  -14.7054   24.9344 C   0  0  2  0  0  0  0  0  0  0  0  0
    6.5389  -15.6605   26.0494 N   0  0  0  0  0  0  0  0  0  0  0  0
    7.8136  -15.2574   24.1056 C   0  0  0  0  0  0  0  0  0  0  0  0
    8.0674  -14.7765   22.9606 O   0  0  0  0  0  0  0  0  0  0  0  0
    9.8060  -16.5013   21.0022 N   0  0  0  0  0  0  0  0  0  0  0  0
   10.7715  -16.1650   22.0086 C   0  0  0  0  0  0  0  0  0  0  0  0
   11.9437  -16.5900   21.8407 O   0  0  0  0  0  0  0  0  0  0  0  0
   10.3755  -15.3444   23.1989 C   0  0  0  0  0  0  0  0  0  0  0  0
   10.0994  -16.3383   24.3283 C   0  0  2  0  0  0  0  0  0  0  0  0
    8.6580  -16.3336   24.4855 N   0  0  0  0  0  0  0  0  0  0  0  0
   10.8215  -16.0077   25.5487 C   0  0  0  0  0  0  0  0  0  0  0  0
   12.0690  -16.0475   25.5678 O   0  0  0  0  0  0  0  0  0  0  0  0
   10.3000  -14.0872   28.6312 C   0  0  0  0  0  0  0  0  0  0  0  0
   10.9002  -15.3092   27.9393 C   0  0  2  0  0  0  0  0  0  0  0  0
   10.1496  -15.6361   26.7386 N   0  0  0  0  0  0  0  0  0  0  0  0
   10.8011  -16.4363   28.8852 C   0  0  0  0  0  0  0  0  0  0  0  0
   11.3667  -16.3752   29.9919 O   0  0  0  0  0  0  0  0  0  0  0  0
   10.0813  -17.5538   28.5387 O   0  0  0  0  0  0  0  0  0  0  0  0
  2  1  1  0
  2  3  1  0
  3  5  1  0
  3  4  1  6
  5  7  1  0
  5  6  1  1
  7 14  1  0
  7  8  2  0
  9 10  1  0
 10 12  1  0
 10 11  2  0
 13 12  1  6
 13 15  1  0
 14 13  1  0
 15 16  2  0
 18 17  1  1
 19 18  1  0
 19 15  1  0
 20 18  1  0
 20 22  1  0
 21 20  2  0
M  END
$$$$
