INA.pdb
     RDKit          3D

 22 21  0  0  1  0  0  0  0  0999 V2000
    6.9225  -10.9215   27.3210 C   0  0  0  0  0  0  0  0  0  0  0  0
    7.4583  -12.3327   27.2236 C   0  0  0  0  0  0  0  0  0  0  0  0
    6.8366  -13.1112   26.1189 C   0  0  2  0  0  0  0  0  0  0  0  0
    5.3311  -13.0676   26.1285 C   0  0  0  0  0  0  0  0  0  0  0  0
    7.2983  -14.5482   26.0195 C   0  0  2  0  0  0  0  0  0  0  0  0
    8.7031  -14.5445   26.4842 N   0  0  0  0  0  0  0  0  0  0  0  0
    7.3295  -15.0751   24.6411 C   0  0  0  0  0  0  0  0  0  0  0  0
    6.5853  -16.0419   24.2973 O   0  0  0  0  0  0  0  0  0  0  0  0
    6.5772  -13.7740   19.7625 N   0  0  0  0  0  0  0  0  0  0  0  0
    7.9425  -14.1284   20.0245 C   0  0  0  0  0  0  0  0  0  0  0  0
    8.5900  -14.6466   19.0783 O   0  0  0  0  0  0  0  0  0  0  0  0
    8.5465  -13.8837   21.3744 C   0  0  0  0  0  0  0  0  0  0  0  0
    8.1532  -15.0818   22.2402 C   0  0  2  0  0  0  0  0  0  0  0  0
    8.1550  -14.5765   23.5993 N   0  0  0  0  0  0  0  0  0  0  0  0
    9.0328  -16.2248   22.0403 C   0  0  0  0  0  0  0  0  0  0  0  0
    8.8691  -16.9758   21.0568 O   0  0  0  0  0  0  0  0  0  0  0  0
   12.2498  -17.1813   21.9913 C   0  0  0  0  0  0  0  0  0  0  0  0
   10.9731  -17.6481   22.6870 C   0  0  2  0  0  0  0  0  0  0  0  0
   10.0874  -16.5235   22.9370 N   0  0  0  0  0  0  0  0  0  0  0  0
   11.3728  -18.2366   23.9790 C   0  0  0  0  0  0  0  0  0  0  0  0
   11.0001  -17.7149   25.0455 O   0  0  0  0  0  0  0  0  0  0  0  0
   12.1584  -19.3633   23.9991 O   0  0  0  0  0  0  0  0  0  0  0  0
  2  1  1  0
  2  3  1  0
  3  5  1  0
  3  4  1  1
  5  7  1  0
  5  6  1  6
  7 14  1  0
  7  8  2  0
  9 10  1  0
 10 12  1  0
 10 11  2  0
 13 12  1  6
 13 15  1  0
 14 13  1  0
 15 16  2  0
 18 17  1  1
 19 18  1  0
 19 15  1  0
 20 18  1  0
 20 22  1  0
 21 20  2  0
M  END
$$$$
