INA.pdb
     RDKit          3D

 22 21  0  0  1  0  0  0  0  0999 V2000
    5.7484  -11.2920   25.9476 C   0  0  0  0  0  0  0  0  0  0  0  0
    5.5857  -12.6996   26.4770 C   0  0  0  0  0  0  0  0  0  0  0  0
    6.7993  -13.5359   26.2754 C   0  0  2  0  0  0  0  0  0  0  0  0
    8.0787  -12.7414   26.2598 C   0  0  0  0  0  0  0  0  0  0  0  0
    6.7519  -14.4382   25.0622 C   0  0  2  0  0  0  0  0  0  0  0  0
    5.4954  -15.2090   25.1925 N   0  0  0  0  0  0  0  0  0  0  0  0
    7.8367  -15.4380   25.0145 C   0  0  0  0  0  0  0  0  0  0  0  0
    7.8139  -16.4588   25.7655 O   0  0  0  0  0  0  0  0  0  0  0  0
    9.2738  -17.5967   21.9659 N   0  0  0  0  0  0  0  0  0  0  0  0
   10.0753  -16.4124   21.8525 C   0  0  0  0  0  0  0  0  0  0  0  0
   10.0180  -15.7856   20.7630 O   0  0  0  0  0  0  0  0  0  0  0  0
   10.9360  -15.9638   22.9949 C   0  0  0  0  0  0  0  0  0  0  0  0
   10.1288  -16.2311   24.2664 C   0  0  2  0  0  0  0  0  0  0  0  0
    8.9677  -15.3692   24.1593 N   0  0  0  0  0  0  0  0  0  0  0  0
   10.9090  -16.0131   25.4763 C   0  0  0  0  0  0  0  0  0  0  0  0
   12.1522  -16.1215   25.4472 O   0  0  0  0  0  0  0  0  0  0  0  0
   10.6791  -14.1790   28.6110 C   0  0  0  0  0  0  0  0  0  0  0  0
   11.1073  -15.4596   27.8977 C   0  0  2  0  0  0  0  0  0  0  0  0
   10.2994  -15.6769   26.7095 N   0  0  0  0  0  0  0  0  0  0  0  0
   10.8843  -16.5750   28.8365 C   0  0  0  0  0  0  0  0  0  0  0  0
   11.4619  -16.5894   29.9386 O   0  0  0  0  0  0  0  0  0  0  0  0
   10.0359  -17.5977   28.4883 O   0  0  0  0  0  0  0  0  0  0  0  0
  2  1  1  0
  2  3  1  0
  3  5  1  0
  3  4  1  6
  5  7  1  0
  5  6  1  1
  7 14  1  0
  7  8  2  0
  9 10  1  0
 10 12  1  0
 10 11  2  0
 13 12  1  6
 13 15  1  0
 14 13  1  0
 15 16  2  0
 18 17  1  1
 19 18  1  0
 19 15  1  0
 20 18  1  0
 20 22  1  0
 21 20  2  0
M  END
$$$$
