INA.pdb
     RDKit          3D

 22 21  0  0  1  0  0  0  0  0999 V2000
    5.6817  -11.1875   26.2439 C   0  0  0  0  0  0  0  0  0  0  0  0
    5.5221  -12.5370   25.5793 C   0  0  0  0  0  0  0  0  0  0  0  0
    6.7713  -13.3443   25.6051 C   0  0  2  0  0  0  0  0  0  0  0  0
    7.9742  -12.6040   25.0824 C   0  0  0  0  0  0  0  0  0  0  0  0
    6.6701  -14.6889   24.9194 C   0  0  2  0  0  0  0  0  0  0  0  0
    5.4511  -15.3219   25.4698 N   0  0  0  0  0  0  0  0  0  0  0  0
    7.7808  -15.6086   25.2340 C   0  0  0  0  0  0  0  0  0  0  0  0
    7.8578  -16.1720   26.3668 O   0  0  0  0  0  0  0  0  0  0  0  0
   11.4283  -14.7063   22.5694 N   0  0  0  0  0  0  0  0  0  0  0  0
   10.4716  -15.7752   22.5549 C   0  0  0  0  0  0  0  0  0  0  0  0
    9.4493  -15.6175   21.8388 O   0  0  0  0  0  0  0  0  0  0  0  0
   10.7022  -17.0137   23.3674 C   0  0  0  0  0  0  0  0  0  0  0  0
    9.9503  -16.8057   24.6831 C   0  0  2  0  0  0  0  0  0  0  0  0
    8.8315  -15.9485   24.3419 N   0  0  0  0  0  0  0  0  0  0  0  0
   10.8033  -16.2638   25.7313 C   0  0  0  0  0  0  0  0  0  0  0  0
   11.8733  -15.6934   25.4347 O   0  0  0  0  0  0  0  0  0  0  0  0
   10.7549  -14.6798   28.8587 C   0  0  0  0  0  0  0  0  0  0  0  0
   11.3656  -15.8731   28.1272 C   0  0  2  0  0  0  0  0  0  0  0  0
   10.4593  -16.3616   27.1015 N   0  0  0  0  0  0  0  0  0  0  0  0
   11.5713  -16.9370   29.1276 C   0  0  0  0  0  0  0  0  0  0  0  0
   10.9447  -18.0083   29.0388 O   0  0  0  0  0  0  0  0  0  0  0  0
   12.4582  -16.7394   30.1580 O   0  0  0  0  0  0  0  0  0  0  0  0
  2  1  1  0
  2  3  1  0
  3  5  1  0
  3  4  1  6
  5  7  1  0
  5  6  1  1
  7 14  1  0
  7  8  2  0
  9 10  1  0
 10 12  1  0
 10 11  2  0
 13 12  1  6
 13 15  1  0
 14 13  1  0
 15 16  2  0
 18 17  1  1
 19 18  1  0
 19 15  1  0
 20 18  1  0
 20 22  1  0
 21 20  2  0
M  END
$$$$
