INA.pdb
     RDKit          3D

 22 21  0  0  1  0  0  0  0  0999 V2000
    5.6368  -11.2031   26.6114 C   0  0  0  0  0  0  0  0  0  0  0  0
    5.4658  -12.4743   25.8094 C   0  0  0  0  0  0  0  0  0  0  0  0
    6.7202  -13.2679   25.7112 C   0  0  2  0  0  0  0  0  0  0  0  0
    7.8801  -12.4882   25.1499 C   0  0  0  0  0  0  0  0  0  0  0  0
    6.5844  -14.5765   24.9647 C   0  0  2  0  0  0  0  0  0  0  0  0
    5.4420  -15.2741   25.5954 N   0  0  0  0  0  0  0  0  0  0  0  0
    7.7431  -15.4780   25.1172 C   0  0  0  0  0  0  0  0  0  0  0  0
    7.9390  -16.1080   26.1995 O   0  0  0  0  0  0  0  0  0  0  0  0
   11.2411  -18.8023   22.0895 N   0  0  0  0  0  0  0  0  0  0  0  0
   11.5371  -17.6860   22.9406 C   0  0  0  0  0  0  0  0  0  0  0  0
   12.5723  -17.7676   23.6510 O   0  0  0  0  0  0  0  0  0  0  0  0
   10.6359  -16.4884   22.9657 C   0  0  0  0  0  0  0  0  0  0  0  0
    9.9054  -16.5335   24.3088 C   0  0  2  0  0  0  0  0  0  0  0  0
    8.7156  -15.7280   24.1136 N   0  0  0  0  0  0  0  0  0  0  0  0
   10.7418  -16.0828   25.4121 C   0  0  0  0  0  0  0  0  0  0  0  0
   11.5753  -15.1709   25.2334 O   0  0  0  0  0  0  0  0  0  0  0  0
   10.7332  -14.8156   28.3264 C   0  0  0  0  0  0  0  0  0  0  0  0
   11.3976  -16.0924   27.8161 C   0  0  2  0  0  0  0  0  0  0  0  0
   10.6448  -16.6510   26.7056 N   0  0  0  0  0  0  0  0  0  0  0  0
   11.3930  -17.0593   28.9296 C   0  0  0  0  0  0  0  0  0  0  0  0
   10.7612  -18.1266   28.8282 O   0  0  0  0  0  0  0  0  0  0  0  0
   12.0896  -16.7761   30.0792 O   0  0  0  0  0  0  0  0  0  0  0  0
  2  1  1  0
  2  3  1  0
  3  5  1  0
  3  4  1  6
  5  7  1  0
  5  6  1  1
  7 14  1  0
  7  8  2  0
  9 10  1  0
 10 12  1  0
 10 11  2  0
 13 12  1  6
 13 15  1  0
 14 13  1  0
 15 16  2  0
 18 17  1  1
 19 18  1  0
 19 15  1  0
 20 18  1  0
 20 22  1  0
 21 20  2  0
M  END
$$$$
