INA.pdb
     RDKit          3D

 22 21  0  0  1  0  0  0  0  0999 V2000
    5.7435  -11.4752   26.4939 C   0  0  0  0  0  0  0  0  0  0  0  0
    5.6532  -12.7953   25.7609 C   0  0  0  0  0  0  0  0  0  0  0  0
    6.9512  -13.5206   25.7160 C   0  0  2  0  0  0  0  0  0  0  0  0
    8.1062  -12.6558   25.2843 C   0  0  0  0  0  0  0  0  0  0  0  0
    6.9384  -14.7907   24.8945 C   0  0  2  0  0  0  0  0  0  0  0  0
    5.8194  -15.5966   25.4311 N   0  0  0  0  0  0  0  0  0  0  0  0
    8.1480  -15.6214   25.0539 C   0  0  0  0  0  0  0  0  0  0  0  0
    8.2251  -16.4878   25.9759 O   0  0  0  0  0  0  0  0  0  0  0  0
   10.0038  -17.5082   21.6109 N   0  0  0  0  0  0  0  0  0  0  0  0
   10.4797  -16.2093   21.9911 C   0  0  0  0  0  0  0  0  0  0  0  0
   10.1224  -15.2379   21.2758 O   0  0  0  0  0  0  0  0  0  0  0  0
   11.3637  -16.0439   23.1903 C   0  0  0  0  0  0  0  0  0  0  0  0
   10.4913  -16.3527   24.4081 C   0  0  2  0  0  0  0  0  0  0  0  0
    9.3001  -15.5457   24.2280 N   0  0  0  0  0  0  0  0  0  0  0  0
   11.1823  -16.1024   25.6650 C   0  0  0  0  0  0  0  0  0  0  0  0
   12.3704  -16.4579   25.8074 O   0  0  0  0  0  0  0  0  0  0  0  0
   10.7220  -14.0123   28.7237 C   0  0  0  0  0  0  0  0  0  0  0  0
   11.2541  -15.2506   28.0056 C   0  0  2  0  0  0  0  0  0  0  0  0
   10.5456  -15.4590   26.7540 N   0  0  0  0  0  0  0  0  0  0  0  0
   11.0087  -16.4048   28.8903 C   0  0  0  0  0  0  0  0  0  0  0  0
   11.5405  -16.4551   30.0142 O   0  0  0  0  0  0  0  0  0  0  0  0
   10.1903  -17.4238   28.4676 O   0  0  0  0  0  0  0  0  0  0  0  0
  2  1  1  0
  2  3  1  0
  3  5  1  0
  3  4  1  6
  5  7  1  0
  5  6  1  1
  7 14  1  0
  7  8  2  0
  9 10  1  0
 10 12  1  0
 10 11  2  0
 13 12  1  6
 13 15  1  0
 14 13  1  0
 15 16  2  0
 18 17  1  1
 19 18  1  0
 19 15  1  0
 20 18  1  0
 20 22  1  0
 21 20  2  0
M  END
$$$$
