FTL.pdb
     RDKit          3D

 27 27  0  0  1  0  0  0  0  0999 V2000
    5.5683  -17.4138   24.2000 N   0  0  0  0  0  0  0  0  0  0  0  0
    6.6542  -16.5018   24.3946 C   0  0  1  0  0  0  0  0  0  0  0  0
    6.6489  -15.8517   25.7585 C   0  0  0  0  0  0  0  0  0  0  0  0
    6.5349  -14.3858   25.5697 C   0  0  0  0  0  0  0  0  0  0  0  0
    5.5465  -13.7054   26.2360 C   0  0  0  0  0  0  0  0  0  0  0  0
    5.4522  -12.3413   26.0507 C   0  0  0  0  0  0  0  0  0  0  0  0
    6.3451  -11.6787   25.2040 C   0  0  0  0  0  0  0  0  0  0  0  0
    7.3240  -12.3783   24.5489 C   0  0  0  0  0  0  0  0  0  0  0  0
    7.4106  -13.7257   24.7373 C   0  0  0  0  0  0  0  0  0  0  0  0
    7.9393  -17.2095   24.2200 C   0  0  0  0  0  0  0  0  0  0  0  0
    7.9712  -18.4610   24.3303 O   0  0  0  0  0  0  0  0  0  0  0  0
   10.0294  -17.0600   21.2245 C   0  0  0  0  0  0  0  0  0  0  0  0
   10.9546  -16.7136   22.3691 C   0  0  1  0  0  0  0  0  0  0  0  0
   11.1642  -15.3425   22.3269 O   0  0  0  0  0  0  0  0  0  0  0  0
   10.3771  -17.1809   23.6648 C   0  0  2  0  0  0  0  0  0  0  0  0
    9.1159  -16.4993   23.9341 N   0  0  0  0  0  0  0  0  0  0  0  0
   11.3281  -16.9996   24.7771 C   0  0  0  0  0  0  0  0  0  0  0  0
   12.5482  -17.2974   24.6754 O   0  0  0  0  0  0  0  0  0  0  0  0
    8.7696  -14.9099   29.3441 C   0  0  0  0  0  0  0  0  0  0  0  0
    9.6718  -15.0913   28.1163 C   0  0  1  0  0  0  0  0  0  0  0  0
   10.2157  -13.7632   27.7402 C   0  0  0  0  0  0  0  0  0  0  0  0
   10.6546  -16.1745   28.3684 C   0  0  0  0  0  0  0  0  0  0  0  0
   11.5598  -16.5334   27.2470 C   0  0  2  0  0  0  0  0  0  0  0  0
   10.8604  -16.4743   26.0013 N   0  0  0  0  0  0  0  0  0  0  0  0
   12.1974  -17.8655   27.4702 C   0  0  0  0  0  0  0  0  0  0  0  0
   11.5861  -18.9240   27.1920 O   0  0  0  0  0  0  0  0  0  0  0  0
   13.4762  -17.9636   27.9886 O   0  0  0  0  0  0  0  0  0  0  0  0
  2  1  1  1
  2  3  1  0
  4  9  2  0
  4  3  1  0
  5  4  1  0
  6  7  1  0
  6  5  2  0
  7  8  2  0
  8  9  1  0
 10  2  1  0
 11 10  2  0
 13 15  1  0
 13 12  1  6
 14 13  1  0
 15 16  1  1
 16 10  1  0
 17 24  1  0
 17 15  1  0
 18 17  2  0
 20 19  1  1
 21 20  1  0
 23 22  1  1
 22 20  1  0
 23 24  1  0
 25 23  1  0
 26 25  2  0
 27 25  1  0
M  END
$$$$
