FTL.pdb
     RDKit          3D

 27 27  0  0  1  0  0  0  0  0999 V2000
    6.1414  -15.5830   23.3952 N   0  0  0  0  0  0  0  0  0  0  0  0
    7.4981  -15.3291   23.7743 C   0  0  1  0  0  0  0  0  0  0  0  0
    7.6686  -15.0967   25.2574 C   0  0  0  0  0  0  0  0  0  0  0  0
    7.0173  -13.8098   25.6000 C   0  0  0  0  0  0  0  0  0  0  0  0
    5.8354  -13.8287   26.2974 C   0  0  0  0  0  0  0  0  0  0  0  0
    5.2404  -12.6234   26.6093 C   0  0  0  0  0  0  0  0  0  0  0  0
    5.8343  -11.4195   26.2205 C   0  0  0  0  0  0  0  0  0  0  0  0
    7.0145  -11.4246   25.5249 C   0  0  0  0  0  0  0  0  0  0  0  0
    7.5960  -12.6196   25.2206 C   0  0  0  0  0  0  0  0  0  0  0  0
    8.3498  -16.4700   23.3797 C   0  0  0  0  0  0  0  0  0  0  0  0
    7.8530  -17.6240   23.3447 O   0  0  0  0  0  0  0  0  0  0  0  0
   10.4992  -18.0794   21.0262 C   0  0  0  0  0  0  0  0  0  0  0  0
   11.4617  -17.6529   22.1115 C   0  0  1  0  0  0  0  0  0  0  0  0
   12.2264  -16.6153   21.5973 O   0  0  0  0  0  0  0  0  0  0  0  0
   10.7162  -17.2767   23.3498 C   0  0  2  0  0  0  0  0  0  0  0  0
    9.6994  -16.2758   23.0465 N   0  0  0  0  0  0  0  0  0  0  0  0
   11.6287  -16.8047   24.4076 C   0  0  0  0  0  0  0  0  0  0  0  0
   12.3678  -15.7950   24.2587 O   0  0  0  0  0  0  0  0  0  0  0  0
   10.9574  -16.2728   29.2746 C   0  0  0  0  0  0  0  0  0  0  0  0
   11.1261  -15.7514   27.8415 C   0  0  1  0  0  0  0  0  0  0  0  0
   10.6980  -14.3313   27.8112 C   0  0  0  0  0  0  0  0  0  0  0  0
   12.4951  -16.0525   27.3534 C   0  0  0  0  0  0  0  0  0  0  0  0
   12.6840  -17.3399   26.6373 C   0  0  2  0  0  0  0  0  0  0  0  0
   11.6803  -17.5051   25.6325 N   0  0  0  0  0  0  0  0  0  0  0  0
   12.7192  -18.4898   27.5899 C   0  0  0  0  0  0  0  0  0  0  0  0
   13.5835  -18.5460   28.4961 O   0  0  0  0  0  0  0  0  0  0  0  0
   11.8001  -19.5195   27.4954 O   0  0  0  0  0  0  0  0  0  0  0  0
  2  1  1  1
  2  3  1  0
  4  9  2  0
  4  3  1  0
  5  4  1  0
  6  7  1  0
  6  5  2  0
  7  8  2  0
  8  9  1  0
 10  2  1  0
 11 10  2  0
 13 15  1  0
 13 12  1  6
 14 13  1  0
 15 16  1  6
 16 10  1  0
 17 24  1  0
 17 15  1  0
 18 17  2  0
 20 19  1  1
 21 20  1  0
 23 22  1  1
 22 20  1  0
 23 24  1  0
 25 23  1  0
 26 25  2  0
 27 25  1  0
M  END
$$$$
