FTL.pdb
     RDKit          3D

 27 27  0  0  1  0  0  0  0  0999 V2000
    5.3601  -17.1337   23.9651 N   0  0  0  0  0  0  0  0  0  0  0  0
    6.5445  -16.3594   24.1803 C   0  0  1  0  0  0  0  0  0  0  0  0
    6.6830  -15.8651   25.6013 C   0  0  0  0  0  0  0  0  0  0  0  0
    6.5972  -14.3853   25.5848 C   0  0  0  0  0  0  0  0  0  0  0  0
    7.4518  -13.6796   24.7752 C   0  0  0  0  0  0  0  0  0  0  0  0
    7.3607  -12.3027   24.7701 C   0  0  0  0  0  0  0  0  0  0  0  0
    6.4189  -11.6528   25.5725 C   0  0  0  0  0  0  0  0  0  0  0  0
    5.5758  -12.3777   26.3729 C   0  0  0  0  0  0  0  0  0  0  0  0
    5.6721  -13.7376   26.3723 C   0  0  0  0  0  0  0  0  0  0  0  0
    7.7369  -17.1662   23.8485 C   0  0  0  0  0  0  0  0  0  0  0  0
    7.8240  -18.3415   24.2850 O   0  0  0  0  0  0  0  0  0  0  0  0
    9.9678  -17.6175   20.7372 C   0  0  0  0  0  0  0  0  0  0  0  0
   10.8207  -17.0062   21.8258 C   0  0  1  0  0  0  0  0  0  0  0  0
   11.0797  -15.6940   21.4562 O   0  0  0  0  0  0  0  0  0  0  0  0
   10.1368  -17.1208   23.1487 C   0  0  2  0  0  0  0  0  0  0  0  0
    8.7652  -16.6334   23.0554 N   0  0  0  0  0  0  0  0  0  0  0  0
   10.8825  -16.4129   24.2056 C   0  0  0  0  0  0  0  0  0  0  0  0
   11.1050  -15.1735   24.1584 O   0  0  0  0  0  0  0  0  0  0  0  0
   11.2708  -13.6863   28.2353 C   0  0  0  0  0  0  0  0  0  0  0  0
   10.8593  -15.1475   28.4584 C   0  0  1  0  0  0  0  0  0  0  0  0
    9.7486  -15.1716   29.4417 C   0  0  0  0  0  0  0  0  0  0  0  0
   10.6161  -15.8079   27.1517 C   0  0  0  0  0  0  0  0  0  0  0  0
   11.7418  -16.5849   26.5729 C   0  0  2  0  0  0  0  0  0  0  0  0
   11.3667  -17.1447   25.3118 N   0  0  0  0  0  0  0  0  0  0  0  0
   12.2286  -17.6261   27.5267 C   0  0  0  0  0  0  0  0  0  0  0  0
   11.5690  -18.6737   27.7245 O   0  0  0  0  0  0  0  0  0  0  0  0
   13.4176  -17.4601   28.2142 O   0  0  0  0  0  0  0  0  0  0  0  0
  2  1  1  1
  2  3  1  0
  4  9  2  0
  4  3  1  0
  5  4  1  0
  6  7  1  0
  6  5  2  0
  7  8  2  0
  8  9  1  0
 10  2  1  0
 11 10  2  0
 13 15  1  0
 13 12  1  6
 14 13  1  0
 15 16  1  6
 16 10  1  0
 17 24  1  0
 17 15  1  0
 18 17  2  0
 20 19  1  6
 21 20  1  0
 23 22  1  1
 22 20  1  0
 23 24  1  0
 25 23  1  0
 26 25  2  0
 27 25  1  0
M  END
$$$$
