FTL.pdb
     RDKit          3D

 27 27  0  0  1  0  0  0  0  0999 V2000
    8.1134  -15.2208   19.9626 N   0  0  0  0  0  0  0  0  0  0  0  0
    8.0490  -14.8533   21.3444 C   0  0  1  0  0  0  0  0  0  0  0  0
    6.6894  -14.3441   21.7627 C   0  0  0  0  0  0  0  0  0  0  0  0
    6.7853  -13.8724   23.1647 C   0  0  0  0  0  0  0  0  0  0  0  0
    6.2790  -14.6615   24.1670 C   0  0  0  0  0  0  0  0  0  0  0  0
    6.3751  -14.2097   25.4672 C   0  0  0  0  0  0  0  0  0  0  0  0
    6.9747  -12.9784   25.7461 C   0  0  0  0  0  0  0  0  0  0  0  0
    7.4734  -12.2071   24.7295 C   0  0  0  0  0  0  0  0  0  0  0  0
    7.3745  -12.6606   23.4477 C   0  0  0  0  0  0  0  0  0  0  0  0
    8.3913  -16.0168   22.1881 C   0  0  0  0  0  0  0  0  0  0  0  0
    7.8777  -17.1345   21.9306 O   0  0  0  0  0  0  0  0  0  0  0  0
    9.4428  -18.4952   22.0285 C   0  0  0  0  0  0  0  0  0  0  0  0
   10.4357  -18.0039   23.0574 C   0  0  1  0  0  0  0  0  0  0  0  0
   11.5036  -17.4500   22.3657 O   0  0  0  0  0  0  0  0  0  0  0  0
    9.7808  -17.0437   23.9955 C   0  0  2  0  0  0  0  0  0  0  0  0
    9.2793  -15.8837   23.2671 N   0  0  0  0  0  0  0  0  0  0  0  0
   10.6953  -16.6374   25.0786 C   0  0  0  0  0  0  0  0  0  0  0  0
   11.7917  -16.0588   24.8530 O   0  0  0  0  0  0  0  0  0  0  0  0
    9.3188  -13.6631   29.1023 C   0  0  0  0  0  0  0  0  0  0  0  0
   10.0698  -14.4322   28.0075 C   0  0  1  0  0  0  0  0  0  0  0  0
   11.1418  -13.5548   27.4764 C   0  0  0  0  0  0  0  0  0  0  0  0
   10.4810  -15.7637   28.5184 C   0  0  0  0  0  0  0  0  0  0  0  0
   11.1633  -16.6690   27.5589 C   0  0  2  0  0  0  0  0  0  0  0  0
   10.3348  -16.9039   26.4174 N   0  0  0  0  0  0  0  0  0  0  0  0
   11.5832  -17.9414   28.2190 C   0  0  0  0  0  0  0  0  0  0  0  0
   12.4886  -17.9459   29.0860 O   0  0  0  0  0  0  0  0  0  0  0  0
   10.9840  -19.1442   27.8902 O   0  0  0  0  0  0  0  0  0  0  0  0
  2  1  1  6
  2  3  1  0
  4  9  2  0
  4  3  1  0
  5  4  1  0
  6  7  1  0
  6  5  2  0
  7  8  2  0
  8  9  1  0
 10  2  1  0
 11 10  2  0
 13 15  1  0
 13 12  1  6
 14 13  1  0
 15 16  1  6
 16 10  1  0
 17 24  1  0
 17 15  1  0
 18 17  2  0
 20 19  1  1
 21 20  1  0
 23 22  1  1
 22 20  1  0
 23 24  1  0
 25 23  1  0
 26 25  2  0
 27 25  1  0
M  END
$$$$
