FTL.pdb
     RDKit          3D

 27 27  0  0  1  0  0  0  0  0999 V2000
    5.5894  -17.6728   24.1183 N   0  0  0  0  0  0  0  0  0  0  0  0
    6.5805  -16.6809   24.4056 C   0  0  1  0  0  0  0  0  0  0  0  0
    6.4622  -16.1064   25.7979 C   0  0  0  0  0  0  0  0  0  0  0  0
    6.5532  -14.6303   25.6966 C   0  0  0  0  0  0  0  0  0  0  0  0
    5.6368  -13.8607   26.3687 C   0  0  0  0  0  0  0  0  0  0  0  0
    5.7337  -12.4882   26.2652 C   0  0  0  0  0  0  0  0  0  0  0  0
    6.7428  -11.9061   25.4931 C   0  0  0  0  0  0  0  0  0  0  0  0
    7.6468  -12.6940   24.8307 C   0  0  0  0  0  0  0  0  0  0  0  0
    7.5444  -14.0492   24.9380 C   0  0  0  0  0  0  0  0  0  0  0  0
    7.9298  -17.2633   24.2541 C   0  0  0  0  0  0  0  0  0  0  0  0
    8.1723  -18.3898   24.7558 O   0  0  0  0  0  0  0  0  0  0  0  0
   10.0783  -17.2707   21.0486 C   0  0  0  0  0  0  0  0  0  0  0  0
   10.9226  -16.7307   22.1806 C   0  0  1  0  0  0  0  0  0  0  0  0
   11.0588  -15.3650   21.9759 O   0  0  0  0  0  0  0  0  0  0  0  0
   10.3051  -17.0695   23.4978 C   0  0  2  0  0  0  0  0  0  0  0  0
    8.9351  -16.5725   23.5594 N   0  0  0  0  0  0  0  0  0  0  0  0
   11.1096  -16.5531   24.6205 C   0  0  0  0  0  0  0  0  0  0  0  0
   12.0590  -15.7420   24.4520 O   0  0  0  0  0  0  0  0  0  0  0  0
    9.4490  -13.8629   28.5814 C   0  0  0  0  0  0  0  0  0  0  0  0
   10.3038  -14.5560   27.5122 C   0  0  1  0  0  0  0  0  0  0  0  0
   11.3009  -13.5787   27.0104 C   0  0  0  0  0  0  0  0  0  0  0  0
   10.8267  -15.8409   28.0398 C   0  0  0  0  0  0  0  0  0  0  0  0
   11.5929  -16.6922   27.0942 C   0  0  2  0  0  0  0  0  0  0  0  0
   10.8098  -16.9793   25.9328 N   0  0  0  0  0  0  0  0  0  0  0  0
   12.0850  -17.9350   27.7606 C   0  0  0  0  0  0  0  0  0  0  0  0
   11.6499  -19.0605   27.4210 O   0  0  0  0  0  0  0  0  0  0  0  0
   13.0318  -17.8744   28.7675 O   0  0  0  0  0  0  0  0  0  0  0  0
  2  1  1  1
  2  3  1  0
  4  9  2  0
  4  3  1  0
  5  4  1  0
  6  7  1  0
  6  5  2  0
  7  8  2  0
  8  9  1  0
 10  2  1  0
 11 10  2  0
 13 15  1  0
 13 12  1  6
 14 13  1  0
 15 16  1  6
 16 10  1  0
 17 24  1  0
 17 15  1  0
 18 17  2  0
 20 19  1  1
 21 20  1  0
 23 22  1  1
 22 20  1  0
 23 24  1  0
 25 23  1  0
 26 25  2  0
 27 25  1  0
M  END
$$$$
