FTL.pdb
     RDKit          3D

 27 27  0  0  1  0  0  0  0  0999 V2000
    8.1821  -17.2310   18.2625 N   0  0  0  0  0  0  0  0  0  0  0  0
    8.3173  -16.2042   19.2504 C   0  0  1  0  0  0  0  0  0  0  0  0
    7.2431  -15.1456   19.1600 C   0  0  0  0  0  0  0  0  0  0  0  0
    7.5500  -14.0914   20.1560 C   0  0  0  0  0  0  0  0  0  0  0  0
    6.9545  -14.1512   21.3912 C   0  0  0  0  0  0  0  0  0  0  0  0
    7.2493  -13.1633   22.3082 C   0  0  0  0  0  0  0  0  0  0  0  0
    8.1332  -12.1322   21.9781 C   0  0  0  0  0  0  0  0  0  0  0  0
    8.7162  -12.0926   20.7389 C   0  0  0  0  0  0  0  0  0  0  0  0
    8.4196  -13.0724   19.8386 C   0  0  0  0  0  0  0  0  0  0  0  0
    8.2722  -16.8005   20.6013 C   0  0  0  0  0  0  0  0  0  0  0  0
    7.6236  -17.8616   20.7830 O   0  0  0  0  0  0  0  0  0  0  0  0
   10.3832  -18.6693   24.1139 C   0  0  0  0  0  0  0  0  0  0  0  0
   10.1275  -17.9961   22.7844 C   0  0  1  0  0  0  0  0  0  0  0  0
    9.7058  -18.9794   21.9007 O   0  0  0  0  0  0  0  0  0  0  0  0
    9.1408  -16.8863   22.9444 C   0  0  2  0  0  0  0  0  0  0  0  0
    8.9435  -16.1950   21.6752 N   0  0  0  0  0  0  0  0  0  0  0  0
    9.5515  -15.9466   24.0040 C   0  0  0  0  0  0  0  0  0  0  0  0
   10.5857  -15.2331   23.9079 O   0  0  0  0  0  0  0  0  0  0  0  0
    5.7527  -13.2487   26.7851 C   0  0  0  0  0  0  0  0  0  0  0  0
    7.1256  -13.5006   26.1479 C   0  0  1  0  0  0  0  0  0  0  0  0
    7.7806  -12.1884   25.9238 C   0  0  0  0  0  0  0  0  0  0  0  0
    7.8767  -14.5003   26.9474 C   0  0  0  0  0  0  0  0  0  0  0  0
    9.0996  -15.0725   26.3285 C   0  0  2  0  0  0  0  0  0  0  0  0
    8.7618  -15.8385   25.1694 N   0  0  0  0  0  0  0  0  0  0  0  0
    9.8861  -15.8684   27.3178 C   0  0  0  0  0  0  0  0  0  0  0  0
    9.7716  -17.1155   27.3742 O   0  0  0  0  0  0  0  0  0  0  0  0
   10.7589  -15.2497   28.1949 O   0  0  0  0  0  0  0  0  0  0  0  0
  2  1  1  6
  2  3  1  0
  4  9  2  0
  4  3  1  0
  5  4  1  0
  6  7  1  0
  6  5  2  0
  7  8  2  0
  8  9  1  0
 10  2  1  0
 11 10  2  0
 13 15  1  0
 13 12  1  1
 14 13  1  0
 15 16  1  6
 16 10  1  0
 17 24  1  0
 17 15  1  0
 18 17  2  0
 20 19  1  1
 21 20  1  0
 23 22  1  1
 22 20  1  0
 23 24  1  0
 25 23  1  0
 26 25  2  0
 27 25  1  0
M  END
$$$$
