CVW.pdb
     RDKit          3D

 28 29  0  0  1  0  0  0  0  0999 V2000
   13.8750  -13.9774   18.5553 N   0  0  0  0  0  0  0  0  0  0  0  0
   12.7769  -14.8894   18.6536 C   0  0  1  0  0  0  0  0  0  0  0  0
   13.3262  -16.2859   18.8559 C   0  0  0  0  0  0  0  0  0  0  0  0
   14.0130  -16.4700   20.5110 S   0  0  0  0  0  0  0  0  0  0  0  0
   11.9008  -14.5409   19.8071 C   0  0  0  0  0  0  0  0  0  0  0  0
   12.3565  -13.9424   20.8068 O   0  0  0  0  0  0  0  0  0  0  0  0
    8.1340  -13.3862   19.2110 C   0  0  0  0  0  0  0  0  0  0  0  0
    8.2018  -14.4593   20.2540 C   0  0  2  0  0  0  0  0  0  0  0  0
    7.2166  -14.1100   21.3547 C   0  0  0  0  0  0  0  0  0  0  0  0
    9.6222  -14.4769   20.8226 C   0  0  2  0  0  0  0  0  0  0  0  0
   10.5255  -14.8940   19.7718 N   0  0  0  0  0  0  0  0  0  0  0  0
    9.6702  -15.4626   21.9128 C   0  0  0  0  0  0  0  0  0  0  0  0
    9.9814  -16.6620   21.6262 O   0  0  0  0  0  0  0  0  0  0  0  0
    9.3980  -15.1837   23.2557 N   0  0  0  0  0  0  0  0  0  0  0  0
    9.5937  -16.1532   24.3570 C   0  0  1  0  0  0  0  0  0  0  0  0
    9.3403  -15.3602   25.5992 C   0  0  0  0  0  0  0  0  0  0  0  0
    8.0282  -14.7537   25.7692 C   0  0  0  0  0  0  0  0  0  0  0  0
    6.7722  -15.3504   25.5932 C   0  0  0  0  0  0  0  0  0  0  0  0
    5.8369  -14.4219   25.8182 N   0  0  0  0  0  0  0  0  0  0  0  0
    6.3795  -13.2506   26.1321 C   0  0  0  0  0  0  0  0  0  0  0  0
    5.8023  -12.0285   26.4567 C   0  0  0  0  0  0  0  0  0  0  0  0
    6.6331  -10.9713   26.7649 C   0  0  0  0  0  0  0  0  0  0  0  0
    8.0012  -11.1378   26.7472 C   0  0  0  0  0  0  0  0  0  0  0  0
    8.5416  -12.3529   26.4229 C   0  0  0  0  0  0  0  0  0  0  0  0
    7.7486  -13.4398   26.1065 C   0  0  0  0  0  0  0  0  0  0  0  0
    8.5993  -17.2060   24.1634 C   0  0  0  0  0  0  0  0  0  0  0  0
    7.5730  -16.9715   23.4809 O   0  0  0  0  0  0  0  0  0  0  0  0
    8.7093  -18.4915   24.6974 O   0  0  0  0  0  0  0  0  0  0  0  0
  2  5  1  0
  2  1  1  1
  3  2  1  0
  4  3  1  0
  5  6  2  0
  8  7  1  6
  8 10  1  0
  8  9  1  0
 10 11  1  6
 11  5  1  0
 12 13  2  0
 12 10  1  0
 14 12  1  0
 15 26  1  0
 15 14  1  0
 15 16  1  1
 17 16  1  0
 18 17  2  0
 19 20  1  0
 19 18  1  0
 20 25  2  0
 21 20  1  0
 21 22  2  0
 22 23  1  0
 23 24  2  0
 25 17  1  0
 25 24  1  0
 26 28  1  0
 27 26  2  0
M  END
$$$$
