CVW.pdb
     RDKit          3D

 28 29  0  0  1  0  0  0  0  0999 V2000
    8.1283  -12.9448   17.6925 N   0  0  0  0  0  0  0  0  0  0  0  0
    9.0819  -13.6525   18.4906 C   0  0  1  0  0  0  0  0  0  0  0  0
   10.1499  -12.6790   18.9427 C   0  0  0  0  0  0  0  0  0  0  0  0
   11.4229  -13.5234   19.8973 S   0  0  0  0  0  0  0  0  0  0  0  0
    8.4299  -14.2488   19.6901 C   0  0  0  0  0  0  0  0  0  0  0  0
    7.6077  -13.5956   20.3703 O   0  0  0  0  0  0  0  0  0  0  0  0
    6.7643  -17.5243   19.7321 C   0  0  0  0  0  0  0  0  0  0  0  0
    7.7205  -17.6069   20.8823 C   0  0  2  0  0  0  0  0  0  0  0  0
    6.9908  -18.2304   22.0582 C   0  0  0  0  0  0  0  0  0  0  0  0
    8.1518  -16.1835   21.2416 C   0  0  2  0  0  0  0  0  0  0  0  0
    8.7467  -15.5807   20.0682 N   0  0  0  0  0  0  0  0  0  0  0  0
    9.1658  -16.2633   22.3036 C   0  0  0  0  0  0  0  0  0  0  0  0
   10.3461  -16.6124   21.9836 O   0  0  0  0  0  0  0  0  0  0  0  0
    8.9336  -15.9826   23.6537 N   0  0  0  0  0  0  0  0  0  0  0  0
    9.9643  -16.0958   24.7102 C   0  0  1  0  0  0  0  0  0  0  0  0
    9.6340  -14.9980   25.6703 C   0  0  0  0  0  0  0  0  0  0  0  0
    8.2326  -14.6557   25.8639 C   0  0  0  0  0  0  0  0  0  0  0  0
    7.1340  -15.5233   25.9341 C   0  0  0  0  0  0  0  0  0  0  0  0
    6.0304  -14.7835   26.0828 N   0  0  0  0  0  0  0  0  0  0  0  0
    6.3150  -13.4863   26.1175 C   0  0  0  0  0  0  0  0  0  0  0  0
    5.5000  -12.3709   26.2717 C   0  0  0  0  0  0  0  0  0  0  0  0
    6.0901  -11.1243   26.2913 C   0  0  0  0  0  0  0  0  0  0  0  0
    7.4568  -11.0030   26.1598 C   0  0  0  0  0  0  0  0  0  0  0  0
    8.2345  -12.1192   26.0085 C   0  0  0  0  0  0  0  0  0  0  0  0
    7.6872  -13.3881   25.9823 C   0  0  0  0  0  0  0  0  0  0  0  0
    9.8003  -17.4186   25.3086 C   0  0  0  0  0  0  0  0  0  0  0  0
    8.7337  -18.0536   25.1263 O   0  0  0  0  0  0  0  0  0  0  0  0
   10.7708  -18.0470   26.0915 O   0  0  0  0  0  0  0  0  0  0  0  0
  2  5  1  0
  2  1  1  1
  3  2  1  0
  4  3  1  0
  5  6  2  0
  8  7  1  6
  8 10  1  0
  8  9  1  0
 10 11  1  6
 11  5  1  0
 12 13  2  0
 12 10  1  0
 14 12  1  0
 15 26  1  0
 15 14  1  0
 15 16  1  1
 17 16  1  0
 18 17  2  0
 19 20  1  0
 19 18  1  0
 20 25  2  0
 21 20  1  0
 21 22  2  0
 22 23  1  0
 23 24  2  0
 25 17  1  0
 25 24  1  0
 26 28  1  0
 27 26  2  0
M  END
$$$$
