CVW.pdb
     RDKit          3D

 28 29  0  0  1  0  0  0  0  0999 V2000
    7.2071  -19.3711   19.5601 N   0  0  0  0  0  0  0  0  0  0  0  0
    6.9105  -18.4873   20.6455 C   0  0  1  0  0  0  0  0  0  0  0  0
    6.9416  -19.2800   21.9353 C   0  0  0  0  0  0  0  0  0  0  0  0
    5.5226  -18.8762   22.9690 S   0  0  0  0  0  0  0  0  0  0  0  0
    7.9159  -17.3909   20.7256 C   0  0  0  0  0  0  0  0  0  0  0  0
    9.1407  -17.6297   20.6362 O   0  0  0  0  0  0  0  0  0  0  0  0
    7.3080  -13.8343   19.2133 C   0  0  0  0  0  0  0  0  0  0  0  0
    7.7527  -13.6708   20.6344 C   0  0  2  0  0  0  0  0  0  0  0  0
    8.7575  -12.5343   20.6862 C   0  0  0  0  0  0  0  0  0  0  0  0
    8.4269  -14.9729   21.0715 C   0  0  2  0  0  0  0  0  0  0  0  0
    7.4771  -16.0522   20.9067 N   0  0  0  0  0  0  0  0  0  0  0  0
    8.7749  -14.8563   22.4956 C   0  0  0  0  0  0  0  0  0  0  0  0
    8.2343  -13.9254   23.1728 O   0  0  0  0  0  0  0  0  0  0  0  0
    9.6632  -15.6972   23.1732 N   0  0  0  0  0  0  0  0  0  0  0  0
   10.2734  -15.3717   24.4819 C   0  0  1  0  0  0  0  0  0  0  0  0
    9.3580  -15.9983   25.4846 C   0  0  0  0  0  0  0  0  0  0  0  0
    8.0356  -15.4168   25.6625 C   0  0  0  0  0  0  0  0  0  0  0  0
    6.7904  -16.0187   25.4353 C   0  0  0  0  0  0  0  0  0  0  0  0
    5.8398  -15.1140   25.6908 N   0  0  0  0  0  0  0  0  0  0  0  0
    6.3621  -13.9537   26.0724 C   0  0  0  0  0  0  0  0  0  0  0  0
    5.7642  -12.7564   26.4482 C   0  0  0  0  0  0  0  0  0  0  0  0
    6.5763  -11.7063   26.8232 C   0  0  0  0  0  0  0  0  0  0  0  0
    7.9465  -11.8555   26.8205 C   0  0  0  0  0  0  0  0  0  0  0  0
    8.5076  -13.0461   26.4448 C   0  0  0  0  0  0  0  0  0  0  0  0
    7.7338  -14.1250   26.0606 C   0  0  0  0  0  0  0  0  0  0  0  0
   11.5984  -15.9874   24.4856 C   0  0  0  0  0  0  0  0  0  0  0  0
   12.3717  -15.7886   25.4534 O   0  0  0  0  0  0  0  0  0  0  0  0
   12.0824  -16.8046   23.4621 O   0  0  0  0  0  0  0  0  0  0  0  0
  2  5  1  0
  2  1  1  6
  3  2  1  0
  4  3  1  0
  5  6  2  0
  8  7  1  6
  8 10  1  0
  8  9  1  0
 10 11  1  1
 11  5  1  0
 12 13  2  0
 12 10  1  0
 14 12  1  0
 15 26  1  0
 15 14  1  0
 15 16  1  1
 17 16  1  0
 18 17  2  0
 19 20  1  0
 19 18  1  0
 20 25  2  0
 21 20  1  0
 21 22  2  0
 22 23  1  0
 23 24  2  0
 25 17  1  0
 25 24  1  0
 26 28  1  0
 27 26  2  0
M  END
$$$$
