CVW.pdb
     RDKit          3D

 28 29  0  0  1  0  0  0  0  0999 V2000
    6.7848  -19.3676   19.7160 N   0  0  0  0  0  0  0  0  0  0  0  0
    6.5832  -18.4708   20.8125 C   0  0  1  0  0  0  0  0  0  0  0  0
    6.7592  -19.2411   22.1042 C   0  0  0  0  0  0  0  0  0  0  0  0
    6.2281  -18.2549   23.5149 S   0  0  0  0  0  0  0  0  0  0  0  0
    7.5712  -17.3564   20.7738 C   0  0  0  0  0  0  0  0  0  0  0  0
    8.7587  -17.5574   20.4352 O   0  0  0  0  0  0  0  0  0  0  0  0
    6.8602  -13.7905   19.4135 C   0  0  0  0  0  0  0  0  0  0  0  0
    7.3683  -13.6607   20.8168 C   0  0  2  0  0  0  0  0  0  0  0  0
    8.3351  -12.4914   20.8619 C   0  0  0  0  0  0  0  0  0  0  0  0
    8.1072  -14.9522   21.1733 C   0  0  2  0  0  0  0  0  0  0  0  0
    7.1586  -16.0441   21.1271 N   0  0  0  0  0  0  0  0  0  0  0  0
    8.6224  -14.8249   22.5448 C   0  0  0  0  0  0  0  0  0  0  0  0
    8.3685  -13.7565   23.1862 O   0  0  0  0  0  0  0  0  0  0  0  0
    9.3784  -15.7962   23.2085 N   0  0  0  0  0  0  0  0  0  0  0  0
   10.1073  -15.5537   24.4738 C   0  0  1  0  0  0  0  0  0  0  0  0
    9.1793  -16.0474   25.5374 C   0  0  0  0  0  0  0  0  0  0  0  0
    7.9807  -15.2700   25.8157 C   0  0  0  0  0  0  0  0  0  0  0  0
    6.6436  -15.6751   25.7023 C   0  0  0  0  0  0  0  0  0  0  0  0
    5.8668  -14.6350   26.0221 N   0  0  0  0  0  0  0  0  0  0  0  0
    6.5901  -13.5672   26.3408 C   0  0  0  0  0  0  0  0  0  0  0  0
    6.2153  -12.2917   26.7465 C   0  0  0  0  0  0  0  0  0  0  0  0
    7.2064  -11.3771   27.0363 C   0  0  0  0  0  0  0  0  0  0  0  0
    8.5328  -11.7340   26.9218 C   0  0  0  0  0  0  0  0  0  0  0  0
    8.8724  -12.9974   26.5191 C   0  0  0  0  0  0  0  0  0  0  0  0
    7.9137  -13.9463   26.2175 C   0  0  0  0  0  0  0  0  0  0  0  0
   11.3340  -16.3441   24.4030 C   0  0  0  0  0  0  0  0  0  0  0  0
   11.5181  -17.1174   23.4323 O   0  0  0  0  0  0  0  0  0  0  0  0
   12.3465  -16.3018   25.3637 O   0  0  0  0  0  0  0  0  0  0  0  0
  2  5  1  0
  2  1  1  6
  3  2  1  0
  4  3  1  0
  5  6  2  0
  8  7  1  6
  8 10  1  0
  8  9  1  0
 10 11  1  1
 11  5  1  0
 12 13  2  0
 12 10  1  0
 14 12  1  0
 15 26  1  0
 15 14  1  0
 15 16  1  1
 17 16  1  0
 18 17  2  0
 19 20  1  0
 19 18  1  0
 20 25  2  0
 21 20  1  0
 21 22  2  0
 22 23  1  0
 23 24  2  0
 25 17  1  0
 25 24  1  0
 26 28  1  0
 27 26  2  0
M  END
$$$$
