CVW.pdb
     RDKit          3D

 28 29  0  0  1  0  0  0  0  0999 V2000
    6.8851  -15.2817   19.3936 N   0  0  0  0  0  0  0  0  0  0  0  0
    7.9643  -14.8190   20.2111 C   0  0  1  0  0  0  0  0  0  0  0  0
    7.5000  -13.5983   20.9774 C   0  0  0  0  0  0  0  0  0  0  0  0
    7.7547  -12.1003   20.0101 S   0  0  0  0  0  0  0  0  0  0  0  0
    8.3827  -15.8701   21.1804 C   0  0  0  0  0  0  0  0  0  0  0  0
    7.5661  -16.7154   21.6092 O   0  0  0  0  0  0  0  0  0  0  0  0
   11.4183  -17.9964   20.7012 C   0  0  0  0  0  0  0  0  0  0  0  0
   11.5619  -17.4187   22.0758 C   0  0  2  0  0  0  0  0  0  0  0  0
   12.0571  -18.5168   22.9994 C   0  0  0  0  0  0  0  0  0  0  0  0
   10.1819  -16.9441   22.5357 C   0  0  2  0  0  0  0  0  0  0  0  0
    9.7308  -15.9136   21.6254 N   0  0  0  0  0  0  0  0  0  0  0  0
   10.3178  -16.3667   23.8813 C   0  0  0  0  0  0  0  0  0  0  0  0
   11.0092  -15.3076   24.0146 O   0  0  0  0  0  0  0  0  0  0  0  0
    9.7406  -16.8949   25.0403 N   0  0  0  0  0  0  0  0  0  0  0  0
    9.9559  -16.3418   26.3963 C   0  0  1  0  0  0  0  0  0  0  0  0
    8.5906  -16.3105   27.0056 C   0  0  0  0  0  0  0  0  0  0  0  0
    7.6001  -15.4182   26.4216 C   0  0  0  0  0  0  0  0  0  0  0  0
    6.4143  -15.7612   25.7577 C   0  0  0  0  0  0  0  0  0  0  0  0
    5.8246  -14.6319   25.3522 N   0  0  0  0  0  0  0  0  0  0  0  0
    6.5316  -13.5620   25.6990 C   0  0  0  0  0  0  0  0  0  0  0  0
    6.2991  -12.2053   25.5058 C   0  0  0  0  0  0  0  0  0  0  0  0
    7.2166  -11.3043   26.0050 C   0  0  0  0  0  0  0  0  0  0  0  0
    8.3329  -11.7536   26.6774 C   0  0  0  0  0  0  0  0  0  0  0  0
    8.5362  -13.0958   26.8520 C   0  0  0  0  0  0  0  0  0  0  0  0
    7.6447  -14.0349   26.3686 C   0  0  0  0  0  0  0  0  0  0  0  0
   10.8457  -17.2725   27.0867 C   0  0  0  0  0  0  0  0  0  0  0  0
   11.2634  -16.9936   28.2364 O   0  0  0  0  0  0  0  0  0  0  0  0
   11.2788  -18.4850   26.5462 O   0  0  0  0  0  0  0  0  0  0  0  0
  2  5  1  0
  2  1  1  1
  3  2  1  0
  4  3  1  0
  5  6  2  0
  8  7  1  6
  8 10  1  0
  8  9  1  0
 10 11  1  6
 11  5  1  0
 12 13  2  0
 12 10  1  0
 14 12  1  0
 15 26  1  0
 15 14  1  0
 15 16  1  1
 17 16  1  0
 18 17  2  0
 19 20  1  0
 19 18  1  0
 20 25  2  0
 21 20  1  0
 21 22  2  0
 22 23  1  0
 23 24  2  0
 25 17  1  0
 25 24  1  0
 26 28  1  0
 27 26  2  0
M  END
$$$$
