CIR.pdb
     RDKit          3D

 26 25  0  0  1  0  0  0  0  0999 V2000
    4.8546  -19.2166   19.9140 N   0  0  0  0  0  0  0  0  0  0  0  0
    4.6939  -18.1171   20.8439 C   0  0  1  0  0  0  0  0  0  0  0  0
    3.9751  -18.5560   22.0741 C   0  0  0  0  0  0  0  0  0  0  0  0
    2.1886  -18.6132   21.6870 S   0  0  0  0  0  0  0  0  0  0  0  0
    5.9626  -17.4456   21.0569 C   0  0  0  0  0  0  0  0  0  0  0  0
    7.0063  -18.1354   21.1691 O   0  0  0  0  0  0  0  0  0  0  0  0
    6.9362  -12.1770   19.4989 C   0  0  0  0  0  0  0  0  0  0  0  0
    7.1347  -13.6600   19.6563 C   0  0  0  0  0  0  0  0  0  0  0  0
    7.4274  -13.9479   21.0951 C   0  0  2  0  0  0  0  0  0  0  0  0
    8.7758  -13.3622   21.4422 C   0  0  0  0  0  0  0  0  0  0  0  0
    7.4058  -15.4183   21.4309 C   0  0  2  0  0  0  0  0  0  0  0  0
    6.1203  -16.0309   21.1508 N   0  0  0  0  0  0  0  0  0  0  0  0
    7.7604  -15.6512   22.8559 C   0  0  0  0  0  0  0  0  0  0  0  0
    6.9688  -15.2527   23.7757 O   0  0  0  0  0  0  0  0  0  0  0  0
    9.7269  -19.8372   29.3111 N   0  0  0  0  0  0  0  0  0  0  0  0
    8.6602  -20.2777   28.4899 C   0  0  0  0  0  0  0  0  0  0  0  0
    8.4503  -21.5285   28.3419 N   0  0  0  0  0  0  0  0  0  0  0  0
    7.8370  -19.3277   27.8410 N   0  0  0  0  0  0  0  0  0  0  0  0
    8.3132  -17.9950   27.5235 C   0  0  0  0  0  0  0  0  0  0  0  0
    9.4225  -18.1182   26.4823 C   0  0  0  0  0  0  0  0  0  0  0  0
    8.9195  -17.8338   25.1095 C   0  0  0  0  0  0  0  0  0  0  0  0
    9.2754  -16.4412   24.6598 C   0  0  2  0  0  0  0  0  0  0  0  0
    8.9614  -16.3083   23.2348 N   0  0  0  0  0  0  0  0  0  0  0  0
   10.6987  -16.1056   24.8314 C   0  0  0  0  0  0  0  0  0  0  0  0
   11.1591  -15.8341   26.1352 O   0  0  0  0  0  0  0  0  0  0  0  0
   11.5401  -16.0442   23.8825 O   0  0  0  0  0  0  0  0  0  0  0  0
  2  3  1  0
  2  1  1  6
  4  3  1  0
  5  2  1  0
  6  5  2  0
  7  8  1  0
  9  8  1  0
  9 11  1  0
  9 10  1  6
 11 12  1  1
 12  5  1  0
 13 11  1  0
 13 14  2  0
 16 17  2  0
 16 15  1  0
 18 16  1  0
 19 18  1  0
 20 21  1  0
 20 19  1  0
 22 21  1  6
 22 23  1  0
 23 13  1  0
 24 22  1  0
 25 24  1  0
 26 24  2  0
M  END
$$$$
