CIR.pdb
     RDKit          3D

 26 25  0  0  1  0  0  0  0  0999 V2000
    7.9207  -12.5106   19.7447 N   0  0  0  0  0  0  0  0  0  0  0  0
    7.2924  -13.5236   20.5685 C   0  0  1  0  0  0  0  0  0  0  0  0
    7.1865  -14.8189   19.8379 C   0  0  0  0  0  0  0  0  0  0  0  0
    6.4131  -16.0343   20.9646 S   0  0  0  0  0  0  0  0  0  0  0  0
    7.9283  -13.5814   21.8716 C   0  0  0  0  0  0  0  0  0  0  0  0
    9.1749  -13.4468   21.9484 O   0  0  0  0  0  0  0  0  0  0  0  0
    6.3871  -11.1789   26.3699 C   0  0  0  0  0  0  0  0  0  0  0  0
    7.2788  -11.7781   25.3166 C   0  0  0  0  0  0  0  0  0  0  0  0
    7.2997  -13.2625   25.5031 C   0  0  2  0  0  0  0  0  0  0  0  0
    8.0348  -13.5799   26.7840 C   0  0  0  0  0  0  0  0  0  0  0  0
    7.9321  -14.0046   24.3523 C   0  0  2  0  0  0  0  0  0  0  0  0
    7.2322  -13.7838   23.1002 N   0  0  0  0  0  0  0  0  0  0  0  0
    8.0013  -15.4645   24.6250 C   0  0  0  0  0  0  0  0  0  0  0  0
    7.1373  -16.2454   24.1003 O   0  0  0  0  0  0  0  0  0  0  0  0
   13.3668  -18.4371   20.8388 N   0  0  0  0  0  0  0  0  0  0  0  0
   12.5518  -19.5904   20.7304 C   0  0  0  0  0  0  0  0  0  0  0  0
   12.7016  -20.3804   19.7385 N   0  0  0  0  0  0  0  0  0  0  0  0
   11.5789  -19.8566   21.7224 N   0  0  0  0  0  0  0  0  0  0  0  0
   10.6428  -18.8414   22.1656 C   0  0  0  0  0  0  0  0  0  0  0  0
   11.3065  -18.0294   23.2748 C   0  0  0  0  0  0  0  0  0  0  0  0
   10.4416  -16.9017   23.7208 C   0  0  0  0  0  0  0  0  0  0  0  0
    9.7138  -17.2255   24.9989 C   0  0  2  0  0  0  0  0  0  0  0  0
    9.0050  -16.0279   25.4574 N   0  0  0  0  0  0  0  0  0  0  0  0
   10.5970  -17.6618   26.0930 C   0  0  0  0  0  0  0  0  0  0  0  0
   10.7553  -19.0467   26.2997 O   0  0  0  0  0  0  0  0  0  0  0  0
   11.2264  -16.8733   26.8638 O   0  0  0  0  0  0  0  0  0  0  0  0
  2  3  1  0
  2  1  1  6
  4  3  1  0
  5  2  1  0
  6  5  2  0
  7  8  1  0
  9  8  1  0
  9 11  1  0
  9 10  1  1
 11 12  1  6
 12  5  1  0
 13 11  1  0
 13 14  2  0
 16 17  2  0
 16 15  1  0
 18 16  1  0
 19 18  1  0
 20 21  1  0
 20 19  1  0
 22 21  1  6
 22 23  1  0
 23 13  1  0
 24 22  1  0
 25 24  1  0
 26 24  2  0
M  END
$$$$
