CIR.pdb
     RDKit          3D

 26 25  0  0  1  0  0  0  0  0999 V2000
    7.2771  -15.6353   20.5514 N   0  0  0  0  0  0  0  0  0  0  0  0
    6.5574  -15.7380   21.8048 C   0  0  1  0  0  0  0  0  0  0  0  0
    5.9903  -17.1047   21.9870 C   0  0  0  0  0  0  0  0  0  0  0  0
    7.3883  -18.2745   22.1348 S   0  0  0  0  0  0  0  0  0  0  0  0
    7.3716  -15.2390   22.8975 C   0  0  0  0  0  0  0  0  0  0  0  0
    8.6136  -15.1405   22.7370 O   0  0  0  0  0  0  0  0  0  0  0  0
    5.4142  -11.6675   26.5617 C   0  0  0  0  0  0  0  0  0  0  0  0
    6.3619  -12.2869   25.5709 C   0  0  0  0  0  0  0  0  0  0  0  0
    7.0026  -13.4782   26.2103 C   0  0  2  0  0  0  0  0  0  0  0  0
    7.9613  -13.0000   27.2752 C   0  0  0  0  0  0  0  0  0  0  0  0
    7.7266  -14.3695   25.2322 C   0  0  2  0  0  0  0  0  0  0  0  0
    6.8597  -14.8427   24.1687 N   0  0  0  0  0  0  0  0  0  0  0  0
    8.3423  -15.5355   25.9189 C   0  0  0  0  0  0  0  0  0  0  0  0
    7.5967  -16.3716   26.5325 O   0  0  0  0  0  0  0  0  0  0  0  0
   11.4108  -20.3819   23.1521 N   0  0  0  0  0  0  0  0  0  0  0  0
   11.8787  -19.4780   22.1670 C   0  0  0  0  0  0  0  0  0  0  0  0
   11.6102  -19.6883   20.9365 N   0  0  0  0  0  0  0  0  0  0  0  0
   12.6392  -18.3502   22.5556 N   0  0  0  0  0  0  0  0  0  0  0  0
   12.8415  -18.0096   23.9508 C   0  0  0  0  0  0  0  0  0  0  0  0
   11.4876  -17.6512   24.5576 C   0  0  0  0  0  0  0  0  0  0  0  0
   11.6106  -17.2910   25.9976 C   0  0  0  0  0  0  0  0  0  0  0  0
   10.2777  -16.9360   26.6020 C   0  0  2  0  0  0  0  0  0  0  0  0
    9.7457  -15.7552   25.9168 N   0  0  0  0  0  0  0  0  0  0  0  0
   10.3402  -16.6218   28.0390 C   0  0  0  0  0  0  0  0  0  0  0  0
   10.4049  -17.6978   28.9466 O   0  0  0  0  0  0  0  0  0  0  0  0
   10.3396  -15.4451   28.5161 O   0  0  0  0  0  0  0  0  0  0  0  0
  2  3  1  0
  2  1  1  6
  4  3  1  0
  5  2  1  0
  6  5  2  0
  7  8  1  0
  9  8  1  0
  9 11  1  0
  9 10  1  1
 11 12  1  6
 12  5  1  0
 13 11  1  0
 13 14  2  0
 16 17  2  0
 16 15  1  0
 18 16  1  0
 19 18  1  0
 20 21  1  0
 20 19  1  0
 22 21  1  6
 22 23  1  0
 23 13  1  0
 24 22  1  0
 25 24  1  0
 26 24  2  0
M  END
$$$$
