CIR.pdb
     RDKit          3D

 26 25  0  0  1  0  0  0  0  0999 V2000
    7.9805  -14.6535   20.3139 N   0  0  0  0  0  0  0  0  0  0  0  0
    7.3155  -15.2748   21.4415 C   0  0  1  0  0  0  0  0  0  0  0  0
    7.1860  -16.7468   21.2430 C   0  0  0  0  0  0  0  0  0  0  0  0
    6.0025  -17.0242   19.8764 S   0  0  0  0  0  0  0  0  0  0  0  0
    7.9324  -14.8552   22.6861 C   0  0  0  0  0  0  0  0  0  0  0  0
    9.1714  -14.6499   22.7138 O   0  0  0  0  0  0  0  0  0  0  0  0
    5.3063  -11.8341   26.3992 C   0  0  0  0  0  0  0  0  0  0  0  0
    6.4429  -12.2861   25.5232 C   0  0  0  0  0  0  0  0  0  0  0  0
    7.0081  -13.5478   26.0952 C   0  0  2  0  0  0  0  0  0  0  0  0
    7.7691  -13.2104   27.3556 C   0  0  0  0  0  0  0  0  0  0  0  0
    7.9056  -14.2928   25.1388 C   0  0  2  0  0  0  0  0  0  0  0  0
    7.2254  -14.6531   23.9085 N   0  0  0  0  0  0  0  0  0  0  0  0
    8.4646  -15.5185   25.7677 C   0  0  0  0  0  0  0  0  0  0  0  0
    7.6736  -16.4368   26.1711 O   0  0  0  0  0  0  0  0  0  0  0  0
   15.0772  -15.9316   24.5809 N   0  0  0  0  0  0  0  0  0  0  0  0
   14.5220  -15.9356   23.2778 C   0  0  0  0  0  0  0  0  0  0  0  0
   15.0385  -15.2040   22.3676 N   0  0  0  0  0  0  0  0  0  0  0  0
   13.4002  -16.7502   22.9966 N   0  0  0  0  0  0  0  0  0  0  0  0
   12.9752  -17.8025   23.8997 C   0  0  0  0  0  0  0  0  0  0  0  0
   11.6212  -17.4122   24.4866 C   0  0  0  0  0  0  0  0  0  0  0  0
   11.6789  -17.3011   25.9708 C   0  0  0  0  0  0  0  0  0  0  0  0
   10.3386  -16.9456   26.5584 C   0  0  2  0  0  0  0  0  0  0  0  0
    9.8622  -15.7067   25.9377 N   0  0  0  0  0  0  0  0  0  0  0  0
   10.3654  -16.7280   28.0143 C   0  0  0  0  0  0  0  0  0  0  0  0
   10.3999  -17.8624   28.8496 O   0  0  0  0  0  0  0  0  0  0  0  0
   10.3595  -15.5857   28.5685 O   0  0  0  0  0  0  0  0  0  0  0  0
  2  3  1  0
  2  1  1  6
  4  3  1  0
  5  2  1  0
  6  5  2  0
  7  8  1  0
  9  8  1  0
  9 11  1  0
  9 10  1  1
 11 12  1  6
 12  5  1  0
 13 11  1  0
 13 14  2  0
 16 17  2  0
 16 15  1  0
 18 16  1  0
 19 18  1  0
 20 21  1  0
 20 19  1  0
 22 21  1  6
 22 23  1  0
 23 13  1  0
 24 22  1  0
 25 24  1  0
 26 24  2  0
M  END
$$$$
