CIR.pdb
     RDKit          3D

 26 25  0  0  1  0  0  0  0  0999 V2000
    6.7407  -14.7381   20.0906 N   0  0  0  0  0  0  0  0  0  0  0  0
    6.4480  -15.3797   21.3564 C   0  0  1  0  0  0  0  0  0  0  0  0
    6.3495  -16.8588   21.1976 C   0  0  0  0  0  0  0  0  0  0  0  0
    4.5890  -17.2759   20.9304 S   0  0  0  0  0  0  0  0  0  0  0  0
    7.3607  -14.9121   22.3832 C   0  0  0  0  0  0  0  0  0  0  0  0
    8.5615  -14.7004   22.0812 O   0  0  0  0  0  0  0  0  0  0  0  0
    5.7211  -11.8051   26.6677 C   0  0  0  0  0  0  0  0  0  0  0  0
    6.5587  -12.2491   25.4995 C   0  0  0  0  0  0  0  0  0  0  0  0
    7.2823  -13.5007   25.8849 C   0  0  2  0  0  0  0  0  0  0  0  0
    8.3110  -13.1614   26.9376 C   0  0  0  0  0  0  0  0  0  0  0  0
    7.9484  -14.1929   24.7220 C   0  0  2  0  0  0  0  0  0  0  0  0
    6.9920  -14.6685   23.7395 N   0  0  0  0  0  0  0  0  0  0  0  0
    8.7878  -15.3310   25.1809 C   0  0  0  0  0  0  0  0  0  0  0  0
    8.2268  -16.3880   25.6276 O   0  0  0  0  0  0  0  0  0  0  0  0
   16.9965  -16.8130   22.5938 N   0  0  0  0  0  0  0  0  0  0  0  0
   16.6338  -16.5060   23.9282 C   0  0  0  0  0  0  0  0  0  0  0  0
   17.5224  -16.0922   24.7464 N   0  0  0  0  0  0  0  0  0  0  0  0
   15.2899  -16.6605   24.3422 N   0  0  0  0  0  0  0  0  0  0  0  0
   14.3350  -17.4274   23.5652 C   0  0  0  0  0  0  0  0  0  0  0  0
   13.0669  -17.5978   24.3976 C   0  0  0  0  0  0  0  0  0  0  0  0
   12.2135  -16.3779   24.3519 C   0  0  0  0  0  0  0  0  0  0  0  0
   10.9570  -16.5426   25.1657 C   0  0  2  0  0  0  0  0  0  0  0  0
   10.2069  -15.2842   25.1396 N   0  0  0  0  0  0  0  0  0  0  0  0
   11.2019  -16.8814   26.5774 C   0  0  0  0  0  0  0  0  0  0  0  0
   11.5545  -18.2107   26.8843 O   0  0  0  0  0  0  0  0  0  0  0  0
   11.1165  -16.0555   27.5380 O   0  0  0  0  0  0  0  0  0  0  0  0
  2  3  1  0
  2  1  1  6
  4  3  1  0
  5  2  1  0
  6  5  2  0
  7  8  1  0
  9  8  1  0
  9 11  1  0
  9 10  1  1
 11 12  1  6
 12  5  1  0
 13 11  1  0
 13 14  2  0
 16 17  2  0
 16 15  1  0
 18 16  1  0
 19 18  1  0
 20 21  1  0
 20 19  1  0
 22 21  1  6
 22 23  1  0
 23 13  1  0
 24 22  1  0
 25 24  1  0
 26 24  2  0
M  END
$$$$
