CIR.pdb
     RDKit          3D

 26 25  0  0  1  0  0  0  0  0999 V2000
    7.3063  -14.6712   20.3577 N   0  0  0  0  0  0  0  0  0  0  0  0
    6.8378  -15.3040   21.5741 C   0  0  1  0  0  0  0  0  0  0  0  0
    6.6142  -16.7635   21.3674 C   0  0  0  0  0  0  0  0  0  0  0  0
    4.9014  -17.1449   21.8827 S   0  0  0  0  0  0  0  0  0  0  0  0
    7.6916  -14.9458   22.6914 C   0  0  0  0  0  0  0  0  0  0  0  0
    8.9364  -14.9217   22.5245 O   0  0  0  0  0  0  0  0  0  0  0  0
    6.3326  -11.1087   26.2165 C   0  0  0  0  0  0  0  0  0  0  0  0
    7.1505  -11.9517   25.2763 C   0  0  0  0  0  0  0  0  0  0  0  0
    7.5436  -13.2079   25.9878 C   0  0  2  0  0  0  0  0  0  0  0  0
    8.5425  -12.8617   27.0666 C   0  0  0  0  0  0  0  0  0  0  0  0
    8.1200  -14.2612   25.0748 C   0  0  2  0  0  0  0  0  0  0  0  0
    7.2166  -14.6113   23.9943 N   0  0  0  0  0  0  0  0  0  0  0  0
    8.4817  -15.4898   25.8298 C   0  0  0  0  0  0  0  0  0  0  0  0
    7.5619  -16.1873   26.3767 O   0  0  0  0  0  0  0  0  0  0  0  0
   12.9892  -20.7163   22.6425 N   0  0  0  0  0  0  0  0  0  0  0  0
   12.6465  -19.4847   22.0326 C   0  0  0  0  0  0  0  0  0  0  0  0
   12.1199  -19.4794   20.8693 N   0  0  0  0  0  0  0  0  0  0  0  0
   12.8909  -18.2715   22.7178 N   0  0  0  0  0  0  0  0  0  0  0  0
   12.9045  -18.2022   24.1665 C   0  0  0  0  0  0  0  0  0  0  0  0
   11.5268  -17.7439   24.6372 C   0  0  0  0  0  0  0  0  0  0  0  0
   11.4359  -17.7189   26.1237 C   0  0  0  0  0  0  0  0  0  0  0  0
   10.0965  -17.2165   26.5946 C   0  0  2  0  0  0  0  0  0  0  0  0
    9.8285  -15.9203   25.9660 N   0  0  0  0  0  0  0  0  0  0  0  0
   10.0106  -17.0265   28.0520 C   0  0  0  0  0  0  0  0  0  0  0  0
    9.8863  -18.1743   28.8599 O   0  0  0  0  0  0  0  0  0  0  0  0
   10.0409  -15.8967   28.6306 O   0  0  0  0  0  0  0  0  0  0  0  0
  2  3  1  0
  2  1  1  6
  4  3  1  0
  5  2  1  0
  6  5  2  0
  7  8  1  0
  9  8  1  0
  9 11  1  0
  9 10  1  1
 11 12  1  6
 12  5  1  0
 13 11  1  0
 13 14  2  0
 16 17  2  0
 16 15  1  0
 18 16  1  0
 19 18  1  0
 20 21  1  0
 20 19  1  0
 22 21  1  1
 22 23  1  0
 23 13  1  0
 24 22  1  0
 25 24  1  0
 26 24  2  0
M  END
$$$$
