IAM.pdb
     RDKit          3D

 22 21  0  0  1  0  0  0  0  0999 V2000
    5.9795  -11.5788   27.0480 C   0  0  0  0  0  0  0  0  0  0  0  0
    5.5528  -12.8756   26.4498 C   0  0  0  0  0  0  0  0  0  0  0  0
    6.6511  -13.6553   25.8078 C   0  0  2  0  0  0  0  0  0  0  0  0
    7.3025  -12.7583   24.7561 C   0  0  0  0  0  0  0  0  0  0  0  0
    6.2058  -14.9026   25.1063 C   0  0  2  0  0  0  0  0  0  0  0  0
    5.6381  -15.7746   26.1428 N   0  0  0  0  0  0  0  0  0  0  0  0
    7.3509  -15.6064   24.4892 C   0  0  0  0  0  0  0  0  0  0  0  0
    7.9177  -16.5977   25.0459 O   0  0  0  0  0  0  0  0  0  0  0  0
    9.0338  -15.3826   21.0921 C   0  0  0  0  0  0  0  0  0  0  0  0
    8.8114  -15.9772   22.4650 C   0  0  2  0  0  0  0  0  0  0  0  0
    7.8683  -15.2055   23.2451 N   0  0  0  0  0  0  0  0  0  0  0  0
   10.1176  -15.9263   23.1727 C   0  0  0  0  0  0  0  0  0  0  0  0
   11.2144  -16.0593   22.5708 O   0  0  0  0  0  0  0  0  0  0  0  0
   11.0528  -14.9179   29.8225 C   0  0  0  0  0  0  0  0  0  0  0  0
   10.8506  -13.6556   28.5242 S   0  0  0  0  0  0  0  0  0  0  0  0
   10.2125  -14.5481   27.0527 C   0  0  0  0  0  0  0  0  0  0  0  0
   11.2281  -15.6304   26.7596 C   0  0  0  0  0  0  0  0  0  0  0  0
   11.4300  -15.8481   25.2714 C   0  0  2  0  0  0  0  0  0  0  0  0
   10.1656  -15.7221   24.5777 N   0  0  0  0  0  0  0  0  0  0  0  0
   12.0203  -17.1463   24.9643 C   0  0  0  0  0  0  0  0  0  0  0  0
   13.2597  -17.2661   24.8393 O   0  0  0  0  0  0  0  0  0  0  0  0
   11.2278  -18.2677   24.8054 O   0  0  0  0  0  0  0  0  0  0  0  0
  1  2  1  0
  3  2  1  0
  3  5  1  0
  3  4  1  6
  5  7  1  0
  5  6  1  1
  7 11  1  0
  7  8  2  0
 10  9  1  6
 10 12  1  0
 11 10  1  0
 12 13  2  0
 15 14  1  0
 15 16  1  0
 16 17  1  0
 18 17  1  1
 19 18  1  0
 19 12  1  0
 20 18  1  0
 20 22  1  0
 21 20  2  0
M  END
$$$$
