IAM.pdb
     RDKit          3D

 22 21  0  0  1  0  0  0  0  0999 V2000
    8.2886  -12.1259   20.4346 C   0  0  0  0  0  0  0  0  0  0  0  0
    8.1913  -13.5728   20.7785 C   0  0  0  0  0  0  0  0  0  0  0  0
    7.9592  -14.4746   19.6127 C   0  0  2  0  0  0  0  0  0  0  0  0
    6.6051  -14.1090   19.0064 C   0  0  0  0  0  0  0  0  0  0  0  0
    7.9095  -15.9340   19.9506 C   0  0  2  0  0  0  0  0  0  0  0  0
    6.8880  -16.0774   20.9960 N   0  0  0  0  0  0  0  0  0  0  0  0
    9.2007  -16.3992   20.5017 C   0  0  0  0  0  0  0  0  0  0  0  0
   10.2598  -16.4453   19.8018 O   0  0  0  0  0  0  0  0  0  0  0  0
   11.7421  -16.4596   21.7638 C   0  0  0  0  0  0  0  0  0  0  0  0
   10.5706  -17.0459   22.5199 C   0  0  2  0  0  0  0  0  0  0  0  0
    9.3146  -16.8153   21.8397 N   0  0  0  0  0  0  0  0  0  0  0  0
   10.5034  -16.3382   23.8254 C   0  0  0  0  0  0  0  0  0  0  0  0
   11.5331  -16.0536   24.4900 O   0  0  0  0  0  0  0  0  0  0  0  0
    6.9942  -10.8541   26.6354 C   0  0  0  0  0  0  0  0  0  0  0  0
    6.3508  -12.5507   26.8017 S   0  0  0  0  0  0  0  0  0  0  0  0
    7.8242  -13.6293   26.9878 C   0  0  0  0  0  0  0  0  0  0  0  0
    8.0188  -14.2904   25.6410 C   0  0  0  0  0  0  0  0  0  0  0  0
    9.2101  -15.2303   25.6234 C   0  0  2  0  0  0  0  0  0  0  0  0
    9.2489  -15.9553   24.3709 N   0  0  0  0  0  0  0  0  0  0  0  0
    9.1971  -16.1811   26.7298 C   0  0  0  0  0  0  0  0  0  0  0  0
    8.8655  -17.3725   26.5387 O   0  0  0  0  0  0  0  0  0  0  0  0
    9.5494  -15.7891   28.0077 O   0  0  0  0  0  0  0  0  0  0  0  0
  1  2  1  0
  3  2  1  0
  3  5  1  0
  3  4  1  1
  5  7  1  0
  5  6  1  1
  7 11  1  0
  7  8  2  0
 10  9  1  6
 10 12  1  0
 11 10  1  0
 12 13  2  0
 15 14  1  0
 15 16  1  0
 16 17  1  0
 18 17  1  6
 19 18  1  0
 19 12  1  0
 20 18  1  0
 20 22  1  0
 21 20  2  0
M  END
$$$$
