IAM.pdb
     RDKit          3D

 22 21  0  0  1  0  0  0  0  0999 V2000
    7.5631  -11.9308   19.4126 C   0  0  0  0  0  0  0  0  0  0  0  0
    7.5624  -13.4199   19.3493 C   0  0  0  0  0  0  0  0  0  0  0  0
    7.8255  -14.0976   20.6523 C   0  0  2  0  0  0  0  0  0  0  0  0
    9.2219  -13.6848   21.1156 C   0  0  0  0  0  0  0  0  0  0  0  0
    7.8070  -15.5951   20.5939 C   0  0  2  0  0  0  0  0  0  0  0  0
    6.4887  -15.9677   20.0647 N   0  0  0  0  0  0  0  0  0  0  0  0
    7.9444  -16.1842   21.9436 C   0  0  0  0  0  0  0  0  0  0  0  0
    7.1150  -15.9454   22.8756 O   0  0  0  0  0  0  0  0  0  0  0  0
   10.3787  -18.6080   23.5658 C   0  0  0  0  0  0  0  0  0  0  0  0
    9.2594  -17.5906   23.5749 C   0  0  2  0  0  0  0  0  0  0  0  0
    9.0107  -17.0447   22.2582 N   0  0  0  0  0  0  0  0  0  0  0  0
    9.7048  -16.4686   24.4423 C   0  0  0  0  0  0  0  0  0  0  0  0
   10.5829  -15.6444   24.0780 O   0  0  0  0  0  0  0  0  0  0  0  0
    6.6554  -11.8068   26.0520 C   0  0  0  0  0  0  0  0  0  0  0  0
    7.1986  -12.0506   27.7740 S   0  0  0  0  0  0  0  0  0  0  0  0
    8.7178  -13.0763   27.6797 C   0  0  0  0  0  0  0  0  0  0  0  0
    8.3817  -14.2185   26.7464 C   0  0  0  0  0  0  0  0  0  0  0  0
    9.5521  -15.1625   26.5408 C   0  0  2  0  0  0  0  0  0  0  0  0
    9.1403  -16.2916   25.7337 N   0  0  0  0  0  0  0  0  0  0  0  0
   10.1151  -15.6477   27.7960 C   0  0  0  0  0  0  0  0  0  0  0  0
    9.9516  -16.8377   28.1467 O   0  0  0  0  0  0  0  0  0  0  0  0
   10.8385  -14.8079   28.6221 O   0  0  0  0  0  0  0  0  0  0  0  0
  1  2  1  0
  3  2  1  0
  3  5  1  0
  3  4  1  6
  5  7  1  0
  5  6  1  1
  7 11  1  0
  7  8  2  0
 10  9  1  6
 10 12  1  0
 11 10  1  0
 12 13  2  0
 15 14  1  0
 15 16  1  0
 16 17  1  0
 18 17  1  1
 19 18  1  0
 19 12  1  0
 20 18  1  0
 20 22  1  0
 21 20  2  0
M  END
$$$$
