IAM.pdb
     RDKit          3D

 22 21  0  0  1  0  0  0  0  0999 V2000
    5.7760  -11.6000   26.8746 C   0  0  0  0  0  0  0  0  0  0  0  0
    5.4805  -12.8949   26.1982 C   0  0  0  0  0  0  0  0  0  0  0  0
    6.6832  -13.6268   25.7042 C   0  0  2  0  0  0  0  0  0  0  0  0
    7.4113  -12.7114   24.7210 C   0  0  0  0  0  0  0  0  0  0  0  0
    6.3845  -14.9030   24.9773 C   0  0  2  0  0  0  0  0  0  0  0  0
    5.7096  -15.7771   25.9455 N   0  0  0  0  0  0  0  0  0  0  0  0
    7.6286  -15.5734   24.5412 C   0  0  0  0  0  0  0  0  0  0  0  0
    8.3885  -16.1877   25.3530 O   0  0  0  0  0  0  0  0  0  0  0  0
    9.3935  -16.0103   21.2031 C   0  0  0  0  0  0  0  0  0  0  0  0
    9.1677  -16.2868   22.6729 C   0  0  2  0  0  0  0  0  0  0  0  0
    8.0297  -15.5608   23.1939 N   0  0  0  0  0  0  0  0  0  0  0  0
   10.3725  -15.7972   23.3929 C   0  0  0  0  0  0  0  0  0  0  0  0
   10.6218  -14.5717   23.5309 O   0  0  0  0  0  0  0  0  0  0  0  0
   11.3712  -14.7698   29.2891 C   0  0  0  0  0  0  0  0  0  0  0  0
   10.0114  -14.4353   28.1235 S   0  0  0  0  0  0  0  0  0  0  0  0
   10.7346  -14.6122   26.4458 C   0  0  0  0  0  0  0  0  0  0  0  0
   11.0451  -16.0845   26.2883 C   0  0  0  0  0  0  0  0  0  0  0  0
   12.0196  -16.3535   25.1565 C   0  0  2  0  0  0  0  0  0  0  0  0
   11.2954  -16.7179   23.9571 N   0  0  0  0  0  0  0  0  0  0  0  0
   12.9818  -17.4026   25.4755 C   0  0  0  0  0  0  0  0  0  0  0  0
   12.6817  -18.6074   25.3195 O   0  0  0  0  0  0  0  0  0  0  0  0
   14.2403  -17.0908   25.9547 O   0  0  0  0  0  0  0  0  0  0  0  0
  1  2  1  0
  3  2  1  0
  3  5  1  0
  3  4  1  6
  5  7  1  0
  5  6  1  1
  7 11  1  0
  7  8  2  0
 10  9  1  6
 10 12  1  0
 11 10  1  0
 12 13  2  0
 15 14  1  0
 15 16  1  0
 16 17  1  0
 18 17  1  1
 19 18  1  0
 19 12  1  0
 20 18  1  0
 20 22  1  0
 21 20  2  0
M  END
$$$$
