IAM.pdb
     RDKit          3D

 22 21  0  0  1  0  0  0  0  0999 V2000
    7.8318  -11.7548   20.5757 C   0  0  0  0  0  0  0  0  0  0  0  0
    7.6551  -13.2206   20.3715 C   0  0  0  0  0  0  0  0  0  0  0  0
    8.7104  -13.8634   19.5352 C   0  0  2  0  0  0  0  0  0  0  0  0
    8.6631  -13.2165   18.1517 C   0  0  0  0  0  0  0  0  0  0  0  0
    8.5387  -15.3389   19.3361 C   0  0  2  0  0  0  0  0  0  0  0  0
    7.2491  -15.5127   18.6554 N   0  0  0  0  0  0  0  0  0  0  0  0
    8.4745  -16.0490   20.6319 C   0  0  0  0  0  0  0  0  0  0  0  0
    7.3722  -16.3321   21.1964 O   0  0  0  0  0  0  0  0  0  0  0  0
   10.8866  -18.1669   22.5374 C   0  0  0  0  0  0  0  0  0  0  0  0
    9.6630  -17.2791   22.4873 C   0  0  2  0  0  0  0  0  0  0  0  0
    9.6435  -16.4472   21.3037 N   0  0  0  0  0  0  0  0  0  0  0  0
    9.7400  -16.3736   23.6636 C   0  0  0  0  0  0  0  0  0  0  0  0
    9.9038  -15.1316   23.5468 O   0  0  0  0  0  0  0  0  0  0  0  0
    6.6682  -12.0109   26.8549 C   0  0  0  0  0  0  0  0  0  0  0  0
    6.4286  -13.2349   25.5268 S   0  0  0  0  0  0  0  0  0  0  0  0
    8.0720  -14.0048   25.2524 C   0  0  0  0  0  0  0  0  0  0  0  0
    8.0078  -15.3561   25.9296 C   0  0  0  0  0  0  0  0  0  0  0  0
    9.3767  -15.9929   26.0835 C   0  0  2  0  0  0  0  0  0  0  0  0
    9.6287  -16.8955   24.9801 N   0  0  0  0  0  0  0  0  0  0  0  0
    9.5260  -16.7166   27.3413 C   0  0  0  0  0  0  0  0  0  0  0  0
    9.0901  -17.8839   27.4573 O   0  0  0  0  0  0  0  0  0  0  0  0
   10.1495  -16.1322   28.4278 O   0  0  0  0  0  0  0  0  0  0  0  0
  1  2  1  0
  3  2  1  0
  3  5  1  0
  3  4  1  6
  5  7  1  0
  5  6  1  1
  7 11  1  0
  7  8  2  0
 10  9  1  6
 10 12  1  0
 11 10  1  0
 12 13  2  0
 15 14  1  0
 15 16  1  0
 16 17  1  0
 18 17  1  6
 19 18  1  0
 19 12  1  0
 20 18  1  0
 20 22  1  0
 21 20  2  0
M  END
$$$$
