IAM.pdb
     RDKit          3D

 22 21  0  0  1  0  0  0  0  0999 V2000
    7.7381  -11.7386   20.0713 C   0  0  0  0  0  0  0  0  0  0  0  0
    7.6500  -13.1990   19.7870 C   0  0  0  0  0  0  0  0  0  0  0  0
    7.9119  -14.0783   20.9636 C   0  0  2  0  0  0  0  0  0  0  0  0
    9.3611  -13.8565   21.3943 C   0  0  0  0  0  0  0  0  0  0  0  0
    7.7525  -15.5445   20.6970 C   0  0  2  0  0  0  0  0  0  0  0  0
    6.3758  -15.7262   20.2190 N   0  0  0  0  0  0  0  0  0  0  0  0
    7.9172  -16.3340   21.9368 C   0  0  0  0  0  0  0  0  0  0  0  0
    7.0345  -16.3548   22.8501 O   0  0  0  0  0  0  0  0  0  0  0  0
    9.9045  -19.2949   22.8945 C   0  0  0  0  0  0  0  0  0  0  0  0
    9.2560  -17.9879   23.2935 C   0  0  2  0  0  0  0  0  0  0  0  0
    9.0707  -17.1055   22.1618 N   0  0  0  0  0  0  0  0  0  0  0  0
   10.1901  -17.3131   24.2325 C   0  0  0  0  0  0  0  0  0  0  0  0
   11.1816  -16.6492   23.8338 O   0  0  0  0  0  0  0  0  0  0  0  0
    9.4120  -13.4168   29.3313 C   0  0  0  0  0  0  0  0  0  0  0  0
    9.8226  -13.2537   27.5636 S   0  0  0  0  0  0  0  0  0  0  0  0
    9.4231  -14.8765   26.8047 C   0  0  0  0  0  0  0  0  0  0  0  0
   10.3095  -15.8834   27.5040 C   0  0  0  0  0  0  0  0  0  0  0  0
   10.9742  -16.8427   26.5340 C   0  0  2  0  0  0  0  0  0  0  0  0
    9.9856  -17.4008   25.6355 N   0  0  0  0  0  0  0  0  0  0  0  0
   11.6810  -17.9277   27.2059 C   0  0  0  0  0  0  0  0  0  0  0  0
   11.2150  -19.0890   27.1985 O   0  0  0  0  0  0  0  0  0  0  0  0
   12.8756  -17.6983   27.8625 O   0  0  0  0  0  0  0  0  0  0  0  0
  1  2  1  0
  3  2  1  0
  3  5  1  0
  3  4  1  6
  5  7  1  0
  5  6  1  1
  7 11  1  0
  7  8  2  0
 10  9  1  6
 10 12  1  0
 11 10  1  0
 12 13  2  0
 15 14  1  0
 15 16  1  0
 16 17  1  0
 18 17  1  1
 19 18  1  0
 19 12  1  0
 20 18  1  0
 20 22  1  0
 21 20  2  0
M  END
$$$$
