IAM.pdb
     RDKit          3D

 22 21  0  0  1  0  0  0  0  0999 V2000
    6.3799  -11.7365   27.0439 C   0  0  0  0  0  0  0  0  0  0  0  0
    5.8400  -12.9033   26.2899 C   0  0  0  0  0  0  0  0  0  0  0  0
    6.8771  -13.7599   25.6441 C   0  0  2  0  0  0  0  0  0  0  0  0
    7.7035  -12.8684   24.7183 C   0  0  0  0  0  0  0  0  0  0  0  0
    6.3330  -14.8777   24.8070 C   0  0  2  0  0  0  0  0  0  0  0  0
    5.5355  -15.7158   25.7117 N   0  0  0  0  0  0  0  0  0  0  0  0
    7.4231  -15.7085   24.2511 C   0  0  0  0  0  0  0  0  0  0  0  0
    7.8655  -16.7370   24.8512 O   0  0  0  0  0  0  0  0  0  0  0  0
    9.2665  -15.7625   20.9353 C   0  0  0  0  0  0  0  0  0  0  0  0
    9.0004  -16.2257   22.3504 C   0  0  2  0  0  0  0  0  0  0  0  0
    8.0244  -15.3935   23.0201 N   0  0  0  0  0  0  0  0  0  0  0  0
   10.2804  -16.0930   23.0945 C   0  0  0  0  0  0  0  0  0  0  0  0
   11.3960  -16.0628   22.5136 O   0  0  0  0  0  0  0  0  0  0  0  0
   10.9231  -14.0489   29.6672 C   0  0  0  0  0  0  0  0  0  0  0  0
    9.6045  -14.6793   28.5793 S   0  0  0  0  0  0  0  0  0  0  0  0
   10.2247  -14.4664   26.8650 C   0  0  0  0  0  0  0  0  0  0  0  0
   11.2794  -15.5347   26.6769 C   0  0  0  0  0  0  0  0  0  0  0  0
   11.5373  -15.8432   25.2136 C   0  0  2  0  0  0  0  0  0  0  0  0
   10.2802  -15.9947   24.5116 N   0  0  0  0  0  0  0  0  0  0  0  0
   12.3434  -17.0438   25.0219 C   0  0  0  0  0  0  0  0  0  0  0  0
   11.8591  -18.0497   24.4565 O   0  0  0  0  0  0  0  0  0  0  0  0
   13.6540  -17.0969   25.4583 O   0  0  0  0  0  0  0  0  0  0  0  0
  1  2  1  0
  3  2  1  0
  3  5  1  0
  3  4  1  6
  5  7  1  0
  5  6  1  1
  7 11  1  0
  7  8  2  0
 10  9  1  6
 10 12  1  0
 11 10  1  0
 12 13  2  0
 15 14  1  0
 15 16  1  0
 16 17  1  0
 18 17  1  1
 19 18  1  0
 19 12  1  0
 20 18  1  0
 20 22  1  0
 21 20  2  0
M  END
$$$$
