IAM.pdb
     RDKit          3D

 22 21  0  0  1  0  0  0  0  0999 V2000
    7.9492  -11.7641   19.8478 C   0  0  0  0  0  0  0  0  0  0  0  0
    7.8353  -13.2377   19.6559 C   0  0  0  0  0  0  0  0  0  0  0  0
    9.1288  -13.9316   19.3883 C   0  0  2  0  0  0  0  0  0  0  0  0
    9.6847  -13.3849   18.0741 C   0  0  0  0  0  0  0  0  0  0  0  0
    9.0214  -15.4186   19.2349 C   0  0  2  0  0  0  0  0  0  0  0  0
    8.0545  -15.6496   18.1538 N   0  0  0  0  0  0  0  0  0  0  0  0
    8.4939  -16.0460   20.4660 C   0  0  0  0  0  0  0  0  0  0  0  0
    7.2508  -16.0956   20.7230 O   0  0  0  0  0  0  0  0  0  0  0  0
    9.4770  -18.6475   22.7982 C   0  0  0  0  0  0  0  0  0  0  0  0
    8.9136  -17.2524   22.6424 C   0  0  2  0  0  0  0  0  0  0  0  0
    9.3543  -16.6222   21.4168 N   0  0  0  0  0  0  0  0  0  0  0  0
    9.4455  -16.4449   23.7714 C   0  0  0  0  0  0  0  0  0  0  0  0
   10.6292  -16.0193   23.7949 O   0  0  0  0  0  0  0  0  0  0  0  0
    5.8908  -12.8934   27.2566 C   0  0  0  0  0  0  0  0  0  0  0  0
    6.8358  -11.9662   26.0047 S   0  0  0  0  0  0  0  0  0  0  0  0
    8.0908  -13.1376   25.3552 C   0  0  0  0  0  0  0  0  0  0  0  0
    8.1645  -14.2594   26.3675 C   0  0  0  0  0  0  0  0  0  0  0  0
    9.1551  -15.3372   25.9672 C   0  0  2  0  0  0  0  0  0  0  0  0
    8.6154  -16.1245   24.8787 N   0  0  0  0  0  0  0  0  0  0  0  0
    9.5068  -16.2215   27.0728 C   0  0  0  0  0  0  0  0  0  0  0  0
    9.0075  -17.3661   27.1533 O   0  0  0  0  0  0  0  0  0  0  0  0
   10.3953  -15.8168   28.0514 O   0  0  0  0  0  0  0  0  0  0  0  0
  1  2  1  0
  3  2  1  0
  3  5  1  0
  3  4  1  6
  5  7  1  0
  5  6  1  6
  7 11  1  0
  7  8  2  0
 10  9  1  1
 10 12  1  0
 11 10  1  0
 12 13  2  0
 15 14  1  0
 15 16  1  0
 16 17  1  0
 18 17  1  1
 19 18  1  0
 19 12  1  0
 20 18  1  0
 20 22  1  0
 21 20  2  0
M  END
$$$$
