IAM.pdb
     RDKit          3D

 22 21  0  0  1  0  0  0  0  0999 V2000
    7.2208  -11.8735   19.4196 C   0  0  0  0  0  0  0  0  0  0  0  0
    7.7876  -13.2487   19.3248 C   0  0  0  0  0  0  0  0  0  0  0  0
    7.8366  -13.9913   20.6180 C   0  0  2  0  0  0  0  0  0  0  0  0
    8.7717  -13.2283   21.5553 C   0  0  0  0  0  0  0  0  0  0  0  0
    8.3629  -15.3910   20.5164 C   0  0  2  0  0  0  0  0  0  0  0  0
    7.4650  -16.0999   19.5955 N   0  0  0  0  0  0  0  0  0  0  0  0
    8.3139  -16.0766   21.8260 C   0  0  0  0  0  0  0  0  0  0  0  0
    7.2180  -16.3659   22.3997 O   0  0  0  0  0  0  0  0  0  0  0  0
   10.5029  -18.2740   23.7857 C   0  0  0  0  0  0  0  0  0  0  0  0
    9.5231  -17.1216   23.7789 C   0  0  2  0  0  0  0  0  0  0  0  0
    9.4912  -16.4431   22.5013 N   0  0  0  0  0  0  0  0  0  0  0  0
   10.0040  -16.1421   24.7883 C   0  0  0  0  0  0  0  0  0  0  0  0
   11.0549  -15.4697   24.6258 O   0  0  0  0  0  0  0  0  0  0  0  0
    5.9921  -12.3926   26.4861 C   0  0  0  0  0  0  0  0  0  0  0  0
    7.6089  -11.7193   26.9887 S   0  0  0  0  0  0  0  0  0  0  0  0
    8.8605  -12.9188   26.3856 C   0  0  0  0  0  0  0  0  0  0  0  0
    8.9153  -14.0115   27.4306 C   0  0  0  0  0  0  0  0  0  0  0  0
    9.8610  -15.1343   27.0459 C   0  0  2  0  0  0  0  0  0  0  0  0
    9.2757  -15.9332   25.9899 N   0  0  0  0  0  0  0  0  0  0  0  0
   10.2009  -15.9983   28.1712 C   0  0  0  0  0  0  0  0  0  0  0  0
    9.7464  -17.1623   28.2373 O   0  0  0  0  0  0  0  0  0  0  0  0
   11.0289  -15.5527   29.1844 O   0  0  0  0  0  0  0  0  0  0  0  0
  1  2  1  0
  3  2  1  0
  3  5  1  0
  3  4  1  1
  5  7  1  0
  5  6  1  6
  7 11  1  0
  7  8  2  0
 10  9  1  6
 10 12  1  0
 11 10  1  0
 12 13  2  0
 15 14  1  0
 15 16  1  0
 16 17  1  0
 18 17  1  1
 19 18  1  0
 19 12  1  0
 20 18  1  0
 20 22  1  0
 21 20  2  0
M  END
$$$$
