IAM.pdb
     RDKit          3D

 22 21  0  0  1  0  0  0  0  0999 V2000
    7.5258  -12.0091   19.2728 C   0  0  0  0  0  0  0  0  0  0  0  0
    7.6043  -13.4964   19.2162 C   0  0  0  0  0  0  0  0  0  0  0  0
    7.9526  -14.1502   20.5114 C   0  0  2  0  0  0  0  0  0  0  0  0
    9.3569  -13.6899   20.8998 C   0  0  0  0  0  0  0  0  0  0  0  0
    7.9773  -15.6482   20.4696 C   0  0  2  0  0  0  0  0  0  0  0  0
    6.6410  -16.0673   20.0275 N   0  0  0  0  0  0  0  0  0  0  0  0
    8.2165  -16.2164   21.8140 C   0  0  0  0  0  0  0  0  0  0  0  0
    7.3933  -16.0670   22.7698 O   0  0  0  0  0  0  0  0  0  0  0  0
   10.9473  -18.3664   23.3510 C   0  0  0  0  0  0  0  0  0  0  0  0
    9.6883  -17.5289   23.3885 C   0  0  2  0  0  0  0  0  0  0  0  0
    9.3783  -16.9556   22.0967 N   0  0  0  0  0  0  0  0  0  0  0  0
    9.9490  -16.4017   24.3219 C   0  0  0  0  0  0  0  0  0  0  0  0
   10.7116  -15.4459   24.0258 O   0  0  0  0  0  0  0  0  0  0  0  0
    6.7252  -11.9413   25.7730 C   0  0  0  0  0  0  0  0  0  0  0  0
    7.0524  -12.2518   27.5382 S   0  0  0  0  0  0  0  0  0  0  0  0
    8.5966  -13.2424   27.5948 C   0  0  0  0  0  0  0  0  0  0  0  0
    8.4045  -14.3556   26.5885 C   0  0  0  0  0  0  0  0  0  0  0  0
    9.6118  -15.2708   26.4991 C   0  0  2  0  0  0  0  0  0  0  0  0
    9.3320  -16.3713   25.6011 N   0  0  0  0  0  0  0  0  0  0  0  0
   10.0185  -15.7995   27.7964 C   0  0  0  0  0  0  0  0  0  0  0  0
    9.8827  -17.0159   28.0567 O   0  0  0  0  0  0  0  0  0  0  0  0
   10.5604  -14.9725   28.7626 O   0  0  0  0  0  0  0  0  0  0  0  0
  1  2  1  0
  3  2  1  0
  3  5  1  0
  3  4  1  6
  5  7  1  0
  5  6  1  1
  7 11  1  0
  7  8  2  0
 10  9  1  6
 10 12  1  0
 11 10  1  0
 12 13  2  0
 15 14  1  0
 15 16  1  0
 16 17  1  0
 18 17  1  1
 19 18  1  0
 19 12  1  0
 20 18  1  0
 20 22  1  0
 21 20  2  0
M  END
$$$$
