MRT.pdb
     RDKit          3D

 27 26  0  0  1  0  0  0  0  0999 V2000
   32.3679  -23.6770  -12.0651 C   0  0  0  0  0  0  0  0  0  0  0  0
   32.7770  -22.7225  -10.5948 S   0  0  0  0  0  0  0  0  0  0  0  0
   31.6533  -21.2942  -10.5005 C   0  0  0  0  0  0  0  0  0  0  0  0
   30.4167  -21.6107  -11.2912 C   0  0  0  0  0  0  0  0  0  0  0  0
   29.5289  -20.3821  -11.3825 C   0  0  2  0  0  0  0  0  0  0  0  0
   29.4032  -19.7879  -10.0725 N   0  0  0  0  0  0  0  0  0  0  0  0
   28.2035  -20.8350  -11.8856 C   0  0  0  0  0  0  0  0  0  0  0  0
   28.1646  -21.4741  -12.9657 O   0  0  0  0  0  0  0  0  0  0  0  0
   20.2825  -22.1385   -8.1200 N   0  0  0  0  0  0  0  0  0  0  0  0
   20.0815  -22.2151   -9.5263 C   0  0  0  0  0  0  0  0  0  0  0  0
   18.8908  -22.3891   -9.9707 N   0  0  0  0  0  0  0  0  0  0  0  0
   21.1964  -22.0963  -10.3735 N   0  0  0  0  0  0  0  0  0  0  0  0
   22.4491  -21.6254   -9.8391 C   0  0  0  0  0  0  0  0  0  0  0  0
   23.4138  -21.5234  -10.9877 C   0  0  0  0  0  0  0  0  0  0  0  0
   24.7771  -21.1028  -10.5316 C   0  0  0  0  0  0  0  0  0  0  0  0
   25.7014  -21.0146  -11.7079 C   0  0  2  0  0  0  0  0  0  0  0  0
   26.9936  -20.5828  -11.2116 N   0  0  0  0  0  0  0  0  0  0  0  0
   25.2084  -19.9863  -12.6955 C   0  0  0  0  0  0  0  0  0  0  0  0
   25.2167  -18.7739  -12.3823 O   0  0  0  0  0  0  0  0  0  0  0  0
   18.6888  -22.4751  -10.9714 C   0  0  0  0  0  0  0  0  0  0  0  0
   26.2534  -18.7985  -16.0638 C   0  0  2  0  0  0  0  0  0  0  0  0
   24.8559  -19.3549  -16.2338 O   0  0  0  0  0  0  0  0  0  0  0  0
   24.9624  -20.6661  -16.7114 C   0  0  2  0  0  0  0  0  0  0  0  0
   24.1573  -19.3512  -14.8936 N   0  0  0  0  0  0  0  0  0  0  0  0
   24.7269  -20.3271  -13.9842 C   0  0  0  0  0  0  0  0  0  0  0  0
   22.7032  -19.6233  -15.0651 O   0  0  0  0  0  0  0  0  0  0  0  0
   22.2120  -20.7257  -14.7125 O   0  0  0  0  0  0  0  0  0  0  0  0
  2  1  1  0
  3  4  1  0
  3  2  1  0
  4  5  1  0
  5  6  1  1
  7  8  2  0
  7  5  1  0
 10  9  1  0
 11 10  2  0
 12 10  1  0
 13 12  1  0
 14 13  1  0
 14 15  1  0
 16 15  1  1
 16 17  1  0
 17  7  1  0
 18 19  2  0
 18 16  1  0
 21 20  1  6
 21 22  1  0
 23 21  1  0
 23 24  1  6
 24 18  1  0
 25 23  1  0
 26 25  2  0
 27 25  1  0
M  END
$$$$
