MRT.pdb
     RDKit          3D

 27 26  0  0  1  0  0  0  0  0999 V2000
   14.1490  -22.4144   -5.1653 C   0  0  0  0  0  0  0  0  0  0  0  0
   13.7131  -23.7700   -4.0641 S   0  0  0  0  0  0  0  0  0  0  0  0
   14.9875  -25.0616   -4.2034 C   0  0  0  0  0  0  0  0  0  0  0  0
   15.9864  -24.6325   -5.2389 C   0  0  0  0  0  0  0  0  0  0  0  0
   17.1258  -25.6339   -5.3090 C   0  0  2  0  0  0  0  0  0  0  0  0
   18.0119  -25.4251   -4.1881 N   0  0  0  0  0  0  0  0  0  0  0  0
   17.8376  -25.3993   -6.5947 C   0  0  0  0  0  0  0  0  0  0  0  0
   18.8079  -24.6024   -6.6001 O   0  0  0  0  0  0  0  0  0  0  0  0
   20.9625  -29.3110  -10.0982 N   0  0  0  0  0  0  0  0  0  0  0  0
   21.3653  -28.9227  -11.4062 C   0  0  0  0  0  0  0  0  0  0  0  0
   22.5950  -29.0676  -11.7415 N   0  0  0  0  0  0  0  0  0  0  0  0
   20.3988  -28.3961  -12.2800 N   0  0  0  0  0  0  0  0  0  0  0  0
   19.0371  -28.2521  -11.8312 C   0  0  0  0  0  0  0  0  0  0  0  0
   18.9513  -26.9550  -11.0759 C   0  0  0  0  0  0  0  0  0  0  0  0
   18.2754  -27.1282   -9.7506 C   0  0  0  0  0  0  0  0  0  0  0  0
   18.1785  -25.8054   -9.0531 C   0  0  2  0  0  0  0  0  0  0  0  0
   17.4774  -26.0255   -7.8030 N   0  0  0  0  0  0  0  0  0  0  0  0
   17.3774  -24.8277   -9.8767 C   0  0  0  0  0  0  0  0  0  0  0  0
   16.1322  -24.9448   -9.9378 O   0  0  0  0  0  0  0  0  0  0  0  0
   22.9293  -28.8692  -12.6894 C   0  0  0  0  0  0  0  0  0  0  0  0
   18.9473  -21.0542  -10.9679 C   0  0  2  0  0  0  0  0  0  0  0  0
   17.4789  -21.3650  -10.7712 O   0  0  0  0  0  0  0  0  0  0  0  0
   16.7328  -20.4242  -11.4902 C   0  0  1  0  0  0  0  0  0  0  0  0
   17.1947  -22.7544  -11.2937 N   0  0  0  0  0  0  0  0  0  0  0  0
   17.9719  -23.7629  -10.5988 C   0  0  0  0  0  0  0  0  0  0  0  0
   17.4791  -22.8285  -12.7537 O   0  0  0  0  0  0  0  0  0  0  0  0
   18.4257  -23.5337  -13.1868 O   0  0  0  0  0  0  0  0  0  0  0  0
  2  1  1  0
  3  4  1  0
  3  2  1  0
  4  5  1  0
  5  6  1  1
  7  8  2  0
  7  5  1  0
 10  9  1  0
 11 10  2  0
 12 10  1  0
 13 12  1  0
 14 13  1  0
 14 15  1  0
 16 15  1  6
 16 17  1  0
 17  7  1  0
 18 19  2  0
 18 16  1  0
 21 20  1  1
 21 22  1  0
 23 21  1  0
 23 24  1  1
 24 18  1  0
 25 23  1  0
 26 25  2  0
 27 25  1  0
M  END
$$$$
