MRT.pdb
     RDKit          3D

 27 26  0  0  1  0  0  0  0  0999 V2000
   21.7743  -21.1194  -24.6863 C   0  0  0  0  0  0  0  0  0  0  0  0
   19.9868  -21.0564  -24.8888 S   0  0  0  0  0  0  0  0  0  0  0  0
   19.2742  -20.1700  -23.4681 C   0  0  0  0  0  0  0  0  0  0  0  0
   20.3096  -20.1033  -22.3829 C   0  0  0  0  0  0  0  0  0  0  0  0
   19.8018  -19.2542  -21.2309 C   0  0  2  0  0  0  0  0  0  0  0  0
   20.6002  -18.0548  -21.1362 N   0  0  0  0  0  0  0  0  0  0  0  0
   19.9294  -20.0717  -19.9938 C   0  0  0  0  0  0  0  0  0  0  0  0
   19.1131  -21.0085  -19.8138 O   0  0  0  0  0  0  0  0  0  0  0  0
   26.9197  -21.6931  -15.4239 N   0  0  0  0  0  0  0  0  0  0  0  0
   26.2732  -22.2523  -16.5611 C   0  0  0  0  0  0  0  0  0  0  0  0
   26.9579  -22.9832  -17.3626 N   0  0  0  0  0  0  0  0  0  0  0  0
   24.9087  -21.9819  -16.7609 N   0  0  0  0  0  0  0  0  0  0  0  0
   24.1469  -21.3534  -15.7116 C   0  0  0  0  0  0  0  0  0  0  0  0
   22.7064  -21.3581  -16.1421 C   0  0  0  0  0  0  0  0  0  0  0  0
   22.4982  -20.5596  -17.3921 C   0  0  0  0  0  0  0  0  0  0  0  0
   21.0710  -20.6722  -17.8349 C   0  0  2  0  0  0  0  0  0  0  0  0
   20.9182  -19.8468  -19.0173 N   0  0  0  0  0  0  0  0  0  0  0  0
   20.1409  -20.1463  -16.7699 C   0  0  0  0  0  0  0  0  0  0  0  0
   20.3904  -19.0510  -16.2166 O   0  0  0  0  0  0  0  0  0  0  0  0
   26.5449  -23.4163  -18.1942 C   0  0  0  0  0  0  0  0  0  0  0  0
   16.2525  -21.7451  -16.3407 C   0  0  2  0  0  0  0  0  0  0  0  0
   16.6064  -20.3128  -16.0023 O   0  0  0  0  0  0  0  0  0  0  0  0
   15.6944  -19.8514  -15.0462 C   0  0  1  0  0  0  0  0  0  0  0  0
   18.0078  -20.2712  -15.4379 N   0  0  0  0  0  0  0  0  0  0  0  0
   18.9770  -20.8404  -16.3548 C   0  0  0  0  0  0  0  0  0  0  0  0
   18.0669  -20.9989  -14.1399 O   0  0  0  0  0  0  0  0  0  0  0  0
   18.7422  -22.0534  -14.0270 O   0  0  0  0  0  0  0  0  0  0  0  0
  2  1  1  0
  3  4  1  0
  3  2  1  0
  4  5  1  0
  5  6  1  1
  7  8  2  0
  7  5  1  0
 10  9  1  0
 11 10  2  0
 12 10  1  0
 13 12  1  0
 14 13  1  0
 14 15  1  0
 16 15  1  1
 16 17  1  0
 17  7  1  0
 18 19  2  0
 18 16  1  0
 21 20  1  6
 21 22  1  0
 23 21  1  0
 23 24  1  6
 24 18  1  0
 25 23  1  0
 26 25  2  0
 27 25  1  0
M  END
$$$$
