MRT.pdb
     RDKit          3D

 27 26  0  0  1  0  0  0  0  0999 V2000
   27.4697  -16.8429  -16.9823 C   0  0  0  0  0  0  0  0  0  0  0  0
   28.3339  -18.0132  -18.0423 S   0  0  0  0  0  0  0  0  0  0  0  0
   28.6854  -19.5166  -17.0790 C   0  0  0  0  0  0  0  0  0  0  0  0
   27.4214  -19.9457  -16.3915 C   0  0  0  0  0  0  0  0  0  0  0  0
   27.7011  -21.1257  -15.4775 C   0  0  2  0  0  0  0  0  0  0  0  0
   27.9864  -22.2916  -16.2801 N   0  0  0  0  0  0  0  0  0  0  0  0
   26.4817  -21.3394  -14.6516 C   0  0  0  0  0  0  0  0  0  0  0  0
   25.5717  -22.0710  -15.1134 O   0  0  0  0  0  0  0  0  0  0  0  0
   22.6567  -21.7872   -7.2477 N   0  0  0  0  0  0  0  0  0  0  0  0
   21.7231  -21.6911   -8.3168 C   0  0  0  0  0  0  0  0  0  0  0  0
   20.5420  -22.1626   -8.1486 N   0  0  0  0  0  0  0  0  0  0  0  0
   22.1321  -21.0822   -9.5155 N   0  0  0  0  0  0  0  0  0  0  0  0
   23.4453  -21.3572  -10.0411 C   0  0  0  0  0  0  0  0  0  0  0  0
   23.9928  -20.0621  -10.5735 C   0  0  0  0  0  0  0  0  0  0  0  0
   25.2953  -20.2613  -11.2856 C   0  0  0  0  0  0  0  0  0  0  0  0
   25.0464  -20.8257  -12.6513 C   0  0  2  0  0  0  0  0  0  0  0  0
   26.2983  -20.7630  -13.3804 N   0  0  0  0  0  0  0  0  0  0  0  0
   24.0278  -19.9955  -13.3921 C   0  0  0  0  0  0  0  0  0  0  0  0
   24.1736  -18.7537  -13.4609 O   0  0  0  0  0  0  0  0  0  0  0  0
   19.8275  -22.1194   -8.8816 C   0  0  0  0  0  0  0  0  0  0  0  0
   23.0728  -19.4015  -16.7309 C   0  0  2  0  0  0  0  0  0  0  0  0
   21.7879  -19.9235  -16.1243 O   0  0  0  0  0  0  0  0  0  0  0  0
   21.6739  -21.2814  -16.4435 C   0  0  2  0  0  0  0  0  0  0  0  0
   21.8453  -19.7513  -14.6239 N   0  0  0  0  0  0  0  0  0  0  0  0
   22.8922  -20.5583  -14.0267 C   0  0  0  0  0  0  0  0  0  0  0  0
   20.5356  -20.1055  -14.0099 O   0  0  0  0  0  0  0  0  0  0  0  0
   20.4453  -21.0652  -13.2026 O   0  0  0  0  0  0  0  0  0  0  0  0
  2  1  1  0
  3  4  1  0
  3  2  1  0
  4  5  1  0
  5  6  1  6
  7  8  2  0
  7  5  1  0
 10  9  1  0
 11 10  2  0
 12 10  1  0
 13 12  1  0
 14 13  1  0
 14 15  1  0
 16 15  1  1
 16 17  1  0
 17  7  1  0
 18 19  2  0
 18 16  1  0
 21 20  1  6
 21 22  1  0
 23 21  1  0
 23 24  1  1
 24 18  1  0
 25 23  1  0
 26 25  2  0
 27 25  1  0
M  END
$$$$
