MRT.pdb
     RDKit          3D

 27 26  0  0  1  0  0  0  0  0999 V2000
   28.3647  -19.9212   -4.1641 C   0  0  0  0  0  0  0  0  0  0  0  0
   27.3436  -20.2603   -5.6072 S   0  0  0  0  0  0  0  0  0  0  0  0
   28.3606  -20.0411   -7.1003 C   0  0  0  0  0  0  0  0  0  0  0  0
   27.4700  -19.5779   -8.2169 C   0  0  0  0  0  0  0  0  0  0  0  0
   27.0825  -20.7544   -9.0954 C   0  0  2  0  0  0  0  0  0  0  0  0
   28.2741  -21.4741   -9.4789 N   0  0  0  0  0  0  0  0  0  0  0  0
   26.3931  -20.1999  -10.2921 C   0  0  0  0  0  0  0  0  0  0  0  0
   25.2851  -19.6322  -10.1298 O   0  0  0  0  0  0  0  0  0  0  0  0
   28.7470  -20.9109  -16.3343 N   0  0  0  0  0  0  0  0  0  0  0  0
   27.8448  -20.2005  -17.1741 C   0  0  0  0  0  0  0  0  0  0  0  0
   27.3478  -20.8008  -18.1930 N   0  0  0  0  0  0  0  0  0  0  0  0
   27.5330  -18.8683  -16.8532 N   0  0  0  0  0  0  0  0  0  0  0  0
   28.1183  -18.2625  -15.6841 C   0  0  0  0  0  0  0  0  0  0  0  0
   27.1195  -18.3910  -14.5677 C   0  0  0  0  0  0  0  0  0  0  0  0
   27.2188  -19.7202  -13.8846 C   0  0  0  0  0  0  0  0  0  0  0  0
   26.2220  -19.7932  -12.7680 C   0  0  2  0  0  0  0  0  0  0  0  0
   26.9210  -20.2804  -11.5947 N   0  0  0  0  0  0  0  0  0  0  0  0
   25.1218  -20.7704  -13.1006 C   0  0  0  0  0  0  0  0  0  0  0  0
   25.1913  -21.9472  -12.6786 O   0  0  0  0  0  0  0  0  0  0  0  0
   26.7513  -20.3195  -18.8728 C   0  0  0  0  0  0  0  0  0  0  0  0
   20.6877  -20.9813  -12.1832 C   0  0  2  0  0  0  0  0  0  0  0  0
   22.1581  -20.6305  -12.2637 O   0  0  0  0  0  0  0  0  0  0  0  0
   22.8406  -21.3849  -11.3026 C   0  0  1  0  0  0  0  0  0  0  0  0
   22.6714  -20.9709  -13.6439 N   0  0  0  0  0  0  0  0  0  0  0  0
   23.9919  -20.4193  -13.8808 C   0  0  0  0  0  0  0  0  0  0  0  0
   21.7315  -20.4712  -14.6854 O   0  0  0  0  0  0  0  0  0  0  0  0
   21.8768  -19.3256  -15.1828 O   0  0  0  0  0  0  0  0  0  0  0  0
  2  1  1  0
  3  4  1  0
  3  2  1  0
  4  5  1  0
  5  6  1  6
  7  8  2  0
  7  5  1  0
 10  9  1  0
 11 10  2  0
 12 10  1  0
 13 12  1  0
 14 13  1  0
 14 15  1  0
 16 15  1  6
 16 17  1  0
 17  7  1  0
 18 19  2  0
 18 16  1  0
 21 20  1  1
 21 22  1  0
 23 21  1  0
 23 24  1  1
 24 18  1  0
 25 23  1  0
 26 25  2  0
 27 25  1  0
M  END
$$$$
