MRT.pdb
     RDKit          3D

 27 26  0  0  1  0  0  0  0  0999 V2000
   27.9766  -18.7877   -4.1527 C   0  0  0  0  0  0  0  0  0  0  0  0
   28.2672  -19.9640   -5.4839 S   0  0  0  0  0  0  0  0  0  0  0  0
   27.3138  -19.4360   -6.9413 C   0  0  0  0  0  0  0  0  0  0  0  0
   27.4478  -20.4896   -8.0027 C   0  0  0  0  0  0  0  0  0  0  0  0
   26.8314  -20.0009   -9.3016 C   0  0  2  0  0  0  0  0  0  0  0  0
   26.1915  -18.7265   -9.0744 N   0  0  0  0  0  0  0  0  0  0  0  0
   25.8360  -21.0225   -9.7265 C   0  0  0  0  0  0  0  0  0  0  0  0
   26.1983  -22.2239   -9.7682 O   0  0  0  0  0  0  0  0  0  0  0  0
   19.2396  -22.8492  -13.7825 N   0  0  0  0  0  0  0  0  0  0  0  0
   18.9364  -22.5193  -12.4323 C   0  0  0  0  0  0  0  0  0  0  0  0
   18.0485  -23.2079  -11.8135 N   0  0  0  0  0  0  0  0  0  0  0  0
   19.6230  -21.4516  -11.8293 N   0  0  0  0  0  0  0  0  0  0  0  0
   20.3864  -20.5439  -12.6478 C   0  0  0  0  0  0  0  0  0  0  0  0
   21.8163  -21.0070  -12.6129 C   0  0  0  0  0  0  0  0  0  0  0  0
   22.4775  -20.6688  -11.3122 C   0  0  0  0  0  0  0  0  0  0  0  0
   23.9102  -21.1072  -11.3417 C   0  0  2  0  0  0  0  0  0  0  0  0
   24.5109  -20.7089  -10.0835 N   0  0  0  0  0  0  0  0  0  0  0  0
   24.6543  -20.4175  -12.4582 C   0  0  0  0  0  0  0  0  0  0  0  0
   24.8538  -19.1828  -12.3983 O   0  0  0  0  0  0  0  0  0  0  0  0
   17.7971  -23.0236  -10.8375 C   0  0  0  0  0  0  0  0  0  0  0  0
   26.9926  -22.5915  -15.3315 C   0  0  2  0  0  0  0  0  0  0  0  0
   27.2813  -21.2022  -14.8044 O   0  0  0  0  0  0  0  0  0  0  0  0
   28.0620  -20.5290  -15.7510 C   0  0  1  0  0  0  0  0  0  0  0  0
   25.9746  -20.4704  -14.6015 N   0  0  0  0  0  0  0  0  0  0  0  0
   25.1490  -21.1073  -13.5932 C   0  0  0  0  0  0  0  0  0  0  0  0
   25.2194  -20.3911  -15.8826 O   0  0  0  0  0  0  0  0  0  0  0  0
   24.0986  -20.9486  -16.0009 O   0  0  0  0  0  0  0  0  0  0  0  0
  2  1  1  0
  3  4  1  0
  3  2  1  0
  4  5  1  0
  5  6  1  1
  7  8  2  0
  7  5  1  0
 10  9  1  0
 11 10  2  0
 12 10  1  0
 13 12  1  0
 14 13  1  0
 14 15  1  0
 16 15  1  1
 16 17  1  0
 17  7  1  0
 18 19  2  0
 18 16  1  0
 21 20  1  1
 21 22  1  0
 23 21  1  0
 23 24  1  1
 24 18  1  0
 25 23  1  0
 26 25  2  0
 27 25  1  0
M  END
$$$$
