MRT.pdb
     RDKit          3D

 27 26  0  0  1  0  0  0  0  0999 V2000
   28.6771  -18.6460   -5.9912 C   0  0  0  0  0  0  0  0  0  0  0  0
   27.1494  -19.2983   -6.6847 S   0  0  0  0  0  0  0  0  0  0  0  0
   27.5391  -20.8043   -7.6290 C   0  0  0  0  0  0  0  0  0  0  0  0
   27.5391  -20.4608   -9.0907 C   0  0  0  0  0  0  0  0  0  0  0  0
   26.1180  -20.2186   -9.5682 C   0  0  2  0  0  0  0  0  0  0  0  0
   25.3474  -21.4282   -9.4004 N   0  0  0  0  0  0  0  0  0  0  0  0
   26.1968  -19.8385  -11.0049 C   0  0  0  0  0  0  0  0  0  0  0  0
   26.7215  -18.7367  -11.3002 O   0  0  0  0  0  0  0  0  0  0  0  0
   27.3381  -24.1305  -17.0549 N   0  0  0  0  0  0  0  0  0  0  0  0
   28.2938  -23.5886  -16.1512 C   0  0  0  0  0  0  0  0  0  0  0  0
   29.2853  -24.3185  -15.7910 N   0  0  0  0  0  0  0  0  0  0  0  0
   28.1140  -22.2737  -15.6891 N   0  0  0  0  0  0  0  0  0  0  0  0
   27.4566  -21.3072  -16.5318 C   0  0  0  0  0  0  0  0  0  0  0  0
   26.5376  -20.5028  -15.6549 C   0  0  0  0  0  0  0  0  0  0  0  0
   26.4906  -21.0418  -14.2583 C   0  0  0  0  0  0  0  0  0  0  0  0
   25.5835  -20.1957  -13.4176 C   0  0  2  0  0  0  0  0  0  0  0  0
   25.7129  -20.6517  -12.0472 N   0  0  0  0  0  0  0  0  0  0  0  0
   24.1464  -20.3751  -13.8400 C   0  0  0  0  0  0  0  0  0  0  0  0
   23.4613  -21.2906  -13.3296 O   0  0  0  0  0  0  0  0  0  0  0  0
   29.9678  -24.0067  -15.0935 C   0  0  0  0  0  0  0  0  0  0  0  0
   20.1374  -18.3592  -15.9628 C   0  0  2  0  0  0  0  0  0  0  0  0
   21.6463  -18.3475  -15.8421 O   0  0  0  0  0  0  0  0  0  0  0  0
   22.0249  -17.1585  -15.2083 C   0  0  1  0  0  0  0  0  0  0  0  0
   22.0839  -19.5335  -15.0137 N   0  0  0  0  0  0  0  0  0  0  0  0
   23.5190  -19.5457  -14.8029 C   0  0  0  0  0  0  0  0  0  0  0  0
   21.6683  -20.8054  -15.6674 O   0  0  0  0  0  0  0  0  0  0  0  0
   22.3803  -21.3280  -16.5623 O   0  0  0  0  0  0  0  0  0  0  0  0
  2  1  1  0
  3  4  1  0
  3  2  1  0
  4  5  1  0
  5  6  1  6
  7  8  2  0
  7  5  1  0
 10  9  1  0
 11 10  2  0
 12 10  1  0
 13 12  1  0
 14 13  1  0
 14 15  1  0
 16 15  1  6
 16 17  1  0
 17  7  1  0
 18 19  2  0
 18 16  1  0
 21 20  1  6
 21 22  1  0
 23 21  1  0
 23 24  1  6
 24 18  1  0
 25 23  1  0
 26 25  2  0
 27 25  1  0
M  END
$$$$
