PKW.pdb
     RDKit          3D

 31 33  0  0  1  0  0  0  0  0999 V2000
    9.2257  -14.5742   18.2096 N   0  0  0  0  0  0  0  0  0  0  0  0
    8.7389  -13.7399   17.1485 C   0  0  0  0  0  0  0  0  0  0  0  0
    7.3337  -13.3730   17.5979 C   0  0  0  0  0  0  0  0  0  0  0  0
    7.5289  -13.1496   19.0969 C   0  0  0  0  0  0  0  0  0  0  0  0
    8.8015  -13.8809   19.4022 C   0  0  1  0  0  0  0  0  0  0  0  0
    8.6179  -14.8870   20.4831 C   0  0  0  0  0  0  0  0  0  0  0  0
    8.1537  -14.5396   21.5892 O   0  0  0  0  0  0  0  0  0  0  0  0
    8.9707  -16.2563   20.2659 N   0  0  0  0  0  0  0  0  0  0  0  0
    8.9943  -17.2613   21.2798 C   0  0  1  0  0  0  0  0  0  0  0  0
    9.3794  -18.6171   20.8103 C   0  0  0  0  0  0  0  0  0  0  0  0
   10.4508  -18.5601   19.7805 C   0  0  0  0  0  0  0  0  0  0  0  0
   10.9116  -19.8923   19.2843 C   0  0  0  0  0  0  0  0  0  0  0  0
   12.0890  -19.7493   18.3168 C   0  0  0  0  0  0  0  0  0  0  0  0
   12.4829  -21.0507   17.8106 N   0  0  0  0  0  0  0  0  0  0  0  0
    9.7872  -16.8079   22.4858 C   0  0  0  0  0  0  0  0  0  0  0  0
   10.9003  -16.2507   22.3331 O   0  0  0  0  0  0  0  0  0  0  0  0
    9.3256  -16.9849   23.7956 N   0  0  0  0  0  0  0  0  0  0  0  0
   10.0059  -16.4344   24.9789 C   0  0  1  0  0  0  0  0  0  0  0  0
    9.7449  -14.9799   25.1050 C   0  0  0  0  0  0  0  0  0  0  0  0
    8.3629  -14.6157   25.4439 C   0  0  0  0  0  0  0  0  0  0  0  0
    7.2210  -15.4270   25.3451 C   0  0  0  0  0  0  0  0  0  0  0  0
    6.1288  -14.7416   25.7135 N   0  0  0  0  0  0  0  0  0  0  0  0
    6.4945  -13.4930   26.0589 C   0  0  0  0  0  0  0  0  0  0  0  0
    5.7308  -12.4221   26.5212 C   0  0  0  0  0  0  0  0  0  0  0  0
    6.4083  -11.2592   26.8151 C   0  0  0  0  0  0  0  0  0  0  0  0
    7.7705  -11.1397   26.6664 C   0  0  0  0  0  0  0  0  0  0  0  0
    8.4982  -12.2059   26.2098 C   0  0  0  0  0  0  0  0  0  0  0  0
    7.8642  -13.3945   25.9009 C   0  0  0  0  0  0  0  0  0  0  0  0
    9.7799  -17.2546   26.1638 C   0  0  0  0  0  0  0  0  0  0  0  0
   10.5731  -16.9796   27.2958 O   0  0  0  0  0  0  0  0  0  0  0  0
    8.9548  -18.1771   26.2793 O   0  0  0  0  0  0  0  0  0  0  0  0
  1  5  1  0
  2  3  1  0
  2  1  1  0
  3  4  1  0
  5  4  1  0
  6  7  2  0
  5  6  1  1
  8  6  1  0
  9  8  1  0
  9 10  1  6
 11 12  1  0
 11 10  1  0
 13 12  1  0
 14 13  1  0
 15  9  1  0
 15 17  1  0
 16 15  2  0
 18 17  1  0
 18 29  1  0
 18 19  1  1
 19 20  1  0
 20 28  1  0
 21 20  2  0
 21 22  1  0
 22 23  1  0
 23 24  1  0
 24 25  2  0
 26 25  1  0
 27 26  2  0
 28 23  2  0
 28 27  1  0
 29 30  1  0
 31 29  2  0
M  END
$$$$
