PKW.pdb
     RDKit          3D

 31 33  0  0  1  0  0  0  0  0999 V2000
    9.1312  -14.3555   19.1746 N   0  0  0  0  0  0  0  0  0  0  0  0
    8.6773  -13.5038   18.1126 C   0  0  0  0  0  0  0  0  0  0  0  0
    7.2972  -13.0627   18.5728 C   0  0  0  0  0  0  0  0  0  0  0  0
    7.5181  -12.8403   20.0684 C   0  0  0  0  0  0  0  0  0  0  0  0
    8.7547  -13.6339   20.3665 C   0  0  1  0  0  0  0  0  0  0  0  0
    8.5304  -14.6226   21.4558 C   0  0  0  0  0  0  0  0  0  0  0  0
    7.9074  -14.2888   22.4854 O   0  0  0  0  0  0  0  0  0  0  0  0
    9.0251  -15.9594   21.3341 N   0  0  0  0  0  0  0  0  0  0  0  0
    8.9440  -16.9533   22.3559 C   0  0  1  0  0  0  0  0  0  0  0  0
    9.3127  -18.3266   21.9258 C   0  0  0  0  0  0  0  0  0  0  0  0
    8.4936  -18.7809   20.7706 C   0  0  0  0  0  0  0  0  0  0  0  0
    8.9037  -20.0971   20.1935 C   0  0  0  0  0  0  0  0  0  0  0  0
    7.9971  -20.5008   19.0282 C   0  0  0  0  0  0  0  0  0  0  0  0
    8.4506  -21.7519   18.4503 N   0  0  0  0  0  0  0  0  0  0  0  0
    9.6677  -16.5142   23.6097 C   0  0  0  0  0  0  0  0  0  0  0  0
   10.7455  -15.8786   23.5235 O   0  0  0  0  0  0  0  0  0  0  0  0
    9.1790  -16.7899   24.8923 N   0  0  0  0  0  0  0  0  0  0  0  0
    9.9695  -16.6074   26.1203 C   0  0  1  0  0  0  0  0  0  0  0  0
    9.2930  -15.6654   27.0448 C   0  0  0  0  0  0  0  0  0  0  0  0
    8.0160  -15.1210   26.5649 C   0  0  0  0  0  0  0  0  0  0  0  0
    6.9121  -15.8418   26.0816 C   0  0  0  0  0  0  0  0  0  0  0  0
    5.9364  -15.0028   25.7041 N   0  0  0  0  0  0  0  0  0  0  0  0
    6.3439  -13.7377   25.9169 C   0  0  0  0  0  0  0  0  0  0  0  0
    5.6861  -12.5274   25.7019 C   0  0  0  0  0  0  0  0  0  0  0  0
    6.3694  -11.3814   26.0445 C   0  0  0  0  0  0  0  0  0  0  0  0
    7.6388  -11.4080   26.5736 C   0  0  0  0  0  0  0  0  0  0  0  0
    8.2638  -12.6097   26.7745 C   0  0  0  0  0  0  0  0  0  0  0  0
    7.6198  -13.7876   26.4462 C   0  0  0  0  0  0  0  0  0  0  0  0
   10.4087  -17.8825   26.6760 C   0  0  0  0  0  0  0  0  0  0  0  0
   11.2940  -17.8346   27.7715 O   0  0  0  0  0  0  0  0  0  0  0  0
   10.0808  -19.0146   26.2808 O   0  0  0  0  0  0  0  0  0  0  0  0
  1  5  1  0
  2  3  1  0
  2  1  1  0
  3  4  1  0
  5  4  1  0
  6  7  2  0
  5  6  1  1
  8  6  1  0
  9  8  1  0
  9 10  1  6
 11 12  1  0
 11 10  1  0
 13 12  1  0
 14 13  1  0
 15  9  1  0
 15 17  1  0
 16 15  2  0
 18 17  1  0
 18 29  1  0
 18 19  1  1
 19 20  1  0
 20 28  1  0
 21 20  2  0
 21 22  1  0
 22 23  1  0
 23 24  1  0
 24 25  2  0
 26 25  1  0
 27 26  2  0
 28 23  2  0
 28 27  1  0
 29 30  1  0
 31 29  2  0
M  END
$$$$
