PKW.pdb
     RDKit          3D

 31 33  0  0  1  0  0  0  0  0999 V2000
    8.9132  -14.6227   18.4294 N   0  0  0  0  0  0  0  0  0  0  0  0
    8.5129  -13.7448   17.3671 C   0  0  0  0  0  0  0  0  0  0  0  0
    7.2071  -13.1492   17.8680 C   0  0  0  0  0  0  0  0  0  0  0  0
    7.5081  -12.9270   19.3496 C   0  0  0  0  0  0  0  0  0  0  0  0
    8.6626  -13.8447   19.6189 C   0  0  1  0  0  0  0  0  0  0  0  0
    8.3754  -14.7849   20.7361 C   0  0  0  0  0  0  0  0  0  0  0  0
    7.9010  -14.3560   21.8087 O   0  0  0  0  0  0  0  0  0  0  0  0
    8.6396  -16.1835   20.5920 N   0  0  0  0  0  0  0  0  0  0  0  0
    8.5015  -17.1493   21.6344 C   0  0  1  0  0  0  0  0  0  0  0  0
    8.6493  -18.5632   21.2031 C   0  0  0  0  0  0  0  0  0  0  0  0
    7.6954  -18.9105   20.1162 C   0  0  0  0  0  0  0  0  0  0  0  0
    7.7864  -20.3217   19.6328 C   0  0  0  0  0  0  0  0  0  0  0  0
    6.7891  -20.5884   18.5027 C   0  0  0  0  0  0  0  0  0  0  0  0
    6.9474  -21.9414   18.0033 N   0  0  0  0  0  0  0  0  0  0  0  0
    9.3684  -16.8025   22.8246 C   0  0  0  0  0  0  0  0  0  0  0  0
   10.3470  -16.0304   22.6859 O   0  0  0  0  0  0  0  0  0  0  0  0
    9.1237  -17.3147   24.1044 N   0  0  0  0  0  0  0  0  0  0  0  0
    9.7200  -16.7596   25.3301 C   0  0  1  0  0  0  0  0  0  0  0  0
    9.5237  -15.2908   25.3906 C   0  0  0  0  0  0  0  0  0  0  0  0
    8.1321  -14.8480   25.5484 C   0  0  0  0  0  0  0  0  0  0  0  0
    6.9691  -15.5728   25.2421 C   0  0  0  0  0  0  0  0  0  0  0  0
    5.8792  -14.8313   25.4885 N   0  0  0  0  0  0  0  0  0  0  0  0
    6.2669  -13.6285   25.9521 C   0  0  0  0  0  0  0  0  0  0  0  0
    5.5114  -12.5300   26.3599 C   0  0  0  0  0  0  0  0  0  0  0  0
    6.2090  -11.4317   26.8123 C   0  0  0  0  0  0  0  0  0  0  0  0
    7.5831  -11.4000   26.8667 C   0  0  0  0  0  0  0  0  0  0  0  0
    8.3025  -12.4916   26.4597 C   0  0  0  0  0  0  0  0  0  0  0  0
    7.6484  -13.6178   25.9972 C   0  0  0  0  0  0  0  0  0  0  0  0
    9.3444  -17.5287   26.5112 C   0  0  0  0  0  0  0  0  0  0  0  0
   10.0844  -17.2998   27.6885 O   0  0  0  0  0  0  0  0  0  0  0  0
    8.4332  -18.3708   26.5874 O   0  0  0  0  0  0  0  0  0  0  0  0
  1  5  1  0
  2  3  1  0
  2  1  1  0
  3  4  1  0
  5  4  1  0
  6  7  2  0
  5  6  1  1
  8  6  1  0
  9  8  1  0
  9 10  1  6
 11 12  1  0
 11 10  1  0
 13 12  1  0
 14 13  1  0
 15  9  1  0
 15 17  1  0
 16 15  2  0
 18 17  1  0
 18 29  1  0
 18 19  1  1
 19 20  1  0
 20 28  1  0
 21 20  2  0
 21 22  1  0
 22 23  1  0
 23 24  1  0
 24 25  2  0
 26 25  1  0
 27 26  2  0
 28 23  2  0
 28 27  1  0
 29 30  1  0
 31 29  2  0
M  END
$$$$
