PKW.pdb
     RDKit          3D

 31 33  0  0  1  0  0  0  0  0999 V2000
    8.6126  -14.4432   18.8309 N   0  0  0  0  0  0  0  0  0  0  0  0
    8.0777  -13.5574   17.8367 C   0  0  0  0  0  0  0  0  0  0  0  0
    6.8446  -12.9717   18.5056 C   0  0  0  0  0  0  0  0  0  0  0  0
    7.3313  -12.7618   19.9388 C   0  0  0  0  0  0  0  0  0  0  0  0
    8.5134  -13.6772   20.0500 C   0  0  1  0  0  0  0  0  0  0  0  0
    8.3736  -14.6287   21.1856 C   0  0  0  0  0  0  0  0  0  0  0  0
    8.0097  -14.2160   22.3067 O   0  0  0  0  0  0  0  0  0  0  0  0
    8.6544  -16.0196   21.0041 N   0  0  0  0  0  0  0  0  0  0  0  0
    8.5455  -17.0119   22.0249 C   0  0  1  0  0  0  0  0  0  0  0  0
    8.7280  -18.4114   21.5615 C   0  0  0  0  0  0  0  0  0  0  0  0
    7.8266  -18.7375   20.4245 C   0  0  0  0  0  0  0  0  0  0  0  0
    8.0697  -20.0722   19.7976 C   0  0  0  0  0  0  0  0  0  0  0  0
    7.0377  -20.3718   18.7077 C   0  0  0  0  0  0  0  0  0  0  0  0
    7.3303  -21.6449   18.0765 N   0  0  0  0  0  0  0  0  0  0  0  0
    9.4080  -16.6694   23.2196 C   0  0  0  0  0  0  0  0  0  0  0  0
   10.5828  -16.2639   23.0512 O   0  0  0  0  0  0  0  0  0  0  0  0
    8.9454  -16.7860   24.5358 N   0  0  0  0  0  0  0  0  0  0  0  0
    9.7900  -16.5530   25.7183 C   0  0  1  0  0  0  0  0  0  0  0  0
    9.0145  -15.8902   26.7948 C   0  0  0  0  0  0  0  0  0  0  0  0
    7.8457  -15.1218   26.3464 C   0  0  0  0  0  0  0  0  0  0  0  0
    6.6592  -15.6257   25.7896 C   0  0  0  0  0  0  0  0  0  0  0  0
    5.8297  -14.6210   25.4721 N   0  0  0  0  0  0  0  0  0  0  0  0
    6.4159  -13.4536   25.7966 C   0  0  0  0  0  0  0  0  0  0  0  0
    5.9519  -12.1443   25.6766 C   0  0  0  0  0  0  0  0  0  0  0  0
    6.7898  -11.1466   26.1238 C   0  0  0  0  0  0  0  0  0  0  0  0
    8.0271  -11.4078   26.6651 C   0  0  0  0  0  0  0  0  0  0  0  0
    8.4603  -12.7023   26.7714 C   0  0  0  0  0  0  0  0  0  0  0  0
    7.6562  -13.7387   26.3362 C   0  0  0  0  0  0  0  0  0  0  0  0
   10.5498  -17.7432   26.0840 C   0  0  0  0  0  0  0  0  0  0  0  0
   11.5267  -17.5975   27.0893 O   0  0  0  0  0  0  0  0  0  0  0  0
   10.4241  -18.8802   25.5976 O   0  0  0  0  0  0  0  0  0  0  0  0
  1  5  1  0
  2  3  1  0
  2  1  1  0
  3  4  1  0
  5  4  1  0
  6  7  2  0
  5  6  1  1
  8  6  1  0
  9  8  1  0
  9 10  1  6
 11 12  1  0
 11 10  1  0
 13 12  1  0
 14 13  1  0
 15  9  1  0
 15 17  1  0
 16 15  2  0
 18 17  1  0
 18 29  1  0
 18 19  1  1
 19 20  1  0
 20 28  1  0
 21 20  2  0
 21 22  1  0
 22 23  1  0
 23 24  1  0
 24 25  2  0
 26 25  1  0
 27 26  2  0
 28 23  2  0
 28 27  1  0
 29 30  1  0
 31 29  2  0
M  END
$$$$
