PKW.pdb
     RDKit          3D

 31 33  0  0  1  0  0  0  0  0999 V2000
    8.7456  -14.7738   18.0520 N   0  0  0  0  0  0  0  0  0  0  0  0
    8.2766  -13.8474   17.0615 C   0  0  0  0  0  0  0  0  0  0  0  0
    7.2236  -13.0369   17.7999 C   0  0  0  0  0  0  0  0  0  0  0  0
    7.8667  -12.8597   19.1747 C   0  0  0  0  0  0  0  0  0  0  0  0
    8.8860  -13.9575   19.2340 C   0  0  1  0  0  0  0  0  0  0  0  0
    8.6944  -14.8290   20.4249 C   0  0  0  0  0  0  0  0  0  0  0  0
    8.7284  -14.3371   21.5723 O   0  0  0  0  0  0  0  0  0  0  0  0
    8.4710  -16.2331   20.2668 N   0  0  0  0  0  0  0  0  0  0  0  0
    8.2895  -17.1545   21.3423 C   0  0  1  0  0  0  0  0  0  0  0  0
    8.1940  -18.5805   20.9373 C   0  0  0  0  0  0  0  0  0  0  0  0
    8.0938  -19.4826   22.1154 C   0  0  0  0  0  0  0  0  0  0  0  0
    7.0085  -20.5063   22.0276 C   0  0  0  0  0  0  0  0  0  0  0  0
    6.9432  -21.3587   23.2972 C   0  0  0  0  0  0  0  0  0  0  0  0
    7.9929  -22.3601   23.2833 N   0  0  0  0  0  0  0  0  0  0  0  0
    9.3001  -16.9210   22.4436 C   0  0  0  0  0  0  0  0  0  0  0  0
   10.5249  -16.8862   22.1759 O   0  0  0  0  0  0  0  0  0  0  0  0
    8.9235  -16.7370   23.7794 N   0  0  0  0  0  0  0  0  0  0  0  0
    9.8694  -16.3814   24.8493 C   0  0  1  0  0  0  0  0  0  0  0  0
    9.6044  -15.0107   25.3500 C   0  0  0  0  0  0  0  0  0  0  0  0
    8.2007  -14.7175   25.6680 C   0  0  0  0  0  0  0  0  0  0  0  0
    7.1176  -15.6108   25.6392 C   0  0  0  0  0  0  0  0  0  0  0  0
    5.9809  -14.9758   25.9601 N   0  0  0  0  0  0  0  0  0  0  0  0
    6.2596  -13.6819   26.2057 C   0  0  0  0  0  0  0  0  0  0  0  0
    5.4239  -12.6336   26.5884 C   0  0  0  0  0  0  0  0  0  0  0  0
    6.0195  -11.4075   26.7874 C   0  0  0  0  0  0  0  0  0  0  0  0
    7.3700  -11.2062   26.6216 C   0  0  0  0  0  0  0  0  0  0  0  0
    8.1695  -12.2519   26.2444 C   0  0  0  0  0  0  0  0  0  0  0  0
    7.6190  -13.5018   26.0322 C   0  0  0  0  0  0  0  0  0  0  0  0
    9.9839  -17.4412   25.8450 C   0  0  0  0  0  0  0  0  0  0  0  0
    9.0736  -18.5129   25.7495 O   0  0  0  0  0  0  0  0  0  0  0  0
   10.8067  -17.4975   26.7751 O   0  0  0  0  0  0  0  0  0  0  0  0
  1  5  1  0
  2  3  1  0
  2  1  1  0
  3  4  1  0
  5  4  1  0
  6  7  2  0
  5  6  1  1
  8  6  1  0
  9  8  1  0
  9 10  1  6
 11 12  1  0
 11 10  1  0
 13 12  1  0
 14 13  1  0
 15  9  1  0
 15 17  1  0
 16 15  2  0
 18 17  1  0
 18 29  1  0
 18 19  1  1
 19 20  1  0
 20 28  1  0
 21 20  2  0
 21 22  1  0
 22 23  1  0
 23 24  1  0
 24 25  2  0
 26 25  1  0
 27 26  2  0
 28 23  2  0
 28 27  1  0
 29 30  1  0
 31 29  2  0
M  END
$$$$
