PKW.pdb
     RDKit          3D

 31 33  0  0  1  0  0  0  0  0999 V2000
    9.0637  -14.6693   18.3732 N   0  0  0  0  0  0  0  0  0  0  0  0
    8.5842  -13.8047   17.3330 C   0  0  0  0  0  0  0  0  0  0  0  0
    7.2932  -13.2403   17.9036 C   0  0  0  0  0  0  0  0  0  0  0  0
    7.6689  -13.0065   19.3662 C   0  0  0  0  0  0  0  0  0  0  0  0
    8.8590  -13.8944   19.5734 C   0  0  1  0  0  0  0  0  0  0  0  0
    8.6568  -14.8382   20.7060 C   0  0  0  0  0  0  0  0  0  0  0  0
    8.2084  -14.4223   21.7949 O   0  0  0  0  0  0  0  0  0  0  0  0
    8.9735  -16.2255   20.5584 N   0  0  0  0  0  0  0  0  0  0  0  0
    8.9513  -17.1825   21.6177 C   0  0  1  0  0  0  0  0  0  0  0  0
    9.2823  -18.5732   21.2137 C   0  0  0  0  0  0  0  0  0  0  0  0
    8.3435  -19.0852   20.1802 C   0  0  0  0  0  0  0  0  0  0  0  0
    8.7022  -20.4228   19.6183 C   0  0  0  0  0  0  0  0  0  0  0  0
    7.6228  -20.9318   18.6599 C   0  0  0  0  0  0  0  0  0  0  0  0
    8.0002  -22.2248   18.1209 N   0  0  0  0  0  0  0  0  0  0  0  0
    9.7567  -16.7065   22.8065 C   0  0  0  0  0  0  0  0  0  0  0  0
   10.9174  -16.2608   22.6417 O   0  0  0  0  0  0  0  0  0  0  0  0
    9.2553  -16.7404   24.1132 N   0  0  0  0  0  0  0  0  0  0  0  0
   10.0079  -16.2656   25.2855 C   0  0  1  0  0  0  0  0  0  0  0  0
    9.6691  -14.8542   25.5902 C   0  0  0  0  0  0  0  0  0  0  0  0
    8.2374  -14.5734   25.7604 C   0  0  0  0  0  0  0  0  0  0  0  0
    7.1689  -15.4678   25.5869 C   0  0  0  0  0  0  0  0  0  0  0  0
    6.0004  -14.8449   25.7991 N   0  0  0  0  0  0  0  0  0  0  0  0
    6.2435  -13.5583   26.1112 C   0  0  0  0  0  0  0  0  0  0  0  0
    5.3652  -12.5235   26.4298 C   0  0  0  0  0  0  0  0  0  0  0  0
    5.9288  -11.3024   26.7284 C   0  0  0  0  0  0  0  0  0  0  0  0
    7.2883  -11.0935   26.7180 C   0  0  0  0  0  0  0  0  0  0  0  0
    8.1299  -12.1259   26.4009 C   0  0  0  0  0  0  0  0  0  0  0  0
    7.6128  -13.3702   26.0934 C   0  0  0  0  0  0  0  0  0  0  0  0
    9.9462  -17.2164   26.3899 C   0  0  0  0  0  0  0  0  0  0  0  0
    9.1370  -18.3564   26.2112 O   0  0  0  0  0  0  0  0  0  0  0  0
   10.5373  -17.1249   27.4796 O   0  0  0  0  0  0  0  0  0  0  0  0
  1  5  1  0
  2  3  1  0
  2  1  1  0
  3  4  1  0
  5  4  1  0
  6  7  2  0
  5  6  1  1
  8  6  1  0
  9  8  1  0
  9 10  1  6
 11 12  1  0
 11 10  1  0
 13 12  1  0
 14 13  1  0
 15  9  1  0
 15 17  1  0
 16 15  2  0
 18 17  1  0
 18 29  1  0
 18 19  1  1
 19 20  1  0
 20 28  1  0
 21 20  2  0
 21 22  1  0
 22 23  1  0
 23 24  1  0
 24 25  2  0
 26 25  1  0
 27 26  2  0
 28 23  2  0
 28 27  1  0
 29 30  1  0
 31 29  2  0
M  END
$$$$
