PKW.pdb
     RDKit          3D

 31 33  0  0  1  0  0  0  0  0999 V2000
    7.7767  -14.6603   18.4882 N   0  0  0  0  0  0  0  0  0  0  0  0
    7.3682  -13.4363   17.8605 C   0  0  0  0  0  0  0  0  0  0  0  0
    7.4811  -12.4079   18.9743 C   0  0  0  0  0  0  0  0  0  0  0  0
    8.7657  -12.8430   19.6781 C   0  0  0  0  0  0  0  0  0  0  0  0
    8.9347  -14.2719   19.2571 C   0  0  1  0  0  0  0  0  0  0  0  0
    9.0429  -15.1859   20.4264 C   0  0  0  0  0  0  0  0  0  0  0  0
    9.9391  -15.0092   21.2781 O   0  0  0  0  0  0  0  0  0  0  0  0
    8.1250  -16.2717   20.5847 N   0  0  0  0  0  0  0  0  0  0  0  0
    8.2768  -17.3352   21.5251 C   0  0  1  0  0  0  0  0  0  0  0  0
    8.6306  -18.6508   20.9327 C   0  0  0  0  0  0  0  0  0  0  0  0
    7.4208  -19.4529   20.6093 C   0  0  0  0  0  0  0  0  0  0  0  0
    7.7018  -20.7964   20.0182 C   0  0  0  0  0  0  0  0  0  0  0  0
    6.4080  -21.5710   19.7558 C   0  0  0  0  0  0  0  0  0  0  0  0
    6.6931  -22.7889   19.0206 N   0  0  0  0  0  0  0  0  0  0  0  0
    9.1897  -16.9370   22.6638 C   0  0  0  0  0  0  0  0  0  0  0  0
   10.3484  -16.5209   22.4245 O   0  0  0  0  0  0  0  0  0  0  0  0
    8.7923  -17.0123   24.0041 N   0  0  0  0  0  0  0  0  0  0  0  0
    9.6513  -16.6130   25.1306 C   0  0  1  0  0  0  0  0  0  0  0  0
    9.5064  -15.1643   25.4132 C   0  0  0  0  0  0  0  0  0  0  0  0
    8.1465  -14.7215   25.7483 C   0  0  0  0  0  0  0  0  0  0  0  0
    6.9814  -15.5044   25.7820 C   0  0  0  0  0  0  0  0  0  0  0  0
    5.9204  -14.7479   26.0992 N   0  0  0  0  0  0  0  0  0  0  0  0
    6.3299  -13.4787   26.2820 C   0  0  0  0  0  0  0  0  0  0  0  0
    5.6104  -12.3384   26.6364 C   0  0  0  0  0  0  0  0  0  0  0  0
    6.3274  -11.1696   26.7686 C   0  0  0  0  0  0  0  0  0  0  0  0
    7.6864  -11.1091   26.5651 C   0  0  0  0  0  0  0  0  0  0  0  0
    8.3703  -12.2431   26.2169 C   0  0  0  0  0  0  0  0  0  0  0  0
    7.6956  -13.4405   26.0715 C   0  0  0  0  0  0  0  0  0  0  0  0
    9.5213  -17.5260   26.2606 C   0  0  0  0  0  0  0  0  0  0  0  0
   10.4852  -17.4228   27.2836 O   0  0  0  0  0  0  0  0  0  0  0  0
    8.6426  -18.3915   26.4159 O   0  0  0  0  0  0  0  0  0  0  0  0
  1  5  1  0
  2  3  1  0
  2  1  1  0
  3  4  1  0
  5  4  1  0
  6  7  2  0
  5  6  1  1
  8  6  1  0
  9  8  1  0
  9 10  1  6
 11 12  1  0
 11 10  1  0
 13 12  1  0
 14 13  1  0
 15  9  1  0
 15 17  1  0
 16 15  2  0
 18 17  1  0
 18 29  1  0
 18 19  1  1
 19 20  1  0
 20 28  1  0
 21 20  2  0
 21 22  1  0
 22 23  1  0
 23 24  1  0
 24 25  2  0
 26 25  1  0
 27 26  2  0
 28 23  2  0
 28 27  1  0
 29 30  1  0
 31 29  2  0
M  END
$$$$
