PKW.pdb
     RDKit          3D

 31 33  0  0  1  0  0  0  0  0999 V2000
    9.0623  -14.2727   18.9968 N   0  0  0  0  0  0  0  0  0  0  0  0
    8.5518  -13.4465   17.9403 C   0  0  0  0  0  0  0  0  0  0  0  0
    7.1046  -13.2081   18.3401 C   0  0  0  0  0  0  0  0  0  0  0  0
    7.2209  -13.0179   19.8518 C   0  0  0  0  0  0  0  0  0  0  0  0
    8.5357  -13.6541   20.1897 C   0  0  1  0  0  0  0  0  0  0  0  0
    8.3916  -14.7058   21.2326 C   0  0  0  0  0  0  0  0  0  0  0  0
    7.7651  -14.4619   22.2850 O   0  0  0  0  0  0  0  0  0  0  0  0
    8.9677  -16.0010   21.0398 N   0  0  0  0  0  0  0  0  0  0  0  0
    8.9474  -17.0526   22.0054 C   0  0  1  0  0  0  0  0  0  0  0  0
    9.3963  -18.3759   21.5012 C   0  0  0  0  0  0  0  0  0  0  0  0
    9.1907  -19.4489   22.5102 C   0  0  0  0  0  0  0  0  0  0  0  0
    9.6645  -20.8020   22.0883 C   0  0  0  0  0  0  0  0  0  0  0  0
    9.1839  -21.8867   23.0553 C   0  0  0  0  0  0  0  0  0  0  0  0
    9.8263  -23.1512   22.7497 N   0  0  0  0  0  0  0  0  0  0  0  0
    9.6458  -16.6407   23.2826 C   0  0  0  0  0  0  0  0  0  0  0  0
   10.7107  -15.9802   23.2319 O   0  0  0  0  0  0  0  0  0  0  0  0
    9.1471  -16.9696   24.5487 N   0  0  0  0  0  0  0  0  0  0  0  0
    9.8259  -16.6182   25.8065 C   0  0  1  0  0  0  0  0  0  0  0  0
    8.8385  -16.2570   26.8525 C   0  0  0  0  0  0  0  0  0  0  0  0
    7.7425  -15.3853   26.4091 C   0  0  0  0  0  0  0  0  0  0  0  0
    6.5182  -15.7785   25.8450 C   0  0  0  0  0  0  0  0  0  0  0  0
    5.7806  -14.7022   25.5354 N   0  0  0  0  0  0  0  0  0  0  0  0
    6.4656  -13.5935   25.8723 C   0  0  0  0  0  0  0  0  0  0  0  0
    6.1180  -12.2477   25.7639 C   0  0  0  0  0  0  0  0  0  0  0  0
    7.0384  -11.3312   26.2225 C   0  0  0  0  0  0  0  0  0  0  0  0
    8.2466  -11.7045   26.7638 C   0  0  0  0  0  0  0  0  0  0  0  0
    8.5649  -13.0329   26.8586 C   0  0  0  0  0  0  0  0  0  0  0  0
    7.6746  -13.9910   26.4117 C   0  0  0  0  0  0  0  0  0  0  0  0
   10.8437  -17.5996   26.1649 C   0  0  0  0  0  0  0  0  0  0  0  0
   11.6722  -17.2936   27.2631 O   0  0  0  0  0  0  0  0  0  0  0  0
   11.0574  -18.6853   25.5984 O   0  0  0  0  0  0  0  0  0  0  0  0
  1  5  1  0
  2  3  1  0
  2  1  1  0
  3  4  1  0
  5  4  1  0
  6  7  2  0
  5  6  1  1
  8  6  1  0
  9  8  1  0
  9 10  1  6
 11 12  1  0
 11 10  1  0
 13 12  1  0
 14 13  1  0
 15  9  1  0
 15 17  1  0
 16 15  2  0
 18 17  1  0
 18 29  1  0
 18 19  1  1
 19 20  1  0
 20 28  1  0
 21 20  2  0
 21 22  1  0
 22 23  1  0
 23 24  1  0
 24 25  2  0
 26 25  1  0
 27 26  2  0
 28 23  2  0
 28 27  1  0
 29 30  1  0
 31 29  2  0
M  END
$$$$
