PKW.pdb
     RDKit          3D

 31 33  0  0  1  0  0  0  0  0999 V2000
    8.6751  -14.5788   19.1441 N   0  0  0  0  0  0  0  0  0  0  0  0
    8.0958  -13.5207   18.3668 C   0  0  0  0  0  0  0  0  0  0  0  0
    7.0212  -12.9530   19.2799 C   0  0  0  0  0  0  0  0  0  0  0  0
    7.7111  -12.9910   20.6428 C   0  0  0  0  0  0  0  0  0  0  0  0
    8.8091  -13.9949   20.4571 C   0  0  1  0  0  0  0  0  0  0  0  0
    8.7353  -15.0903   21.4616 C   0  0  0  0  0  0  0  0  0  0  0  0
    7.8104  -15.1089   22.3005 O   0  0  0  0  0  0  0  0  0  0  0  0
    9.7200  -16.1279   21.4756 N   0  0  0  0  0  0  0  0  0  0  0  0
    9.8086  -17.1525   22.4660 C   0  0  1  0  0  0  0  0  0  0  0  0
   10.6640  -18.3096   22.0969 C   0  0  0  0  0  0  0  0  0  0  0  0
   10.5413  -19.4209   23.0776 C   0  0  0  0  0  0  0  0  0  0  0  0
   11.3965  -20.6107   22.7834 C   0  0  0  0  0  0  0  0  0  0  0  0
   11.2152  -21.7019   23.8413 C   0  0  0  0  0  0  0  0  0  0  0  0
   10.2271  -22.6684   23.4002 N   0  0  0  0  0  0  0  0  0  0  0  0
   10.1481  -16.5779   23.8236 C   0  0  0  0  0  0  0  0  0  0  0  0
   10.9802  -15.6446   23.9210 O   0  0  0  0  0  0  0  0  0  0  0  0
    9.5628  -17.0498   25.0046 N   0  0  0  0  0  0  0  0  0  0  0  0
    9.9784  -16.6155   26.3480 C   0  0  1  0  0  0  0  0  0  0  0  0
    8.7958  -16.3367   27.1986 C   0  0  0  0  0  0  0  0  0  0  0  0
    7.7767  -15.4686   26.5942 C   0  0  0  0  0  0  0  0  0  0  0  0
    6.6710  -15.8639   25.8241 C   0  0  0  0  0  0  0  0  0  0  0  0
    5.9793  -14.7899   25.4161 N   0  0  0  0  0  0  0  0  0  0  0  0
    6.5804  -13.6808   25.8856 C   0  0  0  0  0  0  0  0  0  0  0  0
    6.2351  -12.3372   25.7468 C   0  0  0  0  0  0  0  0  0  0  0  0
    7.0509  -11.4201   26.3721 C   0  0  0  0  0  0  0  0  0  0  0  0
    8.1565  -11.7908   27.1018 C   0  0  0  0  0  0  0  0  0  0  0  0
    8.4749  -13.1170   27.2225 C   0  0  0  0  0  0  0  0  0  0  0  0
    7.6875  -14.0756   26.6131 C   0  0  0  0  0  0  0  0  0  0  0  0
   11.0060  -17.4878   26.9052 C   0  0  0  0  0  0  0  0  0  0  0  0
   11.5131  -17.1519   28.1765 O   0  0  0  0  0  0  0  0  0  0  0  0
   11.4841  -18.5036   26.3715 O   0  0  0  0  0  0  0  0  0  0  0  0
  1  5  1  0
  2  3  1  0
  2  1  1  0
  3  4  1  0
  5  4  1  0
  6  7  2  0
  5  6  1  1
  8  6  1  0
  9  8  1  0
  9 10  1  6
 11 12  1  0
 11 10  1  0
 13 12  1  0
 14 13  1  0
 15  9  1  0
 15 17  1  0
 16 15  2  0
 18 17  1  0
 18 29  1  0
 18 19  1  1
 19 20  1  0
 20 28  1  0
 21 20  2  0
 21 22  1  0
 22 23  1  0
 23 24  1  0
 24 25  2  0
 26 25  1  0
 27 26  2  0
 28 23  2  0
 28 27  1  0
 29 30  1  0
 31 29  2  0
M  END
$$$$
