PKW.pdb
     RDKit          3D

 31 33  0  0  1  0  0  0  0  0999 V2000
    8.6995  -14.8869   18.3124 N   0  0  0  0  0  0  0  0  0  0  0  0
    8.3294  -13.9594   17.2819 C   0  0  0  0  0  0  0  0  0  0  0  0
    7.2818  -13.0828   17.9489 C   0  0  0  0  0  0  0  0  0  0  0  0
    7.8612  -12.9089   19.3522 C   0  0  0  0  0  0  0  0  0  0  0  0
    8.8196  -14.0541   19.4850 C   0  0  1  0  0  0  0  0  0  0  0  0
    8.5233  -14.8900   20.6800 C   0  0  0  0  0  0  0  0  0  0  0  0
    8.4507  -14.3631   21.8099 O   0  0  0  0  0  0  0  0  0  0  0  0
    8.3203  -16.2997   20.5457 N   0  0  0  0  0  0  0  0  0  0  0  0
    8.1113  -17.1992   21.6347 C   0  0  1  0  0  0  0  0  0  0  0  0
    7.9632  -18.6263   21.2499 C   0  0  0  0  0  0  0  0  0  0  0  0
    7.7161  -19.4933   22.4327 C   0  0  0  0  0  0  0  0  0  0  0  0
    7.4001  -20.9175   22.1080 C   0  0  0  0  0  0  0  0  0  0  0  0
    7.1058  -21.7251   23.3744 C   0  0  0  0  0  0  0  0  0  0  0  0
    6.6189  -23.0463   23.0245 N   0  0  0  0  0  0  0  0  0  0  0  0
    9.1348  -16.9867   22.7282 C   0  0  0  0  0  0  0  0  0  0  0  0
   10.3496  -16.8719   22.4386 O   0  0  0  0  0  0  0  0  0  0  0  0
    8.7812  -16.9100   24.0807 N   0  0  0  0  0  0  0  0  0  0  0  0
    9.7035  -16.4665   25.1384 C   0  0  1  0  0  0  0  0  0  0  0  0
    9.5037  -15.0282   25.4399 C   0  0  0  0  0  0  0  0  0  0  0  0
    8.1217  -14.6356   25.7460 C   0  0  0  0  0  0  0  0  0  0  0  0
    6.9863  -15.4615   25.7597 C   0  0  0  0  0  0  0  0  0  0  0  0
    5.8916  -14.7443   26.0525 N   0  0  0  0  0  0  0  0  0  0  0  0
    6.2495  -13.4600   26.2381 C   0  0  0  0  0  0  0  0  0  0  0  0
    5.4809  -12.3463   26.5733 C   0  0  0  0  0  0  0  0  0  0  0  0
    6.1508  -11.1510   26.7149 C   0  0  0  0  0  0  0  0  0  0  0  0
    7.5104  -11.0403   26.5382 C   0  0  0  0  0  0  0  0  0  0  0  0
    8.2431  -12.1490   26.2085 C   0  0  0  0  0  0  0  0  0  0  0  0
    7.6167  -13.3713   26.0547 C   0  0  0  0  0  0  0  0  0  0  0  0
    9.7124  -17.3870   26.2698 C   0  0  0  0  0  0  0  0  0  0  0  0
    8.7668  -18.4320   26.2548 O   0  0  0  0  0  0  0  0  0  0  0  0
   10.4725  -17.3450   27.2525 O   0  0  0  0  0  0  0  0  0  0  0  0
  1  5  1  0
  2  3  1  0
  2  1  1  0
  3  4  1  0
  5  4  1  0
  6  7  2  0
  5  6  1  1
  8  6  1  0
  9  8  1  0
  9 10  1  6
 11 12  1  0
 11 10  1  0
 13 12  1  0
 14 13  1  0
 15  9  1  0
 15 17  1  0
 16 15  2  0
 18 17  1  0
 18 29  1  0
 18 19  1  1
 19 20  1  0
 20 28  1  0
 21 20  2  0
 21 22  1  0
 22 23  1  0
 23 24  1  0
 24 25  2  0
 26 25  1  0
 27 26  2  0
 28 23  2  0
 28 27  1  0
 29 30  1  0
 31 29  2  0
M  END
$$$$
