PKW.pdb
     RDKit          3D

 31 33  0  0  1  0  0  0  0  0999 V2000
    9.3126  -14.2962   18.0617 N   0  0  0  0  0  0  0  0  0  0  0  0
    8.5247  -13.6398   17.0579 C   0  0  0  0  0  0  0  0  0  0  0  0
    7.1136  -13.6904   17.6209 C   0  0  0  0  0  0  0  0  0  0  0  0
    7.3545  -13.4161   19.1047 C   0  0  0  0  0  0  0  0  0  0  0  0
    8.8033  -13.7504   19.2969 C   0  0  1  0  0  0  0  0  0  0  0  0
    9.0017  -14.7637   20.3685 C   0  0  0  0  0  0  0  0  0  0  0  0
    8.4523  -14.6148   21.4801 O   0  0  0  0  0  0  0  0  0  0  0  0
    9.8210  -15.9131   20.1359 N   0  0  0  0  0  0  0  0  0  0  0  0
   10.1341  -16.9014   21.1177 C   0  0  1  0  0  0  0  0  0  0  0  0
   10.9408  -18.0457   20.6208 C   0  0  0  0  0  0  0  0  0  0  0  0
   10.4874  -18.4980   19.2786 C   0  0  0  0  0  0  0  0  0  0  0  0
   11.2854  -19.6186   18.6947 C   0  0  0  0  0  0  0  0  0  0  0  0
   10.7472  -20.0291   17.3219 C   0  0  0  0  0  0  0  0  0  0  0  0
   11.6138  -21.0257   16.7212 N   0  0  0  0  0  0  0  0  0  0  0  0
   10.7101  -16.2728   22.3672 C   0  0  0  0  0  0  0  0  0  0  0  0
   11.4367  -15.2542   22.2810 O   0  0  0  0  0  0  0  0  0  0  0  0
   10.4640  -16.7865   23.6462 N   0  0  0  0  0  0  0  0  0  0  0  0
    9.6484  -16.0947   24.6573 C   0  0  1  0  0  0  0  0  0  0  0  0
    8.3891  -15.5888   24.0592 C   0  0  0  0  0  0  0  0  0  0  0  0
    7.4688  -14.9291   24.9948 C   0  0  0  0  0  0  0  0  0  0  0  0
    6.3534  -15.4959   25.6324 C   0  0  0  0  0  0  0  0  0  0  0  0
    5.7344  -14.5794   26.3909 N   0  0  0  0  0  0  0  0  0  0  0  0
    6.3950  -13.4112   26.2879 C   0  0  0  0  0  0  0  0  0  0  0  0
    6.1528  -12.1788   26.8932 C   0  0  0  0  0  0  0  0  0  0  0  0
    7.0338  -11.1610   26.6006 C   0  0  0  0  0  0  0  0  0  0  0  0
    8.1056  -11.3314   25.7555 C   0  0  0  0  0  0  0  0  0  0  0  0
    8.3216  -12.5515   25.1728 C   0  0  0  0  0  0  0  0  0  0  0  0
    7.4652  -13.6042   25.4346 C   0  0  0  0  0  0  0  0  0  0  0  0
    9.5342  -16.8729   25.8856 C   0  0  0  0  0  0  0  0  0  0  0  0
   10.1633  -16.3541   27.0351 O   0  0  0  0  0  0  0  0  0  0  0  0
    8.9356  -17.9534   26.0246 O   0  0  0  0  0  0  0  0  0  0  0  0
  1  5  1  0
  2  3  1  0
  2  1  1  0
  3  4  1  0
  5  4  1  0
  6  7  2  0
  5  6  1  1
  8  6  1  0
  9  8  1  0
  9 10  1  6
 11 12  1  0
 11 10  1  0
 13 12  1  0
 14 13  1  0
 15  9  1  0
 15 17  1  0
 16 15  2  0
 18 17  1  0
 18 29  1  0
 18 19  1  6
 19 20  1  0
 20 28  1  0
 21 20  2  0
 21 22  1  0
 22 23  1  0
 23 24  1  0
 24 25  2  0
 26 25  1  0
 27 26  2  0
 28 23  2  0
 28 27  1  0
 29 30  1  0
 31 29  2  0
M  END
$$$$
