PKW.pdb
     RDKit          3D

 31 33  0  0  1  0  0  0  0  0999 V2000
    6.6504  -20.7718   21.7007 N   0  0  0  0  0  0  0  0  0  0  0  0
    6.0765  -21.8091   22.5093 C   0  0  0  0  0  0  0  0  0  0  0  0
    6.0573  -21.2057   23.9045 C   0  0  0  0  0  0  0  0  0  0  0  0
    5.6538  -19.7598   23.6187 C   0  0  0  0  0  0  0  0  0  0  0  0
    5.9889  -19.5776   22.1688 C   0  0  1  0  0  0  0  0  0  0  0  0
    6.9043  -18.4247   21.9513 C   0  0  0  0  0  0  0  0  0  0  0  0
    8.1409  -18.5990   21.9501 O   0  0  0  0  0  0  0  0  0  0  0  0
    6.3779  -17.1110   21.7428 N   0  0  0  0  0  0  0  0  0  0  0  0
    7.1660  -15.9243   21.6468 C   0  0  1  0  0  0  0  0  0  0  0  0
    6.4715  -14.7571   21.0449 C   0  0  0  0  0  0  0  0  0  0  0  0
    7.4265  -13.6801   20.6711 C   0  0  0  0  0  0  0  0  0  0  0  0
    7.7056  -13.5734   19.2068 C   0  0  0  0  0  0  0  0  0  0  0  0
    8.7494  -12.4922   18.9163 C   0  0  0  0  0  0  0  0  0  0  0  0
    8.9846  -12.3935   17.4880 N   0  0  0  0  0  0  0  0  0  0  0  0
    7.8326  -15.5980   22.9649 C   0  0  0  0  0  0  0  0  0  0  0  0
    7.1635  -15.1002   23.9017 O   0  0  0  0  0  0  0  0  0  0  0  0
    9.1938  -15.8317   23.1942 N   0  0  0  0  0  0  0  0  0  0  0  0
    9.8749  -15.4986   24.4556 C   0  0  1  0  0  0  0  0  0  0  0  0
    9.0888  -15.9770   25.6187 C   0  0  0  0  0  0  0  0  0  0  0  0
    7.8497  -15.2358   25.8884 C   0  0  0  0  0  0  0  0  0  0  0  0
    6.5412  -15.7449   25.9075 C   0  0  0  0  0  0  0  0  0  0  0  0
    5.6627  -14.7634   26.1590 N   0  0  0  0  0  0  0  0  0  0  0  0
    6.3342  -13.6067   26.3114 C   0  0  0  0  0  0  0  0  0  0  0  0
    5.8715  -12.3234   26.5988 C   0  0  0  0  0  0  0  0  0  0  0  0
    6.8224  -11.3336   26.7154 C   0  0  0  0  0  0  0  0  0  0  0  0
    8.1670  -11.5783   26.5593 C   0  0  0  0  0  0  0  0  0  0  0  0
    8.5961  -12.8474   26.2765 C   0  0  0  0  0  0  0  0  0  0  0  0
    7.6805  -13.8749   26.1493 C   0  0  0  0  0  0  0  0  0  0  0  0
   11.2888  -15.8553   24.4181 C   0  0  0  0  0  0  0  0  0  0  0  0
   12.0562  -15.5594   25.5625 O   0  0  0  0  0  0  0  0  0  0  0  0
   11.8909  -16.3968   23.4750 O   0  0  0  0  0  0  0  0  0  0  0  0
  1  5  1  0
  2  3  1  0
  2  1  1  0
  3  4  1  0
  5  4  1  0
  6  7  2  0
  5  6  1  1
  8  6  1  0
  9  8  1  0
  9 10  1  1
 11 12  1  0
 11 10  1  0
 13 12  1  0
 14 13  1  0
 15  9  1  0
 15 17  1  0
 16 15  2  0
 18 17  1  0
 18 29  1  0
 18 19  1  1
 19 20  1  0
 20 28  1  0
 21 20  2  0
 21 22  1  0
 22 23  1  0
 23 24  1  0
 24 25  2  0
 26 25  1  0
 27 26  2  0
 28 23  2  0
 28 27  1  0
 29 30  1  0
 31 29  2  0
M  END
$$$$
