WTE.pdb
     RDKit          3D

 31 32  0  0  1  0  0  0  0  0999 V2000
    6.3059  -16.9456   25.4936 N   0  0  0  0  0  0  0  0  0  0  0  0
    7.0897  -16.0774   24.6492 C   0  0  1  0  0  0  0  0  0  0  0  0
    8.1154  -15.2726   25.2255 C   0  0  0  0  0  0  0  0  0  0  0  0
    8.0147  -14.3014   26.2523 C   0  0  0  0  0  0  0  0  0  0  0  0
    8.8056  -14.4303   27.4112 C   0  0  0  0  0  0  0  0  0  0  0  0
    8.5310  -13.4013   28.2145 N   0  0  0  0  0  0  0  0  0  0  0  0
    7.6051  -12.5832   27.6754 C   0  0  0  0  0  0  0  0  0  0  0  0
    6.9899  -11.4283   28.0706 C   0  0  0  0  0  0  0  0  0  0  0  0
    6.0582  -10.8141   27.2770 C   0  0  0  0  0  0  0  0  0  0  0  0
    5.7617  -11.3963   26.0708 C   0  0  0  0  0  0  0  0  0  0  0  0
    6.3544  -12.5474   25.6427 C   0  0  0  0  0  0  0  0  0  0  0  0
    7.2928  -13.1689   26.4380 C   0  0  0  0  0  0  0  0  0  0  0  0
    7.3611  -16.6927   23.2932 C   0  0  0  0  0  0  0  0  0  0  0  0
    7.2489  -17.9434   23.1386 O   0  0  0  0  0  0  0  0  0  0  0  0
    6.4903  -14.5178   20.2035 C   0  0  0  0  0  0  0  0  0  0  0  0
    7.7304  -15.2979   19.9283 C   0  0  1  0  0  0  0  0  0  0  0  0
    8.8103  -14.4038   20.1528 O   0  0  0  0  0  0  0  0  0  0  0  0
    7.9144  -16.5085   20.8495 C   0  0  2  0  0  0  0  0  0  0  0  0
    7.7329  -15.9228   22.2003 N   0  0  0  0  0  0  0  0  0  0  0  0
    9.2852  -17.0597   20.7409 C   0  0  0  0  0  0  0  0  0  0  0  0
    9.6280  -17.7481   19.7343 O   0  0  0  0  0  0  0  0  0  0  0  0
   10.2246  -16.8271   21.7484 N   0  0  0  0  0  0  0  0  0  0  0  0
   11.6165  -17.3102   21.6859 C   0  0  1  0  0  0  0  0  0  0  0  0
   12.5627  -16.1727   21.4791 C   0  0  0  0  0  0  0  0  0  0  0  0
   14.0053  -16.5689   21.4092 C   0  0  0  0  0  0  0  0  0  0  0  0
   14.8996  -15.4288   21.1138 C   0  0  0  0  0  0  0  0  0  0  0  0
   15.0640  -14.9302   19.9712 O   0  0  0  0  0  0  0  0  0  0  0  0
   11.9495  -18.0105   22.9501 C   0  0  0  0  0  0  0  0  0  0  0  0
   11.3565  -17.8609   24.0403 O   0  0  0  0  0  0  0  0  0  0  0  0
   15.6233  -14.8457   22.1517 O   0  0  0  0  0  0  0  0  0  0  0  0
   13.0142  -18.9284   22.9732 O   0  0  0  0  0  0  0  0  0  0  0  0
  2  1  1  1
  3  2  1  0
  4  3  1  0
  4  5  2  0
  6  5  1  0
  7  6  1  0
  8  7  2  0
  9  8  1  0
 10  9  2  0
 10 11  1  0
 11 12  2  0
 12  7  1  0
 12  4  1  0
 13  2  1  0
 13 19  1  0
 14 13  2  0
 16 15  1  1
 17 16  1  0
 18 19  1  1
 18 16  1  0
 20 18  1  0
 21 20  2  0
 22 20  1  0
 23 28  1  0
 23 22  1  0
 23 24  1  1
 25 26  1  0
 25 24  1  0
 26 27  2  0
 28 31  1  0
 29 28  2  0
 30 26  1  0
M  END
$$$$
