WTE.pdb
     RDKit          3D

 31 32  0  0  1  0  0  0  0  0999 V2000
    6.1392  -17.7547   24.7779 N   0  0  0  0  0  0  0  0  0  0  0  0
    6.9940  -16.7135   24.2616 C   0  0  1  0  0  0  0  0  0  0  0  0
    7.5868  -15.7790   25.1599 C   0  0  0  0  0  0  0  0  0  0  0  0
    6.9858  -14.6877   25.8351 C   0  0  0  0  0  0  0  0  0  0  0  0
    5.8271  -14.9011   26.6077 C   0  0  0  0  0  0  0  0  0  0  0  0
    5.4624  -13.7317   27.1360 N   0  0  0  0  0  0  0  0  0  0  0  0
    6.2988  -12.7393   26.7714 C   0  0  0  0  0  0  0  0  0  0  0  0
    6.3738  -11.3982   27.0247 C   0  0  0  0  0  0  0  0  0  0  0  0
    7.3738  -10.6306   26.4897 C   0  0  0  0  0  0  0  0  0  0  0  0
    8.2989  -11.2522   25.6900 C   0  0  0  0  0  0  0  0  0  0  0  0
    8.2567  -12.5871   25.4147 C   0  0  0  0  0  0  0  0  0  0  0  0
    7.2524  -13.3635   25.9512 C   0  0  0  0  0  0  0  0  0  0  0  0
    7.8301  -17.1885   23.0927 C   0  0  0  0  0  0  0  0  0  0  0  0
    8.2333  -18.3872   23.0566 O   0  0  0  0  0  0  0  0  0  0  0  0
    7.2946  -15.3679   19.7351 C   0  0  0  0  0  0  0  0  0  0  0  0
    8.7331  -15.7455   19.8372 C   0  0  1  0  0  0  0  0  0  0  0  0
    9.4240  -14.5551   20.1859 O   0  0  0  0  0  0  0  0  0  0  0  0
    9.0198  -16.7963   20.9150 C   0  0  2  0  0  0  0  0  0  0  0  0
    8.1733  -16.3443   22.0464 N   0  0  0  0  0  0  0  0  0  0  0  0
   10.4415  -16.7624   21.3302 C   0  0  0  0  0  0  0  0  0  0  0  0
   10.8259  -15.9927   22.2600 O   0  0  0  0  0  0  0  0  0  0  0  0
   11.3829  -17.5818   20.7026 N   0  0  0  0  0  0  0  0  0  0  0  0
   12.7332  -17.8258   21.2427 C   0  0  1  0  0  0  0  0  0  0  0  0
   13.0051  -19.2913   21.3456 C   0  0  0  0  0  0  0  0  0  0  0  0
   14.3465  -19.6362   21.9151 C   0  0  0  0  0  0  0  0  0  0  0  0
   14.5781  -21.0946   21.9949 C   0  0  0  0  0  0  0  0  0  0  0  0
   15.6258  -21.6715   21.6066 O   0  0  0  0  0  0  0  0  0  0  0  0
   13.7384  -17.1949   20.3534 C   0  0  0  0  0  0  0  0  0  0  0  0
   13.5699  -16.9254   19.1444 O   0  0  0  0  0  0  0  0  0  0  0  0
   13.5862  -21.9122   22.5322 O   0  0  0  0  0  0  0  0  0  0  0  0
   15.0013  -16.8539   20.8685 O   0  0  0  0  0  0  0  0  0  0  0  0
  2  1  1  1
  3  2  1  0
  4  3  1  0
  4  5  2  0
  6  5  1  0
  7  6  1  0
  8  7  2  0
  9  8  1  0
 10  9  2  0
 10 11  1  0
 11 12  2  0
 12  7  1  0
 12  4  1  0
 13  2  1  0
 13 19  1  0
 14 13  2  0
 16 15  1  1
 17 16  1  0
 18 19  1  1
 18 16  1  0
 20 18  1  0
 21 20  2  0
 22 20  1  0
 23 28  1  0
 23 22  1  0
 23 24  1  6
 25 26  1  0
 25 24  1  0
 26 27  2  0
 28 31  1  0
 29 28  2  0
 30 26  1  0
M  END
$$$$
