WTE.pdb
     RDKit          3D

 31 32  0  0  1  0  0  0  0  0999 V2000
    5.8151  -17.2240   24.2189 N   0  0  0  0  0  0  0  0  0  0  0  0
    6.9588  -16.4742   23.7596 C   0  0  1  0  0  0  0  0  0  0  0  0
    7.7586  -15.7628   24.7008 C   0  0  0  0  0  0  0  0  0  0  0  0
    7.3483  -14.8937   25.7420 C   0  0  0  0  0  0  0  0  0  0  0  0
    6.8464  -15.4349   26.9421 C   0  0  0  0  0  0  0  0  0  0  0  0
    6.5355  -14.4223   27.7530 N   0  0  0  0  0  0  0  0  0  0  0  0
    6.7941  -13.2296   27.1803 C   0  0  0  0  0  0  0  0  0  0  0  0
    6.6611  -11.9248   27.5653 C   0  0  0  0  0  0  0  0  0  0  0  0
    7.0206  -10.8997   26.7316 C   0  0  0  0  0  0  0  0  0  0  0  0
    7.5191  -11.2251   25.4958 C   0  0  0  0  0  0  0  0  0  0  0  0
    7.6663  -12.5145   25.0767 C   0  0  0  0  0  0  0  0  0  0  0  0
    7.3060  -13.5494   25.9125 C   0  0  0  0  0  0  0  0  0  0  0  0
    7.6702  -17.1624   22.6145 C   0  0  0  0  0  0  0  0  0  0  0  0
    7.6600  -18.4253   22.5386 O   0  0  0  0  0  0  0  0  0  0  0  0
    8.1286  -15.2007   19.1791 C   0  0  0  0  0  0  0  0  0  0  0  0
    9.3491  -15.9685   19.5574 C   0  0  1  0  0  0  0  0  0  0  0  0
   10.2100  -15.0394   20.1989 O   0  0  0  0  0  0  0  0  0  0  0  0
    9.0766  -17.1182   20.5332 C   0  0  2  0  0  0  0  0  0  0  0  0
    8.3409  -16.4470   21.6327 N   0  0  0  0  0  0  0  0  0  0  0  0
   10.3403  -17.6776   21.0668 C   0  0  0  0  0  0  0  0  0  0  0  0
   10.3900  -18.8679   21.4975 O   0  0  0  0  0  0  0  0  0  0  0  0
   11.5005  -16.9002   21.1022 N   0  0  0  0  0  0  0  0  0  0  0  0
   12.7665  -17.3607   21.7019 C   0  0  1  0  0  0  0  0  0  0  0  0
   13.8673  -16.3891   21.4252 C   0  0  0  0  0  0  0  0  0  0  0  0
   14.1504  -16.1681   19.9712 C   0  0  0  0  0  0  0  0  0  0  0  0
   15.5546  -15.7832   19.7123 C   0  0  0  0  0  0  0  0  0  0  0  0
   16.2675  -16.2654   18.7956 O   0  0  0  0  0  0  0  0  0  0  0  0
   12.5899  -17.5080   23.1670 C   0  0  0  0  0  0  0  0  0  0  0  0
   12.0303  -16.6793   23.9172 O   0  0  0  0  0  0  0  0  0  0  0  0
   16.1568  -14.8232   20.5225 O   0  0  0  0  0  0  0  0  0  0  0  0
   13.0769  -18.6592   23.8107 O   0  0  0  0  0  0  0  0  0  0  0  0
  2  1  1  1
  3  2  1  0
  4  3  1  0
  4  5  2  0
  6  5  1  0
  7  6  1  0
  8  7  2  0
  9  8  1  0
 10  9  2  0
 10 11  1  0
 11 12  2  0
 12  7  1  0
 12  4  1  0
 13  2  1  0
 13 19  1  0
 14 13  2  0
 16 15  1  1
 17 16  1  0
 18 19  1  1
 18 16  1  0
 20 18  1  0
 21 20  2  0
 22 20  1  0
 23 28  1  0
 23 22  1  0
 23 24  1  1
 25 26  1  0
 25 24  1  0
 26 27  2  0
 28 31  1  0
 29 28  2  0
 30 26  1  0
M  END
$$$$
