WTE.pdb
     RDKit          3D

 31 32  0  0  1  0  0  0  0  0999 V2000
    6.2858  -16.9240   25.6798 N   0  0  0  0  0  0  0  0  0  0  0  0
    7.1441  -16.0781   24.8866 C   0  0  1  0  0  0  0  0  0  0  0  0
    8.1131  -15.2555   25.5316 C   0  0  0  0  0  0  0  0  0  0  0  0
    7.9133  -14.2058   26.4623 C   0  0  0  0  0  0  0  0  0  0  0  0
    8.7090  -14.1454   27.6235 C   0  0  0  0  0  0  0  0  0  0  0  0
    8.3312  -13.0770   28.3272 N   0  0  0  0  0  0  0  0  0  0  0  0
    7.3309  -12.4092   27.7185 C   0  0  0  0  0  0  0  0  0  0  0  0
    6.6031  -11.2884   28.0061 C   0  0  0  0  0  0  0  0  0  0  0  0
    5.6181  -10.8473   27.1633 C   0  0  0  0  0  0  0  0  0  0  0  0
    5.3849  -11.5678   26.0195 C   0  0  0  0  0  0  0  0  0  0  0  0
    6.0899  -12.6902   25.6989 C   0  0  0  0  0  0  0  0  0  0  0  0
    7.0824  -13.1377   26.5441 C   0  0  0  0  0  0  0  0  0  0  0  0
    7.5381  -16.7305   23.5789 C   0  0  0  0  0  0  0  0  0  0  0  0
    7.5205  -17.9916   23.4772 O   0  0  0  0  0  0  0  0  0  0  0  0
    6.8749  -14.9310   20.2112 C   0  0  0  0  0  0  0  0  0  0  0  0
    8.2390  -15.5316   20.1834 C   0  0  1  0  0  0  0  0  0  0  0  0
    9.1388  -14.4663   20.4506 O   0  0  0  0  0  0  0  0  0  0  0  0
    8.4566  -16.6167   21.2433 C   0  0  2  0  0  0  0  0  0  0  0  0
    7.9222  -15.9841   22.4741 N   0  0  0  0  0  0  0  0  0  0  0  0
    9.8987  -16.8993   21.4310 C   0  0  0  0  0  0  0  0  0  0  0  0
   10.5834  -16.2410   22.2692 O   0  0  0  0  0  0  0  0  0  0  0  0
   10.5277  -17.8998   20.6860 N   0  0  0  0  0  0  0  0  0  0  0  0
   11.9348  -18.2940   20.8839 C   0  0  1  0  0  0  0  0  0  0  0  0
   12.1359  -19.7322   20.5325 C   0  0  0  0  0  0  0  0  0  0  0  0
   11.3890  -20.6951   21.4030 C   0  0  0  0  0  0  0  0  0  0  0  0
   11.6297  -22.1070   21.0348 C   0  0  0  0  0  0  0  0  0  0  0  0
   12.3671  -22.4798   20.0870 O   0  0  0  0  0  0  0  0  0  0  0  0
   12.8054  -17.4477   20.0323 C   0  0  0  0  0  0  0  0  0  0  0  0
   14.0550  -17.4773   20.0168 O   0  0  0  0  0  0  0  0  0  0  0  0
   11.0110  -23.1161   21.7694 O   0  0  0  0  0  0  0  0  0  0  0  0
   12.2215  -16.5188   19.1531 O   0  0  0  0  0  0  0  0  0  0  0  0
  2  1  1  1
  3  2  1  0
  4  3  1  0
  4  5  2  0
  6  5  1  0
  7  6  1  0
  8  7  2  0
  9  8  1  0
 10  9  2  0
 10 11  1  0
 11 12  2  0
 12  7  1  0
 12  4  1  0
 13  2  1  0
 13 19  1  0
 14 13  2  0
 16 15  1  1
 17 16  1  0
 18 19  1  1
 18 16  1  0
 20 18  1  0
 21 20  2  0
 22 20  1  0
 23 28  1  0
 23 22  1  0
 23 24  1  6
 25 26  1  0
 25 24  1  0
 26 27  2  0
 28 31  1  0
 29 28  2  0
 30 26  1  0
M  END
$$$$
