TMC.pdb
     RDKit          3D

 22 21  0  0  1  0  0  0  0  0999 V2000
    9.4191  -18.8580   22.3073 C   0  0  0  0  0  0  0  0  0  0  0  0
    9.9942  -18.1175   21.1149 C   0  0  1  0  0  0  0  0  0  0  0  0
   10.0087  -18.9676   20.0276 O   0  0  0  0  0  0  0  0  0  0  0  0
    9.1564  -16.8790   20.8887 C   0  0  2  0  0  0  0  0  0  0  0  0
    9.6022  -16.2234   19.6793 N   0  0  0  0  0  0  0  0  0  0  0  0
    9.3183  -15.9871   22.0725 C   0  0  0  0  0  0  0  0  0  0  0  0
   10.4272  -15.4508   22.3594 O   0  0  0  0  0  0  0  0  0  0  0  0
    6.1263  -11.3533   27.6241 C   0  0  0  0  0  0  0  0  0  0  0  0
    5.7726  -12.5213   26.2558 S   0  0  0  0  0  0  0  0  0  0  0  0
    7.3237  -13.3139   25.7221 C   0  0  0  0  0  0  0  0  0  0  0  0
    7.0917  -14.2268   24.5459 C   0  0  0  0  0  0  0  0  0  0  0  0
    8.3643  -14.8255   24.1054 C   0  0  2  0  0  0  0  0  0  0  0  0
    8.2420  -15.6866   22.9460 N   0  0  0  0  0  0  0  0  0  0  0  0
    9.1576  -15.5216   25.1251 C   0  0  0  0  0  0  0  0  0  0  0  0
    9.1807  -16.7617   25.3337 O   0  0  0  0  0  0  0  0  0  0  0  0
   10.0165  -14.7674   26.0076 N   0  0  0  0  0  0  0  0  0  0  0  0
   10.6548  -15.3484   27.1443 C   0  0  1  0  0  0  0  0  0  0  0  0
   11.0033  -14.3313   28.2127 C   0  0  0  0  0  0  0  0  0  0  0  0
   11.2028  -15.1890   29.8220 S   0  0  0  0  0  0  0  0  0  0  0  0
    9.8938  -16.4369   27.7798 C   0  0  0  0  0  0  0  0  0  0  0  0
    8.5256  -16.4455   27.9330 O   0  0  0  0  0  0  0  0  0  0  0  0
   10.5497  -17.4238   28.2095 O   0  0  0  0  0  0  0  0  0  0  0  0
  2  1  1  1
  2  4  1  0
  3  2  1  0
  4  6  1  0
  4  5  1  6
  6  7  2  0
  8  9  1  0
  9 10  1  0
 10 11  1  0
 12 11  1  1
 12 14  1  0
 13 12  1  0
 13  6  1  0
 14 15  2  0
 14 16  1  0
 16 17  1  0
 17 20  1  0
 17 18  1  1
 19 18  1  0
 20 22  2  0
 20 21  1  0
M  END
$$$$
