TMC.pdb
     RDKit          3D

 22 21  0  0  1  0  0  0  0  0999 V2000
    7.3453  -17.1384   19.1645 C   0  0  0  0  0  0  0  0  0  0  0  0
    7.9163  -16.9883   20.5617 C   0  0  1  0  0  0  0  0  0  0  0  0
    8.6767  -18.1024   20.8540 O   0  0  0  0  0  0  0  0  0  0  0  0
    8.7090  -15.7010   20.6040 C   0  0  2  0  0  0  0  0  0  0  0  0
    9.8745  -15.8378   19.7590 N   0  0  0  0  0  0  0  0  0  0  0  0
    9.1006  -15.4440   22.0195 C   0  0  0  0  0  0  0  0  0  0  0  0
   10.2392  -15.7642   22.4674 O   0  0  0  0  0  0  0  0  0  0  0  0
    5.4066  -12.1501   26.5064 C   0  0  0  0  0  0  0  0  0  0  0  0
    7.0556  -12.2318   27.3038 S   0  0  0  0  0  0  0  0  0  0  0  0
    8.0713  -13.4890   26.4632 C   0  0  0  0  0  0  0  0  0  0  0  0
    7.7094  -13.5946   25.0043 C   0  0  0  0  0  0  0  0  0  0  0  0
    8.5531  -14.6044   24.3407 C   0  0  2  0  0  0  0  0  0  0  0  0
    8.2229  -14.8266   22.9470 N   0  0  0  0  0  0  0  0  0  0  0  0
    8.6770  -15.9062   25.0066 C   0  0  0  0  0  0  0  0  0  0  0  0
    7.8116  -16.8187   25.0270 O   0  0  0  0  0  0  0  0  0  0  0  0
    9.8851  -16.2345   25.7263 N   0  0  0  0  0  0  0  0  0  0  0  0
   10.0601  -17.4724   26.4148 C   0  0  1  0  0  0  0  0  0  0  0  0
   11.1707  -18.3231   25.8316 C   0  0  0  0  0  0  0  0  0  0  0  0
   10.4502  -19.5407   24.6638 S   0  0  0  0  0  0  0  0  0  0  0  0
   10.2995  -17.3362   27.8611 C   0  0  0  0  0  0  0  0  0  0  0  0
   10.4824  -18.3934   28.7240 O   0  0  0  0  0  0  0  0  0  0  0  0
   10.3378  -16.1673   28.3312 O   0  0  0  0  0  0  0  0  0  0  0  0
  2  1  1  6
  2  4  1  0
  3  2  1  0
  4  6  1  0
  4  5  1  6
  6  7  2  0
  8  9  1  0
  9 10  1  0
 10 11  1  0
 12 11  1  1
 12 14  1  0
 13 12  1  0
 13  6  1  0
 14 15  2  0
 14 16  1  0
 16 17  1  0
 17 20  1  0
 17 18  1  6
 19 18  1  0
 20 22  2  0
 20 21  1  0
M  END
$$$$
