TMC.pdb
     RDKit          3D

 22 21  0  0  1  0  0  0  0  0999 V2000
    7.5539  -17.6788   19.1595 C   0  0  0  0  0  0  0  0  0  0  0  0
    8.0322  -17.3375   20.5579 C   0  0  1  0  0  0  0  0  0  0  0  0
    9.0735  -18.1802   20.8903 O   0  0  0  0  0  0  0  0  0  0  0  0
    8.4233  -15.8767   20.5718 C   0  0  2  0  0  0  0  0  0  0  0  0
    9.5812  -15.6913   19.7256 N   0  0  0  0  0  0  0  0  0  0  0  0
    8.7217  -15.4899   21.9805 C   0  0  0  0  0  0  0  0  0  0  0  0
    9.8982  -15.5075   22.4442 O   0  0  0  0  0  0  0  0  0  0  0  0
    6.2027  -11.1399   26.8502 C   0  0  0  0  0  0  0  0  0  0  0  0
    7.6668  -12.2426   26.8052 S   0  0  0  0  0  0  0  0  0  0  0  0
    7.1315  -13.9420   26.4256 C   0  0  0  0  0  0  0  0  0  0  0  0
    6.8352  -14.1041   24.9571 C   0  0  0  0  0  0  0  0  0  0  0  0
    7.9432  -14.8080   24.2873 C   0  0  2  0  0  0  0  0  0  0  0  0
    7.7075  -15.0799   22.8833 N   0  0  0  0  0  0  0  0  0  0  0  0
    8.4325  -16.0349   24.9269 C   0  0  0  0  0  0  0  0  0  0  0  0
    7.8275  -17.1358   24.9888 O   0  0  0  0  0  0  0  0  0  0  0  0
    9.7275  -16.0463   25.5658 N   0  0  0  0  0  0  0  0  0  0  0  0
   10.2591  -17.2037   26.2099 C   0  0  1  0  0  0  0  0  0  0  0  0
   11.7422  -17.3922   25.9604 C   0  0  0  0  0  0  0  0  0  0  0  0
   12.0428  -17.4989   24.1539 S   0  0  0  0  0  0  0  0  0  0  0  0
   10.0301  -17.2508   27.6635 C   0  0  0  0  0  0  0  0  0  0  0  0
   10.4644  -18.2638   28.4887 O   0  0  0  0  0  0  0  0  0  0  0  0
    9.3917  -16.2932   28.1776 O   0  0  0  0  0  0  0  0  0  0  0  0
  2  1  1  6
  2  4  1  0
  3  2  1  0
  4  6  1  0
  4  5  1  6
  6  7  2  0
  8  9  1  0
  9 10  1  0
 10 11  1  0
 12 11  1  1
 12 14  1  0
 13 12  1  0
 13  6  1  0
 14 15  2  0
 14 16  1  0
 16 17  1  0
 17 20  1  0
 17 18  1  1
 19 18  1  0
 20 22  2  0
 20 21  1  0
M  END
$$$$
