TMC.pdb
     RDKit          3D

 22 21  0  0  1  0  0  0  0  0999 V2000
    8.3510  -19.0421   19.7178 C   0  0  0  0  0  0  0  0  0  0  0  0
    8.9089  -18.3130   20.9252 C   0  0  1  0  0  0  0  0  0  0  0  0
   10.2374  -18.6552   21.0773 O   0  0  0  0  0  0  0  0  0  0  0  0
    8.6986  -16.8308   20.7113 C   0  0  2  0  0  0  0  0  0  0  0  0
    9.5045  -16.3977   19.5915 N   0  0  0  0  0  0  0  0  0  0  0  0
    9.0934  -16.1212   21.9618 C   0  0  0  0  0  0  0  0  0  0  0  0
   10.2523  -15.6405   22.1209 O   0  0  0  0  0  0  0  0  0  0  0  0
    7.0841  -11.1178   27.3821 C   0  0  0  0  0  0  0  0  0  0  0  0
    6.4454  -12.7059   26.7250 S   0  0  0  0  0  0  0  0  0  0  0  0
    7.8245  -13.6676   26.0237 C   0  0  0  0  0  0  0  0  0  0  0  0
    7.3987  -14.4007   24.7778 C   0  0  0  0  0  0  0  0  0  0  0  0
    8.5206  -15.1921   24.2424 C   0  0  2  0  0  0  0  0  0  0  0  0
    8.1961  -15.9426   23.0457 N   0  0  0  0  0  0  0  0  0  0  0  0
    9.2114  -16.0831   25.1819 C   0  0  0  0  0  0  0  0  0  0  0  0
    8.8398  -17.2336   25.5287 O   0  0  0  0  0  0  0  0  0  0  0  0
   10.4432  -15.6578   25.8040 N   0  0  0  0  0  0  0  0  0  0  0  0
   11.2266  -16.5182   26.6304 C   0  0  1  0  0  0  0  0  0  0  0  0
   12.6778  -16.0905   26.7236 C   0  0  0  0  0  0  0  0  0  0  0  0
   13.3417  -15.8316   25.0331 S   0  0  0  0  0  0  0  0  0  0  0  0
   10.7099  -16.6842   27.9990 C   0  0  0  0  0  0  0  0  0  0  0  0
   11.2972  -17.4712   28.9640 O   0  0  0  0  0  0  0  0  0  0  0  0
    9.6571  -16.0585   28.2972 O   0  0  0  0  0  0  0  0  0  0  0  0
  2  1  1  6
  2  4  1  0
  3  2  1  0
  4  6  1  0
  4  5  1  6
  6  7  2  0
  8  9  1  0
  9 10  1  0
 10 11  1  0
 12 11  1  1
 12 14  1  0
 13 12  1  0
 13  6  1  0
 14 15  2  0
 14 16  1  0
 16 17  1  0
 17 20  1  0
 17 18  1  1
 19 18  1  0
 20 22  2  0
 20 21  1  0
M  END
$$$$
