TMC.pdb
     RDKit          3D

 22 21  0  0  1  0  0  0  0  0999 V2000
    6.8001  -17.5520   21.0762 C   0  0  0  0  0  0  0  0  0  0  0  0
    7.8305  -17.0265   20.0949 C   0  0  1  0  0  0  0  0  0  0  0  0
    7.4728  -17.4189   18.8210 O   0  0  0  0  0  0  0  0  0  0  0  0
    7.9013  -15.5244   20.2552 C   0  0  2  0  0  0  0  0  0  0  0  0
    8.7565  -14.9806   19.2237 N   0  0  0  0  0  0  0  0  0  0  0  0
    8.4436  -15.2279   21.6121 C   0  0  0  0  0  0  0  0  0  0  0  0
    9.6714  -15.3597   21.8854 O   0  0  0  0  0  0  0  0  0  0  0  0
    6.3343  -10.9798   26.4360 C   0  0  0  0  0  0  0  0  0  0  0  0
    6.6794  -12.5654   27.2893 S   0  0  0  0  0  0  0  0  0  0  0  0
    7.7650  -13.5897   26.2448 C   0  0  0  0  0  0  0  0  0  0  0  0
    7.2082  -13.7268   24.8513 C   0  0  0  0  0  0  0  0  0  0  0  0
    8.0945  -14.5683   24.0278 C   0  0  2  0  0  0  0  0  0  0  0  0
    7.6182  -14.7814   22.6756 N   0  0  0  0  0  0  0  0  0  0  0  0
    8.4945  -15.8620   24.5936 C   0  0  0  0  0  0  0  0  0  0  0  0
    7.7657  -16.8797   24.7158 O   0  0  0  0  0  0  0  0  0  0  0  0
    9.8427  -16.0510   25.0753 N   0  0  0  0  0  0  0  0  0  0  0  0
   10.3096  -17.2976   25.5900 C   0  0  1  0  0  0  0  0  0  0  0  0
   11.7176  -17.6342   25.1409 C   0  0  0  0  0  0  0  0  0  0  0  0
   11.8109  -17.5271   23.3119 S   0  0  0  0  0  0  0  0  0  0  0  0
   10.2588  -17.4079   27.0573 C   0  0  0  0  0  0  0  0  0  0  0  0
   10.6332  -18.5258   27.7684 O   0  0  0  0  0  0  0  0  0  0  0  0
    9.8425  -16.4045   27.6964 O   0  0  0  0  0  0  0  0  0  0  0  0
  2  1  1  1
  2  4  1  0
  3  2  1  0
  4  6  1  0
  4  5  1  6
  6  7  2  0
  8  9  1  0
  9 10  1  0
 10 11  1  0
 12 11  1  1
 12 14  1  0
 13 12  1  0
 13  6  1  0
 14 15  2  0
 14 16  1  0
 16 17  1  0
 17 20  1  0
 17 18  1  1
 19 18  1  0
 20 22  2  0
 20 21  1  0
M  END
$$$$
