TMC.pdb
     RDKit          3D

 22 21  0  0  1  0  0  0  0  0999 V2000
    7.1914  -17.3624   18.9071 C   0  0  0  0  0  0  0  0  0  0  0  0
    7.8054  -17.0976   20.2686 C   0  0  1  0  0  0  0  0  0  0  0  0
    8.8401  -17.9882   20.4712 O   0  0  0  0  0  0  0  0  0  0  0  0
    8.2503  -15.6527   20.3048 C   0  0  2  0  0  0  0  0  0  0  0  0
    9.3280  -15.4681   19.3585 N   0  0  0  0  0  0  0  0  0  0  0  0
    8.6963  -15.3395   21.6926 C   0  0  0  0  0  0  0  0  0  0  0  0
    9.9059  -15.4452   22.0465 O   0  0  0  0  0  0  0  0  0  0  0  0
    6.4448  -11.0433   26.5845 C   0  0  0  0  0  0  0  0  0  0  0  0
    6.4749  -12.7526   27.2472 S   0  0  0  0  0  0  0  0  0  0  0  0
    7.6485  -13.7550   26.2794 C   0  0  0  0  0  0  0  0  0  0  0  0
    7.2088  -13.8719   24.8428 C   0  0  0  0  0  0  0  0  0  0  0  0
    8.1762  -14.6775   24.0767 C   0  0  2  0  0  0  0  0  0  0  0  0
    7.7942  -14.9051   22.6972 N   0  0  0  0  0  0  0  0  0  0  0  0
    8.5882  -15.9566   24.6664 C   0  0  0  0  0  0  0  0  0  0  0  0
    7.8963  -17.0048   24.7318 O   0  0  0  0  0  0  0  0  0  0  0  0
    9.9043  -16.0917   25.2452 N   0  0  0  0  0  0  0  0  0  0  0  0
   10.3959  -17.3277   25.7623 C   0  0  1  0  0  0  0  0  0  0  0  0
   11.7961  -17.6556   25.2835 C   0  0  0  0  0  0  0  0  0  0  0  0
   12.8378  -16.1488   25.3835 S   0  0  0  0  0  0  0  0  0  0  0  0
   10.3811  -17.4221   27.2316 C   0  0  0  0  0  0  0  0  0  0  0  0
   10.7989  -18.5221   27.9464 O   0  0  0  0  0  0  0  0  0  0  0  0
    9.9547  -16.4216   27.8688 O   0  0  0  0  0  0  0  0  0  0  0  0
  2  1  1  6
  2  4  1  0
  3  2  1  0
  4  6  1  0
  4  5  1  6
  6  7  2  0
  8  9  1  0
  9 10  1  0
 10 11  1  0
 12 11  1  1
 12 14  1  0
 13 12  1  0
 13  6  1  0
 14 15  2  0
 14 16  1  0
 16 17  1  0
 17 20  1  0
 17 18  1  1
 19 18  1  0
 20 22  2  0
 20 21  1  0
M  END
$$$$
