EGM.pdb
     RDKit          3D

 22 21  0  0  1  0  0  0  0  0999 V2000
    8.6115  -18.9223   18.8273 N   0  0  0  0  0  0  0  0  0  0  0  0
    9.2915  -17.6442   18.7461 C   0  0  1  0  0  0  0  0  0  0  0  0
    8.8523  -17.0033   17.4552 C   0  0  0  0  0  0  0  0  0  0  0  0
    7.9331  -17.8095   16.6165 C   0  0  0  0  0  0  0  0  0  0  0  0
    8.6304  -18.4293   15.4848 C   0  0  0  0  0  0  0  0  0  0  0  0
    9.8554  -18.4021   15.3378 O   0  0  0  0  0  0  0  0  0  0  0  0
    8.8001  -16.7167   19.8247 C   0  0  0  0  0  0  0  0  0  0  0  0
    9.3254  -15.5837   19.8860 O   0  0  0  0  0  0  0  0  0  0  0  0
    7.7994  -19.0791   14.5428 O   0  0  0  0  0  0  0  0  0  0  0  0
    7.7948  -17.0578   20.7517 N   0  0  0  0  0  0  0  0  0  0  0  0
    7.1843  -16.1833   21.6863 C   0  0  0  0  0  0  0  0  0  0  0  0
    7.9545  -15.8644   22.8925 C   0  0  0  0  0  0  0  0  0  0  0  0
    9.2231  -15.8269   22.7322 O   0  0  0  0  0  0  0  0  0  0  0  0
    5.3424  -11.7267   27.2227 C   0  0  0  0  0  0  0  0  0  0  0  0
    7.0568  -11.2482   26.9114 S   0  0  0  0  0  0  0  0  0  0  0  0
    8.0328  -12.7661   26.5856 C   0  0  0  0  0  0  0  0  0  0  0  0
    7.3259  -13.6144   25.5671 C   0  0  0  0  0  0  0  0  0  0  0  0
    8.2057  -14.7074   25.0623 C   0  0  2  0  0  0  0  0  0  0  0  0
    7.4545  -15.6052   24.1679 N   0  0  0  0  0  0  0  0  0  0  0  0
    8.8200  -15.5429   26.1007 C   0  0  0  0  0  0  0  0  0  0  0  0
    9.8672  -15.1229   26.6868 O   0  0  0  0  0  0  0  0  0  0  0  0
    8.2715  -16.7846   26.4532 O   0  0  0  0  0  0  0  0  0  0  0  0
  2  1  1  1
  2  3  1  0
  3  4  1  0
  4  5  1  0
  5  6  2  0
  7  2  1  0
  7  8  2  0
  9  5  1  0
 10  7  1  0
 11 10  1  0
 11 12  1  0
 12 19  1  0
 13 12  2  0
 14 15  1  0
 15 16  1  0
 17 16  1  0
 18 17  1  1
 19 18  1  0
 20 18  1  0
 20 22  1  0
 21 20  2  0
M  END
$$$$
