EGM.pdb
     RDKit          3D

 22 21  0  0  1  0  0  0  0  0999 V2000
    9.8422  -16.9811   18.3571 N   0  0  0  0  0  0  0  0  0  0  0  0
    8.4570  -17.3299   18.1081 C   0  0  1  0  0  0  0  0  0  0  0  0
    8.4260  -18.8136   17.8473 C   0  0  0  0  0  0  0  0  0  0  0  0
    9.5718  -19.5856   18.3853 C   0  0  0  0  0  0  0  0  0  0  0  0
    9.4743  -21.0102   18.0502 C   0  0  0  0  0  0  0  0  0  0  0  0
    8.5327  -21.5027   17.4227 O   0  0  0  0  0  0  0  0  0  0  0  0
    7.6337  -17.1393   19.3535 C   0  0  0  0  0  0  0  0  0  0  0  0
    6.4320  -17.4807   19.3010 O   0  0  0  0  0  0  0  0  0  0  0  0
   10.5487  -21.8134   18.4981 O   0  0  0  0  0  0  0  0  0  0  0  0
    8.1430  -16.6043   20.5538 N   0  0  0  0  0  0  0  0  0  0  0  0
    7.4584  -16.5236   21.7930 C   0  0  0  0  0  0  0  0  0  0  0  0
    8.2073  -15.9710   22.9260 C   0  0  0  0  0  0  0  0  0  0  0  0
    9.4659  -15.8444   22.7347 O   0  0  0  0  0  0  0  0  0  0  0  0
    6.1807  -10.3274   26.1209 C   0  0  0  0  0  0  0  0  0  0  0  0
    6.5496  -11.9490   26.8276 S   0  0  0  0  0  0  0  0  0  0  0  0
    7.5182  -12.9094   25.6020 C   0  0  0  0  0  0  0  0  0  0  0  0
    7.9004  -14.2389   26.1875 C   0  0  0  0  0  0  0  0  0  0  0  0
    8.6245  -15.0840   25.1951 C   0  0  2  0  0  0  0  0  0  0  0  0
    7.6974  -15.5801   24.1633 N   0  0  0  0  0  0  0  0  0  0  0  0
    9.3150  -16.2513   25.7561 C   0  0  0  0  0  0  0  0  0  0  0  0
    8.7527  -17.3894   25.6861 O   0  0  0  0  0  0  0  0  0  0  0  0
   10.5749  -16.1294   26.3600 O   0  0  0  0  0  0  0  0  0  0  0  0
  2  1  1  1
  2  3  1  0
  3  4  1  0
  4  5  1  0
  5  6  2  0
  7  2  1  0
  7  8  2  0
  9  5  1  0
 10  7  1  0
 11 10  1  0
 11 12  1  0
 12 19  1  0
 13 12  2  0
 14 15  1  0
 15 16  1  0
 17 16  1  0
 18 17  1  1
 19 18  1  0
 20 18  1  0
 20 22  1  0
 21 20  2  0
M  END
$$$$
