EGM.pdb
     RDKit          3D

 22 21  0  0  1  0  0  0  0  0999 V2000
   10.4049  -19.8705   20.4476 N   0  0  0  0  0  0  0  0  0  0  0  0
   11.4597  -18.8763   20.4077 C   0  0  1  0  0  0  0  0  0  0  0  0
   11.7409  -18.6040   18.9527 C   0  0  0  0  0  0  0  0  0  0  0  0
   10.5895  -18.7678   18.0331 C   0  0  0  0  0  0  0  0  0  0  0  0
   10.9633  -18.5041   16.6396 C   0  0  0  0  0  0  0  0  0  0  0  0
   11.6389  -17.5345   16.2841 O   0  0  0  0  0  0  0  0  0  0  0  0
   10.9682  -17.5646   20.9583 C   0  0  0  0  0  0  0  0  0  0  0  0
   11.7876  -16.6212   21.0018 O   0  0  0  0  0  0  0  0  0  0  0  0
   10.4941  -19.4481   15.6968 O   0  0  0  0  0  0  0  0  0  0  0  0
    9.6531  -17.3529   21.4186 N   0  0  0  0  0  0  0  0  0  0  0  0
    9.1355  -16.1450   21.9517 C   0  0  0  0  0  0  0  0  0  0  0  0
    9.3112  -15.9303   23.3914 C   0  0  0  0  0  0  0  0  0  0  0  0
   10.5261  -15.8474   23.7834 O   0  0  0  0  0  0  0  0  0  0  0  0
    6.5257  -10.5269   26.0491 C   0  0  0  0  0  0  0  0  0  0  0  0
    6.2997  -12.2601   26.5073 S   0  0  0  0  0  0  0  0  0  0  0  0
    7.7559  -13.2093   25.9231 C   0  0  0  0  0  0  0  0  0  0  0  0
    7.6495  -14.6353   26.3835 C   0  0  0  0  0  0  0  0  0  0  0  0
    8.6865  -15.4941   25.7428 C   0  0  2  0  0  0  0  0  0  0  0  0
    8.3100  -15.8115   24.3544 N   0  0  0  0  0  0  0  0  0  0  0  0
    8.9491  -16.7673   26.4237 C   0  0  0  0  0  0  0  0  0  0  0  0
    8.4341  -17.8314   25.9557 O   0  0  0  0  0  0  0  0  0  0  0  0
    9.7544  -16.8256   27.5704 O   0  0  0  0  0  0  0  0  0  0  0  0
  2  1  1  6
  2  3  1  0
  3  4  1  0
  4  5  1  0
  5  6  2  0
  7  2  1  0
  7  8  2  0
  9  5  1  0
 10  7  1  0
 11 10  1  0
 11 12  1  0
 12 19  1  0
 13 12  2  0
 14 15  1  0
 15 16  1  0
 17 16  1  0
 18 17  1  1
 19 18  1  0
 20 18  1  0
 20 22  1  0
 21 20  2  0
M  END
$$$$
