EGM.pdb
     RDKit          3D

 22 21  0  0  1  0  0  0  0  0999 V2000
    7.6981  -15.2741   20.2999 N   0  0  0  0  0  0  0  0  0  0  0  0
    6.8397  -16.4395   20.2137 C   0  0  1  0  0  0  0  0  0  0  0  0
    7.3367  -17.2561   19.0490 C   0  0  0  0  0  0  0  0  0  0  0  0
    7.9017  -16.4841   17.9163 C   0  0  0  0  0  0  0  0  0  0  0  0
    8.4099  -17.3627   16.8577 C   0  0  0  0  0  0  0  0  0  0  0  0
    7.6960  -17.8707   15.9885 O   0  0  0  0  0  0  0  0  0  0  0  0
    7.0311  -17.3248   21.4157 C   0  0  0  0  0  0  0  0  0  0  0  0
    6.4719  -18.4430   21.3958 O   0  0  0  0  0  0  0  0  0  0  0  0
    9.8031  -17.6043   16.8867 O   0  0  0  0  0  0  0  0  0  0  0  0
    7.7962  -16.9604   22.5418 N   0  0  0  0  0  0  0  0  0  0  0  0
    7.9862  -17.7365   23.7134 C   0  0  0  0  0  0  0  0  0  0  0  0
    8.9769  -17.2459   24.6766 C   0  0  0  0  0  0  0  0  0  0  0  0
    9.1700  -18.0028   25.6897 O   0  0  0  0  0  0  0  0  0  0  0  0
    6.2963  -10.9177   27.1349 C   0  0  0  0  0  0  0  0  0  0  0  0
    6.4348  -12.3293   26.0154 S   0  0  0  0  0  0  0  0  0  0  0  0
    7.9937  -13.2182   26.3925 C   0  0  0  0  0  0  0  0  0  0  0  0
    8.2549  -14.2540   25.3363 C   0  0  0  0  0  0  0  0  0  0  0  0
    9.4998  -15.0231   25.6227 C   0  0  2  0  0  0  0  0  0  0  0  0
    9.7119  -16.0636   24.6016 N   0  0  0  0  0  0  0  0  0  0  0  0
    9.5362  -15.6853   26.9319 C   0  0  0  0  0  0  0  0  0  0  0  0
    9.1660  -16.8987   27.0166 O   0  0  0  0  0  0  0  0  0  0  0  0
    9.9719  -15.0053   28.0784 O   0  0  0  0  0  0  0  0  0  0  0  0
  2  1  1  1
  2  3  1  0
  3  4  1  0
  4  5  1  0
  5  6  2  0
  7  2  1  0
  7  8  2  0
  9  5  1  0
 10  7  1  0
 11 10  1  0
 11 12  1  0
 12 19  1  0
 13 12  2  0
 14 15  1  0
 15 16  1  0
 17 16  1  0
 18 17  1  6
 19 18  1  0
 20 18  1  0
 20 22  1  0
 21 20  2  0
M  END
$$$$
