EGM.pdb
     RDKit          3D

 22 21  0  0  1  0  0  0  0  0999 V2000
    4.9811  -19.6833   24.7649 N   0  0  0  0  0  0  0  0  0  0  0  0
    5.9048  -20.3091   23.8389 C   0  0  1  0  0  0  0  0  0  0  0  0
    5.0932  -21.2574   22.9949 C   0  0  0  0  0  0  0  0  0  0  0  0
    5.6172  -22.6409   22.8966 C   0  0  0  0  0  0  0  0  0  0  0  0
    5.2235  -23.2846   21.6389 C   0  0  0  0  0  0  0  0  0  0  0  0
    4.5511  -22.7279   20.7664 O   0  0  0  0  0  0  0  0  0  0  0  0
    6.4458  -19.2943   22.8681 C   0  0  0  0  0  0  0  0  0  0  0  0
    7.4955  -19.5919   22.2573 O   0  0  0  0  0  0  0  0  0  0  0  0
    5.6682  -24.6170   21.4744 O   0  0  0  0  0  0  0  0  0  0  0  0
    5.8374  -18.0477   22.6192 N   0  0  0  0  0  0  0  0  0  0  0  0
    6.4597  -16.9106   22.0439 C   0  0  0  0  0  0  0  0  0  0  0  0
    6.9677  -15.8958   22.9724 C   0  0  0  0  0  0  0  0  0  0  0  0
    6.0696  -15.2001   23.5604 O   0  0  0  0  0  0  0  0  0  0  0  0
    6.6807  -10.8557   27.6675 C   0  0  0  0  0  0  0  0  0  0  0  0
    6.2451  -12.0259   26.3614 S   0  0  0  0  0  0  0  0  0  0  0  0
    7.7415  -12.9921   25.9255 C   0  0  0  0  0  0  0  0  0  0  0  0
    7.4420  -13.8924   24.7607 C   0  0  0  0  0  0  0  0  0  0  0  0
    8.6117  -14.7526   24.4214 C   0  0  2  0  0  0  0  0  0  0  0  0
    8.3011  -15.6184   23.2707 N   0  0  0  0  0  0  0  0  0  0  0  0
    9.0808  -15.6231   25.5060 C   0  0  0  0  0  0  0  0  0  0  0  0
   10.2556  -15.4562   25.9625 O   0  0  0  0  0  0  0  0  0  0  0  0
    8.2579  -16.6245   26.0415 O   0  0  0  0  0  0  0  0  0  0  0  0
  2  1  1  1
  2  3  1  0
  3  4  1  0
  4  5  1  0
  5  6  2  0
  7  2  1  0
  7  8  2  0
  9  5  1  0
 10  7  1  0
 11 10  1  0
 11 12  1  0
 12 19  1  0
 13 12  2  0
 14 15  1  0
 15 16  1  0
 17 16  1  0
 18 17  1  1
 19 18  1  0
 20 18  1  0
 20 22  1  0
 21 20  2  0
M  END
$$$$
