EGM.pdb
     RDKit          3D

 22 21  0  0  1  0  0  0  0  0999 V2000
    8.8265  -19.4209   20.5810 N   0  0  0  0  0  0  0  0  0  0  0  0
   10.0509  -18.6490   20.6673 C   0  0  1  0  0  0  0  0  0  0  0  0
   10.7449  -18.7909   19.3375 C   0  0  0  0  0  0  0  0  0  0  0  0
   10.8282  -20.1698   18.7990 C   0  0  0  0  0  0  0  0  0  0  0  0
   11.7365  -20.2523   17.6504 C   0  0  0  0  0  0  0  0  0  0  0  0
   12.6927  -21.0302   17.5887 O   0  0  0  0  0  0  0  0  0  0  0  0
    9.7407  -17.1810   20.7864 C   0  0  0  0  0  0  0  0  0  0  0  0
   10.7111  -16.3927   20.8078 O   0  0  0  0  0  0  0  0  0  0  0  0
   11.4501  -19.3665   16.5857 O   0  0  0  0  0  0  0  0  0  0  0  0
    8.4333  -16.6622   20.8735 N   0  0  0  0  0  0  0  0  0  0  0  0
    8.0822  -15.3065   21.0969 C   0  0  0  0  0  0  0  0  0  0  0  0
    8.5534  -14.6999   22.3459 C   0  0  0  0  0  0  0  0  0  0  0  0
    8.4540  -13.4257   22.4017 O   0  0  0  0  0  0  0  0  0  0  0  0
    5.9886  -11.6387   28.0236 C   0  0  0  0  0  0  0  0  0  0  0  0
    5.9672  -12.5795   26.4810 S   0  0  0  0  0  0  0  0  0  0  0  0
    7.5168  -13.5541   26.3743 C   0  0  0  0  0  0  0  0  0  0  0  0
    7.6404  -14.1614   25.0059 C   0  0  0  0  0  0  0  0  0  0  0  0
    9.0061  -14.7140   24.7758 C   0  0  2  0  0  0  0  0  0  0  0  0
    9.0881  -15.3573   23.4530 N   0  0  0  0  0  0  0  0  0  0  0  0
    9.4550  -15.6992   25.7666 C   0  0  0  0  0  0  0  0  0  0  0  0
    9.4912  -16.9271   25.4386 O   0  0  0  0  0  0  0  0  0  0  0  0
    9.8431  -15.3080   27.0562 O   0  0  0  0  0  0  0  0  0  0  0  0
  2  1  1  6
  2  3  1  0
  3  4  1  0
  4  5  1  0
  5  6  2  0
  7  2  1  0
  7  8  2  0
  9  5  1  0
 10  7  1  0
 11 10  1  0
 11 12  1  0
 12 19  1  0
 13 12  2  0
 14 15  1  0
 15 16  1  0
 17 16  1  0
 18 17  1  1
 19 18  1  0
 20 18  1  0
 20 22  1  0
 21 20  2  0
M  END
$$$$
