ELD.pdb
     RDKit          3D

 26 25  0  0  1  0  0  0  0  0999 V2000
   19.5649  -12.0742  -17.7900 N   0  0  0  0  0  0  0  0  0  0  0  0
   18.9253  -11.2671  -16.7395 C   0  0  1  0  0  0  0  0  0  0  0  0
   18.1459  -12.1215  -15.8114 C   0  0  0  0  0  0  0  0  0  0  0  0
   17.1507  -12.9686  -16.5185 C   0  0  0  0  0  0  0  0  0  0  0  0
   17.4807  -14.4029  -16.4007 C   0  0  0  0  0  0  0  0  0  0  0  0
   18.4405  -14.8470  -15.7471 O   0  0  0  0  0  0  0  0  0  0  0  0
   20.0217  -10.5828  -16.0056 C   0  0  0  0  0  0  0  0  0  0  0  0
   19.8667   -9.8854  -14.9740 O   0  0  0  0  0  0  0  0  0  0  0  0
   16.6814  -15.3574  -17.0560 O   0  0  0  0  0  0  0  0  0  0  0  0
   25.0181   -9.9383  -14.1690 C   0  0  0  0  0  0  0  0  0  0  0  0
   24.9462   -9.7096  -15.6840 C   0  0  1  0  0  0  0  0  0  0  0  0
   26.2999   -9.9791  -16.2364 C   0  0  0  0  0  0  0  0  0  0  0  0
   23.8111  -10.4528  -16.2662 C   0  0  0  0  0  0  0  0  0  0  0  0
   22.4467   -9.9868  -15.8494 C   0  0  2  0  0  0  0  0  0  0  0  0
   21.3580  -10.7020  -16.4741 N   0  0  0  0  0  0  0  0  0  0  0  0
   22.2470   -8.5395  -16.1396 C   0  0  0  0  0  0  0  0  0  0  0  0
   22.2489   -8.1495  -17.3277 O   0  0  0  0  0  0  0  0  0  0  0  0
   22.0539   -7.5687  -15.1252 N   0  0  0  0  0  0  0  0  0  0  0  0
   21.9788   -6.1557  -15.3332 C   0  0  1  0  0  0  0  0  0  0  0  0
   20.5780   -5.7803  -15.7716 C   0  0  0  0  0  0  0  0  0  0  0  0
   20.4049   -4.3363  -15.9835 C   0  0  0  0  0  0  0  0  0  0  0  0
   19.9620   -3.6260  -15.0588 O   0  0  0  0  0  0  0  0  0  0  0  0
   22.4136   -5.3671  -14.1562 C   0  0  0  0  0  0  0  0  0  0  0  0
   22.5704   -4.1169  -14.2521 O   0  0  0  0  0  0  0  0  0  0  0  0
   20.7254   -3.7583  -17.1876 O   0  0  0  0  0  0  0  0  0  0  0  0
   22.6745   -5.9095  -12.9004 O   0  0  0  0  0  0  0  0  0  0  0  0
  2  7  1  0
  2  1  1  6
  3  2  1  0
  4  3  1  0
  5  9  1  0
  5  4  1  0
  6  5  2  0
  7  8  2  0
 11 10  1  1
 11 12  1  0
 13 11  1  0
 14 13  1  6
 15 14  1  0
 15  7  1  0
 16 18  1  0
 16 14  1  0
 17 16  2  0
 19 23  1  0
 19 18  1  0
 19 20  1  1
 21 22  2  0
 21 20  1  0
 23 26  1  0
 24 23  2  0
 25 21  1  0
M  END
$$$$
