ELD.pdb
     RDKit          3D

 26 25  0  0  1  0  0  0  0  0999 V2000
   19.5621  -23.2911  -12.9587 N   0  0  0  0  0  0  0  0  0  0  0  0
   19.9090  -22.3318  -14.0186 C   0  0  1  0  0  0  0  0  0  0  0  0
   18.7085  -21.5986  -14.4875 C   0  0  0  0  0  0  0  0  0  0  0  0
   18.1527  -22.1628  -15.7448 C   0  0  0  0  0  0  0  0  0  0  0  0
   17.5183  -23.4759  -15.5139 C   0  0  0  0  0  0  0  0  0  0  0  0
   16.6228  -23.6809  -14.6762 O   0  0  0  0  0  0  0  0  0  0  0  0
   20.8885  -21.3836  -13.4265 C   0  0  0  0  0  0  0  0  0  0  0  0
   20.6076  -20.4971  -12.5841 O   0  0  0  0  0  0  0  0  0  0  0  0
   17.9272  -24.5893  -16.2705 O   0  0  0  0  0  0  0  0  0  0  0  0
   25.9522  -22.1755  -11.0017 C   0  0  0  0  0  0  0  0  0  0  0  0
   24.6124  -21.5088  -11.3375 C   0  0  1  0  0  0  0  0  0  0  0  0
   24.4685  -20.3304  -10.4427 C   0  0  0  0  0  0  0  0  0  0  0  0
   24.4986  -21.2795  -12.7917 C   0  0  0  0  0  0  0  0  0  0  0  0
   23.2506  -20.5791  -13.2435 C   0  0  2  0  0  0  0  0  0  0  0  0
   22.2531  -21.4530  -13.8166 N   0  0  0  0  0  0  0  0  0  0  0  0
   23.5460  -19.5253  -14.2540 C   0  0  0  0  0  0  0  0  0  0  0  0
   24.3178  -18.5891  -13.9515 O   0  0  0  0  0  0  0  0  0  0  0  0
   22.9889  -19.5283  -15.5573 N   0  0  0  0  0  0  0  0  0  0  0  0
   23.1884  -18.5150  -16.5466 C   0  0  1  0  0  0  0  0  0  0  0  0
   23.9523  -19.0937  -17.7200 C   0  0  0  0  0  0  0  0  0  0  0  0
   24.0984  -18.1507  -18.8378 C   0  0  0  0  0  0  0  0  0  0  0  0
   24.2564  -16.9359  -18.6031 O   0  0  0  0  0  0  0  0  0  0  0  0
   21.9292  -17.8650  -16.9805 C   0  0  0  0  0  0  0  0  0  0  0  0
   20.8136  -18.3559  -16.6473 O   0  0  0  0  0  0  0  0  0  0  0  0
   24.0638  -18.5903  -20.1386 O   0  0  0  0  0  0  0  0  0  0  0  0
   21.8684  -16.7102  -17.7566 O   0  0  0  0  0  0  0  0  0  0  0  0
  2  7  1  0
  2  1  1  1
  3  2  1  0
  4  3  1  0
  5  9  1  0
  5  4  1  0
  6  5  2  0
  7  8  2  0
 11 10  1  6
 11 12  1  0
 13 11  1  0
 14 13  1  6
 15 14  1  0
 15  7  1  0
 16 18  1  0
 16 14  1  0
 17 16  2  0
 19 23  1  0
 19 18  1  0
 19 20  1  6
 21 22  2  0
 21 20  1  0
 23 26  1  0
 24 23  2  0
 25 21  1  0
M  END
$$$$
