ELD.pdb
     RDKit          3D

 26 25  0  0  1  0  0  0  0  0999 V2000
   19.8696  -12.5812  -17.3271 N   0  0  0  0  0  0  0  0  0  0  0  0
   20.6155  -11.4808  -17.9570 C   0  0  1  0  0  0  0  0  0  0  0  0
   19.7444  -10.6993  -18.8676 C   0  0  0  0  0  0  0  0  0  0  0  0
   19.2152  -11.5175  -19.9894 C   0  0  0  0  0  0  0  0  0  0  0  0
   18.3194  -10.7284  -20.8583 C   0  0  0  0  0  0  0  0  0  0  0  0
   18.0409   -9.5314  -20.6704 O   0  0  0  0  0  0  0  0  0  0  0  0
   21.1068  -10.6163  -16.8524 C   0  0  0  0  0  0  0  0  0  0  0  0
   20.5303  -10.4693  -15.7476 O   0  0  0  0  0  0  0  0  0  0  0  0
   17.7242  -11.3356  -21.9792 O   0  0  0  0  0  0  0  0  0  0  0  0
   26.4877  -10.3210  -15.5626 C   0  0  0  0  0  0  0  0  0  0  0  0
   24.9566  -10.4054  -15.5302 C   0  0  1  0  0  0  0  0  0  0  0  0
   24.5750  -11.0186  -14.2307 C   0  0  0  0  0  0  0  0  0  0  0  0
   24.3590   -9.0987  -15.8699 C   0  0  0  0  0  0  0  0  0  0  0  0
   22.8610   -9.0724  -15.9585 C   0  0  2  0  0  0  0  0  0  0  0  0
   22.3142   -9.8859  -17.0197 N   0  0  0  0  0  0  0  0  0  0  0  0
   22.3455   -7.6886  -16.1539 C   0  0  0  0  0  0  0  0  0  0  0  0
   22.3964   -7.1736  -17.2923 O   0  0  0  0  0  0  0  0  0  0  0  0
   21.7943   -6.9148  -15.1021 N   0  0  0  0  0  0  0  0  0  0  0  0
   21.3966   -5.5446  -15.2011 C   0  0  1  0  0  0  0  0  0  0  0  0
   19.8996   -5.4339  -14.9964 C   0  0  0  0  0  0  0  0  0  0  0  0
   19.4044   -4.0525  -15.0783 C   0  0  0  0  0  0  0  0  0  0  0  0
   19.4677   -3.4381  -16.1619 O   0  0  0  0  0  0  0  0  0  0  0  0
   22.1420   -4.6512  -14.2832 C   0  0  0  0  0  0  0  0  0  0  0  0
   22.7024   -5.1231  -13.2537 O   0  0  0  0  0  0  0  0  0  0  0  0
   18.8720   -3.4292  -13.9763 O   0  0  0  0  0  0  0  0  0  0  0  0
   22.2837   -3.2781  -14.4669 O   0  0  0  0  0  0  0  0  0  0  0  0
  2  7  1  0
  2  1  1  1
  3  2  1  0
  4  3  1  0
  5  9  1  0
  5  4  1  0
  6  5  2  0
  7  8  2  0
 11 10  1  1
 11 12  1  0
 13 11  1  0
 14 13  1  6
 15 14  1  0
 15  7  1  0
 16 18  1  0
 16 14  1  0
 17 16  2  0
 19 23  1  0
 19 18  1  0
 19 20  1  1
 21 22  2  0
 21 20  1  0
 23 26  1  0
 24 23  2  0
 25 21  1  0
M  END
$$$$
