ELD.pdb
     RDKit          3D

 26 25  0  0  1  0  0  0  0  0999 V2000
   26.9164  -19.6614  -14.9980 N   0  0  0  0  0  0  0  0  0  0  0  0
   26.4509  -20.9751  -15.4687 C   0  0  1  0  0  0  0  0  0  0  0  0
   27.5822  -21.9240  -15.6047 C   0  0  0  0  0  0  0  0  0  0  0  0
   28.5382  -21.5203  -16.6682 C   0  0  0  0  0  0  0  0  0  0  0  0
   28.1126  -22.0133  -17.9933 C   0  0  0  0  0  0  0  0  0  0  0  0
   27.8330  -21.2770  -18.9552 O   0  0  0  0  0  0  0  0  0  0  0  0
   25.4868  -21.4711  -14.4520 C   0  0  0  0  0  0  0  0  0  0  0  0
   24.9708  -22.6149  -14.4525 O   0  0  0  0  0  0  0  0  0  0  0  0
   28.0046  -23.3977  -18.2192 O   0  0  0  0  0  0  0  0  0  0  0  0
   25.8331  -20.2712   -9.0811 C   0  0  0  0  0  0  0  0  0  0  0  0
   25.6507  -20.9051  -10.4659 C   0  0  1  0  0  0  0  0  0  0  0  0
   25.9689  -22.3514  -10.3353 C   0  0  0  0  0  0  0  0  0  0  0  0
   24.3354  -20.5440  -11.0311 C   0  0  0  0  0  0  0  0  0  0  0  0
   24.0805  -21.0114  -12.4343 C   0  0  2  0  0  0  0  0  0  0  0  0
   25.0949  -20.6184  -13.3850 N   0  0  0  0  0  0  0  0  0  0  0  0
   22.7754  -20.5135  -12.9517 C   0  0  0  0  0  0  0  0  0  0  0  0
   22.6975  -19.3435  -13.3861 O   0  0  0  0  0  0  0  0  0  0  0  0
   21.6016  -21.3076  -12.9761 N   0  0  0  0  0  0  0  0  0  0  0  0
   20.4465  -21.0555  -13.7810 C   0  0  1  0  0  0  0  0  0  0  0  0
   20.7391  -21.4272  -15.2202 C   0  0  0  0  0  0  0  0  0  0  0  0
   20.7454  -20.2707  -16.1272 C   0  0  0  0  0  0  0  0  0  0  0  0
   20.5176  -19.1310  -15.6748 O   0  0  0  0  0  0  0  0  0  0  0  0
   19.2255  -21.7289  -13.2792 C   0  0  0  0  0  0  0  0  0  0  0  0
   18.1951  -21.0519  -13.0025 O   0  0  0  0  0  0  0  0  0  0  0  0
   20.9997  -20.4290  -17.4677 O   0  0  0  0  0  0  0  0  0  0  0  0
   19.1122  -23.1024  -13.0789 O   0  0  0  0  0  0  0  0  0  0  0  0
  2  7  1  0
  2  1  1  1
  3  2  1  0
  4  3  1  0
  5  9  1  0
  5  4  1  0
  6  5  2  0
  7  8  2  0
 11 10  1  1
 11 12  1  0
 13 11  1  0
 14 13  1  1
 15 14  1  0
 15  7  1  0
 16 18  1  0
 16 14  1  0
 17 16  2  0
 19 23  1  0
 19 18  1  0
 19 20  1  6
 21 22  2  0
 21 20  1  0
 23 26  1  0
 24 23  2  0
 25 21  1  0
M  END
$$$$
