ELD.pdb
     RDKit          3D

 26 25  0  0  1  0  0  0  0  0999 V2000
   20.2543  -12.1625  -18.6305 N   0  0  0  0  0  0  0  0  0  0  0  0
   19.2881  -11.6125  -17.6672 C   0  0  1  0  0  0  0  0  0  0  0  0
   18.6471  -12.6930  -16.8796 C   0  0  0  0  0  0  0  0  0  0  0  0
   19.6147  -13.7374  -16.4542 C   0  0  0  0  0  0  0  0  0  0  0  0
   18.9681  -14.7618  -15.6101 C   0  0  0  0  0  0  0  0  0  0  0  0
   18.8901  -14.6977  -14.3710 O   0  0  0  0  0  0  0  0  0  0  0  0
   20.0542  -10.7101  -16.7684 C   0  0  0  0  0  0  0  0  0  0  0  0
   19.5811  -10.1345  -15.7588 O   0  0  0  0  0  0  0  0  0  0  0  0
   18.3929  -15.8968  -16.2103 O   0  0  0  0  0  0  0  0  0  0  0  0
   23.6682  -10.9411  -14.0078 C   0  0  0  0  0  0  0  0  0  0  0  0
   24.3315   -9.8833  -14.8987 C   0  0  1  0  0  0  0  0  0  0  0  0
   25.7971  -10.1299  -14.8613 C   0  0  0  0  0  0  0  0  0  0  0  0
   23.6803   -9.8401  -16.2231 C   0  0  0  0  0  0  0  0  0  0  0  0
   22.2059   -9.5600  -16.2136 C   0  0  2  0  0  0  0  0  0  0  0  0
   21.4259  -10.4545  -17.0375 N   0  0  0  0  0  0  0  0  0  0  0  0
   21.9063   -8.1722  -16.6642 C   0  0  0  0  0  0  0  0  0  0  0  0
   22.1211   -7.8577  -17.8553 O   0  0  0  0  0  0  0  0  0  0  0  0
   21.3850   -7.1763  -15.8009 N   0  0  0  0  0  0  0  0  0  0  0  0
   20.8618   -5.9113  -16.2148 C   0  0  1  0  0  0  0  0  0  0  0  0
   19.8247   -6.1206  -17.2992 C   0  0  0  0  0  0  0  0  0  0  0  0
   19.1857   -4.8719  -17.7382 C   0  0  0  0  0  0  0  0  0  0  0  0
   18.0135   -4.6240  -17.3914 O   0  0  0  0  0  0  0  0  0  0  0  0
   20.3256   -5.1046  -15.0932 C   0  0  0  0  0  0  0  0  0  0  0  0
   20.1297   -3.8649  -15.2394 O   0  0  0  0  0  0  0  0  0  0  0  0
   19.8634   -3.9735  -18.5256 O   0  0  0  0  0  0  0  0  0  0  0  0
   20.0053   -5.6185  -13.8391 O   0  0  0  0  0  0  0  0  0  0  0  0
  2  7  1  0
  2  1  1  6
  3  2  1  0
  4  3  1  0
  5  9  1  0
  5  4  1  0
  6  5  2  0
  7  8  2  0
 11 10  1  1
 11 12  1  0
 13 11  1  0
 14 13  1  6
 15 14  1  0
 15  7  1  0
 16 18  1  0
 16 14  1  0
 17 16  2  0
 19 23  1  0
 19 18  1  0
 19 20  1  6
 21 22  2  0
 21 20  1  0
 23 26  1  0
 24 23  2  0
 25 21  1  0
M  END
$$$$
