ELD.pdb
     RDKit          3D

 26 25  0  0  1  0  0  0  0  0999 V2000
   17.2191  -11.2152  -16.0998 N   0  0  0  0  0  0  0  0  0  0  0  0
   18.2151  -10.3831  -16.7924 C   0  0  1  0  0  0  0  0  0  0  0  0
   17.5705   -9.5124  -17.8049 C   0  0  0  0  0  0  0  0  0  0  0  0
   17.0153  -10.2836  -18.9474 C   0  0  0  0  0  0  0  0  0  0  0  0
   18.0837  -10.7598  -19.8483 C   0  0  0  0  0  0  0  0  0  0  0  0
   19.0801  -10.0876  -20.1660 O   0  0  0  0  0  0  0  0  0  0  0  0
   18.8723   -9.5538  -15.7488 C   0  0  0  0  0  0  0  0  0  0  0  0
   18.2832   -9.0366  -14.7690 O   0  0  0  0  0  0  0  0  0  0  0  0
   18.0034  -12.0507  -20.4021 O   0  0  0  0  0  0  0  0  0  0  0  0
   23.1837  -10.2292  -16.5087 C   0  0  0  0  0  0  0  0  0  0  0  0
   22.6784  -10.3798  -15.0684 C   0  0  1  0  0  0  0  0  0  0  0  0
   23.6705  -11.2108  -14.3365 C   0  0  0  0  0  0  0  0  0  0  0  0
   22.3399   -9.0606  -14.4981 C   0  0  0  0  0  0  0  0  0  0  0  0
   20.9645   -8.5497  -14.8136 C   0  0  2  0  0  0  0  0  0  0  0  0
   20.2689   -9.3045  -15.8301 N   0  0  0  0  0  0  0  0  0  0  0  0
   20.9944   -7.1297  -15.2624 C   0  0  0  0  0  0  0  0  0  0  0  0
   21.2378   -6.8739  -16.4620 O   0  0  0  0  0  0  0  0  0  0  0  0
   20.7596   -6.0391  -14.3881 N   0  0  0  0  0  0  0  0  0  0  0  0
   20.8062   -4.6574  -14.7548 C   0  0  1  0  0  0  0  0  0  0  0  0
   19.5955   -3.9413  -14.1921 C   0  0  0  0  0  0  0  0  0  0  0  0
   19.5153   -2.5315  -14.5998 C   0  0  0  0  0  0  0  0  0  0  0  0
   20.3520   -2.0734  -15.4033 O   0  0  0  0  0  0  0  0  0  0  0  0
   22.0691   -3.9897  -14.3607 C   0  0  0  0  0  0  0  0  0  0  0  0
   22.3510   -2.8450  -14.8155 O   0  0  0  0  0  0  0  0  0  0  0  0
   18.5296   -1.7114  -14.1073 O   0  0  0  0  0  0  0  0  0  0  0  0
   23.0111   -4.5395  -13.4948 O   0  0  0  0  0  0  0  0  0  0  0  0
  2  7  1  0
  2  1  1  1
  3  2  1  0
  4  3  1  0
  5  9  1  0
  5  4  1  0
  6  5  2  0
  7  8  2  0
 11 10  1  6
 11 12  1  0
 13 11  1  0
 14 13  1  6
 15 14  1  0
 15  7  1  0
 16 18  1  0
 16 14  1  0
 17 16  2  0
 19 23  1  0
 19 18  1  0
 19 20  1  1
 21 22  2  0
 21 20  1  0
 23 26  1  0
 24 23  2  0
 25 21  1  0
M  END
$$$$
