ELD.pdb
     RDKit          3D

 26 25  0  0  1  0  0  0  0  0999 V2000
   24.1095  -17.9412  -16.1365 N   0  0  0  0  0  0  0  0  0  0  0  0
   23.4829  -19.1666  -16.6559 C   0  0  1  0  0  0  0  0  0  0  0  0
   24.3274  -19.7957  -17.6998 C   0  0  0  0  0  0  0  0  0  0  0  0
   25.4844  -18.9458  -18.0836 C   0  0  0  0  0  0  0  0  0  0  0  0
   25.4090  -18.5380  -19.5007 C   0  0  0  0  0  0  0  0  0  0  0  0
   24.9335  -19.2449  -20.4061 O   0  0  0  0  0  0  0  0  0  0  0  0
   23.3304  -20.0866  -15.4985 C   0  0  0  0  0  0  0  0  0  0  0  0
   22.8421  -21.2409  -15.5608 O   0  0  0  0  0  0  0  0  0  0  0  0
   25.8966  -17.2767  -19.8890 O   0  0  0  0  0  0  0  0  0  0  0  0
   24.8851  -22.3005  -10.8351 C   0  0  0  0  0  0  0  0  0  0  0  0
   24.2412  -20.9208  -10.6491 C   0  0  1  0  0  0  0  0  0  0  0  0
   24.7485  -20.3655   -9.3668 C   0  0  0  0  0  0  0  0  0  0  0  0
   24.4151  -20.1006  -11.8644 C   0  0  0  0  0  0  0  0  0  0  0  0
   23.5750  -20.4982  -13.0428 C   0  0  2  0  0  0  0  0  0  0  0  0
   23.7566  -19.6663  -14.2098 N   0  0  0  0  0  0  0  0  0  0  0  0
   22.1225  -20.4837  -12.7130 C   0  0  0  0  0  0  0  0  0  0  0  0
   21.5626  -19.3920  -12.4712 O   0  0  0  0  0  0  0  0  0  0  0  0
   21.3322  -21.6590  -12.6572 N   0  0  0  0  0  0  0  0  0  0  0  0
   19.9344  -21.7048  -12.3581 C   0  0  1  0  0  0  0  0  0  0  0  0
   19.1533  -21.9952  -13.6233 C   0  0  0  0  0  0  0  0  0  0  0  0
   17.7076  -22.1275  -13.3939 C   0  0  0  0  0  0  0  0  0  0  0  0
   17.1756  -23.2544  -13.4457 O   0  0  0  0  0  0  0  0  0  0  0  0
   19.5986  -22.6603  -11.2762 C   0  0  0  0  0  0  0  0  0  0  0  0
   20.3737  -23.6239  -11.0169 O   0  0  0  0  0  0  0  0  0  0  0  0
   16.9343  -21.0253  -13.1223 O   0  0  0  0  0  0  0  0  0  0  0  0
   18.4534  -22.5829  -10.4875 O   0  0  0  0  0  0  0  0  0  0  0  0
  2  7  1  0
  2  1  1  1
  3  2  1  0
  4  3  1  0
  5  9  1  0
  5  4  1  0
  6  5  2  0
  7  8  2  0
 11 10  1  6
 11 12  1  0
 13 11  1  0
 14 13  1  1
 15 14  1  0
 15  7  1  0
 16 18  1  0
 16 14  1  0
 17 16  2  0
 19 23  1  0
 19 18  1  0
 19 20  1  6
 21 22  2  0
 21 20  1  0
 23 26  1  0
 24 23  2  0
 25 21  1  0
M  END
$$$$
