EGE.pdb
     RDKit          3D

 23 22  0  0  1  0  0  0  0  0999 V2000
   10.3627  -19.2604   19.2888 N   0  0  0  0  0  0  0  0  0  0  0  0
   11.2095  -18.0454   19.2382 C   0  0  1  0  0  0  0  0  0  0  0  0
   10.7536  -17.3325   17.9829 C   0  0  0  0  0  0  0  0  0  0  0  0
    9.4834  -17.9115   17.4683 C   0  0  0  0  0  0  0  0  0  0  0  0
    9.0300  -17.2201   16.2104 C   0  0  0  0  0  0  0  0  0  0  0  0
    9.6495  -16.2884   15.6827 O   0  0  0  0  0  0  0  0  0  0  0  0
   10.8749  -17.2267   20.4011 C   0  0  0  0  0  0  0  0  0  0  0  0
   11.4930  -16.1267   20.5861 O   0  0  0  0  0  0  0  0  0  0  0  0
    7.8505  -17.6846   15.6472 O   0  0  0  0  0  0  0  0  0  0  0  0
    9.8881  -17.5651   21.3669 N   0  0  0  0  0  0  0  0  0  0  0  0
    9.6737  -16.6750   22.4669 C   0  0  0  0  0  0  0  0  0  0  0  0
   10.6310  -16.8990   23.5807 C   0  0  0  0  0  0  0  0  0  0  0  0
   11.5756  -17.7446   23.4849 O   0  0  0  0  0  0  0  0  0  0  0  0
   10.5278  -16.1811   24.7880 N   0  0  0  0  0  0  0  0  0  0  0  0
   11.4187  -16.3712   25.9274 C   0  0  1  0  0  0  0  0  0  0  0  0
   11.2583  -15.2823   26.9445 C   0  0  0  0  0  0  0  0  0  0  0  0
   10.0124  -15.3335   27.7532 C   0  0  0  0  0  0  0  0  0  0  0  0
    9.8437  -14.2575   28.7242 C   0  0  0  0  0  0  0  0  0  0  0  0
    9.5132  -13.1194   28.3146 O   0  0  0  0  0  0  0  0  0  0  0  0
   11.2903  -17.7212   26.5050 C   0  0  0  0  0  0  0  0  0  0  0  0
   12.3751  -18.2499   27.2161 O   0  0  0  0  0  0  0  0  0  0  0  0
   10.0289  -14.4212   30.0761 O   0  0  0  0  0  0  0  0  0  0  0  0
   10.2793  -18.4394   26.4096 O   0  0  0  0  0  0  0  0  0  0  0  0
  2  1  1  1
  2  7  1  0
  2  3  1  0
  4  3  1  0
  4  5  1  0
  5  6  2  0
  7  8  2  0
  9  5  1  0
 10 11  1  0
 10  7  1  0
 11 12  1  0
 12 13  2  0
 12 14  1  0
 14 15  1  0
 15 16  1  1
 17 16  1  0
 17 18  1  0
 18 22  1  0
 18 19  2  0
 20 21  1  0
 20 15  1  0
 23 20  2  0
M  END
$$$$
