EGE.pdb
     RDKit          3D

 23 22  0  0  1  0  0  0  0  0999 V2000
   11.2096  -19.2538   18.9946 N   0  0  0  0  0  0  0  0  0  0  0  0
   11.4369  -17.7955   18.8622 C   0  0  1  0  0  0  0  0  0  0  0  0
   10.7116  -17.4256   17.5859 C   0  0  0  0  0  0  0  0  0  0  0  0
   10.9718  -18.4224   16.5126 C   0  0  0  0  0  0  0  0  0  0  0  0
   10.2252  -18.0836   15.2501 C   0  0  0  0  0  0  0  0  0  0  0  0
    9.5131  -17.0795   15.1272 O   0  0  0  0  0  0  0  0  0  0  0  0
   10.7792  -17.1430   19.9920 C   0  0  0  0  0  0  0  0  0  0  0  0
   10.8943  -15.8811   20.1346 O   0  0  0  0  0  0  0  0  0  0  0  0
   10.3720  -18.9715   14.1946 O   0  0  0  0  0  0  0  0  0  0  0  0
    9.9988  -17.8190   20.9692 N   0  0  0  0  0  0  0  0  0  0  0  0
    9.3927  -17.0497   22.0127 C   0  0  0  0  0  0  0  0  0  0  0  0
   10.2713  -16.9035   23.2018 C   0  0  0  0  0  0  0  0  0  0  0  0
   11.4340  -17.4169   23.2357 O   0  0  0  0  0  0  0  0  0  0  0  0
    9.8481  -16.1888   24.3392 N   0  0  0  0  0  0  0  0  0  0  0  0
   10.5986  -16.1280   25.5887 C   0  0  1  0  0  0  0  0  0  0  0  0
   10.0084  -15.1336   26.5421 C   0  0  0  0  0  0  0  0  0  0  0  0
   10.7500  -14.9427   27.8159 C   0  0  0  0  0  0  0  0  0  0  0  0
   10.2451  -13.8892   28.6901 C   0  0  0  0  0  0  0  0  0  0  0  0
    9.2173  -13.2586   28.3461 O   0  0  0  0  0  0  0  0  0  0  0  0
   10.7767  -17.4631   26.1873 C   0  0  0  0  0  0  0  0  0  0  0  0
   12.0034  -17.7663   26.7917 O   0  0  0  0  0  0  0  0  0  0  0  0
   10.8377  -13.5442   29.8811 O   0  0  0  0  0  0  0  0  0  0  0  0
    9.9107  -18.3558   26.1985 O   0  0  0  0  0  0  0  0  0  0  0  0
  2  1  1  1
  2  7  1  0
  2  3  1  0
  4  3  1  0
  4  5  1  0
  5  6  2  0
  7  8  2  0
  9  5  1  0
 10 11  1  0
 10  7  1  0
 11 12  1  0
 12 13  2  0
 12 14  1  0
 14 15  1  0
 15 16  1  1
 17 16  1  0
 17 18  1  0
 18 22  1  0
 18 19  2  0
 20 21  1  0
 20 15  1  0
 23 20  2  0
M  END
$$$$
