EGE.pdb
     RDKit          3D

 23 22  0  0  1  0  0  0  0  0999 V2000
    6.3755  -16.9949   20.2576 N   0  0  0  0  0  0  0  0  0  0  0  0
    6.9757  -18.3160   19.9570 C   0  0  1  0  0  0  0  0  0  0  0  0
    6.9662  -18.3876   18.4449 C   0  0  0  0  0  0  0  0  0  0  0  0
    7.7615  -17.2798   17.8502 C   0  0  0  0  0  0  0  0  0  0  0  0
    7.7395  -17.3286   16.3458 C   0  0  0  0  0  0  0  0  0  0  0  0
    7.0600  -18.1352   15.6992 O   0  0  0  0  0  0  0  0  0  0  0  0
    8.3593  -18.2880   20.4255 C   0  0  0  0  0  0  0  0  0  0  0  0
    9.2130  -19.0701   19.8910 O   0  0  0  0  0  0  0  0  0  0  0  0
    8.5380  -16.4024   15.6911 O   0  0  0  0  0  0  0  0  0  0  0  0
    8.8437  -17.4350   21.4544 N   0  0  0  0  0  0  0  0  0  0  0  0
   10.2385  -17.1152   21.4778 C   0  0  0  0  0  0  0  0  0  0  0  0
   10.5934  -16.1772   22.5740 C   0  0  0  0  0  0  0  0  0  0  0  0
   11.7851  -15.7645   22.7353 O   0  0  0  0  0  0  0  0  0  0  0  0
    9.6205  -15.7087   23.4781 N   0  0  0  0  0  0  0  0  0  0  0  0
    9.8684  -15.4865   24.8985 C   0  0  1  0  0  0  0  0  0  0  0  0
    8.7945  -14.6493   25.5244 C   0  0  0  0  0  0  0  0  0  0  0  0
    8.1857  -13.6178   24.6445 C   0  0  0  0  0  0  0  0  0  0  0  0
    7.0542  -12.8910   25.2107 C   0  0  0  0  0  0  0  0  0  0  0  0
    6.6148  -13.2355   26.3334 O   0  0  0  0  0  0  0  0  0  0  0  0
   10.1052  -16.7507   25.6185 C   0  0  0  0  0  0  0  0  0  0  0  0
   10.7159  -16.6982   26.8780 O   0  0  0  0  0  0  0  0  0  0  0  0
    6.4354  -11.8401   24.5773 O   0  0  0  0  0  0  0  0  0  0  0  0
    9.8012  -17.8779   25.1897 O   0  0  0  0  0  0  0  0  0  0  0  0
  2  1  1  6
  2  7  1  0
  2  3  1  0
  4  3  1  0
  4  5  1  0
  5  6  2  0
  7  8  2  0
  9  5  1  0
 10 11  1  0
 10  7  1  0
 11 12  1  0
 12 13  2  0
 12 14  1  0
 14 15  1  0
 15 16  1  1
 17 16  1  0
 17 18  1  0
 18 22  1  0
 18 19  2  0
 20 21  1  0
 20 15  1  0
 23 20  2  0
M  END
$$$$
