EGE.pdb
     RDKit          3D

 23 22  0  0  1  0  0  0  0  0999 V2000
   11.0335  -14.2310   18.1886 N   0  0  0  0  0  0  0  0  0  0  0  0
   11.2735  -15.6712   18.4420 C   0  0  1  0  0  0  0  0  0  0  0  0
   12.7816  -15.8013   18.4193 C   0  0  0  0  0  0  0  0  0  0  0  0
   13.4372  -14.4795   18.6100 C   0  0  0  0  0  0  0  0  0  0  0  0
   14.9371  -14.5924   18.5518 C   0  0  0  0  0  0  0  0  0  0  0  0
   15.6167  -14.1741   17.6065 O   0  0  0  0  0  0  0  0  0  0  0  0
   10.7883  -15.9682   19.7878 C   0  0  0  0  0  0  0  0  0  0  0  0
   10.7728  -17.1781   20.1905 O   0  0  0  0  0  0  0  0  0  0  0  0
   15.5478  -15.2047   19.6364 O   0  0  0  0  0  0  0  0  0  0  0  0
   10.3223  -14.9913   20.7095 N   0  0  0  0  0  0  0  0  0  0  0  0
    9.7186  -15.4343   21.9291 C   0  0  0  0  0  0  0  0  0  0  0  0
   10.7137  -15.6845   23.0036 C   0  0  0  0  0  0  0  0  0  0  0  0
   11.9634  -15.6122   22.7816 O   0  0  0  0  0  0  0  0  0  0  0  0
   10.3088  -16.0122   24.3121 N   0  0  0  0  0  0  0  0  0  0  0  0
   11.2338  -16.2813   25.4076 C   0  0  1  0  0  0  0  0  0  0  0  0
   10.6493  -15.8987   26.7336 C   0  0  0  0  0  0  0  0  0  0  0  0
   11.4986  -16.1842   27.9193 C   0  0  0  0  0  0  0  0  0  0  0  0
   10.9054  -15.8657   29.2138 C   0  0  0  0  0  0  0  0  0  0  0  0
    9.8289  -15.2235   29.2443 O   0  0  0  0  0  0  0  0  0  0  0  0
   11.7316  -17.6684   25.3772 C   0  0  0  0  0  0  0  0  0  0  0  0
   12.9910  -17.9386   25.9274 O   0  0  0  0  0  0  0  0  0  0  0  0
   11.4650  -16.2322   30.4143 O   0  0  0  0  0  0  0  0  0  0  0  0
   11.1125  -18.6329   24.8941 O   0  0  0  0  0  0  0  0  0  0  0  0
  2  1  1  1
  2  7  1  0
  2  3  1  0
  4  3  1  0
  4  5  1  0
  5  6  2  0
  7  8  2  0
  9  5  1  0
 10 11  1  0
 10  7  1  0
 11 12  1  0
 12 13  2  0
 12 14  1  0
 14 15  1  0
 15 16  1  1
 17 16  1  0
 17 18  1  0
 18 22  1  0
 18 19  2  0
 20 21  1  0
 20 15  1  0
 23 20  2  0
M  END
$$$$
