EGE.pdb
     RDKit          3D

 23 22  0  0  1  0  0  0  0  0999 V2000
    6.9522  -19.6271   19.0994 N   0  0  0  0  0  0  0  0  0  0  0  0
    5.7069  -18.9007   19.4423 C   0  0  1  0  0  0  0  0  0  0  0  0
    4.6350  -19.6146   18.6465 C   0  0  0  0  0  0  0  0  0  0  0  0
    4.8748  -21.0827   18.6196 C   0  0  0  0  0  0  0  0  0  0  0  0
    3.7574  -21.8130   17.9238 C   0  0  0  0  0  0  0  0  0  0  0  0
    2.7896  -21.2438   17.4044 O   0  0  0  0  0  0  0  0  0  0  0  0
    5.4579  -19.1023   20.8678 C   0  0  0  0  0  0  0  0  0  0  0  0
    4.5568  -18.4095   21.4459 O   0  0  0  0  0  0  0  0  0  0  0  0
    3.8591  -23.1959   17.8869 O   0  0  0  0  0  0  0  0  0  0  0  0
    6.1558  -20.0346   21.6830 N   0  0  0  0  0  0  0  0  0  0  0  0
    5.8762  -20.0601   23.0863 C   0  0  0  0  0  0  0  0  0  0  0  0
    7.0682  -19.7426   23.9144 C   0  0  0  0  0  0  0  0  0  0  0  0
    8.2426  -20.0429   23.5308 O   0  0  0  0  0  0  0  0  0  0  0  0
    6.9417  -19.0953   25.1588 N   0  0  0  0  0  0  0  0  0  0  0  0
    8.0738  -18.6514   25.9648 C   0  0  1  0  0  0  0  0  0  0  0  0
    8.1221  -17.1578   26.0780 C   0  0  0  0  0  0  0  0  0  0  0  0
    8.1146  -16.4129   24.7919 C   0  0  0  0  0  0  0  0  0  0  0  0
    8.1786  -14.9594   24.9022 C   0  0  0  0  0  0  0  0  0  0  0  0
    8.2296  -14.4411   26.0428 O   0  0  0  0  0  0  0  0  0  0  0  0
    8.1150  -19.3290   27.2732 C   0  0  0  0  0  0  0  0  0  0  0  0
    9.3101  -19.3006   28.0031 O   0  0  0  0  0  0  0  0  0  0  0  0
    8.1856  -14.1168   23.8166 O   0  0  0  0  0  0  0  0  0  0  0  0
    7.1579  -19.9335   27.7884 O   0  0  0  0  0  0  0  0  0  0  0  0
  2  1  1  6
  2  7  1  0
  2  3  1  0
  4  3  1  0
  4  5  1  0
  5  6  2  0
  7  8  2  0
  9  5  1  0
 10 11  1  0
 10  7  1  0
 11 12  1  0
 12 13  2  0
 12 14  1  0
 14 15  1  0
 15 16  1  1
 17 16  1  0
 17 18  1  0
 18 22  1  0
 18 19  2  0
 20 21  1  0
 20 15  1  0
 23 20  2  0
M  END
$$$$
