EGE.pdb
     RDKit          3D

 23 22  0  0  1  0  0  0  0  0999 V2000
    6.7412  -13.3172   19.6601 N   0  0  0  0  0  0  0  0  0  0  0  0
    7.5980  -14.4834   19.3412 C   0  0  1  0  0  0  0  0  0  0  0  0
    8.5732  -13.9518   18.3125 C   0  0  0  0  0  0  0  0  0  0  0  0
    7.8709  -13.5538   17.0628 C   0  0  0  0  0  0  0  0  0  0  0  0
    8.4537  -14.2420   15.8575 C   0  0  0  0  0  0  0  0  0  0  0  0
    9.4256  -15.0054   15.9113 O   0  0  0  0  0  0  0  0  0  0  0  0
    8.3298  -14.8372   20.5554 C   0  0  0  0  0  0  0  0  0  0  0  0
    9.1595  -15.8050   20.5219 O   0  0  0  0  0  0  0  0  0  0  0  0
    7.8372  -13.9776   14.6434 O   0  0  0  0  0  0  0  0  0  0  0  0
    8.1895  -14.1704   21.8030 N   0  0  0  0  0  0  0  0  0  0  0  0
    9.0050  -14.5934   22.9003 C   0  0  0  0  0  0  0  0  0  0  0  0
    8.2277  -15.2910   23.9570 C   0  0  0  0  0  0  0  0  0  0  0  0
    7.0932  -14.8628   24.3392 O   0  0  0  0  0  0  0  0  0  0  0  0
    8.7197  -16.4561   24.5767 N   0  0  0  0  0  0  0  0  0  0  0  0
    8.3605  -16.8739   25.9275 C   0  0  1  0  0  0  0  0  0  0  0  0
    8.3539  -18.3664   26.0630 C   0  0  0  0  0  0  0  0  0  0  0  0
    7.0813  -18.9647   26.5440 C   0  0  0  0  0  0  0  0  0  0  0  0
    7.0988  -20.4094   26.7482 C   0  0  0  0  0  0  0  0  0  0  0  0
    8.1570  -21.0404   26.5153 O   0  0  0  0  0  0  0  0  0  0  0  0
    9.1909  -16.2075   26.9470 C   0  0  0  0  0  0  0  0  0  0  0  0
    8.7575  -16.2267   28.2788 O   0  0  0  0  0  0  0  0  0  0  0  0
    6.0105  -21.1260   27.1850 O   0  0  0  0  0  0  0  0  0  0  0  0
   10.2624  -15.6203   26.7147 O   0  0  0  0  0  0  0  0  0  0  0  0
  2  1  1  1
  2  7  1  0
  2  3  1  0
  4  3  1  0
  4  5  1  0
  5  6  2  0
  7  8  2  0
  9  5  1  0
 10 11  1  0
 10  7  1  0
 11 12  1  0
 12 13  2  0
 12 14  1  0
 14 15  1  0
 15 16  1  6
 17 16  1  0
 17 18  1  0
 18 22  1  0
 18 19  2  0
 20 21  1  0
 20 15  1  0
 23 20  2  0
M  END
$$$$
