EGE.pdb
     RDKit          3D

 23 22  0  0  1  0  0  0  0  0999 V2000
    9.8486  -14.0948   16.5961 N   0  0  0  0  0  0  0  0  0  0  0  0
    8.5812  -13.5557   17.1430 C   0  0  1  0  0  0  0  0  0  0  0  0
    7.5139  -14.1483   16.2478 C   0  0  0  0  0  0  0  0  0  0  0  0
    7.8382  -13.9338   14.8117 C   0  0  0  0  0  0  0  0  0  0  0  0
    6.8546  -14.6331   13.9120 C   0  0  0  0  0  0  0  0  0  0  0  0
    5.9445  -15.3594   14.3299 O   0  0  0  0  0  0  0  0  0  0  0  0
    8.4224  -14.0894   18.4939 C   0  0  0  0  0  0  0  0  0  0  0  0
    7.4125  -13.7358   19.1876 O   0  0  0  0  0  0  0  0  0  0  0  0
    7.0143  -14.4241   12.5500 O   0  0  0  0  0  0  0  0  0  0  0  0
    9.3252  -14.9968   19.1123 N   0  0  0  0  0  0  0  0  0  0  0  0
    9.1067  -15.3532   20.4810 C   0  0  0  0  0  0  0  0  0  0  0  0
   10.3533  -15.3188   21.2886 C   0  0  0  0  0  0  0  0  0  0  0  0
   11.4871  -15.1126   20.7516 O   0  0  0  0  0  0  0  0  0  0  0  0
   10.3258  -15.5139   22.6831 N   0  0  0  0  0  0  0  0  0  0  0  0
   11.3564  -16.2313   23.4257 C   0  0  1  0  0  0  0  0  0  0  0  0
   10.7640  -17.1353   24.4638 C   0  0  0  0  0  0  0  0  0  0  0  0
   11.7278  -18.0044   25.1881 C   0  0  0  0  0  0  0  0  0  0  0  0
   11.5694  -18.0539   26.6378 C   0  0  0  0  0  0  0  0  0  0  0  0
   10.4531  -17.7715   27.1342 O   0  0  0  0  0  0  0  0  0  0  0  0
   12.2970  -16.9253   22.5277 C   0  0  0  0  0  0  0  0  0  0  0  0
   13.6688  -16.6916   22.6869 O   0  0  0  0  0  0  0  0  0  0  0  0
   12.5841  -18.3950   27.4995 O   0  0  0  0  0  0  0  0  0  0  0  0
   11.9639  -17.7143   21.6257 O   0  0  0  0  0  0  0  0  0  0  0  0
  2  1  1  6
  2  7  1  0
  2  3  1  0
  4  3  1  0
  4  5  1  0
  5  6  2  0
  7  8  2  0
  9  5  1  0
 10 11  1  0
 10  7  1  0
 11 12  1  0
 12 13  2  0
 12 14  1  0
 14 15  1  0
 15 16  1  1
 17 16  1  0
 17 18  1  0
 18 22  1  0
 18 19  2  0
 20 21  1  0
 20 15  1  0
 23 20  2  0
M  END
$$$$
