EGE.pdb
     RDKit          3D

 23 22  0  0  1  0  0  0  0  0999 V2000
    4.7207  -20.9270   23.1471 N   0  0  0  0  0  0  0  0  0  0  0  0
    5.9588  -20.8756   22.3344 C   0  0  1  0  0  0  0  0  0  0  0  0
    5.4584  -20.8159   20.9069 C   0  0  0  0  0  0  0  0  0  0  0  0
    4.2170  -20.0021   20.8070 C   0  0  0  0  0  0  0  0  0  0  0  0
    3.7640  -19.8571   19.3788 C   0  0  0  0  0  0  0  0  0  0  0  0
    2.5746  -19.8188   19.0408 O   0  0  0  0  0  0  0  0  0  0  0  0
    6.6433  -19.6248   22.6536 C   0  0  0  0  0  0  0  0  0  0  0  0
    7.7411  -19.3491   22.0664 O   0  0  0  0  0  0  0  0  0  0  0  0
    4.7666  -19.7650   18.4246 O   0  0  0  0  0  0  0  0  0  0  0  0
    6.1704  -18.6642   23.5887 N   0  0  0  0  0  0  0  0  0  0  0  0
    6.9137  -17.4535   23.7610 C   0  0  0  0  0  0  0  0  0  0  0  0
    8.2453  -17.6812   24.3794 C   0  0  0  0  0  0  0  0  0  0  0  0
    8.4303  -18.5999   25.2387 O   0  0  0  0  0  0  0  0  0  0  0  0
    9.3557  -16.8858   24.0361 N   0  0  0  0  0  0  0  0  0  0  0  0
   10.7039  -17.1044   24.5488 C   0  0  1  0  0  0  0  0  0  0  0  0
   11.7297  -16.3653   23.7442 C   0  0  0  0  0  0  0  0  0  0  0  0
   13.1437  -16.5798   24.1486 C   0  0  0  0  0  0  0  0  0  0  0  0
   14.1449  -15.8990   23.3342 C   0  0  0  0  0  0  0  0  0  0  0  0
   13.7637  -15.2059   22.3613 O   0  0  0  0  0  0  0  0  0  0  0  0
   10.7940  -16.8235   25.9930 C   0  0  0  0  0  0  0  0  0  0  0  0
    9.8777  -15.9273   26.5580 O   0  0  0  0  0  0  0  0  0  0  0  0
   15.4959  -15.9751   23.5742 O   0  0  0  0  0  0  0  0  0  0  0  0
   11.6322  -17.3270   26.7618 O   0  0  0  0  0  0  0  0  0  0  0  0
  2  1  1  1
  2  7  1  0
  2  3  1  0
  4  3  1  0
  4  5  1  0
  5  6  2  0
  7  8  2  0
  9  5  1  0
 10 11  1  0
 10  7  1  0
 11 12  1  0
 12 13  2  0
 12 14  1  0
 14 15  1  0
 15 16  1  6
 17 16  1  0
 17 18  1  0
 18 22  1  0
 18 19  2  0
 20 21  1  0
 20 15  1  0
 23 20  2  0
M  END
$$$$
