EGE.pdb
     RDKit          3D

 23 22  0  0  1  0  0  0  0  0999 V2000
   11.3943  -16.9619   21.7278 N   0  0  0  0  0  0  0  0  0  0  0  0
   12.4876  -17.9502   21.8831 C   0  0  1  0  0  0  0  0  0  0  0  0
   13.6775  -17.2876   21.2221 C   0  0  0  0  0  0  0  0  0  0  0  0
   13.8506  -15.8909   21.7045 C   0  0  0  0  0  0  0  0  0  0  0  0
   15.0828  -15.2528   21.1210 C   0  0  0  0  0  0  0  0  0  0  0  0
   15.2131  -14.9949   19.9182 O   0  0  0  0  0  0  0  0  0  0  0  0
   12.7529  -18.0923   23.3128 C   0  0  0  0  0  0  0  0  0  0  0  0
   13.6267  -18.9354   23.7025 O   0  0  0  0  0  0  0  0  0  0  0  0
   16.1006  -14.9555   22.0153 O   0  0  0  0  0  0  0  0  0  0  0  0
   12.1001  -17.3451   24.3309 N   0  0  0  0  0  0  0  0  0  0  0  0
   12.4041  -17.6404   25.6979 C   0  0  0  0  0  0  0  0  0  0  0  0
   11.5266  -18.6965   26.2653 C   0  0  0  0  0  0  0  0  0  0  0  0
   10.7348  -19.3676   25.5310 O   0  0  0  0  0  0  0  0  0  0  0  0
   11.5388  -18.9947   27.6417 N   0  0  0  0  0  0  0  0  0  0  0  0
   10.6455  -19.9592   28.2741 C   0  0  1  0  0  0  0  0  0  0  0  0
   11.0996  -20.3108   29.6584 C   0  0  0  0  0  0  0  0  0  0  0  0
   12.5045  -20.7812   29.7763 C   0  0  0  0  0  0  0  0  0  0  0  0
   12.9372  -21.1508   31.1199 C   0  0  0  0  0  0  0  0  0  0  0  0
   12.1285  -21.0297   32.0705 O   0  0  0  0  0  0  0  0  0  0  0  0
    9.2395  -19.5196   28.2242 C   0  0  0  0  0  0  0  0  0  0  0  0
    8.2393  -20.4390   28.5650 O   0  0  0  0  0  0  0  0  0  0  0  0
   14.1935  -21.6285   31.4066 O   0  0  0  0  0  0  0  0  0  0  0  0
    8.8649  -18.3791   27.8984 O   0  0  0  0  0  0  0  0  0  0  0  0
  2  1  1  1
  2  7  1  0
  2  3  1  0
  4  3  1  0
  4  5  1  0
  5  6  2  0
  7  8  2  0
  9  5  1  0
 10 11  1  0
 10  7  1  0
 11 12  1  0
 12 13  2  0
 12 14  1  0
 14 15  1  0
 15 16  1  1
 17 16  1  0
 17 18  1  0
 18 22  1  0
 18 19  2  0
 20 21  1  0
 20 15  1  0
 23 20  2  0
M  END
$$$$
