EGE.pdb
     RDKit          3D

 23 22  0  0  1  0  0  0  0  0999 V2000
    7.3416  -17.4657   19.0121 N   0  0  0  0  0  0  0  0  0  0  0  0
    8.7552  -17.9097   18.9878 C   0  0  1  0  0  0  0  0  0  0  0  0
    9.2659  -17.4339   17.6444 C   0  0  0  0  0  0  0  0  0  0  0  0
    8.1485  -17.2533   16.6788 C   0  0  0  0  0  0  0  0  0  0  0  0
    8.6411  -16.7388   15.3527 C   0  0  0  0  0  0  0  0  0  0  0  0
    9.8331  -16.5169   15.1070 O   0  0  0  0  0  0  0  0  0  0  0  0
    9.4601  -17.1931   20.0481 C   0  0  0  0  0  0  0  0  0  0  0  0
   10.7001  -17.4234   20.2365 O   0  0  0  0  0  0  0  0  0  0  0  0
    7.6732  -16.5159   14.3843 O   0  0  0  0  0  0  0  0  0  0  0  0
    8.8599  -16.2328   20.9075 N   0  0  0  0  0  0  0  0  0  0  0  0
    9.6944  -15.5209   21.8266 C   0  0  0  0  0  0  0  0  0  0  0  0
   10.3482  -16.4140   22.8176 C   0  0  0  0  0  0  0  0  0  0  0  0
    9.6698  -17.0718   23.6683 O   0  0  0  0  0  0  0  0  0  0  0  0
   11.7479  -16.5660   22.8522 N   0  0  0  0  0  0  0  0  0  0  0  0
   12.4443  -17.5015   23.7287 C   0  0  1  0  0  0  0  0  0  0  0  0
   13.8656  -17.7089   23.3011 C   0  0  0  0  0  0  0  0  0  0  0  0
   14.8519  -16.7421   23.8500 C   0  0  0  0  0  0  0  0  0  0  0  0
   15.7150  -16.0930   22.8688 C   0  0  0  0  0  0  0  0  0  0  0  0
   16.4919  -15.1866   23.2523 O   0  0  0  0  0  0  0  0  0  0  0  0
   12.3202  -17.1203   25.1472 C   0  0  0  0  0  0  0  0  0  0  0  0
   12.0799  -15.7762   25.4595 O   0  0  0  0  0  0  0  0  0  0  0  0
   15.7250  -16.4208   21.5342 O   0  0  0  0  0  0  0  0  0  0  0  0
   12.4134  -17.9099   26.1037 O   0  0  0  0  0  0  0  0  0  0  0  0
  2  1  1  6
  2  7  1  0
  2  3  1  0
  4  3  1  0
  4  5  1  0
  5  6  2  0
  7  8  2  0
  9  5  1  0
 10 11  1  0
 10  7  1  0
 11 12  1  0
 12 13  2  0
 12 14  1  0
 14 15  1  0
 15 16  1  6
 17 16  1  0
 17 18  1  0
 18 22  1  0
 18 19  2  0
 20 21  1  0
 20 15  1  0
 23 20  2  0
M  END
$$$$
