EGE.pdb
     RDKit          3D

 23 22  0  0  1  0  0  0  0  0999 V2000
    6.6264  -15.3691   18.9334 N   0  0  0  0  0  0  0  0  0  0  0  0
    7.9488  -14.7363   19.1501 C   0  0  1  0  0  0  0  0  0  0  0  0
    7.8369  -13.4019   18.4439 C   0  0  0  0  0  0  0  0  0  0  0  0
    7.4366  -13.5791   17.0220 C   0  0  0  0  0  0  0  0  0  0  0  0
    8.6326  -13.7929   16.1332 C   0  0  0  0  0  0  0  0  0  0  0  0
    9.7930  -13.8631   16.5560 O   0  0  0  0  0  0  0  0  0  0  0  0
    8.0970  -14.5065   20.5854 C   0  0  0  0  0  0  0  0  0  0  0  0
    9.2208  -14.1097   21.0390 O   0  0  0  0  0  0  0  0  0  0  0  0
    8.3734  -13.9119   14.7757 O   0  0  0  0  0  0  0  0  0  0  0  0
    7.0616  -14.6922   21.5416 N   0  0  0  0  0  0  0  0  0  0  0  0
    7.3355  -14.3914   22.9137 C   0  0  0  0  0  0  0  0  0  0  0  0
    7.9996  -15.5138   23.6253 C   0  0  0  0  0  0  0  0  0  0  0  0
    7.4268  -16.6395   23.7712 O   0  0  0  0  0  0  0  0  0  0  0  0
    9.2921  -15.3727   24.1665 N   0  0  0  0  0  0  0  0  0  0  0  0
    9.9733  -16.4123   24.9303 C   0  0  1  0  0  0  0  0  0  0  0  0
   11.4245  -16.5059   24.5678 C   0  0  0  0  0  0  0  0  0  0  0  0
   11.7291  -16.4775   23.1134 C   0  0  0  0  0  0  0  0  0  0  0  0
   13.1425  -16.5632   22.7613 C   0  0  0  0  0  0  0  0  0  0  0  0
   13.9910  -16.0671   23.5399 O   0  0  0  0  0  0  0  0  0  0  0  0
    9.7510  -16.2631   26.3798 C   0  0  0  0  0  0  0  0  0  0  0  0
    9.2383  -15.0496   26.8558 O   0  0  0  0  0  0  0  0  0  0  0  0
   13.6021  -17.1621   21.6129 O   0  0  0  0  0  0  0  0  0  0  0  0
    9.9862  -17.1429   27.2269 O   0  0  0  0  0  0  0  0  0  0  0  0
  2  1  1  1
  2  7  1  0
  2  3  1  0
  4  3  1  0
  4  5  1  0
  5  6  2  0
  7  8  2  0
  9  5  1  0
 10 11  1  0
 10  7  1  0
 11 12  1  0
 12 13  2  0
 12 14  1  0
 14 15  1  0
 15 16  1  1
 17 16  1  0
 17 18  1  0
 18 22  1  0
 18 19  2  0
 20 21  1  0
 20 15  1  0
 23 20  2  0
M  END
$$$$
