CEW.pdb
     RDKit          3D

 30 31  0  0  1  0  0  0  0  0999 V2000
   24.3917  -17.1874   10.8698 N   0  0  0  0  0  0  0  0  0  0  0  0
   23.0140  -16.8047   11.2634 C   0  0  1  0  0  0  0  0  0  0  0  0
   22.9453  -15.3243   11.1848 C   0  0  0  0  0  0  0  0  0  0  0  0
   22.8903  -14.7122    9.4896 S   0  0  0  0  0  0  0  0  0  0  0  0
   22.1298  -17.5726   10.3931 C   0  0  0  0  0  0  0  0  0  0  0  0
   22.5871  -18.0615    9.2962 O   0  0  0  0  0  0  0  0  0  0  0  0
   20.7562  -17.8520   10.6432 N   0  0  0  0  0  0  0  0  0  0  0  0
   19.9706  -18.6355    9.6648 C   0  0  1  0  0  0  0  0  0  0  0  0
   19.0575  -19.4839   10.5081 C   0  0  0  0  0  0  0  0  0  0  0  0
   18.1687  -20.4096    9.7610 C   0  0  0  0  0  0  0  0  0  0  0  0
   17.3159  -21.1872   10.6719 C   0  0  0  0  0  0  0  0  0  0  0  0
   17.3047  -21.1319   11.9192 O   0  0  0  0  0  0  0  0  0  0  0  0
   19.2372  -17.7181    8.7757 C   0  0  0  0  0  0  0  0  0  0  0  0
   19.2638  -16.4493    8.9350 O   0  0  0  0  0  0  0  0  0  0  0  0
   16.4222  -22.0841   10.0785 O   0  0  0  0  0  0  0  0  0  0  0  0
   18.4761  -18.2593    7.7089 N   0  0  0  0  0  0  0  0  0  0  0  0
   17.9913  -17.4367    6.6350 C   0  0  1  0  0  0  0  0  0  0  0  0
   19.1374  -16.7293    5.9832 C   0  0  0  0  0  0  0  0  0  0  0  0
   18.7019  -15.6909    5.0188 C   0  0  0  0  0  0  0  0  0  0  0  0
   17.8839  -15.8654    3.9184 C   0  0  0  0  0  0  0  0  0  0  0  0
   17.7618  -14.6637    3.3454 N   0  0  0  0  0  0  0  0  0  0  0  0
   18.4531  -13.7234    4.0111 C   0  0  0  0  0  0  0  0  0  0  0  0
   18.6291  -12.3613    3.8063 C   0  0  0  0  0  0  0  0  0  0  0  0
   19.4113  -11.6612    4.6803 C   0  0  0  0  0  0  0  0  0  0  0  0
   20.0222  -12.2735    5.7493 C   0  0  0  0  0  0  0  0  0  0  0  0
   19.8475  -13.6160    5.9497 C   0  0  0  0  0  0  0  0  0  0  0  0
   19.0636  -14.3397    5.0809 C   0  0  0  0  0  0  0  0  0  0  0  0
   17.1669  -18.1986    5.6630 C   0  0  0  0  0  0  0  0  0  0  0  0
   15.9842  -17.7083    5.1154 O   0  0  0  0  0  0  0  0  0  0  0  0
   17.5072  -19.3487    5.2805 O   0  0  0  0  0  0  0  0  0  0  0  0
  2  5  1  0
  2  1  1  6
  3  2  1  0
  4  3  1  0
  5  6  2  0
  7  8  1  0
  7  5  1  0
  8  9  1  1
  9 10  1  0
 10 11  1  0
 11 15  1  0
 11 12  2  0
 13  8  1  0
 14 13  2  0
 16 13  1  0
 17 18  1  6
 17 16  1  0
 19 18  1  0
 20 19  2  0
 21 20  1  0
 22 21  1  0
 22 27  2  0
 23 22  1  0
 24 23  2  0
 24 25  1  0
 25 26  2  0
 26 27  1  0
 27 19  1  0
 28 17  1  0
 28 29  1  0
 30 28  2  0
M  END
$$$$
