CEW.pdb
     RDKit          3D

 30 31  0  0  1  0  0  0  0  0999 V2000
   29.3571  -21.2970  -18.2404 N   0  0  0  0  0  0  0  0  0  0  0  0
   28.3915  -22.3200  -17.7708 C   0  0  1  0  0  0  0  0  0  0  0  0
   29.1136  -23.1676  -16.7898 C   0  0  0  0  0  0  0  0  0  0  0  0
   29.6687  -24.7345  -17.4888 S   0  0  0  0  0  0  0  0  0  0  0  0
   27.2294  -21.5746  -17.2985 C   0  0  0  0  0  0  0  0  0  0  0  0
   27.3911  -20.4127  -16.7741 O   0  0  0  0  0  0  0  0  0  0  0  0
   25.8773  -22.0164  -17.3629 N   0  0  0  0  0  0  0  0  0  0  0  0
   24.8052  -21.2112  -16.7382 C   0  0  1  0  0  0  0  0  0  0  0  0
   23.8576  -20.9056  -17.8665 C   0  0  0  0  0  0  0  0  0  0  0  0
   24.2656  -19.7968  -18.7659 C   0  0  0  0  0  0  0  0  0  0  0  0
   24.0310  -18.4860  -18.1428 C   0  0  0  0  0  0  0  0  0  0  0  0
   24.6169  -17.4150  -18.4052 O   0  0  0  0  0  0  0  0  0  0  0  0
   24.1737  -21.9874  -15.6572 C   0  0  0  0  0  0  0  0  0  0  0  0
   24.1154  -23.2649  -15.6809 O   0  0  0  0  0  0  0  0  0  0  0  0
   23.0471  -18.4326  -17.1506 O   0  0  0  0  0  0  0  0  0  0  0  0
   23.6112  -21.2958  -14.5547 N   0  0  0  0  0  0  0  0  0  0  0  0
   23.1099  -21.9935  -13.4028 C   0  0  1  0  0  0  0  0  0  0  0  0
   24.2534  -22.4924  -12.5768 C   0  0  0  0  0  0  0  0  0  0  0  0
   25.0597  -21.3977  -11.9858 C   0  0  0  0  0  0  0  0  0  0  0  0
   24.7124  -20.5874  -10.9211 C   0  0  0  0  0  0  0  0  0  0  0  0
   25.7367  -19.7484  -10.7364 N   0  0  0  0  0  0  0  0  0  0  0  0
   26.7251  -19.9692  -11.6194 C   0  0  0  0  0  0  0  0  0  0  0  0
   27.9607  -19.3682  -11.8205 C   0  0  0  0  0  0  0  0  0  0  0  0
   28.7600  -19.8305  -12.8271 C   0  0  0  0  0  0  0  0  0  0  0  0
   28.3684  -20.8698  -13.6378 C   0  0  0  0  0  0  0  0  0  0  0  0
   27.1504  -21.4609  -13.4381 C   0  0  0  0  0  0  0  0  0  0  0  0
   26.3299  -21.0104  -12.4296 C   0  0  0  0  0  0  0  0  0  0  0  0
   22.1538  -21.1754  -12.6143 C   0  0  0  0  0  0  0  0  0  0  0  0
   21.9804  -19.8072  -12.8065 O   0  0  0  0  0  0  0  0  0  0  0  0
   21.4398  -21.6929  -11.7159 O   0  0  0  0  0  0  0  0  0  0  0  0
  2  5  1  0
  2  1  1  1
  3  2  1  0
  4  3  1  0
  5  6  2  0
  7  8  1  0
  7  5  1  0
  8  9  1  6
  9 10  1  0
 10 11  1  0
 11 15  1  0
 11 12  2  0
 13  8  1  0
 14 13  2  0
 16 13  1  0
 17 18  1  1
 17 16  1  0
 19 18  1  0
 20 19  2  0
 21 20  1  0
 22 21  1  0
 22 27  2  0
 23 22  1  0
 24 23  2  0
 24 25  1  0
 25 26  2  0
 26 27  1  0
 27 19  1  0
 28 17  1  0
 28 29  1  0
 30 28  2  0
M  END
$$$$
