CEW.pdb
     RDKit          3D

 30 31  0  0  1  0  0  0  0  0999 V2000
   23.2625  -12.2753  -19.1639 N   0  0  0  0  0  0  0  0  0  0  0  0
   23.2269  -11.0071  -19.9318 C   0  0  1  0  0  0  0  0  0  0  0  0
   21.8445  -10.8641  -20.4524 C   0  0  0  0  0  0  0  0  0  0  0  0
   20.6085  -10.7539  -19.1440 S   0  0  0  0  0  0  0  0  0  0  0  0
   23.7177   -9.9812  -19.0176 C   0  0  0  0  0  0  0  0  0  0  0  0
   23.6134  -10.1592  -17.7493 O   0  0  0  0  0  0  0  0  0  0  0  0
   24.3288   -8.7529  -19.3988 N   0  0  0  0  0  0  0  0  0  0  0  0
   24.7473   -7.7823  -18.3639 C   0  0  1  0  0  0  0  0  0  0  0  0
   26.0703   -7.2577  -18.8527 C   0  0  0  0  0  0  0  0  0  0  0  0
   26.7193   -6.2425  -17.9849 C   0  0  0  0  0  0  0  0  0  0  0  0
   28.0197   -5.8240  -18.5282 C   0  0  0  0  0  0  0  0  0  0  0  0
   28.3664   -4.6644  -18.8350 O   0  0  0  0  0  0  0  0  0  0  0  0
   23.7268   -6.7276  -18.2378 C   0  0  0  0  0  0  0  0  0  0  0  0
   23.3521   -6.0200  -19.2353 O   0  0  0  0  0  0  0  0  0  0  0  0
   28.9697   -6.8317  -18.7221 O   0  0  0  0  0  0  0  0  0  0  0  0
   23.1413   -6.4879  -16.9689 N   0  0  0  0  0  0  0  0  0  0  0  0
   22.0815   -5.5332  -16.7953 C   0  0  1  0  0  0  0  0  0  0  0  0
   21.0146   -5.7713  -17.8170 C   0  0  0  0  0  0  0  0  0  0  0  0
   19.9384   -4.7524  -17.7763 C   0  0  0  0  0  0  0  0  0  0  0  0
   20.0913   -3.3793  -17.7327 C   0  0  0  0  0  0  0  0  0  0  0  0
   18.8582   -2.8635  -17.7084 N   0  0  0  0  0  0  0  0  0  0  0  0
   17.9178   -3.8230  -17.7335 C   0  0  0  0  0  0  0  0  0  0  0  0
   16.5298   -3.7825  -17.7233 C   0  0  0  0  0  0  0  0  0  0  0  0
   15.8381   -4.9599  -17.7568 C   0  0  0  0  0  0  0  0  0  0  0  0
   16.4835   -6.1732  -17.8000 C   0  0  0  0  0  0  0  0  0  0  0  0
   17.8515   -6.2112  -17.8101 C   0  0  0  0  0  0  0  0  0  0  0  0
   18.5674   -5.0366  -17.7768 C   0  0  0  0  0  0  0  0  0  0  0  0
   21.5485   -5.5214  -15.4094 C   0  0  0  0  0  0  0  0  0  0  0  0
   21.9415   -6.4327  -14.4325 O   0  0  0  0  0  0  0  0  0  0  0  0
   20.6981   -4.6675  -15.0455 O   0  0  0  0  0  0  0  0  0  0  0  0
  2  5  1  0
  2  1  1  1
  3  2  1  0
  4  3  1  0
  5  6  2  0
  7  8  1  0
  7  5  1  0
  8  9  1  6
  9 10  1  0
 10 11  1  0
 11 15  1  0
 11 12  2  0
 13  8  1  0
 14 13  2  0
 16 13  1  0
 17 18  1  6
 17 16  1  0
 19 18  1  0
 20 19  2  0
 21 20  1  0
 22 21  1  0
 22 27  2  0
 23 22  1  0
 24 23  2  0
 24 25  1  0
 25 26  2  0
 26 27  1  0
 27 19  1  0
 28 17  1  0
 28 29  1  0
 30 28  2  0
M  END
$$$$
