CEW.pdb
     RDKit          3D

 30 31  0  0  1  0  0  0  0  0999 V2000
   27.8546  -20.4961  -16.3669 N   0  0  0  0  0  0  0  0  0  0  0  0
   28.1501  -21.0467  -15.0219 C   0  0  1  0  0  0  0  0  0  0  0  0
   29.5691  -20.7226  -14.7324 C   0  0  0  0  0  0  0  0  0  0  0  0
   30.0929  -21.2617  -13.0933 S   0  0  0  0  0  0  0  0  0  0  0  0
   27.1322  -20.4891  -14.1376 C   0  0  0  0  0  0  0  0  0  0  0  0
   26.9549  -19.2171  -14.0969 O   0  0  0  0  0  0  0  0  0  0  0  0
   26.2760  -21.2379  -13.2810 N   0  0  0  0  0  0  0  0  0  0  0  0
   25.3418  -20.5376  -12.3728 C   0  0  1  0  0  0  0  0  0  0  0  0
   23.9938  -20.6984  -13.0221 C   0  0  0  0  0  0  0  0  0  0  0  0
   23.6790  -19.7254  -14.0988 C   0  0  0  0  0  0  0  0  0  0  0  0
   22.3140  -19.9145  -14.6110 C   0  0  0  0  0  0  0  0  0  0  0  0
   21.4909  -20.7815  -14.2507 O   0  0  0  0  0  0  0  0  0  0  0  0
   25.4067  -21.1487  -11.0341 C   0  0  0  0  0  0  0  0  0  0  0  0
   25.6082  -22.4006  -10.8662 O   0  0  0  0  0  0  0  0  0  0  0  0
   21.8922  -19.0292  -15.6079 O   0  0  0  0  0  0  0  0  0  0  0  0
   25.2394  -20.3224   -9.8941 N   0  0  0  0  0  0  0  0  0  0  0  0
   25.3054  -20.8542   -8.5608 C   0  0  1  0  0  0  0  0  0  0  0  0
   25.9284  -19.8477   -7.6455 C   0  0  0  0  0  0  0  0  0  0  0  0
   27.3849  -20.0565   -7.4634 C   0  0  0  0  0  0  0  0  0  0  0  0
   28.2717  -20.5903   -8.3793 C   0  0  0  0  0  0  0  0  0  0  0  0
   29.4711  -20.5866   -7.7888 N   0  0  0  0  0  0  0  0  0  0  0  0
   29.4108  -20.0817   -6.5450 C   0  0  0  0  0  0  0  0  0  0  0  0
   30.3715  -19.8773   -5.5634 C   0  0  0  0  0  0  0  0  0  0  0  0
   29.9872  -19.3312   -4.3718 C   0  0  0  0  0  0  0  0  0  0  0  0
   28.6796  -18.9831   -4.1277 C   0  0  0  0  0  0  0  0  0  0  0  0
   27.7342  -19.1851   -5.0963 C   0  0  0  0  0  0  0  0  0  0  0  0
   28.1002  -19.7341   -6.3037 C   0  0  0  0  0  0  0  0  0  0  0  0
   23.9855  -21.3268   -8.0714 C   0  0  0  0  0  0  0  0  0  0  0  0
   23.8368  -22.1854   -6.9852 O   0  0  0  0  0  0  0  0  0  0  0  0
   22.9162  -20.9648   -8.6284 O   0  0  0  0  0  0  0  0  0  0  0  0
  2  5  1  0
  2  1  1  6
  3  2  1  0
  4  3  1  0
  5  6  2  0
  7  8  1  0
  7  5  1  0
  8  9  1  6
  9 10  1  0
 10 11  1  0
 11 15  1  0
 11 12  2  0
 13  8  1  0
 14 13  2  0
 16 13  1  0
 17 18  1  1
 17 16  1  0
 19 18  1  0
 20 19  2  0
 21 20  1  0
 22 21  1  0
 22 27  2  0
 23 22  1  0
 24 23  2  0
 24 25  1  0
 25 26  2  0
 26 27  1  0
 27 19  1  0
 28 17  1  0
 28 29  1  0
 30 28  2  0
M  END
$$$$
