CEW.pdb
     RDKit          3D

 30 31  0  0  1  0  0  0  0  0999 V2000
   27.9353  -19.7583  -16.0072 N   0  0  0  0  0  0  0  0  0  0  0  0
   28.1442  -20.5639  -14.7796 C   0  0  1  0  0  0  0  0  0  0  0  0
   29.5400  -20.3157  -14.3408 C   0  0  0  0  0  0  0  0  0  0  0  0
   29.9409  -21.1258  -12.7805 S   0  0  0  0  0  0  0  0  0  0  0  0
   27.0686  -20.1807  -13.8713 C   0  0  0  0  0  0  0  0  0  0  0  0
   26.7292  -18.9451  -13.7753 O   0  0  0  0  0  0  0  0  0  0  0  0
   26.3214  -21.0697  -13.0473 N   0  0  0  0  0  0  0  0  0  0  0  0
   25.3152  -20.5348  -12.1042 C   0  0  1  0  0  0  0  0  0  0  0  0
   23.9911  -20.8882  -12.7258 C   0  0  0  0  0  0  0  0  0  0  0  0
   23.6155  -20.1021  -13.9283 C   0  0  0  0  0  0  0  0  0  0  0  0
   22.2302  -19.6173  -13.8416 C   0  0  0  0  0  0  0  0  0  0  0  0
   21.2648  -20.1973  -13.3026 O   0  0  0  0  0  0  0  0  0  0  0  0
   25.5062  -21.1508  -10.7799 C   0  0  0  0  0  0  0  0  0  0  0  0
   25.8497  -22.3751  -10.6417 O   0  0  0  0  0  0  0  0  0  0  0  0
   21.9653  -18.3743  -14.4249 O   0  0  0  0  0  0  0  0  0  0  0  0
   25.3016  -20.3611   -9.6202 N   0  0  0  0  0  0  0  0  0  0  0  0
   25.4546  -20.9065   -8.2995 C   0  0  1  0  0  0  0  0  0  0  0  0
   26.0301  -19.8690   -7.3878 C   0  0  0  0  0  0  0  0  0  0  0  0
   27.4874  -20.0343   -7.1718 C   0  0  0  0  0  0  0  0  0  0  0  0
   28.4278  -20.4367   -8.1015 C   0  0  0  0  0  0  0  0  0  0  0  0
   29.6052  -20.4422   -7.4683 N   0  0  0  0  0  0  0  0  0  0  0  0
   29.4803  -20.0672   -6.1841 C   0  0  0  0  0  0  0  0  0  0  0  0
   30.3972  -19.9223   -5.1513 C   0  0  0  0  0  0  0  0  0  0  0  0
   29.9488  -19.5145   -3.9272 C   0  0  0  0  0  0  0  0  0  0  0  0
   28.6193  -19.2471   -3.6999 C   0  0  0  0  0  0  0  0  0  0  0  0
   27.7171  -19.3903   -4.7189 C   0  0  0  0  0  0  0  0  0  0  0  0
   28.1480  -19.8001   -5.9597 C   0  0  0  0  0  0  0  0  0  0  0  0
   24.1928  -21.4873   -7.7747 C   0  0  0  0  0  0  0  0  0  0  0  0
   24.1546  -22.4351   -6.7552 O   0  0  0  0  0  0  0  0  0  0  0  0
   23.0743  -21.1415   -8.2375 O   0  0  0  0  0  0  0  0  0  0  0  0
  2  5  1  0
  2  1  1  6
  3  2  1  0
  4  3  1  0
  5  6  2  0
  7  8  1  0
  7  5  1  0
  8  9  1  6
  9 10  1  0
 10 11  1  0
 11 15  1  0
 11 12  2  0
 13  8  1  0
 14 13  2  0
 16 13  1  0
 17 18  1  1
 17 16  1  0
 19 18  1  0
 20 19  2  0
 21 20  1  0
 22 21  1  0
 22 27  2  0
 23 22  1  0
 24 23  2  0
 24 25  1  0
 25 26  2  0
 26 27  1  0
 27 19  1  0
 28 17  1  0
 28 29  1  0
 30 28  2  0
M  END
$$$$
