CEW.pdb
     RDKit          3D

 30 31  0  0  1  0  0  0  0  0999 V2000
   29.7486  -22.3706  -17.7117 N   0  0  0  0  0  0  0  0  0  0  0  0
   28.2947  -22.3046  -17.9970 C   0  0  1  0  0  0  0  0  0  0  0  0
   27.8602  -23.6882  -18.3121 C   0  0  0  0  0  0  0  0  0  0  0  0
   27.7851  -24.7501  -16.8566 S   0  0  0  0  0  0  0  0  0  0  0  0
   27.6967  -21.6527  -16.8367 C   0  0  0  0  0  0  0  0  0  0  0  0
   28.3658  -21.5650  -15.7432 O   0  0  0  0  0  0  0  0  0  0  0  0
   26.3957  -21.0761  -16.7870 N   0  0  0  0  0  0  0  0  0  0  0  0
   25.9763  -20.2975  -15.6013 C   0  0  1  0  0  0  0  0  0  0  0  0
   24.7552  -19.5454  -16.0574 C   0  0  0  0  0  0  0  0  0  0  0  0
   24.0666  -18.7447  -15.0135 C   0  0  0  0  0  0  0  0  0  0  0  0
   22.8861  -18.0566  -15.5562 C   0  0  0  0  0  0  0  0  0  0  0  0
   22.8496  -17.2985  -16.5476 O   0  0  0  0  0  0  0  0  0  0  0  0
   25.6964  -21.2156  -14.4840 C   0  0  0  0  0  0  0  0  0  0  0  0
   25.1604  -22.3629  -14.6636 O   0  0  0  0  0  0  0  0  0  0  0  0
   21.6751  -18.2743  -14.8917 O   0  0  0  0  0  0  0  0  0  0  0  0
   26.0314  -20.8142  -13.1661 N   0  0  0  0  0  0  0  0  0  0  0  0
   25.7024  -21.6228  -12.0246 C   0  0  1  0  0  0  0  0  0  0  0  0
   26.8644  -21.6641  -11.0828 C   0  0  0  0  0  0  0  0  0  0  0  0
   26.6606  -20.8255   -9.8773 C   0  0  0  0  0  0  0  0  0  0  0  0
   25.4851  -20.2241   -9.4689 C   0  0  0  0  0  0  0  0  0  0  0  0
   25.7686  -19.5736   -8.3359 N   0  0  0  0  0  0  0  0  0  0  0  0
   27.0583  -19.7195   -7.9887 C   0  0  0  0  0  0  0  0  0  0  0  0
   27.8062  -19.2435   -6.9198 C   0  0  0  0  0  0  0  0  0  0  0  0
   29.1292  -19.5744   -6.8447 C   0  0  0  0  0  0  0  0  0  0  0  0
   29.7295  -20.3627   -7.7981 C   0  0  0  0  0  0  0  0  0  0  0  0
   28.9910  -20.8311   -8.8508 C   0  0  0  0  0  0  0  0  0  0  0  0
   27.6565  -20.5093   -8.9453 C   0  0  0  0  0  0  0  0  0  0  0  0
   24.4482  -21.1856  -11.3608 C   0  0  0  0  0  0  0  0  0  0  0  0
   23.6675  -22.0280  -10.5734 O   0  0  0  0  0  0  0  0  0  0  0  0
   24.0235  -20.0067  -11.4819 O   0  0  0  0  0  0  0  0  0  0  0  0
  2  5  1  0
  2  1  1  1
  3  2  1  0
  4  3  1  0
  5  6  2  0
  7  8  1  0
  7  5  1  0
  8  9  1  6
  9 10  1  0
 10 11  1  0
 11 15  1  0
 11 12  2  0
 13  8  1  0
 14 13  2  0
 16 13  1  0
 17 18  1  1
 17 16  1  0
 19 18  1  0
 20 19  2  0
 21 20  1  0
 22 21  1  0
 22 27  2  0
 23 22  1  0
 24 23  2  0
 24 25  1  0
 25 26  2  0
 26 27  1  0
 27 19  1  0
 28 17  1  0
 28 29  1  0
 30 28  2  0
M  END
$$$$
