CEW.pdb
     RDKit          3D

 30 31  0  0  1  0  0  0  0  0999 V2000
   27.7308  -20.7633  -12.3336 N   0  0  0  0  0  0  0  0  0  0  0  0
   26.4766  -20.9597  -11.5669 C   0  0  1  0  0  0  0  0  0  0  0  0
   26.4547  -19.9149  -10.5132 C   0  0  0  0  0  0  0  0  0  0  0  0
   25.4978  -20.3986   -9.0633 S   0  0  0  0  0  0  0  0  0  0  0  0
   25.4054  -20.9474  -12.5576 C   0  0  0  0  0  0  0  0  0  0  0  0
   25.4329  -20.0867  -13.5113 O   0  0  0  0  0  0  0  0  0  0  0  0
   24.2868  -21.8282  -12.5818 N   0  0  0  0  0  0  0  0  0  0  0  0
   23.2407  -21.6672  -13.6152 C   0  0  1  0  0  0  0  0  0  0  0  0
   22.9996  -23.0615  -14.1274 C   0  0  0  0  0  0  0  0  0  0  0  0
   24.2092  -23.8031  -14.5657 C   0  0  0  0  0  0  0  0  0  0  0  0
   23.8561  -25.0928  -15.1768 C   0  0  0  0  0  0  0  0  0  0  0  0
   24.6427  -25.9385  -15.6512 O   0  0  0  0  0  0  0  0  0  0  0  0
   22.0398  -21.0664  -13.0096 C   0  0  0  0  0  0  0  0  0  0  0  0
   21.9872  -20.7506  -11.7713 O   0  0  0  0  0  0  0  0  0  0  0  0
   22.4944  -25.4061  -15.2328 O   0  0  0  0  0  0  0  0  0  0  0  0
   20.9045  -20.8313  -13.8258 N   0  0  0  0  0  0  0  0  0  0  0  0
   20.0740  -19.6723  -13.6472 C   0  0  1  0  0  0  0  0  0  0  0  0
   20.9182  -18.4372  -13.6698 C   0  0  0  0  0  0  0  0  0  0  0  0
   20.1405  -17.2013  -13.4134 C   0  0  0  0  0  0  0  0  0  0  0  0
   19.7453  -16.7044  -12.1856 C   0  0  0  0  0  0  0  0  0  0  0  0
   19.0722  -15.5765  -12.4346 N   0  0  0  0  0  0  0  0  0  0  0  0
   19.0093  -15.3159  -13.7513 C   0  0  0  0  0  0  0  0  0  0  0  0
   18.4313  -14.2858  -14.4814 C   0  0  0  0  0  0  0  0  0  0  0  0
   18.5420  -14.3032  -15.8428 C   0  0  0  0  0  0  0  0  0  0  0  0
   19.2084  -15.3117  -16.4982 C   0  0  0  0  0  0  0  0  0  0  0  0
   19.7775  -16.3260  -15.7770 C   0  0  0  0  0  0  0  0  0  0  0  0
   19.6776  -16.3275  -14.4047 C   0  0  0  0  0  0  0  0  0  0  0  0
   18.9585  -19.6161  -14.6257 C   0  0  0  0  0  0  0  0  0  0  0  0
   17.6558  -19.2669  -14.2792 O   0  0  0  0  0  0  0  0  0  0  0  0
   19.1435  -19.8875  -15.8410 O   0  0  0  0  0  0  0  0  0  0  0  0
  2  5  1  0
  2  1  1  6
  3  2  1  0
  4  3  1  0
  5  6  2  0
  7  8  1  0
  7  5  1  0
  8  9  1  1
  9 10  1  0
 10 11  1  0
 11 15  1  0
 11 12  2  0
 13  8  1  0
 14 13  2  0
 16 13  1  0
 17 18  1  6
 17 16  1  0
 19 18  1  0
 20 19  2  0
 21 20  1  0
 22 21  1  0
 22 27  2  0
 23 22  1  0
 24 23  2  0
 24 25  1  0
 25 26  2  0
 26 27  1  0
 27 19  1  0
 28 17  1  0
 28 29  1  0
 30 28  2  0
M  END
$$$$
