NDH.pdb
     RDKit          3D

 27 27  0  0  1  0  0  0  0  0999 V2000
   25.3650  -32.6813   -6.7465 N   0  0  0  0  0  0  0  0  0  0  0  0
   25.0360  -32.2968   -5.4190 C   0  0  0  0  0  0  0  0  0  0  0  0
   24.0071  -31.5986   -5.2435 O   0  0  0  0  0  0  0  0  0  0  0  0
   25.8236  -32.6631   -4.2275 C   0  0  0  0  0  0  0  0  0  0  0  0
   27.0148  -33.5318   -4.5753 C   0  0  2  0  0  0  0  0  0  0  0  0
   26.6025  -34.8234   -5.0821 N   0  0  0  0  0  0  0  0  0  0  0  0
   27.8940  -33.7519   -3.4064 C   0  0  0  0  0  0  0  0  0  0  0  0
   28.3883  -32.7739   -2.7975 O   0  0  0  0  0  0  0  0  0  0  0  0
   28.2127  -35.0662   -2.9284 N   0  0  0  0  0  0  0  0  0  0  0  0
   29.0627  -35.2754   -1.7767 C   0  0  1  0  0  0  0  0  0  0  0  0
   28.6189  -36.4788   -0.9919 C   0  0  0  0  0  0  0  0  0  0  0  0
   29.3183  -36.6147    0.3055 C   0  0  0  0  0  0  0  0  0  0  0  0
   29.5943  -35.6573    1.0646 O   0  0  0  0  0  0  0  0  0  0  0  0
   30.4731  -35.5404   -2.2112 C   0  0  0  0  0  0  0  0  0  0  0  0
   30.7029  -36.0594   -3.3273 O   0  0  0  0  0  0  0  0  0  0  0  0
   29.6910  -37.8818    0.7047 O   0  0  0  0  0  0  0  0  0  0  0  0
   31.5821  -35.2205   -1.3922 N   0  0  0  0  0  0  0  0  0  0  0  0
   32.9759  -35.4127   -1.8292 C   0  0  1  0  0  0  0  0  0  0  0  0
   33.4457  -34.2311   -2.6024 C   0  0  0  0  0  0  0  0  0  0  0  0
   33.2821  -34.4410   -4.0525 C   0  0  0  0  0  0  0  0  0  0  0  0
   32.7766  -35.6290   -4.6262 C   0  0  0  0  0  0  0  0  0  0  0  0
   32.7430  -35.5298   -5.9562 N   0  0  0  0  0  0  0  0  0  0  0  0
   33.2121  -34.3124   -6.2586 C   0  0  0  0  0  0  0  0  0  0  0  0
   33.5291  -33.6746   -5.1231 N   0  0  0  0  0  0  0  0  0  0  0  0
   33.7749  -35.4761   -0.5477 C   0  0  0  0  0  0  0  0  0  0  0  0
   33.2017  -35.3755    0.5832 O   0  0  0  0  0  0  0  0  0  0  0  0
   35.1345  -35.6453   -0.6055 O   0  0  0  0  0  0  0  0  0  0  0  0
  2  3  2  0
  2  1  1  0
  4  2  1  0
  5  4  1  0
  5  6  1  1
  7  8  2  0
  7  5  1  0
  9  7  1  0
 10  9  1  0
 10 11  1  6
 12 11  1  0
 13 12  2  0
 14 10  1  0
 14 17  1  0
 15 14  2  0
 16 12  1  0
 18 17  1  0
 18 25  1  0
 18 19  1  6
 20 19  1  0
 21 20  2  0
 22 21  1  0
 23 22  1  0
 23 24  2  0
 24 20  1  0
 25 27  1  0
 26 25  2  0
M  END
$$$$
