NDH.pdb
     RDKit          3D

 27 27  0  0  1  0  0  0  0  0999 V2000
   22.8326  -12.9552  -20.2608 N   0  0  0  0  0  0  0  0  0  0  0  0
   22.3265  -11.7664  -20.8513 C   0  0  0  0  0  0  0  0  0  0  0  0
   22.7326  -11.4567  -21.9985 O   0  0  0  0  0  0  0  0  0  0  0  0
   21.3522  -10.8668  -20.2065 C   0  0  0  0  0  0  0  0  0  0  0  0
   20.9635  -11.3440  -18.8224 C   0  0  2  0  0  0  0  0  0  0  0  0
   20.0374  -12.4548  -18.8822 N   0  0  0  0  0  0  0  0  0  0  0  0
   20.3419  -10.2651  -18.0239 C   0  0  0  0  0  0  0  0  0  0  0  0
   19.3129   -9.6847  -18.4432 O   0  0  0  0  0  0  0  0  0  0  0  0
   20.8779   -9.8448  -16.7616 N   0  0  0  0  0  0  0  0  0  0  0  0
   20.2973   -8.7537  -16.0098 C   0  0  1  0  0  0  0  0  0  0  0  0
   20.4537   -8.9760  -14.5309 C   0  0  0  0  0  0  0  0  0  0  0  0
   19.7562   -7.9570  -13.7148 C   0  0  0  0  0  0  0  0  0  0  0  0
   19.0766   -7.0165  -14.1862 O   0  0  0  0  0  0  0  0  0  0  0  0
   21.0004   -7.4686  -16.3292 C   0  0  0  0  0  0  0  0  0  0  0  0
   22.2306   -7.3543  -16.1251 O   0  0  0  0  0  0  0  0  0  0  0  0
   19.8626   -8.0505  -12.3423 O   0  0  0  0  0  0  0  0  0  0  0  0
   20.3148   -6.3523  -16.8646 N   0  0  0  0  0  0  0  0  0  0  0  0
   20.9951   -5.0931  -17.2142 C   0  0  1  0  0  0  0  0  0  0  0  0
   20.8460   -4.8080  -18.6673 C   0  0  0  0  0  0  0  0  0  0  0  0
   21.7269   -5.6712  -19.4751 C   0  0  0  0  0  0  0  0  0  0  0  0
   21.2726   -6.7726  -20.2346 C   0  0  0  0  0  0  0  0  0  0  0  0
   22.2925   -7.3637  -20.8592 N   0  0  0  0  0  0  0  0  0  0  0  0
   23.3925   -6.6766  -20.5255 C   0  0  0  0  0  0  0  0  0  0  0  0
   23.0467   -5.6750  -19.7046 N   0  0  0  0  0  0  0  0  0  0  0  0
   20.2430   -4.0258  -16.4526 C   0  0  0  0  0  0  0  0  0  0  0  0
   19.2477   -4.3270  -15.7203 O   0  0  0  0  0  0  0  0  0  0  0  0
   20.6398   -2.7170  -16.5518 O   0  0  0  0  0  0  0  0  0  0  0  0
  2  3  2  0
  2  1  1  0
  4  2  1  0
  5  4  1  0
  5  6  1  6
  7  8  2  0
  7  5  1  0
  9  7  1  0
 10  9  1  0
 10 11  1  1
 12 11  1  0
 13 12  2  0
 14 10  1  0
 14 17  1  0
 15 14  2  0
 16 12  1  0
 18 17  1  0
 18 25  1  0
 18 19  1  6
 20 19  1  0
 21 20  2  0
 22 21  1  0
 23 22  1  0
 23 24  2  0
 24 20  1  0
 25 27  1  0
 26 25  2  0
M  END
$$$$
