NDH.pdb
     RDKit          3D

 27 27  0  0  1  0  0  0  0  0999 V2000
   19.5300  -14.2471  -18.1302 N   0  0  0  0  0  0  0  0  0  0  0  0
   20.9447  -14.1194  -18.1523 C   0  0  0  0  0  0  0  0  0  0  0  0
   21.6286  -15.1530  -18.3549 O   0  0  0  0  0  0  0  0  0  0  0  0
   21.6687  -12.8505  -17.9527 C   0  0  0  0  0  0  0  0  0  0  0  0
   20.7268  -11.6758  -17.7864 C   0  0  2  0  0  0  0  0  0  0  0  0
   19.9891  -11.4079  -19.0026 N   0  0  0  0  0  0  0  0  0  0  0  0
   21.4484  -10.4434  -17.4012 C   0  0  0  0  0  0  0  0  0  0  0  0
   22.1050  -10.4060  -16.3340 O   0  0  0  0  0  0  0  0  0  0  0  0
   21.4289   -9.2622  -18.2147 N   0  0  0  0  0  0  0  0  0  0  0  0
   22.0885   -8.0415  -17.8058 C   0  0  1  0  0  0  0  0  0  0  0  0
   22.2451   -7.0994  -18.9672 C   0  0  0  0  0  0  0  0  0  0  0  0
   23.0550   -5.9047  -18.6391 C   0  0  0  0  0  0  0  0  0  0  0  0
   23.6791   -5.7458  -17.5648 O   0  0  0  0  0  0  0  0  0  0  0  0
   21.2666   -7.3244  -16.7770 C   0  0  0  0  0  0  0  0  0  0  0  0
   20.0421   -7.1404  -16.9635 O   0  0  0  0  0  0  0  0  0  0  0  0
   23.1267   -4.8988  -19.5810 O   0  0  0  0  0  0  0  0  0  0  0  0
   21.8310   -6.8352  -15.5750 N   0  0  0  0  0  0  0  0  0  0  0  0
   21.0406   -6.1204  -14.5577 C   0  0  1  0  0  0  0  0  0  0  0  0
   21.1391   -6.8112  -13.2432 C   0  0  0  0  0  0  0  0  0  0  0  0
   20.1435   -7.8928  -13.1311 C   0  0  0  0  0  0  0  0  0  0  0  0
   19.1978   -8.2024  -14.1340 C   0  0  0  0  0  0  0  0  0  0  0  0
   18.4303   -9.2256  -13.7547 N   0  0  0  0  0  0  0  0  0  0  0  0
   18.8526   -9.5862  -12.5360 C   0  0  0  0  0  0  0  0  0  0  0  0
   19.8686   -8.7900  -12.1750 N   0  0  0  0  0  0  0  0  0  0  0  0
   21.7131   -4.7733  -14.4253 C   0  0  0  0  0  0  0  0  0  0  0  0
   22.7373   -4.4850  -15.1221 O   0  0  0  0  0  0  0  0  0  0  0  0
   21.2118   -3.8503  -13.5437 O   0  0  0  0  0  0  0  0  0  0  0  0
  2  3  2  0
  2  1  1  0
  4  2  1  0
  5  4  1  0
  5  6  1  6
  7  8  2  0
  7  5  1  0
  9  7  1  0
 10  9  1  0
 10 11  1  6
 12 11  1  0
 13 12  2  0
 14 10  1  0
 14 17  1  0
 15 14  2  0
 16 12  1  0
 18 17  1  0
 18 25  1  0
 18 19  1  1
 20 19  1  0
 21 20  2  0
 22 21  1  0
 23 22  1  0
 23 24  2  0
 24 20  1  0
 25 27  1  0
 26 25  2  0
M  END
$$$$
