NDH.pdb
     RDKit          3D

 27 27  0  0  1  0  0  0  0  0999 V2000
   26.8040  -24.2555  -17.1342 N   0  0  0  0  0  0  0  0  0  0  0  0
   26.1204  -24.0728  -15.9024 C   0  0  0  0  0  0  0  0  0  0  0  0
   26.1841  -24.9917  -15.0488 O   0  0  0  0  0  0  0  0  0  0  0  0
   25.3375  -22.8724  -15.5555 C   0  0  0  0  0  0  0  0  0  0  0  0
   25.4507  -21.7921  -16.6113 C   0  0  2  0  0  0  0  0  0  0  0  0
   26.5972  -20.9393  -16.3805 N   0  0  0  0  0  0  0  0  0  0  0  0
   24.2420  -20.9408  -16.6580 C   0  0  0  0  0  0  0  0  0  0  0  0
   24.1033  -19.9995  -15.8417 O   0  0  0  0  0  0  0  0  0  0  0  0
   23.1979  -21.1505  -17.6188 N   0  0  0  0  0  0  0  0  0  0  0  0
   22.0564  -20.2668  -17.7124 C   0  0  1  0  0  0  0  0  0  0  0  0
   21.2080  -20.6082  -18.9060 C   0  0  0  0  0  0  0  0  0  0  0  0
   20.1365  -19.6184  -19.1574 C   0  0  0  0  0  0  0  0  0  0  0  0
   19.1294  -19.8313  -19.8710 O   0  0  0  0  0  0  0  0  0  0  0  0
   21.1810  -20.4166  -16.5044 C   0  0  0  0  0  0  0  0  0  0  0  0
   21.1517  -21.4994  -15.8763 O   0  0  0  0  0  0  0  0  0  0  0  0
   20.2562  -18.3779  -18.5653 O   0  0  0  0  0  0  0  0  0  0  0  0
   20.3667  -19.3592  -16.0333 N   0  0  0  0  0  0  0  0  0  0  0  0
   19.6331  -19.4273  -14.7575 C   0  0  1  0  0  0  0  0  0  0  0  0
   20.2297  -18.4931  -13.7645 C   0  0  0  0  0  0  0  0  0  0  0  0
   21.0675  -19.2134  -12.7883 C   0  0  0  0  0  0  0  0  0  0  0  0
   21.2291  -20.6168  -12.7701 C   0  0  0  0  0  0  0  0  0  0  0  0
   22.0423  -20.9821  -11.7775 N   0  0  0  0  0  0  0  0  0  0  0  0
   22.4108  -19.8557  -11.1540 C   0  0  0  0  0  0  0  0  0  0  0  0
   21.8277  -18.8125  -11.7607 N   0  0  0  0  0  0  0  0  0  0  0  0
   18.2441  -18.9298  -15.0861 C   0  0  0  0  0  0  0  0  0  0  0  0
   18.0018  -18.3608  -16.1975 O   0  0  0  0  0  0  0  0  0  0  0  0
   17.2328  -19.0953  -14.1749 O   0  0  0  0  0  0  0  0  0  0  0  0
  2  3  2  0
  2  1  1  0
  4  2  1  0
  5  4  1  0
  5  6  1  1
  7  8  2  0
  7  5  1  0
  9  7  1  0
 10  9  1  0
 10 11  1  6
 12 11  1  0
 13 12  2  0
 14 10  1  0
 14 17  1  0
 15 14  2  0
 16 12  1  0
 18 17  1  0
 18 25  1  0
 18 19  1  1
 20 19  1  0
 21 20  2  0
 22 21  1  0
 23 22  1  0
 23 24  2  0
 24 20  1  0
 25 27  1  0
 26 25  2  0
M  END
$$$$
