NDH.pdb
     RDKit          3D

 27 27  0  0  1  0  0  0  0  0999 V2000
   13.8115  -15.5645  -13.5070 N   0  0  0  0  0  0  0  0  0  0  0  0
   14.9949  -15.5798  -14.2928 C   0  0  0  0  0  0  0  0  0  0  0  0
   15.3090  -16.6511  -14.8679 O   0  0  0  0  0  0  0  0  0  0  0  0
   15.8840  -14.4186  -14.4804 C   0  0  0  0  0  0  0  0  0  0  0  0
   15.4070  -13.2041  -13.7112 C   0  0  2  0  0  0  0  0  0  0  0  0
   14.2297  -12.6184  -14.3165 N   0  0  0  0  0  0  0  0  0  0  0  0
   16.4525  -12.1611  -13.6278 C   0  0  0  0  0  0  0  0  0  0  0  0
   17.6098  -12.4590  -13.2488 O   0  0  0  0  0  0  0  0  0  0  0  0
   16.1936  -10.7923  -13.9696 N   0  0  0  0  0  0  0  0  0  0  0  0
   17.2362   -9.7897  -13.9517 C   0  0  1  0  0  0  0  0  0  0  0  0
   17.7511   -9.5240  -15.3393 C   0  0  0  0  0  0  0  0  0  0  0  0
   18.8665   -8.5513  -15.3670 C   0  0  0  0  0  0  0  0  0  0  0  0
   19.9342   -8.6801  -14.7249 O   0  0  0  0  0  0  0  0  0  0  0  0
   16.6991   -8.4887  -13.4350 C   0  0  0  0  0  0  0  0  0  0  0  0
   15.6195   -8.0318  -13.8753 O   0  0  0  0  0  0  0  0  0  0  0  0
   18.7191   -7.4273  -16.1536 O   0  0  0  0  0  0  0  0  0  0  0  0
   17.3782   -7.7374  -12.4463 N   0  0  0  0  0  0  0  0  0  0  0  0
   16.8989   -6.4269  -11.9736 C   0  0  1  0  0  0  0  0  0  0  0  0
   17.2344   -6.2387  -10.5359 C   0  0  0  0  0  0  0  0  0  0  0  0
   16.2308   -6.8764   -9.6642 C   0  0  0  0  0  0  0  0  0  0  0  0
   15.0049   -7.4048  -10.1269 C   0  0  0  0  0  0  0  0  0  0  0  0
   14.3032   -7.9167   -9.1142 N   0  0  0  0  0  0  0  0  0  0  0  0
   15.0400   -7.7344   -8.0108 C   0  0  0  0  0  0  0  0  0  0  0  0
   16.1810   -7.1169   -8.3473 N   0  0  0  0  0  0  0  0  0  0  0  0
   17.6921   -5.4173  -12.7711 C   0  0  0  0  0  0  0  0  0  0  0  0
   18.5708   -5.7945  -13.6097 O   0  0  0  0  0  0  0  0  0  0  0  0
   17.4604   -4.0781  -12.5887 O   0  0  0  0  0  0  0  0  0  0  0  0
  2  3  2  0
  2  1  1  0
  4  2  1  0
  5  4  1  0
  5  6  1  6
  7  8  2  0
  7  5  1  0
  9  7  1  0
 10  9  1  0
 10 11  1  6
 12 11  1  0
 13 12  2  0
 14 10  1  0
 14 17  1  0
 15 14  2  0
 16 12  1  0
 18 17  1  0
 18 25  1  0
 18 19  1  1
 20 19  1  0
 21 20  2  0
 22 21  1  0
 23 22  1  0
 23 24  2  0
 24 20  1  0
 25 27  1  0
 26 25  2  0
M  END
$$$$
