NDH.pdb
     RDKit          3D

 27 27  0  0  1  0  0  0  0  0999 V2000
   21.8366  -13.0020  -19.2603 N   0  0  0  0  0  0  0  0  0  0  0  0
   22.9441  -12.1836  -19.6091 C   0  0  0  0  0  0  0  0  0  0  0  0
   23.9683  -12.7417  -20.0745 O   0  0  0  0  0  0  0  0  0  0  0  0
   22.9738  -10.7168  -19.4616 C   0  0  0  0  0  0  0  0  0  0  0  0
   21.6689  -10.1710  -18.9195 C   0  0  2  0  0  0  0  0  0  0  0  0
   20.5841  -10.3500  -19.8610 N   0  0  0  0  0  0  0  0  0  0  0  0
   21.7681   -8.7312  -18.5954 C   0  0  0  0  0  0  0  0  0  0  0  0
   22.6496   -8.3238  -17.8026 O   0  0  0  0  0  0  0  0  0  0  0  0
   20.8789   -7.7587  -19.1621 N   0  0  0  0  0  0  0  0  0  0  0  0
   20.9595   -6.3563  -18.8165 C   0  0  1  0  0  0  0  0  0  0  0  0
   20.3233   -5.5030  -19.8787 C   0  0  0  0  0  0  0  0  0  0  0  0
   21.1631   -5.3631  -21.0895 C   0  0  0  0  0  0  0  0  0  0  0  0
   22.3800   -5.0669  -21.0767 O   0  0  0  0  0  0  0  0  0  0  0  0
   20.2121   -6.0894  -17.5444 C   0  0  0  0  0  0  0  0  0  0  0  0
   19.0275   -6.4743  -17.4154 O   0  0  0  0  0  0  0  0  0  0  0  0
   20.5638   -5.5733  -22.3145 O   0  0  0  0  0  0  0  0  0  0  0  0
   20.8043   -5.4038  -16.4571 N   0  0  0  0  0  0  0  0  0  0  0  0
   20.0466   -5.0104  -15.2564 C   0  0  1  0  0  0  0  0  0  0  0  0
   20.7874   -5.3965  -14.0248 C   0  0  0  0  0  0  0  0  0  0  0  0
   20.7118   -6.8498  -13.7882 C   0  0  0  0  0  0  0  0  0  0  0  0
   19.9718   -7.7435  -14.5943 C   0  0  0  0  0  0  0  0  0  0  0  0
   20.0897   -8.9922  -14.1397 N   0  0  0  0  0  0  0  0  0  0  0  0
   20.8842   -8.9314  -13.0633 C   0  0  0  0  0  0  0  0  0  0  0  0
   21.2478   -7.6569  -12.8631 N   0  0  0  0  0  0  0  0  0  0  0  0
   19.9945   -3.5009  -15.3124 C   0  0  0  0  0  0  0  0  0  0  0  0
   20.5889   -2.8623  -16.2379 O   0  0  0  0  0  0  0  0  0  0  0  0
   19.2968   -2.8117  -14.3539 O   0  0  0  0  0  0  0  0  0  0  0  0
  2  3  2  0
  2  1  1  0
  4  2  1  0
  5  4  1  0
  5  6  1  6
  7  8  2  0
  7  5  1  0
  9  7  1  0
 10  9  1  0
 10 11  1  6
 12 11  1  0
 13 12  2  0
 14 10  1  0
 14 17  1  0
 15 14  2  0
 16 12  1  0
 18 17  1  0
 18 25  1  0
 18 19  1  1
 20 19  1  0
 21 20  2  0
 22 21  1  0
 23 22  1  0
 23 24  2  0
 24 20  1  0
 25 27  1  0
 26 25  2  0
M  END
$$$$
