LVC.pdb
     RDKit          3D

 22 21  0  0  1  0  0  0  0  0999 V2000
    6.4885  -18.6257   27.9613 C   0  0  0  0  0  0  0  0  0  0  0  0
    7.5057  -19.6442   27.4884 C   0  0  2  0  0  0  0  0  0  0  0  0
    8.6925  -19.6060   28.4580 C   0  0  0  0  0  0  0  0  0  0  0  0
    7.9937  -19.2536   26.1173 C   0  0  0  0  0  0  0  0  0  0  0  0
    6.8681  -19.0108   25.1437 C   0  0  2  0  0  0  0  0  0  0  0  0
    6.3974  -20.2896   24.6564 N   0  0  0  0  0  0  0  0  0  0  0  0
    7.4592  -18.2595   23.9788 C   0  0  0  0  0  0  0  0  0  0  0  0
    8.1378  -18.8413   23.0864 O   0  0  0  0  0  0  0  0  0  0  0  0
    5.9481  -15.3339   21.8483 C   0  0  0  0  0  0  0  0  0  0  0  0
    7.2078  -14.8211   22.5849 C   0  0  2  0  0  0  0  0  0  0  0  0
    7.8698  -13.8869   21.6031 C   0  0  0  0  0  0  0  0  0  0  0  0
    8.0258  -16.0574   22.8593 C   0  0  2  0  0  0  0  0  0  0  0  0
    7.2650  -16.8572   23.8490 N   0  0  0  0  0  0  0  0  0  0  0  0
    9.3827  -15.7856   23.3851 C   0  0  0  0  0  0  0  0  0  0  0  0
    9.4569  -15.1869   24.5163 O   0  0  0  0  0  0  0  0  0  0  0  0
   10.6013  -16.1074   22.7923 N   0  0  0  0  0  0  0  0  0  0  0  0
   11.9056  -16.0881   23.4262 C   0  0  1  0  0  0  0  0  0  0  0  0
   12.0645  -17.0706   24.5334 C   0  0  0  0  0  0  0  0  0  0  0  0
   13.7246  -16.9525   25.2640 S   0  0  0  0  0  0  0  0  0  0  0  0
   12.9870  -16.3395   22.4379 C   0  0  0  0  0  0  0  0  0  0  0  0
   14.3053  -16.0255   22.7567 O   0  0  0  0  0  0  0  0  0  0  0  0
   12.7690  -16.8316   21.3072 O   0  0  0  0  0  0  0  0  0  0  0  0
  2  3  1  1
  2  1  1  0
  4  5  1  0
  4  2  1  0
  5  7  1  0
  5  6  1  6
  7 13  1  0
  8  7  2  0
 10  9  1  6
 10 12  1  0
 10 11  1  0
 12 13  1  1
 14 15  2  0
 14 12  1  0
 16 14  1  0
 17 16  1  0
 17 20  1  0
 17 18  1  1
 19 18  1  0
 20 21  1  0
 22 20  2  0
M  END
$$$$
