LVC.pdb
     RDKit          3D

 22 21  0  0  1  0  0  0  0  0999 V2000
    5.2494  -12.5799   26.2949 C   0  0  0  0  0  0  0  0  0  0  0  0
    6.3350  -13.1869   27.1602 C   0  0  2  0  0  0  0  0  0  0  0  0
    7.1994  -12.0416   27.6996 C   0  0  0  0  0  0  0  0  0  0  0  0
    7.2001  -14.0816   26.3105 C   0  0  0  0  0  0  0  0  0  0  0  0
    6.4021  -15.0924   25.5261 C   0  0  2  0  0  0  0  0  0  0  0  0
    6.0766  -16.1995   26.3995 N   0  0  0  0  0  0  0  0  0  0  0  0
    7.3092  -15.6098   24.4397 C   0  0  0  0  0  0  0  0  0  0  0  0
    7.9166  -16.7120   24.5480 O   0  0  0  0  0  0  0  0  0  0  0  0
    6.4703  -14.6904   20.7215 C   0  0  0  0  0  0  0  0  0  0  0  0
    7.9969  -14.5429   20.9215 C   0  0  2  0  0  0  0  0  0  0  0  0
    8.6018  -15.0770   19.6471 C   0  0  0  0  0  0  0  0  0  0  0  0
    8.3142  -15.3969   22.1228 C   0  0  2  0  0  0  0  0  0  0  0  0
    7.5075  -14.8632   23.2463 N   0  0  0  0  0  0  0  0  0  0  0  0
    9.7446  -15.4041   22.5042 C   0  0  0  0  0  0  0  0  0  0  0  0
   10.1234  -14.5188   23.3503 O   0  0  0  0  0  0  0  0  0  0  0  0
   10.7381  -16.2681   22.0500 N   0  0  0  0  0  0  0  0  0  0  0  0
   11.9115  -16.7020   22.7837 C   0  0  1  0  0  0  0  0  0  0  0  0
   11.6128  -17.5230   23.9892 C   0  0  0  0  0  0  0  0  0  0  0  0
   12.2953  -16.7437   25.4826 S   0  0  0  0  0  0  0  0  0  0  0  0
   12.8280  -17.4870   21.9158 C   0  0  0  0  0  0  0  0  0  0  0  0
   12.3753  -17.9802   20.6951 O   0  0  0  0  0  0  0  0  0  0  0  0
   14.0143  -17.7329   22.2324 O   0  0  0  0  0  0  0  0  0  0  0  0
  2  3  1  6
  2  1  1  0
  4  5  1  0
  4  2  1  0
  5  7  1  0
  5  6  1  1
  7 13  1  0
  8  7  2  0
 10  9  1  6
 10 12  1  0
 10 11  1  0
 12 13  1  1
 14 15  2  0
 14 12  1  0
 16 14  1  0
 17 16  1  0
 17 20  1  0
 17 18  1  1
 19 18  1  0
 20 21  1  0
 22 20  2  0
M  END
$$$$
