LVC.pdb
     RDKit          3D

 22 21  0  0  1  0  0  0  0  0999 V2000
    6.1128  -12.2766   26.2432 C   0  0  0  0  0  0  0  0  0  0  0  0
    6.7548  -13.2221   27.2379 C   0  0  2  0  0  0  0  0  0  0  0  0
    7.8161  -12.4347   28.0150 C   0  0  0  0  0  0  0  0  0  0  0  0
    7.4378  -14.3368   26.4884 C   0  0  0  0  0  0  0  0  0  0  0  0
    6.4996  -15.0910   25.5804 C   0  0  2  0  0  0  0  0  0  0  0  0
    5.8734  -16.1498   26.3428 N   0  0  0  0  0  0  0  0  0  0  0  0
    7.3510  -15.7289   24.5132 C   0  0  0  0  0  0  0  0  0  0  0  0
    7.8545  -16.8779   24.6613 O   0  0  0  0  0  0  0  0  0  0  0  0
    6.8019  -15.0447   20.6658 C   0  0  0  0  0  0  0  0  0  0  0  0
    8.2944  -14.8233   21.0059 C   0  0  2  0  0  0  0  0  0  0  0  0
    9.0425  -15.3830   19.8218 C   0  0  0  0  0  0  0  0  0  0  0  0
    8.5245  -15.6125   22.2698 C   0  0  2  0  0  0  0  0  0  0  0  0
    7.6129  -15.0475   23.2933 N   0  0  0  0  0  0  0  0  0  0  0  0
    9.9165  -15.5666   22.7716 C   0  0  0  0  0  0  0  0  0  0  0  0
   10.2945  -14.4780   23.3333 O   0  0  0  0  0  0  0  0  0  0  0  0
   10.8741  -16.5759   22.7072 N   0  0  0  0  0  0  0  0  0  0  0  0
   12.2394  -16.5078   23.1916 C   0  0  1  0  0  0  0  0  0  0  0  0
   12.3859  -16.7587   24.6517 C   0  0  0  0  0  0  0  0  0  0  0  0
   11.1030  -17.9047   25.2387 S   0  0  0  0  0  0  0  0  0  0  0  0
   13.1125  -17.4742   22.4753 C   0  0  0  0  0  0  0  0  0  0  0  0
   14.4962  -17.3835   22.5994 O   0  0  0  0  0  0  0  0  0  0  0  0
   12.6576  -18.3879   21.7498 O   0  0  0  0  0  0  0  0  0  0  0  0
  2  3  1  6
  2  1  1  0
  4  5  1  0
  4  2  1  0
  5  7  1  0
  5  6  1  1
  7 13  1  0
  8  7  2  0
 10  9  1  6
 10 12  1  0
 10 11  1  0
 12 13  1  1
 14 15  2  0
 14 12  1  0
 16 14  1  0
 17 16  1  0
 17 20  1  0
 17 18  1  1
 19 18  1  0
 20 21  1  0
 22 20  2  0
M  END
$$$$
