LVC.pdb
     RDKit          3D

 22 21  0  0  1  0  0  0  0  0999 V2000
    6.0829  -12.4107   26.0390 C   0  0  0  0  0  0  0  0  0  0  0  0
    6.6734  -13.2641   27.1429 C   0  0  2  0  0  0  0  0  0  0  0  0
    7.7732  -12.4464   27.8298 C   0  0  0  0  0  0  0  0  0  0  0  0
    7.2984  -14.4932   26.5351 C   0  0  0  0  0  0  0  0  0  0  0  0
    6.3731  -15.2098   25.5842 C   0  0  2  0  0  0  0  0  0  0  0  0
    5.7379  -16.2994   26.2938 N   0  0  0  0  0  0  0  0  0  0  0  0
    7.2395  -15.8027   24.5032 C   0  0  0  0  0  0  0  0  0  0  0  0
    7.7369  -16.9591   24.6077 O   0  0  0  0  0  0  0  0  0  0  0  0
    6.7861  -14.8785   20.6357 C   0  0  0  0  0  0  0  0  0  0  0  0
    8.2619  -14.7102   21.0670 C   0  0  2  0  0  0  0  0  0  0  0  0
    9.0626  -15.1785   19.8777 C   0  0  0  0  0  0  0  0  0  0  0  0
    8.4188  -15.6078   22.2683 C   0  0  2  0  0  0  0  0  0  0  0  0
    7.5229  -15.0686   23.3192 N   0  0  0  0  0  0  0  0  0  0  0  0
    9.8007  -15.6870   22.7930 C   0  0  0  0  0  0  0  0  0  0  0  0
   10.3580  -14.5821   23.1277 O   0  0  0  0  0  0  0  0  0  0  0  0
   10.5756  -16.8308   22.9699 N   0  0  0  0  0  0  0  0  0  0  0  0
   11.9694  -16.8808   23.3676 C   0  0  1  0  0  0  0  0  0  0  0  0
   12.2654  -17.8653   24.4444 C   0  0  0  0  0  0  0  0  0  0  0  0
   11.0525  -17.7287   25.7912 S   0  0  0  0  0  0  0  0  0  0  0  0
   12.8473  -17.1964   22.2105 C   0  0  0  0  0  0  0  0  0  0  0  0
   14.2302  -17.1053   22.3433 O   0  0  0  0  0  0  0  0  0  0  0  0
   12.3974  -17.5493   21.0964 O   0  0  0  0  0  0  0  0  0  0  0  0
  2  3  1  6
  2  1  1  0
  4  5  1  0
  4  2  1  0
  5  7  1  0
  5  6  1  1
  7 13  1  0
  8  7  2  0
 10  9  1  6
 10 12  1  0
 10 11  1  0
 12 13  1  1
 14 15  2  0
 14 12  1  0
 16 14  1  0
 17 16  1  0
 17 20  1  0
 17 18  1  1
 19 18  1  0
 20 21  1  0
 22 20  2  0
M  END
$$$$
