LVC.pdb
     RDKit          3D

 22 21  0  0  1  0  0  0  0  0999 V2000
    5.7003  -12.0135   26.1845 C   0  0  0  0  0  0  0  0  0  0  0  0
    6.4397  -12.8137   27.2375 C   0  0  2  0  0  0  0  0  0  0  0  0
    7.4431  -11.8764   27.9192 C   0  0  0  0  0  0  0  0  0  0  0  0
    7.2025  -13.9262   26.5657 C   0  0  0  0  0  0  0  0  0  0  0  0
    6.3311  -14.7799   25.6794 C   0  0  2  0  0  0  0  0  0  0  0  0
    5.7196  -15.8107   26.4905 N   0  0  0  0  0  0  0  0  0  0  0  0
    7.2481  -15.4513   24.6898 C   0  0  0  0  0  0  0  0  0  0  0  0
    7.7859  -16.5683   24.9319 O   0  0  0  0  0  0  0  0  0  0  0  0
    6.7052  -14.9141   20.8176 C   0  0  0  0  0  0  0  0  0  0  0  0
    8.2094  -14.7533   21.1402 C   0  0  2  0  0  0  0  0  0  0  0  0
    8.9200  -15.4021   19.9788 C   0  0  0  0  0  0  0  0  0  0  0  0
    8.4086  -15.4959   22.4372 C   0  0  2  0  0  0  0  0  0  0  0  0
    7.5353  -14.8394   23.4392 N   0  0  0  0  0  0  0  0  0  0  0  0
    9.8050  -15.4995   22.9286 C   0  0  0  0  0  0  0  0  0  0  0  0
   10.2012  -14.4544   23.5565 O   0  0  0  0  0  0  0  0  0  0  0  0
   10.7493  -16.5139   22.7903 N   0  0  0  0  0  0  0  0  0  0  0  0
   11.9086  -16.7398   23.6320 C   0  0  1  0  0  0  0  0  0  0  0  0
   11.6054  -17.4054   24.9287 C   0  0  0  0  0  0  0  0  0  0  0  0
   11.0621  -16.1882   26.1643 S   0  0  0  0  0  0  0  0  0  0  0  0
   12.9310  -17.5588   22.9297 C   0  0  0  0  0  0  0  0  0  0  0  0
   12.6214  -18.1626   21.7140 O   0  0  0  0  0  0  0  0  0  0  0  0
   14.0839  -17.7375   23.3848 O   0  0  0  0  0  0  0  0  0  0  0  0
  2  3  1  6
  2  1  1  0
  4  5  1  0
  4  2  1  0
  5  7  1  0
  5  6  1  1
  7 13  1  0
  8  7  2  0
 10  9  1  6
 10 12  1  0
 10 11  1  0
 12 13  1  1
 14 15  2  0
 14 12  1  0
 16 14  1  0
 17 16  1  0
 17 20  1  0
 17 18  1  1
 19 18  1  0
 20 21  1  0
 22 20  2  0
M  END
$$$$
