LVC.pdb
     RDKit          3D

 22 21  0  0  1  0  0  0  0  0999 V2000
    5.5995  -11.8562   26.3397 C   0  0  0  0  0  0  0  0  0  0  0  0
    6.4228  -12.7153   27.2777 C   0  0  2  0  0  0  0  0  0  0  0  0
    7.3952  -11.7949   28.0240 C   0  0  0  0  0  0  0  0  0  0  0  0
    7.2228  -13.7026   26.4676 C   0  0  0  0  0  0  0  0  0  0  0  0
    6.3585  -14.5860   25.6037 C   0  0  2  0  0  0  0  0  0  0  0  0
    5.6897  -15.5478   26.4533 N   0  0  0  0  0  0  0  0  0  0  0  0
    7.2896  -15.3415   24.6910 C   0  0  0  0  0  0  0  0  0  0  0  0
    7.7838  -16.4568   25.0189 O   0  0  0  0  0  0  0  0  0  0  0  0
    6.9420  -14.7849   20.7713 C   0  0  0  0  0  0  0  0  0  0  0  0
    8.4389  -14.8318   21.1578 C   0  0  2  0  0  0  0  0  0  0  0  0
    9.1004  -15.5851   20.0308 C   0  0  0  0  0  0  0  0  0  0  0  0
    8.4778  -15.5817   22.4653 C   0  0  2  0  0  0  0  0  0  0  0  0
    7.6404  -14.8145   23.4181 N   0  0  0  0  0  0  0  0  0  0  0  0
    9.8357  -15.7515   23.0298 C   0  0  0  0  0  0  0  0  0  0  0  0
   10.4439  -14.6878   23.4067 O   0  0  0  0  0  0  0  0  0  0  0  0
   10.5382  -16.9414   23.2039 N   0  0  0  0  0  0  0  0  0  0  0  0
   11.9018  -17.0819   23.6774 C   0  0  1  0  0  0  0  0  0  0  0  0
   12.0239  -17.7227   25.0156 C   0  0  0  0  0  0  0  0  0  0  0  0
   10.4407  -18.4571   25.5233 S   0  0  0  0  0  0  0  0  0  0  0  0
   12.7244  -17.8682   22.7211 C   0  0  0  0  0  0  0  0  0  0  0  0
   14.0857  -18.0416   22.9557 O   0  0  0  0  0  0  0  0  0  0  0  0
   12.2452  -18.3962   21.6916 O   0  0  0  0  0  0  0  0  0  0  0  0
  2  3  1  6
  2  1  1  0
  4  5  1  0
  4  2  1  0
  5  7  1  0
  5  6  1  1
  7 13  1  0
  8  7  2  0
 10  9  1  6
 10 12  1  0
 10 11  1  0
 12 13  1  1
 14 15  2  0
 14 12  1  0
 16 14  1  0
 17 16  1  0
 17 20  1  0
 17 18  1  1
 19 18  1  0
 20 21  1  0
 22 20  2  0
M  END
$$$$
