LVC.pdb
     RDKit          3D

 22 21  0  0  1  0  0  0  0  0999 V2000
    8.3063  -12.8211   27.2723 C   0  0  0  0  0  0  0  0  0  0  0  0
    7.3768  -13.4970   26.2849 C   0  0  2  0  0  0  0  0  0  0  0  0
    6.0749  -12.6890   26.2384 C   0  0  0  0  0  0  0  0  0  0  0  0
    7.0618  -14.8864   26.7760 C   0  0  0  0  0  0  0  0  0  0  0  0
    6.3392  -15.7198   25.7479 C   0  0  2  0  0  0  0  0  0  0  0  0
    5.9689  -16.9802   26.3550 N   0  0  0  0  0  0  0  0  0  0  0  0
    7.3310  -16.0071   24.6503 C   0  0  0  0  0  0  0  0  0  0  0  0
    8.2001  -16.9172   24.7595 O   0  0  0  0  0  0  0  0  0  0  0  0
    6.4132  -15.0899   20.8435 C   0  0  0  0  0  0  0  0  0  0  0  0
    7.8565  -14.6533   21.1882 C   0  0  2  0  0  0  0  0  0  0  0  0
    8.6477  -14.9273   19.9336 C   0  0  0  0  0  0  0  0  0  0  0  0
    8.2629  -15.5359   22.3410 C   0  0  2  0  0  0  0  0  0  0  0  0
    7.3145  -15.2536   23.4449 N   0  0  0  0  0  0  0  0  0  0  0  0
    9.6484  -15.3189   22.8151 C   0  0  0  0  0  0  0  0  0  0  0  0
    9.8708  -14.2492   23.4857 O   0  0  0  0  0  0  0  0  0  0  0  0
   10.7505  -16.1476   22.6191 N   0  0  0  0  0  0  0  0  0  0  0  0
   12.1105  -15.8999   23.0580 C   0  0  1  0  0  0  0  0  0  0  0  0
   12.3381  -16.1302   24.5111 C   0  0  0  0  0  0  0  0  0  0  0  0
   11.3957  -17.5731   25.0884 S   0  0  0  0  0  0  0  0  0  0  0  0
   13.0789  -16.7419   22.3080 C   0  0  0  0  0  0  0  0  0  0  0  0
   14.4467  -16.5477   22.4805 O   0  0  0  0  0  0  0  0  0  0  0  0
   12.7202  -17.6387   21.5110 O   0  0  0  0  0  0  0  0  0  0  0  0
  2  3  1  1
  2  1  1  0
  4  5  1  0
  4  2  1  0
  5  7  1  0
  5  6  1  1
  7 13  1  0
  8  7  2  0
 10  9  1  6
 10 12  1  0
 10 11  1  0
 12 13  1  1
 14 15  2  0
 14 12  1  0
 16 14  1  0
 17 16  1  0
 17 20  1  0
 17 18  1  1
 19 18  1  0
 20 21  1  0
 22 20  2  0
M  END
$$$$
