LVC.pdb
     RDKit          3D

 22 21  0  0  1  0  0  0  0  0999 V2000
    6.0018  -12.5886   25.8425 C   0  0  0  0  0  0  0  0  0  0  0  0
    6.7847  -13.2518   26.9574 C   0  0  2  0  0  0  0  0  0  0  0  0
    7.8691  -12.2703   27.4164 C   0  0  0  0  0  0  0  0  0  0  0  0
    7.4547  -14.4901   26.4202 C   0  0  0  0  0  0  0  0  0  0  0  0
    6.4867  -15.4376   25.7578 C   0  0  2  0  0  0  0  0  0  0  0  0
    6.2230  -16.5344   26.6644 N   0  0  0  0  0  0  0  0  0  0  0  0
    7.1886  -15.9954   24.5466 C   0  0  0  0  0  0  0  0  0  0  0  0
    7.4923  -17.2182   24.4572 O   0  0  0  0  0  0  0  0  0  0  0  0
    6.5138  -15.0067   20.8430 C   0  0  0  0  0  0  0  0  0  0  0  0
    8.0100  -14.7519   21.1410 C   0  0  2  0  0  0  0  0  0  0  0  0
    8.7254  -15.1601   19.8775 C   0  0  0  0  0  0  0  0  0  0  0  0
    8.3298  -15.6481   22.3105 C   0  0  2  0  0  0  0  0  0  0  0  0
    7.5311  -15.1504   23.4559 N   0  0  0  0  0  0  0  0  0  0  0  0
    9.7621  -15.6744   22.6838 C   0  0  0  0  0  0  0  0  0  0  0  0
   10.3709  -14.5470   22.7258 O   0  0  0  0  0  0  0  0  0  0  0  0
   10.5350  -16.7890   22.9998 N   0  0  0  0  0  0  0  0  0  0  0  0
   11.8177  -16.7910   23.6767 C   0  0  1  0  0  0  0  0  0  0  0  0
   11.7490  -17.1467   25.1207 C   0  0  0  0  0  0  0  0  0  0  0  0
   10.9868  -15.8027   26.0780 S   0  0  0  0  0  0  0  0  0  0  0  0
   12.7686  -17.7281   23.0233 C   0  0  0  0  0  0  0  0  0  0  0  0
   12.3108  -18.6201   22.0573 O   0  0  0  0  0  0  0  0  0  0  0  0
   13.9890  -17.7572   23.3023 O   0  0  0  0  0  0  0  0  0  0  0  0
  2  3  1  6
  2  1  1  0
  4  5  1  0
  4  2  1  0
  5  7  1  0
  5  6  1  1
  7 13  1  0
  8  7  2  0
 10  9  1  6
 10 12  1  0
 10 11  1  0
 12 13  1  1
 14 15  2  0
 14 12  1  0
 16 14  1  0
 17 16  1  0
 17 20  1  0
 17 18  1  1
 19 18  1  0
 20 21  1  0
 22 20  2  0
M  END
$$$$
