LVC.pdb
     RDKit          3D

 22 21  0  0  1  0  0  0  0  0999 V2000
    5.4694  -12.1795   26.0332 C   0  0  0  0  0  0  0  0  0  0  0  0
    6.3777  -12.8311   27.0561 C   0  0  2  0  0  0  0  0  0  0  0  0
    7.3271  -11.7540   27.5931 C   0  0  0  0  0  0  0  0  0  0  0  0
    7.1974  -13.8985   26.3783 C   0  0  0  0  0  0  0  0  0  0  0  0
    6.3645  -14.8214   25.5250 C   0  0  2  0  0  0  0  0  0  0  0  0
    5.7759  -15.8311   26.3784 N   0  0  0  0  0  0  0  0  0  0  0  0
    7.3143  -15.5096   24.5790 C   0  0  0  0  0  0  0  0  0  0  0  0
    7.8745  -16.6022   24.8755 O   0  0  0  0  0  0  0  0  0  0  0  0
    6.8631  -15.0937   20.6635 C   0  0  0  0  0  0  0  0  0  0  0  0
    8.3538  -14.9062   21.0309 C   0  0  2  0  0  0  0  0  0  0  0  0
    9.1099  -15.5741   19.9097 C   0  0  0  0  0  0  0  0  0  0  0  0
    8.5190  -15.6145   22.3516 C   0  0  2  0  0  0  0  0  0  0  0  0
    7.6083  -14.9423   23.3090 N   0  0  0  0  0  0  0  0  0  0  0  0
    9.8991  -15.5917   22.8865 C   0  0  0  0  0  0  0  0  0  0  0  0
   10.3432  -14.4612   23.2968 O   0  0  0  0  0  0  0  0  0  0  0  0
   10.7816  -16.6632   23.0001 N   0  0  0  0  0  0  0  0  0  0  0  0
   12.1455  -16.6148   23.4908 C   0  0  1  0  0  0  0  0  0  0  0  0
   12.3635  -17.3433   24.7707 C   0  0  0  0  0  0  0  0  0  0  0  0
   11.1511  -18.6839   24.9616 S   0  0  0  0  0  0  0  0  0  0  0  0
   13.0968  -17.1632   22.4889 C   0  0  0  0  0  0  0  0  0  0  0  0
   14.4683  -17.0584   22.7040 O   0  0  0  0  0  0  0  0  0  0  0  0
   12.7200  -17.7288   21.4371 O   0  0  0  0  0  0  0  0  0  0  0  0
  2  3  1  6
  2  1  1  0
  4  5  1  0
  4  2  1  0
  5  7  1  0
  5  6  1  1
  7 13  1  0
  8  7  2  0
 10  9  1  6
 10 12  1  0
 10 11  1  0
 12 13  1  1
 14 15  2  0
 14 12  1  0
 16 14  1  0
 17 16  1  0
 17 20  1  0
 17 18  1  1
 19 18  1  0
 20 21  1  0
 22 20  2  0
M  END
$$$$
