LVC.pdb
     RDKit          3D

 22 21  0  0  1  0  0  0  0  0999 V2000
    9.4901  -13.2807   19.1302 C   0  0  0  0  0  0  0  0  0  0  0  0
    8.0122  -13.5428   19.3367 C   0  0  2  0  0  0  0  0  0  0  0  0
    7.2984  -12.1871   19.3863 C   0  0  0  0  0  0  0  0  0  0  0  0
    7.8149  -14.2375   20.6593 C   0  0  0  0  0  0  0  0  0  0  0  0
    8.4629  -15.5982   20.7070 C   0  0  2  0  0  0  0  0  0  0  0  0
    7.7087  -16.4971   19.8600 N   0  0  0  0  0  0  0  0  0  0  0  0
    8.3391  -16.0859   22.1275 C   0  0  0  0  0  0  0  0  0  0  0  0
    7.2456  -16.5156   22.5911 O   0  0  0  0  0  0  0  0  0  0  0  0
    9.8298  -18.8073   23.7630 C   0  0  0  0  0  0  0  0  0  0  0  0
   10.3752  -17.6195   24.5901 C   0  0  2  0  0  0  0  0  0  0  0  0
   10.4310  -18.1349   26.0066 C   0  0  0  0  0  0  0  0  0  0  0  0
    9.3589  -16.5210   24.4065 C   0  0  2  0  0  0  0  0  0  0  0  0
    9.4648  -16.0781   22.9958 N   0  0  0  0  0  0  0  0  0  0  0  0
    9.5500  -15.3585   25.3029 C   0  0  0  0  0  0  0  0  0  0  0  0
   10.6568  -14.7205   25.1968 O   0  0  0  0  0  0  0  0  0  0  0  0
    8.6610  -14.8688   26.2567 N   0  0  0  0  0  0  0  0  0  0  0  0
    8.8991  -13.7816   27.1865 C   0  0  1  0  0  0  0  0  0  0  0  0
    7.6938  -12.9648   27.4975 C   0  0  0  0  0  0  0  0  0  0  0  0
    6.7478  -12.6140   25.9857 S   0  0  0  0  0  0  0  0  0  0  0  0
    9.4501  -14.2849   28.4720 C   0  0  0  0  0  0  0  0  0  0  0  0
   10.0354  -13.3976   29.3711 O   0  0  0  0  0  0  0  0  0  0  0  0
    9.4134  -15.4938   28.7965 O   0  0  0  0  0  0  0  0  0  0  0  0
  2  3  1  1
  2  1  1  0
  4  5  1  0
  4  2  1  0
  5  7  1  0
  5  6  1  6
  7 13  1  0
  8  7  2  0
 10  9  1  6
 10 12  1  0
 10 11  1  0
 12 13  1  6
 14 15  2  0
 14 12  1  0
 16 14  1  0
 17 16  1  0
 17 20  1  0
 17 18  1  1
 19 18  1  0
 20 21  1  0
 22 20  2  0
M  END
$$$$
