KQG.pdb
     RDKit          3D

 23 22  0  0  1  0  0  0  0  0999 V2000
   21.9596  -12.0465  -17.4427 N   0  0  0  0  0  0  0  0  0  0  0  0
   21.1627  -11.4489  -18.4894 C   0  0  1  0  0  0  0  0  0  0  0  0
   20.1981  -12.5035  -18.9785 C   0  0  0  0  0  0  0  0  0  0  0  0
   20.6848  -13.8338  -18.4460 C   0  0  0  0  0  0  0  0  0  0  0  0
   19.6547  -14.5299  -17.6124 C   0  0  0  0  0  0  0  0  0  0  0  0
   20.0686  -15.9324  -17.2156 C   0  0  0  0  0  0  0  0  0  0  0  0
   19.0441  -16.4047  -16.2772 N   0  0  0  0  0  0  0  0  0  0  0  0
   20.4790  -10.2561  -17.9529 C   0  0  0  0  0  0  0  0  0  0  0  0
   19.4260   -9.8769  -18.5151 O   0  0  0  0  0  0  0  0  0  0  0  0
   16.3829   -9.8539  -14.7608 N   0  0  0  0  0  0  0  0  0  0  0  0
   16.7484   -8.4871  -14.5304 C   0  0  0  0  0  0  0  0  0  0  0  0
   15.9147   -7.8277  -13.8574 O   0  0  0  0  0  0  0  0  0  0  0  0
   18.0055   -7.9163  -15.0419 C   0  0  0  0  0  0  0  0  0  0  0  0
   18.8978   -8.7789  -15.8250 C   0  0  0  0  0  0  0  0  0  0  0  0
   20.2019   -8.3314  -16.3300 C   0  0  2  0  0  0  0  0  0  0  0  0
   20.9549   -9.5250  -16.8394 N   0  0  0  0  0  0  0  0  0  0  0  0
   21.0872   -7.5538  -15.4847 C   0  0  0  0  0  0  0  0  0  0  0  0
   21.7652   -8.1702  -14.5568 O   0  0  0  0  0  0  0  0  0  0  0  0
   21.3485   -6.1729  -15.5240 N   0  0  0  0  0  0  0  0  0  0  0  0
   22.2599   -5.5355  -14.6164 C   0  0  0  0  0  0  0  0  0  0  0  0
   21.8684   -5.4498  -13.2256 C   0  0  0  0  0  0  0  0  0  0  0  0
   20.7937   -5.8859  -12.7926 O   0  0  0  0  0  0  0  0  0  0  0  0
   22.7499   -4.8442  -12.3320 O   0  0  0  0  0  0  0  0  0  0  0  0
  2  1  1  1
  2  8  1  0
  3  2  1  0
  4  3  1  0
  5  4  1  0
  6  7  1  0
  6  5  1  0
  8  9  2  0
 11 12  2  0
 11 10  1  0
 13 11  1  0
 14 13  1  0
 15 14  1  1
 16  8  1  0
 16 15  1  0
 17 19  1  0
 17 15  1  0
 18 17  2  0
 20 19  1  0
 21 23  1  0
 21 20  1  0
 22 21  2  0
M  END
$$$$
