KQG.pdb
     RDKit          3D

 23 22  0  0  1  0  0  0  0  0999 V2000
   18.5024  -15.8599  -18.2355 N   0  0  0  0  0  0  0  0  0  0  0  0
   18.3523  -15.0816  -17.0274 C   0  0  1  0  0  0  0  0  0  0  0  0
   18.6251  -16.0027  -15.8617 C   0  0  0  0  0  0  0  0  0  0  0  0
   17.4971  -17.0106  -15.8168 C   0  0  0  0  0  0  0  0  0  0  0  0
   17.7364  -18.0955  -14.8138 C   0  0  0  0  0  0  0  0  0  0  0  0
   16.6041  -19.1005  -14.7526 C   0  0  0  0  0  0  0  0  0  0  0  0
   17.0350  -20.1362  -13.8068 N   0  0  0  0  0  0  0  0  0  0  0  0
   19.2785  -13.9336  -17.0756 C   0  0  0  0  0  0  0  0  0  0  0  0
   20.3411  -14.0599  -17.7265 O   0  0  0  0  0  0  0  0  0  0  0  0
   23.1030  -11.6215  -18.7319 N   0  0  0  0  0  0  0  0  0  0  0  0
   22.4433  -10.3523  -18.8262 C   0  0  0  0  0  0  0  0  0  0  0  0
   23.1662   -9.4161  -19.2547 O   0  0  0  0  0  0  0  0  0  0  0  0
   21.0300  -10.1756  -18.4532 C   0  0  0  0  0  0  0  0  0  0  0  0
   20.2846  -11.3410  -17.9638 C   0  0  0  0  0  0  0  0  0  0  0  0
   19.9893  -11.5618  -16.5425 C   0  0  2  0  0  0  0  0  0  0  0  0
   19.0237  -12.7041  -16.4244 N   0  0  0  0  0  0  0  0  0  0  0  0
   19.5154  -10.4696  -15.7145 C   0  0  0  0  0  0  0  0  0  0  0  0
   18.2356  -10.2209  -15.6819 O   0  0  0  0  0  0  0  0  0  0  0  0
   20.2594   -9.6058  -14.8919 N   0  0  0  0  0  0  0  0  0  0  0  0
   19.6665   -8.4888  -14.2125 C   0  0  0  0  0  0  0  0  0  0  0  0
   20.5395   -7.6449  -13.4248 C   0  0  0  0  0  0  0  0  0  0  0  0
   21.7489   -7.8652  -13.2781 O   0  0  0  0  0  0  0  0  0  0  0  0
   19.9855   -6.5284  -12.8013 O   0  0  0  0  0  0  0  0  0  0  0  0
  2  1  1  6
  2  8  1  0
  3  2  1  0
  4  3  1  0
  5  4  1  0
  6  7  1  0
  6  5  1  0
  8  9  2  0
 11 12  2  0
 11 10  1  0
 13 11  1  0
 14 13  1  0
 15 14  1  6
 16  8  1  0
 16 15  1  0
 17 19  1  0
 17 15  1  0
 18 17  2  0
 20 19  1  0
 21 23  1  0
 21 20  1  0
 22 21  2  0
M  END
$$$$
