KQG.pdb
     RDKit          3D

 23 22  0  0  1  0  0  0  0  0999 V2000
   21.0018  -15.2655  -16.6358 N   0  0  0  0  0  0  0  0  0  0  0  0
   20.2639  -14.1121  -17.0972 C   0  0  1  0  0  0  0  0  0  0  0  0
   18.8988  -14.1637  -16.4526 C   0  0  0  0  0  0  0  0  0  0  0  0
   18.2447  -15.4540  -16.8969 C   0  0  0  0  0  0  0  0  0  0  0  0
   16.8889  -15.6479  -16.2931 C   0  0  0  0  0  0  0  0  0  0  0  0
   16.2078  -16.9143  -16.7706 C   0  0  0  0  0  0  0  0  0  0  0  0
   15.0082  -17.0649  -15.9390 N   0  0  0  0  0  0  0  0  0  0  0  0
   21.0131  -12.8894  -16.7482 C   0  0  0  0  0  0  0  0  0  0  0  0
   21.6332  -12.8679  -15.6603 O   0  0  0  0  0  0  0  0  0  0  0  0
   24.7557   -9.9780  -20.5238 N   0  0  0  0  0  0  0  0  0  0  0  0
   24.7300   -9.0429  -19.4375 C   0  0  0  0  0  0  0  0  0  0  0  0
   25.5655   -8.1071  -19.5313 O   0  0  0  0  0  0  0  0  0  0  0  0
   23.7907   -9.1771  -18.3117 C   0  0  0  0  0  0  0  0  0  0  0  0
   22.8582  -10.3102  -18.3099 C   0  0  0  0  0  0  0  0  0  0  0  0
   21.9177  -10.5697  -17.2126 C   0  0  2  0  0  0  0  0  0  0  0  0
   21.0633  -11.7469  -17.5806 N   0  0  0  0  0  0  0  0  0  0  0  0
   21.0574   -9.5115  -16.7195 C   0  0  0  0  0  0  0  0  0  0  0  0
   19.9803   -9.2177  -17.3935 O   0  0  0  0  0  0  0  0  0  0  0  0
   21.2077   -8.7261  -15.5632 N   0  0  0  0  0  0  0  0  0  0  0  0
   20.3268   -7.6359  -15.2528 C   0  0  0  0  0  0  0  0  0  0  0  0
   20.5177   -6.9614  -13.9867 C   0  0  0  0  0  0  0  0  0  0  0  0
   21.2885   -7.3686  -13.1076 O   0  0  0  0  0  0  0  0  0  0  0  0
   19.7945   -5.7940  -13.7495 O   0  0  0  0  0  0  0  0  0  0  0  0
  2  1  1  1
  2  8  1  0
  3  2  1  0
  4  3  1  0
  5  4  1  0
  6  7  1  0
  6  5  1  0
  8  9  2  0
 11 12  2  0
 11 10  1  0
 13 11  1  0
 14 13  1  0
 15 14  1  6
 16  8  1  0
 16 15  1  0
 17 19  1  0
 17 15  1  0
 18 17  2  0
 20 19  1  0
 21 23  1  0
 21 20  1  0
 22 21  2  0
M  END
$$$$
