KQG.pdb
     RDKit          3D

 23 22  0  0  1  0  0  0  0  0999 V2000
   15.5408  -11.2829  -10.5852 N   0  0  0  0  0  0  0  0  0  0  0  0
   15.1002   -9.9167  -10.4213 C   0  0  1  0  0  0  0  0  0  0  0  0
   13.9753   -9.9243   -9.4132 C   0  0  0  0  0  0  0  0  0  0  0  0
   12.7246  -10.3615  -10.1446 C   0  0  0  0  0  0  0  0  0  0  0  0
   11.5063  -10.3156   -9.2762 C   0  0  0  0  0  0  0  0  0  0  0  0
   10.2473  -10.7373  -10.0062 C   0  0  0  0  0  0  0  0  0  0  0  0
    9.1571  -10.6184   -9.0313 N   0  0  0  0  0  0  0  0  0  0  0  0
   16.2446   -9.0895   -9.9920 C   0  0  0  0  0  0  0  0  0  0  0  0
   17.1906   -9.6547   -9.3968 O   0  0  0  0  0  0  0  0  0  0  0  0
   21.1362   -7.9359  -12.1616 N   0  0  0  0  0  0  0  0  0  0  0  0
   20.1919   -6.9988  -12.6955 C   0  0  0  0  0  0  0  0  0  0  0  0
   20.5082   -6.5142  -13.8126 O   0  0  0  0  0  0  0  0  0  0  0  0
   18.9521   -6.6460  -11.9840 C   0  0  0  0  0  0  0  0  0  0  0  0
   18.6533   -7.3272  -10.7191 C   0  0  0  0  0  0  0  0  0  0  0  0
   17.5514   -6.9255   -9.8356 C   0  0  2  0  0  0  0  0  0  0  0  0
   16.3225   -7.6957  -10.2201 N   0  0  0  0  0  0  0  0  0  0  0  0
   17.1950   -5.5265   -9.6987 C   0  0  0  0  0  0  0  0  0  0  0  0
   18.0530   -4.7151   -9.1452 O   0  0  0  0  0  0  0  0  0  0  0  0
   16.0149   -4.8783  -10.1034 N   0  0  0  0  0  0  0  0  0  0  0  0
   15.7879   -3.4792   -9.8756 C   0  0  0  0  0  0  0  0  0  0  0  0
   16.3350   -2.5475  -10.8386 C   0  0  0  0  0  0  0  0  0  0  0  0
   16.9746   -2.8989  -11.8387 O   0  0  0  0  0  0  0  0  0  0  0  0
   16.1285   -1.1859  -10.6246 O   0  0  0  0  0  0  0  0  0  0  0  0
  2  1  1  1
  2  8  1  0
  3  2  1  0
  4  3  1  0
  5  4  1  0
  6  7  1  0
  6  5  1  0
  8  9  2  0
 11 12  2  0
 11 10  1  0
 13 11  1  0
 14 13  1  0
 15 14  1  6
 16  8  1  0
 16 15  1  0
 17 19  1  0
 17 15  1  0
 18 17  2  0
 20 19  1  0
 21 23  1  0
 21 20  1  0
 22 21  2  0
M  END
$$$$
