KQG.pdb
     RDKit          3D

 23 22  0  0  1  0  0  0  0  0999 V2000
   15.1545  -10.7547  -11.9731 N   0  0  0  0  0  0  0  0  0  0  0  0
   14.4870   -9.5514  -12.4140 C   0  0  1  0  0  0  0  0  0  0  0  0
   13.0531   -9.6350  -11.9465 C   0  0  0  0  0  0  0  0  0  0  0  0
   12.7141  -11.1035  -11.8092 C   0  0  0  0  0  0  0  0  0  0  0  0
   11.3122  -11.3270  -11.3349 C   0  0  0  0  0  0  0  0  0  0  0  0
   10.9720  -12.7949  -11.1754 C   0  0  0  0  0  0  0  0  0  0  0  0
    9.5790  -12.8383  -10.7164 N   0  0  0  0  0  0  0  0  0  0  0  0
   15.1971   -8.3786  -11.8678 C   0  0  0  0  0  0  0  0  0  0  0  0
   14.7824   -7.2392  -12.1812 O   0  0  0  0  0  0  0  0  0  0  0  0
   14.2204   -8.5210   -8.5275 N   0  0  0  0  0  0  0  0  0  0  0  0
   14.4710   -7.1777   -8.0943 C   0  0  0  0  0  0  0  0  0  0  0  0
   13.4934   -6.6157   -7.5364 O   0  0  0  0  0  0  0  0  0  0  0  0
   15.7755   -6.5234   -8.2885 C   0  0  0  0  0  0  0  0  0  0  0  0
   16.8297   -7.2606   -8.9948 C   0  0  0  0  0  0  0  0  0  0  0  0
   16.9712   -7.2494  -10.4562 C   0  0  2  0  0  0  0  0  0  0  0  0
   16.3183   -8.4809  -11.0114 N   0  0  0  0  0  0  0  0  0  0  0  0
   18.2799   -7.1070  -11.0644 C   0  0  0  0  0  0  0  0  0  0  0  0
   19.0337   -6.1082  -10.6969 O   0  0  0  0  0  0  0  0  0  0  0  0
   18.8946   -7.9286  -12.0255 N   0  0  0  0  0  0  0  0  0  0  0  0
   20.2056   -7.6586  -12.5443 C   0  0  0  0  0  0  0  0  0  0  0  0
   20.2939   -7.0309  -13.8454 C   0  0  0  0  0  0  0  0  0  0  0  0
   19.3119   -6.5884  -14.4560 O   0  0  0  0  0  0  0  0  0  0  0  0
   21.5508   -6.9212  -14.4372 O   0  0  0  0  0  0  0  0  0  0  0  0
  2  1  1  1
  2  8  1  0
  3  2  1  0
  4  3  1  0
  5  4  1  0
  6  7  1  0
  6  5  1  0
  8  9  2  0
 11 12  2  0
 11 10  1  0
 13 11  1  0
 14 13  1  0
 15 14  1  1
 16  8  1  0
 16 15  1  0
 17 19  1  0
 17 15  1  0
 18 17  2  0
 20 19  1  0
 21 23  1  0
 21 20  1  0
 22 21  2  0
M  END
$$$$
