KQG.pdb
     RDKit          3D

 23 22  0  0  1  0  0  0  0  0999 V2000
   21.6263  -13.9776  -16.6215 N   0  0  0  0  0  0  0  0  0  0  0  0
   21.1628  -12.6604  -16.9928 C   0  0  1  0  0  0  0  0  0  0  0  0
   19.6706  -12.6262  -16.7609 C   0  0  0  0  0  0  0  0  0  0  0  0
   19.0619  -13.7177  -17.6142 C   0  0  0  0  0  0  0  0  0  0  0  0
   17.5668  -13.7333  -17.5458 C   0  0  0  0  0  0  0  0  0  0  0  0
   16.9531  -14.8672  -18.3417 C   0  0  0  0  0  0  0  0  0  0  0  0
   15.5043  -14.7695  -18.1311 N   0  0  0  0  0  0  0  0  0  0  0  0
   21.8869  -11.6520  -16.1947 C   0  0  0  0  0  0  0  0  0  0  0  0
   22.0515  -11.8737  -14.9731 O   0  0  0  0  0  0  0  0  0  0  0  0
   27.4707  -10.0871  -17.0290 N   0  0  0  0  0  0  0  0  0  0  0  0
   26.9143  -10.8613  -15.9586 C   0  0  0  0  0  0  0  0  0  0  0  0
   27.7238  -11.6500  -15.4060 O   0  0  0  0  0  0  0  0  0  0  0  0
   25.5071  -10.7287  -15.5463 C   0  0  0  0  0  0  0  0  0  0  0  0
   24.6592   -9.7618  -16.2531 C   0  0  0  0  0  0  0  0  0  0  0  0
   23.2492   -9.5356  -15.9117 C   0  0  2  0  0  0  0  0  0  0  0  0
   22.4009  -10.4532  -16.7421 N   0  0  0  0  0  0  0  0  0  0  0  0
   22.6848   -8.2013  -15.9761 C   0  0  0  0  0  0  0  0  0  0  0  0
   22.2917   -7.7450  -17.1329 O   0  0  0  0  0  0  0  0  0  0  0  0
   22.4744   -7.2865  -14.9295 N   0  0  0  0  0  0  0  0  0  0  0  0
   21.9825   -5.9570  -15.1560 C   0  0  0  0  0  0  0  0  0  0  0  0
   21.7762   -5.1138  -13.9979 C   0  0  0  0  0  0  0  0  0  0  0  0
   21.9255   -5.5076  -12.8336 O   0  0  0  0  0  0  0  0  0  0  0  0
   21.3898   -3.7917  -14.2093 O   0  0  0  0  0  0  0  0  0  0  0  0
  2  1  1  1
  2  8  1  0
  3  2  1  0
  4  3  1  0
  5  4  1  0
  6  7  1  0
  6  5  1  0
  8  9  2  0
 11 12  2  0
 11 10  1  0
 13 11  1  0
 14 13  1  0
 15 14  1  6
 16  8  1  0
 16 15  1  0
 17 19  1  0
 17 15  1  0
 18 17  2  0
 20 19  1  0
 21 23  1  0
 21 20  1  0
 22 21  2  0
M  END
$$$$
