KQG.pdb
     RDKit          3D

 23 22  0  0  1  0  0  0  0  0999 V2000
   24.9407  -22.1167  -15.3652 N   0  0  0  0  0  0  0  0  0  0  0  0
   25.1864  -21.2206  -14.2587 C   0  0  1  0  0  0  0  0  0  0  0  0
   26.0476  -20.0924  -14.7757 C   0  0  0  0  0  0  0  0  0  0  0  0
   26.6901  -20.5742  -16.0585 C   0  0  0  0  0  0  0  0  0  0  0  0
   27.7707  -21.5811  -15.8162 C   0  0  0  0  0  0  0  0  0  0  0  0
   28.5356  -21.9376  -17.0747 C   0  0  0  0  0  0  0  0  0  0  0  0
   29.5344  -22.9338  -16.6707 N   0  0  0  0  0  0  0  0  0  0  0  0
   23.8939  -20.7513  -13.7226 C   0  0  0  0  0  0  0  0  0  0  0  0
   23.9105  -19.9032  -12.8012 O   0  0  0  0  0  0  0  0  0  0  0  0
   18.4639  -19.7417  -16.4800 N   0  0  0  0  0  0  0  0  0  0  0  0
   18.3061  -19.1807  -15.1703 C   0  0  0  0  0  0  0  0  0  0  0  0
   17.1887  -18.6418  -14.9618 O   0  0  0  0  0  0  0  0  0  0  0  0
   19.3738  -19.2433  -14.1584 C   0  0  0  0  0  0  0  0  0  0  0  0
   20.6248  -19.9287  -14.5029 C   0  0  0  0  0  0  0  0  0  0  0  0
   21.3670  -20.7642  -13.5506 C   0  0  2  0  0  0  0  0  0  0  0  0
   22.6441  -21.2121  -14.1984 N   0  0  0  0  0  0  0  0  0  0  0  0
   20.7330  -21.9148  -12.9364 C   0  0  0  0  0  0  0  0  0  0  0  0
   20.8137  -23.0681  -13.5399 O   0  0  0  0  0  0  0  0  0  0  0  0
   20.0225  -21.9822  -11.7251 N   0  0  0  0  0  0  0  0  0  0  0  0
   19.4384  -23.2013  -11.2418 C   0  0  0  0  0  0  0  0  0  0  0  0
   18.2470  -23.6821  -11.9081 C   0  0  0  0  0  0  0  0  0  0  0  0
   17.7331  -23.1122  -12.8797 O   0  0  0  0  0  0  0  0  0  0  0  0
   17.6512  -24.8468  -11.4277 O   0  0  0  0  0  0  0  0  0  0  0  0
  2  1  1  6
  2  8  1  0
  3  2  1  0
  4  3  1  0
  5  4  1  0
  6  7  1  0
  6  5  1  0
  8  9  2  0
 11 12  2  0
 11 10  1  0
 13 11  1  0
 14 13  1  0
 15 14  1  6
 16  8  1  0
 16 15  1  0
 17 19  1  0
 17 15  1  0
 18 17  2  0
 20 19  1  0
 21 23  1  0
 21 20  1  0
 22 21  2  0
M  END
$$$$
