KQG.pdb
     RDKit          3D

 23 22  0  0  1  0  0  0  0  0999 V2000
   24.9448  -21.7817  -13.9869 N   0  0  0  0  0  0  0  0  0  0  0  0
   25.1025  -20.3465  -13.9323 C   0  0  1  0  0  0  0  0  0  0  0  0
   26.5836  -20.0588  -13.8596 C   0  0  0  0  0  0  0  0  0  0  0  0
   27.1129  -20.7564  -12.6253 C   0  0  0  0  0  0  0  0  0  0  0  0
   28.5802  -20.5372  -12.4270 C   0  0  0  0  0  0  0  0  0  0  0  0
   29.1316  -21.2908  -11.2337 C   0  0  0  0  0  0  0  0  0  0  0  0
   30.5815  -21.0656  -11.2497 N   0  0  0  0  0  0  0  0  0  0  0  0
   24.4628  -19.7460  -15.1191 C   0  0  0  0  0  0  0  0  0  0  0  0
   24.7031  -20.2530  -16.2388 O   0  0  0  0  0  0  0  0  0  0  0  0
   19.0864  -20.0433  -17.0343 N   0  0  0  0  0  0  0  0  0  0  0  0
   19.6860  -20.1276  -15.7350 C   0  0  0  0  0  0  0  0  0  0  0  0
   19.0298  -20.7985  -14.8971 O   0  0  0  0  0  0  0  0  0  0  0  0
   20.9710  -19.4801  -15.4227 C   0  0  0  0  0  0  0  0  0  0  0  0
   21.6635  -18.7489  -16.4900 C   0  0  0  0  0  0  0  0  0  0  0  0
   22.9568  -18.0821  -16.2931 C   0  0  2  0  0  0  0  0  0  0  0  0
   23.5957  -18.6305  -15.0512 N   0  0  0  0  0  0  0  0  0  0  0  0
   23.0359  -16.6347  -16.2520 C   0  0  0  0  0  0  0  0  0  0  0  0
   23.1943  -16.0507  -15.0967 O   0  0  0  0  0  0  0  0  0  0  0  0
   22.9789  -15.7225  -17.3203 N   0  0  0  0  0  0  0  0  0  0  0  0
   22.9788  -14.3010  -17.1199 C   0  0  0  0  0  0  0  0  0  0  0  0
   24.1839  -13.5770  -17.4639 C   0  0  0  0  0  0  0  0  0  0  0  0
   25.2135  -14.1260  -17.8777 O   0  0  0  0  0  0  0  0  0  0  0  0
   24.1801  -12.1908  -17.3203 O   0  0  0  0  0  0  0  0  0  0  0  0
  2  1  1  6
  2  8  1  0
  3  2  1  0
  4  3  1  0
  5  4  1  0
  6  7  1  0
  6  5  1  0
  8  9  2  0
 11 12  2  0
 11 10  1  0
 13 11  1  0
 14 13  1  0
 15 14  1  1
 16  8  1  0
 16 15  1  0
 17 19  1  0
 17 15  1  0
 18 17  2  0
 20 19  1  0
 21 23  1  0
 21 20  1  0
 22 21  2  0
M  END
$$$$
