KQG.pdb
     RDKit          3D

 23 22  0  0  1  0  0  0  0  0999 V2000
   24.7935  -20.4062  -16.7067 N   0  0  0  0  0  0  0  0  0  0  0  0
   23.8824  -19.3560  -16.3135 C   0  0  1  0  0  0  0  0  0  0  0  0
   23.4119  -18.6723  -17.5756 C   0  0  0  0  0  0  0  0  0  0  0  0
   24.6441  -18.1680  -18.2951 C   0  0  0  0  0  0  0  0  0  0  0  0
   25.0565  -19.0619  -19.4225 C   0  0  0  0  0  0  0  0  0  0  0  0
   26.2187  -18.5055  -20.2197 C   0  0  0  0  0  0  0  0  0  0  0  0
   26.5572  -19.5338  -21.2101 N   0  0  0  0  0  0  0  0  0  0  0  0
   22.7739  -19.9452  -15.5374 C   0  0  0  0  0  0  0  0  0  0  0  0
   22.5236  -21.1619  -15.6968 O   0  0  0  0  0  0  0  0  0  0  0  0
   22.4181  -19.9065   -9.6570 N   0  0  0  0  0  0  0  0  0  0  0  0
   21.1282  -20.4589   -9.9499 C   0  0  0  0  0  0  0  0  0  0  0  0
   20.5345  -20.9583   -8.9595 O   0  0  0  0  0  0  0  0  0  0  0  0
   20.5546  -20.4312  -11.3056 C   0  0  0  0  0  0  0  0  0  0  0  0
   21.3487  -19.8409  -12.3893 C   0  0  0  0  0  0  0  0  0  0  0  0
   20.9346  -19.8814  -13.7974 C   0  0  2  0  0  0  0  0  0  0  0  0
   21.9853  -19.2038  -14.6267 N   0  0  0  0  0  0  0  0  0  0  0  0
   19.6354  -19.3734  -14.1937 C   0  0  0  0  0  0  0  0  0  0  0  0
   19.5090  -18.0965  -14.4268 O   0  0  0  0  0  0  0  0  0  0  0  0
   18.4377  -20.0837  -14.3874 N   0  0  0  0  0  0  0  0  0  0  0  0
   17.1941  -19.4303  -14.6830 C   0  0  0  0  0  0  0  0  0  0  0  0
   16.9050  -19.1389  -16.0709 C   0  0  0  0  0  0  0  0  0  0  0  0
   17.6647  -19.4372  -17.0019 O   0  0  0  0  0  0  0  0  0  0  0  0
   15.7089  -18.4891  -16.3696 O   0  0  0  0  0  0  0  0  0  0  0  0
  2  1  1  6
  2  8  1  0
  3  2  1  0
  4  3  1  0
  5  4  1  0
  6  7  1  0
  6  5  1  0
  8  9  2  0
 11 12  2  0
 11 10  1  0
 13 11  1  0
 14 13  1  0
 15 14  1  1
 16  8  1  0
 16 15  1  0
 17 19  1  0
 17 15  1  0
 18 17  2  0
 20 19  1  0
 21 23  1  0
 21 20  1  0
 22 21  2  0
M  END
$$$$
