CKL.pdb
     RDKit          3D

 24 23  0  0  1  0  0  0  0  0999 V2000
   26.3612  -20.4749   -9.2816 N   0  0  0  0  0  0  0  0  0  0  0  0
   25.2682  -20.8589  -10.1473 C   0  0  1  0  0  0  0  0  0  0  0  0
   23.9448  -20.3129   -9.6291 C   0  0  0  0  0  0  0  0  0  0  0  0
   23.4687  -21.1608   -8.1016 S   0  0  0  0  0  0  0  0  0  0  0  0
   25.5555  -20.3606  -11.5117 C   0  0  0  0  0  0  0  0  0  0  0  0
   25.9545  -19.1782  -11.6575 O   0  0  0  0  0  0  0  0  0  0  0  0
   25.3640  -21.2509  -12.5964 N   0  0  0  0  0  0  0  0  0  0  0  0
   25.6640  -20.8072  -13.9309 C   0  0  1  0  0  0  0  0  0  0  0  0
   26.6566  -21.7074  -14.6291 C   0  0  0  0  0  0  0  0  0  0  0  0
   27.0163  -21.2353  -16.0067 C   0  0  0  0  0  0  0  0  0  0  0  0
   28.0322  -22.2264  -16.5604 C   0  0  0  0  0  0  0  0  0  0  0  0
   28.4904  -21.7742  -17.9297 C   0  0  0  0  0  0  0  0  0  0  0  0
   29.6071  -22.5994  -18.3469 N   0  0  0  0  0  0  0  0  0  0  0  0
   24.4201  -20.8520  -14.7376 C   0  0  0  0  0  0  0  0  0  0  0  0
   23.6199  -21.7998  -14.5388 O   0  0  0  0  0  0  0  0  0  0  0  0
   20.2805  -19.3075  -14.9871 C   0  0  0  0  0  0  0  0  0  0  0  0
   21.3687  -18.2686  -15.2988 C   0  0  2  0  0  0  0  0  0  0  0  0
   20.6067  -16.9701  -15.5763 C   0  0  0  0  0  0  0  0  0  0  0  0
   22.0963  -18.6790  -16.5316 C   0  0  0  0  0  0  0  0  0  0  0  0
   22.9064  -19.9189  -16.4465 C   0  0  2  0  0  0  0  0  0  0  0  0
   24.1147  -19.8683  -15.7131 N   0  0  0  0  0  0  0  0  0  0  0  0
   23.2260  -20.3100  -17.8740 C   0  0  0  0  0  0  0  0  0  0  0  0
   24.3061  -20.0053  -18.4045 O   0  0  0  0  0  0  0  0  0  0  0  0
   22.2750  -21.0248  -18.5857 O   0  0  0  0  0  0  0  0  0  0  0  0
  2  1  1  1
  3  2  1  0
  4  3  1  0
  5  6  2  0
  5  2  1  0
  7  5  1  0
  8  7  1  0
  9 10  1  0
  8  9  1  6
 10 11  1  0
 11 12  1  0
 12 13  1  0
 14 15  2  0
 14  8  1  0
 17 18  1  6
 17 16  1  0
 19 17  1  0
 20 19  1  6
 20 21  1  0
 21 14  1  0
 22 20  1  0
 23 22  2  0
 24 22  1  0
M  END
$$$$
