CKL.pdb
     RDKit          3D

 24 23  0  0  1  0  0  0  0  0999 V2000
   27.5280  -20.9143  -12.4783 N   0  0  0  0  0  0  0  0  0  0  0  0
   26.2942  -21.4415  -11.9386 C   0  0  1  0  0  0  0  0  0  0  0  0
   25.7486  -20.5374  -10.8419 C   0  0  0  0  0  0  0  0  0  0  0  0
   26.7855  -20.6471   -9.3614 S   0  0  0  0  0  0  0  0  0  0  0  0
   25.3228  -21.5849  -13.0470 C   0  0  0  0  0  0  0  0  0  0  0  0
   25.2635  -20.6885  -13.9253 O   0  0  0  0  0  0  0  0  0  0  0  0
   24.4999  -22.7374  -13.0621 N   0  0  0  0  0  0  0  0  0  0  0  0
   23.6668  -22.9909  -14.2065 C   0  0  1  0  0  0  0  0  0  0  0  0
   23.3075  -24.4518  -14.3466 C   0  0  0  0  0  0  0  0  0  0  0  0
   22.4555  -24.7389  -15.5473 C   0  0  0  0  0  0  0  0  0  0  0  0
   22.2789  -26.2508  -15.6104 C   0  0  0  0  0  0  0  0  0  0  0  0
   21.3595  -26.6085  -16.7577 C   0  0  0  0  0  0  0  0  0  0  0  0
   21.3033  -28.0519  -16.8813 N   0  0  0  0  0  0  0  0  0  0  0  0
   22.3873  -22.2607  -14.0341 C   0  0  0  0  0  0  0  0  0  0  0  0
   21.9462  -22.1071  -12.8679 O   0  0  0  0  0  0  0  0  0  0  0  0
   21.0682  -17.8567  -14.6276 C   0  0  0  0  0  0  0  0  0  0  0  0
   21.2714  -18.6633  -15.9194 C   0  0  2  0  0  0  0  0  0  0  0  0
   20.9080  -17.6967  -17.0495 C   0  0  0  0  0  0  0  0  0  0  0  0
   20.3201  -19.8090  -15.9339 C   0  0  0  0  0  0  0  0  0  0  0  0
   20.5522  -20.8815  -14.9356 C   0  0  2  0  0  0  0  0  0  0  0  0
   21.6593  -21.7391  -15.1343 N   0  0  0  0  0  0  0  0  0  0  0  0
   19.2912  -21.7197  -14.9195 C   0  0  0  0  0  0  0  0  0  0  0  0
   19.1580  -22.7070  -15.6600 O   0  0  0  0  0  0  0  0  0  0  0  0
   18.2749  -21.3568  -14.0491 O   0  0  0  0  0  0  0  0  0  0  0  0
  2  1  1  6
  3  2  1  0
  4  3  1  0
  5  6  2  0
  5  2  1  0
  7  5  1  0
  8  7  1  0
  9 10  1  0
  8  9  1  1
 10 11  1  0
 11 12  1  0
 12 13  1  0
 14 15  2  0
 14  8  1  0
 17 18  1  6
 17 16  1  0
 19 17  1  0
 20 19  1  6
 20 21  1  0
 21 14  1  0
 22 20  1  0
 23 22  2  0
 24 22  1  0
M  END
$$$$
