CKL.pdb
     RDKit          3D

 24 23  0  0  1  0  0  0  0  0999 V2000
   27.4378  -20.3249  -16.7904 N   0  0  0  0  0  0  0  0  0  0  0  0
   27.8739  -20.5764  -15.4346 C   0  0  1  0  0  0  0  0  0  0  0  0
   29.2255  -19.9284  -15.1676 C   0  0  0  0  0  0  0  0  0  0  0  0
   29.0780  -18.1241  -15.2101 S   0  0  0  0  0  0  0  0  0  0  0  0
   26.8405  -20.0607  -14.5080 C   0  0  0  0  0  0  0  0  0  0  0  0
   26.2972  -18.9551  -14.7551 O   0  0  0  0  0  0  0  0  0  0  0  0
   26.5122  -20.8475  -13.3771 N   0  0  0  0  0  0  0  0  0  0  0  0
   25.3095  -20.5572  -12.6443 C   0  0  1  0  0  0  0  0  0  0  0  0
   24.0828  -21.1641  -13.2845 C   0  0  0  0  0  0  0  0  0  0  0  0
   22.8200  -20.8866  -12.5240 C   0  0  0  0  0  0  0  0  0  0  0  0
   21.6885  -21.5621  -13.2883 C   0  0  0  0  0  0  0  0  0  0  0  0
   20.3628  -21.2161  -12.6461 C   0  0  0  0  0  0  0  0  0  0  0  0
   19.2998  -21.8732  -13.3811 N   0  0  0  0  0  0  0  0  0  0  0  0
   25.4182  -21.1612  -11.2939 C   0  0  0  0  0  0  0  0  0  0  0  0
   25.4796  -22.4131  -11.2090 O   0  0  0  0  0  0  0  0  0  0  0  0
   28.4912  -20.9469   -7.9587 C   0  0  0  0  0  0  0  0  0  0  0  0
   27.4998  -19.7745   -8.0150 C   0  0  2  0  0  0  0  0  0  0  0  0
   27.9338  -18.8362   -6.8859 C   0  0  0  0  0  0  0  0  0  0  0  0
   26.1290  -20.2805   -7.7276 C   0  0  0  0  0  0  0  0  0  0  0  0
   25.4297  -20.9780   -8.8345 C   0  0  2  0  0  0  0  0  0  0  0  0
   25.4538  -20.3749  -10.1136 N   0  0  0  0  0  0  0  0  0  0  0  0
   23.9871  -21.1193   -8.3964 C   0  0  0  0  0  0  0  0  0  0  0  0
   23.0588  -20.6092   -9.0436 O   0  0  0  0  0  0  0  0  0  0  0  0
   23.7209  -21.8396   -7.2421 O   0  0  0  0  0  0  0  0  0  0  0  0
  2  1  1  6
  3  2  1  0
  4  3  1  0
  5  6  2  0
  5  2  1  0
  7  5  1  0
  8  7  1  0
  9 10  1  0
  8  9  1  6
 10 11  1  0
 11 12  1  0
 12 13  1  0
 14 15  2  0
 14  8  1  0
 17 18  1  1
 17 16  1  0
 19 17  1  0
 20 19  1  1
 20 21  1  0
 21 14  1  0
 22 20  1  0
 23 22  2  0
 24 22  1  0
M  END
$$$$
