CKL.pdb
     RDKit          3D

 24 23  0  0  1  0  0  0  0  0999 V2000
   28.7571  -18.1707  -16.4251 N   0  0  0  0  0  0  0  0  0  0  0  0
   27.6566  -17.4881  -15.7814 C   0  0  1  0  0  0  0  0  0  0  0  0
   27.0382  -16.4532  -16.7113 C   0  0  0  0  0  0  0  0  0  0  0  0
   28.3255  -15.6337  -17.6861 S   0  0  0  0  0  0  0  0  0  0  0  0
   26.6579  -18.4996  -15.3663 C   0  0  0  0  0  0  0  0  0  0  0  0
   25.4368  -18.2538  -15.5306 O   0  0  0  0  0  0  0  0  0  0  0  0
   27.1337  -19.7067  -14.7986 N   0  0  0  0  0  0  0  0  0  0  0  0
   26.1995  -20.7573  -14.4966 C   0  0  1  0  0  0  0  0  0  0  0  0
   26.6963  -22.1152  -14.9351 C   0  0  0  0  0  0  0  0  0  0  0  0
   26.7002  -22.2909  -16.4248 C   0  0  0  0  0  0  0  0  0  0  0  0
   27.1877  -23.7079  -16.6996 C   0  0  0  0  0  0  0  0  0  0  0  0
   26.1181  -24.7007  -16.2997 C   0  0  0  0  0  0  0  0  0  0  0  0
   26.5441  -26.0310  -16.6881 N   0  0  0  0  0  0  0  0  0  0  0  0
   26.0263  -20.8309  -13.0254 C   0  0  0  0  0  0  0  0  0  0  0  0
   27.0576  -20.8901  -12.3105 O   0  0  0  0  0  0  0  0  0  0  0  0
   26.3319  -21.5015   -8.6117 C   0  0  0  0  0  0  0  0  0  0  0  0
   26.5526  -20.2889   -9.5290 C   0  0  2  0  0  0  0  0  0  0  0  0
   26.9919  -19.1604   -8.5925 C   0  0  0  0  0  0  0  0  0  0  0  0
   25.2589  -19.9171  -10.1660 C   0  0  0  0  0  0  0  0  0  0  0  0
   24.6097  -20.9500  -11.0101 C   0  0  2  0  0  0  0  0  0  0  0  0
   24.7465  -20.8366  -12.4132 N   0  0  0  0  0  0  0  0  0  0  0  0
   23.1358  -20.9079  -10.6654 C   0  0  0  0  0  0  0  0  0  0  0  0
   22.2869  -20.5297  -11.4884 O   0  0  0  0  0  0  0  0  0  0  0  0
   22.7488  -21.3057   -9.3950 O   0  0  0  0  0  0  0  0  0  0  0  0
  2  1  1  6
  3  2  1  0
  4  3  1  0
  5  6  2  0
  5  2  1  0
  7  5  1  0
  8  7  1  0
  9 10  1  0
  8  9  1  1
 10 11  1  0
 11 12  1  0
 12 13  1  0
 14 15  2  0
 14  8  1  0
 17 18  1  1
 17 16  1  0
 19 17  1  0
 20 19  1  1
 20 21  1  0
 21 14  1  0
 22 20  1  0
 23 22  2  0
 24 22  1  0
M  END
$$$$
