CKL.pdb
     RDKit          3D

 24 23  0  0  1  0  0  0  0  0999 V2000
   24.4200  -14.1732  -18.0924 N   0  0  0  0  0  0  0  0  0  0  0  0
   23.7166  -13.7665  -16.8959 C   0  0  1  0  0  0  0  0  0  0  0  0
   24.6731  -13.6384  -15.7184 C   0  0  0  0  0  0  0  0  0  0  0  0
   25.1901  -15.2766  -15.1459 S   0  0  0  0  0  0  0  0  0  0  0  0
   23.0305  -12.4834  -17.1705 C   0  0  0  0  0  0  0  0  0  0  0  0
   23.6489  -11.5816  -17.7893 O   0  0  0  0  0  0  0  0  0  0  0  0
   21.6970  -12.3346  -16.7172 N   0  0  0  0  0  0  0  0  0  0  0  0
   20.9585  -11.1558  -17.0814 C   0  0  1  0  0  0  0  0  0  0  0  0
   19.4739  -11.3090  -16.8459 C   0  0  0  0  0  0  0  0  0  0  0  0
   18.6961  -10.0611  -17.1424 C   0  0  0  0  0  0  0  0  0  0  0  0
   17.9735  -10.2962  -18.4628 C   0  0  0  0  0  0  0  0  0  0  0  0
   17.2131   -9.0486  -18.8561 C   0  0  0  0  0  0  0  0  0  0  0  0
   16.5772   -9.2718  -20.1397 N   0  0  0  0  0  0  0  0  0  0  0  0
   21.4039  -10.0315  -16.2225 C   0  0  0  0  0  0  0  0  0  0  0  0
   21.5721  -10.2535  -14.9975 O   0  0  0  0  0  0  0  0  0  0  0  0
   25.1722   -7.9633  -16.0937 C   0  0  0  0  0  0  0  0  0  0  0  0
   24.2579   -7.3068  -17.1395 C   0  0  2  0  0  0  0  0  0  0  0  0
   25.0948   -6.1744  -17.7402 C   0  0  0  0  0  0  0  0  0  0  0  0
   23.0715   -6.7243  -16.4534 C   0  0  0  0  0  0  0  0  0  0  0  0
   22.0834   -7.6827  -15.9003 C   0  0  2  0  0  0  0  0  0  0  0  0
   21.6412   -8.7319  -16.7394 N   0  0  0  0  0  0  0  0  0  0  0  0
   20.8826   -6.8569  -15.4892 C   0  0  0  0  0  0  0  0  0  0  0  0
   19.7756   -7.0062  -16.0306 O   0  0  0  0  0  0  0  0  0  0  0  0
   21.0472   -5.9182  -14.4824 O   0  0  0  0  0  0  0  0  0  0  0  0
  2  1  1  6
  3  2  1  0
  4  3  1  0
  5  6  2  0
  5  2  1  0
  7  5  1  0
  8  7  1  0
  9 10  1  0
  8  9  1  1
 10 11  1  0
 11 12  1  0
 12 13  1  0
 14 15  2  0
 14  8  1  0
 17 18  1  1
 17 16  1  0
 19 17  1  0
 20 19  1  6
 20 21  1  0
 21 14  1  0
 22 20  1  0
 23 22  2  0
 24 22  1  0
M  END
$$$$
