CKL.pdb
     RDKit          3D

 24 23  0  0  1  0  0  0  0  0999 V2000
   27.8130  -20.2416  -16.7834 N   0  0  0  0  0  0  0  0  0  0  0  0
   27.8550  -20.9574  -15.5274 C   0  0  1  0  0  0  0  0  0  0  0  0
   29.2531  -20.9212  -14.9258 C   0  0  0  0  0  0  0  0  0  0  0  0
   29.2738  -21.7748  -13.3290 S   0  0  0  0  0  0  0  0  0  0  0  0
   26.8620  -20.3517  -14.6110 C   0  0  0  0  0  0  0  0  0  0  0  0
   26.8146  -19.1008  -14.5040 O   0  0  0  0  0  0  0  0  0  0  0  0
   26.0059  -21.2218  -13.8926 N   0  0  0  0  0  0  0  0  0  0  0  0
   25.0274  -20.6645  -12.9984 C   0  0  1  0  0  0  0  0  0  0  0  0
   23.6139  -21.0241  -13.3928 C   0  0  0  0  0  0  0  0  0  0  0  0
   22.5755  -20.3910  -12.5147 C   0  0  0  0  0  0  0  0  0  0  0  0
   21.2218  -20.8900  -13.0039 C   0  0  0  0  0  0  0  0  0  0  0  0
   20.1211  -20.2859  -12.1595 C   0  0  0  0  0  0  0  0  0  0  0  0
   18.8487  -20.8365  -12.5835 N   0  0  0  0  0  0  0  0  0  0  0  0
   25.2412  -21.2335  -11.6454 C   0  0  0  0  0  0  0  0  0  0  0  0
   25.4554  -22.4677  -11.5498 O   0  0  0  0  0  0  0  0  0  0  0  0
   28.4352  -20.9649   -8.3709 C   0  0  0  0  0  0  0  0  0  0  0  0
   27.4867  -19.7629   -8.4978 C   0  0  2  0  0  0  0  0  0  0  0  0
   27.9640  -18.7697   -7.4350 C   0  0  0  0  0  0  0  0  0  0  0  0
   26.1008  -20.1982   -8.1699 C   0  0  0  0  0  0  0  0  0  0  0  0
   25.3955  -21.0066   -9.1945 C   0  0  2  0  0  0  0  0  0  0  0  0
   25.2106  -20.4335  -10.4743 N   0  0  0  0  0  0  0  0  0  0  0  0
   24.0361  -21.3299   -8.6111 C   0  0  0  0  0  0  0  0  0  0  0  0
   22.9921  -20.8781   -9.1078 O   0  0  0  0  0  0  0  0  0  0  0  0
   23.9808  -22.1518   -7.4960 O   0  0  0  0  0  0  0  0  0  0  0  0
  2  1  1  6
  3  2  1  0
  4  3  1  0
  5  6  2  0
  5  2  1  0
  7  5  1  0
  8  7  1  0
  9 10  1  0
  8  9  1  6
 10 11  1  0
 11 12  1  0
 12 13  1  0
 14 15  2  0
 14  8  1  0
 17 18  1  1
 17 16  1  0
 19 17  1  0
 20 19  1  1
 20 21  1  0
 21 14  1  0
 22 20  1  0
 23 22  2  0
 24 22  1  0
M  END
$$$$
