CKL.pdb
     RDKit          3D

 24 23  0  0  1  0  0  0  0  0999 V2000
   27.7198  -16.6321  -16.7739 N   0  0  0  0  0  0  0  0  0  0  0  0
   27.0178  -16.6212  -15.5096 C   0  0  1  0  0  0  0  0  0  0  0  0
   26.1904  -15.3523  -15.3564 C   0  0  0  0  0  0  0  0  0  0  0  0
   25.0698  -15.1575  -16.7654 S   0  0  0  0  0  0  0  0  0  0  0  0
   26.1640  -17.8289  -15.4386 C   0  0  0  0  0  0  0  0  0  0  0  0
   25.8499  -18.4168  -16.5036 O   0  0  0  0  0  0  0  0  0  0  0  0
   25.7392  -18.2661  -14.1603 N   0  0  0  0  0  0  0  0  0  0  0  0
   24.9389  -19.4561  -14.0548 C   0  0  1  0  0  0  0  0  0  0  0  0
   24.9691  -20.0509  -12.6662 C   0  0  0  0  0  0  0  0  0  0  0  0
   24.1449  -21.2977  -12.5387 C   0  0  0  0  0  0  0  0  0  0  0  0
   24.9488  -22.4238  -13.1764 C   0  0  0  0  0  0  0  0  0  0  0  0
   24.1273  -23.6945  -13.1842 C   0  0  0  0  0  0  0  0  0  0  0  0
   24.8850  -24.7389  -13.8452 N   0  0  0  0  0  0  0  0  0  0  0  0
   23.5242  -19.1033  -14.3275 C   0  0  0  0  0  0  0  0  0  0  0  0
   23.0547  -18.0751  -13.7792 O   0  0  0  0  0  0  0  0  0  0  0  0
   21.0344  -17.7388  -17.9466 C   0  0  0  0  0  0  0  0  0  0  0  0
   21.3976  -19.2313  -17.9100 C   0  0  2  0  0  0  0  0  0  0  0  0
   20.7798  -19.8190  -19.1814 C   0  0  0  0  0  0  0  0  0  0  0  0
   20.7571  -19.8603  -16.7218 C   0  0  0  0  0  0  0  0  0  0  0  0
   21.3458  -19.5393  -15.3984 C   0  0  2  0  0  0  0  0  0  0  0  0
   22.6997  -19.8841  -15.1777 N   0  0  0  0  0  0  0  0  0  0  0  0
   20.4931  -20.2584  -14.3744 C   0  0  0  0  0  0  0  0  0  0  0  0
   20.9104  -21.2584  -13.7688 O   0  0  0  0  0  0  0  0  0  0  0  0
   19.2199  -19.7705  -14.1238 O   0  0  0  0  0  0  0  0  0  0  0  0
  2  1  1  6
  3  2  1  0
  4  3  1  0
  5  6  2  0
  5  2  1  0
  7  5  1  0
  8  7  1  0
  9 10  1  0
  8  9  1  1
 10 11  1  0
 11 12  1  0
 12 13  1  0
 14 15  2  0
 14  8  1  0
 17 18  1  6
 17 16  1  0
 19 17  1  0
 20 19  1  6
 20 21  1  0
 21 14  1  0
 22 20  1  0
 23 22  2  0
 24 22  1  0
M  END
$$$$
