CKL.pdb
     RDKit          3D

 24 23  0  0  1  0  0  0  0  0999 V2000
   26.6575  -17.7929  -16.4519 N   0  0  0  0  0  0  0  0  0  0  0  0
   27.3440  -18.6198  -15.4842 C   0  0  1  0  0  0  0  0  0  0  0  0
   28.5036  -17.8659  -14.8479 C   0  0  0  0  0  0  0  0  0  0  0  0
   29.7155  -17.3947  -16.1082 S   0  0  0  0  0  0  0  0  0  0  0  0
   26.3642  -19.0558  -14.4632 C   0  0  0  0  0  0  0  0  0  0  0  0
   25.4501  -18.2656  -14.1190 O   0  0  0  0  0  0  0  0  0  0  0  0
   26.5075  -20.3556  -13.9194 N   0  0  0  0  0  0  0  0  0  0  0  0
   25.4489  -20.9006  -13.1132 C   0  0  1  0  0  0  0  0  0  0  0  0
   24.9587  -22.2337  -13.6284 C   0  0  0  0  0  0  0  0  0  0  0  0
   23.7951  -22.7761  -12.8527 C   0  0  0  0  0  0  0  0  0  0  0  0
   22.5577  -22.0308  -13.3366 C   0  0  0  0  0  0  0  0  0  0  0  0
   21.3415  -22.5180  -12.5797 C   0  0  0  0  0  0  0  0  0  0  0  0
   20.1987  -21.7099  -12.9580 N   0  0  0  0  0  0  0  0  0  0  0  0
   25.9708  -21.1472  -11.7468 C   0  0  0  0  0  0  0  0  0  0  0  0
   26.8466  -22.0357  -11.5994 O   0  0  0  0  0  0  0  0  0  0  0  0
   28.6831  -20.8597   -8.5311 C   0  0  0  0  0  0  0  0  0  0  0  0
   27.6819  -19.7005   -8.6510 C   0  0  2  0  0  0  0  0  0  0  0  0
   28.1413  -18.6733   -7.6130 C   0  0  0  0  0  0  0  0  0  0  0  0
   26.3237  -20.1890   -8.2844 C   0  0  0  0  0  0  0  0  0  0  0  0
   25.5923  -20.9638   -9.3167 C   0  0  2  0  0  0  0  0  0  0  0  0
   25.5141  -20.4177  -10.6190 N   0  0  0  0  0  0  0  0  0  0  0  0
   24.1858  -21.1461   -8.7862 C   0  0  0  0  0  0  0  0  0  0  0  0
   23.1977  -20.7220   -9.4064 O   0  0  0  0  0  0  0  0  0  0  0  0
   24.0221  -21.8051   -7.5775 O   0  0  0  0  0  0  0  0  0  0  0  0
  2  1  1  6
  3  2  1  0
  4  3  1  0
  5  6  2  0
  5  2  1  0
  7  5  1  0
  8  7  1  0
  9 10  1  0
  8  9  1  6
 10 11  1  0
 11 12  1  0
 12 13  1  0
 14 15  2  0
 14  8  1  0
 17 18  1  1
 17 16  1  0
 19 17  1  0
 20 19  1  1
 20 21  1  0
 21 14  1  0
 22 20  1  0
 23 22  2  0
 24 22  1  0
M  END
$$$$
