WKI.pdb
     RDKit          3D

 32 33  0  0  1  0  0  0  0  0999 V2000
   16.7586  -23.4849    2.4712 N   0  0  0  0  0  0  0  0  0  0  0  0
   16.1692  -22.6765    3.5196 C   0  0  1  0  0  0  0  0  0  0  0  0
   15.9801  -23.4925    4.7790 C   0  0  0  0  0  0  0  0  0  0  0  0
   14.8557  -24.4230    4.5241 C   0  0  0  0  0  0  0  0  0  0  0  0
   14.9462  -25.7741    4.3012 C   0  0  0  0  0  0  0  0  0  0  0  0
   13.6913  -26.2162    4.1166 N   0  0  0  0  0  0  0  0  0  0  0  0
   12.7978  -25.2165    4.2096 C   0  0  0  0  0  0  0  0  0  0  0  0
   11.4214  -25.2132    4.0913 C   0  0  0  0  0  0  0  0  0  0  0  0
   10.7377  -24.0159    4.2372 C   0  0  0  0  0  0  0  0  0  0  0  0
   11.4603  -22.8682    4.4962 C   0  0  0  0  0  0  0  0  0  0  0  0
   12.8354  -22.8542    4.6172 C   0  0  0  0  0  0  0  0  0  0  0  0
   13.5151  -24.0659    4.4684 C   0  0  0  0  0  0  0  0  0  0  0  0
   17.0337  -21.4888    3.7132 C   0  0  0  0  0  0  0  0  0  0  0  0
   18.2612  -21.5382    3.5044 O   0  0  0  0  0  0  0  0  0  0  0  0
   16.5061  -20.2362    4.1460 N   0  0  0  0  0  0  0  0  0  0  0  0
   17.2923  -19.0414    4.3517 C   0  0  1  0  0  0  0  0  0  0  0  0
   16.6327  -17.8008    3.8676 C   0  0  0  0  0  0  0  0  0  0  0  0
   17.4293  -16.5539    4.0463 C   0  0  0  0  0  0  0  0  0  0  0  0
   16.7094  -15.3006    3.6306 C   0  0  0  0  0  0  0  0  0  0  0  0
   17.6879  -14.1548    3.8606 C   0  0  0  0  0  0  0  0  0  0  0  0
   17.0117  -12.8829    3.6062 N   0  0  0  0  0  0  0  0  0  0  0  0
   17.7370  -19.0003    5.7544 C   0  0  0  0  0  0  0  0  0  0  0  0
   16.9051  -19.2189    6.6636 O   0  0  0  0  0  0  0  0  0  0  0  0
   22.4691  -20.7553    6.6929 C   0  0  0  0  0  0  0  0  0  0  0  0
   21.1897  -20.5470    7.4185 C   0  0  0  0  0  0  0  0  0  0  0  0
   20.8724  -19.1419    7.8307 C   0  0  2  0  0  0  0  0  0  0  0  0
   21.2199  -18.9506    9.3088 C   0  0  0  0  0  0  0  0  0  0  0  0
   19.5113  -18.6401    7.5143 C   0  0  2  0  0  0  0  0  0  0  0  0
   19.0724  -18.7248    6.1678 N   0  0  0  0  0  0  0  0  0  0  0  0
   19.4534  -17.2138    7.9509 C   0  0  0  0  0  0  0  0  0  0  0  0
   19.4627  -16.8770    9.1559 O   0  0  0  0  0  0  0  0  0  0  0  0
   19.3859  -16.1992    7.0073 O   0  0  0  0  0  0  0  0  0  0  0  0
  2  1  1  6
  2 13  1  0
  2  3  1  0
  4  5  2  0
  4  3  1  0
  6  5  1  0
  7 12  2  0
  7  6  1  0
  8  7  1  0
  9 10  1  0
  9  8  2  0
 10 11  2  0
 11 12  1  0
 12  4  1  0
 13 14  2  0
 15 16  1  0
 15 13  1  0
 16 17  1  1
 18 17  1  0
 19 20  1  0
 19 18  1  0
 21 20  1  0
 22 16  1  0
 22 23  2  0
 24 25  1  0
 25 26  1  0
 26 28  1  0
 26 27  1  1
 28 29  1  6
 28 30  1  0
 29 22  1  0
 30 31  2  0
 30 32  1  0
M  END
$$$$
