WKI.pdb
     RDKit          3D

 32 33  0  0  1  0  0  0  0  0999 V2000
   27.3904  -22.6464  -10.3643 N   0  0  0  0  0  0  0  0  0  0  0  0
   26.5539  -21.5871   -9.8366 C   0  0  1  0  0  0  0  0  0  0  0  0
   27.3272  -20.2901   -9.7509 C   0  0  0  0  0  0  0  0  0  0  0  0
   28.3303  -20.4577   -8.6735 C   0  0  0  0  0  0  0  0  0  0  0  0
   29.5830  -21.0037   -8.7995 C   0  0  0  0  0  0  0  0  0  0  0  0
   30.1444  -20.9584   -7.5800 N   0  0  0  0  0  0  0  0  0  0  0  0
   29.3150  -20.4102   -6.6755 C   0  0  0  0  0  0  0  0  0  0  0  0
   29.4745  -20.1681   -5.3249 C   0  0  0  0  0  0  0  0  0  0  0  0
   28.4359  -19.5780   -4.6211 C   0  0  0  0  0  0  0  0  0  0  0  0
   27.2775  -19.2535   -5.2987 C   0  0  0  0  0  0  0  0  0  0  0  0
   27.1019  -19.4887   -6.6477 C   0  0  0  0  0  0  0  0  0  0  0  0
   28.1546  -20.0837   -7.3479 C   0  0  0  0  0  0  0  0  0  0  0  0
   25.3476  -21.4966  -10.6922 C   0  0  0  0  0  0  0  0  0  0  0  0
   25.4132  -21.6566  -11.9262 O   0  0  0  0  0  0  0  0  0  0  0  0
   24.0576  -21.2232  -10.1481 N   0  0  0  0  0  0  0  0  0  0  0  0
   22.8126  -21.3966  -10.8606 C   0  0  1  0  0  0  0  0  0  0  0  0
   21.6692  -21.7653   -9.9859 C   0  0  0  0  0  0  0  0  0  0  0  0
   20.3893  -22.0308  -10.7019 C   0  0  0  0  0  0  0  0  0  0  0  0
   19.2774  -22.5150   -9.8126 C   0  0  0  0  0  0  0  0  0  0  0  0
   18.0742  -22.7355  -10.7219 C   0  0  0  0  0  0  0  0  0  0  0  0
   16.9994  -23.3679   -9.9572 N   0  0  0  0  0  0  0  0  0  0  0  0
   22.5854  -20.2192  -11.7146 C   0  0  0  0  0  0  0  0  0  0  0  0
   22.6583  -19.0767  -11.2087 O   0  0  0  0  0  0  0  0  0  0  0  0
   25.1414  -19.0693  -16.2883 C   0  0  0  0  0  0  0  0  0  0  0  0
   24.3445  -19.0934  -15.0348 C   0  0  0  0  0  0  0  0  0  0  0  0
   22.8546  -19.0444  -15.1850 C   0  0  2  0  0  0  0  0  0  0  0  0
   22.4625  -17.8138  -16.0060 C   0  0  0  0  0  0  0  0  0  0  0  0
   22.0500  -19.1582  -13.9424 C   0  0  2  0  0  0  0  0  0  0  0  0
   22.2820  -20.2801  -13.1055 N   0  0  0  0  0  0  0  0  0  0  0  0
   20.6123  -19.1461  -14.3439 C   0  0  0  0  0  0  0  0  0  0  0  0
   20.0285  -20.1592  -14.7896 O   0  0  0  0  0  0  0  0  0  0  0  0
   19.8676  -17.9813  -14.2302 O   0  0  0  0  0  0  0  0  0  0  0  0
  2  1  1  6
  2 13  1  0
  2  3  1  0
  4  5  2  0
  4  3  1  0
  6  5  1  0
  7 12  2  0
  7  6  1  0
  8  7  1  0
  9 10  1  0
  9  8  2  0
 10 11  2  0
 11 12  1  0
 12  4  1  0
 13 14  2  0
 15 16  1  0
 15 13  1  0
 16 17  1  1
 18 17  1  0
 19 20  1  0
 19 18  1  0
 21 20  1  0
 22 16  1  0
 22 23  2  0
 24 25  1  0
 25 26  1  0
 26 28  1  0
 26 27  1  1
 28 29  1  6
 28 30  1  0
 29 22  1  0
 30 31  2  0
 30 32  1  0
M  END
$$$$
