WKI.pdb
     RDKit          3D

 32 33  0  0  1  0  0  0  0  0999 V2000
   24.2942  -20.2432  -10.9718 N   0  0  0  0  0  0  0  0  0  0  0  0
   25.7137  -20.3675  -11.2358 C   0  0  1  0  0  0  0  0  0  0  0  0
   26.3156  -21.4768  -10.4022 C   0  0  0  0  0  0  0  0  0  0  0  0
   26.5217  -20.9290   -9.0412 C   0  0  0  0  0  0  0  0  0  0  0  0
   25.5445  -20.5836   -8.1416 C   0  0  0  0  0  0  0  0  0  0  0  0
   26.1762  -20.1332   -7.0450 N   0  0  0  0  0  0  0  0  0  0  0  0
   27.5114  -20.1717   -7.1944 C   0  0  0  0  0  0  0  0  0  0  0  0
   28.5330  -19.8120   -6.3369 C   0  0  0  0  0  0  0  0  0  0  0  0
   29.8459  -19.9605   -6.7569 C   0  0  0  0  0  0  0  0  0  0  0  0
   30.0839  -20.4640   -8.0204 C   0  0  0  0  0  0  0  0  0  0  0  0
   29.0748  -20.8280   -8.8894 C   0  0  0  0  0  0  0  0  0  0  0  0
   27.7551  -20.6744   -8.4566 C   0  0  0  0  0  0  0  0  0  0  0  0
   25.8853  -20.5687  -12.6937 C   0  0  0  0  0  0  0  0  0  0  0  0
   25.0609  -21.2236  -13.3603 O   0  0  0  0  0  0  0  0  0  0  0  0
   26.9971  -20.0251  -13.4029 N   0  0  0  0  0  0  0  0  0  0  0  0
   27.1136  -19.9877  -14.8427 C   0  0  1  0  0  0  0  0  0  0  0  0
   27.9546  -18.8705  -15.3459 C   0  0  0  0  0  0  0  0  0  0  0  0
   28.1218  -18.8262  -16.8262 C   0  0  0  0  0  0  0  0  0  0  0  0
   29.0044  -17.7093  -17.3111 C   0  0  0  0  0  0  0  0  0  0  0  0
   28.1729  -16.4363  -17.2042 C   0  0  0  0  0  0  0  0  0  0  0  0
   28.9596  -15.3024  -17.6891 N   0  0  0  0  0  0  0  0  0  0  0  0
   27.5046  -21.3231  -15.3231 C   0  0  0  0  0  0  0  0  0  0  0  0
   28.4228  -21.9373  -14.7347 O   0  0  0  0  0  0  0  0  0  0  0  0
   24.3246  -25.5321  -15.7626 C   0  0  0  0  0  0  0  0  0  0  0  0
   25.4084  -24.5180  -15.7013 C   0  0  0  0  0  0  0  0  0  0  0  0
   26.2125  -24.3179  -16.9495 C   0  0  2  0  0  0  0  0  0  0  0  0
   26.7631  -25.6640  -17.4257 C   0  0  0  0  0  0  0  0  0  0  0  0
   27.2668  -23.2732  -16.9092 C   0  0  2  0  0  0  0  0  0  0  0  0
   26.9048  -21.9872  -16.4320 N   0  0  0  0  0  0  0  0  0  0  0  0
   27.8085  -23.1382  -18.2937 C   0  0  0  0  0  0  0  0  0  0  0  0
   27.1793  -22.5647  -19.2106 O   0  0  0  0  0  0  0  0  0  0  0  0
   29.0556  -23.6586  -18.6070 O   0  0  0  0  0  0  0  0  0  0  0  0
  2  1  1  6
  2 13  1  0
  2  3  1  0
  4  5  2  0
  4  3  1  0
  6  5  1  0
  7 12  2  0
  7  6  1  0
  8  7  1  0
  9 10  1  0
  9  8  2  0
 10 11  2  0
 11 12  1  0
 12  4  1  0
 13 14  2  0
 15 16  1  0
 15 13  1  0
 16 17  1  1
 18 17  1  0
 19 20  1  0
 19 18  1  0
 21 20  1  0
 22 16  1  0
 22 23  2  0
 24 25  1  0
 25 26  1  0
 26 28  1  0
 26 27  1  1
 28 29  1  6
 28 30  1  0
 29 22  1  0
 30 31  2  0
 30 32  1  0
M  END
$$$$
