WKI.pdb
     RDKit          3D

 32 33  0  0  1  0  0  0  0  0999 V2000
   26.8013  -19.4123  -10.7590 N   0  0  0  0  0  0  0  0  0  0  0  0
   26.4424  -20.8161  -10.7824 C   0  0  1  0  0  0  0  0  0  0  0  0
   25.9400  -21.2604   -9.4267 C   0  0  0  0  0  0  0  0  0  0  0  0
   26.8348  -20.6508   -8.4154 C   0  0  0  0  0  0  0  0  0  0  0  0
   26.5035  -19.6691   -7.5155 C   0  0  0  0  0  0  0  0  0  0  0  0
   27.6112  -19.4183   -6.7981 N   0  0  0  0  0  0  0  0  0  0  0  0
   28.6387  -20.1900   -7.1918 C   0  0  0  0  0  0  0  0  0  0  0  0
   29.9420  -20.2686   -6.7405 C   0  0  0  0  0  0  0  0  0  0  0  0
   30.8066  -21.1724   -7.3387 C   0  0  0  0  0  0  0  0  0  0  0  0
   30.3311  -21.9625   -8.3663 C   0  0  0  0  0  0  0  0  0  0  0  0
   29.0321  -21.8965   -8.8292 C   0  0  0  0  0  0  0  0  0  0  0  0
   28.1688  -20.9824   -8.2197 C   0  0  0  0  0  0  0  0  0  0  0  0
   25.4532  -21.0105  -11.8683 C   0  0  0  0  0  0  0  0  0  0  0  0
   24.7676  -20.0635  -12.2995 O   0  0  0  0  0  0  0  0  0  0  0  0
   25.2378  -22.2853  -12.4710 N   0  0  0  0  0  0  0  0  0  0  0  0
   24.3432  -22.5287  -13.5793 C   0  0  1  0  0  0  0  0  0  0  0  0
   24.5426  -23.8500  -14.2298 C   0  0  0  0  0  0  0  0  0  0  0  0
   25.7289  -23.9366  -15.1277 C   0  0  0  0  0  0  0  0  0  0  0  0
   26.0819  -22.6413  -15.8052 C   0  0  0  0  0  0  0  0  0  0  0  0
   27.2177  -22.9639  -16.7691 C   0  0  0  0  0  0  0  0  0  0  0  0
   27.6482  -21.7362  -17.4379 N   0  0  0  0  0  0  0  0  0  0  0  0
   22.9635  -22.2526  -13.1465 C   0  0  0  0  0  0  0  0  0  0  0  0
   22.5495  -22.7522  -12.0762 O   0  0  0  0  0  0  0  0  0  0  0  0
   20.6327  -17.2517  -13.2787 C   0  0  0  0  0  0  0  0  0  0  0  0
   21.0507  -18.6485  -12.9936 C   0  0  0  0  0  0  0  0  0  0  0  0
   20.2473  -19.7352  -13.6404 C   0  0  2  0  0  0  0  0  0  0  0  0
   18.7733  -19.5788  -13.2596 C   0  0  0  0  0  0  0  0  0  0  0  0
   20.7227  -21.1283  -13.4463 C   0  0  2  0  0  0  0  0  0  0  0  0
   22.0406  -21.4415  -13.8680 N   0  0  0  0  0  0  0  0  0  0  0  0
   19.7640  -22.0256  -14.1562 C   0  0  0  0  0  0  0  0  0  0  0  0
   18.7149  -22.4489  -13.6215 O   0  0  0  0  0  0  0  0  0  0  0  0
   20.0183  -22.4234  -15.4606 O   0  0  0  0  0  0  0  0  0  0  0  0
  2  1  1  1
  2 13  1  0
  2  3  1  0
  4  5  2  0
  4  3  1  0
  6  5  1  0
  7 12  2  0
  7  6  1  0
  8  7  1  0
  9 10  1  0
  9  8  2  0
 10 11  2  0
 11 12  1  0
 12  4  1  0
 13 14  2  0
 15 16  1  0
 15 13  1  0
 16 17  1  1
 18 17  1  0
 19 20  1  0
 19 18  1  0
 21 20  1  0
 22 16  1  0
 22 23  2  0
 24 25  1  0
 25 26  1  0
 26 28  1  0
 26 27  1  1
 28 29  1  6
 28 30  1  0
 29 22  1  0
 30 31  2  0
 30 32  1  0
M  END
$$$$
