WKI.pdb
     RDKit          3D

 32 33  0  0  1  0  0  0  0  0999 V2000
   27.2166  -19.0728  -10.1963 N   0  0  0  0  0  0  0  0  0  0  0  0
   26.7304  -20.4315  -10.0632 C   0  0  1  0  0  0  0  0  0  0  0  0
   26.0526  -20.6263   -8.7252 C   0  0  0  0  0  0  0  0  0  0  0  0
   26.9676  -20.0801   -7.6959 C   0  0  0  0  0  0  0  0  0  0  0  0
   26.8088  -18.9087   -6.9987 C   0  0  0  0  0  0  0  0  0  0  0  0
   27.8666  -18.8063   -6.1772 N   0  0  0  0  0  0  0  0  0  0  0  0
   28.6982  -19.8537   -6.3112 C   0  0  0  0  0  0  0  0  0  0  0  0
   29.8869  -20.1579   -5.6766 C   0  0  0  0  0  0  0  0  0  0  0  0
   30.5484  -21.3284   -6.0150 C   0  0  0  0  0  0  0  0  0  0  0  0
   29.9925  -22.1487   -6.9765 C   0  0  0  0  0  0  0  0  0  0  0  0
   28.8059  -21.8595   -7.6200 C   0  0  0  0  0  0  0  0  0  0  0  0
   28.1470  -20.6775   -7.2719 C   0  0  0  0  0  0  0  0  0  0  0  0
   25.8431  -20.7080  -11.2172 C   0  0  0  0  0  0  0  0  0  0  0  0
   25.0073  -19.8708  -11.6090 O   0  0  0  0  0  0  0  0  0  0  0  0
   25.9015  -21.9402  -11.9335 N   0  0  0  0  0  0  0  0  0  0  0  0
   25.1232  -22.2418  -13.1129 C   0  0  1  0  0  0  0  0  0  0  0  0
   25.4606  -23.5490  -13.7340 C   0  0  0  0  0  0  0  0  0  0  0  0
   24.7544  -23.8383  -15.0142 C   0  0  0  0  0  0  0  0  0  0  0  0
   25.0967  -25.1733  -15.6160 C   0  0  0  0  0  0  0  0  0  0  0  0
   24.4042  -25.2155  -16.9731 C   0  0  0  0  0  0  0  0  0  0  0  0
   24.5928  -26.5368  -17.5717 N   0  0  0  0  0  0  0  0  0  0  0  0
   23.6966  -22.0525  -12.8026 C   0  0  0  0  0  0  0  0  0  0  0  0
   23.2570  -22.4417  -11.6973 O   0  0  0  0  0  0  0  0  0  0  0  0
   20.8862  -17.4327  -13.2032 C   0  0  0  0  0  0  0  0  0  0  0  0
   21.4025  -18.7900  -12.8897 C   0  0  0  0  0  0  0  0  0  0  0  0
   20.7834  -19.9328  -13.6350 C   0  0  2  0  0  0  0  0  0  0  0  0
   19.2696  -19.9306  -13.4111 C   0  0  0  0  0  0  0  0  0  0  0  0
   21.3724  -21.2775  -13.4128 C   0  0  2  0  0  0  0  0  0  0  0  0
   22.7548  -21.4463  -13.6833 N   0  0  0  0  0  0  0  0  0  0  0  0
   20.5972  -22.2430  -14.2466 C   0  0  0  0  0  0  0  0  0  0  0  0
   19.4368  -22.6072  -13.9525 O   0  0  0  0  0  0  0  0  0  0  0  0
   21.1581  -22.7749  -15.3984 O   0  0  0  0  0  0  0  0  0  0  0  0
  2  1  1  6
  2 13  1  0
  2  3  1  0
  4  5  2  0
  4  3  1  0
  6  5  1  0
  7 12  2  0
  7  6  1  0
  8  7  1  0
  9 10  1  0
  9  8  2  0
 10 11  2  0
 11 12  1  0
 12  4  1  0
 13 14  2  0
 15 16  1  0
 15 13  1  0
 16 17  1  1
 18 17  1  0
 19 20  1  0
 19 18  1  0
 21 20  1  0
 22 16  1  0
 22 23  2  0
 24 25  1  0
 25 26  1  0
 26 28  1  0
 26 27  1  1
 28 29  1  6
 28 30  1  0
 29 22  1  0
 30 31  2  0
 30 32  1  0
M  END
$$$$
