WKI.pdb
     RDKit          3D

 32 33  0  0  1  0  0  0  0  0999 V2000
   26.0724  -19.5010  -11.5039 N   0  0  0  0  0  0  0  0  0  0  0  0
   26.0590  -20.9501  -11.4890 C   0  0  1  0  0  0  0  0  0  0  0  0
   25.5753  -21.4648  -10.1515 C   0  0  0  0  0  0  0  0  0  0  0  0
   26.4098  -20.8159   -9.1134 C   0  0  0  0  0  0  0  0  0  0  0  0
   25.9605  -20.1115   -8.0248 C   0  0  0  0  0  0  0  0  0  0  0  0
   27.0519  -19.7020   -7.3572 N   0  0  0  0  0  0  0  0  0  0  0  0
   28.1812  -20.1080   -7.9624 C   0  0  0  0  0  0  0  0  0  0  0  0
   29.5089  -19.9188   -7.6311 C   0  0  0  0  0  0  0  0  0  0  0  0
   30.4889  -20.4599   -8.4491 C   0  0  0  0  0  0  0  0  0  0  0  0
   30.0998  -21.1698   -9.5677 C   0  0  0  0  0  0  0  0  0  0  0  0
   28.7779  -21.3679   -9.9129 C   0  0  0  0  0  0  0  0  0  0  0  0
   27.7979  -20.8186   -9.0820 C   0  0  0  0  0  0  0  0  0  0  0  0
   25.2289  -21.4051  -12.6288 C   0  0  0  0  0  0  0  0  0  0  0  0
   24.2868  -20.7143  -13.0627 O   0  0  0  0  0  0  0  0  0  0  0  0
   25.4659  -22.6504  -13.2829 N   0  0  0  0  0  0  0  0  0  0  0  0
   24.8263  -23.0682  -14.5093 C   0  0  1  0  0  0  0  0  0  0  0  0
   25.4364  -24.2779  -15.1200 C   0  0  0  0  0  0  0  0  0  0  0  0
   26.1455  -24.0422  -16.4095 C   0  0  0  0  0  0  0  0  0  0  0  0
   27.4796  -23.3642  -16.2615 C   0  0  0  0  0  0  0  0  0  0  0  0
   27.9632  -23.0687  -17.6765 C   0  0  0  0  0  0  0  0  0  0  0  0
   29.2954  -22.4675  -17.6168 N   0  0  0  0  0  0  0  0  0  0  0  0
   23.3741  -23.1531  -14.2835 C   0  0  0  0  0  0  0  0  0  0  0  0
   22.9522  -23.6335  -13.2075 O   0  0  0  0  0  0  0  0  0  0  0  0
   19.8993  -19.1006  -14.6269 C   0  0  0  0  0  0  0  0  0  0  0  0
   20.5768  -20.3899  -14.3346 C   0  0  0  0  0  0  0  0  0  0  0  0
   20.1893  -21.5604  -15.1857 C   0  0  2  0  0  0  0  0  0  0  0  0
   18.6883  -21.8228  -15.0436 C   0  0  0  0  0  0  0  0  0  0  0  0
   20.9849  -22.8032  -15.0213 C   0  0  2  0  0  0  0  0  0  0  0  0
   22.3877  -22.7204  -15.2162 N   0  0  0  0  0  0  0  0  0  0  0  0
   20.4262  -23.8142  -15.9669 C   0  0  0  0  0  0  0  0  0  0  0  0
   19.6077  -24.6908  -15.6101 O   0  0  0  0  0  0  0  0  0  0  0  0
   20.8103  -23.8074  -17.2999 O   0  0  0  0  0  0  0  0  0  0  0  0
  2  1  1  1
  2 13  1  0
  2  3  1  0
  4  5  2  0
  4  3  1  0
  6  5  1  0
  7 12  2  0
  7  6  1  0
  8  7  1  0
  9 10  1  0
  9  8  2  0
 10 11  2  0
 11 12  1  0
 12  4  1  0
 13 14  2  0
 15 16  1  0
 15 13  1  0
 16 17  1  1
 18 17  1  0
 19 20  1  0
 19 18  1  0
 21 20  1  0
 22 16  1  0
 22 23  2  0
 24 25  1  0
 25 26  1  0
 26 28  1  0
 26 27  1  1
 28 29  1  6
 28 30  1  0
 29 22  1  0
 30 31  2  0
 30 32  1  0
M  END
$$$$
