WKI.pdb
     RDKit          3D

 32 33  0  0  1  0  0  0  0  0999 V2000
   23.4552  -17.6437  -18.1944 N   0  0  0  0  0  0  0  0  0  0  0  0
   24.4942  -17.5891  -17.1856 C   0  0  1  0  0  0  0  0  0  0  0  0
   24.0417  -16.7684  -15.9984 C   0  0  0  0  0  0  0  0  0  0  0  0
   24.0318  -15.3520  -16.4332 C   0  0  0  0  0  0  0  0  0  0  0  0
   22.9247  -14.5821  -16.6879 C   0  0  0  0  0  0  0  0  0  0  0  0
   23.3770  -13.3713  -17.0539 N   0  0  0  0  0  0  0  0  0  0  0  0
   24.7202  -13.3240  -17.0472 C   0  0  0  0  0  0  0  0  0  0  0  0
   25.5954  -12.2986  -17.3484 C   0  0  0  0  0  0  0  0  0  0  0  0
   26.9592  -12.5303  -17.2544 C   0  0  0  0  0  0  0  0  0  0  0  0
   27.3927  -13.7811  -16.8621 C   0  0  0  0  0  0  0  0  0  0  0  0
   26.5316  -14.8164  -16.5577 C   0  0  0  0  0  0  0  0  0  0  0  0
   25.1592  -14.5727  -16.6555 C   0  0  0  0  0  0  0  0  0  0  0  0
   24.8545  -18.9826  -16.8335 C   0  0  0  0  0  0  0  0  0  0  0  0
   23.9851  -19.8190  -16.5214 O   0  0  0  0  0  0  0  0  0  0  0  0
   26.2078  -19.4333  -16.8346 N   0  0  0  0  0  0  0  0  0  0  0  0
   26.6315  -20.7598  -16.4489 C   0  0  1  0  0  0  0  0  0  0  0  0
   27.9163  -21.1804  -17.0660 C   0  0  0  0  0  0  0  0  0  0  0  0
   28.0521  -22.6461  -17.2996 C   0  0  0  0  0  0  0  0  0  0  0  0
   28.3701  -23.4382  -16.0614 C   0  0  0  0  0  0  0  0  0  0  0  0
   28.6267  -24.8666  -16.5273 C   0  0  0  0  0  0  0  0  0  0  0  0
   29.0754  -25.6725  -15.3921 N   0  0  0  0  0  0  0  0  0  0  0  0
   26.5845  -20.8662  -14.9813 C   0  0  0  0  0  0  0  0  0  0  0  0
   27.3434  -20.1464  -14.2939 O   0  0  0  0  0  0  0  0  0  0  0  0
   22.4772  -19.6781  -12.0941 C   0  0  0  0  0  0  0  0  0  0  0  0
   23.8186  -20.0454  -12.6164 C   0  0  0  0  0  0  0  0  0  0  0  0
   24.3460  -21.3921  -12.2252 C   0  0  2  0  0  0  0  0  0  0  0  0
   24.3977  -21.4988  -10.6994 C   0  0  0  0  0  0  0  0  0  0  0  0
   25.6213  -21.8221  -12.8521 C   0  0  2  0  0  0  0  0  0  0  0  0
   25.7218  -21.7454  -14.2652 N   0  0  0  0  0  0  0  0  0  0  0  0
   25.8695  -23.2316  -12.4276 C   0  0  0  0  0  0  0  0  0  0  0  0
   25.6241  -24.2111  -13.1666 O   0  0  0  0  0  0  0  0  0  0  0  0
   26.3918  -23.4982  -11.1705 O   0  0  0  0  0  0  0  0  0  0  0  0
  2  1  1  6
  2 13  1  0
  2  3  1  0
  4  5  2  0
  4  3  1  0
  6  5  1  0
  7 12  2  0
  7  6  1  0
  8  7  1  0
  9 10  1  0
  9  8  2  0
 10 11  2  0
 11 12  1  0
 12  4  1  0
 13 14  2  0
 15 16  1  0
 15 13  1  0
 16 17  1  1
 18 17  1  0
 19 20  1  0
 19 18  1  0
 21 20  1  0
 22 16  1  0
 22 23  2  0
 24 25  1  0
 25 26  1  0
 26 28  1  0
 26 27  1  1
 28 29  1  6
 28 30  1  0
 29 22  1  0
 30 31  2  0
 30 32  1  0
M  END
$$$$
