WKI.pdb
     RDKit          3D

 32 33  0  0  1  0  0  0  0  0999 V2000
   27.5127  -21.5687  -13.2357 N   0  0  0  0  0  0  0  0  0  0  0  0
   26.0659  -21.5551  -13.1538 C   0  0  1  0  0  0  0  0  0  0  0  0
   25.5643  -20.1685  -12.8172 C   0  0  0  0  0  0  0  0  0  0  0  0
   26.0287  -19.8646  -11.4435 C   0  0  0  0  0  0  0  0  0  0  0  0
   27.1617  -19.1719  -11.0973 C   0  0  0  0  0  0  0  0  0  0  0  0
   27.1917  -19.1342   -9.7549 N   0  0  0  0  0  0  0  0  0  0  0  0
   26.1342  -19.7684   -9.2201 C   0  0  0  0  0  0  0  0  0  0  0  0
   25.7659  -19.9718   -7.9043 C   0  0  0  0  0  0  0  0  0  0  0  0
   24.6013  -20.6738   -7.6337 C   0  0  0  0  0  0  0  0  0  0  0  0
   23.8509  -21.1446   -8.6928 C   0  0  0  0  0  0  0  0  0  0  0  0
   24.2047  -20.9500  -10.0130 C   0  0  0  0  0  0  0  0  0  0  0  0
   25.3801  -20.2414  -10.2751 C   0  0  0  0  0  0  0  0  0  0  0  0
   25.5368  -22.0763  -14.4359 C   0  0  0  0  0  0  0  0  0  0  0  0
   25.7948  -21.5181  -15.5198 O   0  0  0  0  0  0  0  0  0  0  0  0
   24.7098  -23.2372  -14.4927 N   0  0  0  0  0  0  0  0  0  0  0  0
   24.2968  -23.8920  -15.7127 C   0  0  1  0  0  0  0  0  0  0  0  0
   23.9867  -25.3353  -15.5415 C   0  0  0  0  0  0  0  0  0  0  0  0
   23.9687  -26.1289  -16.8028 C   0  0  0  0  0  0  0  0  0  0  0  0
   25.2697  -26.8160  -17.1144 C   0  0  0  0  0  0  0  0  0  0  0  0
   25.0983  -27.4404  -18.4942 C   0  0  0  0  0  0  0  0  0  0  0  0
   26.3030  -28.1966  -18.8360 N   0  0  0  0  0  0  0  0  0  0  0  0
   23.2274  -23.0983  -16.3401 C   0  0  0  0  0  0  0  0  0  0  0  0
   22.4380  -22.4564  -15.6112 O   0  0  0  0  0  0  0  0  0  0  0  0
   23.7765  -19.6517  -20.5839 C   0  0  0  0  0  0  0  0  0  0  0  0
   23.3552  -20.3937  -19.3677 C   0  0  0  0  0  0  0  0  0  0  0  0
   22.3081  -21.4490  -19.5538 C   0  0  2  0  0  0  0  0  0  0  0  0
   21.0628  -20.8285  -20.1911 C   0  0  0  0  0  0  0  0  0  0  0  0
   21.9681  -22.2745  -18.3675 C   0  0  2  0  0  0  0  0  0  0  0  0
   23.0160  -23.0011  -17.7457 N   0  0  0  0  0  0  0  0  0  0  0  0
   20.9010  -23.2310  -18.7856 C   0  0  0  0  0  0  0  0  0  0  0  0
   21.1441  -24.2646  -19.4475 O   0  0  0  0  0  0  0  0  0  0  0  0
   19.5784  -22.9920  -18.4421 O   0  0  0  0  0  0  0  0  0  0  0  0
  2  1  1  6
  2 13  1  0
  2  3  1  0
  4  5  2  0
  4  3  1  0
  6  5  1  0
  7 12  2  0
  7  6  1  0
  8  7  1  0
  9 10  1  0
  9  8  2  0
 10 11  2  0
 11 12  1  0
 12  4  1  0
 13 14  2  0
 15 16  1  0
 15 13  1  0
 16 17  1  1
 18 17  1  0
 19 20  1  0
 19 18  1  0
 21 20  1  0
 22 16  1  0
 22 23  2  0
 24 25  1  0
 25 26  1  0
 26 28  1  0
 26 27  1  1
 28 29  1  6
 28 30  1  0
 29 22  1  0
 30 31  2  0
 30 32  1  0
M  END
$$$$
