WKI.pdb
     RDKit          3D

 32 33  0  0  1  0  0  0  0  0999 V2000
   24.1766  -16.5579  -17.0498 N   0  0  0  0  0  0  0  0  0  0  0  0
   25.2300  -17.3424  -16.4373 C   0  0  1  0  0  0  0  0  0  0  0  0
   25.7000  -16.6940  -15.1542 C   0  0  0  0  0  0  0  0  0  0  0  0
   26.7824  -15.7508  -15.5201 C   0  0  0  0  0  0  0  0  0  0  0  0
   26.7696  -14.3881  -15.3583 C   0  0  0  0  0  0  0  0  0  0  0  0
   27.9461  -13.9367  -15.8237 N   0  0  0  0  0  0  0  0  0  0  0  0
   28.7152  -14.9415  -16.2769 C   0  0  0  0  0  0  0  0  0  0  0  0
   29.9803  -14.9391  -16.8318 C   0  0  0  0  0  0  0  0  0  0  0  0
   30.5466  -16.1443  -17.2178 C   0  0  0  0  0  0  0  0  0  0  0  0
   29.8227  -17.3053  -17.0325 C   0  0  0  0  0  0  0  0  0  0  0  0
   28.5577  -17.3252  -16.4798 C   0  0  0  0  0  0  0  0  0  0  0  0
   27.9959  -16.1053  -16.0942 C   0  0  0  0  0  0  0  0  0  0  0  0
   24.7145  -18.7183  -16.2459 C   0  0  0  0  0  0  0  0  0  0  0  0
   23.5200  -18.9304  -15.9613 O   0  0  0  0  0  0  0  0  0  0  0  0
   25.5560  -19.8625  -16.3775 N   0  0  0  0  0  0  0  0  0  0  0  0
   25.1276  -21.2256  -16.1623 C   0  0  1  0  0  0  0  0  0  0  0  0
   26.1071  -22.2411  -16.6291 C   0  0  0  0  0  0  0  0  0  0  0  0
   25.6377  -23.6531  -16.5451 C   0  0  0  0  0  0  0  0  0  0  0  0
   26.6570  -24.6663  -16.9882 C   0  0  0  0  0  0  0  0  0  0  0  0
   25.9289  -26.0043  -17.0391 C   0  0  0  0  0  0  0  0  0  0  0  0
   26.8909  -27.0679  -17.3275 N   0  0  0  0  0  0  0  0  0  0  0  0
   24.7004  -21.3743  -14.7614 C   0  0  0  0  0  0  0  0  0  0  0  0
   25.4335  -20.9280  -13.8504 O   0  0  0  0  0  0  0  0  0  0  0  0
   20.7340  -19.0828  -12.4518 C   0  0  0  0  0  0  0  0  0  0  0  0
   21.9405  -19.8676  -12.8200 C   0  0  0  0  0  0  0  0  0  0  0  0
   21.8832  -21.3439  -12.5711 C   0  0  2  0  0  0  0  0  0  0  0  0
   21.5326  -21.6031  -11.1042 C   0  0  0  0  0  0  0  0  0  0  0  0
   23.0544  -22.1448  -13.0086 C   0  0  2  0  0  0  0  0  0  0  0  0
   23.4884  -22.0015  -14.3517 N   0  0  0  0  0  0  0  0  0  0  0  0
   22.7269  -23.5797  -12.7589 C   0  0  0  0  0  0  0  0  0  0  0  0
   22.0525  -24.2661  -13.5587 O   0  0  0  0  0  0  0  0  0  0  0  0
   23.1735  -24.2047  -11.6038 O   0  0  0  0  0  0  0  0  0  0  0  0
  2  1  1  1
  2 13  1  0
  2  3  1  0
  4  5  2  0
  4  3  1  0
  6  5  1  0
  7 12  2  0
  7  6  1  0
  8  7  1  0
  9 10  1  0
  9  8  2  0
 10 11  2  0
 11 12  1  0
 12  4  1  0
 13 14  2  0
 15 16  1  0
 15 13  1  0
 16 17  1  1
 18 17  1  0
 19 20  1  0
 19 18  1  0
 21 20  1  0
 22 16  1  0
 22 23  2  0
 24 25  1  0
 25 26  1  0
 26 28  1  0
 26 27  1  1
 28 29  1  6
 28 30  1  0
 29 22  1  0
 30 31  2  0
 30 32  1  0
M  END
$$$$
