SFI.pdb
     RDKit          3D

 26 26  0  0  1  0  0  0  0  0999 V2000
   26.6301  -20.7539  -18.7930 O   0  0  0  0  0  0  0  0  0  0  0  0
   26.9144  -20.4235  -17.4725 C   0  0  0  0  0  0  0  0  0  0  0  0
   27.7462  -21.5014  -16.7915 C   0  0  2  0  0  0  0  0  0  0  0  0
   27.6641  -22.6805  -17.6314 N   0  0  0  0  0  0  0  0  0  0  0  0
   27.0714  -21.7542  -15.4674 C   0  0  0  0  0  0  0  0  0  0  0  0
   26.2795  -22.7216  -15.3375 O   0  0  0  0  0  0  0  0  0  0  0  0
   27.2912  -20.9359  -14.3364 N   0  0  0  0  0  0  0  0  0  0  0  0
   26.5178  -21.0120  -13.1243 C   0  0  1  0  0  0  0  0  0  0  0  0
   27.1912  -20.3374  -11.9487 C   0  0  0  0  0  0  0  0  0  0  0  0
   26.4638  -20.4409  -10.6959 C   0  0  0  0  0  0  0  0  0  0  0  0
   25.5264  -19.4948  -10.3547 C   0  0  0  0  0  0  0  0  0  0  0  0
   24.8169  -19.5801   -9.1490 C   0  0  0  0  0  0  0  0  0  0  0  0
   25.0590  -20.6257   -8.2900 C   0  0  0  0  0  0  0  0  0  0  0  0
   26.0025  -21.5842   -8.6258 C   0  0  0  0  0  0  0  0  0  0  0  0
   26.7034  -21.4845   -9.8351 C   0  0  0  0  0  0  0  0  0  0  0  0
   25.1420  -20.4604  -13.3081 C   0  0  0  0  0  0  0  0  0  0  0  0
   24.9727  -19.2935  -13.7440 O   0  0  0  0  0  0  0  0  0  0  0  0
   22.0848  -21.7713  -16.8001 C   0  0  0  0  0  0  0  0  0  0  0  0
   22.7175  -21.0003  -15.6655 C   0  0  0  0  0  0  0  0  0  0  0  0
   21.9841  -21.3578  -14.3909 C   0  0  2  0  0  0  0  0  0  0  0  0
   20.5459  -20.9391  -14.5478 C   0  0  0  0  0  0  0  0  0  0  0  0
   22.6283  -20.7035  -13.1852 C   0  0  2  0  0  0  0  0  0  0  0  0
   23.9783  -21.2184  -13.0030 N   0  0  0  0  0  0  0  0  0  0  0  0
   21.8403  -20.9653  -11.9558 C   0  0  0  0  0  0  0  0  0  0  0  0
   20.9006  -20.0450  -11.5115 O   0  0  0  0  0  0  0  0  0  0  0  0
   21.9898  -22.0145  -11.2782 O   0  0  0  0  0  0  0  0  0  0  0  0
  2  1  1  0
  3  2  1  0
  3  4  1  6
  5  3  1  0
  5  7  1  0
  6  5  2  0
  8  7  1  0
  8  9  1  1
  9 10  1  0
 10 11  2  0
 11 12  1  0
 13 12  2  0
 14 13  1  0
 15 10  1  0
 15 14  2  0
 16  8  1  0
 17 16  2  0
 19 18  1  0
 19 20  1  0
 20 22  1  0
 20 21  1  6
 22 23  1  1
 22 24  1  0
 23 16  1  0
 24 25  1  0
 26 24  2  0
M  END
$$$$
