SFI.pdb
     RDKit          3D

 26 26  0  0  1  0  0  0  0  0999 V2000
   28.3844  -20.2467  -17.4651 O   0  0  0  0  0  0  0  0  0  0  0  0
   27.4628  -20.7289  -16.5421 C   0  0  0  0  0  0  0  0  0  0  0  0
   28.1489  -21.4382  -15.3829 C   0  0  2  0  0  0  0  0  0  0  0  0
   28.5981  -22.7205  -15.8892 N   0  0  0  0  0  0  0  0  0  0  0  0
   27.0782  -21.6334  -14.3399 C   0  0  0  0  0  0  0  0  0  0  0  0
   26.4403  -22.7151  -14.2856 O   0  0  0  0  0  0  0  0  0  0  0  0
   26.7481  -20.6346  -13.3963 N   0  0  0  0  0  0  0  0  0  0  0  0
   25.7089  -20.7705  -12.4091 C   0  0  1  0  0  0  0  0  0  0  0  0
   25.9508  -19.9290  -11.1747 C   0  0  0  0  0  0  0  0  0  0  0  0
   26.9413  -20.4698  -10.2604 C   0  0  0  0  0  0  0  0  0  0  0  0
   26.6957  -20.5037   -8.9081 C   0  0  0  0  0  0  0  0  0  0  0  0
   27.6417  -21.0215   -8.0129 C   0  0  0  0  0  0  0  0  0  0  0  0
   28.8367  -21.5047   -8.4906 C   0  0  0  0  0  0  0  0  0  0  0  0
   29.0929  -21.4744   -9.8526 C   0  0  0  0  0  0  0  0  0  0  0  0
   28.1366  -20.9534  -10.7345 C   0  0  0  0  0  0  0  0  0  0  0  0
   24.3611  -20.4664  -12.9764 C   0  0  0  0  0  0  0  0  0  0  0  0
   24.1599  -19.4018  -13.6140 O   0  0  0  0  0  0  0  0  0  0  0  0
   22.2759  -23.3859  -16.3614 C   0  0  0  0  0  0  0  0  0  0  0  0
   22.5773  -22.1717  -15.5147 C   0  0  0  0  0  0  0  0  0  0  0  0
   21.5649  -22.1223  -14.3908 C   0  0  2  0  0  0  0  0  0  0  0  0
   20.2115  -21.8531  -14.9944 C   0  0  0  0  0  0  0  0  0  0  0  0
   21.9371  -21.0730  -13.3627 C   0  0  2  0  0  0  0  0  0  0  0  0
   23.2605  -21.3535  -12.8236 N   0  0  0  0  0  0  0  0  0  0  0  0
   20.9561  -21.0495  -12.2501 C   0  0  0  0  0  0  0  0  0  0  0  0
   19.9778  -20.0662  -12.1936 O   0  0  0  0  0  0  0  0  0  0  0  0
   20.9715  -21.9058  -11.3287 O   0  0  0  0  0  0  0  0  0  0  0  0
  2  1  1  0
  3  2  1  0
  3  4  1  6
  5  3  1  0
  5  7  1  0
  6  5  2  0
  8  7  1  0
  8  9  1  1
  9 10  1  0
 10 11  2  0
 11 12  1  0
 13 12  2  0
 14 13  1  0
 15 10  1  0
 15 14  2  0
 16  8  1  0
 17 16  2  0
 19 18  1  0
 19 20  1  0
 20 22  1  0
 20 21  1  6
 22 23  1  1
 22 24  1  0
 23 16  1  0
 24 25  1  0
 26 24  2  0
M  END
$$$$
