SFI.pdb
     RDKit          3D

 26 26  0  0  1  0  0  0  0  0999 V2000
   27.1918  -19.6431  -13.8948 O   0  0  0  0  0  0  0  0  0  0  0  0
   28.5808  -19.6588  -13.9577 C   0  0  0  0  0  0  0  0  0  0  0  0
   29.1446  -21.0167  -13.5627 C   0  0  2  0  0  0  0  0  0  0  0  0
   28.6346  -21.9732  -14.5257 N   0  0  0  0  0  0  0  0  0  0  0  0
   28.5830  -21.3028  -12.1933 C   0  0  0  0  0  0  0  0  0  0  0  0
   27.5903  -22.0631  -12.0649 O   0  0  0  0  0  0  0  0  0  0  0  0
   29.1319  -20.7440  -11.0171 N   0  0  0  0  0  0  0  0  0  0  0  0
   28.4870  -20.7812   -9.7303 C   0  0  1  0  0  0  0  0  0  0  0  0
   29.3043  -20.1244   -8.6390 C   0  0  0  0  0  0  0  0  0  0  0  0
   28.6526  -20.0786   -7.3418 C   0  0  0  0  0  0  0  0  0  0  0  0
   28.8675  -21.0748   -6.4189 C   0  0  0  0  0  0  0  0  0  0  0  0
   28.2454  -21.0454   -5.1634 C   0  0  0  0  0  0  0  0  0  0  0  0
   27.4054  -20.0049   -4.8448 C   0  0  0  0  0  0  0  0  0  0  0  0
   27.1829  -18.9961   -5.7692 C   0  0  0  0  0  0  0  0  0  0  0  0
   27.8126  -19.0402   -7.0202 C   0  0  0  0  0  0  0  0  0  0  0  0
   27.1212  -20.1783   -9.7763 C   0  0  0  0  0  0  0  0  0  0  0  0
   26.9492  -19.0149  -10.2205 O   0  0  0  0  0  0  0  0  0  0  0  0
   22.6290  -20.0273  -12.7657 C   0  0  0  0  0  0  0  0  0  0  0  0
   22.8656  -19.9707  -11.2748 C   0  0  0  0  0  0  0  0  0  0  0  0
   24.2243  -20.5752  -10.9937 C   0  0  2  0  0  0  0  0  0  0  0  0
   24.1768  -22.0294  -11.3828 C   0  0  0  0  0  0  0  0  0  0  0  0
   24.6135  -20.3980   -9.5398 C   0  0  2  0  0  0  0  0  0  0  0  0
   25.9704  -20.8818   -9.3265 N   0  0  0  0  0  0  0  0  0  0  0  0
   23.6889  -21.1415   -8.6492 C   0  0  0  0  0  0  0  0  0  0  0  0
   24.1558  -22.1848   -7.8612 O   0  0  0  0  0  0  0  0  0  0  0  0
   22.4650  -20.8606   -8.5737 O   0  0  0  0  0  0  0  0  0  0  0  0
  2  1  1  0
  3  2  1  0
  3  4  1  6
  5  3  1  0
  5  7  1  0
  6  5  2  0
  8  7  1  0
  8  9  1  1
  9 10  1  0
 10 11  2  0
 11 12  1  0
 13 12  2  0
 14 13  1  0
 15 10  1  0
 15 14  2  0
 16  8  1  0
 17 16  2  0
 19 18  1  0
 19 20  1  0
 20 22  1  0
 20 21  1  1
 22 23  1  6
 22 24  1  0
 23 16  1  0
 24 25  1  0
 26 24  2  0
M  END
$$$$
