SFI.pdb
     RDKit          3D

 26 26  0  0  1  0  0  0  0  0999 V2000
   25.3695  -21.8995  -17.5665 O   0  0  0  0  0  0  0  0  0  0  0  0
   26.6838  -21.7799  -17.1284 C   0  0  0  0  0  0  0  0  0  0  0  0
   27.0923  -22.9567  -16.2532 C   0  0  2  0  0  0  0  0  0  0  0  0
   26.5421  -24.1457  -16.8745 N   0  0  0  0  0  0  0  0  0  0  0  0
   26.4360  -22.7125  -14.9182 C   0  0  0  0  0  0  0  0  0  0  0  0
   25.4505  -23.4073  -14.5632 O   0  0  0  0  0  0  0  0  0  0  0  0
   26.8859  -21.7154  -14.0236 N   0  0  0  0  0  0  0  0  0  0  0  0
   26.2525  -21.4160  -12.7658 C   0  0  1  0  0  0  0  0  0  0  0  0
   27.1467  -20.6416  -11.8218 C   0  0  0  0  0  0  0  0  0  0  0  0
   26.6052  -20.4661  -10.4855 C   0  0  0  0  0  0  0  0  0  0  0  0
   25.9493  -19.3062  -10.1467 C   0  0  0  0  0  0  0  0  0  0  0  0
   25.4221  -19.1213   -8.8613 C   0  0  0  0  0  0  0  0  0  0  0  0
   25.5608  -20.1137   -7.9202 C   0  0  0  0  0  0  0  0  0  0  0  0
   26.2207  -21.2865   -8.2531 C   0  0  0  0  0  0  0  0  0  0  0  0
   26.7421  -21.4558   -9.5427 C   0  0  0  0  0  0  0  0  0  0  0  0
   24.9606  -20.6904  -12.9536 C   0  0  0  0  0  0  0  0  0  0  0  0
   24.9171  -19.6197  -13.6109 O   0  0  0  0  0  0  0  0  0  0  0  0
   21.9677  -21.4632  -16.2803 C   0  0  0  0  0  0  0  0  0  0  0  0
   22.6251  -20.7760  -15.1066 C   0  0  0  0  0  0  0  0  0  0  0  0
   21.7997  -21.0670  -13.8719 C   0  0  2  0  0  0  0  0  0  0  0  0
   20.4270  -20.4836  -14.0810 C   0  0  0  0  0  0  0  0  0  0  0  0
   22.4599  -20.5103  -12.6266 C   0  0  2  0  0  0  0  0  0  0  0  0
   23.7393  -21.1699  -12.4058 N   0  0  0  0  0  0  0  0  0  0  0  0
   21.5993  -20.7117  -11.4352 C   0  0  0  0  0  0  0  0  0  0  0  0
   20.7841  -19.6874  -10.9732 O   0  0  0  0  0  0  0  0  0  0  0  0
   21.5745  -21.8009  -10.8064 O   0  0  0  0  0  0  0  0  0  0  0  0
  2  1  1  0
  3  2  1  0
  3  4  1  6
  5  3  1  0
  5  7  1  0
  6  5  2  0
  8  7  1  0
  8  9  1  1
  9 10  1  0
 10 11  2  0
 11 12  1  0
 13 12  2  0
 14 13  1  0
 15 10  1  0
 15 14  2  0
 16  8  1  0
 17 16  2  0
 19 18  1  0
 19 20  1  0
 20 22  1  0
 20 21  1  6
 22 23  1  1
 22 24  1  0
 23 16  1  0
 24 25  1  0
 26 24  2  0
M  END
$$$$
