SFI.pdb
     RDKit          3D

 26 26  0  0  1  0  0  0  0  0999 V2000
   16.0851  -20.7980    3.2326 O   0  0  0  0  0  0  0  0  0  0  0  0
   16.9781  -19.9901    3.9279 C   0  0  0  0  0  0  0  0  0  0  0  0
   17.0408  -18.5876    3.3390 C   0  0  2  0  0  0  0  0  0  0  0  0
   17.6090  -18.7207    2.0116 N   0  0  0  0  0  0  0  0  0  0  0  0
   17.9772  -17.8166    4.2340 C   0  0  0  0  0  0  0  0  0  0  0  0
   19.2048  -17.7660    3.9686 O   0  0  0  0  0  0  0  0  0  0  0  0
   17.5312  -17.1305    5.3861 N   0  0  0  0  0  0  0  0  0  0  0  0
   18.3829  -16.3320    6.2288 C   0  0  1  0  0  0  0  0  0  0  0  0
   17.7577  -15.0107    6.6206 C   0  0  0  0  0  0  0  0  0  0  0  0
   18.0449  -13.9143    5.7123 C   0  0  0  0  0  0  0  0  0  0  0  0
   17.3379  -13.7768    4.5411 C   0  0  0  0  0  0  0  0  0  0  0  0
   17.6039  -12.7249    3.6539 C   0  0  0  0  0  0  0  0  0  0  0  0
   18.5872  -11.8130    3.9556 C   0  0  0  0  0  0  0  0  0  0  0  0
   19.3051  -11.9439    5.1342 C   0  0  0  0  0  0  0  0  0  0  0  0
   19.0270  -13.0012    6.0107 C   0  0  0  0  0  0  0  0  0  0  0  0
   18.8090  -17.0762    7.4517 C   0  0  0  0  0  0  0  0  0  0  0  0
   18.1369  -18.0504    7.8754 O   0  0  0  0  0  0  0  0  0  0  0  0
   23.9542  -16.1920    8.9954 C   0  0  0  0  0  0  0  0  0  0  0  0
   22.8046  -17.1348    8.7283 C   0  0  0  0  0  0  0  0  0  0  0  0
   21.7699  -16.9301    9.8137 C   0  0  2  0  0  0  0  0  0  0  0  0
   22.2508  -17.6352   11.0547 C   0  0  0  0  0  0  0  0  0  0  0  0
   20.4090  -17.4336    9.3766 C   0  0  2  0  0  0  0  0  0  0  0  0
   19.9766  -16.7221    8.1818 N   0  0  0  0  0  0  0  0  0  0  0  0
   19.4019  -17.2373   10.4480 C   0  0  0  0  0  0  0  0  0  0  0  0
   18.8720  -15.9781   10.6951 O   0  0  0  0  0  0  0  0  0  0  0  0
   18.9948  -18.1884   11.1635 O   0  0  0  0  0  0  0  0  0  0  0  0
  2  1  1  0
  3  2  1  0
  3  4  1  6
  5  3  1  0
  5  7  1  0
  6  5  2  0
  8  7  1  0
  8  9  1  1
  9 10  1  0
 10 11  2  0
 11 12  1  0
 13 12  2  0
 14 13  1  0
 15 10  1  0
 15 14  2  0
 16  8  1  0
 17 16  2  0
 19 18  1  0
 19 20  1  0
 20 22  1  0
 20 21  1  1
 22 23  1  6
 22 24  1  0
 23 16  1  0
 24 25  1  0
 26 24  2  0
M  END
$$$$
