SFI.pdb
     RDKit          3D

 26 26  0  0  1  0  0  0  0  0999 V2000
   24.8191  -22.6957  -13.0567 O   0  0  0  0  0  0  0  0  0  0  0  0
   25.7122  -22.1157  -12.1625 C   0  0  0  0  0  0  0  0  0  0  0  0
   25.2973  -20.6975  -11.7961 C   0  0  2  0  0  0  0  0  0  0  0  0
   25.4986  -19.8875  -12.9818 N   0  0  0  0  0  0  0  0  0  0  0  0
   26.2443  -20.2705  -10.7037 C   0  0  0  0  0  0  0  0  0  0  0  0
   27.3803  -19.8180  -10.9949 O   0  0  0  0  0  0  0  0  0  0  0  0
   25.9089  -20.3562   -9.3336 N   0  0  0  0  0  0  0  0  0  0  0  0
   26.8020  -20.0008   -8.2616 C   0  0  1  0  0  0  0  0  0  0  0  0
   26.0821  -19.7112   -6.9623 C   0  0  0  0  0  0  0  0  0  0  0  0
   26.9560  -19.4007   -5.8445 C   0  0  0  0  0  0  0  0  0  0  0  0
   27.2339  -20.3528   -4.8924 C   0  0  0  0  0  0  0  0  0  0  0  0
   28.0744  -20.0683   -3.8075 C   0  0  0  0  0  0  0  0  0  0  0  0
   28.6326  -18.8177   -3.6893 C   0  0  0  0  0  0  0  0  0  0  0  0
   28.3580  -17.8515   -4.6447 C   0  0  0  0  0  0  0  0  0  0  0  0
   27.5155  -18.1519   -5.7234 C   0  0  0  0  0  0  0  0  0  0  0  0
   27.8486  -21.0437   -8.0423 C   0  0  0  0  0  0  0  0  0  0  0  0
   27.5436  -22.2631   -8.0230 O   0  0  0  0  0  0  0  0  0  0  0  0
   32.4929  -21.4409  -10.4938 C   0  0  0  0  0  0  0  0  0  0  0  0
   31.2612  -21.8467   -9.7190 C   0  0  0  0  0  0  0  0  0  0  0  0
   31.4844  -21.4897   -8.2653 C   0  0  2  0  0  0  0  0  0  0  0  0
   32.6174  -22.3355   -7.7465 C   0  0  0  0  0  0  0  0  0  0  0  0
   30.2212  -21.6873   -7.4516 C   0  0  2  0  0  0  0  0  0  0  0  0
   29.2171  -20.7101   -7.8482 N   0  0  0  0  0  0  0  0  0  0  0  0
   30.4961  -21.5377   -6.0014 C   0  0  0  0  0  0  0  0  0  0  0  0
   30.6881  -20.2797   -5.4465 O   0  0  0  0  0  0  0  0  0  0  0  0
   30.5649  -22.5286   -5.2296 O   0  0  0  0  0  0  0  0  0  0  0  0
  2  1  1  0
  3  2  1  0
  3  4  1  6
  5  3  1  0
  5  7  1  0
  6  5  2  0
  8  7  1  0
  8  9  1  1
  9 10  1  0
 10 11  2  0
 11 12  1  0
 13 12  2  0
 14 13  1  0
 15 10  1  0
 15 14  2  0
 16  8  1  0
 17 16  2  0
 19 18  1  0
 19 20  1  0
 20 22  1  0
 20 21  1  1
 22 23  1  6
 22 24  1  0
 23 16  1  0
 24 25  1  0
 26 24  2  0
M  END
$$$$
