QTF.pdb
     RDKit          3D

 28 28  0  0  1  0  0  0  0  0999 V2000
   29.8238  -20.8380  -18.0978 N   0  0  0  0  0  0  0  0  0  0  0  0
   28.6933  -19.9741  -18.1435 C   0  0  0  0  0  0  0  0  0  0  0  0
   28.8997  -18.7584  -18.3663 O   0  0  0  0  0  0  0  0  0  0  0  0
   27.2926  -20.5068  -17.9333 C   0  0  0  0  0  0  0  0  0  0  0  0
   26.7553  -19.8687  -16.6893 C   0  0  0  0  0  0  0  0  0  0  0  0
   27.1262  -20.5356  -15.4144 C   0  0  2  0  0  0  0  0  0  0  0  0
   26.8319  -21.9595  -15.5371 N   0  0  0  0  0  0  0  0  0  0  0  0
   26.6408  -19.9228  -14.1776 C   0  0  0  0  0  0  0  0  0  0  0  0
   26.0108  -18.8487  -14.2406 O   0  0  0  0  0  0  0  0  0  0  0  0
   24.2987  -20.0893  -13.4632 C   0  0  0  0  0  0  0  0  0  0  0  0
   24.5363  -20.6829  -12.0786 C   0  0  1  0  0  0  0  0  0  0  0  0
   24.4639  -22.0563  -12.2465 O   0  0  0  0  0  0  0  0  0  0  0  0
   26.0006  -20.3400  -11.7364 C   0  0  2  0  0  0  0  0  0  0  0  0
   26.8466  -20.4803  -12.8717 N   0  0  0  0  0  0  0  0  0  0  0  0
   26.4111  -21.0749  -10.5336 C   0  0  0  0  0  0  0  0  0  0  0  0
   27.5184  -21.6874  -10.4421 O   0  0  0  0  0  0  0  0  0  0  0  0
   25.5954  -21.1557   -9.3556 N   0  0  0  0  0  0  0  0  0  0  0  0
   26.1463  -21.0163   -8.0095 C   0  0  1  0  0  0  0  0  0  0  0  0
   26.9712  -19.7863   -7.8761 C   0  0  0  0  0  0  0  0  0  0  0  0
   27.6165  -19.7194   -6.5564 C   0  0  0  0  0  0  0  0  0  0  0  0
   28.1493  -18.5174   -6.1030 C   0  0  0  0  0  0  0  0  0  0  0  0
   28.7595  -18.3969   -4.8836 C   0  0  0  0  0  0  0  0  0  0  0  0
   28.8769  -19.4960   -4.0230 C   0  0  0  0  0  0  0  0  0  0  0  0
   28.3477  -20.6907   -4.4712 C   0  0  0  0  0  0  0  0  0  0  0  0
   27.7347  -20.8066   -5.6996 C   0  0  0  0  0  0  0  0  0  0  0  0
   25.0891  -21.1012   -6.9824 C   0  0  0  0  0  0  0  0  0  0  0  0
   25.1364  -21.8279   -5.8217 O   0  0  0  0  0  0  0  0  0  0  0  0
   23.9983  -20.4351   -7.1740 O   0  0  0  0  0  0  0  0  0  0  0  0
  2  3  2  0
  2  1  1  0
  4  2  1  0
  5  4  1  0
  6  5  1  0
  6  7  1  6
  8  9  2  0
  8  6  1  0
 11 10  1  6
 11 13  1  0
 12 11  1  0
 13 14  1  6
 14  8  1  0
 15 13  1  0
 15 16  2  0
 17 15  1  0
 18 17  1  0
 18 19  1  6
 20 19  1  0
 20 21  2  0
 22 21  1  0
 23 22  2  0
 24 25  2  0
 24 23  1  0
 25 20  1  0
 26 18  1  0
 27 26  1  0
 28 26  2  0
M  END
$$$$
