QTF.pdb
     RDKit          3D

 28 28  0  0  1  0  0  0  0  0999 V2000
   18.0612  -15.3404  -15.0608 N   0  0  0  0  0  0  0  0  0  0  0  0
   17.3669  -15.5274  -16.2893 C   0  0  0  0  0  0  0  0  0  0  0  0
   16.2108  -16.0078  -16.2360 O   0  0  0  0  0  0  0  0  0  0  0  0
   18.0023  -15.1557  -17.6114 C   0  0  0  0  0  0  0  0  0  0  0  0
   19.4002  -14.7020  -17.3219 C   0  0  0  0  0  0  0  0  0  0  0  0
   20.2375  -14.4036  -18.5125 C   0  0  2  0  0  0  0  0  0  0  0  0
   20.8326  -15.6508  -18.9811 N   0  0  0  0  0  0  0  0  0  0  0  0
   21.1792  -13.2894  -18.4008 C   0  0  0  0  0  0  0  0  0  0  0  0
   22.3866  -13.5339  -18.2082 O   0  0  0  0  0  0  0  0  0  0  0  0
   21.9847  -10.7019  -20.7419 C   0  0  0  0  0  0  0  0  0  0  0  0
   21.5806   -9.8380  -19.5518 C   0  0  1  0  0  0  0  0  0  0  0  0
   20.2467   -9.5243  -19.7572 O   0  0  0  0  0  0  0  0  0  0  0  0
   21.6475  -10.7756  -18.3290 C   0  0  2  0  0  0  0  0  0  0  0  0
   20.8025  -11.9081  -18.4953 N   0  0  0  0  0  0  0  0  0  0  0  0
   21.4466   -9.9983  -17.0999 C   0  0  0  0  0  0  0  0  0  0  0  0
   20.3998  -10.0878  -16.3887 O   0  0  0  0  0  0  0  0  0  0  0  0
   22.4232   -9.0757  -16.5952 N   0  0  0  0  0  0  0  0  0  0  0  0
   22.2154   -8.3061  -15.3706 C   0  0  1  0  0  0  0  0  0  0  0  0
   23.1105   -8.7623  -14.2743 C   0  0  0  0  0  0  0  0  0  0  0  0
   24.3752   -9.2918  -14.8061 C   0  0  0  0  0  0  0  0  0  0  0  0
   24.6814  -10.6404  -14.6580 C   0  0  0  0  0  0  0  0  0  0  0  0
   25.8425  -11.1874  -15.1339 C   0  0  0  0  0  0  0  0  0  0  0  0
   26.7901  -10.4017  -15.8025 C   0  0  0  0  0  0  0  0  0  0  0  0
   26.4875   -9.0621  -15.9513 C   0  0  0  0  0  0  0  0  0  0  0  0
   25.3174   -8.5165  -15.4701 C   0  0  0  0  0  0  0  0  0  0  0  0
   22.3232   -6.8550  -15.6205 C   0  0  0  0  0  0  0  0  0  0  0  0
   21.9519   -5.8506  -14.7656 O   0  0  0  0  0  0  0  0  0  0  0  0
   22.8109   -6.4660  -16.7524 O   0  0  0  0  0  0  0  0  0  0  0  0
  2  3  2  0
  2  1  1  0
  4  2  1  0
  5  4  1  0
  6  5  1  0
  6  7  1  1
  8  9  2  0
  8  6  1  0
 11 10  1  6
 11 13  1  0
 12 11  1  0
 13 14  1  6
 14  8  1  0
 15 13  1  0
 15 16  2  0
 17 15  1  0
 18 17  1  0
 18 19  1  1
 20 19  1  0
 20 21  2  0
 22 21  1  0
 23 22  2  0
 24 25  2  0
 24 23  1  0
 25 20  1  0
 26 18  1  0
 27 26  1  0
 28 26  2  0
M  END
$$$$
