QTF.pdb
     RDKit          3D

 28 28  0  0  1  0  0  0  0  0999 V2000
   26.9516  -26.5867  -17.0175 N   0  0  0  0  0  0  0  0  0  0  0  0
   25.6083  -26.7656  -16.5817 C   0  0  0  0  0  0  0  0  0  0  0  0
   25.0282  -27.8272  -16.9082 O   0  0  0  0  0  0  0  0  0  0  0  0
   24.9083  -25.7120  -15.7512 C   0  0  0  0  0  0  0  0  0  0  0  0
   25.8991  -24.6191  -15.4910 C   0  0  0  0  0  0  0  0  0  0  0  0
   25.3595  -23.2361  -15.5521 C   0  0  2  0  0  0  0  0  0  0  0  0
   25.0755  -22.9140  -16.9466 N   0  0  0  0  0  0  0  0  0  0  0  0
   26.1011  -22.2007  -14.8319 C   0  0  0  0  0  0  0  0  0  0  0  0
   26.7884  -21.3865  -15.4796 O   0  0  0  0  0  0  0  0  0  0  0  0
   26.1253  -19.5346  -14.6177 C   0  0  0  0  0  0  0  0  0  0  0  0
   25.8177  -19.6369  -13.1274 C   0  0  1  0  0  0  0  0  0  0  0  0
   24.4530  -19.8617  -13.0450 O   0  0  0  0  0  0  0  0  0  0  0  0
   26.5231  -20.9246  -12.6553 C   0  0  2  0  0  0  0  0  0  0  0  0
   26.0957  -22.0562  -13.4044 N   0  0  0  0  0  0  0  0  0  0  0  0
   26.4133  -21.0405  -11.1960 C   0  0  0  0  0  0  0  0  0  0  0  0
   25.6607  -21.8870  -10.6245 O   0  0  0  0  0  0  0  0  0  0  0  0
   27.1556  -20.2090  -10.2920 N   0  0  0  0  0  0  0  0  0  0  0  0
   27.1568  -20.4275   -8.8473 C   0  0  1  0  0  0  0  0  0  0  0  0
   28.1890  -19.6023   -8.1657 C   0  0  0  0  0  0  0  0  0  0  0  0
   28.2041  -19.8590   -6.7178 C   0  0  0  0  0  0  0  0  0  0  0  0
   27.4760  -19.0422   -5.8592 C   0  0  0  0  0  0  0  0  0  0  0  0
   27.4525  -19.2352   -4.5042 C   0  0  0  0  0  0  0  0  0  0  0  0
   28.1719  -20.2807   -3.9111 C   0  0  0  0  0  0  0  0  0  0  0  0
   28.8950  -21.0937   -4.7622 C   0  0  0  0  0  0  0  0  0  0  0  0
   28.9154  -20.8948   -6.1254 C   0  0  0  0  0  0  0  0  0  0  0  0
   25.8107  -20.2363   -8.2717 C   0  0  0  0  0  0  0  0  0  0  0  0
   25.2318  -20.9891   -7.2839 O   0  0  0  0  0  0  0  0  0  0  0  0
   25.0836  -19.2708   -8.7293 O   0  0  0  0  0  0  0  0  0  0  0  0
  2  3  2  0
  2  1  1  0
  4  2  1  0
  5  4  1  0
  6  5  1  0
  6  7  1  6
  8  9  2  0
  8  6  1  0
 11 10  1  6
 11 13  1  0
 12 11  1  0
 13 14  1  6
 14  8  1  0
 15 13  1  0
 15 16  2  0
 17 15  1  0
 18 17  1  0
 18 19  1  1
 20 19  1  0
 20 21  2  0
 22 21  1  0
 23 22  2  0
 24 25  2  0
 24 23  1  0
 25 20  1  0
 26 18  1  0
 27 26  1  0
 28 26  2  0
M  END
$$$$
