QTF.pdb
     RDKit          3D

 28 28  0  0  1  0  0  0  0  0999 V2000
   15.3047  -23.9272   -4.1450 N   0  0  0  0  0  0  0  0  0  0  0  0
   15.2341  -24.3586   -2.7903 C   0  0  0  0  0  0  0  0  0  0  0  0
   14.5446  -25.3743   -2.5392 O   0  0  0  0  0  0  0  0  0  0  0  0
   15.9687  -23.6180   -1.6941 C   0  0  0  0  0  0  0  0  0  0  0  0
   15.2012  -22.3628   -1.4129 C   0  0  0  0  0  0  0  0  0  0  0  0
   14.2801  -22.4212   -0.2485 C   0  0  2  0  0  0  0  0  0  0  0  0
   12.9469  -22.7631   -0.7329 N   0  0  0  0  0  0  0  0  0  0  0  0
   14.3135  -21.2933    0.6829 C   0  0  0  0  0  0  0  0  0  0  0  0
   13.7328  -20.2344    0.3730 O   0  0  0  0  0  0  0  0  0  0  0  0
   13.2272  -21.1781    4.1201 C   0  0  0  0  0  0  0  0  0  0  0  0
   14.6551  -20.6704    4.2914 C   0  0  1  0  0  0  0  0  0  0  0  0
   15.4032  -21.7808    4.6480 O   0  0  0  0  0  0  0  0  0  0  0  0
   15.1073  -20.2481    2.8787 C   0  0  2  0  0  0  0  0  0  0  0  0
   14.9842  -21.3199    1.9511 N   0  0  0  0  0  0  0  0  0  0  0  0
   16.4277  -19.6108    2.9534 C   0  0  0  0  0  0  0  0  0  0  0  0
   17.5089  -20.2307    2.7165 O   0  0  0  0  0  0  0  0  0  0  0  0
   16.6053  -18.2280    3.2942 N   0  0  0  0  0  0  0  0  0  0  0  0
   17.9115  -17.6644    3.6278 C   0  0  1  0  0  0  0  0  0  0  0  0
   18.4025  -16.7454    2.5668 C   0  0  0  0  0  0  0  0  0  0  0  0
   18.1479  -15.3408    2.9205 C   0  0  0  0  0  0  0  0  0  0  0  0
   16.8809  -14.7967    2.7390 C   0  0  0  0  0  0  0  0  0  0  0  0
   16.5870  -13.4969    3.0519 C   0  0  0  0  0  0  0  0  0  0  0  0
   17.5643  -12.6419    3.5776 C   0  0  0  0  0  0  0  0  0  0  0  0
   18.8233  -13.1807    3.7594 C   0  0  0  0  0  0  0  0  0  0  0  0
   19.1138  -14.4897    3.4425 C   0  0  0  0  0  0  0  0  0  0  0  0
   17.9016  -17.0322    4.9619 C   0  0  0  0  0  0  0  0  0  0  0  0
   18.9968  -16.7066    5.7181 O   0  0  0  0  0  0  0  0  0  0  0  0
   16.7582  -16.7496    5.4940 O   0  0  0  0  0  0  0  0  0  0  0  0
  2  3  2  0
  2  1  1  0
  4  2  1  0
  5  4  1  0
  6  5  1  0
  6  7  1  6
  8  9  2  0
  8  6  1  0
 11 10  1  6
 11 13  1  0
 12 11  1  0
 13 14  1  6
 14  8  1  0
 15 13  1  0
 15 16  2  0
 17 15  1  0
 18 17  1  0
 18 19  1  6
 20 19  1  0
 20 21  2  0
 22 21  1  0
 23 22  2  0
 24 25  2  0
 24 23  1  0
 25 20  1  0
 26 18  1  0
 27 26  1  0
 28 26  2  0
M  END
$$$$
