YDE.pdb
     RDKit          3D

 30 30  0  0  1  0  0  0  0  0999 V2000
    5.0681  -10.3316   26.3921 O   0  0  0  0  0  0  0  0  0  0  0  0
    5.8636  -11.4650   26.1856 C   0  0  0  0  0  0  0  0  0  0  0  0
    6.0074  -12.4411   27.1443 C   0  0  0  0  0  0  0  0  0  0  0  0
    6.8040  -13.5310   26.8809 C   0  0  0  0  0  0  0  0  0  0  0  0
    7.4840  -13.7097   25.6843 C   0  0  0  0  0  0  0  0  0  0  0  0
    8.3317  -14.9132   25.4777 C   0  0  0  0  0  0  0  0  0  0  0  0
    7.6397  -15.7782   24.4352 C   0  0  2  0  0  0  0  0  0  0  0  0
    6.6107  -16.6056   25.0681 N   0  0  0  0  0  0  0  0  0  0  0  0
    8.6764  -16.7351   23.9635 C   0  0  0  0  0  0  0  0  0  0  0  0
    8.8229  -17.8944   24.4195 O   0  0  0  0  0  0  0  0  0  0  0  0
    7.3327  -12.7276   24.7333 C   0  0  0  0  0  0  0  0  0  0  0  0
    6.5356  -11.6219   24.9779 C   0  0  0  0  0  0  0  0  0  0  0  0
    9.5521  -16.2907   22.9258 N   0  0  0  0  0  0  0  0  0  0  0  0
   10.6662  -17.1171   22.5733 C   0  0  1  0  0  0  0  0  0  0  0  0
   11.3856  -16.6174   21.3325 C   0  0  0  0  0  0  0  0  0  0  0  0
   12.4849  -17.5412   20.9741 C   0  0  0  0  0  0  0  0  0  0  0  0
   12.3698  -18.7612   20.7586 O   0  0  0  0  0  0  0  0  0  0  0  0
   11.6535  -17.0781   23.6881 C   0  0  0  0  0  0  0  0  0  0  0  0
   12.1110  -16.0068   24.1556 O   0  0  0  0  0  0  0  0  0  0  0  0
   13.7536  -16.9655   20.8762 O   0  0  0  0  0  0  0  0  0  0  0  0
   12.0631  -18.3302   24.2096 N   0  0  0  0  0  0  0  0  0  0  0  0
   12.9258  -18.4118   25.4309 C   0  0  1  0  0  0  0  0  0  0  0  0
   11.9845  -18.9570   26.4606 C   0  0  0  0  0  0  0  0  0  0  0  0
   12.4890  -19.2758   27.8042 C   0  0  0  0  0  0  0  0  0  0  0  0
   11.4750  -19.8900   28.6679 C   0  0  0  0  0  0  0  0  0  0  0  0
   10.2883  -19.4692   28.6379 O   0  0  0  0  0  0  0  0  0  0  0  0
   14.0563  -19.2310   25.0466 C   0  0  0  0  0  0  0  0  0  0  0  0
   15.1821  -19.0701   25.5653 O   0  0  0  0  0  0  0  0  0  0  0  0
   11.7767  -20.9304   29.5226 O   0  0  0  0  0  0  0  0  0  0  0  0
   13.9522  -20.2251   24.0966 O   0  0  0  0  0  0  0  0  0  0  0  0
  2  1  1  0
  2 12  2  0
  3  2  1  0
  4  3  2  0
  4  5  1  0
  5 11  2  0
  6  5  1  0
  7  6  1  0
  7  8  1  1
  9  7  1  0
 10  9  2  0
 11 12  1  0
 13  9  1  0
 14 13  1  0
 14 15  1  6
 16 15  1  0
 17 16  2  0
 18 14  1  0
 18 19  2  0
 20 16  1  0
 21 18  1  0
 22 21  1  0
 22 23  1  1
 23 24  1  0
 24 25  1  0
 25 29  1  0
 26 25  2  0
 27 22  1  0
 28 27  2  0
 30 27  1  0
M  END
$$$$
