YDE.pdb
     RDKit          3D

 30 30  0  0  1  0  0  0  0  0999 V2000
    8.7623  -12.9541   28.7525 O   0  0  0  0  0  0  0  0  0  0  0  0
    8.2928  -13.3243   27.4866 C   0  0  0  0  0  0  0  0  0  0  0  0
    9.1378  -13.7632   26.4936 C   0  0  0  0  0  0  0  0  0  0  0  0
    8.6148  -14.1117   25.2702 C   0  0  0  0  0  0  0  0  0  0  0  0
    7.2612  -14.0469   24.9708 C   0  0  0  0  0  0  0  0  0  0  0  0
    6.7737  -14.4355   23.6213 C   0  0  0  0  0  0  0  0  0  0  0  0
    6.5457  -15.9394   23.6403 C   0  0  2  0  0  0  0  0  0  0  0  0
    6.1921  -16.3793   24.9914 N   0  0  0  0  0  0  0  0  0  0  0  0
    7.8767  -16.5450   23.3670 C   0  0  0  0  0  0  0  0  0  0  0  0
    8.5139  -17.2438   24.1909 O   0  0  0  0  0  0  0  0  0  0  0  0
    6.4259  -13.6069   25.9711 C   0  0  0  0  0  0  0  0  0  0  0  0
    6.9315  -13.2507   27.2102 C   0  0  0  0  0  0  0  0  0  0  0  0
    8.4516  -16.3061   22.0811 N   0  0  0  0  0  0  0  0  0  0  0  0
    9.6882  -16.9496   21.7569 C   0  0  1  0  0  0  0  0  0  0  0  0
   10.0597  -16.7821   20.2938 C   0  0  0  0  0  0  0  0  0  0  0  0
   11.1563  -17.7097   19.9370 C   0  0  0  0  0  0  0  0  0  0  0  0
   11.1387  -18.9460   20.0764 O   0  0  0  0  0  0  0  0  0  0  0  0
   10.7743  -16.3118   22.5523 C   0  0  0  0  0  0  0  0  0  0  0  0
   10.9670  -15.0715   22.5702 O   0  0  0  0  0  0  0  0  0  0  0  0
   12.3008  -17.1176   19.3982 O   0  0  0  0  0  0  0  0  0  0  0  0
   11.5989  -17.1847   23.3044 N   0  0  0  0  0  0  0  0  0  0  0  0
   12.5171  -16.6567   24.3630 C   0  0  1  0  0  0  0  0  0  0  0  0
   11.9988  -17.3160   25.6041 C   0  0  0  0  0  0  0  0  0  0  0  0
   12.7223  -17.1399   26.8718 C   0  0  0  0  0  0  0  0  0  0  0  0
   12.1157  -17.8754   27.9865 C   0  0  0  0  0  0  0  0  0  0  0  0
   11.9850  -17.3174   29.1080 O   0  0  0  0  0  0  0  0  0  0  0  0
   13.8513  -17.0033   23.9197 C   0  0  0  0  0  0  0  0  0  0  0  0
   14.0506  -17.9673   23.1493 O   0  0  0  0  0  0  0  0  0  0  0  0
   11.6725  -19.1750   27.8490 O   0  0  0  0  0  0  0  0  0  0  0  0
   14.9642  -16.2940   24.3194 O   0  0  0  0  0  0  0  0  0  0  0  0
  2  1  1  0
  2 12  2  0
  3  2  1  0
  4  3  2  0
  4  5  1  0
  5 11  2  0
  6  5  1  0
  7  6  1  0
  7  8  1  1
  9  7  1  0
 10  9  2  0
 11 12  1  0
 13  9  1  0
 14 13  1  0
 14 15  1  6
 16 15  1  0
 17 16  2  0
 18 14  1  0
 18 19  2  0
 20 16  1  0
 21 18  1  0
 22 21  1  0
 22 23  1  1
 23 24  1  0
 24 25  1  0
 25 29  1  0
 26 25  2  0
 27 22  1  0
 28 27  2  0
 30 27  1  0
M  END
$$$$
