YDE.pdb
     RDKit          3D

 30 30  0  0  1  0  0  0  0  0999 V2000
    7.7997  -12.0683   17.0238 O   0  0  0  0  0  0  0  0  0  0  0  0
    7.7285  -12.6561   18.2924 C   0  0  0  0  0  0  0  0  0  0  0  0
    6.6422  -13.3989   18.6935 C   0  0  0  0  0  0  0  0  0  0  0  0
    6.6322  -13.9502   19.9535 C   0  0  0  0  0  0  0  0  0  0  0  0
    7.6708  -13.8007   20.8619 C   0  0  0  0  0  0  0  0  0  0  0  0
    7.5824  -14.4230   22.2090 C   0  0  0  0  0  0  0  0  0  0  0  0
    8.5702  -15.5794   22.2368 C   0  0  2  0  0  0  0  0  0  0  0  0
    8.3562  -16.4541   21.0821 N   0  0  0  0  0  0  0  0  0  0  0  0
    8.1914  -16.3952   23.4216 C   0  0  0  0  0  0  0  0  0  0  0  0
    8.0902  -15.9398   24.5859 O   0  0  0  0  0  0  0  0  0  0  0  0
    8.7516  -13.0564   20.4499 C   0  0  0  0  0  0  0  0  0  0  0  0
    8.7822  -12.4921   19.1856 C   0  0  0  0  0  0  0  0  0  0  0  0
    7.9297  -17.7827   23.2030 N   0  0  0  0  0  0  0  0  0  0  0  0
    7.7175  -18.6242   24.3412 C   0  0  1  0  0  0  0  0  0  0  0  0
    6.7762  -19.7771   24.0390 C   0  0  0  0  0  0  0  0  0  0  0  0
    5.6873  -19.3249   23.1445 C   0  0  0  0  0  0  0  0  0  0  0  0
    5.6282  -19.5136   21.9161 O   0  0  0  0  0  0  0  0  0  0  0  0
    9.0229  -19.2258   24.7325 C   0  0  0  0  0  0  0  0  0  0  0  0
    9.5350  -20.1970   24.1241 O   0  0  0  0  0  0  0  0  0  0  0  0
    4.6465  -18.6266   23.7608 O   0  0  0  0  0  0  0  0  0  0  0  0
    9.6761  -18.6416   25.8460 N   0  0  0  0  0  0  0  0  0  0  0  0
   11.0370  -19.1007   26.2695 C   0  0  1  0  0  0  0  0  0  0  0  0
   11.9420  -18.1456   25.5538 C   0  0  0  0  0  0  0  0  0  0  0  0
   13.3227  -18.5485   25.2496 C   0  0  0  0  0  0  0  0  0  0  0  0
   13.9833  -17.6571   24.2903 C   0  0  0  0  0  0  0  0  0  0  0  0
   14.2572  -18.0739   23.1337 O   0  0  0  0  0  0  0  0  0  0  0  0
   11.0207  -19.0613   27.7169 C   0  0  0  0  0  0  0  0  0  0  0  0
   10.1933  -18.3607   28.3391 O   0  0  0  0  0  0  0  0  0  0  0  0
   14.3177  -16.3574   24.6113 O   0  0  0  0  0  0  0  0  0  0  0  0
   11.9090  -19.7891   28.4804 O   0  0  0  0  0  0  0  0  0  0  0  0
  2  1  1  0
  2 12  2  0
  3  2  1  0
  4  3  2  0
  4  5  1  0
  5 11  2  0
  6  5  1  0
  7  6  1  0
  7  8  1  6
  9  7  1  0
 10  9  2  0
 11 12  1  0
 13  9  1  0
 14 13  1  0
 14 15  1  6
 16 15  1  0
 17 16  2  0
 18 14  1  0
 18 19  2  0
 20 16  1  0
 21 18  1  0
 22 21  1  0
 22 23  1  6
 23 24  1  0
 24 25  1  0
 25 29  1  0
 26 25  2  0
 27 22  1  0
 28 27  2  0
 30 27  1  0
M  END
$$$$
