YDE.pdb
     RDKit          3D

 30 30  0  0  1  0  0  0  0  0999 V2000
    7.5929  -11.4335   27.6722 O   0  0  0  0  0  0  0  0  0  0  0  0
    7.2324  -12.3758   26.7016 C   0  0  0  0  0  0  0  0  0  0  0  0
    6.2412  -13.3050   26.9181 C   0  0  0  0  0  0  0  0  0  0  0  0
    5.9338  -14.2050   25.9246 C   0  0  0  0  0  0  0  0  0  0  0  0
    6.5741  -14.2332   24.6935 C   0  0  0  0  0  0  0  0  0  0  0  0
    6.1886  -15.2423   23.6723 C   0  0  0  0  0  0  0  0  0  0  0  0
    6.8661  -16.5500   24.0528 C   0  0  2  0  0  0  0  0  0  0  0  0
    7.7786  -16.3371   25.1780 N   0  0  0  0  0  0  0  0  0  0  0  0
    7.7403  -16.8932   22.8992 C   0  0  0  0  0  0  0  0  0  0  0  0
    7.4432  -17.7345   22.0175 O   0  0  0  0  0  0  0  0  0  0  0  0
    7.5631  -13.2995   24.4882 C   0  0  0  0  0  0  0  0  0  0  0  0
    7.8887  -12.3844   25.4752 C   0  0  0  0  0  0  0  0  0  0  0  0
    8.9932  -16.2134   22.8039 N   0  0  0  0  0  0  0  0  0  0  0  0
    9.9306  -16.6470   21.8130 C   0  0  1  0  0  0  0  0  0  0  0  0
   10.0475  -15.6651   20.6602 C   0  0  0  0  0  0  0  0  0  0  0  0
    9.3570  -16.1982   19.4647 C   0  0  0  0  0  0  0  0  0  0  0  0
    8.9193  -15.5236   18.5153 O   0  0  0  0  0  0  0  0  0  0  0  0
   11.2775  -16.7324   22.4436 C   0  0  0  0  0  0  0  0  0  0  0  0
   12.2572  -16.0523   22.0523 O   0  0  0  0  0  0  0  0  0  0  0  0
    9.1960  -17.5849   19.4250 O   0  0  0  0  0  0  0  0  0  0  0  0
   11.4080  -17.6347   23.5283 N   0  0  0  0  0  0  0  0  0  0  0  0
   12.3144  -17.3291   24.6805 C   0  0  1  0  0  0  0  0  0  0  0  0
   11.5587  -17.8858   25.8478 C   0  0  0  0  0  0  0  0  0  0  0  0
   12.1460  -17.8062   27.1932 C   0  0  0  0  0  0  0  0  0  0  0  0
   11.2631  -18.3360   28.2378 C   0  0  0  0  0  0  0  0  0  0  0  0
   10.8011  -19.5032   28.1350 O   0  0  0  0  0  0  0  0  0  0  0  0
   13.5827  -17.9405   24.3421 C   0  0  0  0  0  0  0  0  0  0  0  0
   13.6498  -18.8986   23.5420 O   0  0  0  0  0  0  0  0  0  0  0  0
   10.9176  -17.5932   29.3482 O   0  0  0  0  0  0  0  0  0  0  0  0
   14.7747  -17.5018   24.8790 O   0  0  0  0  0  0  0  0  0  0  0  0
  2  1  1  0
  2 12  2  0
  3  2  1  0
  4  3  2  0
  4  5  1  0
  5 11  2  0
  6  5  1  0
  7  6  1  0
  7  8  1  1
  9  7  1  0
 10  9  2  0
 11 12  1  0
 13  9  1  0
 14 13  1  0
 14 15  1  6
 16 15  1  0
 17 16  2  0
 18 14  1  0
 18 19  2  0
 20 16  1  0
 21 18  1  0
 22 21  1  0
 22 23  1  1
 23 24  1  0
 24 25  1  0
 25 29  1  0
 26 25  2  0
 27 22  1  0
 28 27  2  0
 30 27  1  0
M  END
$$$$
