YDE.pdb
     RDKit          3D

 30 30  0  0  1  0  0  0  0  0999 V2000
    9.5459  -12.8679   28.8761 O   0  0  0  0  0  0  0  0  0  0  0  0
    8.8525  -13.2958   27.7377 C   0  0  0  0  0  0  0  0  0  0  0  0
    7.4780  -13.3232   27.6869 C   0  0  0  0  0  0  0  0  0  0  0  0
    6.8555  -13.7550   26.5390 C   0  0  0  0  0  0  0  0  0  0  0  0
    7.5422  -14.1721   25.4073 C   0  0  0  0  0  0  0  0  0  0  0  0
    6.7965  -14.6313   24.2061 C   0  0  0  0  0  0  0  0  0  0  0  0
    6.7079  -16.1479   24.2833 C   0  0  2  0  0  0  0  0  0  0  0  0
    6.4965  -16.5713   25.6690 N   0  0  0  0  0  0  0  0  0  0  0  0
    8.0644  -16.6424   23.9253 C   0  0  0  0  0  0  0  0  0  0  0  0
    8.7691  -17.3644   24.6704 O   0  0  0  0  0  0  0  0  0  0  0  0
    8.9159  -14.1402   25.4695 C   0  0  0  0  0  0  0  0  0  0  0  0
    9.5629  -13.7093   26.6156 C   0  0  0  0  0  0  0  0  0  0  0  0
    8.5827  -16.2621   22.6493 N   0  0  0  0  0  0  0  0  0  0  0  0
    9.7750  -16.9000   22.1800 C   0  0  1  0  0  0  0  0  0  0  0  0
   10.0005  -16.6803   20.6943 C   0  0  0  0  0  0  0  0  0  0  0  0
   11.0637  -17.5840   20.2011 C   0  0  0  0  0  0  0  0  0  0  0  0
   11.5312  -18.5609   20.8137 O   0  0  0  0  0  0  0  0  0  0  0  0
   10.9407  -16.2983   22.8858 C   0  0  0  0  0  0  0  0  0  0  0  0
   11.2637  -15.0917   22.7611 O   0  0  0  0  0  0  0  0  0  0  0  0
   11.5690  -17.2908   18.9325 O   0  0  0  0  0  0  0  0  0  0  0  0
   11.6857  -17.1658   23.7224 N   0  0  0  0  0  0  0  0  0  0  0  0
   12.8322  -16.6535   24.5383 C   0  0  1  0  0  0  0  0  0  0  0  0
   12.7329  -17.4695   25.7905 C   0  0  0  0  0  0  0  0  0  0  0  0
   11.9183  -16.9773   26.9110 C   0  0  0  0  0  0  0  0  0  0  0  0
   11.9003  -17.8952   28.0549 C   0  0  0  0  0  0  0  0  0  0  0  0
   12.6268  -18.9240   28.0442 O   0  0  0  0  0  0  0  0  0  0  0  0
   14.0037  -16.8316   23.7060 C   0  0  0  0  0  0  0  0  0  0  0  0
   14.0088  -17.6435   22.7556 O   0  0  0  0  0  0  0  0  0  0  0  0
   11.1075  -17.6681   29.1613 O   0  0  0  0  0  0  0  0  0  0  0  0
   15.1665  -16.1204   23.9148 O   0  0  0  0  0  0  0  0  0  0  0  0
  2  1  1  0
  2 12  2  0
  3  2  1  0
  4  3  2  0
  4  5  1  0
  5 11  2  0
  6  5  1  0
  7  6  1  0
  7  8  1  1
  9  7  1  0
 10  9  2  0
 11 12  1  0
 13  9  1  0
 14 13  1  0
 14 15  1  6
 16 15  1  0
 17 16  2  0
 18 14  1  0
 18 19  2  0
 20 16  1  0
 21 18  1  0
 22 21  1  0
 22 23  1  1
 23 24  1  0
 24 25  1  0
 25 29  1  0
 26 25  2  0
 27 22  1  0
 28 27  2  0
 30 27  1  0
M  END
$$$$
