YDE.pdb
     RDKit          3D

 30 30  0  0  1  0  0  0  0  0999 V2000
    8.2563  -11.9385   17.7618 O   0  0  0  0  0  0  0  0  0  0  0  0
    8.1703  -12.7212   18.9194 C   0  0  0  0  0  0  0  0  0  0  0  0
    9.2741  -13.0155   19.6860 C   0  0  0  0  0  0  0  0  0  0  0  0
    9.1241  -13.7906   20.8122 C   0  0  0  0  0  0  0  0  0  0  0  0
    7.9041  -14.3031   21.2307 C   0  0  0  0  0  0  0  0  0  0  0  0
    7.8246  -15.1390   22.4575 C   0  0  0  0  0  0  0  0  0  0  0  0
    8.1850  -16.5617   22.0575 C   0  0  2  0  0  0  0  0  0  0  0  0
    7.1497  -17.1182   21.1843 N   0  0  0  0  0  0  0  0  0  0  0  0
    8.1082  -17.3570   23.3122 C   0  0  0  0  0  0  0  0  0  0  0  0
    7.1251  -18.0649   23.6372 O   0  0  0  0  0  0  0  0  0  0  0  0
    6.8076  -14.0024   20.4567 C   0  0  0  0  0  0  0  0  0  0  0  0
    6.9363  -13.2239   19.3187 C   0  0  0  0  0  0  0  0  0  0  0  0
    9.2328  -17.3004   24.1916 N   0  0  0  0  0  0  0  0  0  0  0  0
    9.5714  -18.4712   24.9419 C   0  0  1  0  0  0  0  0  0  0  0  0
    9.8516  -19.6677   24.0493 C   0  0  0  0  0  0  0  0  0  0  0  0
    9.0182  -20.8185   24.4632 C   0  0  0  0  0  0  0  0  0  0  0  0
    8.7118  -21.7900   23.7487 O   0  0  0  0  0  0  0  0  0  0  0  0
   10.8235  -18.1986   25.7016 C   0  0  0  0  0  0  0  0  0  0  0  0
   11.9584  -18.1953   25.1654 O   0  0  0  0  0  0  0  0  0  0  0  0
    8.5471  -20.7849   25.7775 O   0  0  0  0  0  0  0  0  0  0  0  0
   10.6749  -17.9375   27.0863 N   0  0  0  0  0  0  0  0  0  0  0  0
   11.7787  -17.3022   27.8739 C   0  0  1  0  0  0  0  0  0  0  0  0
   11.1059  -16.1059   28.4736 C   0  0  0  0  0  0  0  0  0  0  0  0
   10.2966  -15.2268   27.6170 C   0  0  0  0  0  0  0  0  0  0  0  0
    9.6224  -14.1593   28.3635 C   0  0  0  0  0  0  0  0  0  0  0  0
    9.7275  -14.1089   29.6175 O   0  0  0  0  0  0  0  0  0  0  0  0
   12.2502  -18.3346   28.7730 C   0  0  0  0  0  0  0  0  0  0  0  0
   11.5727  -19.3608   28.9973 O   0  0  0  0  0  0  0  0  0  0  0  0
    8.8686  -13.1907   27.7327 O   0  0  0  0  0  0  0  0  0  0  0  0
   13.4624  -18.2424   29.4241 O   0  0  0  0  0  0  0  0  0  0  0  0
  2  1  1  0
  2 12  2  0
  3  2  1  0
  4  3  2  0
  4  5  1  0
  5 11  2  0
  6  5  1  0
  7  6  1  0
  7  8  1  6
  9  7  1  0
 10  9  2  0
 11 12  1  0
 13  9  1  0
 14 13  1  0
 14 15  1  6
 16 15  1  0
 17 16  2  0
 18 14  1  0
 18 19  2  0
 20 16  1  0
 21 18  1  0
 22 21  1  0
 22 23  1  1
 23 24  1  0
 24 25  1  0
 25 29  1  0
 26 25  2  0
 27 22  1  0
 28 27  2  0
 30 27  1  0
M  END
$$$$
