YDE.pdb
     RDKit          3D

 30 30  0  0  1  0  0  0  0  0999 V2000
    4.7431  -10.4972   26.3504 O   0  0  0  0  0  0  0  0  0  0  0  0
    5.6435  -11.5462   26.1288 C   0  0  0  0  0  0  0  0  0  0  0  0
    6.5934  -11.4958   25.1349 C   0  0  0  0  0  0  0  0  0  0  0  0
    7.4490  -12.5596   24.9673 C   0  0  0  0  0  0  0  0  0  0  0  0
    7.4123  -13.7018   25.7548 C   0  0  0  0  0  0  0  0  0  0  0  0
    8.3682  -14.8129   25.5068 C   0  0  0  0  0  0  0  0  0  0  0  0
    7.6975  -15.7771   24.5400 C   0  0  2  0  0  0  0  0  0  0  0  0
    6.6662  -16.5514   25.2335 N   0  0  0  0  0  0  0  0  0  0  0  0
    8.7480  -16.7642   24.1729 C   0  0  0  0  0  0  0  0  0  0  0  0
    8.8966  -17.8752   24.7358 O   0  0  0  0  0  0  0  0  0  0  0  0
    6.4587  -13.7409   26.7453 C   0  0  0  0  0  0  0  0  0  0  0  0
    5.5871  -12.6810   26.9312 C   0  0  0  0  0  0  0  0  0  0  0  0
    9.6352  -16.4096   23.1107 N   0  0  0  0  0  0  0  0  0  0  0  0
   10.7906  -17.2241   22.8867 C   0  0  1  0  0  0  0  0  0  0  0  0
   11.6167  -16.7419   21.7070 C   0  0  0  0  0  0  0  0  0  0  0  0
   11.0026  -17.1906   20.4375 C   0  0  0  0  0  0  0  0  0  0  0  0
   11.0472  -16.5834   19.3524 O   0  0  0  0  0  0  0  0  0  0  0  0
   11.6668  -17.1400   24.0885 C   0  0  0  0  0  0  0  0  0  0  0  0
   12.0497  -16.0491   24.5773 O   0  0  0  0  0  0  0  0  0  0  0  0
   10.3182  -18.4069   20.4912 O   0  0  0  0  0  0  0  0  0  0  0  0
   12.0582  -18.3719   24.6690 N   0  0  0  0  0  0  0  0  0  0  0  0
   12.9146  -18.4079   25.8969 C   0  0  1  0  0  0  0  0  0  0  0  0
   12.2087  -19.4091   26.7588 C   0  0  0  0  0  0  0  0  0  0  0  0
   10.9852  -19.0138   27.4717 C   0  0  0  0  0  0  0  0  0  0  0  0
   10.3712  -20.1189   28.2156 C   0  0  0  0  0  0  0  0  0  0  0  0
   11.0240  -20.7049   29.1193 O   0  0  0  0  0  0  0  0  0  0  0  0
   14.2437  -18.7380   25.4267 C   0  0  0  0  0  0  0  0  0  0  0  0
   14.4189  -19.3671   24.3608 O   0  0  0  0  0  0  0  0  0  0  0  0
    9.0836  -20.5445   27.9608 O   0  0  0  0  0  0  0  0  0  0  0  0
   15.3783  -18.3784   26.1231 O   0  0  0  0  0  0  0  0  0  0  0  0
  2  1  1  0
  2 12  2  0
  3  2  1  0
  4  3  2  0
  4  5  1  0
  5 11  2  0
  6  5  1  0
  7  6  1  0
  7  8  1  1
  9  7  1  0
 10  9  2  0
 11 12  1  0
 13  9  1  0
 14 13  1  0
 14 15  1  6
 16 15  1  0
 17 16  2  0
 18 14  1  0
 18 19  2  0
 20 16  1  0
 21 18  1  0
 22 21  1  0
 22 23  1  1
 23 24  1  0
 24 25  1  0
 25 29  1  0
 26 25  2  0
 27 22  1  0
 28 27  2  0
 30 27  1  0
M  END
$$$$
