YDE.pdb
     RDKit          3D

 30 30  0  0  1  0  0  0  0  0999 V2000
    8.5415  -12.6013   28.0283 O   0  0  0  0  0  0  0  0  0  0  0  0
    8.1193  -13.1523   26.8126 C   0  0  0  0  0  0  0  0  0  0  0  0
    6.7945  -13.4153   26.5506 C   0  0  0  0  0  0  0  0  0  0  0  0
    6.4435  -13.9579   25.3365 C   0  0  0  0  0  0  0  0  0  0  0  0
    7.3612  -14.2616   24.3406 C   0  0  0  0  0  0  0  0  0  0  0  0
    6.9033  -14.8529   23.0560 C   0  0  0  0  0  0  0  0  0  0  0  0
    6.7692  -16.3526   23.2726 C   0  0  2  0  0  0  0  0  0  0  0  0
    6.2544  -16.6245   24.6161 N   0  0  0  0  0  0  0  0  0  0  0  0
    8.1607  -16.8785   23.2725 C   0  0  0  0  0  0  0  0  0  0  0  0
    8.6578  -17.5527   24.2060 O   0  0  0  0  0  0  0  0  0  0  0  0
    8.6826  -13.9942   24.6136 C   0  0  0  0  0  0  0  0  0  0  0  0
    9.0579  -13.4482   25.8296 C   0  0  0  0  0  0  0  0  0  0  0  0
    8.9686  -16.5888   22.1302 N   0  0  0  0  0  0  0  0  0  0  0  0
   10.2390  -17.2373   22.0114 C   0  0  1  0  0  0  0  0  0  0  0  0
   10.9348  -16.9080   20.7022 C   0  0  0  0  0  0  0  0  0  0  0  0
   10.2821  -17.6247   19.5839 C   0  0  0  0  0  0  0  0  0  0  0  0
    9.8962  -17.1129   18.5175 O   0  0  0  0  0  0  0  0  0  0  0  0
   11.1235  -16.7452   23.1044 C   0  0  0  0  0  0  0  0  0  0  0  0
   11.4520  -15.5397   23.2241 O   0  0  0  0  0  0  0  0  0  0  0  0
   10.0953  -18.9963   19.7690 O   0  0  0  0  0  0  0  0  0  0  0  0
   11.5884  -17.7183   24.0235 N   0  0  0  0  0  0  0  0  0  0  0  0
   12.4171  -17.3265   25.2076 C   0  0  1  0  0  0  0  0  0  0  0  0
   11.6966  -17.9855   26.3435 C   0  0  0  0  0  0  0  0  0  0  0  0
   12.3084  -17.9926   27.6803 C   0  0  0  0  0  0  0  0  0  0  0  0
   11.4706  -18.6448   28.6922 C   0  0  0  0  0  0  0  0  0  0  0  0
   10.3304  -19.0775   28.3774 O   0  0  0  0  0  0  0  0  0  0  0  0
   13.7580  -17.7802   24.9030 C   0  0  0  0  0  0  0  0  0  0  0  0
   14.7600  -17.2434   25.4229 O   0  0  0  0  0  0  0  0  0  0  0  0
   11.8931  -18.8080   29.9957 O   0  0  0  0  0  0  0  0  0  0  0  0
   13.9997  -18.8209   24.0311 O   0  0  0  0  0  0  0  0  0  0  0  0
  2  1  1  0
  2 12  2  0
  3  2  1  0
  4  3  2  0
  4  5  1  0
  5 11  2  0
  6  5  1  0
  7  6  1  0
  7  8  1  1
  9  7  1  0
 10  9  2  0
 11 12  1  0
 13  9  1  0
 14 13  1  0
 14 15  1  6
 16 15  1  0
 17 16  2  0
 18 14  1  0
 18 19  2  0
 20 16  1  0
 21 18  1  0
 22 21  1  0
 22 23  1  1
 23 24  1  0
 24 25  1  0
 25 29  1  0
 26 25  2  0
 27 22  1  0
 28 27  2  0
 30 27  1  0
M  END
$$$$
