YDE.pdb
     RDKit          3D

 30 30  0  0  1  0  0  0  0  0999 V2000
    8.7001  -13.4844   18.8756 O   0  0  0  0  0  0  0  0  0  0  0  0
    8.4262  -13.3739   20.2441 C   0  0  0  0  0  0  0  0  0  0  0  0
    7.7684  -12.2871   20.7721 C   0  0  0  0  0  0  0  0  0  0  0  0
    7.5296  -12.2373   22.1256 C   0  0  0  0  0  0  0  0  0  0  0  0
    7.9185  -13.2355   23.0080 C   0  0  0  0  0  0  0  0  0  0  0  0
    7.6290  -13.1053   24.4602 C   0  0  0  0  0  0  0  0  0  0  0  0
    6.4820  -14.0526   24.7777 C   0  0  2  0  0  0  0  0  0  0  0  0
    5.8211  -13.6466   26.0197 N   0  0  0  0  0  0  0  0  0  0  0  0
    7.1217  -15.3602   25.0838 C   0  0  0  0  0  0  0  0  0  0  0  0
    7.6034  -15.6630   26.2016 O   0  0  0  0  0  0  0  0  0  0  0  0
    8.5751  -14.3172   22.4689 C   0  0  0  0  0  0  0  0  0  0  0  0
    8.8261  -14.3875   21.1088 C   0  0  0  0  0  0  0  0  0  0  0  0
    7.1835  -16.3205   24.0277 N   0  0  0  0  0  0  0  0  0  0  0  0
    7.6581  -17.6366   24.3297 C   0  0  1  0  0  0  0  0  0  0  0  0
    7.3231  -18.6359   23.2362 C   0  0  0  0  0  0  0  0  0  0  0  0
    7.7973  -19.9853   23.6163 C   0  0  0  0  0  0  0  0  0  0  0  0
    8.7197  -20.6144   23.0672 O   0  0  0  0  0  0  0  0  0  0  0  0
    9.1437  -17.5905   24.4300 C   0  0  0  0  0  0  0  0  0  0  0  0
    9.8559  -16.8870   23.6728 O   0  0  0  0  0  0  0  0  0  0  0  0
    7.1326  -20.5820   24.6899 O   0  0  0  0  0  0  0  0  0  0  0  0
    9.7311  -18.3929   25.4393 N   0  0  0  0  0  0  0  0  0  0  0  0
   11.1334  -18.1450   25.9025 C   0  0  1  0  0  0  0  0  0  0  0  0
   11.0028  -18.2150   27.3930 C   0  0  0  0  0  0  0  0  0  0  0  0
   11.6123  -17.1649   28.2219 C   0  0  0  0  0  0  0  0  0  0  0  0
   11.4031  -17.3732   29.6587 C   0  0  0  0  0  0  0  0  0  0  0  0
   10.8446  -18.4267   30.0642 O   0  0  0  0  0  0  0  0  0  0  0  0
   11.9373  -19.1546   25.2458 C   0  0  0  0  0  0  0  0  0  0  0  0
   11.4117  -20.1361   24.6775 O   0  0  0  0  0  0  0  0  0  0  0  0
   11.8051  -16.4452   30.5975 O   0  0  0  0  0  0  0  0  0  0  0  0
   13.3142  -19.0877   25.2115 O   0  0  0  0  0  0  0  0  0  0  0  0
  2  1  1  0
  2 12  2  0
  3  2  1  0
  4  3  2  0
  4  5  1  0
  5 11  2  0
  6  5  1  0
  7  6  1  0
  7  8  1  1
  9  7  1  0
 10  9  2  0
 11 12  1  0
 13  9  1  0
 14 13  1  0
 14 15  1  6
 16 15  1  0
 17 16  2  0
 18 14  1  0
 18 19  2  0
 20 16  1  0
 21 18  1  0
 22 21  1  0
 22 23  1  1
 23 24  1  0
 24 25  1  0
 25 29  1  0
 26 25  2  0
 27 22  1  0
 28 27  2  0
 30 27  1  0
M  END
$$$$
