CQA.pdb
     RDKit          3D

 21 20  0  0  1  0  0  0  0  0999 V2000
    5.2172  -13.7242   26.3498 N   0  0  0  0  0  0  0  0  0  0  0  0
    6.3663  -13.1586   25.7058 C   0  0  1  0  0  0  0  0  0  0  0  0
    7.3791  -12.6333   26.7193 C   0  0  0  0  0  0  0  0  0  0  0  0
    6.8033  -11.1089   27.4923 S   0  0  0  0  0  0  0  0  0  0  0  0
    7.0905  -14.2114   24.9076 C   0  0  0  0  0  0  0  0  0  0  0  0
    7.2259  -15.3738   25.3671 O   0  0  0  0  0  0  0  0  0  0  0  0
    7.6715  -12.3425   18.9293 N   0  0  0  0  0  0  0  0  0  0  0  0
    7.8606  -13.6758   19.3532 C   0  0  0  0  0  0  0  0  0  0  0  0
    8.3084  -14.5171   18.5491 O   0  0  0  0  0  0  0  0  0  0  0  0
    7.5082  -14.0252   20.7753 C   0  0  0  0  0  0  0  0  0  0  0  0
    8.7260  -14.4025   21.5511 C   0  0  0  0  0  0  0  0  0  0  0  0
    8.3744  -14.9430   22.9061 C   0  0  2  0  0  0  0  0  0  0  0  0
    7.6306  -13.9342   23.6428 N   0  0  0  0  0  0  0  0  0  0  0  0
    9.5042  -15.4637   23.6676 C   0  0  0  0  0  0  0  0  0  0  0  0
   10.3188  -14.6708   24.1924 O   0  0  0  0  0  0  0  0  0  0  0  0
   10.7646  -16.6629   26.0361 C   0  0  0  0  0  0  0  0  0  0  0  0
   10.8628  -17.2811   24.6569 C   0  0  2  0  0  0  0  0  0  0  0  0
    9.7366  -16.8680   23.8510 N   0  0  0  0  0  0  0  0  0  0  0  0
   10.9636  -18.7471   24.7782 C   0  0  0  0  0  0  0  0  0  0  0  0
   10.0723  -19.6105   24.1698 O   0  0  0  0  0  0  0  0  0  0  0  0
   11.8927  -19.2375   25.4591 O   0  0  0  0  0  0  0  0  0  0  0  0
  2  1  1  1
  2  5  1  0
  3  2  1  0
  4  3  1  0
  5  6  2  0
  7  8  1  0
  8  9  2  0
  8 10  1  0
 10 11  1  0
 12 11  1  6
 12 14  1  0
 13 12  1  0
 13  5  1  0
 14 15  2  0
 14 18  1  0
 17 16  1  1
 18 17  1  0
 19 17  1  0
 19 20  1  0
 21 19  2  0
M  END
$$$$
