CQA.pdb
     RDKit          3D

 21 20  0  0  1  0  0  0  0  0999 V2000
    7.9963  -14.9974   17.4194 N   0  0  0  0  0  0  0  0  0  0  0  0
    8.6091  -14.5235   18.6255 C   0  0  1  0  0  0  0  0  0  0  0  0
    7.7691  -13.4408   19.2970 C   0  0  0  0  0  0  0  0  0  0  0  0
    7.9342  -11.8597   18.4450 S   0  0  0  0  0  0  0  0  0  0  0  0
    8.7206  -15.6407   19.6303 C   0  0  0  0  0  0  0  0  0  0  0  0
    7.7898  -16.4766   19.7547 O   0  0  0  0  0  0  0  0  0  0  0  0
   11.9438  -19.3839   18.9603 N   0  0  0  0  0  0  0  0  0  0  0  0
   12.5102  -18.0933   19.0421 C   0  0  0  0  0  0  0  0  0  0  0  0
   13.3730  -17.7486   18.2105 O   0  0  0  0  0  0  0  0  0  0  0  0
   12.0402  -17.1806   20.1442 C   0  0  0  0  0  0  0  0  0  0  0  0
   10.9885  -17.8396   20.9729 C   0  0  0  0  0  0  0  0  0  0  0  0
    9.9424  -16.8615   21.4210 C   0  0  2  0  0  0  0  0  0  0  0  0
    9.8506  -15.7840   20.4493 N   0  0  0  0  0  0  0  0  0  0  0  0
   10.1131  -16.3661   22.7823 C   0  0  0  0  0  0  0  0  0  0  0  0
   11.0569  -15.5869   23.0468 O   0  0  0  0  0  0  0  0  0  0  0  0
    8.2164  -15.6761   25.7857 C   0  0  0  0  0  0  0  0  0  0  0  0
    9.5003  -16.1979   25.1747 C   0  0  2  0  0  0  0  0  0  0  0  0
    9.2370  -16.7328   23.8582 N   0  0  0  0  0  0  0  0  0  0  0  0
   10.1091  -17.1921   26.0774 C   0  0  0  0  0  0  0  0  0  0  0  0
   10.3324  -18.5036   25.7031 O   0  0  0  0  0  0  0  0  0  0  0  0
   10.4401  -16.8409   27.2325 O   0  0  0  0  0  0  0  0  0  0  0  0
  2  1  1  6
  2  5  1  0
  3  2  1  0
  4  3  1  0
  5  6  2  0
  7  8  1  0
  8  9  2  0
  8 10  1  0
 10 11  1  0
 12 11  1  6
 12 14  1  0
 13 12  1  0
 13  5  1  0
 14 15  2  0
 14 18  1  0
 17 16  1  1
 18 17  1  0
 19 17  1  0
 19 20  1  0
 21 19  2  0
M  END
$$$$
