CQA.pdb
     RDKit          3D

 21 20  0  0  1  0  0  0  0  0999 V2000
    7.0112  -15.3969   19.2319 N   0  0  0  0  0  0  0  0  0  0  0  0
    7.7503  -14.6712   20.2229 C   0  0  1  0  0  0  0  0  0  0  0  0
    7.5851  -13.1632   20.0573 C   0  0  0  0  0  0  0  0  0  0  0  0
    8.6970  -12.5164   18.7930 S   0  0  0  0  0  0  0  0  0  0  0  0
    7.2341  -14.9932   21.6013 C   0  0  0  0  0  0  0  0  0  0  0  0
    6.0000  -14.9617   21.8393 O   0  0  0  0  0  0  0  0  0  0  0  0
    8.1132  -19.7020   23.5269 N   0  0  0  0  0  0  0  0  0  0  0  0
    6.7726  -19.2597   23.5394 C   0  0  0  0  0  0  0  0  0  0  0  0
    5.8691  -20.0309   23.1602 O   0  0  0  0  0  0  0  0  0  0  0  0
    6.4918  -17.8589   24.0162 C   0  0  0  0  0  0  0  0  0  0  0  0
    7.7605  -17.1065   24.2435 C   0  0  0  0  0  0  0  0  0  0  0  0
    7.5901  -15.6396   23.9772 C   0  0  2  0  0  0  0  0  0  0  0  0
    8.1006  -15.3340   22.6507 N   0  0  0  0  0  0  0  0  0  0  0  0
    8.1500  -14.7643   25.0009 C   0  0  0  0  0  0  0  0  0  0  0  0
    9.3922  -14.6509   25.1107 O   0  0  0  0  0  0  0  0  0  0  0  0
    6.9901  -12.3074   27.5994 C   0  0  0  0  0  0  0  0  0  0  0  0
    7.9854  -13.2452   26.9483 C   0  0  2  0  0  0  0  0  0  0  0  0
    7.3342  -14.0096   25.9089 N   0  0  0  0  0  0  0  0  0  0  0  0
    8.6035  -14.1019   27.9770 C   0  0  0  0  0  0  0  0  0  0  0  0
    8.5454  -15.4820   27.9339 O   0  0  0  0  0  0  0  0  0  0  0  0
    9.2078  -13.5637   28.9322 O   0  0  0  0  0  0  0  0  0  0  0  0
  2  1  1  6
  2  5  1  0
  3  2  1  0
  4  3  1  0
  5  6  2  0
  7  8  1  0
  8  9  2  0
  8 10  1  0
 10 11  1  0
 12 11  1  1
 12 14  1  0
 13 12  1  0
 13  5  1  0
 14 15  2  0
 14 18  1  0
 17 16  1  1
 18 17  1  0
 19 17  1  0
 19 20  1  0
 21 19  2  0
M  END
$$$$
