CQA.pdb
     RDKit          3D

 21 20  0  0  1  0  0  0  0  0999 V2000
    7.8339  -14.8042   18.5611 N   0  0  0  0  0  0  0  0  0  0  0  0
    8.8615  -14.3550   19.4539 C   0  0  1  0  0  0  0  0  0  0  0  0
    8.3617  -13.2477   20.3774 C   0  0  0  0  0  0  0  0  0  0  0  0
    7.9966  -11.7405   19.4565 S   0  0  0  0  0  0  0  0  0  0  0  0
    9.2984  -15.4789   20.3574 C   0  0  0  0  0  0  0  0  0  0  0  0
    8.4762  -16.3594   20.7168 O   0  0  0  0  0  0  0  0  0  0  0  0
   14.1371  -18.8177   22.5061 N   0  0  0  0  0  0  0  0  0  0  0  0
   13.3559  -19.4095   21.4900 C   0  0  0  0  0  0  0  0  0  0  0  0
   13.5215  -20.6138   21.2123 O   0  0  0  0  0  0  0  0  0  0  0  0
   12.3454  -18.5481   20.7791 C   0  0  0  0  0  0  0  0  0  0  0  0
   12.3866  -17.1452   21.2866 C   0  0  0  0  0  0  0  0  0  0  0  0
   11.0259  -16.6649   21.6985 C   0  0  2  0  0  0  0  0  0  0  0  0
   10.6186  -15.5793   20.8215 N   0  0  0  0  0  0  0  0  0  0  0  0
   10.9040  -16.3125   23.1087 C   0  0  0  0  0  0  0  0  0  0  0  0
   11.6739  -15.4590   23.6053 O   0  0  0  0  0  0  0  0  0  0  0  0
    8.4722  -16.4732   25.8659 C   0  0  0  0  0  0  0  0  0  0  0  0
    9.9008  -16.5023   25.3636 C   0  0  2  0  0  0  0  0  0  0  0  0
    9.9266  -16.9057   23.9761 N   0  0  0  0  0  0  0  0  0  0  0  0
   10.7095  -17.3853   26.2241 C   0  0  0  0  0  0  0  0  0  0  0  0
   10.9874  -17.0911   27.5455 O   0  0  0  0  0  0  0  0  0  0  0  0
   11.1666  -18.4475   25.7447 O   0  0  0  0  0  0  0  0  0  0  0  0
  2  1  1  6
  2  5  1  0
  3  2  1  0
  4  3  1  0
  5  6  2  0
  7  8  1  0
  8  9  2  0
  8 10  1  0
 10 11  1  0
 12 11  1  6
 12 14  1  0
 13 12  1  0
 13  5  1  0
 14 15  2  0
 14 18  1  0
 17 16  1  1
 18 17  1  0
 19 17  1  0
 19 20  1  0
 21 19  2  0
M  END
$$$$
