CQA.pdb
     RDKit          3D

 21 20  0  0  1  0  0  0  0  0999 V2000
    8.0996  -13.7540   16.7366 N   0  0  0  0  0  0  0  0  0  0  0  0
    8.6223  -13.5041   18.0478 C   0  0  1  0  0  0  0  0  0  0  0  0
    7.5076  -13.3231   19.0741 C   0  0  0  0  0  0  0  0  0  0  0  0
    8.1655  -13.2546   20.7521 S   0  0  0  0  0  0  0  0  0  0  0  0
    9.4317  -14.6831   18.5224 C   0  0  0  0  0  0  0  0  0  0  0  0
    9.0512  -15.8550   18.2725 O   0  0  0  0  0  0  0  0  0  0  0  0
   15.3785  -15.3794   19.2739 N   0  0  0  0  0  0  0  0  0  0  0  0
   14.6539  -14.3784   18.5912 C   0  0  0  0  0  0  0  0  0  0  0  0
   15.2711  -13.4877   17.9743 O   0  0  0  0  0  0  0  0  0  0  0  0
   13.1496  -14.4332   18.6402 C   0  0  0  0  0  0  0  0  0  0  0  0
   12.6782  -15.7590   19.1373 C   0  0  0  0  0  0  0  0  0  0  0  0
   11.3337  -15.6578   19.7960 C   0  0  2  0  0  0  0  0  0  0  0  0
   10.6202  -14.5154   19.2488 N   0  0  0  0  0  0  0  0  0  0  0  0
   11.3679  -15.6423   21.2541 C   0  0  0  0  0  0  0  0  0  0  0  0
   11.9886  -14.7339   21.8520 O   0  0  0  0  0  0  0  0  0  0  0  0
    9.6624  -17.2502   24.1528 C   0  0  0  0  0  0  0  0  0  0  0  0
   10.8312  -16.5465   23.4950 C   0  0  2  0  0  0  0  0  0  0  0  0
   10.7132  -16.6352   22.0574 N   0  0  0  0  0  0  0  0  0  0  0  0
   12.0961  -17.1163   23.9946 C   0  0  0  0  0  0  0  0  0  0  0  0
   12.5052  -16.9900   25.3087 O   0  0  0  0  0  0  0  0  0  0  0  0
   12.8353  -17.7417   23.2013 O   0  0  0  0  0  0  0  0  0  0  0  0
  2  1  1  6
  2  5  1  0
  3  2  1  0
  4  3  1  0
  5  6  2  0
  7  8  1  0
  8  9  2  0
  8 10  1  0
 10 11  1  0
 12 11  1  6
 12 14  1  0
 13 12  1  0
 13  5  1  0
 14 15  2  0
 14 18  1  0
 17 16  1  1
 18 17  1  0
 19 17  1  0
 19 20  1  0
 21 19  2  0
M  END
$$$$
