CQA.pdb
     RDKit          3D

 21 20  0  0  1  0  0  0  0  0999 V2000
    8.3447  -14.8420   16.8713 N   0  0  0  0  0  0  0  0  0  0  0  0
    8.9507  -14.0385   17.8922 C   0  0  1  0  0  0  0  0  0  0  0  0
    7.9171  -13.5152   18.8855 C   0  0  0  0  0  0  0  0  0  0  0  0
    6.8064  -12.3243   18.1101 S   0  0  0  0  0  0  0  0  0  0  0  0
    9.9190  -14.8621   18.7010 C   0  0  0  0  0  0  0  0  0  0  0  0
    9.6829  -16.0758   18.9288 O   0  0  0  0  0  0  0  0  0  0  0  0
   15.8741  -13.5590   19.5091 N   0  0  0  0  0  0  0  0  0  0  0  0
   15.3471  -14.3009   18.4297 C   0  0  0  0  0  0  0  0  0  0  0  0
   16.0139  -14.4177   17.3825 O   0  0  0  0  0  0  0  0  0  0  0  0
   13.9864  -14.9252   18.5949 C   0  0  0  0  0  0  0  0  0  0  0  0
   13.3901  -14.5672   19.9154 C   0  0  0  0  0  0  0  0  0  0  0  0
   11.9932  -15.0973   20.0545 C   0  0  2  0  0  0  0  0  0  0  0  0
   11.1000  -14.3105   19.2199 N   0  0  0  0  0  0  0  0  0  0  0  0
   11.5153  -15.2052   21.4284 C   0  0  0  0  0  0  0  0  0  0  0  0
   10.6372  -14.4158   21.8451 O   0  0  0  0  0  0  0  0  0  0  0  0
    9.9195  -16.7180   23.4560 C   0  0  0  0  0  0  0  0  0  0  0  0
   11.3677  -16.3131   23.6370 C   0  0  2  0  0  0  0  0  0  0  0  0
   12.0093  -16.1901   22.3479 N   0  0  0  0  0  0  0  0  0  0  0  0
   12.0463  -17.2833   24.5158 C   0  0  0  0  0  0  0  0  0  0  0  0
   11.7489  -17.4100   25.8595 O   0  0  0  0  0  0  0  0  0  0  0  0
   12.9296  -18.0267   24.0317 O   0  0  0  0  0  0  0  0  0  0  0  0
  2  1  1  6
  2  5  1  0
  3  2  1  0
  4  3  1  0
  5  6  2  0
  7  8  1  0
  8  9  2  0
  8 10  1  0
 10 11  1  0
 12 11  1  1
 12 14  1  0
 13 12  1  0
 13  5  1  0
 14 15  2  0
 14 18  1  0
 17 16  1  6
 18 17  1  0
 19 17  1  0
 19 20  1  0
 21 19  2  0
M  END
$$$$
