CQA.pdb
     RDKit          3D

 21 20  0  0  1  0  0  0  0  0999 V2000
    8.5294  -15.2476   19.8734 N   0  0  0  0  0  0  0  0  0  0  0  0
    8.4621  -14.2379   20.8887 C   0  0  1  0  0  0  0  0  0  0  0  0
    7.7775  -12.9722   20.3807 C   0  0  0  0  0  0  0  0  0  0  0  0
    8.3630  -12.5255   18.7342 S   0  0  0  0  0  0  0  0  0  0  0  0
    7.6310  -14.7177   22.0503 C   0  0  0  0  0  0  0  0  0  0  0  0
    7.3855  -13.9491   23.0144 O   0  0  0  0  0  0  0  0  0  0  0  0
    4.0329  -19.6268   22.1189 N   0  0  0  0  0  0  0  0  0  0  0  0
    4.4616  -18.7949   21.0618 C   0  0  0  0  0  0  0  0  0  0  0  0
    4.2300  -19.1319   19.8839 O   0  0  0  0  0  0  0  0  0  0  0  0
    5.1881  -17.5224   21.4101 C   0  0  0  0  0  0  0  0  0  0  0  0
    5.2552  -17.3319   22.8888 C   0  0  0  0  0  0  0  0  0  0  0  0
    6.4564  -16.5270   23.2899 C   0  0  2  0  0  0  0  0  0  0  0  0
    7.1104  -16.0198   22.0947 N   0  0  0  0  0  0  0  0  0  0  0  0
    7.3849  -17.2172   24.1782 C   0  0  0  0  0  0  0  0  0  0  0  0
    6.9483  -17.8326   25.1775 O   0  0  0  0  0  0  0  0  0  0  0  0
    9.3928  -19.4960   24.5828 C   0  0  0  0  0  0  0  0  0  0  0  0
    9.6288  -18.0229   24.8438 C   0  0  2  0  0  0  0  0  0  0  0  0
    8.8037  -17.2285   23.9625 N   0  0  0  0  0  0  0  0  0  0  0  0
   11.0645  -17.7191   24.7004 C   0  0  0  0  0  0  0  0  0  0  0  0
   12.0390  -18.3389   25.4594 O   0  0  0  0  0  0  0  0  0  0  0  0
   11.4231  -16.8653   23.8581 O   0  0  0  0  0  0  0  0  0  0  0  0
  2  1  1  6
  2  5  1  0
  3  2  1  0
  4  3  1  0
  5  6  2  0
  7  8  1  0
  8  9  2  0
  8 10  1  0
 10 11  1  0
 12 11  1  6
 12 14  1  0
 13 12  1  0
 13  5  1  0
 14 15  2  0
 14 18  1  0
 17 16  1  6
 18 17  1  0
 19 17  1  0
 19 20  1  0
 21 19  2  0
M  END
$$$$
