CQA.pdb
     RDKit          3D

 21 20  0  0  1  0  0  0  0  0999 V2000
    5.1266  -13.2978   25.9281 N   0  0  0  0  0  0  0  0  0  0  0  0
    6.1611  -13.1888   24.9417 C   0  0  1  0  0  0  0  0  0  0  0  0
    6.9639  -11.9015   25.1067 C   0  0  0  0  0  0  0  0  0  0  0  0
    7.4126  -11.6247   26.8315 S   0  0  0  0  0  0  0  0  0  0  0  0
    7.1512  -14.3141   25.0946 C   0  0  0  0  0  0  0  0  0  0  0  0
    7.1609  -15.0123   26.1402 O   0  0  0  0  0  0  0  0  0  0  0  0
   12.3845  -17.9743   21.4467 N   0  0  0  0  0  0  0  0  0  0  0  0
   11.0359  -17.5864   21.6009 C   0  0  0  0  0  0  0  0  0  0  0  0
   10.2807  -17.5861   20.6087 O   0  0  0  0  0  0  0  0  0  0  0  0
   10.5653  -17.1856   22.9744 C   0  0  0  0  0  0  0  0  0  0  0  0
    9.6399  -16.0169   22.9032 C   0  0  0  0  0  0  0  0  0  0  0  0
    9.0072  -15.7293   24.2332 C   0  0  2  0  0  0  0  0  0  0  0  0
    8.0824  -14.6168   24.0899 N   0  0  0  0  0  0  0  0  0  0  0  0
    9.9507  -15.5274   25.3271 C   0  0  0  0  0  0  0  0  0  0  0  0
   10.7522  -14.5663   25.2877 O   0  0  0  0  0  0  0  0  0  0  0  0
   10.6116  -14.7310   28.1312 C   0  0  0  0  0  0  0  0  0  0  0  0
   10.9484  -16.0774   27.5247 C   0  0  2  0  0  0  0  0  0  0  0  0
   10.0100  -16.3914   26.4715 N   0  0  0  0  0  0  0  0  0  0  0  0
   10.9748  -17.1038   28.5830 C   0  0  0  0  0  0  0  0  0  0  0  0
   10.1436  -18.2079   28.5741 O   0  0  0  0  0  0  0  0  0  0  0  0
   11.7810  -16.9764   29.5322 O   0  0  0  0  0  0  0  0  0  0  0  0
  2  1  1  1
  2  5  1  0
  3  2  1  0
  4  3  1  0
  5  6  2  0
  7  8  1  0
  8  9  2  0
  8 10  1  0
 10 11  1  0
 12 11  1  6
 12 14  1  0
 13 12  1  0
 13  5  1  0
 14 15  2  0
 14 18  1  0
 17 16  1  1
 18 17  1  0
 19 17  1  0
 19 20  1  0
 21 19  2  0
M  END
$$$$
