CQA.pdb
     RDKit          3D

 21 20  0  0  1  0  0  0  0  0999 V2000
    8.1634  -14.5509   17.1614 N   0  0  0  0  0  0  0  0  0  0  0  0
    8.9385  -13.8176   18.1186 C   0  0  1  0  0  0  0  0  0  0  0  0
    8.1117  -13.4429   19.3453 C   0  0  0  0  0  0  0  0  0  0  0  0
    6.8551  -12.2145   18.9392 S   0  0  0  0  0  0  0  0  0  0  0  0
   10.0751  -14.6637   18.6307 C   0  0  0  0  0  0  0  0  0  0  0  0
    9.9630  -15.9150   18.6770 O   0  0  0  0  0  0  0  0  0  0  0  0
   15.7460  -13.9840   17.3233 N   0  0  0  0  0  0  0  0  0  0  0  0
   15.9805  -14.8601   18.4052 C   0  0  0  0  0  0  0  0  0  0  0  0
   17.0766  -15.4484   18.4913 O   0  0  0  0  0  0  0  0  0  0  0  0
   14.8820  -15.0464   19.4187 C   0  0  0  0  0  0  0  0  0  0  0  0
   13.6829  -14.2317   19.0639 C   0  0  0  0  0  0  0  0  0  0  0  0
   12.4088  -14.9224   19.4532 C   0  0  2  0  0  0  0  0  0  0  0  0
   11.2798  -14.0920   19.0669 N   0  0  0  0  0  0  0  0  0  0  0  0
   12.3403  -15.3345   20.8507 C   0  0  0  0  0  0  0  0  0  0  0  0
   12.6342  -14.5194   21.7546 O   0  0  0  0  0  0  0  0  0  0  0  0
   10.6599  -17.9002   22.8871 C   0  0  0  0  0  0  0  0  0  0  0  0
   11.8021  -16.9308   22.6645 C   0  0  2  0  0  0  0  0  0  0  0  0
   11.9449  -16.6541   21.2532 N   0  0  0  0  0  0  0  0  0  0  0  0
   13.0357  -17.4746   23.2616 C   0  0  0  0  0  0  0  0  0  0  0  0
   14.1482  -17.8024   22.5100 O   0  0  0  0  0  0  0  0  0  0  0  0
   13.0847  -17.6493   24.5002 O   0  0  0  0  0  0  0  0  0  0  0  0
  2  1  1  6
  2  5  1  0
  3  2  1  0
  4  3  1  0
  5  6  2  0
  7  8  1  0
  8  9  2  0
  8 10  1  0
 10 11  1  0
 12 11  1  1
 12 14  1  0
 13 12  1  0
 13  5  1  0
 14 15  2  0
 14 18  1  0
 17 16  1  6
 18 17  1  0
 19 17  1  0
 19 20  1  0
 21 19  2  0
M  END
$$$$
