CQA.pdb
     RDKit          3D

 21 20  0  0  1  0  0  0  0  0999 V2000
    8.0427  -13.7060   16.4842 N   0  0  0  0  0  0  0  0  0  0  0  0
    8.4870  -13.2848   17.7804 C   0  0  1  0  0  0  0  0  0  0  0  0
    7.3512  -13.3034   18.7994 C   0  0  0  0  0  0  0  0  0  0  0  0
    7.9741  -13.0996   20.4797 S   0  0  0  0  0  0  0  0  0  0  0  0
    9.5311  -14.2333   18.3099 C   0  0  0  0  0  0  0  0  0  0  0  0
    9.3647  -15.4759   18.2159 O   0  0  0  0  0  0  0  0  0  0  0  0
   16.0154  -16.1917   18.1272 N   0  0  0  0  0  0  0  0  0  0  0  0
   15.3774  -15.0125   18.5694 C   0  0  0  0  0  0  0  0  0  0  0  0
   15.8428  -13.9034   18.2407 O   0  0  0  0  0  0  0  0  0  0  0  0
   14.1482  -15.1502   19.4289 C   0  0  0  0  0  0  0  0  0  0  0  0
   13.0705  -14.2234   18.9741 C   0  0  0  0  0  0  0  0  0  0  0  0
   11.7142  -14.6941   19.4105 C   0  0  2  0  0  0  0  0  0  0  0  0
   10.7074  -13.7687   18.9171 N   0  0  0  0  0  0  0  0  0  0  0  0
   11.5851  -14.9405   20.8424 C   0  0  0  0  0  0  0  0  0  0  0  0
   11.6676  -13.9852   21.6477 O   0  0  0  0  0  0  0  0  0  0  0  0
   10.2231  -17.4748   23.1409 C   0  0  0  0  0  0  0  0  0  0  0  0
   11.2231  -16.3833   22.8210 C   0  0  2  0  0  0  0  0  0  0  0  0
   11.3638  -16.2489   21.3890 N   0  0  0  0  0  0  0  0  0  0  0  0
   12.5044  -16.6750   23.4899 C   0  0  0  0  0  0  0  0  0  0  0  0
   12.6785  -16.5561   24.8557 O   0  0  0  0  0  0  0  0  0  0  0  0
   13.4795  -17.0464   22.7982 O   0  0  0  0  0  0  0  0  0  0  0  0
  2  1  1  6
  2  5  1  0
  3  2  1  0
  4  3  1  0
  5  6  2  0
  7  8  1  0
  8  9  2  0
  8 10  1  0
 10 11  1  0
 12 11  1  1
 12 14  1  0
 13 12  1  0
 13  5  1  0
 14 15  2  0
 14 18  1  0
 17 16  1  6
 18 17  1  0
 19 17  1  0
 19 20  1  0
 21 19  2  0
M  END
$$$$
