CQA.pdb
     RDKit          3D

 21 20  0  0  1  0  0  0  0  0999 V2000
    5.5056  -19.9791   21.5144 N   0  0  0  0  0  0  0  0  0  0  0  0
    5.3498  -18.5546   21.5528 C   0  0  1  0  0  0  0  0  0  0  0  0
    4.7477  -18.0888   22.8754 C   0  0  0  0  0  0  0  0  0  0  0  0
    5.7724  -18.5862   24.2739 S   0  0  0  0  0  0  0  0  0  0  0  0
    6.6921  -17.8780   21.4503 C   0  0  0  0  0  0  0  0  0  0  0  0
    7.7476  -18.5292   21.6565 O   0  0  0  0  0  0  0  0  0  0  0  0
    7.9444  -12.5244   18.4933 N   0  0  0  0  0  0  0  0  0  0  0  0
    9.2363  -12.9370   18.8857 C   0  0  0  0  0  0  0  0  0  0  0  0
   10.2320  -12.3114   18.4709 O   0  0  0  0  0  0  0  0  0  0  0  0
    9.3538  -14.1290   19.7988 C   0  0  0  0  0  0  0  0  0  0  0  0
    8.0089  -14.6870   20.1262 C   0  0  0  0  0  0  0  0  0  0  0  0
    8.1088  -15.8750   21.0375 C   0  0  2  0  0  0  0  0  0  0  0  0
    6.8079  -16.5180   21.1258 N   0  0  0  0  0  0  0  0  0  0  0  0
    8.6761  -15.5908   22.3509 C   0  0  0  0  0  0  0  0  0  0  0  0
    9.8890  -15.2979   22.4543 O   0  0  0  0  0  0  0  0  0  0  0  0
    7.5130  -14.5562   25.6954 C   0  0  0  0  0  0  0  0  0  0  0  0
    8.5288  -15.2282   24.7952 C   0  0  2  0  0  0  0  0  0  0  0  0
    7.9000  -15.6301   23.5576 N   0  0  0  0  0  0  0  0  0  0  0  0
    9.1488  -16.3604   25.5079 C   0  0  0  0  0  0  0  0  0  0  0  0
    9.8934  -16.2001   26.6611 O   0  0  0  0  0  0  0  0  0  0  0  0
    8.9986  -17.5180   25.0556 O   0  0  0  0  0  0  0  0  0  0  0  0
  2  1  1  1
  2  5  1  0
  3  2  1  0
  4  3  1  0
  5  6  2  0
  7  8  1  0
  8  9  2  0
  8 10  1  0
 10 11  1  0
 12 11  1  6
 12 14  1  0
 13 12  1  0
 13  5  1  0
 14 15  2  0
 14 18  1  0
 17 16  1  1
 18 17  1  0
 19 17  1  0
 19 20  1  0
 21 19  2  0
M  END
$$$$
