GWH.pdb
     RDKit          3D

 29 31  0  0  1  0  0  0  0  0999 V2000
   27.1827  -23.9072  -16.8732 N   0  0  0  0  0  0  0  0  0  0  0  0
   27.5109  -22.6376  -16.2672 C   0  0  0  0  0  0  0  0  0  0  0  0
   26.7722  -22.5056  -14.9835 C   0  0  0  0  0  0  0  0  0  0  0  0
   25.6640  -23.1167  -14.8147 O   0  0  0  0  0  0  0  0  0  0  0  0
   27.2274  -21.7229  -13.8980 N   0  0  0  0  0  0  0  0  0  0  0  0
   26.4548  -21.5261  -12.6877 C   0  0  1  0  0  0  0  0  0  0  0  0
   27.3052  -20.9613  -11.5704 C   0  0  0  0  0  0  0  0  0  0  0  0
   26.5536  -20.6583  -10.3517 C   0  0  0  0  0  0  0  0  0  0  0  0
   25.1941  -20.5378  -10.1873 C   0  0  0  0  0  0  0  0  0  0  0  0
   24.9103  -20.2511   -8.9050 N   0  0  0  0  0  0  0  0  0  0  0  0
   26.0751  -20.1845   -8.2356 C   0  0  0  0  0  0  0  0  0  0  0  0
   26.3914  -19.9240   -6.9012 C   0  0  0  0  0  0  0  0  0  0  0  0
   27.6902  -19.9086   -6.4393 C   0  0  0  0  0  0  0  0  0  0  0  0
   28.7140  -20.1633   -7.3444 C   0  0  0  0  0  0  0  0  0  0  0  0
   28.4430  -20.4215   -8.6545 C   0  0  0  0  0  0  0  0  0  0  0  0
   27.1304  -20.4327   -9.1011 C   0  0  0  0  0  0  0  0  0  0  0  0
   25.3473  -20.5616  -12.9257 C   0  0  0  0  0  0  0  0  0  0  0  0
   25.6290  -19.3645  -13.1572 O   0  0  0  0  0  0  0  0  0  0  0  0
   24.0002  -20.9651  -12.8957 N   0  0  0  0  0  0  0  0  0  0  0  0
   22.8619  -20.0574  -13.1600 C   0  0  1  0  0  0  0  0  0  0  0  0
   22.1580  -20.4459  -14.4193 C   0  0  0  0  0  0  0  0  0  0  0  0
   22.8798  -19.9200  -15.5962 C   0  0  0  0  0  0  0  0  0  0  0  0
   24.0587  -19.2441  -15.6637 C   0  0  0  0  0  0  0  0  0  0  0  0
   24.4027  -19.0193  -16.9625 N   0  0  0  0  0  0  0  0  0  0  0  0
   23.4425  -19.5544  -17.7064 C   0  0  0  0  0  0  0  0  0  0  0  0
   22.5213  -20.0992  -16.9096 N   0  0  0  0  0  0  0  0  0  0  0  0
   21.8808  -20.3000  -12.0328 C   0  0  0  0  0  0  0  0  0  0  0  0
   20.8964  -19.3243  -11.7685 O   0  0  0  0  0  0  0  0  0  0  0  0
   21.8523  -21.2892  -11.3025 O   0  0  0  0  0  0  0  0  0  0  0  0
  1  2  1  0
  2  3  1  0
  3  4  2  0
  5  3  1  0
  5  6  1  0
  6 17  1  0
  6  7  1  1
  8  7  1  0
  9  8  2  0
 10 11  1  0
 10  9  1  0
 11 16  2  0
 12 11  1  0
 12 13  2  0
 13 14  1  0
 14 15  2  0
 16  8  1  0
 16 15  1  0
 17 18  2  0
 19 20  1  0
 19 17  1  0
 20 27  1  0
 20 21  1  6
 22 21  1  0
 23 22  2  0
 24 23  1  0
 25 24  1  0
 25 26  2  0
 26 22  1  0
 27 29  2  0
 27 28  1  0
M  END
$$$$
