GWH.pdb
     RDKit          3D

 29 31  0  0  1  0  0  0  0  0999 V2000
   27.9266  -23.1259  -15.1344 N   0  0  0  0  0  0  0  0  0  0  0  0
   27.4441  -21.8092  -14.7878 C   0  0  0  0  0  0  0  0  0  0  0  0
   26.5867  -21.9081  -13.5770 C   0  0  0  0  0  0  0  0  0  0  0  0
   25.8302  -22.9225  -13.4073 O   0  0  0  0  0  0  0  0  0  0  0  0
   26.5492  -20.9225  -12.5646 N   0  0  0  0  0  0  0  0  0  0  0  0
   25.5391  -20.8959  -11.5256 C   0  0  1  0  0  0  0  0  0  0  0  0
   25.9638  -20.0307  -10.3587 C   0  0  0  0  0  0  0  0  0  0  0  0
   27.2275  -20.4437   -9.7465 C   0  0  0  0  0  0  0  0  0  0  0  0
   28.2591  -21.1610  -10.3040 C   0  0  0  0  0  0  0  0  0  0  0  0
   29.2416  -21.3289   -9.4021 N   0  0  0  0  0  0  0  0  0  0  0  0
   28.8557  -20.7260   -8.2632 C   0  0  0  0  0  0  0  0  0  0  0  0
   29.4591  -20.5798   -7.0130 C   0  0  0  0  0  0  0  0  0  0  0  0
   28.8538  -19.9041   -5.9750 C   0  0  0  0  0  0  0  0  0  0  0  0
   27.5967  -19.3524   -6.1929 C   0  0  0  0  0  0  0  0  0  0  0  0
   26.9771  -19.4752   -7.4001 C   0  0  0  0  0  0  0  0  0  0  0  0
   27.6012  -20.1585   -8.4326 C   0  0  0  0  0  0  0  0  0  0  0  0
   24.2659  -20.3314  -12.0488 C   0  0  0  0  0  0  0  0  0  0  0  0
   24.2789  -19.1926  -12.5676 O   0  0  0  0  0  0  0  0  0  0  0  0
   23.0570  -21.0463  -11.9724 N   0  0  0  0  0  0  0  0  0  0  0  0
   21.7602  -20.5272  -12.4608 C   0  0  1  0  0  0  0  0  0  0  0  0
   21.1831  -21.4373  -13.4957 C   0  0  0  0  0  0  0  0  0  0  0  0
   21.8630  -21.2395  -14.7923 C   0  0  0  0  0  0  0  0  0  0  0  0
   22.8849  -20.4035  -15.1207 C   0  0  0  0  0  0  0  0  0  0  0  0
   23.2637  -20.6029  -16.4140 N   0  0  0  0  0  0  0  0  0  0  0  0
   22.4820  -21.5624  -16.8937 C   0  0  0  0  0  0  0  0  0  0  0  0
   21.6366  -21.9582  -15.9403 N   0  0  0  0  0  0  0  0  0  0  0  0
   20.8257  -20.5897  -11.2713 C   0  0  0  0  0  0  0  0  0  0  0  0
   21.2810  -21.1978  -10.0823 O   0  0  0  0  0  0  0  0  0  0  0  0
   19.6771  -20.1518  -11.2334 O   0  0  0  0  0  0  0  0  0  0  0  0
  1  2  1  0
  2  3  1  0
  3  4  2  0
  5  3  1  0
  5  6  1  0
  6 17  1  0
  6  7  1  1
  8  7  1  0
  9  8  2  0
 10 11  1  0
 10  9  1  0
 11 16  2  0
 12 11  1  0
 12 13  2  0
 13 14  1  0
 14 15  2  0
 16  8  1  0
 16 15  1  0
 17 18  2  0
 19 20  1  0
 19 17  1  0
 20 27  1  0
 20 21  1  6
 22 21  1  0
 23 22  2  0
 24 23  1  0
 25 24  1  0
 25 26  2  0
 26 22  1  0
 27 29  2  0
 27 28  1  0
M  END
$$$$
