GWH.pdb
     RDKit          3D

 29 31  0  0  1  0  0  0  0  0999 V2000
   29.0109  -20.8021  -14.2989 N   0  0  0  0  0  0  0  0  0  0  0  0
   28.6122  -19.9354  -13.2141 C   0  0  0  0  0  0  0  0  0  0  0  0
   27.6351  -20.6522  -12.3524 C   0  0  0  0  0  0  0  0  0  0  0  0
   26.9805  -21.6465  -12.8139 O   0  0  0  0  0  0  0  0  0  0  0  0
   27.3709  -20.2973  -11.0100 N   0  0  0  0  0  0  0  0  0  0  0  0
   26.2648  -20.8461  -10.2511 C   0  0  1  0  0  0  0  0  0  0  0  0
   26.4057  -20.5553   -8.7726 C   0  0  0  0  0  0  0  0  0  0  0  0
   27.7590  -20.7643   -8.2560 C   0  0  0  0  0  0  0  0  0  0  0  0
   28.8185  -21.4042   -8.8541 C   0  0  0  0  0  0  0  0  0  0  0  0
   29.8889  -21.3776   -8.0414 N   0  0  0  0  0  0  0  0  0  0  0  0
   29.5326  -20.7254   -6.9203 C   0  0  0  0  0  0  0  0  0  0  0  0
   30.2201  -20.4010   -5.7496 C   0  0  0  0  0  0  0  0  0  0  0  0
   29.6290  -19.7109   -4.7128 C   0  0  0  0  0  0  0  0  0  0  0  0
   28.2994  -19.3292   -4.8495 C   0  0  0  0  0  0  0  0  0  0  0  0
   27.5968  -19.6284   -5.9779 C   0  0  0  0  0  0  0  0  0  0  0  0
   28.2079  -20.3234   -7.0104 C   0  0  0  0  0  0  0  0  0  0  0  0
   24.9778  -20.2460  -10.6949 C   0  0  0  0  0  0  0  0  0  0  0  0
   24.8617  -19.0000  -10.6963 O   0  0  0  0  0  0  0  0  0  0  0  0
   23.8969  -21.0449  -11.1095 N   0  0  0  0  0  0  0  0  0  0  0  0
   22.9162  -20.6349  -12.1390 C   0  0  1  0  0  0  0  0  0  0  0  0
   23.3078  -21.1623  -13.4810 C   0  0  0  0  0  0  0  0  0  0  0  0
   22.3707  -20.6811  -14.5169 C   0  0  0  0  0  0  0  0  0  0  0  0
   21.3384  -19.8007  -14.4155 C   0  0  0  0  0  0  0  0  0  0  0  0
   20.7849  -19.5758  -15.6398 N   0  0  0  0  0  0  0  0  0  0  0  0
   21.4700  -20.3124  -16.5059 C   0  0  0  0  0  0  0  0  0  0  0  0
   22.4238  -20.9816  -15.8558 N   0  0  0  0  0  0  0  0  0  0  0  0
   21.6250  -21.3331  -11.7684 C   0  0  0  0  0  0  0  0  0  0  0  0
   21.6470  -22.7262  -11.5452 O   0  0  0  0  0  0  0  0  0  0  0  0
   20.5267  -20.7953  -11.6376 O   0  0  0  0  0  0  0  0  0  0  0  0
  1  2  1  0
  2  3  1  0
  3  4  2  0
  5  3  1  0
  5  6  1  0
  6 17  1  0
  6  7  1  1
  8  7  1  0
  9  8  2  0
 10 11  1  0
 10  9  1  0
 11 16  2  0
 12 11  1  0
 12 13  2  0
 13 14  1  0
 14 15  2  0
 16  8  1  0
 16 15  1  0
 17 18  2  0
 19 20  1  0
 19 17  1  0
 20 27  1  0
 20 21  1  6
 22 21  1  0
 23 22  2  0
 24 23  1  0
 25 24  1  0
 25 26  2  0
 26 22  1  0
 27 29  2  0
 27 28  1  0
M  END
$$$$
