GWH.pdb
     RDKit          3D

 29 31  0  0  1  0  0  0  0  0999 V2000
   26.7104  -24.0310  -14.7326 N   0  0  0  0  0  0  0  0  0  0  0  0
   26.6653  -22.6132  -14.4593 C   0  0  0  0  0  0  0  0  0  0  0  0
   25.8996  -22.3834  -13.2055 C   0  0  0  0  0  0  0  0  0  0  0  0
   25.0953  -23.2750  -12.7718 O   0  0  0  0  0  0  0  0  0  0  0  0
   26.0037  -21.2045  -12.4325 N   0  0  0  0  0  0  0  0  0  0  0  0
   25.0561  -20.8558  -11.3928 C   0  0  1  0  0  0  0  0  0  0  0  0
   25.6597  -19.8983  -10.3881 C   0  0  0  0  0  0  0  0  0  0  0  0
   26.9689  -20.3175   -9.8856 C   0  0  0  0  0  0  0  0  0  0  0  0
   27.9506  -21.0296  -10.5327 C   0  0  0  0  0  0  0  0  0  0  0  0
   29.0036  -21.2063   -9.7159 N   0  0  0  0  0  0  0  0  0  0  0  0
   28.7129  -20.6145   -8.5435 C   0  0  0  0  0  0  0  0  0  0  0  0
   29.4169  -20.4804   -7.3456 C   0  0  0  0  0  0  0  0  0  0  0  0
   28.8993  -19.8147   -6.2551 C   0  0  0  0  0  0  0  0  0  0  0  0
   27.6291  -19.2606   -6.3638 C   0  0  0  0  0  0  0  0  0  0  0  0
   26.9125  -19.3717   -7.5174 C   0  0  0  0  0  0  0  0  0  0  0  0
   27.4493  -20.0450   -8.6041 C   0  0  0  0  0  0  0  0  0  0  0  0
   23.8637  -20.1843  -11.9763 C   0  0  0  0  0  0  0  0  0  0  0  0
   23.9580  -18.9876  -12.3303 O   0  0  0  0  0  0  0  0  0  0  0  0
   22.6416  -20.8620  -12.1367 N   0  0  0  0  0  0  0  0  0  0  0  0
   21.3997  -20.2188  -12.6196 C   0  0  1  0  0  0  0  0  0  0  0  0
   21.4007  -20.1214  -14.1106 C   0  0  0  0  0  0  0  0  0  0  0  0
   21.8056  -21.4093  -14.7106 C   0  0  0  0  0  0  0  0  0  0  0  0
   22.1205  -22.5887  -14.1097 C   0  0  0  0  0  0  0  0  0  0  0  0
   22.3571  -23.5495  -15.0460 N   0  0  0  0  0  0  0  0  0  0  0  0
   22.1893  -22.9737  -16.2301 C   0  0  0  0  0  0  0  0  0  0  0  0
   21.8585  -21.6932  -16.0531 N   0  0  0  0  0  0  0  0  0  0  0  0
   20.2822  -21.1737  -12.2572 C   0  0  0  0  0  0  0  0  0  0  0  0
   20.6096  -22.3932  -11.6274 O   0  0  0  0  0  0  0  0  0  0  0  0
   19.0832  -20.9905  -12.4607 O   0  0  0  0  0  0  0  0  0  0  0  0
  1  2  1  0
  2  3  1  0
  3  4  2  0
  5  3  1  0
  5  6  1  0
  6 17  1  0
  6  7  1  1
  8  7  1  0
  9  8  2  0
 10 11  1  0
 10  9  1  0
 11 16  2  0
 12 11  1  0
 12 13  2  0
 13 14  1  0
 14 15  2  0
 16  8  1  0
 16 15  1  0
 17 18  2  0
 19 20  1  0
 19 17  1  0
 20 27  1  0
 20 21  1  6
 22 21  1  0
 23 22  2  0
 24 23  1  0
 25 24  1  0
 25 26  2  0
 26 22  1  0
 27 29  2  0
 27 28  1  0
M  END
$$$$
