GWH.pdb
     RDKit          3D

 29 31  0  0  1  0  0  0  0  0999 V2000
   28.9176  -21.1365  -15.2690 N   0  0  0  0  0  0  0  0  0  0  0  0
   28.2268  -20.1598  -14.4593 C   0  0  0  0  0  0  0  0  0  0  0  0
   27.2518  -20.8582  -13.5803 C   0  0  0  0  0  0  0  0  0  0  0  0
   26.7677  -21.9871  -13.9284 O   0  0  0  0  0  0  0  0  0  0  0  0
   26.8075  -20.3412  -12.3421 N   0  0  0  0  0  0  0  0  0  0  0  0
   25.8386  -21.0201  -11.5049 C   0  0  1  0  0  0  0  0  0  0  0  0
   25.9493  -20.5841  -10.0599 C   0  0  0  0  0  0  0  0  0  0  0  0
   27.2872  -20.7562   -9.4919 C   0  0  0  0  0  0  0  0  0  0  0  0
   28.3834  -21.3741  -10.0453 C   0  0  0  0  0  0  0  0  0  0  0  0
   29.4220  -21.3156   -9.1939 N   0  0  0  0  0  0  0  0  0  0  0  0
   29.0084  -20.6645   -8.0918 C   0  0  0  0  0  0  0  0  0  0  0  0
   29.6438  -20.3153   -6.8990 C   0  0  0  0  0  0  0  0  0  0  0  0
   28.9980  -19.6326   -5.8904 C   0  0  0  0  0  0  0  0  0  0  0  0
   27.6656  -19.2846   -6.0791 C   0  0  0  0  0  0  0  0  0  0  0  0
   27.0129  -19.6088   -7.2304 C   0  0  0  0  0  0  0  0  0  0  0  0
   27.6786  -20.2957   -8.2341 C   0  0  0  0  0  0  0  0  0  0  0  0
   24.4537  -20.7099  -11.9512 C   0  0  0  0  0  0  0  0  0  0  0  0
   24.1230  -19.5127  -12.1043 O   0  0  0  0  0  0  0  0  0  0  0  0
   23.5156  -21.7274  -12.2023 N   0  0  0  0  0  0  0  0  0  0  0  0
   22.1887  -21.4924  -12.8135 C   0  0  1  0  0  0  0  0  0  0  0  0
   21.5910  -22.7769  -13.2882 C   0  0  0  0  0  0  0  0  0  0  0  0
   20.3127  -22.5240  -13.9844 C   0  0  0  0  0  0  0  0  0  0  0  0
   19.7078  -21.3449  -14.2924 C   0  0  0  0  0  0  0  0  0  0  0  0
   18.5752  -21.5677  -15.0158 N   0  0  0  0  0  0  0  0  0  0  0  0
   18.4719  -22.8830  -15.1617 C   0  0  0  0  0  0  0  0  0  0  0  0
   19.5012  -23.4748  -14.5528 N   0  0  0  0  0  0  0  0  0  0  0  0
   21.3046  -21.0037  -11.6858 C   0  0  0  0  0  0  0  0  0  0  0  0
   20.2326  -20.1384  -11.9906 O   0  0  0  0  0  0  0  0  0  0  0  0
   21.4279  -21.2920  -10.4966 O   0  0  0  0  0  0  0  0  0  0  0  0
  1  2  1  0
  2  3  1  0
  3  4  2  0
  5  3  1  0
  5  6  1  0
  6 17  1  0
  6  7  1  1
  8  7  1  0
  9  8  2  0
 10 11  1  0
 10  9  1  0
 11 16  2  0
 12 11  1  0
 12 13  2  0
 13 14  1  0
 14 15  2  0
 16  8  1  0
 16 15  1  0
 17 18  2  0
 19 20  1  0
 19 17  1  0
 20 27  1  0
 20 21  1  1
 22 21  1  0
 23 22  2  0
 24 23  1  0
 25 24  1  0
 25 26  2  0
 26 22  1  0
 27 29  2  0
 27 28  1  0
M  END
$$$$
