GWH.pdb
     RDKit          3D

 29 31  0  0  1  0  0  0  0  0999 V2000
   28.9773  -19.5483  -13.2176 N   0  0  0  0  0  0  0  0  0  0  0  0
   28.0443  -20.4492  -13.8537 C   0  0  0  0  0  0  0  0  0  0  0  0
   27.1075  -20.9826  -12.8296 C   0  0  0  0  0  0  0  0  0  0  0  0
   26.4332  -22.0408  -13.0654 O   0  0  0  0  0  0  0  0  0  0  0  0
   26.9038  -20.3783  -11.5681 N   0  0  0  0  0  0  0  0  0  0  0  0
   25.8270  -20.7579  -10.6754 C   0  0  1  0  0  0  0  0  0  0  0  0
   26.1135  -20.3408   -9.2491 C   0  0  0  0  0  0  0  0  0  0  0  0
   27.4528  -20.7051   -8.7849 C   0  0  0  0  0  0  0  0  0  0  0  0
   28.4066  -21.4637   -9.4210 C   0  0  0  0  0  0  0  0  0  0  0  0
   29.5043  -21.5610   -8.6512 N   0  0  0  0  0  0  0  0  0  0  0  0
   29.2705  -20.8714   -7.5202 C   0  0  0  0  0  0  0  0  0  0  0  0
   30.0367  -20.6284   -6.3790 C   0  0  0  0  0  0  0  0  0  0  0  0
   29.5710  -19.8739   -5.3233 C   0  0  0  0  0  0  0  0  0  0  0  0
   28.2903  -19.3407   -5.4096 C   0  0  0  0  0  0  0  0  0  0  0  0
   27.5136  -19.5570   -6.5080 C   0  0  0  0  0  0  0  0  0  0  0  0
   27.9988  -20.3186   -7.5602 C   0  0  0  0  0  0  0  0  0  0  0  0
   24.5565  -20.0970  -11.0783 C   0  0  0  0  0  0  0  0  0  0  0  0
   24.5169  -18.8473  -11.1315 O   0  0  0  0  0  0  0  0  0  0  0  0
   23.4075  -20.8427  -11.3980 N   0  0  0  0  0  0  0  0  0  0  0  0
   22.3024  -20.3337  -12.2401 C   0  0  1  0  0  0  0  0  0  0  0  0
   22.6241  -20.4987  -13.6898 C   0  0  0  0  0  0  0  0  0  0  0  0
   21.5250  -19.9715  -14.5246 C   0  0  0  0  0  0  0  0  0  0  0  0
   20.9299  -18.7481  -14.5087 C   0  0  0  0  0  0  0  0  0  0  0  0
   20.0100  -18.6552  -15.5092 N   0  0  0  0  0  0  0  0  0  0  0  0
   20.0302  -19.8170  -16.1509 C   0  0  0  0  0  0  0  0  0  0  0  0
   20.9298  -20.6194  -15.5788 N   0  0  0  0  0  0  0  0  0  0  0  0
   21.1268  -21.2455  -11.9594 C   0  0  0  0  0  0  0  0  0  0  0  0
   21.3640  -22.4806  -11.3197 O   0  0  0  0  0  0  0  0  0  0  0  0
   19.9519  -21.0135  -12.2392 O   0  0  0  0  0  0  0  0  0  0  0  0
  1  2  1  0
  2  3  1  0
  3  4  2  0
  5  3  1  0
  5  6  1  0
  6 17  1  0
  6  7  1  1
  8  7  1  0
  9  8  2  0
 10 11  1  0
 10  9  1  0
 11 16  2  0
 12 11  1  0
 12 13  2  0
 13 14  1  0
 14 15  2  0
 16  8  1  0
 16 15  1  0
 17 18  2  0
 19 20  1  0
 19 17  1  0
 20 27  1  0
 20 21  1  6
 22 21  1  0
 23 22  2  0
 24 23  1  0
 25 24  1  0
 25 26  2  0
 26 22  1  0
 27 29  2  0
 27 28  1  0
M  END
$$$$
