GWH.pdb
     RDKit          3D

 29 31  0  0  1  0  0  0  0  0999 V2000
   27.0904  -17.3691  -14.8714 N   0  0  0  0  0  0  0  0  0  0  0  0
   27.8224  -17.9121  -13.7506 C   0  0  0  0  0  0  0  0  0  0  0  0
   27.3562  -19.2999  -13.4911 C   0  0  0  0  0  0  0  0  0  0  0  0
   27.1214  -20.0911  -14.4653 O   0  0  0  0  0  0  0  0  0  0  0  0
   27.1473  -19.8235  -12.1948 N   0  0  0  0  0  0  0  0  0  0  0  0
   26.7928  -21.2073  -11.9498 C   0  0  1  0  0  0  0  0  0  0  0  0
   27.3920  -21.7145  -10.6560 C   0  0  0  0  0  0  0  0  0  0  0  0
   27.0662  -20.8904   -9.4912 C   0  0  0  0  0  0  0  0  0  0  0  0
   25.8819  -20.2626   -9.1861 C   0  0  0  0  0  0  0  0  0  0  0  0
   25.9986  -19.6037   -8.0203 N   0  0  0  0  0  0  0  0  0  0  0  0
   27.2497  -19.7988   -7.5662 C   0  0  0  0  0  0  0  0  0  0  0  0
   27.9258  -19.3635   -6.4252 C   0  0  0  0  0  0  0  0  0  0  0  0
   29.2379  -19.7007   -6.1703 C   0  0  0  0  0  0  0  0  0  0  0  0
   29.9018  -20.5041   -7.0900 C   0  0  0  0  0  0  0  0  0  0  0  0
   29.2739  -20.9478   -8.2149 C   0  0  0  0  0  0  0  0  0  0  0  0
   27.9538  -20.5983   -8.4547 C   0  0  0  0  0  0  0  0  0  0  0  0
   25.3168  -21.3566  -11.8372 C   0  0  0  0  0  0  0  0  0  0  0  0
   24.7507  -20.9801  -10.7866 O   0  0  0  0  0  0  0  0  0  0  0  0
   24.5507  -21.9084  -12.8798 N   0  0  0  0  0  0  0  0  0  0  0  0
   23.1653  -21.4939  -13.1932 C   0  0  1  0  0  0  0  0  0  0  0  0
   23.1210  -20.0524  -13.5837 C   0  0  0  0  0  0  0  0  0  0  0  0
   21.7449  -19.6604  -13.9515 C   0  0  0  0  0  0  0  0  0  0  0  0
   20.6015  -20.3978  -13.9555 C   0  0  0  0  0  0  0  0  0  0  0  0
   19.5350  -19.6172  -14.2857 N   0  0  0  0  0  0  0  0  0  0  0  0
   20.0091  -18.3938  -14.4864 C   0  0  0  0  0  0  0  0  0  0  0  0
   21.3291  -18.3966  -14.2915 N   0  0  0  0  0  0  0  0  0  0  0  0
   22.7771  -22.2803  -14.4273 C   0  0  0  0  0  0  0  0  0  0  0  0
   21.4074  -22.4430  -14.7248 O   0  0  0  0  0  0  0  0  0  0  0  0
   23.5553  -22.8071  -15.2206 O   0  0  0  0  0  0  0  0  0  0  0  0
  1  2  1  0
  2  3  1  0
  3  4  2  0
  5  3  1  0
  5  6  1  0
  6 17  1  0
  6  7  1  1
  8  7  1  0
  9  8  2  0
 10 11  1  0
 10  9  1  0
 11 16  2  0
 12 11  1  0
 12 13  2  0
 13 14  1  0
 14 15  2  0
 16  8  1  0
 16 15  1  0
 17 18  2  0
 19 20  1  0
 19 17  1  0
 20 27  1  0
 20 21  1  6
 22 21  1  0
 23 22  2  0
 24 23  1  0
 25 24  1  0
 25 26  2  0
 26 22  1  0
 27 29  2  0
 27 28  1  0
M  END
$$$$
