GWH.pdb
     RDKit          3D

 29 31  0  0  1  0  0  0  0  0999 V2000
   31.6621  -23.3836  -13.3841 N   0  0  0  0  0  0  0  0  0  0  0  0
   31.0583  -22.0730  -13.4517 C   0  0  0  0  0  0  0  0  0  0  0  0
   29.8522  -22.0474  -12.5824 C   0  0  0  0  0  0  0  0  0  0  0  0
   29.1802  -23.1149  -12.3851 O   0  0  0  0  0  0  0  0  0  0  0  0
   29.3806  -20.8821  -11.9360 N   0  0  0  0  0  0  0  0  0  0  0  0
   28.2032  -20.8695  -11.0910 C   0  0  1  0  0  0  0  0  0  0  0  0
   28.2506  -19.7377  -10.0874 C   0  0  0  0  0  0  0  0  0  0  0  0
   27.3616  -19.9277   -8.9405 C   0  0  0  0  0  0  0  0  0  0  0  0
   25.9907  -20.0278   -8.9224 C   0  0  0  0  0  0  0  0  0  0  0  0
   25.5593  -20.1977   -7.6606 N   0  0  0  0  0  0  0  0  0  0  0  0
   26.6397  -20.2087   -6.8593 C   0  0  0  0  0  0  0  0  0  0  0  0
   26.7990  -20.3486   -5.4796 C   0  0  0  0  0  0  0  0  0  0  0  0
   28.0366  -20.3263   -4.8728 C   0  0  0  0  0  0  0  0  0  0  0  0
   29.1598  -20.1578   -5.6741 C   0  0  0  0  0  0  0  0  0  0  0  0
   29.0429  -20.0180   -7.0244 C   0  0  0  0  0  0  0  0  0  0  0  0
   27.7897  -20.0429   -7.6173 C   0  0  0  0  0  0  0  0  0  0  0  0
   26.9750  -20.6788  -11.9087 C   0  0  0  0  0  0  0  0  0  0  0  0
   26.9567  -19.7679  -12.7665 O   0  0  0  0  0  0  0  0  0  0  0  0
   25.8425  -21.4953  -11.7379 N   0  0  0  0  0  0  0  0  0  0  0  0
   24.6562  -21.4544  -12.6214 C   0  0  1  0  0  0  0  0  0  0  0  0
   24.0181  -22.8024  -12.7115 C   0  0  0  0  0  0  0  0  0  0  0  0
   22.8512  -22.7604  -13.6167 C   0  0  0  0  0  0  0  0  0  0  0  0
   22.5462  -21.8743  -14.6030 C   0  0  0  0  0  0  0  0  0  0  0  0
   21.4104  -22.2575  -15.2502 N   0  0  0  0  0  0  0  0  0  0  0  0
   21.0060  -23.3816  -14.6715 C   0  0  0  0  0  0  0  0  0  0  0  0
   21.8536  -23.7011  -13.6918 N   0  0  0  0  0  0  0  0  0  0  0  0
   23.6588  -20.5584  -11.9182 C   0  0  0  0  0  0  0  0  0  0  0  0
   22.7350  -19.8296  -12.6969 O   0  0  0  0  0  0  0  0  0  0  0  0
   23.5679  -20.3959  -10.7026 O   0  0  0  0  0  0  0  0  0  0  0  0
  1  2  1  0
  2  3  1  0
  3  4  2  0
  5  3  1  0
  5  6  1  0
  6 17  1  0
  6  7  1  1
  8  7  1  0
  9  8  2  0
 10 11  1  0
 10  9  1  0
 11 16  2  0
 12 11  1  0
 12 13  2  0
 13 14  1  0
 14 15  2  0
 16  8  1  0
 16 15  1  0
 17 18  2  0
 19 20  1  0
 19 17  1  0
 20 27  1  0
 20 21  1  1
 22 21  1  0
 23 22  2  0
 24 23  1  0
 25 24  1  0
 25 26  2  0
 26 22  1  0
 27 29  2  0
 27 28  1  0
M  END
$$$$
