GWH.pdb
     RDKit          3D

 29 31  0  0  1  0  0  0  0  0999 V2000
   28.5376  -21.4201  -14.6411 N   0  0  0  0  0  0  0  0  0  0  0  0
   28.2151  -20.4097  -13.6603 C   0  0  0  0  0  0  0  0  0  0  0  0
   27.1896  -20.9469  -12.7272 C   0  0  0  0  0  0  0  0  0  0  0  0
   26.4922  -21.9643  -13.0565 O   0  0  0  0  0  0  0  0  0  0  0  0
   26.9235  -20.3901  -11.4556 N   0  0  0  0  0  0  0  0  0  0  0  0
   25.7908  -20.7849  -10.6421 C   0  0  1  0  0  0  0  0  0  0  0  0
   25.9928  -20.4131   -9.1890 C   0  0  0  0  0  0  0  0  0  0  0  0
   27.3027  -20.7936   -8.6586 C   0  0  0  0  0  0  0  0  0  0  0  0
   28.2783  -21.5629   -9.2470 C   0  0  0  0  0  0  0  0  0  0  0  0
   29.3346  -21.6740   -8.4231 N   0  0  0  0  0  0  0  0  0  0  0  0
   29.0522  -20.9828   -7.3041 C   0  0  0  0  0  0  0  0  0  0  0  0
   29.7628  -20.7501   -6.1254 C   0  0  0  0  0  0  0  0  0  0  0  0
   29.2535  -19.9913   -5.0933 C   0  0  0  0  0  0  0  0  0  0  0  0
   27.9851  -19.4428   -5.2431 C   0  0  0  0  0  0  0  0  0  0  0  0
   27.2622  -19.6487   -6.3796 C   0  0  0  0  0  0  0  0  0  0  0  0
   27.7908  -20.4149   -7.4073 C   0  0  0  0  0  0  0  0  0  0  0  0
   24.5530  -20.0994  -11.1017 C   0  0  0  0  0  0  0  0  0  0  0  0
   24.6589  -19.0474  -11.7712 O   0  0  0  0  0  0  0  0  0  0  0  0
   23.2757  -20.6059  -10.8009 N   0  0  0  0  0  0  0  0  0  0  0  0
   22.1341  -20.5748  -11.7419 C   0  0  1  0  0  0  0  0  0  0  0  0
   22.3508  -21.5338  -12.8669 C   0  0  0  0  0  0  0  0  0  0  0  0
   22.8069  -20.8160  -14.0750 C   0  0  0  0  0  0  0  0  0  0  0  0
   23.0462  -19.4896  -14.2610 C   0  0  0  0  0  0  0  0  0  0  0  0
   23.5360  -19.2671  -15.5126 N   0  0  0  0  0  0  0  0  0  0  0  0
   23.6047  -20.4514  -16.1082 C   0  0  0  0  0  0  0  0  0  0  0  0
   23.1737  -21.3924  -15.2662 N   0  0  0  0  0  0  0  0  0  0  0  0
   20.9497  -21.0996  -10.9585 C   0  0  0  0  0  0  0  0  0  0  0  0
   21.1051  -22.2826  -10.2053 O   0  0  0  0  0  0  0  0  0  0  0  0
   19.8334  -20.5858  -10.9091 O   0  0  0  0  0  0  0  0  0  0  0  0
  1  2  1  0
  2  3  1  0
  3  4  2  0
  5  3  1  0
  5  6  1  0
  6 17  1  0
  6  7  1  1
  8  7  1  0
  9  8  2  0
 10 11  1  0
 10  9  1  0
 11 16  2  0
 12 11  1  0
 12 13  2  0
 13 14  1  0
 14 15  2  0
 16  8  1  0
 16 15  1  0
 17 18  2  0
 19 20  1  0
 19 17  1  0
 20 27  1  0
 20 21  1  6
 22 21  1  0
 23 22  2  0
 24 23  1  0
 25 24  1  0
 25 26  2  0
 26 22  1  0
 27 29  2  0
 27 28  1  0
M  END
$$$$
