GWH.pdb
     RDKit          3D

 29 31  0  0  1  0  0  0  0  0999 V2000
   28.6112  -20.4286  -15.1841 N   0  0  0  0  0  0  0  0  0  0  0  0
   28.3150  -19.7368  -13.9510 C   0  0  0  0  0  0  0  0  0  0  0  0
   27.2974  -20.5104  -13.1913 C   0  0  0  0  0  0  0  0  0  0  0  0
   26.9064  -21.6486  -13.6174 O   0  0  0  0  0  0  0  0  0  0  0  0
   26.7117  -20.0575  -11.9872 N   0  0  0  0  0  0  0  0  0  0  0  0
   25.7138  -20.8167  -11.2602 C   0  0  1  0  0  0  0  0  0  0  0  0
   25.8736  -20.6560   -9.7638 C   0  0  0  0  0  0  0  0  0  0  0  0
   27.2524  -20.8091   -9.2974 C   0  0  0  0  0  0  0  0  0  0  0  0
   28.2945  -21.4745   -9.8981 C   0  0  0  0  0  0  0  0  0  0  0  0
   29.4002  -21.3757   -9.1399 N   0  0  0  0  0  0  0  0  0  0  0  0
   29.0838  -20.6513   -8.0515 C   0  0  0  0  0  0  0  0  0  0  0  0
   29.8180  -20.2357   -6.9394 C   0  0  0  0  0  0  0  0  0  0  0  0
   29.2627  -19.4827   -5.9270 C   0  0  0  0  0  0  0  0  0  0  0  0
   27.9219  -19.1303   -6.0279 C   0  0  0  0  0  0  0  0  0  0  0  0
   27.1741  -19.5181   -7.0989 C   0  0  0  0  0  0  0  0  0  0  0  0
   27.7496  -20.2753   -8.1077 C   0  0  0  0  0  0  0  0  0  0  0  0
   24.3451  -20.3479  -11.6074 C   0  0  0  0  0  0  0  0  0  0  0  0
   24.0655  -19.1375  -11.4566 O   0  0  0  0  0  0  0  0  0  0  0  0
   23.3664  -21.2312  -12.0978 N   0  0  0  0  0  0  0  0  0  0  0  0
   22.0442  -20.7987  -12.6018 C   0  0  1  0  0  0  0  0  0  0  0  0
   21.7100  -21.5008  -13.8776 C   0  0  0  0  0  0  0  0  0  0  0  0
   22.4173  -20.8722  -15.0122 C   0  0  0  0  0  0  0  0  0  0  0  0
   23.2427  -19.7908  -15.0317 C   0  0  0  0  0  0  0  0  0  0  0  0
   23.7479  -19.6023  -16.2828 N   0  0  0  0  0  0  0  0  0  0  0  0
   23.2412  -20.5642  -17.0443 C   0  0  0  0  0  0  0  0  0  0  0  0
   22.4426  -21.3357  -16.3045 N   0  0  0  0  0  0  0  0  0  0  0  0
   21.0420  -21.2827  -11.5755 C   0  0  0  0  0  0  0  0  0  0  0  0
   19.9381  -20.4604  -11.2652 O   0  0  0  0  0  0  0  0  0  0  0  0
   21.0921  -22.3502  -10.9668 O   0  0  0  0  0  0  0  0  0  0  0  0
  1  2  1  0
  2  3  1  0
  3  4  2  0
  5  3  1  0
  5  6  1  0
  6 17  1  0
  6  7  1  1
  8  7  1  0
  9  8  2  0
 10 11  1  0
 10  9  1  0
 11 16  2  0
 12 11  1  0
 12 13  2  0
 13 14  1  0
 14 15  2  0
 16  8  1  0
 16 15  1  0
 17 18  2  0
 19 20  1  0
 19 17  1  0
 20 27  1  0
 20 21  1  6
 22 21  1  0
 23 22  2  0
 24 23  1  0
 25 24  1  0
 25 26  2  0
 26 22  1  0
 27 29  2  0
 27 28  1  0
M  END
$$$$
