GWH.pdb
     RDKit          3D

 29 31  0  0  1  0  0  0  0  0999 V2000
   27.1095  -24.1116  -15.5323 N   0  0  0  0  0  0  0  0  0  0  0  0
   26.9586  -22.7114  -15.2108 C   0  0  0  0  0  0  0  0  0  0  0  0
   26.2134  -22.5836  -13.9305 C   0  0  0  0  0  0  0  0  0  0  0  0
   25.4926  -23.5490  -13.5080 O   0  0  0  0  0  0  0  0  0  0  0  0
   26.2483  -21.4266  -13.1192 N   0  0  0  0  0  0  0  0  0  0  0  0
   25.3315  -21.2059  -12.0186 C   0  0  1  0  0  0  0  0  0  0  0  0
   25.8695  -20.1815  -11.0431 C   0  0  0  0  0  0  0  0  0  0  0  0
   27.1315  -20.5718  -10.4130 C   0  0  0  0  0  0  0  0  0  0  0  0
   28.1985  -21.2392  -10.9660 C   0  0  0  0  0  0  0  0  0  0  0  0
   29.1649  -21.4021  -10.0460 N   0  0  0  0  0  0  0  0  0  0  0  0
   28.7335  -20.8456   -8.8998 C   0  0  0  0  0  0  0  0  0  0  0  0
   29.3030  -20.7171   -7.6319 C   0  0  0  0  0  0  0  0  0  0  0  0
   28.6522  -20.0918   -6.5897 C   0  0  0  0  0  0  0  0  0  0  0  0
   27.3832  -19.5743   -6.8217 C   0  0  0  0  0  0  0  0  0  0  0  0
   26.7958  -19.6812   -8.0464 C   0  0  0  0  0  0  0  0  0  0  0  0
   27.4655  -20.3136   -9.0829 C   0  0  0  0  0  0  0  0  0  0  0  0
   24.0282  -20.6919  -12.5192 C   0  0  0  0  0  0  0  0  0  0  0  0
   24.0240  -19.7046  -13.2881 O   0  0  0  0  0  0  0  0  0  0  0  0
   22.8097  -21.2887  -12.1482 N   0  0  0  0  0  0  0  0  0  0  0  0
   21.4841  -20.7945  -12.5820 C   0  0  1  0  0  0  0  0  0  0  0  0
   20.7138  -21.8782  -13.2637 C   0  0  0  0  0  0  0  0  0  0  0  0
   21.1594  -22.0239  -14.6647 C   0  0  0  0  0  0  0  0  0  0  0  0
   22.0913  -21.3169  -15.3596 C   0  0  0  0  0  0  0  0  0  0  0  0
   22.2501  -21.8401  -16.6074 N   0  0  0  0  0  0  0  0  0  0  0  0
   21.4209  -22.8730  -16.6930 C   0  0  0  0  0  0  0  0  0  0  0  0
   20.7587  -23.0015  -15.5418 N   0  0  0  0  0  0  0  0  0  0  0  0
   20.7332  -20.4775  -11.3062 C   0  0  0  0  0  0  0  0  0  0  0  0
   19.5931  -19.6492  -11.3782 O   0  0  0  0  0  0  0  0  0  0  0  0
   21.0226  -20.8798  -10.1806 O   0  0  0  0  0  0  0  0  0  0  0  0
  1  2  1  0
  2  3  1  0
  3  4  2  0
  5  3  1  0
  5  6  1  0
  6 17  1  0
  6  7  1  1
  8  7  1  0
  9  8  2  0
 10 11  1  0
 10  9  1  0
 11 16  2  0
 12 11  1  0
 12 13  2  0
 13 14  1  0
 14 15  2  0
 16  8  1  0
 16 15  1  0
 17 18  2  0
 19 20  1  0
 19 17  1  0
 20 27  1  0
 20 21  1  1
 22 21  1  0
 23 22  2  0
 24 23  1  0
 25 24  1  0
 25 26  2  0
 26 22  1  0
 27 29  2  0
 27 28  1  0
M  END
$$$$
