GWH.pdb
     RDKit          3D

 29 31  0  0  1  0  0  0  0  0999 V2000
   29.1083  -21.2237  -15.1800 N   0  0  0  0  0  0  0  0  0  0  0  0
   28.4018  -20.2827  -14.3420 C   0  0  0  0  0  0  0  0  0  0  0  0
   27.2569  -20.9740  -13.6921 C   0  0  0  0  0  0  0  0  0  0  0  0
   26.6556  -21.9256  -14.2945 O   0  0  0  0  0  0  0  0  0  0  0  0
   26.7702  -20.6392  -12.4079 N   0  0  0  0  0  0  0  0  0  0  0  0
   25.5685  -21.2200  -11.8428 C   0  0  1  0  0  0  0  0  0  0  0  0
   25.7230  -21.4864  -10.3611 C   0  0  0  0  0  0  0  0  0  0  0  0
   27.0933  -21.3273   -9.8721 C   0  0  0  0  0  0  0  0  0  0  0  0
   28.2699  -21.7097  -10.4711 C   0  0  0  0  0  0  0  0  0  0  0  0
   29.3119  -21.3795   -9.6888 N   0  0  0  0  0  0  0  0  0  0  0  0
   28.8208  -20.7856   -8.5863 C   0  0  0  0  0  0  0  0  0  0  0  0
   29.4230  -20.2462   -7.4483 C   0  0  0  0  0  0  0  0  0  0  0  0
   28.6939  -19.6781   -6.4256 C   0  0  0  0  0  0  0  0  0  0  0  0
   27.3092  -19.6467   -6.5427 C   0  0  0  0  0  0  0  0  0  0  0  0
   26.6867  -20.1635   -7.6390 C   0  0  0  0  0  0  0  0  0  0  0  0
   27.4365  -20.7312   -8.6579 C   0  0  0  0  0  0  0  0  0  0  0  0
   24.4151  -20.2941  -12.0035 C   0  0  0  0  0  0  0  0  0  0  0  0
   24.6383  -19.0707  -12.1435 O   0  0  0  0  0  0  0  0  0  0  0  0
   23.0888  -20.7625  -12.0009 N   0  0  0  0  0  0  0  0  0  0  0  0
   22.0704  -20.3593  -12.9958 C   0  0  1  0  0  0  0  0  0  0  0  0
   22.4790  -20.7801  -14.3700 C   0  0  0  0  0  0  0  0  0  0  0  0
   22.1937  -19.7061  -15.3436 C   0  0  0  0  0  0  0  0  0  0  0  0
   22.8409  -18.5280  -15.5545 C   0  0  0  0  0  0  0  0  0  0  0  0
   22.2929  -17.8688  -16.6132 N   0  0  0  0  0  0  0  0  0  0  0  0
   21.3061  -18.6329  -17.0652 C   0  0  0  0  0  0  0  0  0  0  0  0
   21.2292  -19.7375  -16.3205 N   0  0  0  0  0  0  0  0  0  0  0  0
   20.8328  -21.1623  -12.6560 C   0  0  0  0  0  0  0  0  0  0  0  0
   19.5751  -20.5247  -12.7079 O   0  0  0  0  0  0  0  0  0  0  0  0
   20.8099  -22.3480  -12.3302 O   0  0  0  0  0  0  0  0  0  0  0  0
  1  2  1  0
  2  3  1  0
  3  4  2  0
  5  3  1  0
  5  6  1  0
  6 17  1  0
  6  7  1  1
  8  7  1  0
  9  8  2  0
 10 11  1  0
 10  9  1  0
 11 16  2  0
 12 11  1  0
 12 13  2  0
 13 14  1  0
 14 15  2  0
 16  8  1  0
 16 15  1  0
 17 18  2  0
 19 20  1  0
 19 17  1  0
 20 27  1  0
 20 21  1  6
 22 21  1  0
 23 22  2  0
 24 23  1  0
 25 24  1  0
 25 26  2  0
 26 22  1  0
 27 29  2  0
 27 28  1  0
M  END
$$$$
