APD.pdb
     RDKit          3D

 21 21  0  0  1  0  0  0  0  0999 V2000
   26.9434  -16.6917  -15.6628 C   0  0  0  0  0  0  0  0  0  0  0  0
   27.2181  -18.1116  -16.1605 C   0  0  2  0  0  0  0  0  0  0  0  0
   26.6889  -18.2078  -17.4746 N   0  0  0  0  0  0  0  0  0  0  0  0
   26.7742  -19.1238  -15.1964 C   0  0  0  0  0  0  0  0  0  0  0  0
   25.5638  -19.3421  -15.0636 O   0  0  0  0  0  0  0  0  0  0  0  0
   27.6942  -19.8782  -14.3911 N   0  0  0  0  0  0  0  0  0  0  0  0
   29.0923  -19.9449  -14.7034 C   0  0  0  0  0  0  0  0  0  0  0  0
   29.7373  -20.7561  -13.5700 C   0  0  0  0  0  0  0  0  0  0  0  0
   28.7412  -20.6045  -12.4465 C   0  0  0  0  0  0  0  0  0  0  0  0
   27.4281  -20.6578  -13.2333 C   0  0  1  0  0  0  0  0  0  0  0  0
   26.3435  -20.1091  -12.3627 C   0  0  0  0  0  0  0  0  0  0  0  0
   26.4519  -18.9202  -11.9828 O   0  0  0  0  0  0  0  0  0  0  0  0
   25.2063  -20.8431  -11.9451 N   0  0  0  0  0  0  0  0  0  0  0  0
   24.3248  -20.3772  -10.8830 C   0  0  1  0  0  0  0  0  0  0  0  0
   22.9798  -21.0826  -11.1302 C   0  0  0  0  0  0  0  0  0  0  0  0
   21.9512  -20.6002  -10.1885 C   0  0  0  0  0  0  0  0  0  0  0  0
   22.0019  -19.4241   -9.7543 O   0  0  0  0  0  0  0  0  0  0  0  0
   24.8194  -20.7458   -9.5536 C   0  0  0  0  0  0  0  0  0  0  0  0
   24.8125  -19.7244   -8.5828 O   0  0  0  0  0  0  0  0  0  0  0  0
   20.9179  -21.4272   -9.7672 O   0  0  0  0  0  0  0  0  0  0  0  0
   25.2431  -21.8585   -9.1797 O   0  0  0  0  0  0  0  0  0  0  0  0
  2  1  1  1
  3  2  1  0
  4  5  2  0
  4  2  1  0
  6  4  1  0
  7  6  1  0
  8  7  1  0
  9  8  1  0
  9 10  1  0
 10 11  1  1
 10  6  1  0
 11 13  1  0
 12 11  2  0
 13 14  1  0
 14 15  1  6
 14 18  1  0
 16 20  1  0
 16 15  1  0
 17 16  2  0
 18 21  2  0
 18 19  1  0
M  END
$$$$
