APD.pdb
     RDKit          3D

 21 21  0  0  1  0  0  0  0  0999 V2000
   19.2984  -12.3261  -17.7799 C   0  0  0  0  0  0  0  0  0  0  0  0
   20.5315  -11.4318  -17.9184 C   0  0  2  0  0  0  0  0  0  0  0  0
   21.6087  -12.2597  -18.3314 N   0  0  0  0  0  0  0  0  0  0  0  0
   20.7511  -10.6148  -16.7204 C   0  0  0  0  0  0  0  0  0  0  0  0
   19.8845   -9.8019  -16.3760 O   0  0  0  0  0  0  0  0  0  0  0  0
   21.9419  -10.7186  -15.9235 N   0  0  0  0  0  0  0  0  0  0  0  0
   22.8402  -11.8295  -16.0488 C   0  0  0  0  0  0  0  0  0  0  0  0
   24.0172  -11.5255  -15.1102 C   0  0  0  0  0  0  0  0  0  0  0  0
   23.9407  -10.0260  -14.9588 C   0  0  0  0  0  0  0  0  0  0  0  0
   22.4220   -9.8297  -14.9242 C   0  0  1  0  0  0  0  0  0  0  0  0
   22.1345   -8.3884  -15.1989 C   0  0  0  0  0  0  0  0  0  0  0  0
   22.3083   -7.9762  -16.3692 O   0  0  0  0  0  0  0  0  0  0  0  0
   21.6781   -7.4654  -14.2262 N   0  0  0  0  0  0  0  0  0  0  0  0
   21.5039   -6.0486  -14.5173 C   0  0  1  0  0  0  0  0  0  0  0  0
   19.9853   -5.8056  -14.4675 C   0  0  0  0  0  0  0  0  0  0  0  0
   19.6641   -4.4076  -14.8133 C   0  0  0  0  0  0  0  0  0  0  0  0
   18.9702   -3.7128  -14.0323 O   0  0  0  0  0  0  0  0  0  0  0  0
   22.1564   -5.1959  -13.5198 C   0  0  0  0  0  0  0  0  0  0  0  0
   22.4895   -3.8924  -13.9392 O   0  0  0  0  0  0  0  0  0  0  0  0
   20.1168   -3.8376  -15.9964 O   0  0  0  0  0  0  0  0  0  0  0  0
   22.4489   -5.4873  -12.3422 O   0  0  0  0  0  0  0  0  0  0  0  0
  2  1  1  1
  3  2  1  0
  4  5  2  0
  4  2  1  0
  6  4  1  0
  7  6  1  0
  8  7  1  0
  9  8  1  0
  9 10  1  0
 10 11  1  6
 10  6  1  0
 11 13  1  0
 12 11  2  0
 13 14  1  0
 14 15  1  1
 14 18  1  0
 16 20  1  0
 16 15  1  0
 17 16  2  0
 18 21  2  0
 18 19  1  0
M  END
$$$$
