APD.pdb
     RDKit          3D

 21 21  0  0  1  0  0  0  0  0999 V2000
   19.7624  -10.8015  -18.9037 C   0  0  0  0  0  0  0  0  0  0  0  0
   19.8350  -11.4550  -17.5227 C   0  0  2  0  0  0  0  0  0  0  0  0
   18.6446  -12.2095  -17.3499 N   0  0  0  0  0  0  0  0  0  0  0  0
   20.1552  -10.4811  -16.4739 C   0  0  0  0  0  0  0  0  0  0  0  0
   19.3650   -9.5571  -16.2455 O   0  0  0  0  0  0  0  0  0  0  0  0
   21.3597  -10.5548  -15.6943 N   0  0  0  0  0  0  0  0  0  0  0  0
   22.1790  -11.7317  -15.6796 C   0  0  0  0  0  0  0  0  0  0  0  0
   23.4008  -11.3819  -14.8172 C   0  0  0  0  0  0  0  0  0  0  0  0
   23.4273   -9.8743  -14.8774 C   0  0  0  0  0  0  0  0  0  0  0  0
   21.9265   -9.5705  -14.8405 C   0  0  1  0  0  0  0  0  0  0  0  0
   21.7262   -8.1652  -15.3100 C   0  0  0  0  0  0  0  0  0  0  0  0
   21.9108   -7.9295  -16.5266 O   0  0  0  0  0  0  0  0  0  0  0  0
   21.3405   -7.0903  -14.4721 N   0  0  0  0  0  0  0  0  0  0  0  0
   21.2866   -5.7136  -14.9453 C   0  0  1  0  0  0  0  0  0  0  0  0
   19.8434   -5.2485  -14.6840 C   0  0  0  0  0  0  0  0  0  0  0  0
   19.6549   -3.8496  -15.1139 C   0  0  0  0  0  0  0  0  0  0  0  0
   19.6065   -2.9327  -14.2587 O   0  0  0  0  0  0  0  0  0  0  0  0
   22.2088   -4.8415  -14.2126 C   0  0  0  0  0  0  0  0  0  0  0  0
   22.6975   -3.7227  -14.9165 O   0  0  0  0  0  0  0  0  0  0  0  0
   19.5279   -3.5215  -16.4577 O   0  0  0  0  0  0  0  0  0  0  0  0
   22.6097   -4.9716  -13.0380 O   0  0  0  0  0  0  0  0  0  0  0  0
  2  1  1  6
  3  2  1  0
  4  5  2  0
  4  2  1  0
  6  4  1  0
  7  6  1  0
  8  7  1  0
  9  8  1  0
  9 10  1  0
 10 11  1  6
 10  6  1  0
 11 13  1  0
 12 11  2  0
 13 14  1  0
 14 15  1  1
 14 18  1  0
 16 20  1  0
 16 15  1  0
 17 16  2  0
 18 21  2  0
 18 19  1  0
M  END
$$$$
