APD.pdb
     RDKit          3D

 21 21  0  0  1  0  0  0  0  0999 V2000
   20.8065  -11.0607  -19.2724 C   0  0  0  0  0  0  0  0  0  0  0  0
   20.7348  -11.7662  -17.9173 C   0  0  2  0  0  0  0  0  0  0  0  0
   19.5895  -12.6054  -17.9388 N   0  0  0  0  0  0  0  0  0  0  0  0
   20.8358  -10.8189  -16.8023 C   0  0  0  0  0  0  0  0  0  0  0  0
   19.9353   -9.9881  -16.6315 O   0  0  0  0  0  0  0  0  0  0  0  0
   21.9477  -10.8140  -15.8925 N   0  0  0  0  0  0  0  0  0  0  0  0
   22.9038  -11.8825  -15.8624 C   0  0  0  0  0  0  0  0  0  0  0  0
   23.9696  -11.4635  -14.8391 C   0  0  0  0  0  0  0  0  0  0  0  0
   23.8103   -9.9637  -14.7910 C   0  0  0  0  0  0  0  0  0  0  0  0
   22.2880   -9.8442  -14.9112 C   0  0  1  0  0  0  0  0  0  0  0  0
   21.9628   -8.4383  -15.3026 C   0  0  0  0  0  0  0  0  0  0  0  0
   22.1587   -8.1094  -16.4955 O   0  0  0  0  0  0  0  0  0  0  0  0
   21.4475   -7.4612  -14.4160 N   0  0  0  0  0  0  0  0  0  0  0  0
   21.2178   -6.0818  -14.8244 C   0  0  1  0  0  0  0  0  0  0  0  0
   19.7509   -5.7885  -14.4641 C   0  0  0  0  0  0  0  0  0  0  0  0
   19.3898   -4.4014  -14.8146 C   0  0  0  0  0  0  0  0  0  0  0  0
   19.2441   -3.5445  -13.9097 O   0  0  0  0  0  0  0  0  0  0  0  0
   22.0826   -5.1420  -14.1056 C   0  0  0  0  0  0  0  0  0  0  0  0
   22.5497   -5.5666  -12.8457 O   0  0  0  0  0  0  0  0  0  0  0  0
   19.2051   -4.0190  -16.1371 O   0  0  0  0  0  0  0  0  0  0  0  0
   22.4562   -4.0115  -14.4795 O   0  0  0  0  0  0  0  0  0  0  0  0
  2  1  1  6
  3  2  1  0
  4  5  2  0
  4  2  1  0
  6  4  1  0
  7  6  1  0
  8  7  1  0
  9  8  1  0
  9 10  1  0
 10 11  1  6
 10  6  1  0
 11 13  1  0
 12 11  2  0
 13 14  1  0
 14 15  1  1
 14 18  1  0
 16 20  1  0
 16 15  1  0
 17 16  2  0
 18 21  2  0
 18 19  1  0
M  END
$$$$
