APD.pdb
     RDKit          3D

 21 21  0  0  1  0  0  0  0  0999 V2000
   20.7588  -11.0794  -19.2051 C   0  0  0  0  0  0  0  0  0  0  0  0
   20.6264  -11.7612  -17.8424 C   0  0  2  0  0  0  0  0  0  0  0  0
   19.4034  -12.4827  -17.8488 N   0  0  0  0  0  0  0  0  0  0  0  0
   20.8283  -10.8178  -16.7378 C   0  0  0  0  0  0  0  0  0  0  0  0
   19.9491   -9.9848  -16.4861 O   0  0  0  0  0  0  0  0  0  0  0  0
   22.0159  -10.8193  -15.9292 N   0  0  0  0  0  0  0  0  0  0  0  0
   22.9409  -11.9151  -15.9480 C   0  0  0  0  0  0  0  0  0  0  0  0
   24.1040  -11.4980  -15.0359 C   0  0  0  0  0  0  0  0  0  0  0  0
   23.9911   -9.9933  -15.0231 C   0  0  0  0  0  0  0  0  0  0  0  0
   22.4680   -9.8313  -15.0137 C   0  0  1  0  0  0  0  0  0  0  0  0
   22.1486   -8.4285  -15.4208 C   0  0  0  0  0  0  0  0  0  0  0  0
   22.2590   -8.1387  -16.6347 O   0  0  0  0  0  0  0  0  0  0  0  0
   21.7286   -7.4133  -14.5268 N   0  0  0  0  0  0  0  0  0  0  0  0
   21.5151   -6.0373  -14.9548 C   0  0  1  0  0  0  0  0  0  0  0  0
   19.9937   -5.8189  -14.8825 C   0  0  0  0  0  0  0  0  0  0  0  0
   19.6385   -4.4468  -15.2928 C   0  0  0  0  0  0  0  0  0  0  0  0
   19.3278   -3.5945  -14.4260 O   0  0  0  0  0  0  0  0  0  0  0  0
   22.1777   -5.0748  -14.0702 C   0  0  0  0  0  0  0  0  0  0  0  0
   22.3501   -5.4783  -12.7311 O   0  0  0  0  0  0  0  0  0  0  0  0
   19.6397   -4.0736  -16.6308 O   0  0  0  0  0  0  0  0  0  0  0  0
   22.6096   -3.9415  -14.3642 O   0  0  0  0  0  0  0  0  0  0  0  0
  2  1  1  6
  3  2  1  0
  4  5  2  0
  4  2  1  0
  6  4  1  0
  7  6  1  0
  8  7  1  0
  9  8  1  0
  9 10  1  0
 10 11  1  6
 10  6  1  0
 11 13  1  0
 12 11  2  0
 13 14  1  0
 14 15  1  1
 14 18  1  0
 16 20  1  0
 16 15  1  0
 17 16  2  0
 18 21  2  0
 18 19  1  0
M  END
$$$$
