APD.pdb
     RDKit          3D

 21 21  0  0  1  0  0  0  0  0999 V2000
   21.8298  -13.3595  -17.7934 C   0  0  0  0  0  0  0  0  0  0  0  0
   22.8214  -12.2383  -18.1078 C   0  0  2  0  0  0  0  0  0  0  0  0
   24.0478  -12.8512  -18.4775 N   0  0  0  0  0  0  0  0  0  0  0  0
   22.8808  -11.2439  -17.0315 C   0  0  0  0  0  0  0  0  0  0  0  0
   21.8352  -10.7056  -16.6476 O   0  0  0  0  0  0  0  0  0  0  0  0
   24.1138  -10.8637  -16.3996 N   0  0  0  0  0  0  0  0  0  0  0  0
   25.3096  -11.6413  -16.5479 C   0  0  0  0  0  0  0  0  0  0  0  0
   26.4099  -10.8638  -15.8105 C   0  0  0  0  0  0  0  0  0  0  0  0
   25.8606   -9.4586  -15.7837 C   0  0  0  0  0  0  0  0  0  0  0  0
   24.3735   -9.7482  -15.5586 C   0  0  1  0  0  0  0  0  0  0  0  0
   23.6022   -8.5188  -15.9181 C   0  0  0  0  0  0  0  0  0  0  0  0
   23.2147   -8.4047  -17.1041 O   0  0  0  0  0  0  0  0  0  0  0  0
   23.2814   -7.4823  -15.0075 N   0  0  0  0  0  0  0  0  0  0  0  0
   22.5219   -6.3040  -15.4039 C   0  0  1  0  0  0  0  0  0  0  0  0
   21.0999   -6.8143  -15.6958 C   0  0  0  0  0  0  0  0  0  0  0  0
   20.2284   -5.7137  -16.1502 C   0  0  0  0  0  0  0  0  0  0  0  0
   20.3643   -5.2435  -17.3054 O   0  0  0  0  0  0  0  0  0  0  0  0
   22.4593   -5.3026  -14.3358 C   0  0  0  0  0  0  0  0  0  0  0  0
   22.3508   -3.9596  -14.7488 O   0  0  0  0  0  0  0  0  0  0  0  0
   19.2513   -5.1807  -15.3192 O   0  0  0  0  0  0  0  0  0  0  0  0
   22.4879   -5.4995  -13.1038 O   0  0  0  0  0  0  0  0  0  0  0  0
  2  1  1  1
  3  2  1  0
  4  5  2  0
  4  2  1  0
  6  4  1  0
  7  6  1  0
  8  7  1  0
  9  8  1  0
  9 10  1  0
 10 11  1  6
 10  6  1  0
 11 13  1  0
 12 11  2  0
 13 14  1  0
 14 15  1  1
 14 18  1  0
 16 20  1  0
 16 15  1  0
 17 16  2  0
 18 21  2  0
 18 19  1  0
M  END
$$$$
