APD.pdb
     RDKit          3D

 21 21  0  0  1  0  0  0  0  0999 V2000
   22.3983  -12.1648  -18.9475 C   0  0  0  0  0  0  0  0  0  0  0  0
   22.8695  -12.7026  -17.5954 C   0  0  2  0  0  0  0  0  0  0  0  0
   22.0421  -13.8099  -17.2703 N   0  0  0  0  0  0  0  0  0  0  0  0
   22.9713  -11.6395  -16.5903 C   0  0  0  0  0  0  0  0  0  0  0  0
   21.9412  -11.0783  -16.1975 O   0  0  0  0  0  0  0  0  0  0  0  0
   24.2289  -11.2172  -16.0387 N   0  0  0  0  0  0  0  0  0  0  0  0
   25.4151  -12.0128  -16.1668 C   0  0  0  0  0  0  0  0  0  0  0  0
   26.5457  -11.1850  -15.5381 C   0  0  0  0  0  0  0  0  0  0  0  0
   26.0035   -9.7785  -15.6072 C   0  0  0  0  0  0  0  0  0  0  0  0
   24.5248  -10.0379  -15.3033 C   0  0  1  0  0  0  0  0  0  0  0  0
   23.7453   -8.8369  -15.7342 C   0  0  0  0  0  0  0  0  0  0  0  0
   23.3412   -8.8038  -16.9196 O   0  0  0  0  0  0  0  0  0  0  0  0
   23.4342   -7.7420  -14.8912 N   0  0  0  0  0  0  0  0  0  0  0  0
   22.6081   -6.6270  -15.3347 C   0  0  1  0  0  0  0  0  0  0  0  0
   21.1829   -7.1956  -15.4496 C   0  0  0  0  0  0  0  0  0  0  0  0
   20.2175   -6.1324  -15.7886 C   0  0  0  0  0  0  0  0  0  0  0  0
   20.6157   -5.0766  -16.3372 O   0  0  0  0  0  0  0  0  0  0  0  0
   22.6052   -5.5241  -14.3697 C   0  0  0  0  0  0  0  0  0  0  0  0
   22.5497   -4.2244  -14.9116 O   0  0  0  0  0  0  0  0  0  0  0  0
   18.8641   -6.2753  -15.5107 O   0  0  0  0  0  0  0  0  0  0  0  0
   22.6430   -5.6007  -13.1246 O   0  0  0  0  0  0  0  0  0  0  0  0
  2  1  1  6
  3  2  1  0
  4  5  2  0
  4  2  1  0
  6  4  1  0
  7  6  1  0
  8  7  1  0
  9  8  1  0
  9 10  1  0
 10 11  1  6
 10  6  1  0
 11 13  1  0
 12 11  2  0
 13 14  1  0
 14 15  1  1
 14 18  1  0
 16 20  1  0
 16 15  1  0
 17 16  2  0
 18 21  2  0
 18 19  1  0
M  END
$$$$
