APD.pdb
     RDKit          3D

 21 21  0  0  1  0  0  0  0  0999 V2000
   21.2285  -11.4225  -19.3258 C   0  0  0  0  0  0  0  0  0  0  0  0
   20.9564  -12.0562  -17.9606 C   0  0  2  0  0  0  0  0  0  0  0  0
   19.7284  -12.7622  -18.0605 N   0  0  0  0  0  0  0  0  0  0  0  0
   21.0669  -11.0787  -16.8729 C   0  0  0  0  0  0  0  0  0  0  0  0
   20.1814  -10.2260  -16.7342 O   0  0  0  0  0  0  0  0  0  0  0  0
   22.1714  -11.0684  -15.9542 N   0  0  0  0  0  0  0  0  0  0  0  0
   23.0658  -12.1832  -15.8359 C   0  0  0  0  0  0  0  0  0  0  0  0
   24.1468  -11.7496  -14.8347 C   0  0  0  0  0  0  0  0  0  0  0  0
   24.0715  -10.2438  -14.8982 C   0  0  0  0  0  0  0  0  0  0  0  0
   22.5591  -10.0494  -15.0429 C   0  0  1  0  0  0  0  0  0  0  0  0
   22.3157   -8.6602  -15.5396 C   0  0  0  0  0  0  0  0  0  0  0  0
   22.5699   -8.4229  -16.7432 O   0  0  0  0  0  0  0  0  0  0  0  0
   21.8163   -7.6024  -14.7408 N   0  0  0  0  0  0  0  0  0  0  0  0
   21.6824   -6.2419  -15.2441 C   0  0  1  0  0  0  0  0  0  0  0  0
   20.1677   -5.9789  -15.3111 C   0  0  0  0  0  0  0  0  0  0  0  0
   19.8923   -4.5896  -15.7248 C   0  0  0  0  0  0  0  0  0  0  0  0
   20.3651   -4.1511  -16.8011 O   0  0  0  0  0  0  0  0  0  0  0  0
   22.2980   -5.2588  -14.3484 C   0  0  0  0  0  0  0  0  0  0  0  0
   22.3200   -5.5935  -12.9797 O   0  0  0  0  0  0  0  0  0  0  0  0
   19.1137   -3.7473  -14.9413 O   0  0  0  0  0  0  0  0  0  0  0  0
   22.8074   -4.1618  -14.6556 O   0  0  0  0  0  0  0  0  0  0  0  0
  2  1  1  6
  3  2  1  0
  4  5  2  0
  4  2  1  0
  6  4  1  0
  7  6  1  0
  8  7  1  0
  9  8  1  0
  9 10  1  0
 10 11  1  6
 10  6  1  0
 11 13  1  0
 12 11  2  0
 13 14  1  0
 14 15  1  1
 14 18  1  0
 16 20  1  0
 16 15  1  0
 17 16  2  0
 18 21  2  0
 18 19  1  0
M  END
$$$$
