APD.pdb
     RDKit          3D

 21 21  0  0  1  0  0  0  0  0999 V2000
   20.6752  -16.7320  -19.8986 C   0  0  0  0  0  0  0  0  0  0  0  0
   21.6793  -17.7622  -19.3790 C   0  0  2  0  0  0  0  0  0  0  0  0
   22.3045  -18.3497  -20.5105 N   0  0  0  0  0  0  0  0  0  0  0  0
   21.0684  -18.6814  -18.4132 C   0  0  0  0  0  0  0  0  0  0  0  0
   20.2211  -19.4935  -18.8043 O   0  0  0  0  0  0  0  0  0  0  0  0
   21.4145  -18.6774  -17.0189 N   0  0  0  0  0  0  0  0  0  0  0  0
   22.5070  -17.8974  -16.5141 C   0  0  0  0  0  0  0  0  0  0  0  0
   22.4899  -18.0879  -14.9903 C   0  0  0  0  0  0  0  0  0  0  0  0
   21.0663  -18.5130  -14.7260 C   0  0  0  0  0  0  0  0  0  0  0  0
   20.8101  -19.3951  -15.9518 C   0  0  1  0  0  0  0  0  0  0  0  0
   19.3324  -19.5728  -16.0942 C   0  0  0  0  0  0  0  0  0  0  0  0
   18.6560  -18.5666  -16.4099 O   0  0  0  0  0  0  0  0  0  0  0  0
   18.6530  -20.8003  -15.8988 N   0  0  0  0  0  0  0  0  0  0  0  0
   17.2040  -20.9135  -15.9979 C   0  0  1  0  0  0  0  0  0  0  0  0
   16.9169  -22.4233  -16.0730 C   0  0  0  0  0  0  0  0  0  0  0  0
   15.4795  -22.6759  -16.2907 C   0  0  0  0  0  0  0  0  0  0  0  0
   14.6979  -22.7310  -15.3108 O   0  0  0  0  0  0  0  0  0  0  0  0
   16.5252  -20.3567  -14.8244 C   0  0  0  0  0  0  0  0  0  0  0  0
   17.2132  -20.4648  -13.5992 O   0  0  0  0  0  0  0  0  0  0  0  0
   14.9670  -22.8564  -17.5690 O   0  0  0  0  0  0  0  0  0  0  0  0
   15.4113  -19.7957  -14.7831 O   0  0  0  0  0  0  0  0  0  0  0  0
  2  1  1  6
  3  2  1  0
  4  5  2  0
  4  2  1  0
  6  4  1  0
  7  6  1  0
  8  7  1  0
  9  8  1  0
  9 10  1  0
 10 11  1  6
 10  6  1  0
 11 13  1  0
 12 11  2  0
 13 14  1  0
 14 15  1  1
 14 18  1  0
 16 20  1  0
 16 15  1  0
 17 16  2  0
 18 21  2  0
 18 19  1  0
M  END
$$$$
