APD.pdb
     RDKit          3D

 21 21  0  0  1  0  0  0  0  0999 V2000
   20.5772  -12.0262  -18.9255 C   0  0  0  0  0  0  0  0  0  0  0  0
   20.5116  -12.6076  -17.5124 C   0  0  2  0  0  0  0  0  0  0  0  0
   19.2746  -13.2951  -17.3961 N   0  0  0  0  0  0  0  0  0  0  0  0
   20.8005  -11.5952  -16.4913 C   0  0  0  0  0  0  0  0  0  0  0  0
   20.0255  -10.6415  -16.3495 O   0  0  0  0  0  0  0  0  0  0  0  0
   21.9573  -11.6642  -15.6421 N   0  0  0  0  0  0  0  0  0  0  0  0
   22.7422  -12.8592  -15.5306 C   0  0  0  0  0  0  0  0  0  0  0  0
   23.9230  -12.5020  -14.6158 C   0  0  0  0  0  0  0  0  0  0  0  0
   23.9938  -10.9996  -14.7387 C   0  0  0  0  0  0  0  0  0  0  0  0
   22.5021  -10.6575  -14.8002 C   0  0  1  0  0  0  0  0  0  0  0  0
   22.3666   -9.2698  -15.3399 C   0  0  0  0  0  0  0  0  0  0  0  0
   22.2994   -9.1364  -16.5839 O   0  0  0  0  0  0  0  0  0  0  0  0
   22.3068   -8.1033  -14.5386 N   0  0  0  0  0  0  0  0  0  0  0  0
   22.1182   -6.7756  -15.1076 C   0  0  1  0  0  0  0  0  0  0  0  0
   20.6770   -6.7636  -15.6464 C   0  0  0  0  0  0  0  0  0  0  0  0
   20.3041   -5.4178  -16.1230 C   0  0  0  0  0  0  0  0  0  0  0  0
   20.7851   -4.9775  -17.1949 O   0  0  0  0  0  0  0  0  0  0  0  0
   22.2603   -5.7188  -14.1022 C   0  0  0  0  0  0  0  0  0  0  0  0
   21.9212   -6.0694  -12.7801 O   0  0  0  0  0  0  0  0  0  0  0  0
   19.4240   -4.6190  -15.4041 O   0  0  0  0  0  0  0  0  0  0  0  0
   22.6491   -4.5462  -14.2787 O   0  0  0  0  0  0  0  0  0  0  0  0
  2  1  1  6
  3  2  1  0
  4  5  2  0
  4  2  1  0
  6  4  1  0
  7  6  1  0
  8  7  1  0
  9  8  1  0
  9 10  1  0
 10 11  1  6
 10  6  1  0
 11 13  1  0
 12 11  2  0
 13 14  1  0
 14 15  1  1
 14 18  1  0
 16 20  1  0
 16 15  1  0
 17 16  2  0
 18 21  2  0
 18 19  1  0
M  END
$$$$
