APD.pdb
     RDKit          3D

 21 21  0  0  1  0  0  0  0  0999 V2000
   18.5047  -10.2657  -18.3450 C   0  0  0  0  0  0  0  0  0  0  0  0
   19.0342  -11.0803  -17.1637 C   0  0  2  0  0  0  0  0  0  0  0  0
   17.9757  -11.9163  -16.7196 N   0  0  0  0  0  0  0  0  0  0  0  0
   19.6679  -10.2277  -16.1526 C   0  0  0  0  0  0  0  0  0  0  0  0
   18.9860   -9.3807  -15.5628 O   0  0  0  0  0  0  0  0  0  0  0  0
   21.0606  -10.3345  -15.8164 N   0  0  0  0  0  0  0  0  0  0  0  0
   21.8468  -11.4690  -16.2060 C   0  0  0  0  0  0  0  0  0  0  0  0
   23.2803  -11.1638  -15.7470 C   0  0  0  0  0  0  0  0  0  0  0  0
   23.2777   -9.6591  -15.6329 C   0  0  0  0  0  0  0  0  0  0  0  0
   21.8684   -9.4271  -15.0795 C   0  0  1  0  0  0  0  0  0  0  0  0
   21.5190   -7.9885  -15.2891 C   0  0  0  0  0  0  0  0  0  0  0  0
   21.1814   -7.6370  -16.4433 O   0  0  0  0  0  0  0  0  0  0  0  0
   21.5426   -7.0042  -14.2708 N   0  0  0  0  0  0  0  0  0  0  0  0
   21.3050   -5.5933  -14.5449 C   0  0  1  0  0  0  0  0  0  0  0  0
   19.8050   -5.3735  -14.2815 C   0  0  0  0  0  0  0  0  0  0  0  0
   19.4353   -3.9602  -14.4896 C   0  0  0  0  0  0  0  0  0  0  0  0
   19.9450   -3.3123  -15.4354 O   0  0  0  0  0  0  0  0  0  0  0  0
   22.0780   -4.7206  -13.6569 C   0  0  0  0  0  0  0  0  0  0  0  0
   22.5670   -5.3127  -12.4753 O   0  0  0  0  0  0  0  0  0  0  0  0
   18.5269   -3.3243  -13.6530 O   0  0  0  0  0  0  0  0  0  0  0  0
   22.3565   -3.5159  -13.8256 O   0  0  0  0  0  0  0  0  0  0  0  0
  2  1  1  6
  3  2  1  0
  4  5  2  0
  4  2  1  0
  6  4  1  0
  7  6  1  0
  8  7  1  0
  9  8  1  0
  9 10  1  0
 10 11  1  6
 10  6  1  0
 11 13  1  0
 12 11  2  0
 13 14  1  0
 14 15  1  1
 14 18  1  0
 16 20  1  0
 16 15  1  0
 17 16  2  0
 18 21  2  0
 18 19  1  0
M  END
$$$$
