APD.pdb
     RDKit          3D

 21 21  0  0  1  0  0  0  0  0999 V2000
   18.4386  -10.3000  -17.9328 C   0  0  0  0  0  0  0  0  0  0  0  0
   18.7578  -10.8965  -16.5611 C   0  0  2  0  0  0  0  0  0  0  0  0
   17.5934  -11.5762  -16.1155 N   0  0  0  0  0  0  0  0  0  0  0  0
   19.3262   -9.8977  -15.6500 C   0  0  0  0  0  0  0  0  0  0  0  0
   18.6443   -8.9178  -15.3259 O   0  0  0  0  0  0  0  0  0  0  0  0
   20.6546  -10.0095  -15.1143 N   0  0  0  0  0  0  0  0  0  0  0  0
   21.4219  -11.2143  -15.2428 C   0  0  0  0  0  0  0  0  0  0  0  0
   22.7970  -10.9031  -14.6340 C   0  0  0  0  0  0  0  0  0  0  0  0
   22.8618   -9.3976  -14.7156 C   0  0  0  0  0  0  0  0  0  0  0  0
   21.4068   -9.0415  -14.3959 C   0  0  1  0  0  0  0  0  0  0  0  0
   21.1673   -7.6323  -14.8348 C   0  0  0  0  0  0  0  0  0  0  0  0
   21.0018   -7.4277  -16.0597 O   0  0  0  0  0  0  0  0  0  0  0  0
   21.1132   -6.5210  -13.9583 N   0  0  0  0  0  0  0  0  0  0  0  0
   21.0281   -5.1497  -14.4426 C   0  0  1  0  0  0  0  0  0  0  0  0
   19.7518   -4.5710  -13.8072 C   0  0  0  0  0  0  0  0  0  0  0  0
   19.5298   -3.1795  -14.2451 C   0  0  0  0  0  0  0  0  0  0  0  0
   19.7675   -2.2304  -13.4597 O   0  0  0  0  0  0  0  0  0  0  0  0
   22.1777   -4.3436  -14.0226 C   0  0  0  0  0  0  0  0  0  0  0  0
   22.8136   -4.7422  -12.8299 O   0  0  0  0  0  0  0  0  0  0  0  0
   19.0583   -2.8937  -15.5200 O   0  0  0  0  0  0  0  0  0  0  0  0
   22.6613   -3.3476  -14.5985 O   0  0  0  0  0  0  0  0  0  0  0  0
  2  1  1  6
  3  2  1  0
  4  5  2  0
  4  2  1  0
  6  4  1  0
  7  6  1  0
  8  7  1  0
  9  8  1  0
  9 10  1  0
 10 11  1  6
 10  6  1  0
 11 13  1  0
 12 11  2  0
 13 14  1  0
 14 15  1  1
 14 18  1  0
 16 20  1  0
 16 15  1  0
 17 16  2  0
 18 21  2  0
 18 19  1  0
M  END
$$$$
