APD.pdb
     RDKit          3D

 21 21  0  0  1  0  0  0  0  0999 V2000
   24.5607  -14.0734  -19.2279 C   0  0  0  0  0  0  0  0  0  0  0  0
   24.6341  -14.4343  -17.7434 C   0  0  2  0  0  0  0  0  0  0  0  0
   23.8038  -15.5688  -17.5436 N   0  0  0  0  0  0  0  0  0  0  0  0
   24.3787  -13.2725  -16.8856 C   0  0  0  0  0  0  0  0  0  0  0  0
   23.2122  -12.9085  -16.6925 O   0  0  0  0  0  0  0  0  0  0  0  0
   25.4359  -12.5313  -16.2556 N   0  0  0  0  0  0  0  0  0  0  0  0
   26.7827  -13.0225  -16.2156 C   0  0  0  0  0  0  0  0  0  0  0  0
   27.6138  -11.9151  -15.5510 C   0  0  0  0  0  0  0  0  0  0  0  0
   26.7665  -10.6865  -15.7744 C   0  0  0  0  0  0  0  0  0  0  0  0
   25.3667  -11.2794  -15.5871 C   0  0  1  0  0  0  0  0  0  0  0  0
   24.3769  -10.3259  -16.1759 C   0  0  0  0  0  0  0  0  0  0  0  0
   24.5552   -9.9658  -17.3626 O   0  0  0  0  0  0  0  0  0  0  0  0
   23.2553   -9.8091  -15.4820 N   0  0  0  0  0  0  0  0  0  0  0  0
   22.3273   -8.8668  -16.0927 C   0  0  1  0  0  0  0  0  0  0  0  0
   21.0750   -9.6921  -16.4367 C   0  0  0  0  0  0  0  0  0  0  0  0
   20.3053  -10.0133  -15.2194 C   0  0  0  0  0  0  0  0  0  0  0  0
   20.9056  -10.3332  -14.1651 O   0  0  0  0  0  0  0  0  0  0  0  0
   21.9506   -7.7889  -15.1740 C   0  0  0  0  0  0  0  0  0  0  0  0
   22.2481   -8.0003  -13.8129 O   0  0  0  0  0  0  0  0  0  0  0  0
   18.9170   -9.9697  -15.2145 O   0  0  0  0  0  0  0  0  0  0  0  0
   21.4003   -6.7049  -15.4557 O   0  0  0  0  0  0  0  0  0  0  0  0
  2  1  1  6
  3  2  1  0
  4  5  2  0
  4  2  1  0
  6  4  1  0
  7  6  1  0
  8  7  1  0
  9  8  1  0
  9 10  1  0
 10 11  1  6
 10  6  1  0
 11 13  1  0
 12 11  2  0
 13 14  1  0
 14 15  1  1
 14 18  1  0
 16 20  1  0
 16 15  1  0
 17 16  2  0
 18 21  2  0
 18 19  1  0
M  END
$$$$
