MKS.pdb
     RDKit          3D

 24 23  0  0  1  0  0  0  0  0999 V2000
    7.3854  -11.7716   27.2176 C   0  0  0  0  0  0  0  0  0  0  0  0
    6.2096  -12.2120   25.8931 S   0  0  0  0  0  0  0  0  0  0  0  0
    6.0226  -14.0117   25.9276 C   0  0  0  0  0  0  0  0  0  0  0  0
    7.3553  -14.7137   25.6874 C   0  0  0  0  0  0  0  0  0  0  0  0
    7.0479  -15.8872   24.7787 C   0  0  2  0  0  0  0  0  0  0  0  0
    6.1856  -16.7803   25.5302 N   0  0  0  0  0  0  0  0  0  0  0  0
    8.2550  -16.5864   24.3249 C   0  0  0  0  0  0  0  0  0  0  0  0
    8.8017  -17.4324   25.0858 O   0  0  0  0  0  0  0  0  0  0  0  0
    8.8412  -16.3606   23.0718 N   0  0  0  0  0  0  0  0  0  0  0  0
    9.9049  -17.2579   22.5254 C   0  0  1  0  0  0  0  0  0  0  0  0
   10.0999  -16.9290   21.0792 C   0  0  0  0  0  0  0  0  0  0  0  0
    9.2558  -17.6346   20.0937 C   0  0  0  0  0  0  0  0  0  0  0  0
    9.6066  -17.1755   18.6976 C   0  0  0  0  0  0  0  0  0  0  0  0
    8.7332  -17.9516   17.7172 C   0  0  0  0  0  0  0  0  0  0  0  0
    9.1376  -17.5353   16.3649 N   0  0  0  0  0  0  0  0  0  0  0  0
   11.0847  -17.0259   23.3828 C   0  0  0  0  0  0  0  0  0  0  0  0
   11.2988  -15.8394   23.8213 O   0  0  0  0  0  0  0  0  0  0  0  0
   14.1085  -18.5565   26.7207 O   0  0  0  0  0  0  0  0  0  0  0  0
   13.0040  -18.6588   25.8600 C   0  0  0  0  0  0  0  0  0  0  0  0
   13.1264  -17.6753   24.7116 C   0  0  2  0  0  0  0  0  0  0  0  0
   12.0314  -17.9712   23.7947 N   0  0  0  0  0  0  0  0  0  0  0  0
   14.4439  -17.9156   24.0675 C   0  0  0  0  0  0  0  0  0  0  0  0
   14.4543  -18.3718   22.9092 O   0  0  0  0  0  0  0  0  0  0  0  0
   15.6382  -17.6462   24.7204 O   0  0  0  0  0  0  0  0  0  0  0  0
  2  1  1  0
  3  2  1  0
  4  3  1  0
  5  4  1  0
  5  7  1  0
  5  6  1  1
  7  9  1  0
  7  8  2  0
  9 10  1  0
 10 11  1  6
 12 11  1  0
 13 12  1  0
 13 14  1  0
 15 14  1  0
 16 21  1  0
 16 10  1  0
 17 16  2  0
 20 19  1  1
 19 18  1  0
 20 22  1  0
 20 21  1  0
 22 24  1  0
 23 22  2  0
M  END
$$$$
