MKS.pdb
     RDKit          3D

 24 23  0  0  1  0  0  0  0  0999 V2000
    7.1590  -11.6318   26.7173 C   0  0  0  0  0  0  0  0  0  0  0  0
    5.8767  -12.9300   26.7484 S   0  0  0  0  0  0  0  0  0  0  0  0
    6.6116  -14.3816   27.5408 C   0  0  0  0  0  0  0  0  0  0  0  0
    7.4906  -15.1607   26.5678 C   0  0  0  0  0  0  0  0  0  0  0  0
    6.5714  -15.6155   25.4518 C   0  0  2  0  0  0  0  0  0  0  0  0
    6.0291  -16.8992   25.8567 N   0  0  0  0  0  0  0  0  0  0  0  0
    7.2565  -15.7227   24.1590 C   0  0  0  0  0  0  0  0  0  0  0  0
    7.8372  -16.8017   23.8553 O   0  0  0  0  0  0  0  0  0  0  0  0
    7.3003  -14.6739   23.2301 N   0  0  0  0  0  0  0  0  0  0  0  0
    8.0353  -14.7983   21.9341 C   0  0  1  0  0  0  0  0  0  0  0  0
    7.8408  -13.5331   21.1603 C   0  0  0  0  0  0  0  0  0  0  0  0
    8.6309  -13.3540   19.9253 C   0  0  0  0  0  0  0  0  0  0  0  0
    7.9447  -14.0503   18.7732 C   0  0  0  0  0  0  0  0  0  0  0  0
    8.8476  -13.9302   17.5499 C   0  0  0  0  0  0  0  0  0  0  0  0
    8.1321  -14.5604   16.4290 N   0  0  0  0  0  0  0  0  0  0  0  0
    9.4333  -15.0920   22.3089 C   0  0  0  0  0  0  0  0  0  0  0  0
    9.9933  -14.3624   23.2034 O   0  0  0  0  0  0  0  0  0  0  0  0
   11.1147  -18.1916   23.4230 O   0  0  0  0  0  0  0  0  0  0  0  0
   11.9068  -17.7249   22.3620 C   0  0  0  0  0  0  0  0  0  0  0  0
   11.6671  -16.2462   22.1240 C   0  0  2  0  0  0  0  0  0  0  0  0
   10.2533  -16.1036   21.7953 N   0  0  0  0  0  0  0  0  0  0  0  0
   12.5260  -15.8414   20.9809 C   0  0  0  0  0  0  0  0  0  0  0  0
   11.9674  -15.4697   19.9322 O   0  0  0  0  0  0  0  0  0  0  0  0
   13.9110  -15.8698   21.0595 O   0  0  0  0  0  0  0  0  0  0  0  0
  2  1  1  0
  3  2  1  0
  4  3  1  0
  5  4  1  0
  5  7  1  0
  5  6  1  1
  7  9  1  0
  7  8  2  0
  9 10  1  0
 10 11  1  1
 12 11  1  0
 13 12  1  0
 13 14  1  0
 15 14  1  0
 16 21  1  0
 16 10  1  0
 17 16  2  0
 20 19  1  6
 19 18  1  0
 20 22  1  0
 20 21  1  0
 22 24  1  0
 23 22  2  0
M  END
$$$$
