MKS.pdb
     RDKit          3D

 24 23  0  0  1  0  0  0  0  0999 V2000
    7.9381  -11.4388   26.9673 C   0  0  0  0  0  0  0  0  0  0  0  0
    6.5218  -12.3052   27.7249 S   0  0  0  0  0  0  0  0  0  0  0  0
    6.0456  -13.6335   26.5917 C   0  0  0  0  0  0  0  0  0  0  0  0
    7.2586  -14.2060   25.8653 C   0  0  0  0  0  0  0  0  0  0  0  0
    6.7078  -15.1799   24.8428 C   0  0  2  0  0  0  0  0  0  0  0  0
    6.0789  -16.2543   25.5883 N   0  0  0  0  0  0  0  0  0  0  0  0
    7.7410  -15.7041   23.9428 C   0  0  0  0  0  0  0  0  0  0  0  0
    8.2086  -16.8590   24.1456 O   0  0  0  0  0  0  0  0  0  0  0  0
    8.2429  -14.9785   22.8536 N   0  0  0  0  0  0  0  0  0  0  0  0
    9.2833  -15.5443   21.9411 C   0  0  1  0  0  0  0  0  0  0  0  0
    9.4432  -14.6168   20.7785 C   0  0  0  0  0  0  0  0  0  0  0  0
    8.3180  -14.5051   19.8282 C   0  0  0  0  0  0  0  0  0  0  0  0
    8.7791  -13.8098   18.5684 C   0  0  0  0  0  0  0  0  0  0  0  0
    7.5597  -13.6018   17.6763 C   0  0  0  0  0  0  0  0  0  0  0  0
    8.0189  -12.8544   16.4948 N   0  0  0  0  0  0  0  0  0  0  0  0
   10.4874  -15.7061   22.7805 C   0  0  0  0  0  0  0  0  0  0  0  0
   10.8894  -14.7042   23.4738 O   0  0  0  0  0  0  0  0  0  0  0  0
   12.0495  -19.2483   23.5181 O   0  0  0  0  0  0  0  0  0  0  0  0
   12.5714  -18.2501   24.3561 C   0  0  0  0  0  0  0  0  0  0  0  0
   12.5227  -16.8968   23.6727 C   0  0  2  0  0  0  0  0  0  0  0  0
   11.2724  -16.8564   22.9229 N   0  0  0  0  0  0  0  0  0  0  0  0
   13.6953  -16.8231   22.7628 C   0  0  0  0  0  0  0  0  0  0  0  0
   13.4831  -16.7882   21.5366 O   0  0  0  0  0  0  0  0  0  0  0  0
   14.9959  -16.7931   23.2453 O   0  0  0  0  0  0  0  0  0  0  0  0
  2  1  1  0
  3  2  1  0
  4  3  1  0
  5  4  1  0
  5  7  1  0
  5  6  1  1
  7  9  1  0
  7  8  2  0
  9 10  1  0
 10 11  1  6
 12 11  1  0
 13 12  1  0
 13 14  1  0
 15 14  1  0
 16 21  1  0
 16 10  1  0
 17 16  2  0
 20 19  1  6
 19 18  1  0
 20 22  1  0
 20 21  1  0
 22 24  1  0
 23 22  2  0
M  END
$$$$
