MKS.pdb
     RDKit          3D

 24 23  0  0  1  0  0  0  0  0999 V2000
   12.5913  -22.9291   18.9904 C   0  0  0  0  0  0  0  0  0  0  0  0
   13.1675  -22.1879   17.4254 S   0  0  0  0  0  0  0  0  0  0  0  0
   13.2320  -20.3973   17.6795 C   0  0  0  0  0  0  0  0  0  0  0  0
   11.8965  -19.8587   18.1824 C   0  0  0  0  0  0  0  0  0  0  0  0
   11.8650  -18.3953   17.7891 C   0  0  2  0  0  0  0  0  0  0  0  0
   12.9920  -18.1791   16.9008 N   0  0  0  0  0  0  0  0  0  0  0  0
   11.9311  -17.4943   18.9449 C   0  0  0  0  0  0  0  0  0  0  0  0
   13.0523  -17.0509   19.3190 O   0  0  0  0  0  0  0  0  0  0  0  0
   10.7974  -17.0946   19.6658 N   0  0  0  0  0  0  0  0  0  0  0  0
   10.8697  -16.0522   20.7351 C   0  0  1  0  0  0  0  0  0  0  0  0
    9.5502  -15.3503   20.7971 C   0  0  0  0  0  0  0  0  0  0  0  0
    9.1389  -14.5546   19.6226 C   0  0  0  0  0  0  0  0  0  0  0  0
    7.7424  -14.0171   19.8323 C   0  0  0  0  0  0  0  0  0  0  0  0
    7.4126  -13.1022   18.6574 C   0  0  0  0  0  0  0  0  0  0  0  0
    6.0155  -12.6737   18.8305 N   0  0  0  0  0  0  0  0  0  0  0  0
   11.2464  -16.7823   21.9623 C   0  0  0  0  0  0  0  0  0  0  0  0
   10.7637  -17.9563   22.1485 O   0  0  0  0  0  0  0  0  0  0  0  0
   14.7591  -16.7073   23.5154 O   0  0  0  0  0  0  0  0  0  0  0  0
   13.8408  -16.6612   24.5764 C   0  0  0  0  0  0  0  0  0  0  0  0
   12.4793  -17.1581   24.1291 C   0  0  2  0  0  0  0  0  0  0  0  0
   12.0962  -16.3409   22.9834 N   0  0  0  0  0  0  0  0  0  0  0  0
   11.5442  -16.9574   25.2665 C   0  0  0  0  0  0  0  0  0  0  0  0
   11.7569  -17.5900   26.3174 O   0  0  0  0  0  0  0  0  0  0  0  0
   10.4603  -16.0954   25.1802 O   0  0  0  0  0  0  0  0  0  0  0  0
  2  1  1  0
  3  2  1  0
  4  3  1  0
  5  4  1  0
  5  7  1  0
  5  6  1  6
  7  9  1  0
  7  8  2  0
  9 10  1  0
 10 11  1  1
 12 11  1  0
 13 12  1  0
 13 14  1  0
 15 14  1  0
 16 21  1  0
 16 10  1  0
 17 16  2  0
 20 19  1  1
 19 18  1  0
 20 22  1  0
 20 21  1  0
 22 24  1  0
 23 22  2  0
M  END
$$$$
