MKS.pdb
     RDKit          3D

 24 23  0  0  1  0  0  0  0  0999 V2000
    7.9915  -11.7471   25.3360 C   0  0  0  0  0  0  0  0  0  0  0  0
    7.4613  -12.3820   26.9627 S   0  0  0  0  0  0  0  0  0  0  0  0
    7.4307  -14.1875   26.8425 C   0  0  0  0  0  0  0  0  0  0  0  0
    6.5519  -14.6527   25.6858 C   0  0  0  0  0  0  0  0  0  0  0  0
    6.6469  -16.1654   25.6754 C   0  0  2  0  0  0  0  0  0  0  0  0
    6.8381  -16.5795   27.0530 N   0  0  0  0  0  0  0  0  0  0  0  0
    7.7352  -16.6609   24.8256 C   0  0  0  0  0  0  0  0  0  0  0  0
    8.6561  -17.3529   25.3421 O   0  0  0  0  0  0  0  0  0  0  0  0
    7.8063  -16.4022   23.4498 N   0  0  0  0  0  0  0  0  0  0  0  0
    8.8176  -17.0687   22.5732 C   0  0  1  0  0  0  0  0  0  0  0  0
    8.3624  -16.9461   21.1536 C   0  0  0  0  0  0  0  0  0  0  0  0
    7.3690  -17.9229   20.6633 C   0  0  0  0  0  0  0  0  0  0  0  0
    6.9827  -17.5901   19.2409 C   0  0  0  0  0  0  0  0  0  0  0  0
    5.9201  -18.5908   18.7988 C   0  0  0  0  0  0  0  0  0  0  0  0
    6.5331  -19.9262   18.8789 N   0  0  0  0  0  0  0  0  0  0  0  0
   10.0969  -16.3971   22.8786 C   0  0  0  0  0  0  0  0  0  0  0  0
   10.1222  -15.1148   22.9119 O   0  0  0  0  0  0  0  0  0  0  0  0
   14.3087  -16.1387   25.0495 O   0  0  0  0  0  0  0  0  0  0  0  0
   13.0869  -16.7573   24.7401 C   0  0  0  0  0  0  0  0  0  0  0  0
   12.5584  -16.2633   23.4069 C   0  0  2  0  0  0  0  0  0  0  0  0
   11.3289  -17.0042   23.1487 N   0  0  0  0  0  0  0  0  0  0  0  0
   13.5927  -16.5696   22.3848 C   0  0  0  0  0  0  0  0  0  0  0  0
   13.3491  -17.4663   21.5563 O   0  0  0  0  0  0  0  0  0  0  0  0
   14.8006  -15.8883   22.3382 O   0  0  0  0  0  0  0  0  0  0  0  0
  2  1  1  0
  3  2  1  0
  4  3  1  0
  5  4  1  0
  5  7  1  0
  5  6  1  1
  7  9  1  0
  7  8  2  0
  9 10  1  0
 10 11  1  6
 12 11  1  0
 13 12  1  0
 13 14  1  0
 15 14  1  0
 16 21  1  0
 16 10  1  0
 17 16  2  0
 20 19  1  1
 19 18  1  0
 20 22  1  0
 20 21  1  0
 22 24  1  0
 23 22  2  0
M  END
$$$$
