MKS.pdb
     RDKit          3D

 24 23  0  0  1  0  0  0  0  0999 V2000
    6.5390  -11.0703   26.9033 C   0  0  0  0  0  0  0  0  0  0  0  0
    6.8315  -12.6356   26.0117 S   0  0  0  0  0  0  0  0  0  0  0  0
    7.3046  -13.8693   27.2483 C   0  0  0  0  0  0  0  0  0  0  0  0
    8.0076  -15.0602   26.6048 C   0  0  0  0  0  0  0  0  0  0  0  0
    6.9570  -15.7562   25.7628 C   0  0  2  0  0  0  0  0  0  0  0  0
    6.4903  -16.8923   26.5357 N   0  0  0  0  0  0  0  0  0  0  0  0
    7.4687  -16.1878   24.4574 C   0  0  0  0  0  0  0  0  0  0  0  0
    7.5985  -17.4212   24.2220 O   0  0  0  0  0  0  0  0  0  0  0  0
    7.8261  -15.2884   23.4435 N   0  0  0  0  0  0  0  0  0  0  0  0
    8.2621  -15.7560   22.0920 C   0  0  1  0  0  0  0  0  0  0  0  0
    7.9959  -14.6617   21.1076 C   0  0  0  0  0  0  0  0  0  0  0  0
    8.4450  -14.8650   19.7153 C   0  0  0  0  0  0  0  0  0  0  0  0
    7.9798  -13.7139   18.8542 C   0  0  0  0  0  0  0  0  0  0  0  0
    8.4366  -13.9852   17.4246 C   0  0  0  0  0  0  0  0  0  0  0  0
    7.9676  -12.8559   16.6060 N   0  0  0  0  0  0  0  0  0  0  0  0
    9.6842  -16.1217   22.2493 C   0  0  0  0  0  0  0  0  0  0  0  0
   10.4420  -15.3495   22.9390 O   0  0  0  0  0  0  0  0  0  0  0  0
   11.0521  -19.6181   20.9548 O   0  0  0  0  0  0  0  0  0  0  0  0
   11.8844  -19.0444   21.9291 C   0  0  0  0  0  0  0  0  0  0  0  0
   11.7481  -17.5337   21.9286 C   0  0  2  0  0  0  0  0  0  0  0  0
   10.3329  -17.2458   21.7248 N   0  0  0  0  0  0  0  0  0  0  0  0
   12.5669  -17.0203   20.7998 C   0  0  0  0  0  0  0  0  0  0  0  0
   11.9750  -16.4902   19.8413 O   0  0  0  0  0  0  0  0  0  0  0  0
   13.9509  -17.1190   20.7946 O   0  0  0  0  0  0  0  0  0  0  0  0
  2  1  1  0
  3  2  1  0
  4  3  1  0
  5  4  1  0
  5  7  1  0
  5  6  1  1
  7  9  1  0
  7  8  2  0
  9 10  1  0
 10 11  1  6
 12 11  1  0
 13 12  1  0
 13 14  1  0
 15 14  1  0
 16 21  1  0
 16 10  1  0
 17 16  2  0
 20 19  1  6
 19 18  1  0
 20 22  1  0
 20 21  1  0
 22 24  1  0
 23 22  2  0
M  END
$$$$
