MKS.pdb
     RDKit          3D

 24 23  0  0  1  0  0  0  0  0999 V2000
    6.3250  -11.5546   25.9436 C   0  0  0  0  0  0  0  0  0  0  0  0
    6.8551  -12.7914   27.1765 S   0  0  0  0  0  0  0  0  0  0  0  0
    7.8656  -14.0117   26.3019 C   0  0  0  0  0  0  0  0  0  0  0  0
    7.4324  -15.4352   26.6374 C   0  0  0  0  0  0  0  0  0  0  0  0
    6.5683  -15.8896   25.4781 C   0  0  2  0  0  0  0  0  0  0  0  0
    5.9540  -17.1406   25.8826 N   0  0  0  0  0  0  0  0  0  0  0  0
    7.3282  -16.0593   24.2348 C   0  0  0  0  0  0  0  0  0  0  0  0
    8.0262  -17.0989   24.0745 O   0  0  0  0  0  0  0  0  0  0  0  0
    7.3192  -15.1131   23.2006 N   0  0  0  0  0  0  0  0  0  0  0  0
    8.0043  -15.3644   21.8957 C   0  0  1  0  0  0  0  0  0  0  0  0
    7.7553  -14.1919   21.0009 C   0  0  0  0  0  0  0  0  0  0  0  0
    7.5626  -14.4550   19.5603 C   0  0  0  0  0  0  0  0  0  0  0  0
    8.3637  -13.4648   18.7475 C   0  0  0  0  0  0  0  0  0  0  0  0
    8.0802  -13.7326   17.2731 C   0  0  0  0  0  0  0  0  0  0  0  0
    8.6957  -12.6322   16.5143 N   0  0  0  0  0  0  0  0  0  0  0  0
    9.4213  -15.5960   22.2411 C   0  0  0  0  0  0  0  0  0  0  0  0
   10.0273  -14.7216   22.9582 O   0  0  0  0  0  0  0  0  0  0  0  0
   11.1081  -19.0963   22.0911 O   0  0  0  0  0  0  0  0  0  0  0  0
   11.9393  -18.1275   22.6756 C   0  0  0  0  0  0  0  0  0  0  0  0
   11.6551  -16.7558   22.0940 C   0  0  2  0  0  0  0  0  0  0  0  0
   10.2147  -16.6895   21.8744 N   0  0  0  0  0  0  0  0  0  0  0  0
   12.3973  -16.6619   20.8100 C   0  0  0  0  0  0  0  0  0  0  0  0
   11.7380  -16.5498   19.7599 O   0  0  0  0  0  0  0  0  0  0  0  0
   13.7836  -16.6963   20.7612 O   0  0  0  0  0  0  0  0  0  0  0  0
  2  1  1  0
  3  2  1  0
  4  3  1  0
  5  4  1  0
  5  7  1  0
  5  6  1  1
  7  9  1  0
  7  8  2  0
  9 10  1  0
 10 11  1  6
 12 11  1  0
 13 12  1  0
 13 14  1  0
 15 14  1  0
 16 21  1  0
 16 10  1  0
 17 16  2  0
 20 19  1  6
 19 18  1  0
 20 22  1  0
 20 21  1  0
 22 24  1  0
 23 22  2  0
M  END
$$$$
