MKS.pdb
     RDKit          3D

 24 23  0  0  1  0  0  0  0  0999 V2000
    7.9824  -12.2277   28.2015 C   0  0  0  0  0  0  0  0  0  0  0  0
    6.9311  -12.1455   26.7120 S   0  0  0  0  0  0  0  0  0  0  0  0
    6.0508  -13.7226   26.5973 C   0  0  0  0  0  0  0  0  0  0  0  0
    7.0183  -14.8868   26.4097 C   0  0  0  0  0  0  0  0  0  0  0  0
    6.3703  -15.8045   25.3923 C   0  0  2  0  0  0  0  0  0  0  0  0
    6.0541  -17.0385   26.0873 N   0  0  0  0  0  0  0  0  0  0  0  0
    7.2297  -16.0643   24.2321 C   0  0  0  0  0  0  0  0  0  0  0  0
    7.8855  -17.1416   24.1781 O   0  0  0  0  0  0  0  0  0  0  0  0
    7.3622  -15.1651   23.1649 N   0  0  0  0  0  0  0  0  0  0  0  0
    8.1808  -15.4901   21.9568 C   0  0  1  0  0  0  0  0  0  0  0  0
    7.9227  -14.4441   20.9191 C   0  0  0  0  0  0  0  0  0  0  0  0
    8.6133  -14.5787   19.6205 C   0  0  0  0  0  0  0  0  0  0  0  0
    7.9431  -13.6992   18.5908 C   0  0  0  0  0  0  0  0  0  0  0  0
    8.6313  -13.9402   17.2512 C   0  0  0  0  0  0  0  0  0  0  0  0
    7.9786  -13.0568   16.2721 N   0  0  0  0  0  0  0  0  0  0  0  0
    9.5743  -15.5587   22.4408 C   0  0  0  0  0  0  0  0  0  0  0  0
   10.0203  -14.5948   23.1606 O   0  0  0  0  0  0  0  0  0  0  0  0
   11.6532  -18.8720   22.2544 O   0  0  0  0  0  0  0  0  0  0  0  0
   12.3025  -17.9048   23.0380 C   0  0  0  0  0  0  0  0  0  0  0  0
   11.9046  -16.5071   22.6032 C   0  0  2  0  0  0  0  0  0  0  0  0
   10.5027  -16.5800   22.2075 N   0  0  0  0  0  0  0  0  0  0  0  0
   12.7684  -16.1445   21.4498 C   0  0  0  0  0  0  0  0  0  0  0  0
   12.2251  -15.9747   20.3425 O   0  0  0  0  0  0  0  0  0  0  0  0
   14.1415  -15.9946   21.5817 O   0  0  0  0  0  0  0  0  0  0  0  0
  2  1  1  0
  3  2  1  0
  4  3  1  0
  5  4  1  0
  5  7  1  0
  5  6  1  1
  7  9  1  0
  7  8  2  0
  9 10  1  0
 10 11  1  6
 12 11  1  0
 13 12  1  0
 13 14  1  0
 15 14  1  0
 16 21  1  0
 16 10  1  0
 17 16  2  0
 20 19  1  6
 19 18  1  0
 20 22  1  0
 20 21  1  0
 22 24  1  0
 23 22  2  0
M  END
$$$$
