MKS.pdb
     RDKit          3D

 24 23  0  0  1  0  0  0  0  0999 V2000
    7.1357  -11.1711   26.8979 C   0  0  0  0  0  0  0  0  0  0  0  0
    6.9573  -12.5756   28.0495 S   0  0  0  0  0  0  0  0  0  0  0  0
    6.3255  -13.9723   27.0877 C   0  0  0  0  0  0  0  0  0  0  0  0
    7.2082  -14.2582   25.8770 C   0  0  0  0  0  0  0  0  0  0  0  0
    6.5310  -15.3884   25.1279 C   0  0  2  0  0  0  0  0  0  0  0  0
    6.5193  -16.5315   26.0217 N   0  0  0  0  0  0  0  0  0  0  0  0
    7.2043  -15.7187   23.8670 C   0  0  0  0  0  0  0  0  0  0  0  0
    7.5102  -16.9195   23.6263 O   0  0  0  0  0  0  0  0  0  0  0  0
    7.5303  -14.7558   22.9019 N   0  0  0  0  0  0  0  0  0  0  0  0
    8.1411  -15.1299   21.5896 C   0  0  1  0  0  0  0  0  0  0  0  0
    8.0815  -13.9386   20.6869 C   0  0  0  0  0  0  0  0  0  0  0  0
    8.8314  -14.0006   19.4160 C   0  0  0  0  0  0  0  0  0  0  0  0
    7.9241  -13.6256   18.2675 C   0  0  0  0  0  0  0  0  0  0  0  0
    8.7052  -13.8202   16.9721 C   0  0  0  0  0  0  0  0  0  0  0  0
    7.7911  -13.4839   15.8690 N   0  0  0  0  0  0  0  0  0  0  0  0
    9.5032  -15.5979   21.9162 C   0  0  0  0  0  0  0  0  0  0  0  0
   10.1735  -14.9585   22.8038 O   0  0  0  0  0  0  0  0  0  0  0  0
   10.7978  -18.9189   22.8464 O   0  0  0  0  0  0  0  0  0  0  0  0
   11.6608  -18.5018   21.8206 C   0  0  0  0  0  0  0  0  0  0  0  0
   11.5791  -16.9993   21.6289 C   0  0  2  0  0  0  0  0  0  0  0  0
   10.1786  -16.6916   21.3621 N   0  0  0  0  0  0  0  0  0  0  0  0
   12.4338  -16.6594   20.4618 C   0  0  0  0  0  0  0  0  0  0  0  0
   11.8798  -16.2061   19.4431 O   0  0  0  0  0  0  0  0  0  0  0  0
   13.8100  -16.8345   20.4861 O   0  0  0  0  0  0  0  0  0  0  0  0
  2  1  1  0
  3  2  1  0
  4  3  1  0
  5  4  1  0
  5  7  1  0
  5  6  1  1
  7  9  1  0
  7  8  2  0
  9 10  1  0
 10 11  1  6
 12 11  1  0
 13 12  1  0
 13 14  1  0
 15 14  1  0
 16 21  1  0
 16 10  1  0
 17 16  2  0
 20 19  1  6
 19 18  1  0
 20 22  1  0
 20 21  1  0
 22 24  1  0
 23 22  2  0
M  END
$$$$
