MKS.pdb
     RDKit          3D

 24 23  0  0  1  0  0  0  0  0999 V2000
    7.8324  -11.8886   26.6820 C   0  0  0  0  0  0  0  0  0  0  0  0
    6.2466  -12.7347   26.9985 S   0  0  0  0  0  0  0  0  0  0  0  0
    6.6372  -14.4491   27.4265 C   0  0  0  0  0  0  0  0  0  0  0  0
    7.5070  -15.1044   26.3586 C   0  0  0  0  0  0  0  0  0  0  0  0
    6.5461  -15.6860   25.3408 C   0  0  2  0  0  0  0  0  0  0  0  0
    6.1819  -17.0064   25.8199 N   0  0  0  0  0  0  0  0  0  0  0  0
    7.1213  -15.7599   23.9933 C   0  0  0  0  0  0  0  0  0  0  0  0
    7.4566  -16.8835   23.5256 O   0  0  0  0  0  0  0  0  0  0  0  0
    7.3206  -14.6312   23.1864 N   0  0  0  0  0  0  0  0  0  0  0  0
    7.9157  -14.7344   21.8188 C   0  0  1  0  0  0  0  0  0  0  0  0
    7.7417  -13.4180   21.1301 C   0  0  0  0  0  0  0  0  0  0  0  0
    8.4256  -13.2236   19.8355 C   0  0  0  0  0  0  0  0  0  0  0  0
    7.6844  -13.9665   18.7484 C   0  0  0  0  0  0  0  0  0  0  0  0
    8.4780  -13.8157   17.4547 C   0  0  0  0  0  0  0  0  0  0  0  0
    7.6823  -14.4485   16.3908 N   0  0  0  0  0  0  0  0  0  0  0  0
    9.3177  -15.1441   22.0369 C   0  0  0  0  0  0  0  0  0  0  0  0
   10.0211  -14.4902   22.8876 O   0  0  0  0  0  0  0  0  0  0  0  0
   10.6244  -18.6580   20.9461 O   0  0  0  0  0  0  0  0  0  0  0  0
   11.5069  -17.9978   21.8158 C   0  0  0  0  0  0  0  0  0  0  0  0
   11.4092  -16.4945   21.6393 C   0  0  2  0  0  0  0  0  0  0  0  0
    9.9999  -16.1950   21.4126 N   0  0  0  0  0  0  0  0  0  0  0  0
   12.2299  -16.1384   20.4527 C   0  0  0  0  0  0  0  0  0  0  0  0
   11.6453  -15.6825   19.4525 O   0  0  0  0  0  0  0  0  0  0  0  0
   13.6078  -16.3014   20.4396 O   0  0  0  0  0  0  0  0  0  0  0  0
  2  1  1  0
  3  2  1  0
  4  3  1  0
  5  4  1  0
  5  7  1  0
  5  6  1  1
  7  9  1  0
  7  8  2  0
  9 10  1  0
 10 11  1  1
 12 11  1  0
 13 12  1  0
 13 14  1  0
 15 14  1  0
 16 21  1  0
 16 10  1  0
 17 16  2  0
 20 19  1  6
 19 18  1  0
 20 22  1  0
 20 21  1  0
 22 24  1  0
 23 22  2  0
M  END
$$$$
