MKS.pdb
     RDKit          3D

 24 23  0  0  1  0  0  0  0  0999 V2000
    9.2599  -12.4661   28.1243 C   0  0  0  0  0  0  0  0  0  0  0  0
    7.6138  -11.6796   28.0785 S   0  0  0  0  0  0  0  0  0  0  0  0
    6.5612  -12.7144   27.0314 C   0  0  0  0  0  0  0  0  0  0  0  0
    7.3886  -13.7021   26.2150 C   0  0  0  0  0  0  0  0  0  0  0  0
    6.3951  -14.4828   25.3780 C   0  0  2  0  0  0  0  0  0  0  0  0
    5.7751  -15.4508   26.2637 N   0  0  0  0  0  0  0  0  0  0  0  0
    7.0190  -15.1501   24.2301 C   0  0  0  0  0  0  0  0  0  0  0  0
    7.1417  -16.4064   24.2378 O   0  0  0  0  0  0  0  0  0  0  0  0
    7.4927  -14.4547   23.1090 N   0  0  0  0  0  0  0  0  0  0  0  0
    8.0824  -15.1637   21.9323 C   0  0  1  0  0  0  0  0  0  0  0  0
    8.1192  -14.2110   20.7797 C   0  0  0  0  0  0  0  0  0  0  0  0
    7.7478  -14.7290   19.4473 C   0  0  0  0  0  0  0  0  0  0  0  0
    8.3223  -13.8357   18.3725 C   0  0  0  0  0  0  0  0  0  0  0  0
    7.9743  -14.4488   17.0200 C   0  0  0  0  0  0  0  0  0  0  0  0
    8.4173  -13.4929   15.9926 N   0  0  0  0  0  0  0  0  0  0  0  0
    9.4029  -15.6409   22.3900 C   0  0  0  0  0  0  0  0  0  0  0  0
   10.1536  -14.8309   23.0431 O   0  0  0  0  0  0  0  0  0  0  0  0
   10.5657  -19.3518   21.6496 O   0  0  0  0  0  0  0  0  0  0  0  0
   11.3545  -18.7864   22.6641 C   0  0  0  0  0  0  0  0  0  0  0  0
   11.3147  -17.2718   22.5928 C   0  0  2  0  0  0  0  0  0  0  0  0
    9.9580  -16.9114   22.1971 N   0  0  0  0  0  0  0  0  0  0  0  0
   12.3013  -16.8556   21.5623 C   0  0  0  0  0  0  0  0  0  0  0  0
   11.8702  -16.3441   20.5124 O   0  0  0  0  0  0  0  0  0  0  0  0
   13.6665  -17.0235   21.7454 O   0  0  0  0  0  0  0  0  0  0  0  0
  2  1  1  0
  3  2  1  0
  4  3  1  0
  5  4  1  0
  5  7  1  0
  5  6  1  1
  7  9  1  0
  7  8  2  0
  9 10  1  0
 10 11  1  6
 12 11  1  0
 13 12  1  0
 13 14  1  0
 15 14  1  0
 16 21  1  0
 16 10  1  0
 17 16  2  0
 20 19  1  6
 19 18  1  0
 20 22  1  0
 20 21  1  0
 22 24  1  0
 23 22  2  0
M  END
$$$$
