RPI.pdb
     RDKit          3D

 27 27  0  0  1  0  0  0  0  0999 V2000
   21.8931  -19.9990  -15.8606 N   0  0  0  0  0  0  0  0  0  0  0  0
   21.9483  -18.7221  -15.2149 C   0  0  0  0  0  0  0  0  0  0  0  0
   20.9738  -17.9004  -15.3293 N   0  0  0  0  0  0  0  0  0  0  0  0
   23.1045  -18.3716  -14.4413 N   0  0  0  0  0  0  0  0  0  0  0  0
   24.2459  -19.2294  -14.3215 C   0  0  0  0  0  0  0  0  0  0  0  0
   23.9622  -20.4741  -13.4779 C   0  0  0  0  0  0  0  0  0  0  0  0
   25.0587  -20.5422  -12.4506 C   0  0  0  0  0  0  0  0  0  0  0  0
   25.8195  -21.8586  -12.4904 C   0  0  2  0  0  0  0  0  0  0  0  0
   24.9643  -22.9606  -12.8365 N   0  0  0  0  0  0  0  0  0  0  0  0
   26.6724  -22.0538  -11.3202 C   0  0  0  0  0  0  0  0  0  0  0  0
   26.2576  -22.8842  -10.4364 O   0  0  0  0  0  0  0  0  0  0  0  0
   21.0047  -17.0041  -14.7984 N   0  0  0  0  0  0  0  0  0  0  0  0
   27.9186  -21.4138  -11.0590 C   0  0  0  0  0  0  0  0  0  0  0  0
   28.6366  -20.4241  -11.8211 C   0  0  0  0  0  0  0  0  0  0  0  0
   30.0752  -20.8257  -11.6363 C   0  0  0  0  0  0  0  0  0  0  0  0
   30.1216  -21.6846  -10.3963 C   0  0  1  0  0  0  0  0  0  0  0  0
   28.7348  -21.6677   -9.8917 C   0  0  0  0  0  0  0  0  0  0  0  0
   28.4710  -20.7133   -8.7953 O   0  0  0  0  0  0  0  0  0  0  0  0
   27.7464  -19.7223   -9.0443 C   0  0  0  0  0  0  0  0  0  0  0  0
   30.1317  -22.1443   -3.5427 C   0  0  0  0  0  0  0  0  0  0  0  0
   29.1972  -21.8211   -4.6573 C   0  0  2  0  0  0  0  0  0  0  0  0
   29.2189  -20.4063   -5.1300 C   0  0  0  0  0  0  0  0  0  0  0  0
   28.6892  -19.5312   -4.0012 C   0  0  2  0  0  0  0  0  0  0  0  0
   28.4155  -20.1197   -6.3493 N   0  0  0  0  0  0  0  0  0  0  0  0
   28.9823  -20.8384   -7.4737 C   0  0  0  0  0  0  0  0  0  0  0  0
   28.2059  -18.6923   -6.6443 O   0  0  0  0  0  0  0  0  0  0  0  0
   27.0396  -18.0784   -6.2547 O   0  0  0  0  0  0  0  0  0  0  0  0
  2  4  1  0
  2  1  1  0
  3  2  2  0
  5  4  1  0
  6  5  1  0
  7  6  1  0
  8  7  1  0
  8  9  1  1
 10  8  1  0
 11 10  2  0
 12 16  1  0
 12 10  1  0
 13 14  1  0
 13 12  1  0
 14 15  1  0
 15 16  1  0
 16 17  1  1
 18 17  2  0
 19 20  1  0
 20 21  1  0
 21 22  1  6
 23 21  1  0
 23 24  1  6
 24 17  1  0
 25 26  1  0
 25 23  1  0
 27 25  2  0
M  END
$$$$
