RPI.pdb
     RDKit          3D

 27 27  0  0  1  0  0  0  0  0999 V2000
   18.2061  -11.3694    5.5583 N   0  0  0  0  0  0  0  0  0  0  0  0
   19.4771  -11.9560    5.2569 C   0  0  0  0  0  0  0  0  0  0  0  0
   20.4795  -11.7500    6.0254 N   0  0  0  0  0  0  0  0  0  0  0  0
   19.6174  -12.7742    4.0868 N   0  0  0  0  0  0  0  0  0  0  0  0
   18.6015  -12.8683    3.0808 C   0  0  0  0  0  0  0  0  0  0  0  0
   17.2706  -13.3833    3.6332 C   0  0  0  0  0  0  0  0  0  0  0  0
   17.1958  -14.8375    3.2564 C   0  0  0  0  0  0  0  0  0  0  0  0
   15.9622  -15.5270    3.8189 C   0  0  2  0  0  0  0  0  0  0  0  0
   15.0921  -14.6019    4.4916 N   0  0  0  0  0  0  0  0  0  0  0  0
   16.2829  -16.7507    4.5500 C   0  0  0  0  0  0  0  0  0  0  0  0
   15.8850  -16.8166    5.7665 O   0  0  0  0  0  0  0  0  0  0  0  0
   21.3870  -12.2131    5.8060 N   0  0  0  0  0  0  0  0  0  0  0  0
   16.9952  -17.8792    4.0498 C   0  0  0  0  0  0  0  0  0  0  0  0
   17.4848  -18.1604    2.7244 C   0  0  0  0  0  0  0  0  0  0  0  0
   17.2623  -19.6422    2.5835 C   0  0  0  0  0  0  0  0  0  0  0  0
   17.1426  -20.1900    3.9846 C   0  0  2  0  0  0  0  0  0  0  0  0
   17.3794  -19.0199    4.8524 C   0  0  0  0  0  0  0  0  0  0  0  0
   18.7489  -18.8990    5.3932 O   0  0  0  0  0  0  0  0  0  0  0  0
   19.6545  -18.5234    4.6134 C   0  0  0  0  0  0  0  0  0  0  0  0
   21.9011  -16.0253    9.2089 C   0  0  0  0  0  0  0  0  0  0  0  0
   21.7087  -17.4613    8.8612 C   0  0  2  0  0  0  0  0  0  0  0  0
   20.4127  -17.7998    8.2043 C   0  0  0  0  0  0  0  0  0  0  0  0
   19.4110  -18.1391    9.3007 C   0  0  2  0  0  0  0  0  0  0  0  0
   20.4508  -18.9392    7.2480 N   0  0  0  0  0  0  0  0  0  0  0  0
   19.1147  -19.1795    6.7391 C   0  0  0  0  0  0  0  0  0  0  0  0
   21.0868  -20.1665    7.7556 O   0  0  0  0  0  0  0  0  0  0  0  0
   22.4348  -20.3630    7.5734 O   0  0  0  0  0  0  0  0  0  0  0  0
  2  4  1  0
  2  1  1  0
  3  2  2  0
  5  4  1  0
  6  5  1  0
  7  6  1  0
  8  7  1  0
  8  9  1  1
 10  8  1  0
 11 10  2  0
 12 16  1  0
 12 10  1  0
 13 14  1  0
 13 12  1  0
 14 15  1  0
 15 16  1  0
 16 17  1  6
 18 17  2  0
 19 20  1  0
 20 21  1  0
 21 22  1  6
 23 21  1  0
 23 24  1  1
 24 17  1  0
 25 26  1  0
 25 23  1  0
 27 25  2  0
M  END
$$$$
