RPI.pdb
     RDKit          3D

 27 27  0  0  1  0  0  0  0  0999 V2000
   18.8296  -23.3248  -11.8047 N   0  0  0  0  0  0  0  0  0  0  0  0
   19.1357  -23.7216  -10.4633 C   0  0  0  0  0  0  0  0  0  0  0  0
   18.2681  -24.3517   -9.7646 N   0  0  0  0  0  0  0  0  0  0  0  0
   20.4209  -23.4056   -9.9095 N   0  0  0  0  0  0  0  0  0  0  0  0
   21.5468  -23.0468  -10.7197 C   0  0  0  0  0  0  0  0  0  0  0  0
   21.2833  -21.8094  -11.5807 C   0  0  0  0  0  0  0  0  0  0  0  0
   22.2581  -20.7619  -11.1172 C   0  0  0  0  0  0  0  0  0  0  0  0
   23.6710  -21.3028  -10.9609 C   0  0  2  0  0  0  0  0  0  0  0  0
   24.0709  -21.3645   -9.5819 N   0  0  0  0  0  0  0  0  0  0  0  0
   24.6213  -20.6731  -11.8750 C   0  0  0  0  0  0  0  0  0  0  0  0
   25.0917  -19.5341  -11.5229 O   0  0  0  0  0  0  0  0  0  0  0  0
   18.5190  -24.6501   -8.7981 N   0  0  0  0  0  0  0  0  0  0  0  0
   25.0780  -21.1947  -13.1200 C   0  0  0  0  0  0  0  0  0  0  0  0
   24.6656  -22.3680  -13.8472 C   0  0  0  0  0  0  0  0  0  0  0  0
   25.9543  -22.8798  -14.4324 C   0  0  0  0  0  0  0  0  0  0  0  0
   26.9138  -21.7149  -14.4335 C   0  0  1  0  0  0  0  0  0  0  0  0
   26.1113  -20.5841  -13.9280 C   0  0  0  0  0  0  0  0  0  0  0  0
   25.5649  -19.6823  -14.9628 O   0  0  0  0  0  0  0  0  0  0  0  0
   24.4776  -19.9981  -15.4989 C   0  0  0  0  0  0  0  0  0  0  0  0
   24.9299  -13.7320  -15.6722 C   0  0  0  0  0  0  0  0  0  0  0  0
   24.9477  -15.0550  -16.3573 C   0  0  2  0  0  0  0  0  0  0  0  0
   25.5176  -16.1849  -15.5672 C   0  0  0  0  0  0  0  0  0  0  0  0
   26.9626  -15.8364  -15.2340 C   0  0  2  0  0  0  0  0  0  0  0  0
   25.5083  -17.5127  -16.2388 N   0  0  0  0  0  0  0  0  0  0  0  0
   26.1863  -18.4782  -15.3961 C   0  0  0  0  0  0  0  0  0  0  0  0
   26.0139  -17.5226  -17.6218 O   0  0  0  0  0  0  0  0  0  0  0  0
   25.1407  -17.3544  -18.6697 O   0  0  0  0  0  0  0  0  0  0  0  0
  2  4  1  0
  2  1  1  0
  3  2  2  0
  5  4  1  0
  6  5  1  0
  7  6  1  0
  8  7  1  0
  8  9  1  1
 10  8  1  0
 11 10  2  0
 12 16  1  0
 12 10  1  0
 13 14  1  0
 13 12  1  0
 14 15  1  0
 15 16  1  0
 16 17  1  6
 18 17  2  0
 19 20  1  0
 20 21  1  0
 21 22  1  1
 23 21  1  0
 23 24  1  6
 24 17  1  0
 25 26  1  0
 25 23  1  0
 27 25  2  0
M  END
$$$$
