RPI.pdb
     RDKit          3D

 27 27  0  0  1  0  0  0  0  0999 V2000
   21.8935  -18.8814  -17.5083 N   0  0  0  0  0  0  0  0  0  0  0  0
   23.2888  -18.6975  -17.7724 C   0  0  0  0  0  0  0  0  0  0  0  0
   23.6758  -17.7854  -18.5824 N   0  0  0  0  0  0  0  0  0  0  0  0
   24.2477  -19.5445  -17.1234 N   0  0  0  0  0  0  0  0  0  0  0  0
   23.8766  -20.5419  -16.1640 C   0  0  0  0  0  0  0  0  0  0  0  0
   24.2125  -21.9607  -16.6285 C   0  0  0  0  0  0  0  0  0  0  0  0
   23.6419  -22.8871  -15.5900 C   0  0  0  0  0  0  0  0  0  0  0  0
   24.6267  -23.1938  -14.4723 C   0  0  2  0  0  0  0  0  0  0  0  0
   25.4209  -24.3559  -14.7628 N   0  0  0  0  0  0  0  0  0  0  0  0
   24.0089  -23.1558  -13.1487 C   0  0  0  0  0  0  0  0  0  0  0  0
   23.5494  -24.2628  -12.6949 O   0  0  0  0  0  0  0  0  0  0  0  0
   24.6932  -17.6913  -18.7875 N   0  0  0  0  0  0  0  0  0  0  0  0
   23.8627  -22.0128  -12.3102 C   0  0  0  0  0  0  0  0  0  0  0  0
   24.2150  -20.6351  -12.5417 C   0  0  0  0  0  0  0  0  0  0  0  0
   24.7036  -20.1748  -11.1947 C   0  0  0  0  0  0  0  0  0  0  0  0
   24.1321  -21.1374  -10.1826 C   0  0  2  0  0  0  0  0  0  0  0  0
   23.2879  -22.0456  -10.9830 C   0  0  0  0  0  0  0  0  0  0  0  0
   21.8437  -21.7343  -10.9812 O   0  0  0  0  0  0  0  0  0  0  0  0
   21.3850  -21.0812  -11.9469 C   0  0  0  0  0  0  0  0  0  0  0  0
   17.4141  -25.1673   -8.3682 C   0  0  0  0  0  0  0  0  0  0  0  0
   17.8137  -24.1534   -9.3841 C   0  0  2  0  0  0  0  0  0  0  0  0
   19.1844  -23.5857   -9.2271 C   0  0  0  0  0  0  0  0  0  0  0  0
   19.2577  -22.9206   -7.8586 C   0  0  2  0  0  0  0  0  0  0  0  0
   19.5891  -22.5818  -10.2482 N   0  0  0  0  0  0  0  0  0  0  0  0
   20.9337  -22.1230   -9.9591 C   0  0  0  0  0  0  0  0  0  0  0  0
   18.6465  -21.4676  -10.4443 O   0  0  0  0  0  0  0  0  0  0  0  0
   17.4223  -21.7024  -11.0233 O   0  0  0  0  0  0  0  0  0  0  0  0
  2  4  1  0
  2  1  1  0
  3  2  2  0
  5  4  1  0
  6  5  1  0
  7  6  1  0
  8  7  1  0
  8  9  1  6
 10  8  1  0
 11 10  2  0
 12 16  1  0
 12 10  1  0
 13 14  1  0
 13 12  1  0
 14 15  1  0
 15 16  1  0
 16 17  1  1
 18 17  2  0
 19 20  1  0
 20 21  1  0
 21 22  1  6
 23 21  1  0
 23 24  1  6
 24 17  1  0
 25 26  1  0
 25 23  1  0
 27 25  2  0
M  END
$$$$
