RPI.pdb
     RDKit          3D

 27 27  0  0  1  0  0  0  0  0999 V2000
   23.9802  -19.9565  -16.7675 N   0  0  0  0  0  0  0  0  0  0  0  0
   22.7389  -20.3522  -16.1733 C   0  0  0  0  0  0  0  0  0  0  0  0
   21.9504  -21.1443  -16.7967 N   0  0  0  0  0  0  0  0  0  0  0  0
   22.3865  -19.8523  -14.8755 N   0  0  0  0  0  0  0  0  0  0  0  0
   23.0102  -20.3147  -13.6714 C   0  0  0  0  0  0  0  0  0  0  0  0
   24.2499  -19.4987  -13.2986 C   0  0  0  0  0  0  0  0  0  0  0  0
   24.7326  -20.0478  -11.9841 C   0  0  0  0  0  0  0  0  0  0  0  0
   25.4137  -21.4002  -12.1274 C   0  0  2  0  0  0  0  0  0  0  0  0
   24.4831  -22.4316  -12.4957 N   0  0  0  0  0  0  0  0  0  0  0  0
   26.2995  -21.7082  -11.0069 C   0  0  0  0  0  0  0  0  0  0  0  0
   25.8378  -22.4946  -10.1063 O   0  0  0  0  0  0  0  0  0  0  0  0
   21.0423  -21.4027  -16.3555 N   0  0  0  0  0  0  0  0  0  0  0  0
   27.6247  -21.2222  -10.8111 C   0  0  0  0  0  0  0  0  0  0  0  0
   28.4366  -20.3676  -11.6394 C   0  0  0  0  0  0  0  0  0  0  0  0
   29.8180  -20.9416  -11.4746 C   0  0  0  0  0  0  0  0  0  0  0  0
   29.7964  -21.7433  -10.1961 C   0  0  1  0  0  0  0  0  0  0  0  0
   28.4404  -21.5263   -9.6555 C   0  0  0  0  0  0  0  0  0  0  0  0
   28.3362  -20.4981   -8.5998 O   0  0  0  0  0  0  0  0  0  0  0  0
   27.9452  -19.3555   -8.9329 C   0  0  0  0  0  0  0  0  0  0  0  0
   26.3941  -20.4868   -2.8650 C   0  0  0  0  0  0  0  0  0  0  0  0
   27.0302  -19.7228   -3.9748 C   0  0  2  0  0  0  0  0  0  0  0  0
   27.5181  -20.5382   -5.1249 C   0  0  0  0  0  0  0  0  0  0  0  0
   28.4565  -21.6040   -4.5737 C   0  0  2  0  0  0  0  0  0  0  0  0
   28.2453  -19.7896   -6.1856 N   0  0  0  0  0  0  0  0  0  0  0  0
   28.6493  -20.7120   -7.2286 C   0  0  0  0  0  0  0  0  0  0  0  0
   29.3615  -18.9531   -5.7135 O   0  0  0  0  0  0  0  0  0  0  0  0
   30.6561  -19.3213   -5.9915 O   0  0  0  0  0  0  0  0  0  0  0  0
  2  4  1  0
  2  1  1  0
  3  2  2  0
  5  4  1  0
  6  5  1  0
  7  6  1  0
  8  7  1  0
  8  9  1  1
 10  8  1  0
 11 10  2  0
 12 16  1  0
 12 10  1  0
 13 14  1  0
 13 12  1  0
 14 15  1  0
 15 16  1  0
 16 17  1  1
 18 17  2  0
 19 20  1  0
 20 21  1  0
 21 22  1  6
 23 21  1  0
 23 24  1  1
 24 17  1  0
 25 26  1  0
 25 23  1  0
 27 25  2  0
M  END
$$$$
