RPI.pdb
     RDKit          3D

 27 27  0  0  1  0  0  0  0  0999 V2000
   19.9921  -24.1614  -14.2893 N   0  0  0  0  0  0  0  0  0  0  0  0
   19.6355  -22.8193  -14.6387 C   0  0  0  0  0  0  0  0  0  0  0  0
   18.4436  -22.3976  -14.4403 N   0  0  0  0  0  0  0  0  0  0  0  0
   20.6240  -21.9533  -15.2140 N   0  0  0  0  0  0  0  0  0  0  0  0
   21.9821  -22.3589  -15.4234 C   0  0  0  0  0  0  0  0  0  0  0  0
   22.8190  -22.3003  -14.1436 C   0  0  0  0  0  0  0  0  0  0  0  0
   24.0991  -21.6021  -14.5123 C   0  0  0  0  0  0  0  0  0  0  0  0
   25.2939  -22.5428  -14.5408 C   0  0  2  0  0  0  0  0  0  0  0  0
   24.9094  -23.8859  -14.8781 N   0  0  0  0  0  0  0  0  0  0  0  0
   26.1543  -22.3990  -13.3686 C   0  0  0  0  0  0  0  0  0  0  0  0
   26.2434  -23.4137  -12.5908 O   0  0  0  0  0  0  0  0  0  0  0  0
   18.1758  -21.4557  -14.7968 N   0  0  0  0  0  0  0  0  0  0  0  0
   26.9040  -21.2446  -12.9996 C   0  0  0  0  0  0  0  0  0  0  0  0
   27.0288  -19.9659  -13.6515 C   0  0  0  0  0  0  0  0  0  0  0  0
   28.4716  -19.6037  -13.4235 C   0  0  0  0  0  0  0  0  0  0  0  0
   28.9367  -20.4272  -12.2474 C   0  0  2  0  0  0  0  0  0  0  0  0
   27.7279  -21.1543  -11.8137 C   0  0  0  0  0  0  0  0  0  0  0  0
   27.0097  -20.5622  -10.6665 O   0  0  0  0  0  0  0  0  0  0  0  0
   25.7659  -20.4408  -10.7547 C   0  0  0  0  0  0  0  0  0  0  0  0
   28.6841  -19.7847   -4.6737 C   0  0  0  0  0  0  0  0  0  0  0  0
   27.7815  -20.3602   -5.7100 C   0  0  2  0  0  0  0  0  0  0  0  0
   28.0970  -19.9899   -7.1204 C   0  0  0  0  0  0  0  0  0  0  0  0
   28.0472  -18.4709   -7.2240 C   0  0  2  0  0  0  0  0  0  0  0  0
   27.1868  -20.5512   -8.1551 N   0  0  0  0  0  0  0  0  0  0  0  0
   27.6301  -20.1181   -9.4658 C   0  0  0  0  0  0  0  0  0  0  0  0
   25.7527  -20.2986   -7.9364 O   0  0  0  0  0  0  0  0  0  0  0  0
   25.0569  -19.5044   -8.8162 O   0  0  0  0  0  0  0  0  0  0  0  0
  2  4  1  0
  2  1  1  0
  3  2  2  0
  5  4  1  0
  6  5  1  0
  7  6  1  0
  8  7  1  0
  8  9  1  1
 10  8  1  0
 11 10  2  0
 12 16  1  0
 12 10  1  0
 13 14  1  0
 13 12  1  0
 14 15  1  0
 15 16  1  0
 16 17  1  1
 18 17  2  0
 19 20  1  0
 20 21  1  0
 21 22  1  6
 23 21  1  0
 23 24  1  1
 24 17  1  0
 25 26  1  0
 25 23  1  0
 27 25  2  0
M  END
$$$$
