YFE.pdb
     RDKit          3D

 33 34  0  0  1  0  0  0  0  0999 V2000
   19.6439  -13.3953  -25.0637 O   0  0  0  0  0  0  0  0  0  0  0  0
   19.4472  -12.6853  -23.8837 C   0  0  0  0  0  0  0  0  0  0  0  0
   20.4948  -11.9879  -23.3077 C   0  0  0  0  0  0  0  0  0  0  0  0
   20.2563  -11.3036  -22.1474 C   0  0  0  0  0  0  0  0  0  0  0  0
   19.0302  -11.2651  -21.5121 C   0  0  0  0  0  0  0  0  0  0  0  0
   18.7956  -10.5226  -20.2646 C   0  0  0  0  0  0  0  0  0  0  0  0
   19.5156  -11.2035  -19.1200 C   0  0  2  0  0  0  0  0  0  0  0  0
   18.8319  -12.4642  -18.8880 N   0  0  0  0  0  0  0  0  0  0  0  0
   19.4553  -10.4226  -17.8763 C   0  0  0  0  0  0  0  0  0  0  0  0
   18.4217  -10.4866  -17.1668 O   0  0  0  0  0  0  0  0  0  0  0  0
   18.0012  -11.9779  -22.1204 C   0  0  0  0  0  0  0  0  0  0  0  0
   18.1993  -12.6836  -23.2945 C   0  0  0  0  0  0  0  0  0  0  0  0
   20.5057   -9.5903  -17.4216 N   0  0  0  0  0  0  0  0  0  0  0  0
   20.3073   -8.7222  -16.2405 C   0  0  1  0  0  0  0  0  0  0  0  0
   21.5782   -8.7837  -15.4902 C   0  0  0  0  0  0  0  0  0  0  0  0
   21.8047   -7.8800  -14.3876 C   0  0  0  0  0  0  0  0  0  0  0  0
   22.4718   -6.6925  -14.5762 C   0  0  0  0  0  0  0  0  0  0  0  0
   22.6978   -5.8082  -13.5159 C   0  0  0  0  0  0  0  0  0  0  0  0
   22.2533   -6.1118  -12.2520 C   0  0  0  0  0  0  0  0  0  0  0  0
   21.5828   -7.3002  -12.0498 C   0  0  0  0  0  0  0  0  0  0  0  0
   21.3711   -8.1589  -13.1142 C   0  0  0  0  0  0  0  0  0  0  0  0
   19.9090   -7.3925  -16.7501 C   0  0  0  0  0  0  0  0  0  0  0  0
   20.5452   -6.9448  -17.7717 O   0  0  0  0  0  0  0  0  0  0  0  0
   18.8930   -6.5798  -16.2171 N   0  0  0  0  0  0  0  0  0  0  0  0
   18.6811   -5.2277  -16.7655 C   0  0  1  0  0  0  0  0  0  0  0  0
   17.2268   -4.9036  -16.6893 C   0  0  0  0  0  0  0  0  0  0  0  0
   16.7998   -3.5639  -17.1038 C   0  0  0  0  0  0  0  0  0  0  0  0
   15.5005   -3.4075  -17.7394 C   0  0  0  0  0  0  0  0  0  0  0  0
   14.4519   -3.3951  -17.0158 O   0  0  0  0  0  0  0  0  0  0  0  0
   19.6237   -4.3324  -16.1371 C   0  0  0  0  0  0  0  0  0  0  0  0
   20.3428   -3.3976  -16.8752 O   0  0  0  0  0  0  0  0  0  0  0  0
   15.2943   -3.2611  -19.1092 O   0  0  0  0  0  0  0  0  0  0  0  0
   19.8697   -4.3324  -14.8971 O   0  0  0  0  0  0  0  0  0  0  0  0
  2  1  1  0
  3  2  2  0
  4  3  1  0
  5 11  1  0
  5  4  2  0
  6  5  1  0
  7  6  1  0
  7  8  1  1
  9  7  1  0
  9 10  2  0
 11 12  2  0
 12  2  1  0
 13  9  1  0
 14 13  1  0
 14 15  1  6
 16 15  1  0
 16 17  2  0
 18 17  1  0
 19 18  2  0
 20 21  2  0
 20 19  1  0
 21 16  1  0
 22 14  1  0
 23 22  2  0
 24 22  1  0
 25 24  1  0
 25 26  1  1
 26 27  1  0
 27 28  1  0
 28 32  1  0
 28 29  2  0
 30 31  1  0
 30 25  1  0
 33 30  2  0
M  END
$$$$
