YFE.pdb
     RDKit          3D

 33 34  0  0  1  0  0  0  0  0999 V2000
   16.7156  -21.1599  -27.1159 O   0  0  0  0  0  0  0  0  0  0  0  0
   16.8779  -20.8176  -25.7774 C   0  0  0  0  0  0  0  0  0  0  0  0
   16.5354  -19.5513  -25.3361 C   0  0  0  0  0  0  0  0  0  0  0  0
   16.7116  -19.2579  -24.0116 C   0  0  0  0  0  0  0  0  0  0  0  0
   17.2120  -20.1502  -23.0833 C   0  0  0  0  0  0  0  0  0  0  0  0
   17.3934  -19.8139  -21.6632 C   0  0  0  0  0  0  0  0  0  0  0  0
   18.4454  -18.7342  -21.5227 C   0  0  2  0  0  0  0  0  0  0  0  0
   19.7316  -19.3746  -21.7379 N   0  0  0  0  0  0  0  0  0  0  0  0
   18.4588  -18.1361  -20.1803 C   0  0  0  0  0  0  0  0  0  0  0  0
   19.0955  -18.7111  -19.2639 O   0  0  0  0  0  0  0  0  0  0  0  0
   17.5452  -21.4132  -23.5638 C   0  0  0  0  0  0  0  0  0  0  0  0
   17.3829  -21.7516  -24.8960 C   0  0  0  0  0  0  0  0  0  0  0  0
   17.7885  -16.9340  -19.8510 N   0  0  0  0  0  0  0  0  0  0  0  0
   17.7952  -16.4375  -18.4576 C   0  0  1  0  0  0  0  0  0  0  0  0
   18.3444  -15.0683  -18.5313 C   0  0  0  0  0  0  0  0  0  0  0  0
   19.6923  -14.8606  -19.0042 C   0  0  0  0  0  0  0  0  0  0  0  0
   19.9454  -14.6485  -20.3390 C   0  0  0  0  0  0  0  0  0  0  0  0
   21.2471  -14.4460  -20.8099 C   0  0  0  0  0  0  0  0  0  0  0  0
   22.3096  -14.4551  -19.9392 C   0  0  0  0  0  0  0  0  0  0  0  0
   22.0689  -14.6668  -18.5975 C   0  0  0  0  0  0  0  0  0  0  0  0
   20.7726  -14.8648  -18.1553 C   0  0  0  0  0  0  0  0  0  0  0  0
   16.4110  -16.5637  -17.9529 C   0  0  0  0  0  0  0  0  0  0  0  0
   15.4653  -16.2258  -18.7531 O   0  0  0  0  0  0  0  0  0  0  0  0
   16.0413  -17.0253  -16.6774 N   0  0  0  0  0  0  0  0  0  0  0  0
   14.6152  -17.0709  -16.3061 C   0  0  1  0  0  0  0  0  0  0  0  0
   13.9736  -18.2173  -17.0132 C   0  0  0  0  0  0  0  0  0  0  0  0
   13.2237  -19.1866  -16.2089 C   0  0  0  0  0  0  0  0  0  0  0  0
   12.5995  -20.3183  -16.8770 C   0  0  0  0  0  0  0  0  0  0  0  0
   11.4820  -20.1534  -17.4662 O   0  0  0  0  0  0  0  0  0  0  0  0
   14.5209  -17.0051  -14.8667 C   0  0  0  0  0  0  0  0  0  0  0  0
   15.5576  -17.4431  -14.0486 O   0  0  0  0  0  0  0  0  0  0  0  0
   13.1326  -21.6039  -16.9358 O   0  0  0  0  0  0  0  0  0  0  0  0
   13.5098  -16.5619  -14.2506 O   0  0  0  0  0  0  0  0  0  0  0  0
  2  1  1  0
  3  2  2  0
  4  3  1  0
  5 11  1  0
  5  4  2  0
  6  5  1  0
  7  6  1  0
  7  8  1  1
  9  7  1  0
  9 10  2  0
 11 12  2  0
 12  2  1  0
 13  9  1  0
 14 13  1  0
 14 15  1  6
 16 15  1  0
 16 17  2  0
 18 17  1  0
 19 18  2  0
 20 21  2  0
 20 19  1  0
 21 16  1  0
 22 14  1  0
 23 22  2  0
 24 22  1  0
 25 24  1  0
 25 26  1  1
 26 27  1  0
 27 28  1  0
 28 32  1  0
 28 29  2  0
 30 31  1  0
 30 25  1  0
 33 30  2  0
M  END
$$$$
