YFE.pdb
     RDKit          3D

 33 34  0  0  1  0  0  0  0  0999 V2000
   27.6721  -16.0720  -17.9640 O   0  0  0  0  0  0  0  0  0  0  0  0
   27.3332  -16.8169  -16.8391 C   0  0  0  0  0  0  0  0  0  0  0  0
   27.7108  -16.3863  -15.5791 C   0  0  0  0  0  0  0  0  0  0  0  0
   27.3562  -17.1500  -14.5009 C   0  0  0  0  0  0  0  0  0  0  0  0
   26.6418  -18.3290  -14.5917 C   0  0  0  0  0  0  0  0  0  0  0  0
   26.2709  -19.1350  -13.4189 C   0  0  0  0  0  0  0  0  0  0  0  0
   27.5126  -19.7410  -12.8002 C   0  0  2  0  0  0  0  0  0  0  0  0
   27.9311  -20.8210  -13.6771 N   0  0  0  0  0  0  0  0  0  0  0  0
   27.2543  -20.3139  -11.4716 C   0  0  0  0  0  0  0  0  0  0  0  0
   26.8642  -21.5040  -11.3871 O   0  0  0  0  0  0  0  0  0  0  0  0
   26.2798  -18.7300  -15.8743 C   0  0  0  0  0  0  0  0  0  0  0  0
   26.6181  -17.9872  -16.9922 C   0  0  0  0  0  0  0  0  0  0  0  0
   27.4204  -19.5966  -10.2629 N   0  0  0  0  0  0  0  0  0  0  0  0
   27.2067  -20.2709   -8.9637 C   0  0  1  0  0  0  0  0  0  0  0  0
   28.0829  -19.5653   -8.0065 C   0  0  0  0  0  0  0  0  0  0  0  0
   27.9649  -19.8342   -6.5932 C   0  0  0  0  0  0  0  0  0  0  0  0
   28.0242  -21.1217   -6.1141 C   0  0  0  0  0  0  0  0  0  0  0  0
   27.9111  -21.3956   -4.7469 C   0  0  0  0  0  0  0  0  0  0  0  0
   27.7365  -20.3731   -3.8462 C   0  0  0  0  0  0  0  0  0  0  0  0
   27.6753  -19.0770   -4.3143 C   0  0  0  0  0  0  0  0  0  0  0  0
   27.7897  -18.8308   -5.6713 C   0  0  0  0  0  0  0  0  0  0  0  0
   25.7549  -20.2166   -8.6883 C   0  0  0  0  0  0  0  0  0  0  0  0
   25.1879  -19.0675   -8.7713 O   0  0  0  0  0  0  0  0  0  0  0  0
   24.9423  -21.3127   -8.3491 N   0  0  0  0  0  0  0  0  0  0  0  0
   23.5250  -21.0893   -8.0100 C   0  0  1  0  0  0  0  0  0  0  0  0
   22.6767  -21.7069   -9.0707 C   0  0  0  0  0  0  0  0  0  0  0  0
   22.8456  -21.2321  -10.4473 C   0  0  0  0  0  0  0  0  0  0  0  0
   21.7143  -20.6103  -11.1182 C   0  0  0  0  0  0  0  0  0  0  0  0
   20.5340  -20.8639  -10.7112 O   0  0  0  0  0  0  0  0  0  0  0  0
   23.3199  -21.4912   -6.6384 C   0  0  0  0  0  0  0  0  0  0  0  0
   24.2799  -22.2185   -5.9418 O   0  0  0  0  0  0  0  0  0  0  0  0
   21.8091  -19.7323  -12.1955 O   0  0  0  0  0  0  0  0  0  0  0  0
   22.2735  -21.2267   -5.9801 O   0  0  0  0  0  0  0  0  0  0  0  0
  2  1  1  0
  3  2  2  0
  4  3  1  0
  5 11  1  0
  5  4  2  0
  6  5  1  0
  7  6  1  0
  7  8  1  6
  9  7  1  0
  9 10  2  0
 11 12  2  0
 12  2  1  0
 13  9  1  0
 14 13  1  0
 14 15  1  1
 16 15  1  0
 16 17  2  0
 18 17  1  0
 19 18  2  0
 20 21  2  0
 20 19  1  0
 21 16  1  0
 22 14  1  0
 23 22  2  0
 24 22  1  0
 25 24  1  0
 25 26  1  6
 26 27  1  0
 27 28  1  0
 28 32  1  0
 28 29  2  0
 30 31  1  0
 30 25  1  0
 33 30  2  0
M  END
$$$$
