YFE.pdb
     RDKit          3D

 33 34  0  0  1  0  0  0  0  0999 V2000
   19.8310  -10.7552  -26.0111 O   0  0  0  0  0  0  0  0  0  0  0  0
   19.5593  -10.2375  -24.7489 C   0  0  0  0  0  0  0  0  0  0  0  0
   18.2818  -10.3200  -24.2227 C   0  0  0  0  0  0  0  0  0  0  0  0
   18.0597   -9.7976  -22.9779 C   0  0  0  0  0  0  0  0  0  0  0  0
   19.0348   -9.1906  -22.2104 C   0  0  0  0  0  0  0  0  0  0  0  0
   18.7741   -8.6354  -20.8737 C   0  0  0  0  0  0  0  0  0  0  0  0
   19.4072   -9.5188  -19.8197 C   0  0  2  0  0  0  0  0  0  0  0  0
   18.6600  -10.7647  -19.8159 N   0  0  0  0  0  0  0  0  0  0  0  0
   19.3186   -8.9361  -18.4733 C   0  0  0  0  0  0  0  0  0  0  0  0
   18.2665   -9.0979  -17.8079 O   0  0  0  0  0  0  0  0  0  0  0  0
   20.3064   -9.1261  -22.7723 C   0  0  0  0  0  0  0  0  0  0  0  0
   20.5745   -9.6420  -24.0284 C   0  0  0  0  0  0  0  0  0  0  0  0
   20.3612   -8.1928  -17.8707 N   0  0  0  0  0  0  0  0  0  0  0  0
   20.1669   -7.5896  -16.5340 C   0  0  1  0  0  0  0  0  0  0  0  0
   21.4027   -7.8919  -15.7836 C   0  0  0  0  0  0  0  0  0  0  0  0
   21.6035   -7.3218  -14.4727 C   0  0  0  0  0  0  0  0  0  0  0  0
   21.2836   -8.0320  -13.3395 C   0  0  0  0  0  0  0  0  0  0  0  0
   21.4733   -7.4908  -12.0635 C   0  0  0  0  0  0  0  0  0  0  0  0
   21.9883   -6.2258  -11.9154 C   0  0  0  0  0  0  0  0  0  0  0  0
   22.3132   -5.5031  -13.0446 C   0  0  0  0  0  0  0  0  0  0  0  0
   22.1166   -6.0597  -14.2963 C   0  0  0  0  0  0  0  0  0  0  0  0
   19.8638   -6.1587  -16.7514 C   0  0  0  0  0  0  0  0  0  0  0  0
   20.5084   -5.5616  -17.6878 O   0  0  0  0  0  0  0  0  0  0  0  0
   18.9294   -5.3983  -16.0266 N   0  0  0  0  0  0  0  0  0  0  0  0
   18.8773   -3.9372  -16.2168 C   0  0  1  0  0  0  0  0  0  0  0  0
   17.4503   -3.5025  -16.1911 C   0  0  0  0  0  0  0  0  0  0  0  0
   17.1717   -2.0633  -16.1813 C   0  0  0  0  0  0  0  0  0  0  0  0
   16.2152   -1.5411  -15.2175 C   0  0  0  0  0  0  0  0  0  0  0  0
   16.5213   -0.5107  -14.5335 O   0  0  0  0  0  0  0  0  0  0  0  0
   19.8033   -3.3279  -15.2915 C   0  0  0  0  0  0  0  0  0  0  0  0
   20.9125   -4.0173  -14.8118 O   0  0  0  0  0  0  0  0  0  0  0  0
   14.9546   -2.0803  -14.9711 O   0  0  0  0  0  0  0  0  0  0  0  0
   19.6781   -2.1504  -14.8487 O   0  0  0  0  0  0  0  0  0  0  0  0
  2  1  1  0
  3  2  2  0
  4  3  1  0
  5 11  1  0
  5  4  2  0
  6  5  1  0
  7  6  1  0
  7  8  1  1
  9  7  1  0
  9 10  2  0
 11 12  2  0
 12  2  1  0
 13  9  1  0
 14 13  1  0
 14 15  1  1
 16 15  1  0
 16 17  2  0
 18 17  1  0
 19 18  2  0
 20 21  2  0
 20 19  1  0
 21 16  1  0
 22 14  1  0
 23 22  2  0
 24 22  1  0
 25 24  1  0
 25 26  1  1
 26 27  1  0
 27 28  1  0
 28 32  1  0
 28 29  2  0
 30 31  1  0
 30 25  1  0
 33 30  2  0
M  END
$$$$
