YFE.pdb
     RDKit          3D

 33 34  0  0  1  0  0  0  0  0999 V2000
   28.7126  -28.2656  -17.3477 O   0  0  0  0  0  0  0  0  0  0  0  0
   28.3120  -27.0262  -16.8592 C   0  0  0  0  0  0  0  0  0  0  0  0
   27.0028  -26.8262  -16.4574 C   0  0  0  0  0  0  0  0  0  0  0  0
   26.6527  -25.5916  -15.9834 C   0  0  0  0  0  0  0  0  0  0  0  0
   27.5279  -24.5277  -15.8806 C   0  0  0  0  0  0  0  0  0  0  0  0
   27.1303  -23.2079  -15.3679 C   0  0  0  0  0  0  0  0  0  0  0  0
   26.4839  -22.4019  -16.4745 C   0  0  2  0  0  0  0  0  0  0  0  0
   27.5547  -21.9701  -17.3563 N   0  0  0  0  0  0  0  0  0  0  0  0
   25.8042  -21.2007  -15.9692 C   0  0  0  0  0  0  0  0  0  0  0  0
   26.4815  -20.1690  -15.7401 O   0  0  0  0  0  0  0  0  0  0  0  0
   28.8353  -24.7664  -16.2939 C   0  0  0  0  0  0  0  0  0  0  0  0
   29.2316  -26.0004  -16.7796 C   0  0  0  0  0  0  0  0  0  0  0  0
   24.4126  -21.1335  -15.7211 N   0  0  0  0  0  0  0  0  0  0  0  0
   23.7823  -19.8421  -15.3699 C   0  0  1  0  0  0  0  0  0  0  0  0
   24.0614  -18.9461  -16.5106 C   0  0  0  0  0  0  0  0  0  0  0  0
   25.2886  -18.1869  -16.5428 C   0  0  0  0  0  0  0  0  0  0  0  0
   25.5750  -17.2693  -15.5594 C   0  0  0  0  0  0  0  0  0  0  0  0
   26.7608  -16.5272  -15.5793 C   0  0  0  0  0  0  0  0  0  0  0  0
   27.6723  -16.7020  -16.5921 C   0  0  0  0  0  0  0  0  0  0  0  0
   27.3966  -17.6195  -17.5846 C   0  0  0  0  0  0  0  0  0  0  0  0
   26.2170  -18.3419  -17.5435 C   0  0  0  0  0  0  0  0  0  0  0  0
   22.3581  -20.1245  -15.0898 C   0  0  0  0  0  0  0  0  0  0  0  0
   21.7182  -20.8169  -15.9615 O   0  0  0  0  0  0  0  0  0  0  0  0
   21.6467  -19.7058  -13.9516 N   0  0  0  0  0  0  0  0  0  0  0  0
   20.2143  -20.0322  -13.8289 C   0  0  1  0  0  0  0  0  0  0  0  0
   19.9461  -20.4902  -12.4345 C   0  0  0  0  0  0  0  0  0  0  0  0
   20.3892  -21.8355  -12.0570 C   0  0  0  0  0  0  0  0  0  0  0  0
   19.3866  -22.8606  -11.8111 C   0  0  0  0  0  0  0  0  0  0  0  0
   19.3898  -23.9170  -12.5234 O   0  0  0  0  0  0  0  0  0  0  0  0
   19.4517  -18.9233  -14.3520 C   0  0  0  0  0  0  0  0  0  0  0  0
   20.0538  -17.7077  -14.6615 O   0  0  0  0  0  0  0  0  0  0  0  0
   18.3962  -22.7906  -10.8341 O   0  0  0  0  0  0  0  0  0  0  0  0
   18.2052  -18.9657  -14.5581 O   0  0  0  0  0  0  0  0  0  0  0  0
  2  1  1  0
  3  2  2  0
  4  3  1  0
  5 11  1  0
  5  4  2  0
  6  5  1  0
  7  6  1  0
  7  8  1  6
  9  7  1  0
  9 10  2  0
 11 12  2  0
 12  2  1  0
 13  9  1  0
 14 13  1  0
 14 15  1  6
 16 15  1  0
 16 17  2  0
 18 17  1  0
 19 18  2  0
 20 21  2  0
 20 19  1  0
 21 16  1  0
 22 14  1  0
 23 22  2  0
 24 22  1  0
 25 24  1  0
 25 26  1  1
 26 27  1  0
 27 28  1  0
 28 32  1  0
 28 29  2  0
 30 31  1  0
 30 25  1  0
 33 30  2  0
M  END
$$$$
