YFE.pdb
     RDKit          3D

 33 34  0  0  1  0  0  0  0  0999 V2000
   20.0213  -11.3395  -16.3491 O   0  0  0  0  0  0  0  0  0  0  0  0
   19.2122  -10.5236  -15.5649 C   0  0  0  0  0  0  0  0  0  0  0  0
   19.5609  -10.2509  -14.2536 C   0  0  0  0  0  0  0  0  0  0  0  0
   18.7361   -9.4436  -13.5191 C   0  0  0  0  0  0  0  0  0  0  0  0
   17.5721   -8.8814  -14.0066 C   0  0  0  0  0  0  0  0  0  0  0  0
   16.6994   -8.0159  -13.1992 C   0  0  0  0  0  0  0  0  0  0  0  0
   16.3524   -8.7086  -11.8984 C   0  0  2  0  0  0  0  0  0  0  0  0
   15.6149   -9.9100  -12.2495 N   0  0  0  0  0  0  0  0  0  0  0  0
   15.4903   -7.8859  -11.0381 C   0  0  0  0  0  0  0  0  0  0  0  0
   14.2515   -7.8848  -11.2405 O   0  0  0  0  0  0  0  0  0  0  0  0
   17.2542   -9.1780  -15.3287 C   0  0  0  0  0  0  0  0  0  0  0  0
   18.0607   -9.9901  -16.1070 C   0  0  0  0  0  0  0  0  0  0  0  0
   15.9770   -7.0827   -9.9794 N   0  0  0  0  0  0  0  0  0  0  0  0
   15.0556   -6.1965   -9.2353 C   0  0  1  0  0  0  0  0  0  0  0  0
   15.0345   -6.7223   -7.8551 C   0  0  0  0  0  0  0  0  0  0  0  0
   13.8073   -7.2485   -7.3066 C   0  0  0  0  0  0  0  0  0  0  0  0
   13.5352   -8.5956   -7.3548 C   0  0  0  0  0  0  0  0  0  0  0  0
   12.3496   -9.1180   -6.8270 C   0  0  0  0  0  0  0  0  0  0  0  0
   11.4239   -8.2872   -6.2439 C   0  0  0  0  0  0  0  0  0  0  0  0
   11.6851   -6.9338   -6.1894 C   0  0  0  0  0  0  0  0  0  0  0  0
   12.8649   -6.4404   -6.7183 C   0  0  0  0  0  0  0  0  0  0  0  0
   15.5602   -4.8170   -9.4049 C   0  0  0  0  0  0  0  0  0  0  0  0
   16.8122   -4.6237   -9.1950 O   0  0  0  0  0  0  0  0  0  0  0  0
   14.7905   -3.7018   -9.7802 N   0  0  0  0  0  0  0  0  0  0  0  0
   15.4372   -2.3835   -9.9121 C   0  0  1  0  0  0  0  0  0  0  0  0
   15.0224   -1.7753  -11.2098 C   0  0  0  0  0  0  0  0  0  0  0  0
   15.4750   -0.4125  -11.5046 C   0  0  0  0  0  0  0  0  0  0  0  0
   16.6858   -0.2305  -12.2904 C   0  0  0  0  0  0  0  0  0  0  0  0
   17.2039   -1.2364  -12.8760 O   0  0  0  0  0  0  0  0  0  0  0  0
   15.2049   -1.6425   -8.6947 C   0  0  0  0  0  0  0  0  0  0  0  0
   15.9979   -0.5549   -8.3422 O   0  0  0  0  0  0  0  0  0  0  0  0
   17.3469    0.9825  -12.4689 O   0  0  0  0  0  0  0  0  0  0  0  0
   14.2892   -1.9214   -7.8690 O   0  0  0  0  0  0  0  0  0  0  0  0
  2  1  1  0
  3  2  2  0
  4  3  1  0
  5 11  1  0
  5  4  2  0
  6  5  1  0
  7  6  1  0
  7  8  1  6
  9  7  1  0
  9 10  2  0
 11 12  2  0
 12  2  1  0
 13  9  1  0
 14 13  1  0
 14 15  1  1
 16 15  1  0
 16 17  2  0
 18 17  1  0
 19 18  2  0
 20 21  2  0
 20 19  1  0
 21 16  1  0
 22 14  1  0
 23 22  2  0
 24 22  1  0
 25 24  1  0
 25 26  1  6
 26 27  1  0
 27 28  1  0
 28 32  1  0
 28 29  2  0
 30 31  1  0
 30 25  1  0
 33 30  2  0
M  END
$$$$
