YFE.pdb
     RDKit          3D

 33 34  0  0  1  0  0  0  0  0999 V2000
   28.9555  -21.2737  -22.6659 O   0  0  0  0  0  0  0  0  0  0  0  0
   28.2951  -21.6101  -21.4887 C   0  0  0  0  0  0  0  0  0  0  0  0
   27.5445  -20.6617  -20.8159 C   0  0  0  0  0  0  0  0  0  0  0  0
   26.9119  -21.0363  -19.6622 C   0  0  0  0  0  0  0  0  0  0  0  0
   26.9757  -22.3073  -19.1247 C   0  0  0  0  0  0  0  0  0  0  0  0
   26.2874  -22.6889  -17.8824 C   0  0  0  0  0  0  0  0  0  0  0  0
   27.1991  -22.4506  -16.6975 C   0  0  2  0  0  0  0  0  0  0  0  0
   28.0859  -23.5985  -16.6160 N   0  0  0  0  0  0  0  0  0  0  0  0
   26.4597  -22.3616  -15.4305 C   0  0  0  0  0  0  0  0  0  0  0  0
   26.1446  -23.4200  -14.8337 O   0  0  0  0  0  0  0  0  0  0  0  0
   27.7395  -23.2337  -19.8287 C   0  0  0  0  0  0  0  0  0  0  0  0
   28.3958  -22.8966  -20.9998 C   0  0  0  0  0  0  0  0  0  0  0  0
   26.0748  -21.1383  -14.8318 N   0  0  0  0  0  0  0  0  0  0  0  0
   25.4241  -21.1338  -13.5034 C   0  0  1  0  0  0  0  0  0  0  0  0
   26.1647  -20.1343  -12.7069 C   0  0  0  0  0  0  0  0  0  0  0  0
   27.2646  -20.5544  -11.8720 C   0  0  0  0  0  0  0  0  0  0  0  0
   28.5491  -20.5840  -12.3618 C   0  0  0  0  0  0  0  0  0  0  0  0
   29.6237  -20.9893  -11.5629 C   0  0  0  0  0  0  0  0  0  0  0  0
   29.4150  -21.3696  -10.2595 C   0  0  0  0  0  0  0  0  0  0  0  0
   28.1309  -21.3443   -9.7562 C   0  0  0  0  0  0  0  0  0  0  0  0
   27.0839  -20.9396  -10.5657 C   0  0  0  0  0  0  0  0  0  0  0  0
   23.9892  -20.8593  -13.7318 C   0  0  0  0  0  0  0  0  0  0  0  0
   23.6989  -19.9446  -14.5850 O   0  0  0  0  0  0  0  0  0  0  0  0
   22.9175  -21.5152  -13.1010 N   0  0  0  0  0  0  0  0  0  0  0  0
   21.5333  -21.1393  -13.4419 C   0  0  1  0  0  0  0  0  0  0  0  0
   20.6499  -22.3222  -13.2266 C   0  0  0  0  0  0  0  0  0  0  0  0
   19.2174  -22.1668  -13.4963 C   0  0  0  0  0  0  0  0  0  0  0  0
   18.3298  -23.2907  -13.2397 C   0  0  0  0  0  0  0  0  0  0  0  0
   18.0284  -23.5828  -12.0368 O   0  0  0  0  0  0  0  0  0  0  0  0
   21.2185  -19.9068  -12.7587 C   0  0  0  0  0  0  0  0  0  0  0  0
   20.2990  -19.0010  -13.2784 O   0  0  0  0  0  0  0  0  0  0  0  0
   17.7591  -24.0976  -14.2213 O   0  0  0  0  0  0  0  0  0  0  0  0
   21.7465  -19.5581  -11.6643 O   0  0  0  0  0  0  0  0  0  0  0  0
  2  1  1  0
  3  2  2  0
  4  3  1  0
  5 11  1  0
  5  4  2  0
  6  5  1  0
  7  6  1  0
  7  8  1  1
  9  7  1  0
  9 10  2  0
 11 12  2  0
 12  2  1  0
 13  9  1  0
 14 13  1  0
 14 15  1  1
 16 15  1  0
 16 17  2  0
 18 17  1  0
 19 18  2  0
 20 21  2  0
 20 19  1  0
 21 16  1  0
 22 14  1  0
 23 22  2  0
 24 22  1  0
 25 24  1  0
 25 26  1  1
 26 27  1  0
 27 28  1  0
 28 32  1  0
 28 29  2  0
 30 31  1  0
 30 25  1  0
 33 30  2  0
M  END
$$$$
