YFE.pdb
     RDKit          3D

 33 34  0  0  1  0  0  0  0  0999 V2000
   21.1604  -13.4323  -21.4514 O   0  0  0  0  0  0  0  0  0  0  0  0
   21.3112  -14.5703  -20.6658 C   0  0  0  0  0  0  0  0  0  0  0  0
   21.1180  -14.5021  -19.2970 C   0  0  0  0  0  0  0  0  0  0  0  0
   21.2768  -15.6458  -18.5632 C   0  0  0  0  0  0  0  0  0  0  0  0
   21.6194  -16.8693  -19.1054 C   0  0  0  0  0  0  0  0  0  0  0  0
   21.7850  -18.0871  -18.2977 C   0  0  0  0  0  0  0  0  0  0  0  0
   23.1410  -18.0748  -17.6244 C   0  0  2  0  0  0  0  0  0  0  0  0
   24.1237  -18.3416  -18.6606 N   0  0  0  0  0  0  0  0  0  0  0  0
   23.2684  -19.1228  -16.6019 C   0  0  0  0  0  0  0  0  0  0  0  0
   23.4914  -20.3036  -16.9649 O   0  0  0  0  0  0  0  0  0  0  0  0
   21.8053  -16.8991  -20.4844 C   0  0  0  0  0  0  0  0  0  0  0  0
   21.6547  -15.7655  -21.2641 C   0  0  0  0  0  0  0  0  0  0  0  0
   23.1538  -18.8803  -15.2124 N   0  0  0  0  0  0  0  0  0  0  0  0
   23.2878  -19.9957  -14.2501 C   0  0  1  0  0  0  0  0  0  0  0  0
   24.1404  -19.4753  -13.1621 C   0  0  0  0  0  0  0  0  0  0  0  0
   24.3129  -20.2468  -11.9544 C   0  0  0  0  0  0  0  0  0  0  0  0
   23.4269  -20.1268  -10.9096 C   0  0  0  0  0  0  0  0  0  0  0  0
   23.5830  -20.8688   -9.7339 C   0  0  0  0  0  0  0  0  0  0  0  0
   24.6355  -21.7411   -9.5981 C   0  0  0  0  0  0  0  0  0  0  0  0
   25.5313  -21.8705  -10.6391 C   0  0  0  0  0  0  0  0  0  0  0  0
   25.3561  -21.1259  -11.7923 C   0  0  0  0  0  0  0  0  0  0  0  0
   21.9166  -20.4014  -13.8733 C   0  0  0  0  0  0  0  0  0  0  0  0
   21.0102  -19.4924  -13.9038 O   0  0  0  0  0  0  0  0  0  0  0  0
   21.5193  -21.6944  -13.4900 N   0  0  0  0  0  0  0  0  0  0  0  0
   20.0879  -22.0473  -13.4983 C   0  0  1  0  0  0  0  0  0  0  0  0
   19.5117  -21.6764  -14.8236 C   0  0  0  0  0  0  0  0  0  0  0  0
   18.1212  -22.0518  -15.0965 C   0  0  0  0  0  0  0  0  0  0  0  0
   17.0534  -21.2083  -14.5818 C   0  0  0  0  0  0  0  0  0  0  0  0
   16.9923  -19.9896  -14.9483 O   0  0  0  0  0  0  0  0  0  0  0  0
   19.9563  -23.4115  -13.0436 C   0  0  0  0  0  0  0  0  0  0  0  0
   18.9301  -23.7973  -12.1869 O   0  0  0  0  0  0  0  0  0  0  0  0
   16.0591  -21.6275  -13.7009 O   0  0  0  0  0  0  0  0  0  0  0  0
   20.7486  -24.3394  -13.3742 O   0  0  0  0  0  0  0  0  0  0  0  0
  2  1  1  0
  3  2  2  0
  4  3  1  0
  5 11  1  0
  5  4  2  0
  6  5  1  0
  7  6  1  0
  7  8  1  6
  9  7  1  0
  9 10  2  0
 11 12  2  0
 12  2  1  0
 13  9  1  0
 14 13  1  0
 14 15  1  1
 16 15  1  0
 16 17  2  0
 18 17  1  0
 19 18  2  0
 20 21  2  0
 20 19  1  0
 21 16  1  0
 22 14  1  0
 23 22  2  0
 24 22  1  0
 25 24  1  0
 25 26  1  6
 26 27  1  0
 27 28  1  0
 28 32  1  0
 28 29  2  0
 30 31  1  0
 30 25  1  0
 33 30  2  0
M  END
$$$$
