YFE.pdb
     RDKit          3D

 33 34  0  0  1  0  0  0  0  0999 V2000
   18.1890  -14.4505  -21.2412 O   0  0  0  0  0  0  0  0  0  0  0  0
   18.0778  -13.3999  -20.3362 C   0  0  0  0  0  0  0  0  0  0  0  0
   19.2012  -12.9183  -19.6870 C   0  0  0  0  0  0  0  0  0  0  0  0
   19.0455  -11.8839  -18.8052 C   0  0  0  0  0  0  0  0  0  0  0  0
   17.8321  -11.2878  -18.5213 C   0  0  0  0  0  0  0  0  0  0  0  0
   17.6871  -10.1763  -17.5693 C   0  0  0  0  0  0  0  0  0  0  0  0
   18.0143  -10.6539  -16.1704 C   0  0  2  0  0  0  0  0  0  0  0  0
   16.9535  -11.5677  -15.7828 N   0  0  0  0  0  0  0  0  0  0  0  0
   18.0411   -9.5549  -15.1950 C   0  0  0  0  0  0  0  0  0  0  0  0
   16.9548   -9.0983  -14.7622 O   0  0  0  0  0  0  0  0  0  0  0  0
   16.7253  -11.7987  -19.1929 C   0  0  0  0  0  0  0  0  0  0  0  0
   16.8383  -12.8441  -20.0930 C   0  0  0  0  0  0  0  0  0  0  0  0
   19.2333   -8.9702  -14.7054 N   0  0  0  0  0  0  0  0  0  0  0  0
   19.1737   -7.9303  -13.6550 C   0  0  1  0  0  0  0  0  0  0  0  0
   20.2859   -8.2392  -12.7334 C   0  0  0  0  0  0  0  0  0  0  0  0
   20.5880   -7.3387  -11.6464 C   0  0  0  0  0  0  0  0  0  0  0  0
   21.4841   -6.3092  -11.8134 C   0  0  0  0  0  0  0  0  0  0  0  0
   21.7854   -5.4298  -10.7679 C   0  0  0  0  0  0  0  0  0  0  0  0
   21.1861   -5.5788   -9.5408 C   0  0  0  0  0  0  0  0  0  0  0  0
   20.2853   -6.6078   -9.3606 C   0  0  0  0  0  0  0  0  0  0  0  0
   20.0032   -7.4651  -10.4097 C   0  0  0  0  0  0  0  0  0  0  0  0
   19.2354   -6.6235  -14.3441 C   0  0  0  0  0  0  0  0  0  0  0  0
   20.0096   -6.5383  -15.3651 O   0  0  0  0  0  0  0  0  0  0  0  0
   18.5175   -5.4700  -13.9822 N   0  0  0  0  0  0  0  0  0  0  0  0
   18.6833   -4.2341  -14.7688 C   0  0  1  0  0  0  0  0  0  0  0  0
   17.3747   -3.8875  -15.3960 C   0  0  0  0  0  0  0  0  0  0  0  0
   17.2765   -2.6174  -16.1212 C   0  0  0  0  0  0  0  0  0  0  0  0
   15.9633   -2.1432  -16.5301 C   0  0  0  0  0  0  0  0  0  0  0  0
   14.9418   -2.8705  -16.3046 O   0  0  0  0  0  0  0  0  0  0  0  0
   19.3328   -3.2511  -13.9340 C   0  0  0  0  0  0  0  0  0  0  0  0
   20.2027   -2.3048  -14.4664 O   0  0  0  0  0  0  0  0  0  0  0  0
   15.7146   -0.9265  -17.1611 O   0  0  0  0  0  0  0  0  0  0  0  0
   19.1719   -3.1791  -12.6822 O   0  0  0  0  0  0  0  0  0  0  0  0
  2  1  1  0
  3  2  2  0
  4  3  1  0
  5 11  1  0
  5  4  2  0
  6  5  1  0
  7  6  1  0
  7  8  1  1
  9  7  1  0
  9 10  2  0
 11 12  2  0
 12  2  1  0
 13  9  1  0
 14 13  1  0
 14 15  1  1
 16 15  1  0
 16 17  2  0
 18 17  1  0
 19 18  2  0
 20 21  2  0
 20 19  1  0
 21 16  1  0
 22 14  1  0
 23 22  2  0
 24 22  1  0
 25 24  1  0
 25 26  1  1
 26 27  1  0
 27 28  1  0
 28 32  1  0
 28 29  2  0
 30 31  1  0
 30 25  1  0
 33 30  2  0
M  END
$$$$
