QTH.pdb
     RDKit          3D

 27 27  0  0  1  0  0  0  0  0999 V2000
   13.1999  -17.5608   17.8688 N   0  0  0  0  0  0  0  0  0  0  0  0
   12.6109  -18.6657   17.2072 C   0  0  0  0  0  0  0  0  0  0  0  0
   13.2163  -19.1424   16.2035 O   0  0  0  0  0  0  0  0  0  0  0  0
   11.3455  -19.2284   17.6734 C   0  0  0  0  0  0  0  0  0  0  0  0
   10.9075  -18.6870   18.9779 C   0  0  0  0  0  0  0  0  0  0  0  0
    9.5830  -18.0057   18.9125 C   0  0  2  0  0  0  0  0  0  0  0  0
    9.3009  -17.5992   17.5273 N   0  0  0  0  0  0  0  0  0  0  0  0
    9.4764  -16.8017   19.7567 C   0  0  0  0  0  0  0  0  0  0  0  0
    9.8929  -15.6804   19.3387 O   0  0  0  0  0  0  0  0  0  0  0  0
    6.9401  -14.6780   20.4726 C   0  0  0  0  0  0  0  0  0  0  0  0
    7.2748  -15.2582   21.8289 C   0  0  1  0  0  0  0  0  0  0  0  0
    6.4933  -16.3905   22.0268 O   0  0  0  0  0  0  0  0  0  0  0  0
    8.7336  -15.6572   21.8619 C   0  0  2  0  0  0  0  0  0  0  0  0
    8.9167  -16.8535   21.0374 N   0  0  0  0  0  0  0  0  0  0  0  0
    9.1421  -15.9816   23.2408 C   0  0  0  0  0  0  0  0  0  0  0  0
    9.4574  -17.1660   23.5801 O   0  0  0  0  0  0  0  0  0  0  0  0
    9.2045  -14.9911   24.2580 N   0  0  0  0  0  0  0  0  0  0  0  0
    9.5405  -15.2913   25.6459 C   0  0  1  0  0  0  0  0  0  0  0  0
    9.6329  -14.0352   26.4677 C   0  0  0  0  0  0  0  0  0  0  0  0
   10.0752  -14.3498   27.8224 C   0  0  0  0  0  0  0  0  0  0  0  0
   10.3018  -15.5744   28.4023 C   0  0  0  0  0  0  0  0  0  0  0  0
   10.6824  -15.4011   29.6629 N   0  0  0  0  0  0  0  0  0  0  0  0
   10.7106  -14.0826   29.9243 C   0  0  0  0  0  0  0  0  0  0  0  0
   10.3410  -13.4448   28.8034 N   0  0  0  0  0  0  0  0  0  0  0  0
    8.6808  -16.3400   26.2028 C   0  0  0  0  0  0  0  0  0  0  0  0
    7.4480  -16.4379   26.0068 O   0  0  0  0  0  0  0  0  0  0  0  0
    9.2249  -17.3450   27.0308 O   0  0  0  0  0  0  0  0  0  0  0  0
  2  1  1  0
  2  3  2  0
  4  2  1  0
  5  4  1  0
  5  6  1  0
  6  8  1  0
  6  7  1  6
  8  9  2  0
 11 13  1  0
 11 10  1  6
 12 11  1  0
 13 14  1  6
 14  8  1  0
 15 16  2  0
 15 13  1  0
 17 15  1  0
 18 25  1  0
 18 17  1  0
 18 19  1  1
 20 19  1  0
 20 24  1  0
 21 20  2  0
 22 21  1  0
 22 23  1  0
 23 24  2  0
 25 27  1  0
 26 25  2  0
M  END
$$$$
