QTH.pdb
     RDKit          3D

 27 27  0  0  1  0  0  0  0  0999 V2000
   14.2726  -18.7877   17.0587 N   0  0  0  0  0  0  0  0  0  0  0  0
   15.1998  -17.7774   16.7047 C   0  0  0  0  0  0  0  0  0  0  0  0
   16.3496  -18.1412   16.3216 O   0  0  0  0  0  0  0  0  0  0  0  0
   14.8330  -16.3652   16.7844 C   0  0  0  0  0  0  0  0  0  0  0  0
   13.4347  -16.1450   17.2120 C   0  0  0  0  0  0  0  0  0  0  0  0
   13.0574  -14.7032   17.2552 C   0  0  2  0  0  0  0  0  0  0  0  0
   14.2577  -13.8699   17.0869 N   0  0  0  0  0  0  0  0  0  0  0  0
   12.4005  -14.2841   18.5068 C   0  0  0  0  0  0  0  0  0  0  0  0
   13.0637  -13.7196   19.4271 O   0  0  0  0  0  0  0  0  0  0  0  0
    8.9882  -12.4736   18.9645 C   0  0  0  0  0  0  0  0  0  0  0  0
    8.9719  -13.7603   19.7596 C   0  0  1  0  0  0  0  0  0  0  0  0
    8.3099  -14.7286   19.0139 O   0  0  0  0  0  0  0  0  0  0  0  0
   10.3919  -14.2187   20.0084 C   0  0  2  0  0  0  0  0  0  0  0  0
   11.0341  -14.4925   18.7211 N   0  0  0  0  0  0  0  0  0  0  0  0
   10.3945  -15.4638   20.7980 C   0  0  0  0  0  0  0  0  0  0  0  0
   10.8641  -16.5484   20.3286 O   0  0  0  0  0  0  0  0  0  0  0  0
    9.8744  -15.5157   22.1196 N   0  0  0  0  0  0  0  0  0  0  0  0
   10.5680  -16.1668   23.2261 C   0  0  1  0  0  0  0  0  0  0  0  0
   12.0081  -15.7386   23.2933 C   0  0  0  0  0  0  0  0  0  0  0  0
   12.8594  -16.7261   22.6377 C   0  0  0  0  0  0  0  0  0  0  0  0
   12.5059  -17.8642   21.9543 C   0  0  0  0  0  0  0  0  0  0  0  0
   13.6026  -18.4819   21.5305 N   0  0  0  0  0  0  0  0  0  0  0  0
   14.6737  -17.7703   21.9229 C   0  0  0  0  0  0  0  0  0  0  0  0
   14.2195  -16.7027   22.5963 N   0  0  0  0  0  0  0  0  0  0  0  0
    9.8228  -16.0511   24.4831 C   0  0  0  0  0  0  0  0  0  0  0  0
    9.2584  -15.0105   24.8909 O   0  0  0  0  0  0  0  0  0  0  0  0
    9.6961  -17.1628   25.3433 O   0  0  0  0  0  0  0  0  0  0  0  0
  2  1  1  0
  2  3  2  0
  4  2  1  0
  5  4  1  0
  5  6  1  0
  6  8  1  0
  6  7  1  1
  8  9  2  0
 11 13  1  0
 11 10  1  6
 12 11  1  0
 13 14  1  6
 14  8  1  0
 15 16  2  0
 15 13  1  0
 17 15  1  0
 18 25  1  0
 18 17  1  0
 18 19  1  1
 20 19  1  0
 20 24  1  0
 21 20  2  0
 22 21  1  0
 22 23  1  0
 23 24  2  0
 25 27  1  0
 26 25  2  0
M  END
$$$$
