QTH.pdb
     RDKit          3D

 27 27  0  0  1  0  0  0  0  0999 V2000
   14.6565  -16.7450   14.8856 N   0  0  0  0  0  0  0  0  0  0  0  0
   13.3103  -17.0879   15.1604 C   0  0  0  0  0  0  0  0  0  0  0  0
   12.9852  -18.3082   15.0807 O   0  0  0  0  0  0  0  0  0  0  0  0
   12.3358  -16.0604   15.5210 C   0  0  0  0  0  0  0  0  0  0  0  0
   11.0051  -16.6074   15.8625 C   0  0  0  0  0  0  0  0  0  0  0  0
    9.9992  -15.5495   16.1657 C   0  0  2  0  0  0  0  0  0  0  0  0
    9.9692  -14.5644   15.0739 N   0  0  0  0  0  0  0  0  0  0  0  0
   10.2499  -14.8133   17.4182 C   0  0  0  0  0  0  0  0  0  0  0  0
   11.0961  -13.8709   17.4556 O   0  0  0  0  0  0  0  0  0  0  0  0
    7.9367  -12.8540   19.5414 C   0  0  0  0  0  0  0  0  0  0  0  0
    8.5007  -13.9450   20.4245 C   0  0  1  0  0  0  0  0  0  0  0  0
    7.6047  -15.0076   20.4358 O   0  0  0  0  0  0  0  0  0  0  0  0
    9.8201  -14.4219   19.8586 C   0  0  2  0  0  0  0  0  0  0  0  0
    9.5690  -15.1259   18.5993 N   0  0  0  0  0  0  0  0  0  0  0  0
   10.4642  -15.3640   20.7920 C   0  0  0  0  0  0  0  0  0  0  0  0
   10.3481  -16.6227   20.6526 O   0  0  0  0  0  0  0  0  0  0  0  0
   11.2452  -14.9156   21.8913 N   0  0  0  0  0  0  0  0  0  0  0  0
   11.8574  -15.8208   22.8584 C   0  0  1  0  0  0  0  0  0  0  0  0
   13.1830  -15.2936   23.3343 C   0  0  0  0  0  0  0  0  0  0  0  0
   14.1471  -15.2887   22.2387 C   0  0  0  0  0  0  0  0  0  0  0  0
   14.0147  -15.7735   20.9601 C   0  0  0  0  0  0  0  0  0  0  0  0
   15.1464  -15.5739   20.2941 N   0  0  0  0  0  0  0  0  0  0  0  0
   16.0230  -14.9655   21.1121 C   0  0  0  0  0  0  0  0  0  0  0  0
   15.4132  -14.7930   22.2944 N   0  0  0  0  0  0  0  0  0  0  0  0
   10.9206  -16.2038   23.9189 C   0  0  0  0  0  0  0  0  0  0  0  0
   11.1700  -17.0149   24.8396 O   0  0  0  0  0  0  0  0  0  0  0  0
    9.6229  -15.6506   23.9598 O   0  0  0  0  0  0  0  0  0  0  0  0
  2  1  1  0
  2  3  2  0
  4  2  1  0
  5  4  1  0
  5  6  1  0
  6  8  1  0
  6  7  1  6
  8  9  2  0
 11 13  1  0
 11 10  1  6
 12 11  1  0
 13 14  1  6
 14  8  1  0
 15 16  2  0
 15 13  1  0
 17 15  1  0
 18 25  1  0
 18 17  1  0
 18 19  1  1
 20 19  1  0
 20 24  1  0
 21 20  2  0
 22 21  1  0
 22 23  1  0
 23 24  2  0
 25 27  1  0
 26 25  2  0
M  END
$$$$
