QTH.pdb
     RDKit          3D

 27 27  0  0  1  0  0  0  0  0999 V2000
   13.3819  -20.2419   18.2550 N   0  0  0  0  0  0  0  0  0  0  0  0
   12.8723  -19.2707   19.1508 C   0  0  0  0  0  0  0  0  0  0  0  0
   13.3590  -19.2332   20.3182 O   0  0  0  0  0  0  0  0  0  0  0  0
   11.8186  -18.3484   18.7332 C   0  0  0  0  0  0  0  0  0  0  0  0
   10.5468  -18.5409   19.4626 C   0  0  0  0  0  0  0  0  0  0  0  0
    9.5048  -17.5402   19.0939 C   0  0  2  0  0  0  0  0  0  0  0  0
    9.5311  -17.3071   17.6419 N   0  0  0  0  0  0  0  0  0  0  0  0
    9.6587  -16.2312   19.7544 C   0  0  0  0  0  0  0  0  0  0  0  0
   10.5242  -15.3998   19.3478 O   0  0  0  0  0  0  0  0  0  0  0  0
    7.5160  -13.4882   19.5281 C   0  0  0  0  0  0  0  0  0  0  0  0
    7.5054  -13.8622   20.9938 C   0  0  1  0  0  0  0  0  0  0  0  0
    6.4895  -14.7874   21.2033 O   0  0  0  0  0  0  0  0  0  0  0  0
    8.8289  -14.4946   21.3636 C   0  0  2  0  0  0  0  0  0  0  0  0
    8.8620  -15.8632   20.8436 N   0  0  0  0  0  0  0  0  0  0  0  0
    8.9725  -14.5558   22.8296 C   0  0  0  0  0  0  0  0  0  0  0  0
    8.9149  -13.5081   23.5482 O   0  0  0  0  0  0  0  0  0  0  0  0
    9.1817  -15.7843   23.5128 N   0  0  0  0  0  0  0  0  0  0  0  0
    8.9909  -15.9412   24.9510 C   0  0  1  0  0  0  0  0  0  0  0  0
    7.5314  -15.9149   25.3127 C   0  0  0  0  0  0  0  0  0  0  0  0
    7.1681  -14.6078   25.8504 C   0  0  0  0  0  0  0  0  0  0  0  0
    7.9643  -13.5158   26.0974 C   0  0  0  0  0  0  0  0  0  0  0  0
    7.2235  -12.5358   26.6021 N   0  0  0  0  0  0  0  0  0  0  0  0
    5.9519  -12.9631   26.6923 C   0  0  0  0  0  0  0  0  0  0  0  0
    5.9204  -14.2237   26.2345 N   0  0  0  0  0  0  0  0  0  0  0  0
    9.7454  -17.0802   25.4822 C   0  0  0  0  0  0  0  0  0  0  0  0
   10.3577  -17.9234   24.7880 O   0  0  0  0  0  0  0  0  0  0  0  0
    9.8254  -17.2973   26.8744 O   0  0  0  0  0  0  0  0  0  0  0  0
  2  1  1  0
  2  3  2  0
  4  2  1  0
  5  4  1  0
  5  6  1  0
  6  8  1  0
  6  7  1  6
  8  9  2  0
 11 13  1  0
 11 10  1  6
 12 11  1  0
 13 14  1  1
 14  8  1  0
 15 16  2  0
 15 13  1  0
 17 15  1  0
 18 25  1  0
 18 17  1  0
 18 19  1  6
 20 19  1  0
 20 24  1  0
 21 20  2  0
 22 21  1  0
 22 23  1  0
 23 24  2  0
 25 27  1  0
 26 25  2  0
M  END
$$$$
