QTH.pdb
     RDKit          3D

 27 27  0  0  1  0  0  0  0  0999 V2000
    7.3280  -14.1572   13.2853 N   0  0  0  0  0  0  0  0  0  0  0  0
    8.7089  -14.4249   13.4495 C   0  0  0  0  0  0  0  0  0  0  0  0
    9.5166  -13.8618   12.6548 O   0  0  0  0  0  0  0  0  0  0  0  0
    9.1760  -15.3239   14.5026 C   0  0  0  0  0  0  0  0  0  0  0  0
    8.0780  -15.9919   15.2339 C   0  0  0  0  0  0  0  0  0  0  0  0
    8.5453  -16.7295   16.4425 C   0  0  2  0  0  0  0  0  0  0  0  0
    7.4269  -17.4853   17.0269 N   0  0  0  0  0  0  0  0  0  0  0  0
    9.0990  -15.8686   17.5036 C   0  0  0  0  0  0  0  0  0  0  0  0
   10.1976  -15.2603   17.3346 O   0  0  0  0  0  0  0  0  0  0  0  0
    7.2018  -13.2073   19.7213 C   0  0  0  0  0  0  0  0  0  0  0  0
    7.8722  -14.2520   20.5857 C   0  0  1  0  0  0  0  0  0  0  0  0
    6.9327  -15.2250   20.9064 O   0  0  0  0  0  0  0  0  0  0  0  0
    9.0024  -14.8969   19.8144 C   0  0  2  0  0  0  0  0  0  0  0  0
    8.4376  -15.6941   18.7235 N   0  0  0  0  0  0  0  0  0  0  0  0
    9.7702  -15.7980   20.6932 C   0  0  0  0  0  0  0  0  0  0  0  0
    9.6464  -17.0617   20.6218 O   0  0  0  0  0  0  0  0  0  0  0  0
   10.6847  -15.3025   21.6616 N   0  0  0  0  0  0  0  0  0  0  0  0
   11.4706  -16.1682   22.5346 C   0  0  1  0  0  0  0  0  0  0  0  0
   12.8287  -15.5811   22.8043 C   0  0  0  0  0  0  0  0  0  0  0  0
   13.5762  -16.4377   23.7194 C   0  0  0  0  0  0  0  0  0  0  0  0
   13.2029  -16.9413   24.9418 C   0  0  0  0  0  0  0  0  0  0  0  0
   14.1975  -17.6654   25.4422 N   0  0  0  0  0  0  0  0  0  0  0  0
   15.2208  -17.6478   24.5702 C   0  0  0  0  0  0  0  0  0  0  0  0
   14.8408  -16.9004   23.5230 N   0  0  0  0  0  0  0  0  0  0  0  0
   10.7179  -16.5734   23.7254 C   0  0  0  0  0  0  0  0  0  0  0  0
   11.0373  -17.5090   24.4937 O   0  0  0  0  0  0  0  0  0  0  0  0
    9.5337  -15.8960   24.0867 O   0  0  0  0  0  0  0  0  0  0  0  0
  2  1  1  0
  2  3  2  0
  4  2  1  0
  5  4  1  0
  5  6  1  0
  6  8  1  0
  6  7  1  1
  8  9  2  0
 11 13  1  0
 11 10  1  6
 12 11  1  0
 13 14  1  6
 14  8  1  0
 15 16  2  0
 15 13  1  0
 17 15  1  0
 18 25  1  0
 18 17  1  0
 18 19  1  1
 20 19  1  0
 20 24  1  0
 21 20  2  0
 22 21  1  0
 22 23  1  0
 23 24  2  0
 25 27  1  0
 26 25  2  0
M  END
$$$$
