QTH.pdb
     RDKit          3D

 27 27  0  0  1  0  0  0  0  0999 V2000
   12.8424  -18.6229   15.2462 N   0  0  0  0  0  0  0  0  0  0  0  0
   11.9776  -17.9670   14.3366 C   0  0  0  0  0  0  0  0  0  0  0  0
   12.0203  -18.3220   13.1229 O   0  0  0  0  0  0  0  0  0  0  0  0
   11.0713  -16.9154   14.7928 C   0  0  0  0  0  0  0  0  0  0  0  0
   10.6175  -17.0962   16.1886 C   0  0  0  0  0  0  0  0  0  0  0  0
    9.4562  -16.2306   16.5419 C   0  0  2  0  0  0  0  0  0  0  0  0
    9.1709  -15.3051   15.4348 N   0  0  0  0  0  0  0  0  0  0  0  0
    9.6506  -15.4190   17.7572 C   0  0  0  0  0  0  0  0  0  0  0  0
   10.5928  -14.5746   17.8266 O   0  0  0  0  0  0  0  0  0  0  0  0
    7.4016  -13.0001   19.3208 C   0  0  0  0  0  0  0  0  0  0  0  0
    7.6749  -14.0410   20.3838 C   0  0  1  0  0  0  0  0  0  0  0  0
    6.6434  -14.9725   20.3614 O   0  0  0  0  0  0  0  0  0  0  0  0
    8.9784  -14.7451   20.0784 C   0  0  2  0  0  0  0  0  0  0  0  0
    8.8097  -15.5506   18.8671 N   0  0  0  0  0  0  0  0  0  0  0  0
    9.3409  -15.6490   21.1853 C   0  0  0  0  0  0  0  0  0  0  0  0
    9.1786  -16.9073   21.0972 O   0  0  0  0  0  0  0  0  0  0  0  0
    9.8884  -15.1624   22.4032 N   0  0  0  0  0  0  0  0  0  0  0  0
   10.2285  -16.0274   23.5281 C   0  0  1  0  0  0  0  0  0  0  0  0
   11.4966  -15.5754   24.1985 C   0  0  0  0  0  0  0  0  0  0  0  0
   12.6553  -15.9635   23.4008 C   0  0  0  0  0  0  0  0  0  0  0  0
   12.7030  -16.6399   22.2060 C   0  0  0  0  0  0  0  0  0  0  0  0
   13.9697  -16.7943   21.8376 N   0  0  0  0  0  0  0  0  0  0  0  0
   14.7584  -16.2310   22.7695 C   0  0  0  0  0  0  0  0  0  0  0  0
   13.9569  -15.7262   23.7194 N   0  0  0  0  0  0  0  0  0  0  0  0
    9.0873  -16.2335   24.4248 C   0  0  0  0  0  0  0  0  0  0  0  0
    8.0258  -15.5700   24.4011 O   0  0  0  0  0  0  0  0  0  0  0  0
    9.1272  -17.2415   25.4117 O   0  0  0  0  0  0  0  0  0  0  0  0
  2  1  1  0
  2  3  2  0
  4  2  1  0
  5  4  1  0
  5  6  1  0
  6  8  1  0
  6  7  1  6
  8  9  2  0
 11 13  1  0
 11 10  1  6
 12 11  1  0
 13 14  1  6
 14  8  1  0
 15 16  2  0
 15 13  1  0
 17 15  1  0
 18 25  1  0
 18 17  1  0
 18 19  1  1
 20 19  1  0
 20 24  1  0
 21 20  2  0
 22 21  1  0
 22 23  1  0
 23 24  2  0
 25 27  1  0
 26 25  2  0
M  END
$$$$
