QTH.pdb
     RDKit          3D

 27 27  0  0  1  0  0  0  0  0999 V2000
   12.6589  -19.7332   18.0959 N   0  0  0  0  0  0  0  0  0  0  0  0
   11.8188  -19.3215   17.0328 C   0  0  0  0  0  0  0  0  0  0  0  0
   11.4893  -20.1890   16.1726 O   0  0  0  0  0  0  0  0  0  0  0  0
   11.3547  -17.9391   16.9393 C   0  0  0  0  0  0  0  0  0  0  0  0
    9.9009  -17.8232   16.6949 C   0  0  0  0  0  0  0  0  0  0  0  0
    9.4321  -16.4098   16.6207 C   0  0  2  0  0  0  0  0  0  0  0  0
   10.0868  -15.7273   15.4943 N   0  0  0  0  0  0  0  0  0  0  0  0
    9.6997  -15.6161   17.8340 C   0  0  0  0  0  0  0  0  0  0  0  0
   10.7749  -14.9559   17.9502 O   0  0  0  0  0  0  0  0  0  0  0  0
    7.3371  -13.0566   19.5458 C   0  0  0  0  0  0  0  0  0  0  0  0
    7.7268  -14.1334   20.5342 C   0  0  1  0  0  0  0  0  0  0  0  0
    6.7296  -15.1017   20.5441 O   0  0  0  0  0  0  0  0  0  0  0  0
    9.0269  -14.7726   20.0988 C   0  0  2  0  0  0  0  0  0  0  0  0
    8.7848  -15.5639   18.8906 N   0  0  0  0  0  0  0  0  0  0  0  0
    9.5265  -15.6781   21.1496 C   0  0  0  0  0  0  0  0  0  0  0  0
    9.8777  -16.8719   20.8874 O   0  0  0  0  0  0  0  0  0  0  0  0
    9.6411  -15.2648   22.5045 N   0  0  0  0  0  0  0  0  0  0  0  0
   10.3168  -16.0569   23.5269 C   0  0  1  0  0  0  0  0  0  0  0  0
   11.7332  -16.3669   23.1276 C   0  0  0  0  0  0  0  0  0  0  0  0
   11.7939  -17.6530   22.4404 C   0  0  0  0  0  0  0  0  0  0  0  0
   10.7720  -18.4997   22.0853 C   0  0  0  0  0  0  0  0  0  0  0  0
   11.2769  -19.5724   21.4867 N   0  0  0  0  0  0  0  0  0  0  0  0
   12.6148  -19.4475   21.4410 C   0  0  0  0  0  0  0  0  0  0  0  0
   12.9272  -18.2792   22.0216 N   0  0  0  0  0  0  0  0  0  0  0  0
   10.1578  -15.4760   24.8634 C   0  0  0  0  0  0  0  0  0  0  0  0
    9.6723  -14.3470   25.1032 O   0  0  0  0  0  0  0  0  0  0  0  0
   10.5641  -16.1950   26.0078 O   0  0  0  0  0  0  0  0  0  0  0  0
  2  1  1  0
  2  3  2  0
  4  2  1  0
  5  4  1  0
  5  6  1  0
  6  8  1  0
  6  7  1  6
  8  9  2  0
 11 13  1  0
 11 10  1  6
 12 11  1  0
 13 14  1  6
 14  8  1  0
 15 16  2  0
 15 13  1  0
 17 15  1  0
 18 25  1  0
 18 17  1  0
 18 19  1  6
 20 19  1  0
 20 24  1  0
 21 20  2  0
 22 21  1  0
 22 23  1  0
 23 24  2  0
 25 27  1  0
 26 25  2  0
M  END
$$$$
