QTH.pdb
     RDKit          3D

 27 27  0  0  1  0  0  0  0  0999 V2000
   14.2675  -15.7958   17.1426 N   0  0  0  0  0  0  0  0  0  0  0  0
   13.7712  -15.5851   15.8331 C   0  0  0  0  0  0  0  0  0  0  0  0
   14.5927  -15.2165   14.9441 O   0  0  0  0  0  0  0  0  0  0  0  0
   12.3564  -15.7871   15.5284 C   0  0  0  0  0  0  0  0  0  0  0  0
   11.8411  -17.0991   15.9754 C   0  0  0  0  0  0  0  0  0  0  0  0
   10.3930  -17.2903   15.6766 C   0  0  2  0  0  0  0  0  0  0  0  0
    9.9812  -16.3719   14.6040 N   0  0  0  0  0  0  0  0  0  0  0  0
    9.4992  -17.0567   16.8256 C   0  0  0  0  0  0  0  0  0  0  0  0
    8.9222  -15.9390   16.9788 O   0  0  0  0  0  0  0  0  0  0  0  0
    8.9845  -20.0908   19.7298 C   0  0  0  0  0  0  0  0  0  0  0  0
    7.8180  -19.2075   19.3461 C   0  0  1  0  0  0  0  0  0  0  0  0
    7.0126  -19.0332   20.4655 O   0  0  0  0  0  0  0  0  0  0  0  0
    8.3324  -17.8576   18.8970 C   0  0  2  0  0  0  0  0  0  0  0  0
    9.2583  -18.0512   17.7790 N   0  0  0  0  0  0  0  0  0  0  0  0
    9.0665  -17.2012   19.9941 C   0  0  0  0  0  0  0  0  0  0  0  0
   10.3323  -17.2800   20.0885 O   0  0  0  0  0  0  0  0  0  0  0  0
    8.3998  -16.4493   20.9990 N   0  0  0  0  0  0  0  0  0  0  0  0
    9.0974  -15.7880   22.0968 C   0  0  1  0  0  0  0  0  0  0  0  0
    8.5866  -14.3884   22.3021 C   0  0  0  0  0  0  0  0  0  0  0  0
    8.5836  -13.6615   21.0367 C   0  0  0  0  0  0  0  0  0  0  0  0
    9.6041  -12.9757   20.4239 C   0  0  0  0  0  0  0  0  0  0  0  0
    9.1612  -12.4496   19.2877 N   0  0  0  0  0  0  0  0  0  0  0  0
    7.8654  -12.7769   19.1407 C   0  0  0  0  0  0  0  0  0  0  0  0
    7.5161  -13.5142   20.2057 N   0  0  0  0  0  0  0  0  0  0  0  0
    9.1362  -16.6216   23.3020 C   0  0  0  0  0  0  0  0  0  0  0  0
    8.4824  -17.6765   23.4674 O   0  0  0  0  0  0  0  0  0  0  0  0
    9.9536  -16.2606   24.3944 O   0  0  0  0  0  0  0  0  0  0  0  0
  2  1  1  0
  2  3  2  0
  4  2  1  0
  5  4  1  0
  5  6  1  0
  6  8  1  0
  6  7  1  6
  8  9  2  0
 11 13  1  0
 11 10  1  1
 12 11  1  0
 13 14  1  6
 14  8  1  0
 15 16  2  0
 15 13  1  0
 17 15  1  0
 18 25  1  0
 18 17  1  0
 18 19  1  1
 20 19  1  0
 20 24  1  0
 21 20  2  0
 22 21  1  0
 22 23  1  0
 23 24  2  0
 25 27  1  0
 26 25  2  0
M  END
$$$$
