QTH.pdb
     RDKit          3D

 27 27  0  0  1  0  0  0  0  0999 V2000
    9.9970  -12.5155   18.2502 N   0  0  0  0  0  0  0  0  0  0  0  0
    8.7051  -13.0775   18.1069 C   0  0  0  0  0  0  0  0  0  0  0  0
    7.7572  -12.3018   17.7895 O   0  0  0  0  0  0  0  0  0  0  0  0
    8.4832  -14.5057   18.3222 C   0  0  0  0  0  0  0  0  0  0  0  0
    9.6960  -15.2285   18.7619 C   0  0  0  0  0  0  0  0  0  0  0  0
    9.4614  -16.6848   18.9791 C   0  0  2  0  0  0  0  0  0  0  0  0
    8.3520  -17.1419   18.1284 N   0  0  0  0  0  0  0  0  0  0  0  0
    9.1300  -17.0463   20.3695 C   0  0  0  0  0  0  0  0  0  0  0  0
    7.9581  -17.4148   20.6796 O   0  0  0  0  0  0  0  0  0  0  0  0
   10.3020  -19.7364   22.1055 C   0  0  0  0  0  0  0  0  0  0  0  0
   10.6196  -18.6334   23.0908 C   0  0  1  0  0  0  0  0  0  0  0  0
   11.9675  -18.3150   22.9736 O   0  0  0  0  0  0  0  0  0  0  0  0
    9.7957  -17.4084   22.7610 C   0  0  2  0  0  0  0  0  0  0  0  0
   10.0886  -16.9960   21.3867 N   0  0  0  0  0  0  0  0  0  0  0  0
   10.1527  -16.2967   23.6611 C   0  0  0  0  0  0  0  0  0  0  0  0
   10.5704  -15.1833   23.2102 O   0  0  0  0  0  0  0  0  0  0  0  0
   10.0486  -16.4116   25.0738 N   0  0  0  0  0  0  0  0  0  0  0  0
    9.3852  -15.4162   25.9095 C   0  0  1  0  0  0  0  0  0  0  0  0
    8.0096  -15.0993   25.3908 C   0  0  0  0  0  0  0  0  0  0  0  0
    7.3875  -14.0639   26.2098 C   0  0  0  0  0  0  0  0  0  0  0  0
    7.8871  -13.4031   27.3057 C   0  0  0  0  0  0  0  0  0  0  0  0
    6.9777  -12.5460   27.7555 N   0  0  0  0  0  0  0  0  0  0  0  0
    5.8865  -12.6304   26.9746 C   0  0  0  0  0  0  0  0  0  0  0  0
    6.1378  -13.5543   26.0350 N   0  0  0  0  0  0  0  0  0  0  0  0
    9.4514  -15.7640   27.3320 C   0  0  0  0  0  0  0  0  0  0  0  0
    9.4484  -14.9395   28.2743 O   0  0  0  0  0  0  0  0  0  0  0  0
    9.5256  -17.1146   27.7345 O   0  0  0  0  0  0  0  0  0  0  0  0
  2  1  1  0
  2  3  2  0
  4  2  1  0
  5  4  1  0
  5  6  1  0
  6  8  1  0
  6  7  1  6
  8  9  2  0
 11 13  1  0
 11 10  1  6
 12 11  1  0
 13 14  1  6
 14  8  1  0
 15 16  2  0
 15 13  1  0
 17 15  1  0
 18 25  1  0
 18 17  1  0
 18 19  1  6
 20 19  1  0
 20 24  1  0
 21 20  2  0
 22 21  1  0
 22 23  1  0
 23 24  2  0
 25 27  1  0
 26 25  2  0
M  END
$$$$
