QCW.pdb
     RDKit          3D

 30 31  0  0  1  0  0  0  0  0999 V2000
    8.2530  -12.2411   16.4823 N   0  0  0  0  0  0  0  0  0  0  0  0
    8.0739  -13.4862   15.8468 C   0  0  0  0  0  0  0  0  0  0  0  0
    8.2309  -13.5818   14.6092 O   0  0  0  0  0  0  0  0  0  0  0  0
    7.7008  -14.6647   16.6627 C   0  0  0  0  0  0  0  0  0  0  0  0
    7.4597  -14.2146   18.0965 C   0  0  0  0  0  0  0  0  0  0  0  0
    8.6235  -14.5821   18.9827 C   0  0  2  0  0  0  0  0  0  0  0  0
    9.6296  -15.3415   18.2369 N   0  0  0  0  0  0  0  0  0  0  0  0
    8.1881  -15.3372   20.1857 C   0  0  0  0  0  0  0  0  0  0  0  0
    7.1944  -14.9894   20.8681 O   0  0  0  0  0  0  0  0  0  0  0  0
    8.9224  -16.4862   20.5705 N   0  0  0  0  0  0  0  0  0  0  0  0
    8.6501  -17.2796   21.7498 C   0  0  1  0  0  0  0  0  0  0  0  0
    8.7694  -18.7597   21.4479 C   0  0  0  0  0  0  0  0  0  0  0  0
    8.9081  -19.7717   22.9221 S   0  0  0  0  0  0  0  0  0  0  0  0
    9.5770  -16.8514   22.8181 C   0  0  0  0  0  0  0  0  0  0  0  0
   10.8332  -16.7499   22.5940 O   0  0  0  0  0  0  0  0  0  0  0  0
    9.1821  -16.5257   24.1380 N   0  0  0  0  0  0  0  0  0  0  0  0
   10.1847  -16.2732   25.1923 C   0  0  1  0  0  0  0  0  0  0  0  0
    9.9290  -14.8496   25.6163 C   0  0  0  0  0  0  0  0  0  0  0  0
    8.4924  -14.6028   25.8184 C   0  0  0  0  0  0  0  0  0  0  0  0
    7.4984  -15.5822   25.8625 C   0  0  0  0  0  0  0  0  0  0  0  0
    6.3024  -15.0580   26.1054 N   0  0  0  0  0  0  0  0  0  0  0  0
    6.5191  -13.7212   26.2200 C   0  0  0  0  0  0  0  0  0  0  0  0
    5.5825  -12.7238   26.4646 C   0  0  0  0  0  0  0  0  0  0  0  0
    6.0192  -11.4280   26.5285 C   0  0  0  0  0  0  0  0  0  0  0  0
    7.3515  -11.1247   26.3541 C   0  0  0  0  0  0  0  0  0  0  0  0
    8.2885  -12.0950   26.1125 C   0  0  0  0  0  0  0  0  0  0  0  0
    7.8525  -13.4184   26.0474 C   0  0  0  0  0  0  0  0  0  0  0  0
   10.1511  -17.2650   26.2615 C   0  0  0  0  0  0  0  0  0  0  0  0
    9.1824  -18.2561   26.2396 O   0  0  0  0  0  0  0  0  0  0  0  0
   10.9629  -17.2692   27.2215 O   0  0  0  0  0  0  0  0  0  0  0  0
  2  3  2  0
  2  1  1  0
  4  2  1  0
  5  4  1  0
  6  5  1  0
  6  7  1  6
  8 10  1  0
  8  6  1  0
  9  8  2  0
 11 14  1  0
 11 10  1  0
 11 12  1  6
 13 12  1  0
 14 15  2  0
 16 17  1  0
 16 14  1  0
 17 28  1  0
 17 18  1  1
 19 18  1  0
 20 19  2  0
 21 22  1  0
 21 20  1  0
 22 27  2  0
 23 24  2  0
 23 22  1  0
 24 25  1  0
 25 26  2  0
 27 26  1  0
 27 19  1  0
 28 30  2  0
 28 29  1  0
M  END
$$$$
