QCW.pdb
     RDKit          3D

 30 31  0  0  1  0  0  0  0  0999 V2000
    7.7541  -14.2278   15.2011 N   0  0  0  0  0  0  0  0  0  0  0  0
    8.1630  -13.2492   16.1292 C   0  0  0  0  0  0  0  0  0  0  0  0
    8.4241  -12.0900   15.7374 O   0  0  0  0  0  0  0  0  0  0  0  0
    8.2761  -13.6156   17.5599 C   0  0  0  0  0  0  0  0  0  0  0  0
    7.9097  -15.0837   17.7228 C   0  0  0  0  0  0  0  0  0  0  0  0
    8.9278  -15.8055   18.5698 C   0  0  2  0  0  0  0  0  0  0  0  0
    9.5779  -16.8747   17.8087 N   0  0  0  0  0  0  0  0  0  0  0  0
    8.3289  -16.3453   19.8176 C   0  0  0  0  0  0  0  0  0  0  0  0
    7.1713  -16.8280   19.8475 O   0  0  0  0  0  0  0  0  0  0  0  0
    9.0942  -16.3111   21.0096 N   0  0  0  0  0  0  0  0  0  0  0  0
    8.7153  -16.9552   22.2490 C   0  0  1  0  0  0  0  0  0  0  0  0
    8.7254  -18.4633   22.1022 C   0  0  0  0  0  0  0  0  0  0  0  0
   10.3333  -19.1177   21.6514 S   0  0  0  0  0  0  0  0  0  0  0  0
    9.6338  -16.4914   23.3096 C   0  0  0  0  0  0  0  0  0  0  0  0
   10.8533  -16.2081   23.0426 O   0  0  0  0  0  0  0  0  0  0  0  0
    9.2697  -16.3228   24.6671 N   0  0  0  0  0  0  0  0  0  0  0  0
   10.2956  -16.1492   25.7149 C   0  0  1  0  0  0  0  0  0  0  0  0
    9.7891  -14.9977   26.5451 C   0  0  0  0  0  0  0  0  0  0  0  0
    8.3500  -14.7776   26.3306 C   0  0  0  0  0  0  0  0  0  0  0  0
    7.3812  -15.7780   26.2315 C   0  0  0  0  0  0  0  0  0  0  0  0
    6.1629  -15.2696   26.0852 N   0  0  0  0  0  0  0  0  0  0  0  0
    6.3396  -13.9221   26.0881 C   0  0  0  0  0  0  0  0  0  0  0  0
    5.3702  -12.9351   25.9538 C   0  0  0  0  0  0  0  0  0  0  0  0
    5.7726  -11.6268   25.9709 C   0  0  0  0  0  0  0  0  0  0  0  0
    7.1030  -11.3012   26.1172 C   0  0  0  0  0  0  0  0  0  0  0  0
    8.0719  -12.2610   26.2513 C   0  0  0  0  0  0  0  0  0  0  0  0
    7.6706  -13.5968   26.2364 C   0  0  0  0  0  0  0  0  0  0  0  0
   10.5772  -17.3787   26.4476 C   0  0  0  0  0  0  0  0  0  0  0  0
    9.8000  -18.5024   26.2145 O   0  0  0  0  0  0  0  0  0  0  0  0
   11.4986  -17.4775   27.2971 O   0  0  0  0  0  0  0  0  0  0  0  0
  2  3  2  0
  2  1  1  0
  4  2  1  0
  5  4  1  0
  6  5  1  0
  6  7  1  6
  8 10  1  0
  8  6  1  0
  9  8  2  0
 11 14  1  0
 11 10  1  0
 11 12  1  6
 13 12  1  0
 14 15  2  0
 16 17  1  0
 16 14  1  0
 17 28  1  0
 17 18  1  1
 19 18  1  0
 20 19  2  0
 21 22  1  0
 21 20  1  0
 22 27  2  0
 23 24  2  0
 23 22  1  0
 24 25  1  0
 25 26  2  0
 27 26  1  0
 27 19  1  0
 28 30  2  0
 28 29  1  0
M  END
$$$$
