QCW.pdb
     RDKit          3D

 30 31  0  0  1  0  0  0  0  0999 V2000
    7.5335  -12.2615   18.4308 N   0  0  0  0  0  0  0  0  0  0  0  0
    7.9208  -13.1434   17.4019 C   0  0  0  0  0  0  0  0  0  0  0  0
    7.4341  -13.0156   16.2564 O   0  0  0  0  0  0  0  0  0  0  0  0
    8.9030  -14.2112   17.6998 C   0  0  0  0  0  0  0  0  0  0  0  0
    8.4259  -14.9944   18.9144 C   0  0  0  0  0  0  0  0  0  0  0  0
    9.4290  -16.0503   19.3065 C   0  0  2  0  0  0  0  0  0  0  0  0
    9.7370  -16.9256   18.1733 N   0  0  0  0  0  0  0  0  0  0  0  0
    8.9671  -16.8494   20.4705 C   0  0  0  0  0  0  0  0  0  0  0  0
    7.8175  -17.3491   20.5228 O   0  0  0  0  0  0  0  0  0  0  0  0
    9.8576  -17.0504   21.5541 N   0  0  0  0  0  0  0  0  0  0  0  0
    9.5698  -17.8653   22.7150 C   0  0  1  0  0  0  0  0  0  0  0  0
   10.2835  -19.1994   22.6323 C   0  0  0  0  0  0  0  0  0  0  0  0
    9.9315  -20.2754   24.0233 S   0  0  0  0  0  0  0  0  0  0  0  0
    9.9519  -17.1016   23.9210 C   0  0  0  0  0  0  0  0  0  0  0  0
   10.9058  -16.2489   23.8818 O   0  0  0  0  0  0  0  0  0  0  0  0
    9.3265  -17.2336   25.1841 N   0  0  0  0  0  0  0  0  0  0  0  0
    9.9177  -16.6271   26.3937 C   0  0  1  0  0  0  0  0  0  0  0  0
    8.7301  -16.2783   27.2539 C   0  0  0  0  0  0  0  0  0  0  0  0
    7.8005  -15.3856   26.5437 C   0  0  0  0  0  0  0  0  0  0  0  0
    6.6988  -15.7940   25.7896 C   0  0  0  0  0  0  0  0  0  0  0  0
    6.0219  -14.7578   25.3076 N   0  0  0  0  0  0  0  0  0  0  0  0
    6.6906  -13.6613   25.7517 C   0  0  0  0  0  0  0  0  0  0  0  0
    6.3910  -12.3252   25.5125 C   0  0  0  0  0  0  0  0  0  0  0  0
    7.2131  -11.3717   26.0499 C   0  0  0  0  0  0  0  0  0  0  0  0
    8.3069  -11.7304   26.8064 C   0  0  0  0  0  0  0  0  0  0  0  0
    8.6171  -13.0422   27.0527 C   0  0  0  0  0  0  0  0  0  0  0  0
    7.7838  -14.0205   26.5102 C   0  0  0  0  0  0  0  0  0  0  0  0
   10.9249  -17.4739   27.0232 C   0  0  0  0  0  0  0  0  0  0  0  0
   11.6456  -16.9862   28.1020 O   0  0  0  0  0  0  0  0  0  0  0  0
   11.1843  -18.6404   26.6328 O   0  0  0  0  0  0  0  0  0  0  0  0
  2  3  2  0
  2  1  1  0
  4  2  1  0
  5  4  1  0
  6  5  1  0
  6  7  1  6
  8 10  1  0
  8  6  1  0
  9  8  2  0
 11 14  1  0
 11 10  1  0
 11 12  1  6
 13 12  1  0
 14 15  2  0
 16 17  1  0
 16 14  1  0
 17 28  1  0
 17 18  1  1
 19 18  1  0
 20 19  2  0
 21 22  1  0
 21 20  1  0
 22 27  2  0
 23 24  2  0
 23 22  1  0
 24 25  1  0
 25 26  2  0
 27 26  1  0
 27 19  1  0
 28 30  2  0
 28 29  1  0
M  END
$$$$
