QCW.pdb
     RDKit          3D

 30 31  0  0  1  0  0  0  0  0999 V2000
    6.3142  -14.3495   16.7671 N   0  0  0  0  0  0  0  0  0  0  0  0
    7.5974  -13.7787   16.8842 C   0  0  0  0  0  0  0  0  0  0  0  0
    8.5039  -14.1164   16.0908 O   0  0  0  0  0  0  0  0  0  0  0  0
    7.8486  -12.7834   17.9520 C   0  0  0  0  0  0  0  0  0  0  0  0
    7.5909  -13.4350   19.3031 C   0  0  0  0  0  0  0  0  0  0  0  0
    8.8711  -13.9571   19.9058 C   0  0  2  0  0  0  0  0  0  0  0  0
    9.6180  -14.7589   18.9340 N   0  0  0  0  0  0  0  0  0  0  0  0
    8.6228  -14.7391   21.1442 C   0  0  0  0  0  0  0  0  0  0  0  0
    7.9342  -14.2883   22.0911 O   0  0  0  0  0  0  0  0  0  0  0  0
    9.1844  -16.0353   21.2545 N   0  0  0  0  0  0  0  0  0  0  0  0
    8.9530  -16.9407   22.3596 C   0  0  1  0  0  0  0  0  0  0  0  0
    9.2656  -18.3699   21.9650 C   0  0  0  0  0  0  0  0  0  0  0  0
    9.1630  -19.5195   23.3379 S   0  0  0  0  0  0  0  0  0  0  0  0
    9.7678  -16.4871   23.5060 C   0  0  0  0  0  0  0  0  0  0  0  0
   10.9917  -16.1475   23.3465 O   0  0  0  0  0  0  0  0  0  0  0  0
    9.2939  -16.3887   24.8362 N   0  0  0  0  0  0  0  0  0  0  0  0
   10.2310  -16.3148   25.9750 C   0  0  1  0  0  0  0  0  0  0  0  0
    9.7487  -15.1342   26.7783 C   0  0  0  0  0  0  0  0  0  0  0  0
    8.3801  -14.7518   26.3960 C   0  0  0  0  0  0  0  0  0  0  0  0
    7.3075  -15.6302   26.2310 C   0  0  0  0  0  0  0  0  0  0  0  0
    6.1862  -14.9854   25.9291 N   0  0  0  0  0  0  0  0  0  0  0  0
    6.5321  -13.6715   25.8959 C   0  0  0  0  0  0  0  0  0  0  0  0
    5.7161  -12.5822   25.6136 C   0  0  0  0  0  0  0  0  0  0  0  0
    6.2781  -11.3340   25.6213 C   0  0  0  0  0  0  0  0  0  0  0  0
    7.6163  -11.1660   25.9013 C   0  0  0  0  0  0  0  0  0  0  0  0
    8.4353  -12.2283   26.1820 C   0  0  0  0  0  0  0  0  0  0  0  0
    7.8706  -13.5038   26.1779 C   0  0  0  0  0  0  0  0  0  0  0  0
   10.3412  -17.5721   26.7063 C   0  0  0  0  0  0  0  0  0  0  0  0
   11.3483  -17.7262   27.6461 O   0  0  0  0  0  0  0  0  0  0  0  0
    9.5633  -18.5432   26.5261 O   0  0  0  0  0  0  0  0  0  0  0  0
  2  3  2  0
  2  1  1  0
  4  2  1  0
  5  4  1  0
  6  5  1  0
  6  7  1  6
  8 10  1  0
  8  6  1  0
  9  8  2  0
 11 14  1  0
 11 10  1  0
 11 12  1  6
 13 12  1  0
 14 15  2  0
 16 17  1  0
 16 14  1  0
 17 28  1  0
 17 18  1  1
 19 18  1  0
 20 19  2  0
 21 22  1  0
 21 20  1  0
 22 27  2  0
 23 24  2  0
 23 22  1  0
 24 25  1  0
 25 26  2  0
 27 26  1  0
 27 19  1  0
 28 30  2  0
 28 29  1  0
M  END
$$$$
