QCW.pdb
     RDKit          3D

 30 31  0  0  1  0  0  0  0  0999 V2000
   10.0142  -21.3722   16.2815 N   0  0  0  0  0  0  0  0  0  0  0  0
    9.1248  -20.3608   16.6964 C   0  0  0  0  0  0  0  0  0  0  0  0
    8.5153  -19.6789   15.8426 O   0  0  0  0  0  0  0  0  0  0  0  0
    8.9283  -20.1239   18.1452 C   0  0  0  0  0  0  0  0  0  0  0  0
    9.7420  -18.9065   18.5600 C   0  0  0  0  0  0  0  0  0  0  0  0
    9.5847  -18.6261   20.0336 C   0  0  2  0  0  0  0  0  0  0  0  0
    8.3015  -19.1302   20.5280 N   0  0  0  0  0  0  0  0  0  0  0  0
    9.7290  -17.1800   20.3417 C   0  0  0  0  0  0  0  0  0  0  0  0
   10.6944  -16.5005   19.9170 O   0  0  0  0  0  0  0  0  0  0  0  0
    8.7418  -16.5530   21.1416 N   0  0  0  0  0  0  0  0  0  0  0  0
    8.8003  -15.1796   21.5942 C   0  0  1  0  0  0  0  0  0  0  0  0
    7.4530  -14.5019   21.4478 C   0  0  0  0  0  0  0  0  0  0  0  0
    6.1198  -15.4038   22.2389 S   0  0  0  0  0  0  0  0  0  0  0  0
    9.2787  -15.1745   22.9924 C   0  0  0  0  0  0  0  0  0  0  0  0
    9.6163  -14.0807   23.5655 O   0  0  0  0  0  0  0  0  0  0  0  0
    9.4052  -16.3303   23.7997 N   0  0  0  0  0  0  0  0  0  0  0  0
   10.0566  -16.2670   25.1235 C   0  0  1  0  0  0  0  0  0  0  0  0
    8.9873  -16.7155   26.0865 C   0  0  0  0  0  0  0  0  0  0  0  0
    7.8334  -15.8027   26.0658 C   0  0  0  0  0  0  0  0  0  0  0  0
    6.5365  -16.1416   25.6752 C   0  0  0  0  0  0  0  0  0  0  0  0
    5.7001  -15.1185   25.8078 N   0  0  0  0  0  0  0  0  0  0  0  0
    6.4606  -14.1003   26.2894 C   0  0  0  0  0  0  0  0  0  0  0  0
    6.0582  -12.8044   26.5905 C   0  0  0  0  0  0  0  0  0  0  0  0
    6.9997  -11.9264   27.0557 C   0  0  0  0  0  0  0  0  0  0  0  0
    8.3096  -12.3201   27.2195 C   0  0  0  0  0  0  0  0  0  0  0  0
    8.7238  -13.5935   26.9281 C   0  0  0  0  0  0  0  0  0  0  0  0
    7.7706  -14.4952   26.4549 C   0  0  0  0  0  0  0  0  0  0  0  0
   11.3088  -17.0129   25.1800 C   0  0  0  0  0  0  0  0  0  0  0  0
   11.7461  -17.6940   24.0548 O   0  0  0  0  0  0  0  0  0  0  0  0
   12.0248  -17.0780   26.2114 O   0  0  0  0  0  0  0  0  0  0  0  0
  2  3  2  0
  2  1  1  0
  4  2  1  0
  5  4  1  0
  6  5  1  0
  6  7  1  6
  8 10  1  0
  8  6  1  0
  9  8  2  0
 11 14  1  0
 11 10  1  0
 11 12  1  1
 13 12  1  0
 14 15  2  0
 16 17  1  0
 16 14  1  0
 17 28  1  0
 17 18  1  1
 19 18  1  0
 20 19  2  0
 21 22  1  0
 21 20  1  0
 22 27  2  0
 23 24  2  0
 23 22  1  0
 24 25  1  0
 25 26  2  0
 27 26  1  0
 27 19  1  0
 28 30  2  0
 28 29  1  0
M  END
$$$$
