QCW.pdb
     RDKit          3D

 30 31  0  0  1  0  0  0  0  0999 V2000
    9.8545  -21.5447   16.7933 N   0  0  0  0  0  0  0  0  0  0  0  0
    9.9953  -20.1458   16.8898 C   0  0  0  0  0  0  0  0  0  0  0  0
   10.5854  -19.5155   15.9843 O   0  0  0  0  0  0  0  0  0  0  0  0
    9.4378  -19.4452   18.0696 C   0  0  0  0  0  0  0  0  0  0  0  0
   10.5659  -18.7227   18.7920 C   0  0  0  0  0  0  0  0  0  0  0  0
   10.2468  -18.5463   20.2555 C   0  0  2  0  0  0  0  0  0  0  0  0
    8.9164  -19.0730   20.5681 N   0  0  0  0  0  0  0  0  0  0  0  0
   10.3574  -17.1271   20.6803 C   0  0  0  0  0  0  0  0  0  0  0  0
   11.3434  -16.4141   20.3745 O   0  0  0  0  0  0  0  0  0  0  0  0
    9.3129  -16.5657   21.4559 N   0  0  0  0  0  0  0  0  0  0  0  0
    9.2855  -15.1996   21.9328 C   0  0  1  0  0  0  0  0  0  0  0  0
    7.9736  -14.5279   21.5808 C   0  0  0  0  0  0  0  0  0  0  0  0
    6.5693  -15.2206   22.4554 S   0  0  0  0  0  0  0  0  0  0  0  0
    9.5317  -15.2144   23.3898 C   0  0  0  0  0  0  0  0  0  0  0  0
    9.8049  -14.1338   24.0193 O   0  0  0  0  0  0  0  0  0  0  0  0
    9.4914  -16.3766   24.1970 N   0  0  0  0  0  0  0  0  0  0  0  0
   10.0797  -16.3839   25.5514 C   0  0  1  0  0  0  0  0  0  0  0  0
    8.9187  -16.6973   26.4601 C   0  0  0  0  0  0  0  0  0  0  0  0
    7.7851  -15.7932   26.2089 C   0  0  0  0  0  0  0  0  0  0  0  0
    6.5581  -16.1635   25.6552 C   0  0  0  0  0  0  0  0  0  0  0  0
    5.7167  -15.1376   25.5947 N   0  0  0  0  0  0  0  0  0  0  0  0
    6.4034  -14.0861   26.1141 C   0  0  0  0  0  0  0  0  0  0  0  0
    5.9678  -12.7749   26.2656 C   0  0  0  0  0  0  0  0  0  0  0  0
    6.8353  -11.8635   26.8048 C   0  0  0  0  0  0  0  0  0  0  0  0
    8.1047  -12.2393   27.1853 C   0  0  0  0  0  0  0  0  0  0  0  0
    8.5506  -13.5273   27.0437 C   0  0  0  0  0  0  0  0  0  0  0  0
    7.6727  -14.4630   26.4966 C   0  0  0  0  0  0  0  0  0  0  0  0
   11.2303  -17.2726   25.6694 C   0  0  0  0  0  0  0  0  0  0  0  0
   11.9066  -17.3528   26.8766 O   0  0  0  0  0  0  0  0  0  0  0  0
   11.6539  -17.9794   24.7199 O   0  0  0  0  0  0  0  0  0  0  0  0
  2  3  2  0
  2  1  1  0
  4  2  1  0
  5  4  1  0
  6  5  1  0
  6  7  1  6
  8 10  1  0
  8  6  1  0
  9  8  2  0
 11 14  1  0
 11 10  1  0
 11 12  1  1
 13 12  1  0
 14 15  2  0
 16 17  1  0
 16 14  1  0
 17 28  1  0
 17 18  1  1
 19 18  1  0
 20 19  2  0
 21 22  1  0
 21 20  1  0
 22 27  2  0
 23 24  2  0
 23 22  1  0
 24 25  1  0
 25 26  2  0
 27 26  1  0
 27 19  1  0
 28 30  2  0
 28 29  1  0
M  END
$$$$
