QCW.pdb
     RDKit          3D

 30 31  0  0  1  0  0  0  0  0999 V2000
    8.3934  -16.0146   15.8848 N   0  0  0  0  0  0  0  0  0  0  0  0
    8.2694  -14.6190   16.0366 C   0  0  0  0  0  0  0  0  0  0  0  0
    8.7881  -13.8526   15.1945 O   0  0  0  0  0  0  0  0  0  0  0  0
    7.5222  -14.0841   17.1982 C   0  0  0  0  0  0  0  0  0  0  0  0
    8.3877  -13.0530   17.9081 C   0  0  0  0  0  0  0  0  0  0  0  0
    9.2981  -13.7105   18.9149 C   0  0  2  0  0  0  0  0  0  0  0  0
   10.1467  -14.7175   18.2736 N   0  0  0  0  0  0  0  0  0  0  0  0
    8.5379  -14.3116   20.0408 C   0  0  0  0  0  0  0  0  0  0  0  0
    7.7158  -13.6498   20.7193 O   0  0  0  0  0  0  0  0  0  0  0  0
    8.7523  -15.6766   20.3545 N   0  0  0  0  0  0  0  0  0  0  0  0
    8.1344  -16.3727   21.4628 C   0  0  1  0  0  0  0  0  0  0  0  0
    7.7383  -17.7806   21.0665 C   0  0  0  0  0  0  0  0  0  0  0  0
    7.2598  -18.7987   22.4634 S   0  0  0  0  0  0  0  0  0  0  0  0
    9.0773  -16.3575   22.6005 C   0  0  0  0  0  0  0  0  0  0  0  0
   10.3329  -16.5223   22.4134 O   0  0  0  0  0  0  0  0  0  0  0  0
    8.6992  -16.1674   23.9514 N   0  0  0  0  0  0  0  0  0  0  0  0
    9.6977  -16.2293   25.0376 C   0  0  1  0  0  0  0  0  0  0  0  0
    9.5525  -14.9104   25.7527 C   0  0  0  0  0  0  0  0  0  0  0  0
    8.1361  -14.5627   25.9486 C   0  0  0  0  0  0  0  0  0  0  0  0
    7.0671  -15.4601   25.9134 C   0  0  0  0  0  0  0  0  0  0  0  0
    5.9116  -14.8583   26.1717 N   0  0  0  0  0  0  0  0  0  0  0  0
    6.2308  -13.5533   26.3767 C   0  0  0  0  0  0  0  0  0  0  0  0
    5.3711  -12.5016   26.6717 C   0  0  0  0  0  0  0  0  0  0  0  0
    5.9075  -11.2518   26.8267 C   0  0  0  0  0  0  0  0  0  0  0  0
    7.2628  -11.0457   26.6929 C   0  0  0  0  0  0  0  0  0  0  0  0
    8.1250  -12.0706   26.4027 C   0  0  0  0  0  0  0  0  0  0  0  0
    7.5873  -13.3479   26.2447 C   0  0  0  0  0  0  0  0  0  0  0  0
    9.5604  -17.4175   25.8725 C   0  0  0  0  0  0  0  0  0  0  0  0
   10.5387  -17.7059   26.8110 O   0  0  0  0  0  0  0  0  0  0  0  0
    8.5898  -18.2117   25.7843 O   0  0  0  0  0  0  0  0  0  0  0  0
  2  3  2  0
  2  1  1  0
  4  2  1  0
  5  4  1  0
  6  5  1  0
  6  7  1  6
  8 10  1  0
  8  6  1  0
  9  8  2  0
 11 14  1  0
 11 10  1  0
 11 12  1  6
 13 12  1  0
 14 15  2  0
 16 17  1  0
 16 14  1  0
 17 28  1  0
 17 18  1  1
 19 18  1  0
 20 19  2  0
 21 22  1  0
 21 20  1  0
 22 27  2  0
 23 24  2  0
 23 22  1  0
 24 25  1  0
 25 26  2  0
 27 26  1  0
 27 19  1  0
 28 30  2  0
 28 29  1  0
M  END
$$$$
