QCW.pdb
     RDKit          3D

 30 31  0  0  1  0  0  0  0  0999 V2000
   11.7477  -15.6352   16.5781 N   0  0  0  0  0  0  0  0  0  0  0  0
   11.4456  -16.8962   16.0262 C   0  0  0  0  0  0  0  0  0  0  0  0
   11.6725  -17.1166   14.8157 O   0  0  0  0  0  0  0  0  0  0  0  0
   10.8616  -17.9426   16.8967 C   0  0  0  0  0  0  0  0  0  0  0  0
   10.8284  -17.4295   18.3292 C   0  0  0  0  0  0  0  0  0  0  0  0
   10.1413  -18.4143   19.2417 C   0  0  2  0  0  0  0  0  0  0  0  0
    9.3409  -19.3698   18.4726 N   0  0  0  0  0  0  0  0  0  0  0  0
    9.3015  -17.7338   20.2608 C   0  0  0  0  0  0  0  0  0  0  0  0
    8.7895  -16.6064   20.0586 O   0  0  0  0  0  0  0  0  0  0  0  0
    9.0748  -18.3833   21.4995 N   0  0  0  0  0  0  0  0  0  0  0  0
    8.2882  -17.8354   22.5837 C   0  0  1  0  0  0  0  0  0  0  0  0
    7.0336  -18.6539   22.8119 C   0  0  0  0  0  0  0  0  0  0  0  0
    7.1733  -19.7890   24.1936 S   0  0  0  0  0  0  0  0  0  0  0  0
    9.1420  -17.7748   23.7883 C   0  0  0  0  0  0  0  0  0  0  0  0
    9.4771  -18.8433   24.4084 O   0  0  0  0  0  0  0  0  0  0  0  0
    9.6506  -16.5791   24.3501 N   0  0  0  0  0  0  0  0  0  0  0  0
    9.8008  -16.4280   25.8114 C   0  0  1  0  0  0  0  0  0  0  0  0
    8.3910  -16.4992   26.3400 C   0  0  0  0  0  0  0  0  0  0  0  0
    7.5731  -15.3873   25.8301 C   0  0  0  0  0  0  0  0  0  0  0  0
    6.5896  -15.4879   24.8443 C   0  0  0  0  0  0  0  0  0  0  0  0
    5.9894  -14.3230   24.6281 N   0  0  0  0  0  0  0  0  0  0  0  0
    6.5891  -13.4525   25.4823 C   0  0  0  0  0  0  0  0  0  0  0  0
    6.3280  -12.0964   25.6398 C   0  0  0  0  0  0  0  0  0  0  0  0
    7.0662  -11.3979   26.5569 C   0  0  0  0  0  0  0  0  0  0  0  0
    8.0406  -12.0253   27.3014 C   0  0  0  0  0  0  0  0  0  0  0  0
    8.3112  -13.3612   27.1595 C   0  0  0  0  0  0  0  0  0  0  0  0
    7.5627  -14.0811   26.2283 C   0  0  0  0  0  0  0  0  0  0  0  0
   10.7401  -17.3819   26.3906 C   0  0  0  0  0  0  0  0  0  0  0  0
   11.0631  -17.2872   27.7352 O   0  0  0  0  0  0  0  0  0  0  0  0
   11.2867  -18.2988   25.7265 O   0  0  0  0  0  0  0  0  0  0  0  0
  2  3  2  0
  2  1  1  0
  4  2  1  0
  5  4  1  0
  6  5  1  0
  6  7  1  6
  8 10  1  0
  8  6  1  0
  9  8  2  0
 11 14  1  0
 11 10  1  0
 11 12  1  1
 13 12  1  0
 14 15  2  0
 16 17  1  0
 16 14  1  0
 17 28  1  0
 17 18  1  1
 19 18  1  0
 20 19  2  0
 21 22  1  0
 21 20  1  0
 22 27  2  0
 23 24  2  0
 23 22  1  0
 24 25  1  0
 25 26  2  0
 27 26  1  0
 27 19  1  0
 28 30  2  0
 28 29  1  0
M  END
$$$$
