QCW.pdb
     RDKit          3D

 30 31  0  0  1  0  0  0  0  0999 V2000
    6.8472  -15.6687   16.6691 N   0  0  0  0  0  0  0  0  0  0  0  0
    7.4901  -14.5675   16.0690 C   0  0  0  0  0  0  0  0  0  0  0  0
    7.6445  -14.5373   14.8277 O   0  0  0  0  0  0  0  0  0  0  0  0
    7.9733  -13.4603   16.9260 C   0  0  0  0  0  0  0  0  0  0  0  0
    7.6287  -13.7728   18.3751 C   0  0  0  0  0  0  0  0  0  0  0  0
    8.8296  -13.5898   19.2691 C   0  0  2  0  0  0  0  0  0  0  0  0
   10.0576  -13.4766   18.4790 N   0  0  0  0  0  0  0  0  0  0  0  0
    8.9513  -14.6848   20.2657 C   0  0  0  0  0  0  0  0  0  0  0  0
    8.0034  -15.0072   21.0217 O   0  0  0  0  0  0  0  0  0  0  0  0
   10.1799  -15.3841   20.3615 N   0  0  0  0  0  0  0  0  0  0  0  0
   10.4267  -16.4945   21.2563 C   0  0  1  0  0  0  0  0  0  0  0  0
   11.4971  -17.4118   20.7007 C   0  0  0  0  0  0  0  0  0  0  0  0
   11.0810  -18.0891   19.0929 S   0  0  0  0  0  0  0  0  0  0  0  0
   10.7918  -15.9481   22.5799 C   0  0  0  0  0  0  0  0  0  0  0  0
   11.4033  -14.8279   22.6804 O   0  0  0  0  0  0  0  0  0  0  0  0
   10.5127  -16.5838   23.8135 N   0  0  0  0  0  0  0  0  0  0  0  0
    9.6765  -15.9258   24.8373 C   0  0  1  0  0  0  0  0  0  0  0  0
    8.4718  -15.4355   24.0755 C   0  0  0  0  0  0  0  0  0  0  0  0
    7.4662  -14.8581   24.9814 C   0  0  0  0  0  0  0  0  0  0  0  0
    6.3333  -15.5168   25.4629 C   0  0  0  0  0  0  0  0  0  0  0  0
    5.6389  -14.7532   26.2989 N   0  0  0  0  0  0  0  0  0  0  0  0
    6.3266  -13.5827   26.3624 C   0  0  0  0  0  0  0  0  0  0  0  0
    6.0083  -12.4458   27.0961 C   0  0  0  0  0  0  0  0  0  0  0  0
    6.8400  -11.3625   27.0035 C   0  0  0  0  0  0  0  0  0  0  0  0
    7.9607  -11.4016   26.2036 C   0  0  0  0  0  0  0  0  0  0  0  0
    8.2900  -12.5138   25.4739 C   0  0  0  0  0  0  0  0  0  0  0  0
    7.4489  -13.6229   25.5635 C   0  0  0  0  0  0  0  0  0  0  0  0
    9.3921  -16.7852   25.9811 C   0  0  0  0  0  0  0  0  0  0  0  0
    9.1616  -18.1365   25.7757 O   0  0  0  0  0  0  0  0  0  0  0  0
    9.3388  -16.3614   27.1635 O   0  0  0  0  0  0  0  0  0  0  0  0
  2  3  2  0
  2  1  1  0
  4  2  1  0
  5  4  1  0
  6  5  1  0
  6  7  1  6
  8 10  1  0
  8  6  1  0
  9  8  2  0
 11 14  1  0
 11 10  1  0
 11 12  1  6
 13 12  1  0
 14 15  2  0
 16 17  1  0
 16 14  1  0
 17 28  1  0
 17 18  1  6
 19 18  1  0
 20 19  2  0
 21 22  1  0
 21 20  1  0
 22 27  2  0
 23 24  2  0
 23 22  1  0
 24 25  1  0
 25 26  2  0
 27 26  1  0
 27 19  1  0
 28 30  2  0
 28 29  1  0
M  END
$$$$
