IGK.pdb
     RDKit          3D

 22 21  0  0  1  0  0  0  0  0999 V2000
   26.0476  -14.6500  -20.1783 C   0  0  0  0  0  0  0  0  0  0  0  0
   25.7021  -14.4571  -18.7432 C   0  0  0  0  0  0  0  0  0  0  0  0
   25.3612  -13.0761  -18.3174 C   0  0  2  0  0  0  0  0  0  0  0  0
   26.6608  -12.2561  -18.4606 C   0  0  0  0  0  0  0  0  0  0  0  0
   24.8504  -12.9253  -16.9192 C   0  0  2  0  0  0  0  0  0  0  0  0
   23.6393  -13.7219  -16.6992 N   0  0  0  0  0  0  0  0  0  0  0  0
   24.6531  -11.5400  -16.4628 C   0  0  0  0  0  0  0  0  0  0  0  0
   25.6440  -10.7870  -16.2966 O   0  0  0  0  0  0  0  0  0  0  0  0
   23.3489  -11.0218  -16.1992 N   0  0  0  0  0  0  0  0  0  0  0  0
   23.2364   -9.6767  -15.6861 C   0  0  0  0  0  0  0  0  0  0  0  0
   21.8005   -9.3210  -15.4771 C   0  0  0  0  0  0  0  0  0  0  0  0
   20.8685  -10.0230  -15.9609 O   0  0  0  0  0  0  0  0  0  0  0  0
   21.4157   -8.1789  -14.7260 N   0  0  0  0  0  0  0  0  0  0  0  0
   20.0222   -7.7981  -14.5115 C   0  0  1  0  0  0  0  0  0  0  0  0
   19.6540   -8.2070  -13.1318 C   0  0  0  0  0  0  0  0  0  0  0  0
   18.2460   -8.0029  -12.7198 C   0  0  0  0  0  0  0  0  0  0  0  0
   17.8740   -8.4676  -11.3464 C   0  0  0  0  0  0  0  0  0  0  0  0
   16.4552   -8.0417  -10.9720 C   0  0  0  0  0  0  0  0  0  0  0  0
   16.2524   -8.5297   -9.6073 N   0  0  0  0  0  0  0  0  0  0  0  0
   19.7431   -6.4366  -14.9275 C   0  0  0  0  0  0  0  0  0  0  0  0
   18.6121   -5.9632  -15.1718 O   0  0  0  0  0  0  0  0  0  0  0  0
   20.8071   -5.5233  -15.0873 O   0  0  0  0  0  0  0  0  0  0  0  0
  2  1  1  0
  2  3  1  0
  3  4  1  1
  5  3  1  0
  5  7  1  0
  5  6  1  6
  7  9  1  0
  8  7  2  0
  9 10  1  0
 11 13  1  0
 11 10  1  0
 12 11  2  0
 14 13  1  0
 14 15  1  1
 15 16  1  0
 17 16  1  0
 17 18  1  0
 19 18  1  0
 20 14  1  0
 21 20  2  0
 22 20  1  0
M  END
$$$$
