IGK.pdb
     RDKit          3D

 22 21  0  0  1  0  0  0  0  0999 V2000
   11.8085  -13.7949  -12.2146 C   0  0  0  0  0  0  0  0  0  0  0  0
   12.8602  -12.7907  -12.5331 C   0  0  0  0  0  0  0  0  0  0  0  0
   13.2686  -11.8790  -11.4345 C   0  0  2  0  0  0  0  0  0  0  0  0
   11.9777  -11.1731  -10.9683 C   0  0  0  0  0  0  0  0  0  0  0  0
   14.2844  -10.8382  -11.7858 C   0  0  2  0  0  0  0  0  0  0  0  0
   15.5214  -11.4417  -12.2916 N   0  0  0  0  0  0  0  0  0  0  0  0
   14.5776   -9.8569  -10.7288 C   0  0  0  0  0  0  0  0  0  0  0  0
   13.6369   -9.2932  -10.1175 O   0  0  0  0  0  0  0  0  0  0  0  0
   15.9200   -9.5226  -10.3752 N   0  0  0  0  0  0  0  0  0  0  0  0
   16.1316   -8.5613   -9.3186 C   0  0  0  0  0  0  0  0  0  0  0  0
   15.8330   -7.1813   -9.8070 C   0  0  0  0  0  0  0  0  0  0  0  0
   15.5698   -6.9524  -11.0212 O   0  0  0  0  0  0  0  0  0  0  0  0
   15.8307   -6.0633   -8.9315 N   0  0  0  0  0  0  0  0  0  0  0  0
   15.5745   -4.6980   -9.3823 C   0  0  1  0  0  0  0  0  0  0  0  0
   14.8107   -4.0090   -8.3108 C   0  0  0  0  0  0  0  0  0  0  0  0
   13.6232   -4.7101   -7.7701 C   0  0  0  0  0  0  0  0  0  0  0  0
   12.8155   -3.9727   -6.7482 C   0  0  0  0  0  0  0  0  0  0  0  0
   11.5033   -4.6923   -6.4401 C   0  0  0  0  0  0  0  0  0  0  0  0
   10.8708   -3.9062   -5.3799 N   0  0  0  0  0  0  0  0  0  0  0  0
   16.7601   -4.0513   -9.9124 C   0  0  0  0  0  0  0  0  0  0  0  0
   17.9423   -4.3596   -9.6473 O   0  0  0  0  0  0  0  0  0  0  0  0
   16.6239   -2.9716  -10.8110 O   0  0  0  0  0  0  0  0  0  0  0  0
  2  1  1  0
  2  3  1  0
  3  4  1  6
  5  3  1  0
  5  7  1  0
  5  6  1  1
  7  9  1  0
  8  7  2  0
  9 10  1  0
 11 13  1  0
 11 10  1  0
 12 11  2  0
 14 13  1  0
 14 15  1  1
 15 16  1  0
 17 16  1  0
 17 18  1  0
 19 18  1  0
 20 14  1  0
 21 20  2  0
 22 20  1  0
M  END
$$$$
