IGK.pdb
     RDKit          3D

 22 21  0  0  1  0  0  0  0  0999 V2000
   28.6677  -21.2644  -13.4754 C   0  0  0  0  0  0  0  0  0  0  0  0
   27.5562  -21.5336  -12.5224 C   0  0  0  0  0  0  0  0  0  0  0  0
   26.2495  -20.8950  -12.8218 C   0  0  2  0  0  0  0  0  0  0  0  0
   26.1924  -19.6205  -11.9534 C   0  0  0  0  0  0  0  0  0  0  0  0
   25.0336  -21.7208  -12.5423 C   0  0  2  0  0  0  0  0  0  0  0  0
   25.1213  -23.0405  -13.1754 N   0  0  0  0  0  0  0  0  0  0  0  0
   23.7463  -21.0783  -12.8529 C   0  0  0  0  0  0  0  0  0  0  0  0
   23.3873  -20.9378  -14.0478 O   0  0  0  0  0  0  0  0  0  0  0  0
   22.8833  -20.6028  -11.8194 N   0  0  0  0  0  0  0  0  0  0  0  0
   21.6394  -19.9756  -12.1994 C   0  0  0  0  0  0  0  0  0  0  0  0
   20.6901  -20.9944  -12.7405 C   0  0  0  0  0  0  0  0  0  0  0  0
   20.8015  -21.4431  -13.9161 O   0  0  0  0  0  0  0  0  0  0  0  0
   19.6193  -21.5060  -11.9607 N   0  0  0  0  0  0  0  0  0  0  0  0
   18.6940  -22.5254  -12.4480 C   0  0  1  0  0  0  0  0  0  0  0  0
   18.7023  -23.6421  -11.4685 C   0  0  0  0  0  0  0  0  0  0  0  0
   18.7413  -23.2807  -10.0326 C   0  0  0  0  0  0  0  0  0  0  0  0
   18.9358  -24.4039   -9.0625 C   0  0  0  0  0  0  0  0  0  0  0  0
   18.8781  -23.9158   -7.6157 C   0  0  0  0  0  0  0  0  0  0  0  0
   19.0571  -25.1148   -6.7957 N   0  0  0  0  0  0  0  0  0  0  0  0
   17.4164  -21.9729  -12.8569 C   0  0  0  0  0  0  0  0  0  0  0  0
   16.5423  -22.5668  -13.5247 O   0  0  0  0  0  0  0  0  0  0  0  0
   17.0799  -20.6506  -12.4961 O   0  0  0  0  0  0  0  0  0  0  0  0
  2  1  1  0
  2  3  1  0
  3  4  1  1
  5  3  1  0
  5  7  1  0
  5  6  1  6
  7  9  1  0
  8  7  2  0
  9 10  1  0
 11 13  1  0
 11 10  1  0
 12 11  2  0
 14 13  1  0
 14 15  1  1
 15 16  1  0
 17 16  1  0
 17 18  1  0
 19 18  1  0
 20 14  1  0
 21 20  2  0
 22 20  1  0
M  END
$$$$
