IGK.pdb
     RDKit          3D

 22 21  0  0  1  0  0  0  0  0999 V2000
   19.6322  -24.8034   -9.7979 C   0  0  0  0  0  0  0  0  0  0  0  0
   18.8087  -25.7868   -9.0425 C   0  0  0  0  0  0  0  0  0  0  0  0
   17.6512  -25.2474   -8.2848 C   0  0  2  0  0  0  0  0  0  0  0  0
   17.2927  -23.9058   -8.9580 C   0  0  0  0  0  0  0  0  0  0  0  0
   17.8741  -25.0072   -6.8249 C   0  0  2  0  0  0  0  0  0  0  0  0
   18.2653  -26.2376   -6.1299 N   0  0  0  0  0  0  0  0  0  0  0  0
   16.7709  -24.3373   -6.1175 C   0  0  0  0  0  0  0  0  0  0  0  0
   16.4072  -23.1878   -6.4677 O   0  0  0  0  0  0  0  0  0  0  0  0
   16.0944  -24.9662   -5.0286 N   0  0  0  0  0  0  0  0  0  0  0  0
   15.0906  -24.2105   -4.3167 C   0  0  0  0  0  0  0  0  0  0  0  0
   15.3853  -24.2096   -2.8521 C   0  0  0  0  0  0  0  0  0  0  0  0
   16.3246  -24.9007   -2.3665 O   0  0  0  0  0  0  0  0  0  0  0  0
   14.6251  -23.4334   -1.9378 N   0  0  0  0  0  0  0  0  0  0  0  0
   14.8841  -23.4140   -0.5006 C   0  0  1  0  0  0  0  0  0  0  0  0
   14.8142  -21.9995   -0.0525 C   0  0  0  0  0  0  0  0  0  0  0  0
   15.2990  -21.6992    1.3145 C   0  0  0  0  0  0  0  0  0  0  0  0
   15.0791  -20.3054    1.8139 C   0  0  0  0  0  0  0  0  0  0  0  0
   15.5565  -20.1412    3.2561 C   0  0  0  0  0  0  0  0  0  0  0  0
   15.3796  -18.7211    3.5627 N   0  0  0  0  0  0  0  0  0  0  0  0
   14.1119  -24.4076    0.2213 C   0  0  0  0  0  0  0  0  0  0  0  0
   12.9858  -24.8396   -0.1072 O   0  0  0  0  0  0  0  0  0  0  0  0
   14.6311  -24.9688    1.4076 O   0  0  0  0  0  0  0  0  0  0  0  0
  2  1  1  0
  2  3  1  0
  3  4  1  6
  5  3  1  0
  5  7  1  0
  5  6  1  1
  7  9  1  0
  8  7  2  0
  9 10  1  0
 11 13  1  0
 11 10  1  0
 12 11  2  0
 14 13  1  0
 14 15  1  1
 15 16  1  0
 17 16  1  0
 17 18  1  0
 19 18  1  0
 20 14  1  0
 21 20  2  0
 22 20  1  0
M  END
$$$$
