IGK.pdb
     RDKit          3D

 22 21  0  0  1  0  0  0  0  0999 V2000
   32.2692  -21.3319   -9.8605 C   0  0  0  0  0  0  0  0  0  0  0  0
   31.5342  -21.3534  -11.1549 C   0  0  0  0  0  0  0  0  0  0  0  0
   30.1288  -21.8312  -11.1178 C   0  0  2  0  0  0  0  0  0  0  0  0
   30.1251  -23.1921  -11.8456 C   0  0  0  0  0  0  0  0  0  0  0  0
   29.1133  -20.9404  -11.7611 C   0  0  2  0  0  0  0  0  0  0  0  0
   29.1988  -19.5688  -11.2499 N   0  0  0  0  0  0  0  0  0  0  0  0
   27.7251  -21.4274  -11.7172 C   0  0  0  0  0  0  0  0  0  0  0  0
   27.4164  -22.4963  -12.2992 O   0  0  0  0  0  0  0  0  0  0  0  0
   26.7055  -20.7079  -11.0231 N   0  0  0  0  0  0  0  0  0  0  0  0
   25.3900  -21.2967  -10.9345 C   0  0  0  0  0  0  0  0  0  0  0  0
   24.4221  -20.5303  -11.7758 C   0  0  0  0  0  0  0  0  0  0  0  0
   24.3959  -19.2673  -11.7688 O   0  0  0  0  0  0  0  0  0  0  0  0
   23.4872  -21.1836  -12.6218 N   0  0  0  0  0  0  0  0  0  0  0  0
   22.5378  -20.4640  -13.4667 C   0  0  1  0  0  0  0  0  0  0  0  0
   22.5705  -21.0927  -14.8121 C   0  0  0  0  0  0  0  0  0  0  0  0
   21.7095  -20.4942  -15.8584 C   0  0  0  0  0  0  0  0  0  0  0  0
   21.6162  -21.2348  -17.1558 C   0  0  0  0  0  0  0  0  0  0  0  0
   20.6917  -20.5260  -18.1444 C   0  0  0  0  0  0  0  0  0  0  0  0
   20.7313  -21.3380  -19.3614 N   0  0  0  0  0  0  0  0  0  0  0  0
   21.2515  -20.2701  -12.8244 C   0  0  0  0  0  0  0  0  0  0  0  0
   20.4996  -19.2828  -12.9751 O   0  0  0  0  0  0  0  0  0  0  0  0
   20.7575  -21.2528  -11.9399 O   0  0  0  0  0  0  0  0  0  0  0  0
  2  1  1  0
  2  3  1  0
  3  4  1  6
  5  3  1  0
  5  7  1  0
  5  6  1  1
  7  9  1  0
  8  7  2  0
  9 10  1  0
 11 13  1  0
 11 10  1  0
 12 11  2  0
 14 13  1  0
 14 15  1  6
 15 16  1  0
 17 16  1  0
 17 18  1  0
 19 18  1  0
 20 14  1  0
 21 20  2  0
 22 20  1  0
M  END
$$$$
