IGK.pdb
     RDKit          3D

 22 21  0  0  1  0  0  0  0  0999 V2000
   27.9958  -16.7270  -17.0063 C   0  0  0  0  0  0  0  0  0  0  0  0
   26.5824  -16.2634  -17.0639 C   0  0  0  0  0  0  0  0  0  0  0  0
   26.1869  -15.2030  -16.1027 C   0  0  2  0  0  0  0  0  0  0  0  0
   26.3637  -15.8176  -14.6981 C   0  0  0  0  0  0  0  0  0  0  0  0
   24.7877  -14.6886  -16.2286 C   0  0  2  0  0  0  0  0  0  0  0  0
   24.4602  -14.3521  -17.6177 N   0  0  0  0  0  0  0  0  0  0  0  0
   24.4370  -13.5792  -15.3272 C   0  0  0  0  0  0  0  0  0  0  0  0
   24.5872  -13.7068  -14.0872 O   0  0  0  0  0  0  0  0  0  0  0  0
   23.9228  -12.3456  -15.8301 N   0  0  0  0  0  0  0  0  0  0  0  0
   23.6773  -11.2731  -14.8950 C   0  0  0  0  0  0  0  0  0  0  0  0
   23.0315  -10.1186  -15.5894 C   0  0  0  0  0  0  0  0  0  0  0  0
   23.3238   -9.8163  -16.7806 O   0  0  0  0  0  0  0  0  0  0  0  0
   22.0602   -9.3077  -14.9448 N   0  0  0  0  0  0  0  0  0  0  0  0
   21.3650   -8.2118  -15.6146 C   0  0  1  0  0  0  0  0  0  0  0  0
   20.0785   -8.7466  -16.1297 C   0  0  0  0  0  0  0  0  0  0  0  0
   19.3211   -7.8920  -17.0731 C   0  0  0  0  0  0  0  0  0  0  0  0
   17.9898   -8.4063  -17.5246 C   0  0  0  0  0  0  0  0  0  0  0  0
   17.3121   -7.4407  -18.4956 C   0  0  0  0  0  0  0  0  0  0  0  0
   15.9633   -7.9736  -18.6925 N   0  0  0  0  0  0  0  0  0  0  0  0
   21.3418   -6.9961  -14.8231 C   0  0  0  0  0  0  0  0  0  0  0  0
   21.3925   -6.9341  -13.5755 O   0  0  0  0  0  0  0  0  0  0  0  0
   21.2541   -5.7442  -15.4686 O   0  0  0  0  0  0  0  0  0  0  0  0
  2  1  1  0
  2  3  1  0
  3  4  1  1
  5  3  1  0
  5  7  1  0
  5  6  1  6
  7  9  1  0
  8  7  2  0
  9 10  1  0
 11 13  1  0
 11 10  1  0
 12 11  2  0
 14 13  1  0
 14 15  1  1
 15 16  1  0
 17 16  1  0
 17 18  1  0
 19 18  1  0
 20 14  1  0
 21 20  2  0
 22 20  1  0
M  END
$$$$
