IGK.pdb
     RDKit          3D

 22 21  0  0  1  0  0  0  0  0999 V2000
   24.3369  -20.3712   -9.2168 C   0  0  0  0  0  0  0  0  0  0  0  0
   24.5502  -20.5553  -10.6785 C   0  0  0  0  0  0  0  0  0  0  0  0
   25.7106  -21.3876  -11.0852 C   0  0  2  0  0  0  0  0  0  0  0  0
   26.9525  -20.7157  -10.4623 C   0  0  0  0  0  0  0  0  0  0  0  0
   25.9322  -21.5339  -12.5577 C   0  0  2  0  0  0  0  0  0  0  0  0
   26.1233  -20.2326  -13.2058 N   0  0  0  0  0  0  0  0  0  0  0  0
   24.9225  -22.3297  -13.2742 C   0  0  0  0  0  0  0  0  0  0  0  0
   25.0310  -23.5794  -13.3282 O   0  0  0  0  0  0  0  0  0  0  0  0
   23.8085  -21.7119  -13.9194 N   0  0  0  0  0  0  0  0  0  0  0  0
   22.8169  -22.5604  -14.5374 C   0  0  0  0  0  0  0  0  0  0  0  0
   21.4477  -22.0091  -14.3067 C   0  0  0  0  0  0  0  0  0  0  0  0
   21.2611  -20.7840  -14.0617 O   0  0  0  0  0  0  0  0  0  0  0  0
   20.2929  -22.8343  -14.3519 N   0  0  0  0  0  0  0  0  0  0  0  0
   18.9390  -22.3224  -14.1569 C   0  0  1  0  0  0  0  0  0  0  0  0
   17.9933  -23.3778  -14.6022 C   0  0  0  0  0  0  0  0  0  0  0  0
   16.5515  -23.0386  -14.5973 C   0  0  0  0  0  0  0  0  0  0  0  0
   15.6086  -24.1073  -15.0549 C   0  0  0  0  0  0  0  0  0  0  0  0
   14.1681  -23.6012  -15.1131 C   0  0  0  0  0  0  0  0  0  0  0  0
   13.3917  -24.7084  -15.6728 N   0  0  0  0  0  0  0  0  0  0  0  0
   18.7476  -21.7296  -12.8467 C   0  0  0  0  0  0  0  0  0  0  0  0
   19.1956  -22.1767  -11.7686 O   0  0  0  0  0  0  0  0  0  0  0  0
   17.9954  -20.5421  -12.7207 O   0  0  0  0  0  0  0  0  0  0  0  0
  2  1  1  0
  2  3  1  0
  3  4  1  1
  5  3  1  0
  5  7  1  0
  5  6  1  6
  7  9  1  0
  8  7  2  0
  9 10  1  0
 11 13  1  0
 11 10  1  0
 12 11  2  0
 14 13  1  0
 14 15  1  1
 15 16  1  0
 17 16  1  0
 17 18  1  0
 19 18  1  0
 20 14  1  0
 21 20  2  0
 22 20  1  0
M  END
$$$$
