QMR.pdb
     RDKit          3D

 29 28  0  0  1  0  0  0  0  0999 V2000
   28.5167  -22.0465  -16.3509 N   0  0  0  0  0  0  0  0  0  0  0  0
   28.5532  -20.6466  -16.5340 C   0  0  0  0  0  0  0  0  0  0  0  0
   28.7151  -20.1855  -17.6822 O   0  0  0  0  0  0  0  0  0  0  0  0
   28.4041  -19.7204  -15.3979 C   0  0  0  0  0  0  0  0  0  0  0  0
   28.2263  -20.4468  -14.0732 C   0  0  0  0  0  0  0  0  0  0  0  0
   26.8805  -20.0088  -13.5430 C   0  0  2  0  0  0  0  0  0  0  0  0
   26.8362  -18.6159  -13.2298 N   0  0  0  0  0  0  0  0  0  0  0  0
   26.5224  -20.7583  -12.2974 C   0  0  0  0  0  0  0  0  0  0  0  0
   26.5738  -22.0180  -12.2191 O   0  0  0  0  0  0  0  0  0  0  0  0
   26.7530  -20.1771   -4.5542 C   0  0  0  0  0  0  0  0  0  0  0  0
   27.0134  -19.4440   -6.1930 S   0  0  0  0  0  0  0  0  0  0  0  0
   26.0431  -20.3868   -7.4297 C   0  0  0  0  0  0  0  0  0  0  0  0
   26.3510  -19.8217   -8.7889 C   0  0  0  0  0  0  0  0  0  0  0  0
   25.7004  -20.6241   -9.8970 C   0  0  2  0  0  0  0  0  0  0  0  0
   26.1060  -20.0355  -11.1503 N   0  0  0  0  0  0  0  0  0  0  0  0
   24.2202  -20.6440   -9.7487 C   0  0  0  0  0  0  0  0  0  0  0  0
   23.6033  -19.5588   -9.8032 O   0  0  0  0  0  0  0  0  0  0  0  0
   17.1919  -23.3056   -7.1149 N   0  0  0  0  0  0  0  0  0  0  0  0
   18.0164  -24.4067   -6.7506 C   0  0  0  0  0  0  0  0  0  0  0  0
   17.5970  -25.6438   -6.7754 N   0  0  0  0  0  0  0  0  0  0  0  0
   19.3741  -24.2292   -6.3300 N   0  0  0  0  0  0  0  0  0  0  0  0
   19.9875  -22.9149   -6.2843 C   0  0  0  0  0  0  0  0  0  0  0  0
   20.2731  -22.5576   -7.7685 C   0  0  0  0  0  0  0  0  0  0  0  0
   21.7302  -22.3432   -7.9747 C   0  0  0  0  0  0  0  0  0  0  0  0
   22.0700  -21.9582   -9.3650 C   0  0  2  0  0  0  0  0  0  0  0  0
   23.5200  -21.8507   -9.5512 N   0  0  0  0  0  0  0  0  0  0  0  0
   21.3490  -20.8057   -9.9368 C   0  0  0  0  0  0  0  0  0  0  0  0
   21.6417  -19.6482   -9.5609 O   0  0  0  0  0  0  0  0  0  0  0  0
   20.3560  -20.9238  -10.8710 O   0  0  0  0  0  0  0  0  0  0  0  0
  1  2  1  0
  2  3  2  0
  4  5  1  0
  4  2  1  0
  6  7  1  1
  6  5  1  0
  8  6  1  0
  9  8  2  0
 11 10  1  0
 11 12  1  0
 12 13  1  0
 14 13  1  1
 14 15  1  0
 15  8  1  0
 16 17  2  0
 16 14  1  0
 18 19  1  0
 19 21  1  0
 20 19  2  0
 21 22  1  0
 22 23  1  0
 23 24  1  0
 25 24  1  1
 25 26  1  0
 26 16  1  0
 27 25  1  0
 28 27  2  0
 29 27  1  0
M  END
$$$$
