QMR.pdb
     RDKit          3D

 29 28  0  0  1  0  0  0  0  0999 V2000
   27.7715  -19.3194  -18.2843 N   0  0  0  0  0  0  0  0  0  0  0  0
   28.2437  -18.1056  -17.7383 C   0  0  0  0  0  0  0  0  0  0  0  0
   28.8094  -17.2804  -18.4840 O   0  0  0  0  0  0  0  0  0  0  0  0
   28.0821  -17.7940  -16.3074 C   0  0  0  0  0  0  0  0  0  0  0  0
   27.3693  -18.9020  -15.5466 C   0  0  0  0  0  0  0  0  0  0  0  0
   28.2943  -19.2817  -14.4133 C   0  0  2  0  0  0  0  0  0  0  0  0
   29.4853  -19.9281  -14.8646 N   0  0  0  0  0  0  0  0  0  0  0  0
   27.6177  -20.2110  -13.4542 C   0  0  0  0  0  0  0  0  0  0  0  0
   28.2526  -21.0381  -12.7409 O   0  0  0  0  0  0  0  0  0  0  0  0
   27.5565  -19.6491   -8.2537 C   0  0  0  0  0  0  0  0  0  0  0  0
   25.7448  -19.5747   -8.3099 S   0  0  0  0  0  0  0  0  0  0  0  0
   25.1532  -20.5231   -9.7624 C   0  0  0  0  0  0  0  0  0  0  0  0
   25.8640  -19.9984  -10.9793 C   0  0  0  0  0  0  0  0  0  0  0  0
   25.4480  -20.7308  -12.2386 C   0  0  2  0  0  0  0  0  0  0  0  0
   26.2052  -20.1718  -13.3321 N   0  0  0  0  0  0  0  0  0  0  0  0
   23.9821  -20.6186  -12.4665 C   0  0  0  0  0  0  0  0  0  0  0  0
   23.4706  -19.4788  -12.4913 O   0  0  0  0  0  0  0  0  0  0  0  0
   21.9600  -27.9326  -12.2251 N   0  0  0  0  0  0  0  0  0  0  0  0
   20.9459  -27.2668  -12.9689 C   0  0  0  0  0  0  0  0  0  0  0  0
   19.8054  -27.8281  -13.2707 N   0  0  0  0  0  0  0  0  0  0  0  0
   21.1101  -25.9236  -13.4388 N   0  0  0  0  0  0  0  0  0  0  0  0
   22.4136  -25.2869  -13.4730 C   0  0  0  0  0  0  0  0  0  0  0  0
   22.1587  -23.8929  -14.1085 C   0  0  0  0  0  0  0  0  0  0  0  0
   21.2357  -23.0992  -13.2542 C   0  0  0  0  0  0  0  0  0  0  0  0
   21.7457  -21.7405  -12.9538 C   0  0  2  0  0  0  0  0  0  0  0  0
   23.1799  -21.7620  -12.6513 N   0  0  0  0  0  0  0  0  0  0  0  0
   20.9837  -20.9389  -11.9782 C   0  0  0  0  0  0  0  0  0  0  0  0
   21.3902  -20.8570  -10.7972 O   0  0  0  0  0  0  0  0  0  0  0  0
   19.8330  -20.2661  -12.2880 O   0  0  0  0  0  0  0  0  0  0  0  0
  1  2  1  0
  2  3  2  0
  4  5  1  0
  4  2  1  0
  6  7  1  6
  6  5  1  0
  8  6  1  0
  9  8  2  0
 11 10  1  0
 11 12  1  0
 12 13  1  0
 14 13  1  1
 14 15  1  0
 15  8  1  0
 16 17  2  0
 16 14  1  0
 18 19  1  0
 19 21  1  0
 20 19  2  0
 21 22  1  0
 22 23  1  0
 23 24  1  0
 25 24  1  1
 25 26  1  0
 26 16  1  0
 27 25  1  0
 28 27  2  0
 29 27  1  0
M  END
$$$$
