QMR.pdb
     RDKit          3D

 29 28  0  0  1  0  0  0  0  0999 V2000
   26.4305  -18.9755  -17.0024 N   0  0  0  0  0  0  0  0  0  0  0  0
   27.6818  -18.4381  -16.6287 C   0  0  0  0  0  0  0  0  0  0  0  0
   28.3648  -17.8331  -17.4799 O   0  0  0  0  0  0  0  0  0  0  0  0
   28.1969  -18.5771  -15.2553 C   0  0  0  0  0  0  0  0  0  0  0  0
   27.2063  -19.2653  -14.3283 C   0  0  0  0  0  0  0  0  0  0  0  0
   27.9669  -20.4036  -13.6881 C   0  0  2  0  0  0  0  0  0  0  0  0
   28.3170  -21.4281  -14.6198 N   0  0  0  0  0  0  0  0  0  0  0  0
   27.1621  -21.0450  -12.6007 C   0  0  0  0  0  0  0  0  0  0  0  0
   26.3464  -21.9848  -12.8178 O   0  0  0  0  0  0  0  0  0  0  0  0
   28.5858  -20.4029   -6.2541 C   0  0  0  0  0  0  0  0  0  0  0  0
   26.8999  -19.7335   -6.2780 S   0  0  0  0  0  0  0  0  0  0  0  0
   26.0290  -20.3624   -7.7631 C   0  0  0  0  0  0  0  0  0  0  0  0
   26.9787  -20.2814   -8.9263 C   0  0  0  0  0  0  0  0  0  0  0  0
   26.3362  -20.7488  -10.2163 C   0  0  2  0  0  0  0  0  0  0  0  0
   27.3119  -20.5871  -11.2667 N   0  0  0  0  0  0  0  0  0  0  0  0
   25.0873  -19.9917  -10.5001 C   0  0  0  0  0  0  0  0  0  0  0  0
   25.1859  -18.8111  -10.8972 O   0  0  0  0  0  0  0  0  0  0  0  0
   21.1164  -22.6224  -16.6990 N   0  0  0  0  0  0  0  0  0  0  0  0
   21.2212  -23.2983  -15.4512 C   0  0  0  0  0  0  0  0  0  0  0  0
   20.6567  -24.4542  -15.2226 N   0  0  0  0  0  0  0  0  0  0  0  0
   21.9610  -22.7509  -14.3535 N   0  0  0  0  0  0  0  0  0  0  0  0
   22.6770  -21.4945  -14.4738 C   0  0  0  0  0  0  0  0  0  0  0  0
   23.3186  -21.2673  -13.0779 C   0  0  0  0  0  0  0  0  0  0  0  0
   22.7831  -20.0241  -12.4619 C   0  0  0  0  0  0  0  0  0  0  0  0
   22.5914  -20.1374  -10.9966 C   0  0  2  0  0  0  0  0  0  0  0  0
   23.8189  -20.5807  -10.3291 N   0  0  0  0  0  0  0  0  0  0  0  0
   21.4058  -20.8808  -10.5310 C   0  0  0  0  0  0  0  0  0  0  0  0
   20.2707  -20.5484  -10.9405 O   0  0  0  0  0  0  0  0  0  0  0  0
   21.4686  -21.9326   -9.6578 O   0  0  0  0  0  0  0  0  0  0  0  0
  1  2  1  0
  2  3  2  0
  4  5  1  0
  4  2  1  0
  6  7  1  6
  6  5  1  0
  8  6  1  0
  9  8  2  0
 11 10  1  0
 11 12  1  0
 12 13  1  0
 14 13  1  1
 14 15  1  0
 15  8  1  0
 16 17  2  0
 16 14  1  0
 18 19  1  0
 19 21  1  0
 20 19  2  0
 21 22  1  0
 22 23  1  0
 23 24  1  0
 25 24  1  6
 25 26  1  0
 26 16  1  0
 27 25  1  0
 28 27  2  0
 29 27  1  0
M  END
$$$$
