QMR.pdb
     RDKit          3D

 29 28  0  0  1  0  0  0  0  0999 V2000
   14.3150  -10.2295  -16.9513 N   0  0  0  0  0  0  0  0  0  0  0  0
   14.9899  -10.0594  -15.7224 C   0  0  0  0  0  0  0  0  0  0  0  0
   14.7617   -9.0421  -15.0368 O   0  0  0  0  0  0  0  0  0  0  0  0
   15.9569  -11.0579  -15.2338 C   0  0  0  0  0  0  0  0  0  0  0  0
   16.7858  -10.5436  -14.0664 C   0  0  0  0  0  0  0  0  0  0  0  0
   18.0740  -10.0346  -14.6712 C   0  0  2  0  0  0  0  0  0  0  0  0
   18.9131  -11.0861  -15.1510 N   0  0  0  0  0  0  0  0  0  0  0  0
   18.8665   -9.2522  -13.6705 C   0  0  0  0  0  0  0  0  0  0  0  0
   20.0718   -9.5142  -13.3977 O   0  0  0  0  0  0  0  0  0  0  0  0
   22.3702   -3.0036  -13.6239 C   0  0  0  0  0  0  0  0  0  0  0  0
   21.4510   -4.4344  -14.2553 S   0  0  0  0  0  0  0  0  0  0  0  0
   20.5225   -5.2039  -12.8750 C   0  0  0  0  0  0  0  0  0  0  0  0
   19.7341   -6.3567  -13.4325 C   0  0  0  0  0  0  0  0  0  0  0  0
   18.9482   -7.0788  -12.3573 C   0  0  2  0  0  0  0  0  0  0  0  0
   18.2498   -8.1694  -12.9932 N   0  0  0  0  0  0  0  0  0  0  0  0
   18.0131   -6.1537  -11.6620 C   0  0  0  0  0  0  0  0  0  0  0  0
   17.3543   -5.3464  -12.3516 O   0  0  0  0  0  0  0  0  0  0  0  0
   12.7025  -10.2144   -7.6711 N   0  0  0  0  0  0  0  0  0  0  0  0
   12.1595   -9.0442   -8.2717 C   0  0  0  0  0  0  0  0  0  0  0  0
   10.9347   -8.9828   -8.7222 N   0  0  0  0  0  0  0  0  0  0  0  0
   12.9274   -7.8443   -8.4217 N   0  0  0  0  0  0  0  0  0  0  0  0
   14.3638   -7.8333   -8.2159 C   0  0  0  0  0  0  0  0  0  0  0  0
   14.7957   -6.3698   -8.5051 C   0  0  0  0  0  0  0  0  0  0  0  0
   16.2749   -6.2433   -8.4178 C   0  0  0  0  0  0  0  0  0  0  0  0
   16.8540   -5.4273   -9.5111 C   0  0  2  0  0  0  0  0  0  0  0  0
   17.8654   -6.1780  -10.2610 N   0  0  0  0  0  0  0  0  0  0  0  0
   17.3137   -4.0698   -9.1633 C   0  0  0  0  0  0  0  0  0  0  0  0
   16.4739   -3.1979   -8.8453 O   0  0  0  0  0  0  0  0  0  0  0  0
   18.6294   -3.6933   -9.1689 O   0  0  0  0  0  0  0  0  0  0  0  0
  1  2  1  0
  2  3  2  0
  4  5  1  0
  4  2  1  0
  6  7  1  1
  6  5  1  0
  8  6  1  0
  9  8  2  0
 11 10  1  0
 11 12  1  0
 12 13  1  0
 14 13  1  6
 14 15  1  0
 15  8  1  0
 16 17  2  0
 16 14  1  0
 18 19  1  0
 19 21  1  0
 20 19  2  0
 21 22  1  0
 22 23  1  0
 23 24  1  0
 25 24  1  1
 25 26  1  0
 26 16  1  0
 27 25  1  0
 28 27  2  0
 29 27  1  0
M  END
$$$$
