QMR.pdb
     RDKit          3D

 29 28  0  0  1  0  0  0  0  0999 V2000
   29.2488  -22.9569  -17.0502 N   0  0  0  0  0  0  0  0  0  0  0  0
   28.8783  -21.6601  -17.4692 C   0  0  0  0  0  0  0  0  0  0  0  0
   29.5800  -21.0684  -18.3146 O   0  0  0  0  0  0  0  0  0  0  0  0
   27.6812  -20.9923  -16.9290 C   0  0  0  0  0  0  0  0  0  0  0  0
   26.9378  -21.8550  -15.9204 C   0  0  0  0  0  0  0  0  0  0  0  0
   26.1616  -20.8926  -15.0511 C   0  0  2  0  0  0  0  0  0  0  0  0
   26.9960  -19.9176  -14.4241 N   0  0  0  0  0  0  0  0  0  0  0  0
   25.4291  -21.6182  -13.9656 C   0  0  0  0  0  0  0  0  0  0  0  0
   25.5169  -22.8672  -13.7985 O   0  0  0  0  0  0  0  0  0  0  0  0
   25.0172  -19.6439   -8.1156 C   0  0  0  0  0  0  0  0  0  0  0  0
   26.4117  -20.4657   -8.9347 S   0  0  0  0  0  0  0  0  0  0  0  0
   25.7969  -21.3459  -10.4203 C   0  0  0  0  0  0  0  0  0  0  0  0
   24.4039  -20.8564  -10.7056 C   0  0  0  0  0  0  0  0  0  0  0  0
   23.8468  -21.4461  -11.9851 C   0  0  2  0  0  0  0  0  0  0  0  0
   24.5980  -20.8841  -13.0812 N   0  0  0  0  0  0  0  0  0  0  0  0
   22.3904  -21.1713  -12.1143 C   0  0  0  0  0  0  0  0  0  0  0  0
   22.0255  -19.9984  -12.3437 O   0  0  0  0  0  0  0  0  0  0  0  0
   16.5889  -24.6698   -7.0976 N   0  0  0  0  0  0  0  0  0  0  0  0
   17.7273  -25.3853   -7.5634 C   0  0  0  0  0  0  0  0  0  0  0  0
   17.7877  -26.6904   -7.5737 N   0  0  0  0  0  0  0  0  0  0  0  0
   18.8926  -24.7149   -8.0579 N   0  0  0  0  0  0  0  0  0  0  0  0
   19.1423  -23.3154   -7.7670 C   0  0  0  0  0  0  0  0  0  0  0  0
   18.9958  -22.5929   -9.1340 C   0  0  0  0  0  0  0  0  0  0  0  0
   20.2571  -22.7069   -9.9136 C   0  0  0  0  0  0  0  0  0  0  0  0
   20.1701  -22.0815  -11.2545 C   0  0  2  0  0  0  0  0  0  0  0  0
   21.4364  -22.1998  -11.9833 N   0  0  0  0  0  0  0  0  0  0  0  0
   19.6145  -20.7171  -11.3232 C   0  0  0  0  0  0  0  0  0  0  0  0
   20.2696  -19.7610  -10.8505 O   0  0  0  0  0  0  0  0  0  0  0  0
   18.3997  -20.4234  -11.8806 O   0  0  0  0  0  0  0  0  0  0  0  0
  1  2  1  0
  2  3  2  0
  4  5  1  0
  4  2  1  0
  6  7  1  1
  6  5  1  0
  8  6  1  0
  9  8  2  0
 11 10  1  0
 11 12  1  0
 12 13  1  0
 14 13  1  1
 14 15  1  0
 15  8  1  0
 16 17  2  0
 16 14  1  0
 18 19  1  0
 19 21  1  0
 20 19  2  0
 21 22  1  0
 22 23  1  0
 23 24  1  0
 25 24  1  1
 25 26  1  0
 26 16  1  0
 27 25  1  0
 28 27  2  0
 29 27  1  0
M  END
$$$$
