QMR.pdb
     RDKit          3D

 29 28  0  0  1  0  0  0  0  0999 V2000
   28.3424  -18.2028  -17.6440 N   0  0  0  0  0  0  0  0  0  0  0  0
   29.0526  -19.3005  -17.1099 C   0  0  0  0  0  0  0  0  0  0  0  0
   30.1314  -19.0985  -16.5161 O   0  0  0  0  0  0  0  0  0  0  0  0
   28.5463  -20.6780  -17.2395 C   0  0  0  0  0  0  0  0  0  0  0  0
   28.1561  -21.2839  -15.8998 C   0  0  0  0  0  0  0  0  0  0  0  0
   26.8275  -20.6601  -15.5393 C   0  0  2  0  0  0  0  0  0  0  0  0
   26.9419  -19.2813  -15.1845 N   0  0  0  0  0  0  0  0  0  0  0  0
   26.1966  -21.3684  -14.3809 C   0  0  0  0  0  0  0  0  0  0  0  0
   25.9321  -22.6036  -14.3968 O   0  0  0  0  0  0  0  0  0  0  0  0
   26.3301  -20.0299   -7.4459 C   0  0  0  0  0  0  0  0  0  0  0  0
   27.3783  -20.1360   -8.9227 S   0  0  0  0  0  0  0  0  0  0  0  0
   26.5689  -21.2284  -10.1520 C   0  0  0  0  0  0  0  0  0  0  0  0
   25.5159  -20.4246  -10.8639 C   0  0  0  0  0  0  0  0  0  0  0  0
   25.0437  -21.1059  -12.1320 C   0  0  2  0  0  0  0  0  0  0  0  0
   25.8771  -20.6332  -13.2108 N   0  0  0  0  0  0  0  0  0  0  0  0
   23.6034  -20.8322  -12.3851 C   0  0  0  0  0  0  0  0  0  0  0  0
   23.2889  -19.7411  -12.9065 O   0  0  0  0  0  0  0  0  0  0  0  0
   15.2913  -24.4461  -11.8148 N   0  0  0  0  0  0  0  0  0  0  0  0
   16.0504  -24.5273  -13.0157 C   0  0  0  0  0  0  0  0  0  0  0  0
   15.5345  -24.9043  -14.1552 N   0  0  0  0  0  0  0  0  0  0  0  0
   17.4436  -24.1963  -13.0545 N   0  0  0  0  0  0  0  0  0  0  0  0
   18.2024  -23.9682  -11.8388 C   0  0  0  0  0  0  0  0  0  0  0  0
   18.9331  -22.6180  -12.0737 C   0  0  0  0  0  0  0  0  0  0  0  0
   20.4044  -22.8035  -11.9632 C   0  0  0  0  0  0  0  0  0  0  0  0
   21.1663  -21.5513  -12.1828 C   0  0  2  0  0  0  0  0  0  0  0  0
   22.6092  -21.7725  -12.0495 N   0  0  0  0  0  0  0  0  0  0  0  0
   20.7168  -20.3551  -11.4466 C   0  0  0  0  0  0  0  0  0  0  0  0
   21.0660  -20.1982  -10.2550 O   0  0  0  0  0  0  0  0  0  0  0  0
   19.9219  -19.3853  -11.9947 O   0  0  0  0  0  0  0  0  0  0  0  0
  1  2  1  0
  2  3  2  0
  4  5  1  0
  4  2  1  0
  6  7  1  1
  6  5  1  0
  8  6  1  0
  9  8  2  0
 11 10  1  0
 11 12  1  0
 12 13  1  0
 14 13  1  1
 14 15  1  0
 15  8  1  0
 16 17  2  0
 16 14  1  0
 18 19  1  0
 19 21  1  0
 20 19  2  0
 21 22  1  0
 22 23  1  0
 23 24  1  0
 25 24  1  1
 25 26  1  0
 26 16  1  0
 27 25  1  0
 28 27  2  0
 29 27  1  0
M  END
$$$$
