QMR.pdb
     RDKit          3D

 29 28  0  0  1  0  0  0  0  0999 V2000
   25.6555  -23.2302  -18.4267 N   0  0  0  0  0  0  0  0  0  0  0  0
   26.8266  -22.4737  -18.6512 C   0  0  0  0  0  0  0  0  0  0  0  0
   27.1602  -22.1986  -19.8217 O   0  0  0  0  0  0  0  0  0  0  0  0
   27.6618  -22.0029  -17.5325 C   0  0  0  0  0  0  0  0  0  0  0  0
   27.1229  -22.4401  -16.1787 C   0  0  0  0  0  0  0  0  0  0  0  0
   26.0215  -21.4619  -15.8407 C   0  0  2  0  0  0  0  0  0  0  0  0
   26.4885  -20.1157  -15.7423 N   0  0  0  0  0  0  0  0  0  0  0  0
   25.3764  -21.8074  -14.5345 C   0  0  0  0  0  0  0  0  0  0  0  0
   25.5434  -22.9217  -13.9634 O   0  0  0  0  0  0  0  0  0  0  0  0
   24.3001  -20.9643   -7.6825 C   0  0  0  0  0  0  0  0  0  0  0  0
   24.9706  -20.7123   -9.3492 S   0  0  0  0  0  0  0  0  0  0  0  0
   23.6983  -19.8985  -10.3877 C   0  0  0  0  0  0  0  0  0  0  0  0
   24.2393  -19.7946  -11.7870 C   0  0  0  0  0  0  0  0  0  0  0  0
   23.9106  -21.0204  -12.6144 C   0  0  2  0  0  0  0  0  0  0  0  0
   24.5400  -20.8527  -13.9017 N   0  0  0  0  0  0  0  0  0  0  0  0
   22.4397  -21.2070  -12.7380 C   0  0  0  0  0  0  0  0  0  0  0  0
   21.8033  -20.4314  -13.4828 O   0  0  0  0  0  0  0  0  0  0  0  0
   17.2375  -26.7221   -8.0553 N   0  0  0  0  0  0  0  0  0  0  0  0
   17.2983  -25.3304   -7.7643 C   0  0  0  0  0  0  0  0  0  0  0  0
   16.9838  -24.8370   -6.5962 N   0  0  0  0  0  0  0  0  0  0  0  0
   17.7140  -24.3700   -8.7424 N   0  0  0  0  0  0  0  0  0  0  0  0
   18.1044  -24.7720  -10.0809 C   0  0  0  0  0  0  0  0  0  0  0  0
   18.4108  -23.4420  -10.8221 C   0  0  0  0  0  0  0  0  0  0  0  0
   19.8766  -23.1922  -10.8454 C   0  0  0  0  0  0  0  0  0  0  0  0
   20.3187  -22.4375  -12.0420 C   0  0  2  0  0  0  0  0  0  0  0  0
   21.7697  -22.2295  -12.0375 N   0  0  0  0  0  0  0  0  0  0  0  0
   19.5809  -21.2022  -12.3658 C   0  0  0  0  0  0  0  0  0  0  0  0
   19.7168  -20.1946  -11.6358 O   0  0  0  0  0  0  0  0  0  0  0  0
   18.7360  -21.0856  -13.4360 O   0  0  0  0  0  0  0  0  0  0  0  0
  1  2  1  0
  2  3  2  0
  4  5  1  0
  4  2  1  0
  6  7  1  1
  6  5  1  0
  8  6  1  0
  9  8  2  0
 11 10  1  0
 11 12  1  0
 12 13  1  0
 14 13  1  1
 14 15  1  0
 15  8  1  0
 16 17  2  0
 16 14  1  0
 18 19  1  0
 19 21  1  0
 20 19  2  0
 21 22  1  0
 22 23  1  0
 23 24  1  0
 25 24  1  1
 25 26  1  0
 26 16  1  0
 27 25  1  0
 28 27  2  0
 29 27  1  0
M  END
$$$$
