QMR.pdb
     RDKit          3D

 29 28  0  0  1  0  0  0  0  0999 V2000
   30.5399  -18.6749  -16.9700 N   0  0  0  0  0  0  0  0  0  0  0  0
   30.1842  -20.0413  -16.9995 C   0  0  0  0  0  0  0  0  0  0  0  0
   31.0552  -20.9036  -16.7657 O   0  0  0  0  0  0  0  0  0  0  0  0
   28.8068  -20.4689  -17.3005 C   0  0  0  0  0  0  0  0  0  0  0  0
   28.2025  -21.3130  -16.1884 C   0  0  0  0  0  0  0  0  0  0  0  0
   27.2820  -20.3880  -15.4259 C   0  0  2  0  0  0  0  0  0  0  0  0
   27.9681  -19.2742  -14.8526 N   0  0  0  0  0  0  0  0  0  0  0  0
   26.5948  -21.1118  -14.3099 C   0  0  0  0  0  0  0  0  0  0  0  0
   25.8468  -22.1115  -14.5020 O   0  0  0  0  0  0  0  0  0  0  0  0
   27.1942  -18.9307   -7.8058 C   0  0  0  0  0  0  0  0  0  0  0  0
   27.1434  -20.7411   -7.9113 S   0  0  0  0  0  0  0  0  0  0  0  0
   26.1075  -21.2268   -9.3432 C   0  0  0  0  0  0  0  0  0  0  0  0
   26.8113  -20.7832  -10.5960 C   0  0  0  0  0  0  0  0  0  0  0  0
   26.0018  -21.0890  -11.8395 C   0  0  2  0  0  0  0  0  0  0  0  0
   26.7827  -20.6662  -12.9767 N   0  0  0  0  0  0  0  0  0  0  0  0
   24.6762  -20.4148  -11.7974 C   0  0  0  0  0  0  0  0  0  0  0  0
   24.5074  -19.3925  -12.4958 O   0  0  0  0  0  0  0  0  0  0  0  0
   17.6434  -23.0604  -14.5383 N   0  0  0  0  0  0  0  0  0  0  0  0
   18.2203  -22.0068  -15.3013 C   0  0  0  0  0  0  0  0  0  0  0  0
   17.5123  -21.2103  -16.0570 N   0  0  0  0  0  0  0  0  0  0  0  0
   19.6290  -21.7470  -15.2894 N   0  0  0  0  0  0  0  0  0  0  0  0
   20.5364  -22.5272  -14.4688 C   0  0  0  0  0  0  0  0  0  0  0  0
   20.6361  -21.7441  -13.1314 C   0  0  0  0  0  0  0  0  0  0  0  0
   22.0576  -21.6220  -12.7116 C   0  0  0  0  0  0  0  0  0  0  0  0
   22.2199  -20.9638  -11.3936 C   0  0  2  0  0  0  0  0  0  0  0  0
   23.6291  -20.9075  -10.9936 N   0  0  0  0  0  0  0  0  0  0  0  0
   21.3495  -21.4316  -10.2988 C   0  0  0  0  0  0  0  0  0  0  0  0
   21.7580  -22.3295   -9.5283 O   0  0  0  0  0  0  0  0  0  0  0  0
   20.0944  -20.9376  -10.0681 O   0  0  0  0  0  0  0  0  0  0  0  0
  1  2  1  0
  2  3  2  0
  4  5  1  0
  4  2  1  0
  6  7  1  1
  6  5  1  0
  8  6  1  0
  9  8  2  0
 11 10  1  0
 11 12  1  0
 12 13  1  0
 14 13  1  1
 14 15  1  0
 15  8  1  0
 16 17  2  0
 16 14  1  0
 18 19  1  0
 19 21  1  0
 20 19  2  0
 21 22  1  0
 22 23  1  0
 23 24  1  0
 25 24  1  6
 25 26  1  0
 26 16  1  0
 27 25  1  0
 28 27  2  0
 29 27  1  0
M  END
$$$$
