QMR.pdb
     RDKit          3D

 29 28  0  0  1  0  0  0  0  0999 V2000
   29.9089  -18.6545  -15.0507 N   0  0  0  0  0  0  0  0  0  0  0  0
   28.9801  -18.4448  -16.0937 C   0  0  0  0  0  0  0  0  0  0  0  0
   29.2301  -17.5936  -16.9713 O   0  0  0  0  0  0  0  0  0  0  0  0
   27.7231  -19.2099  -16.1667 C   0  0  0  0  0  0  0  0  0  0  0  0
   27.5672  -20.1861  -15.0104 C   0  0  0  0  0  0  0  0  0  0  0  0
   26.0782  -20.3377  -14.8000 C   0  0  2  0  0  0  0  0  0  0  0  0
   25.4052  -19.0830  -14.6863 N   0  0  0  0  0  0  0  0  0  0  0  0
   25.7867  -21.1153  -13.5543 C   0  0  0  0  0  0  0  0  0  0  0  0
   26.1880  -22.3002  -13.3786 O   0  0  0  0  0  0  0  0  0  0  0  0
   26.9863  -18.4068   -8.3589 C   0  0  0  0  0  0  0  0  0  0  0  0
   26.3553  -20.0433   -7.8956 S   0  0  0  0  0  0  0  0  0  0  0  0
   26.0508  -21.0184   -9.4175 C   0  0  0  0  0  0  0  0  0  0  0  0
   24.8913  -20.3941  -10.1436 C   0  0  0  0  0  0  0  0  0  0  0  0
   24.4937  -21.1920  -11.3685 C   0  0  2  0  0  0  0  0  0  0  0  0
   25.0289  -20.5080  -12.5207 N   0  0  0  0  0  0  0  0  0  0  0  0
   23.0163  -21.3460  -11.4536 C   0  0  0  0  0  0  0  0  0  0  0  0
   22.4079  -20.7430  -12.3633 O   0  0  0  0  0  0  0  0  0  0  0  0
   17.0467  -25.6757   -6.0190 N   0  0  0  0  0  0  0  0  0  0  0  0
   16.4274  -25.1783   -7.1997 C   0  0  0  0  0  0  0  0  0  0  0  0
   15.1669  -25.3808   -7.4771 N   0  0  0  0  0  0  0  0  0  0  0  0
   17.1523  -24.4140   -8.1704 N   0  0  0  0  0  0  0  0  0  0  0  0
   18.5908  -24.2450   -8.0812 C   0  0  0  0  0  0  0  0  0  0  0  0
   18.9584  -23.3273   -9.2790 C   0  0  0  0  0  0  0  0  0  0  0  0
   20.4252  -23.0842   -9.3095 C   0  0  0  0  0  0  0  0  0  0  0  0
   20.8489  -22.2268  -10.4418 C   0  0  2  0  0  0  0  0  0  0  0  0
   22.3096  -22.1492  -10.5368 N   0  0  0  0  0  0  0  0  0  0  0  0
   20.2132  -20.9007  -10.5531 C   0  0  0  0  0  0  0  0  0  0  0  0
   20.6503  -19.9489   -9.8678 O   0  0  0  0  0  0  0  0  0  0  0  0
   19.1501  -20.6392  -11.3741 O   0  0  0  0  0  0  0  0  0  0  0  0
  1  2  1  0
  2  3  2  0
  4  5  1  0
  4  2  1  0
  6  7  1  1
  6  5  1  0
  8  6  1  0
  9  8  2  0
 11 10  1  0
 11 12  1  0
 12 13  1  0
 14 13  1  1
 14 15  1  0
 15  8  1  0
 16 17  2  0
 16 14  1  0
 18 19  1  0
 19 21  1  0
 20 19  2  0
 21 22  1  0
 22 23  1  0
 23 24  1  0
 25 24  1  1
 25 26  1  0
 26 16  1  0
 27 25  1  0
 28 27  2  0
 29 27  1  0
M  END
$$$$
