QMR.pdb
     RDKit          3D

 29 28  0  0  1  0  0  0  0  0999 V2000
   24.5958  -20.7360  -17.7728 N   0  0  0  0  0  0  0  0  0  0  0  0
   25.5572  -20.0546  -18.5512 C   0  0  0  0  0  0  0  0  0  0  0  0
   25.2735  -19.7266  -19.7213 O   0  0  0  0  0  0  0  0  0  0  0  0
   26.8870  -19.7234  -18.0103 C   0  0  0  0  0  0  0  0  0  0  0  0
   26.9819  -19.9611  -16.5107 C   0  0  0  0  0  0  0  0  0  0  0  0
   28.3793  -20.4823  -16.2660 C   0  0  2  0  0  0  0  0  0  0  0  0
   28.7916  -21.4393  -17.2427 N   0  0  0  0  0  0  0  0  0  0  0  0
   28.4815  -21.1403  -14.9250 C   0  0  0  0  0  0  0  0  0  0  0  0
   29.1403  -22.2008  -14.7326 O   0  0  0  0  0  0  0  0  0  0  0  0
   32.2187  -22.6703  -11.6624 C   0  0  0  0  0  0  0  0  0  0  0  0
   31.5903  -21.3973  -10.5329 S   0  0  0  0  0  0  0  0  0  0  0  0
   29.7698  -21.2849  -10.7137 C   0  0  0  0  0  0  0  0  0  0  0  0
   29.4691  -20.8761  -12.1293 C   0  0  0  0  0  0  0  0  0  0  0  0
   27.9883  -20.9547  -12.4396 C   0  0  2  0  0  0  0  0  0  0  0  0
   27.8150  -20.5590  -13.8162 N   0  0  0  0  0  0  0  0  0  0  0  0
   27.1989  -20.0978  -11.5143 C   0  0  0  0  0  0  0  0  0  0  0  0
   27.6778  -19.8405  -10.3892 O   0  0  0  0  0  0  0  0  0  0  0  0
   19.7369  -21.8326  -15.0703 N   0  0  0  0  0  0  0  0  0  0  0  0
   20.5852  -20.7007  -14.9146 C   0  0  0  0  0  0  0  0  0  0  0  0
   20.6495  -19.7378  -15.7952 N   0  0  0  0  0  0  0  0  0  0  0  0
   21.4314  -20.5406  -13.7700 N   0  0  0  0  0  0  0  0  0  0  0  0
   21.5061  -21.5550  -12.7351 C   0  0  0  0  0  0  0  0  0  0  0  0
   22.4320  -20.9456  -11.6472 C   0  0  0  0  0  0  0  0  0  0  0  0
   23.7185  -20.5093  -12.2523 C   0  0  0  0  0  0  0  0  0  0  0  0
   24.6669  -19.9491  -11.2606 C   0  0  2  0  0  0  0  0  0  0  0  0
   25.9411  -19.5832  -11.8862 N   0  0  0  0  0  0  0  0  0  0  0  0
   24.8588  -20.7104  -10.0121 C   0  0  0  0  0  0  0  0  0  0  0  0
   25.2480  -21.8986  -10.0692 O   0  0  0  0  0  0  0  0  0  0  0  0
   24.6306  -20.1897   -8.7673 O   0  0  0  0  0  0  0  0  0  0  0  0
  1  2  1  0
  2  3  2  0
  4  5  1  0
  4  2  1  0
  6  7  1  6
  6  5  1  0
  8  6  1  0
  9  8  2  0
 11 10  1  0
 11 12  1  0
 12 13  1  0
 14 13  1  1
 14 15  1  0
 15  8  1  0
 16 17  2  0
 16 14  1  0
 18 19  1  0
 19 21  1  0
 20 19  2  0
 21 22  1  0
 22 23  1  0
 23 24  1  0
 25 24  1  6
 25 26  1  0
 26 16  1  0
 27 25  1  0
 28 27  2  0
 29 27  1  0
M  END
$$$$
