QMR.pdb
     RDKit          3D

 29 28  0  0  1  0  0  0  0  0999 V2000
   27.6530  -23.1600  -17.9124 N   0  0  0  0  0  0  0  0  0  0  0  0
   28.6464  -22.1572  -17.9554 C   0  0  0  0  0  0  0  0  0  0  0  0
   29.0925  -21.7873  -19.0605 O   0  0  0  0  0  0  0  0  0  0  0  0
   29.1664  -21.5393  -16.7231 C   0  0  0  0  0  0  0  0  0  0  0  0
   28.5130  -22.1007  -15.4692 C   0  0  0  0  0  0  0  0  0  0  0  0
   27.3462  -21.1875  -15.1711 C   0  0  2  0  0  0  0  0  0  0  0  0
   27.7517  -19.8494  -14.8792 N   0  0  0  0  0  0  0  0  0  0  0  0
   26.5612  -21.6825  -13.9964 C   0  0  0  0  0  0  0  0  0  0  0  0
   26.0355  -22.8306  -13.9605 O   0  0  0  0  0  0  0  0  0  0  0  0
   27.4351  -20.6473   -7.5144 C   0  0  0  0  0  0  0  0  0  0  0  0
   25.9551  -19.6892   -7.9421 S   0  0  0  0  0  0  0  0  0  0  0  0
   25.1255  -20.4792   -9.3729 C   0  0  0  0  0  0  0  0  0  0  0  0
   26.0421  -20.3672  -10.5598 C   0  0  0  0  0  0  0  0  0  0  0  0
   25.4846  -21.0786  -11.7757 C   0  0  2  0  0  0  0  0  0  0  0  0
   26.3927  -20.8367  -12.8704 N   0  0  0  0  0  0  0  0  0  0  0  0
   24.1066  -20.6118  -12.0868 C   0  0  0  0  0  0  0  0  0  0  0  0
   23.9558  -19.4453  -12.5084 O   0  0  0  0  0  0  0  0  0  0  0  0
   17.8036  -25.6729  -14.6568 N   0  0  0  0  0  0  0  0  0  0  0  0
   18.9421  -24.9219  -15.0627 C   0  0  0  0  0  0  0  0  0  0  0  0
   19.6695  -25.2435  -16.0993 N   0  0  0  0  0  0  0  0  0  0  0  0
   19.3686  -23.7516  -14.3554 N   0  0  0  0  0  0  0  0  0  0  0  0
   18.5848  -23.1958  -13.2680 C   0  0  0  0  0  0  0  0  0  0  0  0
   19.3623  -21.9261  -12.8260 C   0  0  0  0  0  0  0  0  0  0  0  0
   20.7994  -22.2486  -12.6203 C   0  0  0  0  0  0  0  0  0  0  0  0
   21.6029  -21.0778  -12.1955 C   0  0  2  0  0  0  0  0  0  0  0  0
   22.9912  -21.4552  -11.9144 N   0  0  0  0  0  0  0  0  0  0  0  0
   21.0340  -20.2226  -11.1372 C   0  0  0  0  0  0  0  0  0  0  0  0
   21.4329  -20.3545   -9.9582 O   0  0  0  0  0  0  0  0  0  0  0  0
   20.0741  -19.2747  -11.3667 O   0  0  0  0  0  0  0  0  0  0  0  0
  1  2  1  0
  2  3  2  0
  4  5  1  0
  4  2  1  0
  6  7  1  1
  6  5  1  0
  8  6  1  0
  9  8  2  0
 11 10  1  0
 11 12  1  0
 12 13  1  0
 14 13  1  1
 14 15  1  0
 15  8  1  0
 16 17  2  0
 16 14  1  0
 18 19  1  0
 19 21  1  0
 20 19  2  0
 21 22  1  0
 22 23  1  0
 23 24  1  0
 25 24  1  1
 25 26  1  0
 26 16  1  0
 27 25  1  0
 28 27  2  0
 29 27  1  0
M  END
$$$$
