HKR.pdb
     RDKit          3D

 31 31  0  0  1  0  0  0  0  0999 V2000
    8.2115  -16.9992   19.0684 N   0  0  0  0  0  0  0  0  0  0  0  0
    8.9972  -16.2810   20.0180 C   0  0  1  0  0  0  0  0  0  0  0  0
    8.3737  -14.9615   20.3112 C   0  0  0  0  0  0  0  0  0  0  0  0
    8.2391  -14.0836   19.1231 C   0  0  0  0  0  0  0  0  0  0  0  0
    8.6799  -12.7690   18.9683 C   0  0  0  0  0  0  0  0  0  0  0  0
    8.3579  -12.3321   17.7361 N   0  0  0  0  0  0  0  0  0  0  0  0
    7.7292  -13.3271   17.1103 C   0  0  0  0  0  0  0  0  0  0  0  0
    7.6548  -14.3987   17.9543 N   0  0  0  0  0  0  0  0  0  0  0  0
    9.2500  -17.1020   21.2363 C   0  0  0  0  0  0  0  0  0  0  0  0
    8.2647  -17.3185   21.9721 O   0  0  0  0  0  0  0  0  0  0  0  0
   10.4986  -17.6187   21.5731 N   0  0  0  0  0  0  0  0  0  0  0  0
   10.9063  -18.3446   22.7108 C   0  0  1  0  0  0  0  0  0  0  0  0
   12.0917  -19.2511   22.6008 C   0  0  0  0  0  0  0  0  0  0  0  0
   12.4754  -20.0429   23.7788 C   0  0  0  0  0  0  0  0  0  0  0  0
   12.0075  -21.4906   23.7102 C   0  0  0  0  0  0  0  0  0  0  0  0
   12.4617  -22.2178   24.9824 C   0  0  0  0  0  0  0  0  0  0  0  0
   12.1270  -23.6120   24.9535 N   0  0  0  0  0  0  0  0  0  0  0  0
   10.9814  -17.5938   23.9728 C   0  0  0  0  0  0  0  0  0  0  0  0
   11.7526  -16.6147   24.0467 O   0  0  0  0  0  0  0  0  0  0  0  0
    5.3109  -12.7824   26.8736 N   0  0  0  0  0  0  0  0  0  0  0  0
    6.3928  -12.3671   26.0399 C   0  0  0  0  0  0  0  0  0  0  0  0
    6.4149  -11.1760   25.5679 N   0  0  0  0  0  0  0  0  0  0  0  0
    7.4560  -13.2562   25.7172 N   0  0  0  0  0  0  0  0  0  0  0  0
    7.6420  -14.5323   26.3532 C   0  0  0  0  0  0  0  0  0  0  0  0
    8.8866  -15.2675   25.9927 C   0  0  0  0  0  0  0  0  0  0  0  0
    9.0428  -16.5304   26.7580 C   0  0  0  0  0  0  0  0  0  0  0  0
   10.3538  -17.2472   26.3937 C   0  0  2  0  0  0  0  0  0  0  0  0
   10.2201  -17.9181   25.1308 N   0  0  0  0  0  0  0  0  0  0  0  0
   10.7229  -18.1714   27.4914 C   0  0  0  0  0  0  0  0  0  0  0  0
   11.0776  -17.6435   28.7185 O   0  0  0  0  0  0  0  0  0  0  0  0
   10.7266  -19.4160   27.3523 O   0  0  0  0  0  0  0  0  0  0  0  0
  2  1  1  6
  2  3  1  0
  3  4  1  0
  4  8  1  0
  4  5  2  0
  5  6  1  0
  7  6  1  0
  8  7  2  0
  9  2  1  0
  9 11  1  0
 10  9  2  0
 11 12  1  0
 13 14  1  0
 12 13  1  6
 14 15  1  0
 15 16  1  0
 17 16  1  0
 18 12  1  0
 19 18  2  0
 20 21  1  0
 21 22  2  0
 23 21  1  0
 23 24  1  0
 24 25  1  0
 26 25  1  0
 27 26  1  1
 27 28  1  0
 27 29  1  0
 28 18  1  0
 29 30  1  0
 31 29  2  0
M  END
$$$$
