HKR.pdb
     RDKit          3D

 31 31  0  0  1  0  0  0  0  0999 V2000
   10.4801  -20.1578   14.2125 N   0  0  0  0  0  0  0  0  0  0  0  0
    9.5689  -19.1081   14.5327 C   0  0  1  0  0  0  0  0  0  0  0  0
    8.4996  -19.0202   13.5009 C   0  0  0  0  0  0  0  0  0  0  0  0
    8.8211  -18.1038   12.3795 C   0  0  0  0  0  0  0  0  0  0  0  0
   10.0568  -17.5475   12.0481 C   0  0  0  0  0  0  0  0  0  0  0  0
    9.9183  -16.7683   10.9588 N   0  0  0  0  0  0  0  0  0  0  0  0
    8.6371  -16.8154   10.5936 C   0  0  0  0  0  0  0  0  0  0  0  0
    7.9638  -17.6302   11.4589 N   0  0  0  0  0  0  0  0  0  0  0  0
    9.0442  -19.2570   15.9201 C   0  0  0  0  0  0  0  0  0  0  0  0
    8.1328  -18.4718   16.2544 O   0  0  0  0  0  0  0  0  0  0  0  0
    9.5147  -20.2051   16.8252 N   0  0  0  0  0  0  0  0  0  0  0  0
    9.1826  -20.4136   18.1794 C   0  0  1  0  0  0  0  0  0  0  0  0
    9.3543  -21.7815   18.7612 C   0  0  0  0  0  0  0  0  0  0  0  0
    8.5183  -22.8717   18.2375 C   0  0  0  0  0  0  0  0  0  0  0  0
    9.3261  -24.0283   17.6639 C   0  0  0  0  0  0  0  0  0  0  0  0
    8.3651  -25.1624   17.2843 C   0  0  0  0  0  0  0  0  0  0  0  0
    9.0616  -26.3160   16.7940 N   0  0  0  0  0  0  0  0  0  0  0  0
    9.6759  -19.4111   19.1353 C   0  0  0  0  0  0  0  0  0  0  0  0
   10.8997  -19.3593   19.3765 O   0  0  0  0  0  0  0  0  0  0  0  0
    7.9664  -11.6337   23.0144 N   0  0  0  0  0  0  0  0  0  0  0  0
    7.7001  -12.2881   21.7740 C   0  0  0  0  0  0  0  0  0  0  0  0
    7.9975  -11.7099   20.6698 N   0  0  0  0  0  0  0  0  0  0  0  0
    7.1043  -13.5799   21.7369 N   0  0  0  0  0  0  0  0  0  0  0  0
    7.5049  -14.6618   22.5950 C   0  0  0  0  0  0  0  0  0  0  0  0
    8.6188  -15.5154   22.0947 C   0  0  0  0  0  0  0  0  0  0  0  0
    8.1388  -16.6420   21.2550 C   0  0  0  0  0  0  0  0  0  0  0  0
    9.3111  -17.4877   20.7297 C   0  0  2  0  0  0  0  0  0  0  0  0
    8.8340  -18.4843   19.8119 N   0  0  0  0  0  0  0  0  0  0  0  0
   10.0386  -18.0756   21.8787 C   0  0  0  0  0  0  0  0  0  0  0  0
    9.5791  -19.2586   22.4259 O   0  0  0  0  0  0  0  0  0  0  0  0
   11.0567  -17.5423   22.3762 O   0  0  0  0  0  0  0  0  0  0  0  0
  2  1  1  6
  2  3  1  0
  3  4  1  0
  4  8  1  0
  4  5  2  0
  5  6  1  0
  7  6  1  0
  8  7  2  0
  9  2  1  0
  9 11  1  0
 10  9  2  0
 11 12  1  0
 13 14  1  0
 12 13  1  1
 14 15  1  0
 15 16  1  0
 17 16  1  0
 18 12  1  0
 19 18  2  0
 20 21  1  0
 21 22  2  0
 23 21  1  0
 23 24  1  0
 24 25  1  0
 26 25  1  0
 27 26  1  1
 27 28  1  0
 27 29  1  0
 28 18  1  0
 29 30  1  0
 31 29  2  0
M  END
$$$$
