HKR.pdb
     RDKit          3D

 31 31  0  0  1  0  0  0  0  0999 V2000
    7.5418  -16.7644   18.8255 N   0  0  0  0  0  0  0  0  0  0  0  0
    8.6402  -16.2712   19.5903 C   0  0  1  0  0  0  0  0  0  0  0  0
    8.4969  -14.8067   19.8145 C   0  0  0  0  0  0  0  0  0  0  0  0
    8.1432  -14.0439   18.5924 C   0  0  0  0  0  0  0  0  0  0  0  0
    7.0347  -13.2242   18.3785 C   0  0  0  0  0  0  0  0  0  0  0  0
    7.0868  -12.7186   17.1317 N   0  0  0  0  0  0  0  0  0  0  0  0
    8.1905  -13.1925   16.5537 C   0  0  0  0  0  0  0  0  0  0  0  0
    8.8384  -14.0023   17.4427 N   0  0  0  0  0  0  0  0  0  0  0  0
    8.8105  -17.0506   20.8495 C   0  0  0  0  0  0  0  0  0  0  0  0
    8.9381  -16.3860   21.8989 O   0  0  0  0  0  0  0  0  0  0  0  0
    8.8317  -18.4422   20.8987 N   0  0  0  0  0  0  0  0  0  0  0  0
    9.2428  -19.3102   21.9309 C   0  0  1  0  0  0  0  0  0  0  0  0
    8.9061  -20.7644   21.8266 C   0  0  0  0  0  0  0  0  0  0  0  0
    9.3111  -21.6542   22.9248 C   0  0  0  0  0  0  0  0  0  0  0  0
    9.0611  -23.1273   22.6301 C   0  0  0  0  0  0  0  0  0  0  0  0
    9.3377  -23.9398   23.9018 C   0  0  0  0  0  0  0  0  0  0  0  0
    9.2990  -25.3522   23.6566 N   0  0  0  0  0  0  0  0  0  0  0  0
   10.6300  -19.1623   22.3954 C   0  0  0  0  0  0  0  0  0  0  0  0
   11.4988  -18.7762   21.5861 O   0  0  0  0  0  0  0  0  0  0  0  0
   10.2520  -15.9232   29.9603 N   0  0  0  0  0  0  0  0  0  0  0  0
   10.2538  -14.8329   29.0390 C   0  0  0  0  0  0  0  0  0  0  0  0
    9.8579  -13.6748   29.4189 N   0  0  0  0  0  0  0  0  0  0  0  0
   10.6880  -15.0062   27.6949 N   0  0  0  0  0  0  0  0  0  0  0  0
   10.9204  -16.2932   27.0975 C   0  0  0  0  0  0  0  0  0  0  0  0
   11.4801  -16.2820   25.7169 C   0  0  0  0  0  0  0  0  0  0  0  0
   10.8176  -17.2687   24.8267 C   0  0  0  0  0  0  0  0  0  0  0  0
   11.7219  -18.4858   24.5690 C   0  0  2  0  0  0  0  0  0  0  0  0
   11.0498  -19.4361   23.7275 N   0  0  0  0  0  0  0  0  0  0  0  0
   12.1332  -19.0684   25.8677 C   0  0  0  0  0  0  0  0  0  0  0  0
   11.4266  -20.1442   26.3712 O   0  0  0  0  0  0  0  0  0  0  0  0
   13.0986  -18.6242   26.5304 O   0  0  0  0  0  0  0  0  0  0  0  0
  2  1  1  1
  2  3  1  0
  3  4  1  0
  4  8  1  0
  4  5  2  0
  5  6  1  0
  7  6  1  0
  8  7  2  0
  9  2  1  0
  9 11  1  0
 10  9  2  0
 11 12  1  0
 13 14  1  0
 12 13  1  6
 14 15  1  0
 15 16  1  0
 17 16  1  0
 18 12  1  0
 19 18  2  0
 20 21  1  0
 21 22  2  0
 23 21  1  0
 23 24  1  0
 24 25  1  0
 26 25  1  0
 27 26  1  1
 27 28  1  0
 27 29  1  0
 28 18  1  0
 29 30  1  0
 31 29  2  0
M  END
$$$$
