HKR.pdb
     RDKit          3D

 31 31  0  0  1  0  0  0  0  0999 V2000
    8.5166  -16.5225   19.2283 N   0  0  0  0  0  0  0  0  0  0  0  0
    7.9854  -15.5410   20.1167 C   0  0  1  0  0  0  0  0  0  0  0  0
    6.9586  -14.7175   19.4216 C   0  0  0  0  0  0  0  0  0  0  0  0
    7.4063  -14.1769   18.1148 C   0  0  0  0  0  0  0  0  0  0  0  0
    7.9660  -12.9278   17.8448 C   0  0  0  0  0  0  0  0  0  0  0  0
    8.2310  -12.8322   16.5282 N   0  0  0  0  0  0  0  0  0  0  0  0
    7.8569  -13.9789   15.9605 C   0  0  0  0  0  0  0  0  0  0  0  0
    7.3527  -14.8027   16.9264 N   0  0  0  0  0  0  0  0  0  0  0  0
    7.4911  -16.1678   21.3757 C   0  0  0  0  0  0  0  0  0  0  0  0
    6.9755  -15.3973   22.2122 O   0  0  0  0  0  0  0  0  0  0  0  0
    7.5787  -17.5313   21.6449 N   0  0  0  0  0  0  0  0  0  0  0  0
    7.2108  -18.2571   22.7962 C   0  0  1  0  0  0  0  0  0  0  0  0
    7.0084  -19.7353   22.6822 C   0  0  0  0  0  0  0  0  0  0  0  0
    6.5688  -20.4727   23.8759 C   0  0  0  0  0  0  0  0  0  0  0  0
    6.3101  -21.9498   23.6102 C   0  0  0  0  0  0  0  0  0  0  0  0
    5.8075  -22.6042   24.9036 C   0  0  0  0  0  0  0  0  0  0  0  0
    5.7051  -24.0293   24.7807 N   0  0  0  0  0  0  0  0  0  0  0  0
    7.9635  -17.9606   24.0240 C   0  0  0  0  0  0  0  0  0  0  0  0
    9.1737  -18.2629   24.0769 O   0  0  0  0  0  0  0  0  0  0  0  0
    6.5939  -10.5218   26.1136 N   0  0  0  0  0  0  0  0  0  0  0  0
    6.3634  -11.5438   27.0832 C   0  0  0  0  0  0  0  0  0  0  0  0
    5.5771  -11.3221   28.0705 N   0  0  0  0  0  0  0  0  0  0  0  0
    6.9951  -12.8145   26.9771 N   0  0  0  0  0  0  0  0  0  0  0  0
    8.1648  -13.0530   26.1757 C   0  0  0  0  0  0  0  0  0  0  0  0
    8.7216  -14.4339   26.2257 C   0  0  0  0  0  0  0  0  0  0  0  0
    7.7167  -15.4367   26.6611 C   0  0  0  0  0  0  0  0  0  0  0  0
    8.1532  -16.8641   26.2903 C   0  0  2  0  0  0  0  0  0  0  0  0
    7.3908  -17.3430   25.1712 N   0  0  0  0  0  0  0  0  0  0  0  0
    8.0230  -17.7361   27.4810 C   0  0  0  0  0  0  0  0  0  0  0  0
    8.9271  -17.5924   28.5165 O   0  0  0  0  0  0  0  0  0  0  0  0
    7.1239  -18.6014   27.5880 O   0  0  0  0  0  0  0  0  0  0  0  0
  2  1  1  6
  2  3  1  0
  3  4  1  0
  4  8  1  0
  4  5  2  0
  5  6  1  0
  7  6  1  0
  8  7  2  0
  9  2  1  0
  9 11  1  0
 10  9  2  0
 11 12  1  0
 13 14  1  0
 12 13  1  6
 14 15  1  0
 15 16  1  0
 17 16  1  0
 18 12  1  0
 19 18  2  0
 20 21  1  0
 21 22  2  0
 23 21  1  0
 23 24  1  0
 24 25  1  0
 26 25  1  0
 27 26  1  1
 27 28  1  0
 27 29  1  0
 28 18  1  0
 29 30  1  0
 31 29  2  0
M  END
$$$$
