HKR.pdb
     RDKit          3D

 31 31  0  0  1  0  0  0  0  0999 V2000
    7.3766  -16.8848   18.1165 N   0  0  0  0  0  0  0  0  0  0  0  0
    8.6980  -16.4777   18.4669 C   0  0  1  0  0  0  0  0  0  0  0  0
    8.7719  -14.9944   18.5664 C   0  0  0  0  0  0  0  0  0  0  0  0
    8.3552  -14.2882   17.3303 C   0  0  0  0  0  0  0  0  0  0  0  0
    7.3129  -13.3750   17.1689 C   0  0  0  0  0  0  0  0  0  0  0  0
    7.2701  -12.9679   15.8862 N   0  0  0  0  0  0  0  0  0  0  0  0
    8.2501  -13.5942   15.2348 C   0  0  0  0  0  0  0  0  0  0  0  0
    8.9151  -14.4014   16.1135 N   0  0  0  0  0  0  0  0  0  0  0  0
    9.1678  -17.1792   19.6956 C   0  0  0  0  0  0  0  0  0  0  0  0
    8.3066  -17.3936   20.5740 O   0  0  0  0  0  0  0  0  0  0  0  0
   10.4835  -17.5903   19.8940 N   0  0  0  0  0  0  0  0  0  0  0  0
   11.0556  -18.3340   20.9463 C   0  0  1  0  0  0  0  0  0  0  0  0
   12.1340  -19.3213   20.6277 C   0  0  0  0  0  0  0  0  0  0  0  0
   12.6135  -20.2011   21.7038 C   0  0  0  0  0  0  0  0  0  0  0  0
   13.7420  -21.1262   21.2678 C   0  0  0  0  0  0  0  0  0  0  0  0
   14.1438  -22.0099   22.4558 C   0  0  0  0  0  0  0  0  0  0  0  0
   15.2168  -22.9016   22.1241 N   0  0  0  0  0  0  0  0  0  0  0  0
   11.4247  -17.5806   22.1538 C   0  0  0  0  0  0  0  0  0  0  0  0
   12.0703  -16.5194   22.0283 O   0  0  0  0  0  0  0  0  0  0  0  0
   10.3915  -13.4632   28.1377 N   0  0  0  0  0  0  0  0  0  0  0  0
   10.2584  -14.5448   29.0597 C   0  0  0  0  0  0  0  0  0  0  0  0
   11.0341  -14.6161   30.0772 N   0  0  0  0  0  0  0  0  0  0  0  0
    9.2750  -15.5559   28.8705 N   0  0  0  0  0  0  0  0  0  0  0  0
    9.1208  -16.2913   27.6447 C   0  0  0  0  0  0  0  0  0  0  0  0
   10.3295  -16.3790   26.7782 C   0  0  0  0  0  0  0  0  0  0  0  0
   10.0856  -17.1609   25.5396 C   0  0  0  0  0  0  0  0  0  0  0  0
   11.3387  -17.2039   24.6489 C   0  0  2  0  0  0  0  0  0  0  0  0
   11.0877  -17.9913   23.4742 N   0  0  0  0  0  0  0  0  0  0  0  0
   12.4808  -17.7154   25.4421 C   0  0  0  0  0  0  0  0  0  0  0  0
   13.2717  -16.8158   26.1316 O   0  0  0  0  0  0  0  0  0  0  0  0
   12.7598  -18.9342   25.5137 O   0  0  0  0  0  0  0  0  0  0  0  0
  2  1  1  1
  2  3  1  0
  3  4  1  0
  4  8  1  0
  4  5  2  0
  5  6  1  0
  7  6  1  0
  8  7  2  0
  9  2  1  0
  9 11  1  0
 10  9  2  0
 11 12  1  0
 13 14  1  0
 12 13  1  6
 14 15  1  0
 15 16  1  0
 17 16  1  0
 18 12  1  0
 19 18  2  0
 20 21  1  0
 21 22  2  0
 23 21  1  0
 23 24  1  0
 24 25  1  0
 26 25  1  0
 27 26  1  1
 27 28  1  0
 27 29  1  0
 28 18  1  0
 29 30  1  0
 31 29  2  0
M  END
$$$$
