HKR.pdb
     RDKit          3D

 31 31  0  0  1  0  0  0  0  0999 V2000
    6.5978  -14.1449   22.6458 N   0  0  0  0  0  0  0  0  0  0  0  0
    6.8522  -15.3591   21.9418 C   0  0  1  0  0  0  0  0  0  0  0  0
    8.0901  -15.2325   21.1250 C   0  0  0  0  0  0  0  0  0  0  0  0
    8.0705  -14.0910   20.1779 C   0  0  0  0  0  0  0  0  0  0  0  0
    7.1346  -13.0600   20.0897 C   0  0  0  0  0  0  0  0  0  0  0  0
    7.4823  -12.2251   19.0923 N   0  0  0  0  0  0  0  0  0  0  0  0
    8.6052  -12.6959   18.5496 C   0  0  0  0  0  0  0  0  0  0  0  0
    8.9676  -13.8354   19.2100 N   0  0  0  0  0  0  0  0  0  0  0  0
    6.8707  -16.5247   22.8709 C   0  0  0  0  0  0  0  0  0  0  0  0
    7.3244  -16.3135   24.0149 O   0  0  0  0  0  0  0  0  0  0  0  0
    6.4170  -17.7950   22.5244 N   0  0  0  0  0  0  0  0  0  0  0  0
    6.5122  -19.0167   23.2214 C   0  0  1  0  0  0  0  0  0  0  0  0
    5.7821  -20.2093   22.6884 C   0  0  0  0  0  0  0  0  0  0  0  0
    4.5286  -19.9876   21.9526 C   0  0  0  0  0  0  0  0  0  0  0  0
    3.3408  -20.7321   22.5478 C   0  0  0  0  0  0  0  0  0  0  0  0
    2.1011  -20.4530   21.6883 C   0  0  0  0  0  0  0  0  0  0  0  0
    0.9351  -21.1169   22.1944 N   0  0  0  0  0  0  0  0  0  0  0  0
    7.8590  -19.4208   23.6512 C   0  0  0  0  0  0  0  0  0  0  0  0
    8.8392  -19.0914   22.9516 O   0  0  0  0  0  0  0  0  0  0  0  0
    9.9974  -14.2982   29.4769 N   0  0  0  0  0  0  0  0  0  0  0  0
   10.4329  -14.3709   28.1194 C   0  0  0  0  0  0  0  0  0  0  0  0
   10.8266  -13.3106   27.5171 N   0  0  0  0  0  0  0  0  0  0  0  0
   10.4376  -15.6066   27.4135 N   0  0  0  0  0  0  0  0  0  0  0  0
    9.8911  -16.8251   27.9463 C   0  0  0  0  0  0  0  0  0  0  0  0
   10.1641  -18.0621   27.1622 C   0  0  0  0  0  0  0  0  0  0  0  0
    9.0384  -18.4266   26.2651 C   0  0  0  0  0  0  0  0  0  0  0  0
    9.1704  -19.8736   25.7607 C   0  0  2  0  0  0  0  0  0  0  0  0
    8.1183  -20.1744   24.8304 N   0  0  0  0  0  0  0  0  0  0  0  0
    9.1816  -20.7933   26.9222 C   0  0  0  0  0  0  0  0  0  0  0  0
   10.3854  -21.0744   27.5404 O   0  0  0  0  0  0  0  0  0  0  0  0
    8.1410  -21.3284   27.3685 O   0  0  0  0  0  0  0  0  0  0  0  0
  2  1  1  1
  2  3  1  0
  3  4  1  0
  4  8  1  0
  4  5  2  0
  5  6  1  0
  7  6  1  0
  8  7  2  0
  9  2  1  0
  9 11  1  0
 10  9  2  0
 11 12  1  0
 13 14  1  0
 12 13  1  6
 14 15  1  0
 15 16  1  0
 17 16  1  0
 18 12  1  0
 19 18  2  0
 20 21  1  0
 21 22  2  0
 23 21  1  0
 23 24  1  0
 24 25  1  0
 26 25  1  0
 27 26  1  1
 27 28  1  0
 27 29  1  0
 28 18  1  0
 29 30  1  0
 31 29  2  0
M  END
$$$$
