HKR.pdb
     RDKit          3D

 31 31  0  0  1  0  0  0  0  0999 V2000
   12.3611  -19.3607   18.3761 N   0  0  0  0  0  0  0  0  0  0  0  0
   11.0216  -19.3629   18.8667 C   0  0  1  0  0  0  0  0  0  0  0  0
   10.6835  -20.6949   19.4386 C   0  0  0  0  0  0  0  0  0  0  0  0
   10.5682  -21.7718   18.4249 C   0  0  0  0  0  0  0  0  0  0  0  0
   10.6891  -21.6675   17.0389 C   0  0  0  0  0  0  0  0  0  0  0  0
   10.5144  -22.8811   16.4827 N   0  0  0  0  0  0  0  0  0  0  0  0
   10.2874  -23.7456   17.4717 C   0  0  0  0  0  0  0  0  0  0  0  0
   10.3196  -23.0718   18.6595 N   0  0  0  0  0  0  0  0  0  0  0  0
   10.7954  -18.2350   19.8149 C   0  0  0  0  0  0  0  0  0  0  0  0
   11.6445  -18.0936   20.7194 O   0  0  0  0  0  0  0  0  0  0  0  0
    9.7120  -17.3639   19.7333 N   0  0  0  0  0  0  0  0  0  0  0  0
    9.3327  -16.3016   20.5790 C   0  0  1  0  0  0  0  0  0  0  0  0
    8.3476  -15.2948   20.0741 C   0  0  0  0  0  0  0  0  0  0  0  0
    8.1061  -14.0901   20.8817 C   0  0  0  0  0  0  0  0  0  0  0  0
    7.2714  -13.0393   20.1616 C   0  0  0  0  0  0  0  0  0  0  0  0
    7.0942  -11.8289   21.0875 C   0  0  0  0  0  0  0  0  0  0  0  0
    6.3423  -10.7796   20.4630 N   0  0  0  0  0  0  0  0  0  0  0  0
    8.9994  -16.6575   21.9662 C   0  0  0  0  0  0  0  0  0  0  0  0
    8.1299  -17.5294   22.1724 O   0  0  0  0  0  0  0  0  0  0  0  0
   13.1585  -17.4123   29.3367 N   0  0  0  0  0  0  0  0  0  0  0  0
   11.7749  -17.5742   29.6486 C   0  0  0  0  0  0  0  0  0  0  0  0
   11.4254  -18.2982   30.6465 N   0  0  0  0  0  0  0  0  0  0  0  0
   10.7661  -16.9447   28.8668 N   0  0  0  0  0  0  0  0  0  0  0  0
   10.9660  -16.5227   27.5070 C   0  0  0  0  0  0  0  0  0  0  0  0
    9.8007  -15.8704   26.8465 C   0  0  0  0  0  0  0  0  0  0  0  0
   10.0787  -15.5050   25.4344 C   0  0  0  0  0  0  0  0  0  0  0  0
    9.2592  -16.3689   24.4609 C   0  0  2  0  0  0  0  0  0  0  0  0
    9.6139  -16.0620   23.1034 N   0  0  0  0  0  0  0  0  0  0  0  0
    7.8163  -16.1675   24.7302 C   0  0  0  0  0  0  0  0  0  0  0  0
    7.1850  -16.9928   25.6415 O   0  0  0  0  0  0  0  0  0  0  0  0
    7.1426  -15.2765   24.1637 O   0  0  0  0  0  0  0  0  0  0  0  0
  2  1  1  1
  2  3  1  0
  3  4  1  0
  4  8  1  0
  4  5  2  0
  5  6  1  0
  7  6  1  0
  8  7  2  0
  9  2  1  0
  9 11  1  0
 10  9  2  0
 11 12  1  0
 13 14  1  0
 12 13  1  6
 14 15  1  0
 15 16  1  0
 17 16  1  0
 18 12  1  0
 19 18  2  0
 20 21  1  0
 21 22  2  0
 23 21  1  0
 23 24  1  0
 24 25  1  0
 26 25  1  0
 27 26  1  1
 27 28  1  0
 27 29  1  0
 28 18  1  0
 29 30  1  0
 31 29  2  0
M  END
$$$$
