ERT.pdb
     RDKit          3D

 28 27  0  0  1  0  0  0  0  0999 V2000
   27.4614  -21.9076  -16.8296 N   0  0  0  0  0  0  0  0  0  0  0  0
   27.2905  -20.7800  -15.9450 C   0  0  1  0  0  0  0  0  0  0  0  0
   26.9830  -19.5625  -16.7459 C   0  0  0  0  0  0  0  0  0  0  0  0
   28.1541  -19.2020  -17.6136 C   0  0  0  0  0  0  0  0  0  0  0  0
   27.9971  -17.9876  -18.4168 C   0  0  0  0  0  0  0  0  0  0  0  0
   26.9764  -17.2646  -18.3115 O   0  0  0  0  0  0  0  0  0  0  0  0
   26.2125  -21.1130  -14.9726 C   0  0  0  0  0  0  0  0  0  0  0  0
   25.2966  -21.9244  -15.2519 O   0  0  0  0  0  0  0  0  0  0  0  0
   28.9750  -17.6002  -19.3196 O   0  0  0  0  0  0  0  0  0  0  0  0
   23.3787  -22.5968   -8.3699 N   0  0  0  0  0  0  0  0  0  0  0  0
   22.8953  -21.3643   -7.8151 C   0  0  0  0  0  0  0  0  0  0  0  0
   21.8948  -21.3718   -7.0326 N   0  0  0  0  0  0  0  0  0  0  0  0
   23.5464  -20.1225   -8.1470 N   0  0  0  0  0  0  0  0  0  0  0  0
   24.7097  -20.0969   -9.0096 C   0  0  0  0  0  0  0  0  0  0  0  0
   24.2654  -20.3705  -10.4305 C   0  0  0  0  0  0  0  0  0  0  0  0
   25.4239  -20.3229  -11.3830 C   0  0  0  0  0  0  0  0  0  0  0  0
   25.0936  -20.5596  -12.7991 C   0  0  2  0  0  0  0  0  0  0  0  0
   26.2227  -20.4972  -13.7002 N   0  0  0  0  0  0  0  0  0  0  0  0
   23.8816  -19.8535  -13.3142 C   0  0  0  0  0  0  0  0  0  0  0  0
   23.7560  -18.6074  -13.3433 O   0  0  0  0  0  0  0  0  0  0  0  0
   21.5343  -20.4822   -6.6321 C   0  0  0  0  0  0  0  0  0  0  0  0
   21.1812  -21.8011  -15.8502 C   0  0  2  0  0  0  0  0  0  0  0  0
   21.3429  -20.3064  -15.7060 O   0  0  0  0  0  0  0  0  0  0  0  0
   20.2280  -19.6653  -16.2563 C   0  0  1  0  0  0  0  0  0  0  0  0
   21.5406  -19.8880  -14.2544 N   0  0  0  0  0  0  0  0  0  0  0  0
   22.7636  -20.5776  -13.8184 C   0  0  0  0  0  0  0  0  0  0  0  0
   20.3809  -20.2183  -13.4307 O   0  0  0  0  0  0  0  0  0  0  0  0
   19.1859  -19.5666  -13.7271 O   0  0  0  0  0  0  0  0  0  0  0  0
  2  1  1  6
  2  7  1  0
  2  3  1  0
  4  3  1  0
  4  5  1  0
  5  6  2  0
  7  8  2  0
  9  5  1  0
 11 12  2  0
 11 10  1  0
 13 11  1  0
 14 15  1  0
 14 13  1  0
 16 15  1  0
 17 16  1  1
 18 17  1  0
 18  7  1  0
 19 20  2  0
 19 17  1  0
 22 21  1  6
 22 23  1  0
 24 22  1  0
 24 25  1  6
 25 19  1  0
 26 27  1  0
 26 24  1  0
 28 26  2  0
M  END
$$$$
