ERT.pdb
     RDKit          3D

 28 27  0  0  1  0  0  0  0  0999 V2000
   22.4670  -18.3792  -16.2787 N   0  0  0  0  0  0  0  0  0  0  0  0
   22.8813  -18.8949  -14.9958 C   0  0  1  0  0  0  0  0  0  0  0  0
   21.8943  -19.9058  -14.5245 C   0  0  0  0  0  0  0  0  0  0  0  0
   20.7256  -19.9685  -15.4651 C   0  0  0  0  0  0  0  0  0  0  0  0
   19.7227  -20.9917  -15.1618 C   0  0  0  0  0  0  0  0  0  0  0  0
   18.6937  -21.1245  -15.8682 O   0  0  0  0  0  0  0  0  0  0  0  0
   24.2520  -19.4587  -15.1436 C   0  0  0  0  0  0  0  0  0  0  0  0
   24.9787  -19.1824  -16.1290 O   0  0  0  0  0  0  0  0  0  0  0  0
   19.8820  -21.8461  -14.0820 O   0  0  0  0  0  0  0  0  0  0  0  0
   25.5713  -20.6998   -7.9872 N   0  0  0  0  0  0  0  0  0  0  0  0
   24.7809  -20.7426   -9.1847 C   0  0  0  0  0  0  0  0  0  0  0  0
   23.5161  -20.8302   -9.1053 N   0  0  0  0  0  0  0  0  0  0  0  0
   25.4239  -20.6856  -10.4728 N   0  0  0  0  0  0  0  0  0  0  0  0
   26.8617  -20.5498  -10.5839 C   0  0  0  0  0  0  0  0  0  0  0  0
   27.2169  -20.3348  -12.0395 C   0  0  0  0  0  0  0  0  0  0  0  0
   26.5933  -21.3829  -12.9138 C   0  0  0  0  0  0  0  0  0  0  0  0
   26.0714  -20.9054  -14.2061 C   0  0  2  0  0  0  0  0  0  0  0  0
   24.7468  -20.3289  -14.1455 N   0  0  0  0  0  0  0  0  0  0  0  0
   26.2683  -21.8225  -15.3693 C   0  0  0  0  0  0  0  0  0  0  0  0
   25.6566  -22.9054  -15.5194 O   0  0  0  0  0  0  0  0  0  0  0  0
   22.9384  -20.8899   -9.9681 C   0  0  0  0  0  0  0  0  0  0  0  0
   26.4852  -20.5314  -19.0484 C   0  0  2  0  0  0  0  0  0  0  0  0
   27.6476  -21.4453  -18.7410 O   0  0  0  0  0  0  0  0  0  0  0  0
   28.7833  -20.6744  -18.4709 C   0  0  2  0  0  0  0  0  0  0  0  0
   27.3477  -22.3845  -17.5795 N   0  0  0  0  0  0  0  0  0  0  0  0
   27.1911  -21.5099  -16.4082 C   0  0  0  0  0  0  0  0  0  0  0  0
   28.3981  -23.3835  -17.4029 O   0  0  0  0  0  0  0  0  0  0  0  0
   29.1859  -23.2802  -16.2587 O   0  0  0  0  0  0  0  0  0  0  0  0
  2  1  1  6
  2  7  1  0
  2  3  1  0
  4  3  1  0
  4  5  1  0
  5  6  2  0
  7  8  2  0
  9  5  1  0
 11 12  2  0
 11 10  1  0
 13 11  1  0
 14 15  1  0
 14 13  1  0
 16 15  1  0
 17 16  1  1
 18 17  1  0
 18  7  1  0
 19 20  2  0
 19 17  1  0
 22 21  1  6
 22 23  1  0
 24 22  1  0
 24 25  1  6
 25 19  1  0
 26 27  1  0
 26 24  1  0
 28 26  2  0
M  END
$$$$
