ERT.pdb
     RDKit          3D

 28 27  0  0  1  0  0  0  0  0999 V2000
   23.2391  -18.7204  -19.7948 N   0  0  0  0  0  0  0  0  0  0  0  0
   23.3797  -17.9822  -18.5626 C   0  0  1  0  0  0  0  0  0  0  0  0
   24.6796  -17.2552  -18.5646 C   0  0  0  0  0  0  0  0  0  0  0  0
   24.6359  -16.1156  -19.5413 C   0  0  0  0  0  0  0  0  0  0  0  0
   25.8656  -15.3280  -19.6509 C   0  0  0  0  0  0  0  0  0  0  0  0
   26.7787  -15.6539  -20.4480 O   0  0  0  0  0  0  0  0  0  0  0  0
   22.2119  -17.0665  -18.4349 C   0  0  0  0  0  0  0  0  0  0  0  0
   21.7275  -16.4693  -19.4269 O   0  0  0  0  0  0  0  0  0  0  0  0
   26.0569  -14.1956  -18.8746 O   0  0  0  0  0  0  0  0  0  0  0  0
   14.5875  -17.3495  -14.0989 N   0  0  0  0  0  0  0  0  0  0  0  0
   14.6537  -16.0569  -14.7198 C   0  0  0  0  0  0  0  0  0  0  0  0
   13.6152  -15.3275  -14.7751 N   0  0  0  0  0  0  0  0  0  0  0  0
   15.8975  -15.5905  -15.2779 N   0  0  0  0  0  0  0  0  0  0  0  0
   17.0534  -16.4599  -15.3555 C   0  0  0  0  0  0  0  0  0  0  0  0
   18.1694  -15.7202  -16.0615 C   0  0  0  0  0  0  0  0  0  0  0  0
   19.3946  -16.5768  -16.1917 C   0  0  0  0  0  0  0  0  0  0  0  0
   20.5094  -15.9820  -16.9491 C   0  0  2  0  0  0  0  0  0  0  0  0
   21.6342  -16.8657  -17.1605 N   0  0  0  0  0  0  0  0  0  0  0  0
   20.9070  -14.5985  -16.5483 C   0  0  0  0  0  0  0  0  0  0  0  0
   21.7275  -14.3413  -15.6372 O   0  0  0  0  0  0  0  0  0  0  0  0
   13.6466  -14.4042  -15.2529 C   0  0  0  0  0  0  0  0  0  0  0  0
   20.1922  -11.3820  -19.1469 C   0  0  2  0  0  0  0  0  0  0  0  0
   21.2474  -11.4273  -18.0674 O   0  0  0  0  0  0  0  0  0  0  0  0
   21.6918  -10.1281  -17.7999 C   0  0  1  0  0  0  0  0  0  0  0  0
   20.7385  -12.0932  -16.7951 N   0  0  0  0  0  0  0  0  0  0  0  0
   20.3603  -13.4554  -17.1986 C   0  0  0  0  0  0  0  0  0  0  0  0
   19.6305  -11.3517  -16.1993 O   0  0  0  0  0  0  0  0  0  0  0  0
   19.9102  -10.0781  -15.7093 O   0  0  0  0  0  0  0  0  0  0  0  0
  2  1  1  6
  2  7  1  0
  2  3  1  0
  4  3  1  0
  4  5  1  0
  5  6  2  0
  7  8  2  0
  9  5  1  0
 11 12  2  0
 11 10  1  0
 13 11  1  0
 14 15  1  0
 14 13  1  0
 16 15  1  0
 17 16  1  1
 18 17  1  0
 18  7  1  0
 19 20  2  0
 19 17  1  0
 22 21  1  6
 22 23  1  0
 24 22  1  0
 24 25  1  6
 25 19  1  0
 26 27  1  0
 26 24  1  0
 28 26  2  0
M  END
$$$$
