ERT.pdb
     RDKit          3D

 28 27  0  0  1  0  0  0  0  0999 V2000
   32.8828  -25.4258  -15.1404 N   0  0  0  0  0  0  0  0  0  0  0  0
   32.8117  -25.2854  -16.5751 C   0  0  1  0  0  0  0  0  0  0  0  0
   32.5640  -26.6178  -17.1929 C   0  0  0  0  0  0  0  0  0  0  0  0
   33.8332  -27.4196  -17.2248 C   0  0  0  0  0  0  0  0  0  0  0  0
   33.7124  -28.7753  -17.7653 C   0  0  0  0  0  0  0  0  0  0  0  0
   32.6061  -29.2271  -18.1492 O   0  0  0  0  0  0  0  0  0  0  0  0
   31.7410  -24.2997  -16.8919 C   0  0  0  0  0  0  0  0  0  0  0  0
   30.9735  -23.8487  -16.0070 O   0  0  0  0  0  0  0  0  0  0  0  0
   34.8208  -29.6013  -17.8689 O   0  0  0  0  0  0  0  0  0  0  0  0
   32.6860  -19.0682  -21.1736 N   0  0  0  0  0  0  0  0  0  0  0  0
   31.4392  -18.3961  -21.4073 C   0  0  0  0  0  0  0  0  0  0  0  0
   31.3933  -17.1267  -21.3985 N   0  0  0  0  0  0  0  0  0  0  0  0
   30.2440  -19.1629  -21.6514 N   0  0  0  0  0  0  0  0  0  0  0  0
   30.2857  -20.6092  -21.7179 C   0  0  0  0  0  0  0  0  0  0  0  0
   29.9299  -21.1672  -20.3565 C   0  0  0  0  0  0  0  0  0  0  0  0
   30.9058  -22.2234  -19.9279 C   0  0  0  0  0  0  0  0  0  0  0  0
   30.6702  -22.8042  -18.5946 C   0  0  2  0  0  0  0  0  0  0  0  0
   31.5861  -23.8608  -18.2267 N   0  0  0  0  0  0  0  0  0  0  0  0
   29.2465  -23.1063  -18.2559 C   0  0  0  0  0  0  0  0  0  0  0  0
   28.6908  -24.2063  -18.4810 O   0  0  0  0  0  0  0  0  0  0  0  0
   30.4893  -16.6327  -21.5418 C   0  0  0  0  0  0  0  0  0  0  0  0
   25.1461  -21.4055  -15.9539 C   0  0  1  0  0  0  0  0  0  0  0  0
   26.5058  -21.1879  -16.5741 O   0  0  0  0  0  0  0  0  0  0  0  0
   27.4080  -20.7884  -15.5824 C   0  0  1  0  0  0  0  0  0  0  0  0
   27.0143  -22.4313  -17.2929 N   0  0  0  0  0  0  0  0  0  0  0  0
   28.4118  -22.1319  -17.6376 C   0  0  0  0  0  0  0  0  0  0  0  0
   26.2005  -22.7546  -18.4616 O   0  0  0  0  0  0  0  0  0  0  0  0
   25.2458  -23.7579  -18.3118 O   0  0  0  0  0  0  0  0  0  0  0  0
  2  1  1  1
  2  7  1  0
  2  3  1  0
  4  3  1  0
  4  5  1  0
  5  6  2  0
  7  8  2  0
  9  5  1  0
 11 12  2  0
 11 10  1  0
 13 11  1  0
 14 15  1  0
 14 13  1  0
 16 15  1  0
 17 16  1  6
 18 17  1  0
 18  7  1  0
 19 20  2  0
 19 17  1  0
 22 21  1  6
 22 23  1  0
 24 22  1  0
 24 25  1  6
 25 19  1  0
 26 27  1  0
 26 24  1  0
 28 26  2  0
M  END
$$$$
