ERT.pdb
     RDKit          3D

 28 27  0  0  1  0  0  0  0  0999 V2000
   18.5232   -9.1567  -13.2313 N   0  0  0  0  0  0  0  0  0  0  0  0
   18.7920   -8.5169  -11.9658 C   0  0  1  0  0  0  0  0  0  0  0  0
   19.8806   -7.5148  -12.1372 C   0  0  0  0  0  0  0  0  0  0  0  0
   21.1613   -8.1994  -12.5188 C   0  0  0  0  0  0  0  0  0  0  0  0
   21.6407   -7.9343  -13.8770 C   0  0  0  0  0  0  0  0  0  0  0  0
   21.3272   -8.6813  -14.8356 O   0  0  0  0  0  0  0  0  0  0  0  0
   17.5244   -7.9070  -11.4762 C   0  0  0  0  0  0  0  0  0  0  0  0
   16.6684   -7.4367  -12.2645 O   0  0  0  0  0  0  0  0  0  0  0  0
   22.4576   -6.8465  -14.1435 O   0  0  0  0  0  0  0  0  0  0  0  0
   14.5351  -11.6794   -9.9170 N   0  0  0  0  0  0  0  0  0  0  0  0
   13.1219  -11.4290   -9.8867 C   0  0  0  0  0  0  0  0  0  0  0  0
   12.3408  -12.1215  -10.6105 N   0  0  0  0  0  0  0  0  0  0  0  0
   12.5936  -10.3935   -9.0353 N   0  0  0  0  0  0  0  0  0  0  0  0
   13.4748   -9.4983   -8.3143 C   0  0  0  0  0  0  0  0  0  0  0  0
   14.3849   -8.8095   -9.3085 C   0  0  0  0  0  0  0  0  0  0  0  0
   15.3030   -7.8385   -8.6258 C   0  0  0  0  0  0  0  0  0  0  0  0
   16.2021   -7.0810   -9.5137 C   0  0  2  0  0  0  0  0  0  0  0  0
   17.2802   -7.8571  -10.0847 N   0  0  0  0  0  0  0  0  0  0  0  0
   16.6334   -5.7395   -9.0165 C   0  0  0  0  0  0  0  0  0  0  0  0
   17.4486   -5.5677   -8.0809 O   0  0  0  0  0  0  0  0  0  0  0  0
   11.3191  -11.9274  -10.6155 C   0  0  0  0  0  0  0  0  0  0  0  0
   18.0521   -2.7490  -10.9759 C   0  0  2  0  0  0  0  0  0  0  0  0
   16.7703   -2.3556  -10.2807 O   0  0  0  0  0  0  0  0  0  0  0  0
   15.7094   -2.4306  -11.1895 C   0  0  2  0  0  0  0  0  0  0  0  0
   16.4919   -3.2208   -9.0579 N   0  0  0  0  0  0  0  0  0  0  0  0
   16.1280   -4.5401   -9.5949 C   0  0  0  0  0  0  0  0  0  0  0  0
   15.4486   -2.6471   -8.2123 O   0  0  0  0  0  0  0  0  0  0  0  0
   15.7741   -1.4984   -7.4946 O   0  0  0  0  0  0  0  0  0  0  0  0
  2  1  1  6
  2  7  1  0
  2  3  1  0
  4  3  1  0
  4  5  1  0
  5  6  2  0
  7  8  2  0
  9  5  1  0
 11 12  2  0
 11 10  1  0
 13 11  1  0
 14 15  1  0
 14 13  1  0
 16 15  1  0
 17 16  1  1
 18 17  1  0
 18  7  1  0
 19 20  2  0
 19 17  1  0
 22 21  1  6
 22 23  1  0
 24 22  1  0
 24 25  1  1
 25 19  1  0
 26 27  1  0
 26 24  1  0
 28 26  2  0
M  END
$$$$
