ERT.pdb
     RDKit          3D

 28 27  0  0  1  0  0  0  0  0999 V2000
   24.4044  -24.6619  -15.4441 N   0  0  0  0  0  0  0  0  0  0  0  0
   24.5459  -23.2406  -15.2365 C   0  0  1  0  0  0  0  0  0  0  0  0
   25.2739  -22.6404  -16.3889 C   0  0  0  0  0  0  0  0  0  0  0  0
   26.7050  -23.0948  -16.3928 C   0  0  0  0  0  0  0  0  0  0  0  0
   27.6861  -22.1011  -15.9517 C   0  0  0  0  0  0  0  0  0  0  0  0
   27.3375  -20.9374  -15.6358 O   0  0  0  0  0  0  0  0  0  0  0  0
   23.1859  -22.6612  -15.0540 C   0  0  0  0  0  0  0  0  0  0  0  0
   22.1971  -23.0746  -15.7072 O   0  0  0  0  0  0  0  0  0  0  0  0
   29.0330  -22.4185  -15.8701 O   0  0  0  0  0  0  0  0  0  0  0  0
   16.5381  -23.1195  -10.6588 N   0  0  0  0  0  0  0  0  0  0  0  0
   17.7088  -23.9395  -10.7920 C   0  0  0  0  0  0  0  0  0  0  0  0
   17.6206  -25.1977  -10.6416 N   0  0  0  0  0  0  0  0  0  0  0  0
   18.9800  -23.3332  -11.0961 N   0  0  0  0  0  0  0  0  0  0  0  0
   19.1011  -21.9004  -11.2701 C   0  0  0  0  0  0  0  0  0  0  0  0
   19.6449  -21.6248  -12.6555 C   0  0  0  0  0  0  0  0  0  0  0  0
   21.1002  -21.2621  -12.6082 C   0  0  0  0  0  0  0  0  0  0  0  0
   21.7270  -20.9744  -13.9100 C   0  0  2  0  0  0  0  0  0  0  0  0
   23.0055  -21.6167  -14.1187 N   0  0  0  0  0  0  0  0  0  0  0  0
   21.7009  -19.5455  -14.3462 C   0  0  0  0  0  0  0  0  0  0  0  0
   22.2391  -18.6091  -13.7115 O   0  0  0  0  0  0  0  0  0  0  0  0
   18.4412  -25.8082  -10.8307 C   0  0  0  0  0  0  0  0  0  0  0  0
   19.9074  -18.3954  -18.1326 C   0  0  2  0  0  0  0  0  0  0  0  0
   21.0851  -17.7350  -17.4558 O   0  0  0  0  0  0  0  0  0  0  0  0
   21.2215  -16.4282  -17.9362 C   0  0  1  0  0  0  0  0  0  0  0  0
   20.9504  -17.7377  -15.9383 N   0  0  0  0  0  0  0  0  0  0  0  0
   21.0429  -19.1517  -15.5464 C   0  0  0  0  0  0  0  0  0  0  0  0
   19.7062  -17.1102  -15.5017 O   0  0  0  0  0  0  0  0  0  0  0  0
   19.5973  -15.7318  -15.6716 O   0  0  0  0  0  0  0  0  0  0  0  0
  2  1  1  6
  2  7  1  0
  2  3  1  0
  4  3  1  0
  4  5  1  0
  5  6  2  0
  7  8  2  0
  9  5  1  0
 11 12  2  0
 11 10  1  0
 13 11  1  0
 14 15  1  0
 14 13  1  0
 16 15  1  0
 17 16  1  1
 18 17  1  0
 18  7  1  0
 19 20  2  0
 19 17  1  0
 22 21  1  6
 22 23  1  0
 24 22  1  0
 24 25  1  6
 25 19  1  0
 26 27  1  0
 26 24  1  0
 28 26  2  0
M  END
$$$$
