ERT.pdb
     RDKit          3D

 28 27  0  0  1  0  0  0  0  0999 V2000
   25.6357  -23.1307  -14.9861 N   0  0  0  0  0  0  0  0  0  0  0  0
   25.0398  -21.8316  -14.7849 C   0  0  1  0  0  0  0  0  0  0  0  0
   25.4702  -20.9133  -15.8756 C   0  0  0  0  0  0  0  0  0  0  0  0
   24.9403  -19.5301  -15.6295 C   0  0  0  0  0  0  0  0  0  0  0  0
   25.3257  -18.5194  -16.6167 C   0  0  0  0  0  0  0  0  0  0  0  0
   26.4645  -18.5255  -17.1443 O   0  0  0  0  0  0  0  0  0  0  0  0
   23.5612  -22.0032  -14.7312 C   0  0  0  0  0  0  0  0  0  0  0  0
   22.9434  -22.6918  -15.5795 O   0  0  0  0  0  0  0  0  0  0  0  0
   24.4403  -17.5233  -16.9980 O   0  0  0  0  0  0  0  0  0  0  0  0
   18.8083  -24.4006   -8.3246 N   0  0  0  0  0  0  0  0  0  0  0  0
   19.2593  -25.0129   -9.5421 C   0  0  0  0  0  0  0  0  0  0  0  0
   19.4062  -26.2733   -9.6001 N   0  0  0  0  0  0  0  0  0  0  0  0
   19.5438  -24.1964  -10.6947 N   0  0  0  0  0  0  0  0  0  0  0  0
   19.1394  -22.8064  -10.7429 C   0  0  0  0  0  0  0  0  0  0  0  0
   19.4822  -22.2491  -12.1078 C   0  0  0  0  0  0  0  0  0  0  0  0
   20.9568  -22.0058  -12.2430 C   0  0  0  0  0  0  0  0  0  0  0  0
   21.4022  -21.5106  -13.5571 C   0  0  2  0  0  0  0  0  0  0  0  0
   22.8349  -21.3724  -13.6954 N   0  0  0  0  0  0  0  0  0  0  0  0
   20.6366  -20.3542  -14.1134 C   0  0  0  0  0  0  0  0  0  0  0  0
   20.6790  -19.1941  -13.6425 O   0  0  0  0  0  0  0  0  0  0  0  0
   19.7405  -26.7235  -10.4760 C   0  0  0  0  0  0  0  0  0  0  0  0
   20.3073  -19.4145  -17.9356 C   0  0  2  0  0  0  0  0  0  0  0  0
   18.9581  -19.6032  -17.2837 O   0  0  0  0  0  0  0  0  0  0  0  0
   18.4798  -20.8856  -17.5730 C   0  0  2  0  0  0  0  0  0  0  0  0
   19.0116  -19.3772  -15.7780 N   0  0  0  0  0  0  0  0  0  0  0  0
   19.7877  -20.5072  -15.2468 C   0  0  0  0  0  0  0  0  0  0  0  0
   17.6763  -19.2843  -15.1943 O   0  0  0  0  0  0  0  0  0  0  0  0
   16.9343  -18.1420  -15.4865 O   0  0  0  0  0  0  0  0  0  0  0  0
  2  1  1  6
  2  7  1  0
  2  3  1  0
  4  3  1  0
  4  5  1  0
  5  6  2  0
  7  8  2  0
  9  5  1  0
 11 12  2  0
 11 10  1  0
 13 11  1  0
 14 15  1  0
 14 13  1  0
 16 15  1  0
 17 16  1  1
 18 17  1  0
 18  7  1  0
 19 20  2  0
 19 17  1  0
 22 21  1  6
 22 23  1  0
 24 22  1  0
 24 25  1  1
 25 19  1  0
 26 27  1  0
 26 24  1  0
 28 26  2  0
M  END
$$$$
