ERT.pdb
     RDKit          3D

 28 27  0  0  1  0  0  0  0  0999 V2000
   24.7864  -17.4187  -17.2046 N   0  0  0  0  0  0  0  0  0  0  0  0
   24.1730  -18.4788  -17.9683 C   0  0  1  0  0  0  0  0  0  0  0  0
   25.2295  -19.2661  -18.6627 C   0  0  0  0  0  0  0  0  0  0  0  0
   25.9129  -18.4192  -19.6972 C   0  0  0  0  0  0  0  0  0  0  0  0
   26.9844  -19.0776  -20.4475 C   0  0  0  0  0  0  0  0  0  0  0  0
   26.7652  -19.6135  -21.5612 O   0  0  0  0  0  0  0  0  0  0  0  0
   23.3589  -19.3092  -17.0376 C   0  0  0  0  0  0  0  0  0  0  0  0
   22.8338  -20.3896  -17.4016 O   0  0  0  0  0  0  0  0  0  0  0  0
   28.2762  -19.1280  -19.9474 O   0  0  0  0  0  0  0  0  0  0  0  0
   24.9457  -21.1278   -9.0029 N   0  0  0  0  0  0  0  0  0  0  0  0
   25.3575  -21.0231  -10.3741 C   0  0  0  0  0  0  0  0  0  0  0  0
   26.5707  -21.2306  -10.6882 N   0  0  0  0  0  0  0  0  0  0  0  0
   24.3937  -20.6834  -11.3900 N   0  0  0  0  0  0  0  0  0  0  0  0
   22.9816  -20.5966  -11.0799 C   0  0  0  0  0  0  0  0  0  0  0  0
   22.2100  -20.4445  -12.3733 C   0  0  0  0  0  0  0  0  0  0  0  0
   23.0152  -19.7114  -13.4057 C   0  0  0  0  0  0  0  0  0  0  0  0
   22.4015  -19.6162  -14.7417 C   0  0  2  0  0  0  0  0  0  0  0  0
   23.1733  -18.8670  -15.7079 N   0  0  0  0  0  0  0  0  0  0  0  0
   20.9422  -19.2959  -14.7689 C   0  0  0  0  0  0  0  0  0  0  0  0
   20.4674  -18.1668  -14.5059 O   0  0  0  0  0  0  0  0  0  0  0  0
   26.8877  -21.1056  -11.6708 C   0  0  0  0  0  0  0  0  0  0  0  0
   16.4276  -20.7112  -16.2490 C   0  0  2  0  0  0  0  0  0  0  0  0
   17.9311  -20.8406  -16.1875 O   0  0  0  0  0  0  0  0  0  0  0  0
   18.4763  -20.4951  -17.4286 C   0  0  1  0  0  0  0  0  0  0  0  0
   18.5357  -19.9876  -15.0793 N   0  0  0  0  0  0  0  0  0  0  0  0
   19.9751  -20.2856  -15.1064 C   0  0  0  0  0  0  0  0  0  0  0  0
   17.9246  -20.2677  -13.7829 O   0  0  0  0  0  0  0  0  0  0  0  0
   16.8997  -19.4202  -13.3685 O   0  0  0  0  0  0  0  0  0  0  0  0
  2  1  1  1
  2  7  1  0
  2  3  1  0
  4  3  1  0
  4  5  1  0
  5  6  2  0
  7  8  2  0
  9  5  1  0
 11 12  2  0
 11 10  1  0
 13 11  1  0
 14 15  1  0
 14 13  1  0
 16 15  1  0
 17 16  1  1
 18 17  1  0
 18  7  1  0
 19 20  2  0
 19 17  1  0
 22 21  1  6
 22 23  1  0
 24 22  1  0
 24 25  1  1
 25 19  1  0
 26 27  1  0
 26 24  1  0
 28 26  2  0
M  END
$$$$
