ERT.pdb
     RDKit          3D

 28 27  0  0  1  0  0  0  0  0999 V2000
   12.4172  -18.3616    2.2882 N   0  0  0  0  0  0  0  0  0  0  0  0
   13.8115  -18.7343    2.2801 C   0  0  1  0  0  0  0  0  0  0  0  0
   14.4709  -18.2182    3.5118 C   0  0  0  0  0  0  0  0  0  0  0  0
   14.5593  -16.7201    3.4649 C   0  0  0  0  0  0  0  0  0  0  0  0
   15.1863  -16.0859    4.6265 C   0  0  0  0  0  0  0  0  0  0  0  0
   15.5823  -16.7655    5.6046 O   0  0  0  0  0  0  0  0  0  0  0  0
   13.8943  -20.2170    2.1648 C   0  0  0  0  0  0  0  0  0  0  0  0
   13.0926  -20.9734    2.7653 O   0  0  0  0  0  0  0  0  0  0  0  0
   15.3611  -14.7119    4.6791 O   0  0  0  0  0  0  0  0  0  0  0  0
   12.6540  -24.5771   -2.4803 N   0  0  0  0  0  0  0  0  0  0  0  0
   12.9520  -23.5617   -3.4503 C   0  0  0  0  0  0  0  0  0  0  0  0
   12.1138  -23.2971   -4.3674 N   0  0  0  0  0  0  0  0  0  0  0  0
   14.2003  -22.8455   -3.3808 N   0  0  0  0  0  0  0  0  0  0  0  0
   15.1617  -23.1213   -2.3332 C   0  0  0  0  0  0  0  0  0  0  0  0
   14.6730  -22.4879   -1.0482 C   0  0  0  0  0  0  0  0  0  0  0  0
   15.6093  -22.7708    0.0899 C   0  0  0  0  0  0  0  0  0  0  0  0
   15.2221  -22.1968    1.3903 C   0  0  2  0  0  0  0  0  0  0  0  0
   14.9043  -20.7866    1.3563 N   0  0  0  0  0  0  0  0  0  0  0  0
   16.0716  -22.5872    2.5559 C   0  0  0  0  0  0  0  0  0  0  0  0
   17.0495  -21.9196    2.9652 O   0  0  0  0  0  0  0  0  0  0  0  0
   12.3199  -22.5589   -5.0704 C   0  0  0  0  0  0  0  0  0  0  0  0
   16.3678  -25.0182    6.7850 C   0  0  2  0  0  0  0  0  0  0  0  0
   15.6825  -24.4208    5.5790 O   0  0  0  0  0  0  0  0  0  0  0  0
   15.0424  -23.2339    5.9514 C   0  0  1  0  0  0  0  0  0  0  0  0
   16.6540  -24.1698    4.4326 N   0  0  0  0  0  0  0  0  0  0  0  0
   15.8116  -23.7776    3.2933 C   0  0  0  0  0  0  0  0  0  0  0  0
   17.4765  -25.3429    4.1503 O   0  0  0  0  0  0  0  0  0  0  0  0
   18.5797  -25.5573    4.9735 O   0  0  0  0  0  0  0  0  0  0  0  0
  2  1  1  1
  2  7  1  0
  2  3  1  0
  4  3  1  0
  4  5  1  0
  5  6  2  0
  7  8  2  0
  9  5  1  0
 11 12  2  0
 11 10  1  0
 13 11  1  0
 14 15  1  0
 14 13  1  0
 16 15  1  0
 17 16  1  6
 18 17  1  0
 18  7  1  0
 19 20  2  0
 19 17  1  0
 22 21  1  1
 22 23  1  0
 24 22  1  0
 24 25  1  6
 25 19  1  0
 26 27  1  0
 26 24  1  0
 28 26  2  0
M  END
$$$$
