CTR.pdb
     RDKit          3D

 25 24  0  0  1  0  0  0  0  0999 V2000
    7.1474  -13.4223   18.3571 N   0  0  0  0  0  0  0  0  0  0  0  0
    7.9649  -14.0432   19.3557 C   0  0  1  0  0  0  0  0  0  0  0  0
    8.7094  -13.0061   20.1844 C   0  0  0  0  0  0  0  0  0  0  0  0
    9.9140  -12.0918   19.1902 S   0  0  0  0  0  0  0  0  0  0  0  0
    7.1736  -14.8772   20.2966 C   0  0  0  0  0  0  0  0  0  0  0  0
    6.2101  -14.3500   20.8871 O   0  0  0  0  0  0  0  0  0  0  0  0
    5.2342  -17.6437   19.4661 C   0  0  0  0  0  0  0  0  0  0  0  0
    6.0495  -18.1258   20.6136 C   0  0  1  0  0  0  0  0  0  0  0  0
    7.1382  -18.8482   20.0685 O   0  0  0  0  0  0  0  0  0  0  0  0
    6.6572  -17.0627   21.4768 C   0  0  2  0  0  0  0  0  0  0  0  0
    7.4629  -16.2385   20.5525 N   0  0  0  0  0  0  0  0  0  0  0  0
    7.5519  -17.5417   22.5321 C   0  0  0  0  0  0  0  0  0  0  0  0
    8.7804  -17.2018   22.5814 O   0  0  0  0  0  0  0  0  0  0  0  0
    9.3268  -13.0354   28.8332 N   0  0  0  0  0  0  0  0  0  0  0  0
    9.7577  -14.3205   29.2393 C   0  0  0  0  0  0  0  0  0  0  0  0
   10.5806  -14.4351   30.2228 N   0  0  0  0  0  0  0  0  0  0  0  0
    9.3203  -15.5169   28.6075 N   0  0  0  0  0  0  0  0  0  0  0  0
    8.9576  -15.5996   27.2104 C   0  0  0  0  0  0  0  0  0  0  0  0
    8.4933  -16.9696   26.8191 C   0  0  0  0  0  0  0  0  0  0  0  0
    7.8884  -17.0910   25.4731 C   0  0  0  0  0  0  0  0  0  0  0  0
    7.7884  -18.4412   24.8733 C   0  0  2  0  0  0  0  0  0  0  0  0
    7.1233  -18.4103   23.5676 N   0  0  0  0  0  0  0  0  0  0  0  0
    7.2258  -19.4893   25.7484 C   0  0  0  0  0  0  0  0  0  0  0  0
    6.0753  -19.9569   25.5819 O   0  0  0  0  0  0  0  0  0  0  0  0
    7.9765  -19.9905   26.8011 O   0  0  0  0  0  0  0  0  0  0  0  0
  2  1  1  6
  3  2  1  0
  3  4  1  0
  5  6  2  0
  5  2  1  0
  8  7  1  6
  8 10  1  0
  9  8  1  0
 10 12  1  0
 10 11  1  6
 11  5  1  0
 12 22  1  0
 13 12  2  0
 15 17  1  0
 15 14  1  0
 16 15  2  0
 18 17  1  0
 19 18  1  0
 20 19  1  0
 21 20  1  1
 22 21  1  0
 23 21  1  0
 23 25  1  0
 24 23  2  0
M  END
$$$$
