CTR.pdb
     RDKit          3D

 25 24  0  0  1  0  0  0  0  0999 V2000
    5.2219  -13.3589   27.0660 N   0  0  0  0  0  0  0  0  0  0  0  0
    6.4293  -13.1859   26.3154 C   0  0  1  0  0  0  0  0  0  0  0  0
    7.1974  -11.9563   26.7786 C   0  0  0  0  0  0  0  0  0  0  0  0
    6.2563  -10.4350   26.5050 S   0  0  0  0  0  0  0  0  0  0  0  0
    7.3430  -14.3510   26.4369 C   0  0  0  0  0  0  0  0  0  0  0  0
    7.7374  -14.6769   27.5742 O   0  0  0  0  0  0  0  0  0  0  0  0
    6.5734  -17.7832   25.7945 C   0  0  0  0  0  0  0  0  0  0  0  0
    7.7506  -17.4344   24.9541 C   0  0  1  0  0  0  0  0  0  0  0  0
    7.2475  -16.9903   23.7075 O   0  0  0  0  0  0  0  0  0  0  0  0
    8.6127  -16.3209   25.4655 C   0  0  2  0  0  0  0  0  0  0  0  0
    7.7851  -15.1051   25.3242 N   0  0  0  0  0  0  0  0  0  0  0  0
    9.8558  -16.0946   24.7260 C   0  0  0  0  0  0  0  0  0  0  0  0
   10.4651  -14.9743   24.7564 O   0  0  0  0  0  0  0  0  0  0  0  0
    7.3345  -14.3811   17.0893 N   0  0  0  0  0  0  0  0  0  0  0  0
    8.6266  -13.9137   17.4272 C   0  0  0  0  0  0  0  0  0  0  0  0
    9.0656  -12.8216   16.9054 N   0  0  0  0  0  0  0  0  0  0  0  0
    9.4832  -14.5986   18.3321 N   0  0  0  0  0  0  0  0  0  0  0  0
    9.0665  -15.0598   19.6375 C   0  0  0  0  0  0  0  0  0  0  0  0
   10.1787  -15.7210   20.3935 C   0  0  0  0  0  0  0  0  0  0  0  0
    9.8274  -16.2600   21.7271 C   0  0  0  0  0  0  0  0  0  0  0  0
   10.9149  -16.8234   22.5595 C   0  0  2  0  0  0  0  0  0  0  0  0
   10.4689  -17.0944   23.9291 N   0  0  0  0  0  0  0  0  0  0  0  0
   12.1889  -16.0771   22.5373 C   0  0  0  0  0  0  0  0  0  0  0  0
   12.8594  -15.9240   21.4898 O   0  0  0  0  0  0  0  0  0  0  0  0
   12.6848  -15.5165   23.7047 O   0  0  0  0  0  0  0  0  0  0  0  0
  2  1  1  1
  3  2  1  0
  3  4  1  0
  5  6  2  0
  5  2  1  0
  8  7  1  1
  8 10  1  0
  9  8  1  0
 10 12  1  0
 10 11  1  6
 11  5  1  0
 12 22  1  0
 13 12  2  0
 15 17  1  0
 15 14  1  0
 16 15  2  0
 18 17  1  0
 19 18  1  0
 20 19  1  0
 21 20  1  1
 22 21  1  0
 23 21  1  0
 23 25  1  0
 24 23  2  0
M  END
$$$$
