CTR.pdb
     RDKit          3D

 25 24  0  0  1  0  0  0  0  0999 V2000
    9.6222  -15.5066   14.9812 N   0  0  0  0  0  0  0  0  0  0  0  0
    8.8025  -15.9010   16.0874 C   0  0  1  0  0  0  0  0  0  0  0  0
    8.7565  -17.4157   16.2294 C   0  0  0  0  0  0  0  0  0  0  0  0
    8.0076  -18.2028   14.7821 S   0  0  0  0  0  0  0  0  0  0  0  0
    9.2900  -15.3495   17.3779 C   0  0  0  0  0  0  0  0  0  0  0  0
   10.4735  -14.9625   17.4460 O   0  0  0  0  0  0  0  0  0  0  0  0
    7.4474  -12.5916   19.3048 C   0  0  0  0  0  0  0  0  0  0  0  0
    7.7808  -13.7315   20.2011 C   0  0  1  0  0  0  0  0  0  0  0  0
    6.6517  -14.5856   20.2156 O   0  0  0  0  0  0  0  0  0  0  0  0
    8.9331  -14.5867   19.7710 C   0  0  2  0  0  0  0  0  0  0  0  0
    8.4749  -15.2442   18.5297 N   0  0  0  0  0  0  0  0  0  0  0  0
    9.3211  -15.6414   20.7094 C   0  0  0  0  0  0  0  0  0  0  0  0
    8.9274  -16.8468   20.5708 O   0  0  0  0  0  0  0  0  0  0  0  0
   13.0594  -21.3647   21.7154 N   0  0  0  0  0  0  0  0  0  0  0  0
   14.1108  -20.8185   22.4889 C   0  0  0  0  0  0  0  0  0  0  0  0
   15.3321  -21.0931   22.1879 N   0  0  0  0  0  0  0  0  0  0  0  0
   13.8863  -19.9636   23.6027 N   0  0  0  0  0  0  0  0  0  0  0  0
   13.6155  -18.5483   23.4856 C   0  0  0  0  0  0  0  0  0  0  0  0
   12.2857  -18.2698   22.8534 C   0  0  0  0  0  0  0  0  0  0  0  0
   11.9278  -16.8419   22.6947 C   0  0  0  0  0  0  0  0  0  0  0  0
   10.4972  -16.4686   22.7779 C   0  0  2  0  0  0  0  0  0  0  0  0
   10.1553  -15.4034   21.8310 N   0  0  0  0  0  0  0  0  0  0  0  0
    9.9904  -16.1776   24.1341 C   0  0  0  0  0  0  0  0  0  0  0  0
    9.6203  -15.0318   24.4812 O   0  0  0  0  0  0  0  0  0  0  0  0
    9.9125  -17.1908   25.0777 O   0  0  0  0  0  0  0  0  0  0  0  0
  2  1  1  6
  3  2  1  0
  3  4  1  0
  5  6  2  0
  5  2  1  0
  8  7  1  6
  8 10  1  0
  9  8  1  0
 10 12  1  0
 10 11  1  6
 11  5  1  0
 12 22  1  0
 13 12  2  0
 15 17  1  0
 15 14  1  0
 16 15  2  0
 18 17  1  0
 19 18  1  0
 20 19  1  0
 21 20  1  1
 22 21  1  0
 23 21  1  0
 23 25  1  0
 24 23  2  0
M  END
$$$$
