CTR.pdb
     RDKit          3D

 25 24  0  0  1  0  0  0  0  0999 V2000
    9.0485  -16.3754   15.5298 N   0  0  0  0  0  0  0  0  0  0  0  0
    8.1366  -16.3234   16.6329 C   0  0  1  0  0  0  0  0  0  0  0  0
    7.5776  -17.7022   16.9540 C   0  0  0  0  0  0  0  0  0  0  0  0
    6.7444  -18.4377   15.5257 S   0  0  0  0  0  0  0  0  0  0  0  0
    8.7743  -15.8046   17.8703 C   0  0  0  0  0  0  0  0  0  0  0  0
   10.0139  -15.6690   17.8844 O   0  0  0  0  0  0  0  0  0  0  0  0
    7.2853  -12.7772   19.7541 C   0  0  0  0  0  0  0  0  0  0  0  0
    7.6685  -13.8484   20.7130 C   0  0  1  0  0  0  0  0  0  0  0  0
    6.4950  -14.5908   20.9890 O   0  0  0  0  0  0  0  0  0  0  0  0
    8.6724  -14.8431   20.2158 C   0  0  2  0  0  0  0  0  0  0  0  0
    8.0413  -15.4586   19.0301 N   0  0  0  0  0  0  0  0  0  0  0  0
    9.0052  -15.9230   21.1467 C   0  0  0  0  0  0  0  0  0  0  0  0
    8.6696  -17.1334   20.9244 O   0  0  0  0  0  0  0  0  0  0  0  0
   14.1440  -21.0402   19.8800 N   0  0  0  0  0  0  0  0  0  0  0  0
   14.2739  -20.0310   20.8632 C   0  0  0  0  0  0  0  0  0  0  0  0
   15.0388  -19.0197   20.6408 N   0  0  0  0  0  0  0  0  0  0  0  0
   13.5893  -20.0741   22.1088 N   0  0  0  0  0  0  0  0  0  0  0  0
   12.1500  -20.0214   22.2351 C   0  0  0  0  0  0  0  0  0  0  0  0
   11.6915  -18.8806   23.0917 C   0  0  0  0  0  0  0  0  0  0  0  0
   11.0486  -17.7518   22.3811 C   0  0  0  0  0  0  0  0  0  0  0  0
   10.2112  -16.8186   23.1691 C   0  0  2  0  0  0  0  0  0  0  0  0
    9.7186  -15.7055   22.3527 N   0  0  0  0  0  0  0  0  0  0  0  0
   10.8009  -16.3465   24.4379 C   0  0  0  0  0  0  0  0  0  0  0  0
   11.1123  -15.1479   24.6288 O   0  0  0  0  0  0  0  0  0  0  0  0
   11.0305  -17.2420   25.4716 O   0  0  0  0  0  0  0  0  0  0  0  0
  2  1  1  6
  3  2  1  0
  3  4  1  0
  5  6  2  0
  5  2  1  0
  8  7  1  6
  8 10  1  0
  9  8  1  0
 10 12  1  0
 10 11  1  6
 11  5  1  0
 12 22  1  0
 13 12  2  0
 15 17  1  0
 15 14  1  0
 16 15  2  0
 18 17  1  0
 19 18  1  0
 20 19  1  0
 21 20  1  6
 22 21  1  0
 23 21  1  0
 23 25  1  0
 24 23  2  0
M  END
$$$$
