CTR.pdb
     RDKit          3D

 25 24  0  0  1  0  0  0  0  0999 V2000
    7.2455  -15.0087   17.7557 N   0  0  0  0  0  0  0  0  0  0  0  0
    8.4448  -14.6892   18.4703 C   0  0  1  0  0  0  0  0  0  0  0  0
    8.3486  -13.3204   19.1286 C   0  0  0  0  0  0  0  0  0  0  0  0
    8.3035  -11.9886   17.9040 S   0  0  0  0  0  0  0  0  0  0  0  0
    8.7458  -15.6752   19.5400 C   0  0  0  0  0  0  0  0  0  0  0  0
    7.8057  -16.0801   20.2524 O   0  0  0  0  0  0  0  0  0  0  0  0
    9.3134  -18.8686   19.0279 C   0  0  0  0  0  0  0  0  0  0  0  0
   10.4856  -18.4902   19.8625 C   0  0  1  0  0  0  0  0  0  0  0  0
   11.5390  -18.1741   18.9709 O   0  0  0  0  0  0  0  0  0  0  0  0
   10.3088  -17.2812   20.7293 C   0  0  2  0  0  0  0  0  0  0  0  0
   10.0468  -16.1740   19.7867 N   0  0  0  0  0  0  0  0  0  0  0  0
   11.4724  -16.9065   21.5348 C   0  0  0  0  0  0  0  0  0  0  0  0
   12.3807  -16.1299   21.0886 O   0  0  0  0  0  0  0  0  0  0  0  0
    9.3806  -15.5147   29.3359 N   0  0  0  0  0  0  0  0  0  0  0  0
    9.4660  -14.4514   28.4062 C   0  0  0  0  0  0  0  0  0  0  0  0
    8.6902  -13.4317   28.5319 N   0  0  0  0  0  0  0  0  0  0  0  0
   10.3827  -14.4480   27.3192 N   0  0  0  0  0  0  0  0  0  0  0  0
   11.2542  -15.5570   27.0017 C   0  0  0  0  0  0  0  0  0  0  0  0
   11.5486  -15.6528   25.5355 C   0  0  0  0  0  0  0  0  0  0  0  0
   12.3957  -16.7924   25.1158 C   0  0  0  0  0  0  0  0  0  0  0  0
   12.7790  -16.8872   23.6886 C   0  0  2  0  0  0  0  0  0  0  0  0
   11.6740  -17.3743   22.8581 N   0  0  0  0  0  0  0  0  0  0  0  0
   14.0335  -17.6151   23.4107 C   0  0  0  0  0  0  0  0  0  0  0  0
   14.0459  -18.7802   22.9496 O   0  0  0  0  0  0  0  0  0  0  0  0
   15.2562  -17.0109   23.6618 O   0  0  0  0  0  0  0  0  0  0  0  0
  2  1  1  1
  3  2  1  0
  3  4  1  0
  5  6  2  0
  5  2  1  0
  8  7  1  6
  8 10  1  0
  9  8  1  0
 10 12  1  0
 10 11  1  6
 11  5  1  0
 12 22  1  0
 13 12  2  0
 15 17  1  0
 15 14  1  0
 16 15  2  0
 18 17  1  0
 19 18  1  0
 20 19  1  0
 21 20  1  1
 22 21  1  0
 23 21  1  0
 23 25  1  0
 24 23  2  0
M  END
$$$$
