CTR.pdb
     RDKit          3D

 25 24  0  0  1  0  0  0  0  0999 V2000
    7.3189  -13.6617   17.8292 N   0  0  0  0  0  0  0  0  0  0  0  0
    8.4936  -13.7730   18.6410 C   0  0  1  0  0  0  0  0  0  0  0  0
    8.6331  -12.5820   19.5783 C   0  0  0  0  0  0  0  0  0  0  0  0
   10.3023  -12.4622   20.2671 S   0  0  0  0  0  0  0  0  0  0  0  0
    8.4876  -14.9989   19.4800 C   0  0  0  0  0  0  0  0  0  0  0  0
    7.4458  -15.2835   20.1035 O   0  0  0  0  0  0  0  0  0  0  0  0
    8.9361  -18.2847   18.3879 C   0  0  0  0  0  0  0  0  0  0  0  0
    9.8364  -18.2028   19.5697 C   0  0  1  0  0  0  0  0  0  0  0  0
   11.1530  -18.0485   19.0724 O   0  0  0  0  0  0  0  0  0  0  0  0
    9.6084  -17.0402   20.4867 C   0  0  2  0  0  0  0  0  0  0  0  0
    9.6071  -15.8555   19.6038 N   0  0  0  0  0  0  0  0  0  0  0  0
   10.6386  -16.8281   21.5051 C   0  0  0  0  0  0  0  0  0  0  0  0
   11.2855  -15.7322   21.5930 O   0  0  0  0  0  0  0  0  0  0  0  0
    9.8271  -16.3930   29.4634 N   0  0  0  0  0  0  0  0  0  0  0  0
    9.9917  -15.0455   29.0644 C   0  0  0  0  0  0  0  0  0  0  0  0
    9.6686  -14.0976   29.8734 N   0  0  0  0  0  0  0  0  0  0  0  0
   10.5072  -14.6745   27.7922 N   0  0  0  0  0  0  0  0  0  0  0  0
    9.9845  -15.1715   26.5391 C   0  0  0  0  0  0  0  0  0  0  0  0
   10.8956  -16.1716   25.8947 C   0  0  0  0  0  0  0  0  0  0  0  0
   10.5886  -16.5189   24.4884 C   0  0  0  0  0  0  0  0  0  0  0  0
   11.4946  -17.4584   23.7890 C   0  0  2  0  0  0  0  0  0  0  0  0
   10.9900  -17.8155   22.4600 N   0  0  0  0  0  0  0  0  0  0  0  0
   11.8965  -18.6522   24.5598 C   0  0  0  0  0  0  0  0  0  0  0  0
   11.3277  -19.7607   24.4261 O   0  0  0  0  0  0  0  0  0  0  0  0
   12.9370  -18.5703   25.4728 O   0  0  0  0  0  0  0  0  0  0  0  0
  2  1  1  1
  3  2  1  0
  3  4  1  0
  5  6  2  0
  5  2  1  0
  8  7  1  6
  8 10  1  0
  9  8  1  0
 10 12  1  0
 10 11  1  6
 11  5  1  0
 12 22  1  0
 13 12  2  0
 15 17  1  0
 15 14  1  0
 16 15  2  0
 18 17  1  0
 19 18  1  0
 20 19  1  0
 21 20  1  1
 22 21  1  0
 23 21  1  0
 23 25  1  0
 24 23  2  0
M  END
$$$$
