CTR.pdb
     RDKit          3D

 25 24  0  0  1  0  0  0  0  0999 V2000
    4.5276  -19.3949   20.6008 N   0  0  0  0  0  0  0  0  0  0  0  0
    5.0143  -18.4459   21.5567 C   0  0  1  0  0  0  0  0  0  0  0  0
    5.0275  -19.0325   22.9611 C   0  0  0  0  0  0  0  0  0  0  0  0
    5.4860  -17.7960   24.2004 S   0  0  0  0  0  0  0  0  0  0  0  0
    6.3964  -17.9941   21.2522 C   0  0  0  0  0  0  0  0  0  0  0  0
    7.2280  -18.8453   20.8793 O   0  0  0  0  0  0  0  0  0  0  0  0
    7.1186  -14.9837   19.1565 C   0  0  0  0  0  0  0  0  0  0  0  0
    8.0529  -14.9392   20.3136 C   0  0  1  0  0  0  0  0  0  0  0  0
    7.5311  -13.9905   21.2258 O   0  0  0  0  0  0  0  0  0  0  0  0
    8.1960  -16.2134   21.0884 C   0  0  2  0  0  0  0  0  0  0  0  0
    6.8108  -16.6459   21.3661 N   0  0  0  0  0  0  0  0  0  0  0  0
    8.8859  -16.0960   22.3744 C   0  0  0  0  0  0  0  0  0  0  0  0
    8.2651  -15.8016   23.4492 O   0  0  0  0  0  0  0  0  0  0  0  0
   11.9813  -21.2038   27.9463 N   0  0  0  0  0  0  0  0  0  0  0  0
   11.7526  -19.9963   28.6477 C   0  0  0  0  0  0  0  0  0  0  0  0
   11.7482  -19.9986   29.9351 N   0  0  0  0  0  0  0  0  0  0  0  0
   11.5242  -18.7547   27.9934 N   0  0  0  0  0  0  0  0  0  0  0  0
   11.4620  -18.6049   26.5567 C   0  0  0  0  0  0  0  0  0  0  0  0
   10.9834  -17.2466   26.1425 C   0  0  0  0  0  0  0  0  0  0  0  0
   10.3603  -17.1579   24.8023 C   0  0  0  0  0  0  0  0  0  0  0  0
   10.9428  -16.2109   23.8242 C   0  0  2  0  0  0  0  0  0  0  0  0
   10.2817  -16.2990   22.5191 N   0  0  0  0  0  0  0  0  0  0  0  0
   12.4135  -16.2491   23.6955 C   0  0  0  0  0  0  0  0  0  0  0  0
   13.1723  -16.3416   24.6883 O   0  0  0  0  0  0  0  0  0  0  0  0
   13.0019  -16.1800   22.4417 O   0  0  0  0  0  0  0  0  0  0  0  0
  2  1  1  6
  3  2  1  0
  3  4  1  0
  5  6  2  0
  5  2  1  0
  8  7  1  6
  8 10  1  0
  9  8  1  0
 10 12  1  0
 10 11  1  1
 11  5  1  0
 12 22  1  0
 13 12  2  0
 15 17  1  0
 15 14  1  0
 16 15  2  0
 18 17  1  0
 19 18  1  0
 20 19  1  0
 21 20  1  1
 22 21  1  0
 23 21  1  0
 23 25  1  0
 24 23  2  0
M  END
$$$$
