CQY.pdb
     RDKit          3D

 28 28  0  0  1  0  0  0  0  0999 V2000
   18.0482  -13.3535  -15.7005 N   0  0  0  0  0  0  0  0  0  0  0  0
   18.0299  -12.1720  -16.5395 C   0  0  1  0  0  0  0  0  0  0  0  0
   16.6028  -11.8421  -16.9573 C   0  0  0  0  0  0  0  0  0  0  0  0
   15.8571  -13.2705  -17.7764 S   0  0  0  0  0  0  0  0  0  0  0  0
   18.5910  -11.0311  -15.7894 C   0  0  0  0  0  0  0  0  0  0  0  0
   18.2654  -10.8797  -14.5905 O   0  0  0  0  0  0  0  0  0  0  0  0
   24.2738   -8.9509  -16.0720 N   0  0  0  0  0  0  0  0  0  0  0  0
   23.7547   -9.9921  -15.2550 C   0  0  0  0  0  0  0  0  0  0  0  0
   24.5469  -10.7632  -14.6779 O   0  0  0  0  0  0  0  0  0  0  0  0
   22.2639  -10.1806  -15.0741 C   0  0  0  0  0  0  0  0  0  0  0  0
   21.5875   -9.0973  -15.8373 C   0  0  0  0  0  0  0  0  0  0  0  0
   20.0940   -9.0127  -15.6987 C   0  0  2  0  0  0  0  0  0  0  0  0
   19.4736  -10.1371  -16.4183 N   0  0  0  0  0  0  0  0  0  0  0  0
   19.4661   -7.8052  -16.2195 C   0  0  0  0  0  0  0  0  0  0  0  0
   19.1514   -7.6958  -17.4263 O   0  0  0  0  0  0  0  0  0  0  0  0
   14.2111   -0.9270  -16.9498 O   0  0  0  0  0  0  0  0  0  0  0  0
   14.9317   -2.0522  -16.5693 C   0  0  0  0  0  0  0  0  0  0  0  0
   15.4150   -2.8624  -17.5625 C   0  0  0  0  0  0  0  0  0  0  0  0
   16.1373   -3.9918  -17.2103 C   0  0  0  0  0  0  0  0  0  0  0  0
   16.3867   -4.3294  -15.9029 C   0  0  0  0  0  0  0  0  0  0  0  0
   17.1518   -5.5361  -15.5947 C   0  0  0  0  0  0  0  0  0  0  0  0
   18.6231   -5.4590  -15.8883 C   0  0  2  0  0  0  0  0  0  0  0  0
   19.1874   -6.7132  -15.3661 N   0  0  0  0  0  0  0  0  0  0  0  0
   19.2262   -4.2927  -15.2360 C   0  0  0  0  0  0  0  0  0  0  0  0
   19.6969   -4.3976  -14.0899 O   0  0  0  0  0  0  0  0  0  0  0  0
   15.8966   -3.5086  -14.9171 C   0  0  0  0  0  0  0  0  0  0  0  0
   15.1650   -2.3636  -15.2509 C   0  0  0  0  0  0  0  0  0  0  0  0
   19.2814   -3.0721  -15.8774 O   0  0  0  0  0  0  0  0  0  0  0  0
  2  1  1  1
  2  5  1  0
  3  2  1  0
  4  3  1  0
  5  6  2  0
  8  7  1  0
  8 10  1  0
  9  8  2  0
 11 10  1  0
 12 11  1  6
 12 14  1  0
 13  5  1  0
 13 12  1  0
 14 15  2  0
 16 17  1  0
 17 18  2  0
 18 19  1  0
 20 21  1  0
 20 19  2  0
 22 21  1  1
 22 24  1  0
 23 22  1  0
 23 14  1  0
 24 25  2  0
 24 28  1  0
 26 20  1  0
 27 26  2  0
 27 17  1  0
M  END
$$$$
