CQY.pdb
     RDKit          3D

 28 28  0  0  1  0  0  0  0  0999 V2000
   28.1426  -20.8708  -16.8614 N   0  0  0  0  0  0  0  0  0  0  0  0
   26.8327  -21.2662  -17.3389 C   0  0  1  0  0  0  0  0  0  0  0  0
   26.5319  -22.7022  -16.9296 C   0  0  0  0  0  0  0  0  0  0  0  0
   27.0162  -23.8326  -18.2542 S   0  0  0  0  0  0  0  0  0  0  0  0
   25.8108  -20.3728  -16.7587 C   0  0  0  0  0  0  0  0  0  0  0  0
   25.9049  -20.0534  -15.5523 O   0  0  0  0  0  0  0  0  0  0  0  0
   24.3931  -15.6447  -17.5464 N   0  0  0  0  0  0  0  0  0  0  0  0
   22.9760  -15.7429  -17.4911 C   0  0  0  0  0  0  0  0  0  0  0  0
   22.3101  -14.7394  -17.1677 O   0  0  0  0  0  0  0  0  0  0  0  0
   22.2642  -17.0385  -17.8164 C   0  0  0  0  0  0  0  0  0  0  0  0
   23.3093  -18.0419  -18.1545 C   0  0  0  0  0  0  0  0  0  0  0  0
   23.7558  -18.9450  -17.0401 C   0  0  2  0  0  0  0  0  0  0  0  0
   24.7558  -19.8951  -17.5540 N   0  0  0  0  0  0  0  0  0  0  0  0
   22.7188  -19.7524  -16.4107 C   0  0  0  0  0  0  0  0  0  0  0  0
   22.4224  -20.8915  -16.8377 O   0  0  0  0  0  0  0  0  0  0  0  0
   17.5602  -22.8211   -9.9580 O   0  0  0  0  0  0  0  0  0  0  0  0
   18.4479  -22.0951  -10.7422 C   0  0  0  0  0  0  0  0  0  0  0  0
   19.3795  -22.7962  -11.4614 C   0  0  0  0  0  0  0  0  0  0  0  0
   20.2774  -22.0962  -12.2521 C   0  0  0  0  0  0  0  0  0  0  0  0
   20.2684  -20.7261  -12.3418 C   0  0  0  0  0  0  0  0  0  0  0  0
   21.2442  -20.0445  -13.1903 C   0  0  0  0  0  0  0  0  0  0  0  0
   20.9377  -20.0542  -14.6608 C   0  0  2  0  0  0  0  0  0  0  0  0
   22.0138  -19.2689  -15.2848 N   0  0  0  0  0  0  0  0  0  0  0  0
   19.6240  -19.4598  -14.9253 C   0  0  0  0  0  0  0  0  0  0  0  0
   19.5266  -18.2375  -15.1323 O   0  0  0  0  0  0  0  0  0  0  0  0
   19.3293  -20.0355  -11.6158 C   0  0  0  0  0  0  0  0  0  0  0  0
   18.4137  -20.7226  -10.8114 C   0  0  0  0  0  0  0  0  0  0  0  0
   18.4855  -20.2394  -14.9493 O   0  0  0  0  0  0  0  0  0  0  0  0
  2  1  1  1
  2  5  1  0
  3  2  1  0
  4  3  1  0
  5  6  2  0
  8  7  1  0
  8 10  1  0
  9  8  2  0
 11 10  1  0
 12 11  1  6
 12 14  1  0
 13  5  1  0
 13 12  1  0
 14 15  2  0
 16 17  1  0
 17 18  2  0
 18 19  1  0
 20 21  1  0
 20 19  2  0
 22 21  1  1
 22 24  1  0
 23 22  1  0
 23 14  1  0
 24 25  2  0
 24 28  1  0
 26 20  1  0
 27 26  2  0
 27 17  1  0
M  END
$$$$
