CQY.pdb
     RDKit          3D

 28 28  0  0  1  0  0  0  0  0999 V2000
   36.5899  -28.4563  -17.3357 N   0  0  0  0  0  0  0  0  0  0  0  0
   35.7416  -29.6243  -17.2086 C   0  0  1  0  0  0  0  0  0  0  0  0
   35.8237  -30.1863  -15.7953 C   0  0  0  0  0  0  0  0  0  0  0  0
   37.4549  -30.9137  -15.5174 S   0  0  0  0  0  0  0  0  0  0  0  0
   34.3443  -29.2475  -17.4997 C   0  0  0  0  0  0  0  0  0  0  0  0
   34.0122  -28.0447  -17.4036 O   0  0  0  0  0  0  0  0  0  0  0  0
   31.4273  -27.1135  -19.7596 N   0  0  0  0  0  0  0  0  0  0  0  0
   30.5406  -28.0023  -20.4265 C   0  0  0  0  0  0  0  0  0  0  0  0
   29.4617  -27.5630  -20.8716 O   0  0  0  0  0  0  0  0  0  0  0  0
   30.8814  -29.4661  -20.6051 C   0  0  0  0  0  0  0  0  0  0  0  0
   32.1647  -29.7093  -19.8927 C   0  0  0  0  0  0  0  0  0  0  0  0
   32.0810  -29.8823  -18.4028 C   0  0  2  0  0  0  0  0  0  0  0  0
   33.4117  -30.2282  -17.8770 N   0  0  0  0  0  0  0  0  0  0  0  0
   31.1765  -30.9199  -17.9246 C   0  0  0  0  0  0  0  0  0  0  0  0
   31.3796  -32.1316  -18.1658 O   0  0  0  0  0  0  0  0  0  0  0  0
   23.8594  -33.9953  -13.8131 O   0  0  0  0  0  0  0  0  0  0  0  0
   24.9274  -33.2478  -14.2934 C   0  0  0  0  0  0  0  0  0  0  0  0
   24.6701  -32.3363  -15.2832 C   0  0  0  0  0  0  0  0  0  0  0  0
   25.7179  -31.5773  -15.7804 C   0  0  0  0  0  0  0  0  0  0  0  0
   27.0046  -31.7046  -15.3183 C   0  0  0  0  0  0  0  0  0  0  0  0
   28.0683  -30.8780  -15.8858 C   0  0  0  0  0  0  0  0  0  0  0  0
   29.0930  -31.6157  -16.6997 C   0  0  2  0  0  0  0  0  0  0  0  0
   30.0342  -30.5841  -17.1625 N   0  0  0  0  0  0  0  0  0  0  0  0
   28.4648  -32.3072  -17.8294 C   0  0  0  0  0  0  0  0  0  0  0  0
   28.1986  -31.6805  -18.8698 O   0  0  0  0  0  0  0  0  0  0  0  0
   27.2488  -32.6219  -14.3259 C   0  0  0  0  0  0  0  0  0  0  0  0
   26.2054  -33.3982  -13.8100 C   0  0  0  0  0  0  0  0  0  0  0  0
   28.1622  -33.6517  -17.7574 O   0  0  0  0  0  0  0  0  0  0  0  0
  2  1  1  1
  2  5  1  0
  3  2  1  0
  4  3  1  0
  5  6  2  0
  8  7  1  0
  8 10  1  0
  9  8  2  0
 11 10  1  0
 12 11  1  6
 12 14  1  0
 13  5  1  0
 13 12  1  0
 14 15  2  0
 16 17  1  0
 17 18  2  0
 18 19  1  0
 20 21  1  0
 20 19  2  0
 22 21  1  6
 22 24  1  0
 23 22  1  0
 23 14  1  0
 24 25  2  0
 24 28  1  0
 26 20  1  0
 27 26  2  0
 27 17  1  0
M  END
$$$$
