CQY.pdb
     RDKit          3D

 28 28  0  0  1  0  0  0  0  0999 V2000
   20.1154  -21.3409  -13.5651 N   0  0  0  0  0  0  0  0  0  0  0  0
   20.8492  -20.4701  -12.6688 C   0  0  1  0  0  0  0  0  0  0  0  0
   20.1311  -20.3630  -11.3298 C   0  0  0  0  0  0  0  0  0  0  0  0
   18.6593  -19.3283  -11.5034 S   0  0  0  0  0  0  0  0  0  0  0  0
   22.2014  -21.0207  -12.4506 C   0  0  0  0  0  0  0  0  0  0  0  0
   22.3184  -22.2306  -12.1529 O   0  0  0  0  0  0  0  0  0  0  0  0
   27.3831  -19.2838  -15.2981 N   0  0  0  0  0  0  0  0  0  0  0  0
   27.3344  -20.6994  -15.1778 C   0  0  0  0  0  0  0  0  0  0  0  0
   28.1669  -21.3904  -15.7979 O   0  0  0  0  0  0  0  0  0  0  0  0
   26.2943  -21.3799  -14.3141 C   0  0  0  0  0  0  0  0  0  0  0  0
   25.5025  -20.3083  -13.6521 C   0  0  0  0  0  0  0  0  0  0  0  0
   24.7009  -20.7147  -12.4483 C   0  0  2  0  0  0  0  0  0  0  0  0
   23.3301  -20.1938  -12.5773 N   0  0  0  0  0  0  0  0  0  0  0  0
   25.1912  -20.2443  -11.1592 C   0  0  0  0  0  0  0  0  0  0  0  0
   24.7874  -19.1726  -10.6533 O   0  0  0  0  0  0  0  0  0  0  0  0
   29.8372  -18.5396   -4.0138 O   0  0  0  0  0  0  0  0  0  0  0  0
   29.1346  -19.1415   -5.0502 C   0  0  0  0  0  0  0  0  0  0  0  0
   27.8819  -18.6629   -5.3300 C   0  0  0  0  0  0  0  0  0  0  0  0
   27.1592  -19.2456   -6.3594 C   0  0  0  0  0  0  0  0  0  0  0  0
   27.6516  -20.2850   -7.1094 C   0  0  0  0  0  0  0  0  0  0  0  0
   26.8394  -20.8606   -8.1797 C   0  0  0  0  0  0  0  0  0  0  0  0
   27.1292  -20.3410   -9.5592 C   0  0  2  0  0  0  0  0  0  0  0  0
   26.1436  -20.9957  -10.4334 N   0  0  0  0  0  0  0  0  0  0  0  0
   28.4995  -20.6686   -9.9643 C   0  0  0  0  0  0  0  0  0  0  0  0
   28.7320  -21.7354  -10.5596 O   0  0  0  0  0  0  0  0  0  0  0  0
   28.9087  -20.7553   -6.8185 C   0  0  0  0  0  0  0  0  0  0  0  0
   29.6550  -20.1812   -5.7836 C   0  0  0  0  0  0  0  0  0  0  0  0
   29.5431  -19.8068   -9.6952 O   0  0  0  0  0  0  0  0  0  0  0  0
  2  1  1  6
  2  5  1  0
  3  2  1  0
  4  3  1  0
  5  6  2  0
  8  7  1  0
  8 10  1  0
  9  8  2  0
 11 10  1  0
 12 11  1  6
 12 14  1  0
 13  5  1  0
 13 12  1  0
 14 15  2  0
 16 17  1  0
 17 18  2  0
 18 19  1  0
 20 21  1  0
 20 19  2  0
 22 21  1  1
 22 24  1  0
 23 22  1  0
 23 14  1  0
 24 25  2  0
 24 28  1  0
 26 20  1  0
 27 26  2  0
 27 17  1  0
M  END
$$$$
