CQY.pdb
     RDKit          3D

 28 28  0  0  1  0  0  0  0  0999 V2000
   19.6469  -14.0657  -17.3986 N   0  0  0  0  0  0  0  0  0  0  0  0
   19.3019  -13.0298  -16.4458 C   0  0  1  0  0  0  0  0  0  0  0  0
   19.8533  -13.3735  -15.0682 C   0  0  0  0  0  0  0  0  0  0  0  0
   18.8751  -14.7016  -14.3291 S   0  0  0  0  0  0  0  0  0  0  0  0
   19.8769  -11.7451  -16.8911 C   0  0  0  0  0  0  0  0  0  0  0  0
   20.9037  -11.7604  -17.6064 O   0  0  0  0  0  0  0  0  0  0  0  0
   17.1846   -7.7238  -19.6129 N   0  0  0  0  0  0  0  0  0  0  0  0
   18.0093   -6.7157  -19.0432 C   0  0  0  0  0  0  0  0  0  0  0  0
   18.0339   -5.5841  -19.5664 O   0  0  0  0  0  0  0  0  0  0  0  0
   18.8544   -6.9905  -17.8179 C   0  0  0  0  0  0  0  0  0  0  0  0
   18.5623   -8.3837  -17.3853 C   0  0  0  0  0  0  0  0  0  0  0  0
   19.7462   -9.2338  -17.0210 C   0  0  2  0  0  0  0  0  0  0  0  0
   19.2754  -10.5329  -16.5136 N   0  0  0  0  0  0  0  0  0  0  0  0
   20.6328   -8.6980  -15.9961 C   0  0  0  0  0  0  0  0  0  0  0  0
   20.4181   -8.8861  -14.7771 O   0  0  0  0  0  0  0  0  0  0  0  0
   26.2853  -12.5402  -16.9401 O   0  0  0  0  0  0  0  0  0  0  0  0
   25.7139  -11.2880  -16.7517 C   0  0  0  0  0  0  0  0  0  0  0  0
   26.0291  -10.6128  -15.6021 C   0  0  0  0  0  0  0  0  0  0  0  0
   25.4726   -9.3613  -15.3892 C   0  0  0  0  0  0  0  0  0  0  0  0
   24.6169   -8.7725  -16.2873 C   0  0  0  0  0  0  0  0  0  0  0  0
   24.0590   -7.4514  -16.0043 C   0  0  0  0  0  0  0  0  0  0  0  0
   22.7138   -7.4497  -15.3354 C   0  0  2  0  0  0  0  0  0  0  0  0
   21.7756   -7.9466  -16.3538 N   0  0  0  0  0  0  0  0  0  0  0  0
   22.3516   -6.1000  -14.8925 C   0  0  0  0  0  0  0  0  0  0  0  0
   21.5052   -5.4456  -15.5262 O   0  0  0  0  0  0  0  0  0  0  0  0
   24.3093   -9.4600  -17.4355 C   0  0  0  0  0  0  0  0  0  0  0  0
   24.8602  -10.7246  -17.6700 C   0  0  0  0  0  0  0  0  0  0  0  0
   22.9376   -5.5398  -13.7758 O   0  0  0  0  0  0  0  0  0  0  0  0
  2  1  1  6
  2  5  1  0
  3  2  1  0
  4  3  1  0
  5  6  2  0
  8  7  1  0
  8 10  1  0
  9  8  2  0
 11 10  1  0
 12 11  1  1
 12 14  1  0
 13  5  1  0
 13 12  1  0
 14 15  2  0
 16 17  1  0
 17 18  2  0
 18 19  1  0
 20 21  1  0
 20 19  2  0
 22 21  1  6
 22 24  1  0
 23 22  1  0
 23 14  1  0
 24 25  2  0
 24 28  1  0
 26 20  1  0
 27 26  2  0
 27 17  1  0
M  END
$$$$
