CQY.pdb
     RDKit          3D

 28 28  0  0  1  0  0  0  0  0999 V2000
   22.9804  -26.3169  -16.2512 N   0  0  0  0  0  0  0  0  0  0  0  0
   22.0072  -25.2555  -16.4142 C   0  0  1  0  0  0  0  0  0  0  0  0
   20.8412  -25.7338  -17.2694 C   0  0  0  0  0  0  0  0  0  0  0  0
   21.0184  -25.1066  -18.9553 S   0  0  0  0  0  0  0  0  0  0  0  0
   21.5009  -24.8490  -15.0884 C   0  0  0  0  0  0  0  0  0  0  0  0
   21.4406  -25.7055  -14.1780 O   0  0  0  0  0  0  0  0  0  0  0  0
   21.1161  -18.9024  -13.5013 N   0  0  0  0  0  0  0  0  0  0  0  0
   20.4892  -19.4480  -12.3480 C   0  0  0  0  0  0  0  0  0  0  0  0
   20.1257  -18.6809  -11.4345 O   0  0  0  0  0  0  0  0  0  0  0  0
   20.2562  -20.9371  -12.2098 C   0  0  0  0  0  0  0  0  0  0  0  0
   20.7984  -21.5830  -13.4355 C   0  0  0  0  0  0  0  0  0  0  0  0
   20.5997  -23.0675  -13.5538 C   0  0  2  0  0  0  0  0  0  0  0  0
   21.0965  -23.5226  -14.8626 N   0  0  0  0  0  0  0  0  0  0  0  0
   19.2258  -23.5432  -13.4564 C   0  0  0  0  0  0  0  0  0  0  0  0
   18.4136  -23.4048  -14.3992 O   0  0  0  0  0  0  0  0  0  0  0  0
   18.2503  -24.3722   -5.7882 O   0  0  0  0  0  0  0  0  0  0  0  0
   18.0906  -24.7199   -7.1238 C   0  0  0  0  0  0  0  0  0  0  0  0
   16.8125  -24.8012   -7.6101 C   0  0  0  0  0  0  0  0  0  0  0  0
   16.6248  -25.1462   -8.9395 C   0  0  0  0  0  0  0  0  0  0  0  0
   17.6720  -25.4096   -9.7876 C   0  0  0  0  0  0  0  0  0  0  0  0
   17.4098  -25.7724  -11.1791 C   0  0  0  0  0  0  0  0  0  0  0  0
   17.3703  -24.6249  -12.1479 C   0  0  2  0  0  0  0  0  0  0  0  0
   18.7677  -24.1857  -12.2835 N   0  0  0  0  0  0  0  0  0  0  0  0
   16.5197  -23.5430  -11.6428 C   0  0  0  0  0  0  0  0  0  0  0  0
   15.2822  -23.6428  -11.7129 O   0  0  0  0  0  0  0  0  0  0  0  0
   18.9481  -25.3244   -9.2874 C   0  0  0  0  0  0  0  0  0  0  0  0
   19.1597  -24.9777   -7.9485 C   0  0  0  0  0  0  0  0  0  0  0  0
   17.0730  -22.4078  -11.0864 O   0  0  0  0  0  0  0  0  0  0  0  0
  2  1  1  1
  2  5  1  0
  3  2  1  0
  4  3  1  0
  5  6  2  0
  8  7  1  0
  8 10  1  0
  9  8  2  0
 11 10  1  0
 12 11  1  6
 12 14  1  0
 13  5  1  0
 13 12  1  0
 14 15  2  0
 16 17  1  0
 17 18  2  0
 18 19  1  0
 20 21  1  0
 20 19  2  0
 22 21  1  1
 22 24  1  0
 23 22  1  0
 23 14  1  0
 24 25  2  0
 24 28  1  0
 26 20  1  0
 27 26  2  0
 27 17  1  0
M  END
$$$$
