CQY.pdb
     RDKit          3D

 28 28  0  0  1  0  0  0  0  0999 V2000
   26.6742  -17.4561  -16.6606 N   0  0  0  0  0  0  0  0  0  0  0  0
   27.4066  -18.2858  -15.7250 C   0  0  1  0  0  0  0  0  0  0  0  0
   28.2773  -17.4223  -14.8216 C   0  0  0  0  0  0  0  0  0  0  0  0
   29.6471  -16.7251  -15.7727 S   0  0  0  0  0  0  0  0  0  0  0  0
   26.4518  -19.0462  -14.8948 C   0  0  0  0  0  0  0  0  0  0  0  0
   25.4167  -18.4721  -14.4884 O   0  0  0  0  0  0  0  0  0  0  0  0
   25.4067  -24.8882  -15.7209 N   0  0  0  0  0  0  0  0  0  0  0  0
   24.6593  -24.7624  -14.5182 C   0  0  0  0  0  0  0  0  0  0  0  0
   23.9326  -25.7078  -14.1532 O   0  0  0  0  0  0  0  0  0  0  0  0
   24.7297  -23.5065  -13.6763 C   0  0  0  0  0  0  0  0  0  0  0  0
   25.6176  -22.5485  -14.3885 C   0  0  0  0  0  0  0  0  0  0  0  0
   25.7780  -21.1922  -13.7627 C   0  0  2  0  0  0  0  0  0  0  0  0
   26.7090  -20.3891  -14.5723 N   0  0  0  0  0  0  0  0  0  0  0  0
   26.3021  -21.1680  -12.4032 C   0  0  0  0  0  0  0  0  0  0  0  0
   27.5213  -21.3248  -12.1655 O   0  0  0  0  0  0  0  0  0  0  0  0
   28.6928  -19.0968   -4.4645 O   0  0  0  0  0  0  0  0  0  0  0  0
   28.1817  -19.2526   -5.7470 C   0  0  0  0  0  0  0  0  0  0  0  0
   28.8896  -20.0336   -6.6220 C   0  0  0  0  0  0  0  0  0  0  0  0
   28.4019  -20.2057   -7.9080 C   0  0  0  0  0  0  0  0  0  0  0  0
   27.2356  -19.6226   -8.3383 C   0  0  0  0  0  0  0  0  0  0  0  0
   26.7748  -19.8385   -9.7086 C   0  0  0  0  0  0  0  0  0  0  0  0
   25.9275  -21.0611   -9.9185 C   0  0  2  0  0  0  0  0  0  0  0  0
   25.4396  -20.9599  -11.3026 N   0  0  0  0  0  0  0  0  0  0  0  0
   24.8153  -21.0970   -8.9642 C   0  0  0  0  0  0  0  0  0  0  0  0
   23.6920  -20.6870   -9.3053 O   0  0  0  0  0  0  0  0  0  0  0  0
   26.5357  -18.8422   -7.4511 C   0  0  0  0  0  0  0  0  0  0  0  0
   27.0103  -18.6556   -6.1483 C   0  0  0  0  0  0  0  0  0  0  0  0
   24.9949  -21.5821   -7.6848 O   0  0  0  0  0  0  0  0  0  0  0  0
  2  1  1  6
  2  5  1  0
  3  2  1  0
  4  3  1  0
  5  6  2  0
  8  7  1  0
  8 10  1  0
  9  8  2  0
 11 10  1  0
 12 11  1  6
 12 14  1  0
 13  5  1  0
 13 12  1  0
 14 15  2  0
 16 17  1  0
 17 18  2  0
 18 19  1  0
 20 21  1  0
 20 19  2  0
 22 21  1  1
 22 24  1  0
 23 22  1  0
 23 14  1  0
 24 25  2  0
 24 28  1  0
 26 20  1  0
 27 26  2  0
 27 17  1  0
M  END
$$$$
