FLN.pdb
     RDKit          3D

 28 28  0  0  1  0  0  0  0  0999 V2000
   21.5032  -19.0521  -13.8069 N   0  0  0  0  0  0  0  0  0  0  0  0
   22.1975  -20.2903  -13.5185 C   0  0  1  0  0  0  0  0  0  0  0  0
   22.1806  -21.2151  -14.7407 C   0  0  0  0  0  0  0  0  0  0  0  0
   20.7777  -21.6034  -14.9532 C   0  0  0  0  0  0  0  0  0  0  0  0
   20.1122  -21.0499  -16.0466 C   0  0  0  0  0  0  0  0  0  0  0  0
   18.8027  -21.4054  -16.2544 C   0  0  0  0  0  0  0  0  0  0  0  0
   18.1810  -22.2800  -15.4031 C   0  0  0  0  0  0  0  0  0  0  0  0
   18.8580  -22.8252  -14.3148 C   0  0  0  0  0  0  0  0  0  0  0  0
   20.1845  -22.4786  -14.0862 C   0  0  0  0  0  0  0  0  0  0  0  0
   23.6282  -20.0532  -13.1974 C   0  0  0  0  0  0  0  0  0  0  0  0
   24.2542  -19.1722  -13.8169 O   0  0  0  0  0  0  0  0  0  0  0  0
   26.1035  -20.5984   -8.1057 C   0  0  0  0  0  0  0  0  0  0  0  0
   25.6526  -20.0932   -9.4684 C   0  0  2  0  0  0  0  0  0  0  0  0
   24.1758  -19.8429   -9.4236 C   0  0  0  0  0  0  0  0  0  0  0  0
   26.0761  -21.0326  -10.5651 C   0  0  0  0  0  0  0  0  0  0  0  0
   25.7109  -20.6144  -11.9299 C   0  0  2  0  0  0  0  0  0  0  0  0
   24.2860  -20.8063  -12.2057 N   0  0  0  0  0  0  0  0  0  0  0  0
   26.4229  -21.2701  -13.0467 C   0  0  0  0  0  0  0  0  0  0  0  0
   27.6700  -21.1155  -13.0958 O   0  0  0  0  0  0  0  0  0  0  0  0
   27.5046  -25.5563  -16.6573 N   0  0  0  0  0  0  0  0  0  0  0  0
   26.7442  -24.3427  -16.8307 C   0  0  0  0  0  0  0  0  0  0  0  0
   26.8050  -23.8189  -17.9619 O   0  0  0  0  0  0  0  0  0  0  0  0
   25.9588  -23.7841  -15.7283 C   0  0  0  0  0  0  0  0  0  0  0  0
   26.6712  -22.6354  -15.0873 C   0  0  2  0  0  0  0  0  0  0  0  0
   25.8135  -22.0400  -14.0388 N   0  0  0  0  0  0  0  0  0  0  0  0
   26.7962  -21.5358  -16.1029 C   0  0  0  0  0  0  0  0  0  0  0  0
   25.7945  -20.9335  -16.5168 O   0  0  0  0  0  0  0  0  0  0  0  0
   28.0513  -21.1712  -16.6014 O   0  0  0  0  0  0  0  0  0  0  0  0
  2  1  1  6
  3  4  1  0
  3  2  1  0
  4  9  2  0
  5  4  1  0
  5  6  2  0
  6  7  1  0
  7  8  2  0
  9  8  1  0
 10  2  1  0
 11 10  2  0
 13 12  1  1
 14 13  1  0
 15 13  1  0
 16 17  1  0
 16 15  1  1
 17 10  1  0
 18 16  1  0
 19 18  2  0
 20 21  1  0
 21 22  2  0
 23 21  1  0
 24 23  1  6
 24 25  1  0
 25 18  1  0
 26 24  1  0
 26 28  1  0
 27 26  2  0
M  END
$$$$
