FLN.pdb
     RDKit          3D

 28 28  0  0  1  0  0  0  0  0999 V2000
   25.3264  -21.5919   -8.1181 N   0  0  0  0  0  0  0  0  0  0  0  0
   25.5114  -20.5296   -9.0855 C   0  0  1  0  0  0  0  0  0  0  0  0
   27.0004  -20.3296   -9.3884 C   0  0  0  0  0  0  0  0  0  0  0  0
   27.6227  -19.8603   -8.1408 C   0  0  0  0  0  0  0  0  0  0  0  0
   28.5351  -20.7088   -7.5143 C   0  0  0  0  0  0  0  0  0  0  0  0
   29.1218  -20.2809   -6.3494 C   0  0  0  0  0  0  0  0  0  0  0  0
   28.8096  -19.0527   -5.8295 C   0  0  0  0  0  0  0  0  0  0  0  0
   27.8964  -18.2155   -6.4658 C   0  0  0  0  0  0  0  0  0  0  0  0
   27.2908  -18.6293   -7.6465 C   0  0  0  0  0  0  0  0  0  0  0  0
   24.8636  -20.8521  -10.3826 C   0  0  0  0  0  0  0  0  0  0  0  0
   25.0663  -21.9646  -10.9052 O   0  0  0  0  0  0  0  0  0  0  0  0
   20.7261  -21.8178  -11.6181 C   0  0  0  0  0  0  0  0  0  0  0  0
   20.9019  -20.3435  -11.2844 C   0  0  2  0  0  0  0  0  0  0  0  0
   19.5556  -19.6854  -11.2915 C   0  0  0  0  0  0  0  0  0  0  0  0
   21.9007  -19.6926  -12.2026 C   0  0  0  0  0  0  0  0  0  0  0  0
   23.2430  -20.3001  -12.2069 C   0  0  2  0  0  0  0  0  0  0  0  0
   24.0260  -19.9227  -11.0289 N   0  0  0  0  0  0  0  0  0  0  0  0
   24.1088  -20.0085  -13.3686 C   0  0  0  0  0  0  0  0  0  0  0  0
   24.5499  -18.8351  -13.4696 O   0  0  0  0  0  0  0  0  0  0  0  0
   28.0449  -22.1280  -13.9467 N   0  0  0  0  0  0  0  0  0  0  0  0
   27.5529  -21.1459  -14.8819 C   0  0  0  0  0  0  0  0  0  0  0  0
   28.1679  -20.0601  -14.9052 O   0  0  0  0  0  0  0  0  0  0  0  0
   26.4004  -21.4345  -15.7379 C   0  0  0  0  0  0  0  0  0  0  0  0
   25.2877  -20.4664  -15.4876 C   0  0  2  0  0  0  0  0  0  0  0  0
   24.4665  -20.9351  -14.3494 N   0  0  0  0  0  0  0  0  0  0  0  0
   24.3406  -20.5300  -16.6518 C   0  0  0  0  0  0  0  0  0  0  0  0
   23.1675  -20.9018  -16.4997 O   0  0  0  0  0  0  0  0  0  0  0  0
   24.7686  -20.1688  -17.9337 O   0  0  0  0  0  0  0  0  0  0  0  0
  2  1  1  1
  3  4  1  0
  3  2  1  0
  4  9  2  0
  5  4  1  0
  5  6  2  0
  6  7  1  0
  7  8  2  0
  9  8  1  0
 10  2  1  0
 11 10  2  0
 13 12  1  6
 14 13  1  0
 15 13  1  0
 16 17  1  0
 16 15  1  6
 17 10  1  0
 18 16  1  0
 19 18  2  0
 20 21  1  0
 21 22  2  0
 23 21  1  0
 24 23  1  6
 24 25  1  0
 25 18  1  0
 26 24  1  0
 26 28  1  0
 27 26  2  0
M  END
$$$$
