FLN.pdb
     RDKit          3D

 28 28  0  0  1  0  0  0  0  0999 V2000
   35.1678  -28.0640    6.0987 N   0  0  0  0  0  0  0  0  0  0  0  0
   34.3358  -27.2842    6.9922 C   0  0  1  0  0  0  0  0  0  0  0  0
   34.3399  -27.8911    8.3997 C   0  0  0  0  0  0  0  0  0  0  0  0
   33.3180  -28.9493    8.4028 C   0  0  0  0  0  0  0  0  0  0  0  0
   33.7338  -30.2505    8.1217 C   0  0  0  0  0  0  0  0  0  0  0  0
   32.7885  -31.2459    8.1220 C   0  0  0  0  0  0  0  0  0  0  0  0
   31.4779  -30.9536    8.3924 C   0  0  0  0  0  0  0  0  0  0  0  0
   31.0767  -29.6494    8.6715 C   0  0  0  0  0  0  0  0  0  0  0  0
   32.0177  -28.6265    8.6764 C   0  0  0  0  0  0  0  0  0  0  0  0
   34.8416  -25.8952    7.1378 C   0  0  0  0  0  0  0  0  0  0  0  0
   36.0702  -25.6958    7.1861 O   0  0  0  0  0  0  0  0  0  0  0  0
   34.2303  -22.1556    4.6002 C   0  0  0  0  0  0  0  0  0  0  0  0
   33.0409  -22.4510    5.5023 C   0  0  2  0  0  0  0  0  0  0  0  0
   31.9359  -21.4953    5.1689 C   0  0  0  0  0  0  0  0  0  0  0  0
   33.4403  -22.4349    6.9530 C   0  0  0  0  0  0  0  0  0  0  0  0
   34.4543  -23.4318    7.3392 C   0  0  2  0  0  0  0  0  0  0  0  0
   33.9561  -24.8033    7.2214 N   0  0  0  0  0  0  0  0  0  0  0  0
   35.0127  -23.3285    8.7036 C   0  0  0  0  0  0  0  0  0  0  0  0
   34.9845  -24.3683    9.4105 O   0  0  0  0  0  0  0  0  0  0  0  0
   39.3613  -22.3487   11.0885 N   0  0  0  0  0  0  0  0  0  0  0  0
   39.2427  -22.6507    9.6827 C   0  0  0  0  0  0  0  0  0  0  0  0
   40.3102  -22.9067    9.0888 O   0  0  0  0  0  0  0  0  0  0  0  0
   37.9363  -22.6489    9.0213 C   0  0  0  0  0  0  0  0  0  0  0  0
   36.8477  -22.2829    9.9800 C   0  0  2  0  0  0  0  0  0  0  0  0
   35.5628  -22.1701    9.2548 N   0  0  0  0  0  0  0  0  0  0  0  0
   37.1003  -20.8836   10.4638 C   0  0  0  0  0  0  0  0  0  0  0  0
   36.9427  -19.9107    9.7113 O   0  0  0  0  0  0  0  0  0  0  0  0
   37.5198  -20.6534   11.7783 O   0  0  0  0  0  0  0  0  0  0  0  0
  2  1  1  6
  3  4  1  0
  3  2  1  0
  4  9  2  0
  5  4  1  0
  5  6  2  0
  6  7  1  0
  7  8  2  0
  9  8  1  0
 10  2  1  0
 11 10  2  0
 13 12  1  6
 14 13  1  0
 15 13  1  0
 16 17  1  0
 16 15  1  1
 17 10  1  0
 18 16  1  0
 19 18  2  0
 20 21  1  0
 21 22  2  0
 23 21  1  0
 24 23  1  6
 24 25  1  0
 25 18  1  0
 26 24  1  0
 26 28  1  0
 27 26  2  0
M  END
$$$$
