FLN.pdb
     RDKit          3D

 28 28  0  0  1  0  0  0  0  0999 V2000
   24.3116  -19.5106  -19.5493 N   0  0  0  0  0  0  0  0  0  0  0  0
   24.0610  -18.5760  -18.4712 C   0  0  1  0  0  0  0  0  0  0  0  0
   22.6764  -17.9365  -18.6230 C   0  0  0  0  0  0  0  0  0  0  0  0
   22.7377  -17.0835  -19.8200 C   0  0  0  0  0  0  0  0  0  0  0  0
   22.1810  -17.5813  -20.9978 C   0  0  0  0  0  0  0  0  0  0  0  0
   22.2326  -16.7938  -22.1210 C   0  0  0  0  0  0  0  0  0  0  0  0
   22.8176  -15.5563  -22.0704 C   0  0  0  0  0  0  0  0  0  0  0  0
   23.3698  -15.0717  -20.8871 C   0  0  0  0  0  0  0  0  0  0  0  0
   23.3283  -15.8530  -19.7383 C   0  0  0  0  0  0  0  0  0  0  0  0
   24.0627  -19.2530  -17.1490 C   0  0  0  0  0  0  0  0  0  0  0  0
   23.6786  -20.4353  -17.0690 O   0  0  0  0  0  0  0  0  0  0  0  0
   27.1225  -20.8977  -14.9265 C   0  0  0  0  0  0  0  0  0  0  0  0
   27.0849  -19.3929  -14.7035 C   0  0  2  0  0  0  0  0  0  0  0  0
   28.3434  -18.9794  -14.0028 C   0  0  0  0  0  0  0  0  0  0  0  0
   25.8276  -18.9796  -13.9874 C   0  0  0  0  0  0  0  0  0  0  0  0
   24.5711  -19.2716  -14.6995 C   0  0  2  0  0  0  0  0  0  0  0  0
   24.4909  -18.5810  -15.9879 N   0  0  0  0  0  0  0  0  0  0  0  0
   23.3108  -18.9498  -13.9980 C   0  0  0  0  0  0  0  0  0  0  0  0
   22.6584  -17.9624  -14.4236 O   0  0  0  0  0  0  0  0  0  0  0  0
   18.3996  -19.2687  -13.6728 N   0  0  0  0  0  0  0  0  0  0  0  0
   19.3488  -20.1984  -14.2350 C   0  0  0  0  0  0  0  0  0  0  0  0
   18.8687  -21.2520  -14.7009 O   0  0  0  0  0  0  0  0  0  0  0  0
   20.7816  -19.8962  -14.2440 C   0  0  0  0  0  0  0  0  0  0  0  0
   21.3433  -19.9078  -12.8575 C   0  0  2  0  0  0  0  0  0  0  0  0
   22.8009  -19.6582  -12.9087 N   0  0  0  0  0  0  0  0  0  0  0  0
   21.2469  -21.3089  -12.3247 C   0  0  0  0  0  0  0  0  0  0  0  0
   22.1793  -22.1127  -12.4726 O   0  0  0  0  0  0  0  0  0  0  0  0
   20.0974  -21.7323  -11.6491 O   0  0  0  0  0  0  0  0  0  0  0  0
  2  1  1  6
  3  4  1  0
  3  2  1  0
  4  9  2  0
  5  4  1  0
  5  6  2  0
  6  7  1  0
  7  8  2  0
  9  8  1  0
 10  2  1  0
 11 10  2  0
 13 12  1  1
 14 13  1  0
 15 13  1  0
 16 17  1  0
 16 15  1  1
 17 10  1  0
 18 16  1  0
 19 18  2  0
 20 21  1  0
 21 22  2  0
 23 21  1  0
 24 23  1  6
 24 25  1  0
 25 18  1  0
 26 24  1  0
 26 28  1  0
 27 26  2  0
M  END
$$$$
