FLN.pdb
     RDKit          3D

 28 28  0  0  1  0  0  0  0  0999 V2000
   27.2770  -19.6375  -15.8201 N   0  0  0  0  0  0  0  0  0  0  0  0
   26.4421  -19.1383  -14.7467 C   0  0  1  0  0  0  0  0  0  0  0  0
   24.9690  -19.1278  -15.1699 C   0  0  0  0  0  0  0  0  0  0  0  0
   24.8386  -18.0940  -16.2083 C   0  0  0  0  0  0  0  0  0  0  0  0
   24.6166  -16.7822  -15.7904 C   0  0  0  0  0  0  0  0  0  0  0  0
   24.4934  -15.8094  -16.7510 C   0  0  0  0  0  0  0  0  0  0  0  0
   24.5881  -16.1337  -18.0784 C   0  0  0  0  0  0  0  0  0  0  0  0
   24.8100  -17.4482  -18.4816 C   0  0  0  0  0  0  0  0  0  0  0  0
   24.9378  -18.4486  -17.5252 C   0  0  0  0  0  0  0  0  0  0  0  0
   26.5219  -20.0052  -13.5432 C   0  0  0  0  0  0  0  0  0  0  0  0
   26.7007  -21.2299  -13.6848 O   0  0  0  0  0  0  0  0  0  0  0  0
   24.9475  -21.1615   -8.4990 C   0  0  0  0  0  0  0  0  0  0  0  0
   26.3283  -20.5292   -8.5942 C   0  0  2  0  0  0  0  0  0  0  0  0
   26.6165  -19.8090   -7.3120 C   0  0  0  0  0  0  0  0  0  0  0  0
   26.4467  -19.6613   -9.8177 C   0  0  0  0  0  0  0  0  0  0  0  0
   26.1226  -20.3225  -11.0940 C   0  0  2  0  0  0  0  0  0  0  0  0
   26.3995  -19.4657  -12.2482 N   0  0  0  0  0  0  0  0  0  0  0  0
   24.7329  -20.7925  -11.2733 C   0  0  0  0  0  0  0  0  0  0  0  0
   24.2905  -21.6010  -10.4176 O   0  0  0  0  0  0  0  0  0  0  0  0
   19.6342  -21.0116  -11.4886 N   0  0  0  0  0  0  0  0  0  0  0  0
   20.1699  -20.0529  -12.4241 C   0  0  0  0  0  0  0  0  0  0  0  0
   19.3647  -19.6051  -13.2661 O   0  0  0  0  0  0  0  0  0  0  0  0
   21.5763  -19.6495  -12.3643 C   0  0  0  0  0  0  0  0  0  0  0  0
   22.4749  -20.8417  -12.2674 C   0  0  2  0  0  0  0  0  0  0  0  0
   23.8879  -20.4051  -12.3146 N   0  0  0  0  0  0  0  0  0  0  0  0
   22.3167  -21.6509  -13.5229 C   0  0  0  0  0  0  0  0  0  0  0  0
   23.2374  -21.7315  -14.3496 O   0  0  0  0  0  0  0  0  0  0  0  0
   21.1218  -22.3306  -13.7818 O   0  0  0  0  0  0  0  0  0  0  0  0
  2  1  1  6
  3  4  1  0
  3  2  1  0
  4  9  2  0
  5  4  1  0
  5  6  2  0
  6  7  1  0
  7  8  2  0
  9  8  1  0
 10  2  1  0
 11 10  2  0
 13 12  1  1
 14 13  1  0
 15 13  1  0
 16 17  1  0
 16 15  1  1
 17 10  1  0
 18 16  1  0
 19 18  2  0
 20 21  1  0
 21 22  2  0
 23 21  1  0
 24 23  1  6
 24 25  1  0
 25 18  1  0
 26 24  1  0
 26 28  1  0
 27 26  2  0
M  END
$$$$
