FLN.pdb
     RDKit          3D

 28 28  0  0  1  0  0  0  0  0999 V2000
   28.1260  -20.9347  -14.6135 N   0  0  0  0  0  0  0  0  0  0  0  0
   27.2166  -20.0070  -13.9725 C   0  0  1  0  0  0  0  0  0  0  0  0
   26.3029  -19.3444  -15.0094 C   0  0  0  0  0  0  0  0  0  0  0  0
   27.1038  -18.3007  -15.6677 C   0  0  0  0  0  0  0  0  0  0  0  0
   27.1802  -17.0552  -15.0450 C   0  0  0  0  0  0  0  0  0  0  0  0
   27.9249  -16.0738  -15.6506 C   0  0  0  0  0  0  0  0  0  0  0  0
   28.5689  -16.3261  -16.8329 C   0  0  0  0  0  0  0  0  0  0  0  0
   28.4838  -17.5749  -17.4438 C   0  0  0  0  0  0  0  0  0  0  0  0
   27.7350  -18.5826  -16.8474 C   0  0  0  0  0  0  0  0  0  0  0  0
   26.3200  -20.6969  -13.0099 C   0  0  0  0  0  0  0  0  0  0  0  0
   25.8634  -21.8192  -13.2990 O   0  0  0  0  0  0  0  0  0  0  0  0
   27.1223  -21.8156   -8.9148 C   0  0  0  0  0  0  0  0  0  0  0  0
   26.6244  -20.3780   -8.9489 C   0  0  2  0  0  0  0  0  0  0  0  0
   26.7974  -19.7772   -7.5870 C   0  0  0  0  0  0  0  0  0  0  0  0
   25.2153  -20.3019   -9.4714 C   0  0  0  0  0  0  0  0  0  0  0  0
   25.0342  -20.7467  -10.8644 C   0  0  2  0  0  0  0  0  0  0  0  0
   25.9796  -20.1038  -11.7789 N   0  0  0  0  0  0  0  0  0  0  0  0
   23.6998  -20.5439  -11.4665 C   0  0  0  0  0  0  0  0  0  0  0  0
   23.2620  -19.3653  -11.4965 O   0  0  0  0  0  0  0  0  0  0  0  0
   19.7530  -19.5325  -14.3337 N   0  0  0  0  0  0  0  0  0  0  0  0
   20.7733  -20.4141  -14.8464 C   0  0  0  0  0  0  0  0  0  0  0  0
   20.5470  -20.9156  -15.9667 O   0  0  0  0  0  0  0  0  0  0  0  0
   21.9891  -20.6844  -14.0764 C   0  0  0  0  0  0  0  0  0  0  0  0
   21.6586  -21.1736  -12.7019 C   0  0  2  0  0  0  0  0  0  0  0  0
   22.9019  -21.5584  -11.9979 N   0  0  0  0  0  0  0  0  0  0  0  0
   20.9147  -22.4720  -12.8329 C   0  0  0  0  0  0  0  0  0  0  0  0
   21.5107  -23.5226  -13.1129 O   0  0  0  0  0  0  0  0  0  0  0  0
   19.5299  -22.5176  -12.6402 O   0  0  0  0  0  0  0  0  0  0  0  0
  2  1  1  6
  3  4  1  0
  3  2  1  0
  4  9  2  0
  5  4  1  0
  5  6  2  0
  6  7  1  0
  7  8  2  0
  9  8  1  0
 10  2  1  0
 11 10  2  0
 13 12  1  1
 14 13  1  0
 15 13  1  0
 16 17  1  0
 16 15  1  1
 17 10  1  0
 18 16  1  0
 19 18  2  0
 20 21  1  0
 21 22  2  0
 23 21  1  0
 24 23  1  6
 24 25  1  0
 25 18  1  0
 26 24  1  0
 26 28  1  0
 27 26  2  0
M  END
$$$$
