FLN.pdb
     RDKit          3D

 28 28  0  0  1  0  0  0  0  0999 V2000
   25.9711  -20.8797  -14.1241 N   0  0  0  0  0  0  0  0  0  0  0  0
   25.7349  -19.9398  -13.0473 C   0  0  1  0  0  0  0  0  0  0  0  0
   24.6801  -18.9056  -13.4562 C   0  0  0  0  0  0  0  0  0  0  0  0
   25.2574  -18.1354  -14.5686 C   0  0  0  0  0  0  0  0  0  0  0  0
   26.4286  -17.4201  -14.3205 C   0  0  0  0  0  0  0  0  0  0  0  0
   26.9760  -16.6978  -15.3515 C   0  0  0  0  0  0  0  0  0  0  0  0
   26.3771  -16.6898  -16.5834 C   0  0  0  0  0  0  0  0  0  0  0  0
   25.2075  -17.4089  -16.8170 C   0  0  0  0  0  0  0  0  0  0  0  0
   24.6365  -18.1469  -15.7868 C   0  0  0  0  0  0  0  0  0  0  0  0
   25.2044  -20.6172  -11.8366 C   0  0  0  0  0  0  0  0  0  0  0  0
   24.3627  -21.5264  -11.9661 O   0  0  0  0  0  0  0  0  0  0  0  0
   27.8625  -19.7688   -6.8207 C   0  0  0  0  0  0  0  0  0  0  0  0
   26.5398  -19.8130   -7.5717 C   0  0  2  0  0  0  0  0  0  0  0  0
   25.4235  -19.6205   -6.5906 C   0  0  0  0  0  0  0  0  0  0  0  0
   26.4193  -21.0707   -8.3891 C   0  0  0  0  0  0  0  0  0  0  0  0
   25.3292  -21.0767   -9.3805 C   0  0  2  0  0  0  0  0  0  0  0  0
   25.6373  -20.2490  -10.5481 N   0  0  0  0  0  0  0  0  0  0  0  0
   23.9982  -20.6306   -8.9183 C   0  0  0  0  0  0  0  0  0  0  0  0
   23.5788  -19.5325   -9.3654 O   0  0  0  0  0  0  0  0  0  0  0  0
   18.9946  -21.2986   -8.5293 N   0  0  0  0  0  0  0  0  0  0  0  0
   19.8284  -21.7437   -9.6192 C   0  0  0  0  0  0  0  0  0  0  0  0
   19.2270  -22.1281  -10.6431 O   0  0  0  0  0  0  0  0  0  0  0  0
   21.2879  -21.7334   -9.5015 C   0  0  0  0  0  0  0  0  0  0  0  0
   21.7172  -21.2027   -8.1702 C   0  0  2  0  0  0  0  0  0  0  0  0
   23.1843  -21.3362   -8.0306 N   0  0  0  0  0  0  0  0  0  0  0  0
   21.1800  -22.1165   -7.1061 C   0  0  0  0  0  0  0  0  0  0  0  0
   21.8168  -23.1168   -6.7437 O   0  0  0  0  0  0  0  0  0  0  0  0
   19.9456  -21.8529   -6.5030 O   0  0  0  0  0  0  0  0  0  0  0  0
  2  1  1  6
  3  4  1  0
  3  2  1  0
  4  9  2  0
  5  4  1  0
  5  6  2  0
  6  7  1  0
  7  8  2  0
  9  8  1  0
 10  2  1  0
 11 10  2  0
 13 12  1  1
 14 13  1  0
 15 13  1  0
 16 17  1  0
 16 15  1  1
 17 10  1  0
 18 16  1  0
 19 18  2  0
 20 21  1  0
 21 22  2  0
 23 21  1  0
 24 23  1  6
 24 25  1  0
 25 18  1  0
 26 24  1  0
 26 28  1  0
 27 26  2  0
M  END
$$$$
