FLN.pdb
     RDKit          3D

 28 28  0  0  1  0  0  0  0  0999 V2000
   28.4766  -21.0747   -8.9457 N   0  0  0  0  0  0  0  0  0  0  0  0
   27.1051  -20.6182   -8.8504 C   0  0  1  0  0  0  0  0  0  0  0  0
   27.0368  -19.2604   -8.1428 C   0  0  0  0  0  0  0  0  0  0  0  0
   27.5965  -19.4604   -6.7972 C   0  0  0  0  0  0  0  0  0  0  0  0
   28.6474  -18.6320   -6.4043 C   0  0  0  0  0  0  0  0  0  0  0  0
   29.1774  -18.8098   -5.1506 C   0  0  0  0  0  0  0  0  0  0  0  0
   28.6774  -19.7778   -4.3205 C   0  0  0  0  0  0  0  0  0  0  0  0
   27.6274  -20.5982   -4.7259 C   0  0  0  0  0  0  0  0  0  0  0  0
   27.0763  -20.4349   -5.9914 C   0  0  0  0  0  0  0  0  0  0  0  0
   26.5009  -20.4176  -10.1924 C   0  0  0  0  0  0  0  0  0  0  0  0
   27.0246  -19.6091  -10.9821 O   0  0  0  0  0  0  0  0  0  0  0  0
   24.7913  -24.0952  -14.4809 C   0  0  0  0  0  0  0  0  0  0  0  0
   24.7116  -22.6478  -14.0183 C   0  0  2  0  0  0  0  0  0  0  0  0
   25.5040  -21.7968  -14.9636 C   0  0  0  0  0  0  0  0  0  0  0  0
   25.1330  -22.5116  -12.5801 C   0  0  0  0  0  0  0  0  0  0  0  0
   24.9329  -21.1774  -11.9878 C   0  0  2  0  0  0  0  0  0  0  0  0
   25.3486  -21.1257  -10.5850 N   0  0  0  0  0  0  0  0  0  0  0  0
   23.5607  -20.6290  -12.0152 C   0  0  0  0  0  0  0  0  0  0  0  0
   22.8362  -20.8576  -11.0130 O   0  0  0  0  0  0  0  0  0  0  0  0
   19.7926  -16.2946  -14.1803 N   0  0  0  0  0  0  0  0  0  0  0  0
   20.1731  -17.5058  -13.4952 C   0  0  0  0  0  0  0  0  0  0  0  0
   19.3285  -17.9719  -12.7032 O   0  0  0  0  0  0  0  0  0  0  0  0
   21.4772  -18.1269  -13.7353 C   0  0  0  0  0  0  0  0  0  0  0  0
   21.6405  -19.3698  -12.9188 C   0  0  2  0  0  0  0  0  0  0  0  0
   23.0205  -19.8835  -13.0644 N   0  0  0  0  0  0  0  0  0  0  0  0
   20.7984  -20.4497  -13.5359 C   0  0  0  0  0  0  0  0  0  0  0  0
   21.0023  -20.8315  -14.6978 O   0  0  0  0  0  0  0  0  0  0  0  0
   19.7645  -21.0459  -12.8060 O   0  0  0  0  0  0  0  0  0  0  0  0
  2  1  1  6
  3  4  1  0
  3  2  1  0
  4  9  2  0
  5  4  1  0
  5  6  2  0
  6  7  1  0
  7  8  2  0
  9  8  1  0
 10  2  1  0
 11 10  2  0
 13 12  1  6
 14 13  1  0
 15 13  1  0
 16 17  1  0
 16 15  1  1
 17 10  1  0
 18 16  1  0
 19 18  2  0
 20 21  1  0
 21 22  2  0
 23 21  1  0
 24 23  1  6
 24 25  1  0
 25 18  1  0
 26 24  1  0
 26 28  1  0
 27 26  2  0
M  END
$$$$
