III.pdb
     RDKit          3D

 25 24  0  0  1  0  0  0  0  0999 V2000
    8.6417  -19.6728   21.6849 C   0  0  0  0  0  0  0  0  0  0  0  0
    8.0694  -18.2564   21.7257 C   0  0  0  0  0  0  0  0  0  0  0  0
    8.7553  -17.3597   20.7542 C   0  0  2  0  0  0  0  0  0  0  0  0
   10.2430  -17.4805   20.7568 C   0  0  0  0  0  0  0  0  0  0  0  0
    8.2474  -15.9420   20.9327 C   0  0  2  0  0  0  0  0  0  0  0  0
    8.8094  -15.2164   19.7906 N   0  0  0  0  0  0  0  0  0  0  0  0
    8.6799  -15.3157   22.2043 C   0  0  0  0  0  0  0  0  0  0  0  0
    9.8391  -14.7743   22.3078 O   0  0  0  0  0  0  0  0  0  0  0  0
    5.4552  -12.3413   25.2995 C   0  0  0  0  0  0  0  0  0  0  0  0
    6.6525  -12.8473   24.5153 C   0  0  0  0  0  0  0  0  0  0  0  0
    7.2687  -13.9629   25.3420 C   0  0  2  0  0  0  0  0  0  0  0  0
    7.7021  -13.4553   26.7036 C   0  0  0  0  0  0  0  0  0  0  0  0
    8.4241  -14.6255   24.6117 C   0  0  2  0  0  0  0  0  0  0  0  0
    7.9010  -15.2460   23.3848 N   0  0  0  0  0  0  0  0  0  0  0  0
    8.9864  -15.6573   25.5150 C   0  0  0  0  0  0  0  0  0  0  0  0
    9.0565  -16.8566   25.1109 O   0  0  0  0  0  0  0  0  0  0  0  0
   10.9563  -13.4741   30.0171 C   0  0  0  0  0  0  0  0  0  0  0  0
   11.1897  -14.1922   28.6897 C   0  0  0  0  0  0  0  0  0  0  0  0
   10.8619  -15.6558   28.8019 C   0  0  2  0  0  0  0  0  0  0  0  0
   11.9186  -16.4199   29.5557 C   0  0  0  0  0  0  0  0  0  0  0  0
   10.5076  -16.2055   27.4754 C   0  0  2  0  0  0  0  0  0  0  0  0
    9.4594  -15.3992   26.8179 N   0  0  0  0  0  0  0  0  0  0  0  0
    9.9874  -17.5705   27.5247 C   0  0  0  0  0  0  0  0  0  0  0  0
    8.7223  -17.8221   28.0181 O   0  0  0  0  0  0  0  0  0  0  0  0
   10.6492  -18.5464   27.1320 O   0  0  0  0  0  0  0  0  0  0  0  0
  2  1  1  0
  3  2  1  0
  3  4  1  1
  5  7  1  0
  5  3  1  0
  5  6  1  6
  7  8  2  0
 10  9  1  0
 11 10  1  0
 11 13  1  0
 11 12  1  1
 13 14  1  6
 14  7  1  0
 15 16  2  0
 15 13  1  0
 17 18  1  0
 18 19  1  0
 19 21  1  0
 19 20  1  6
 21 22  1  1
 21 23  1  0
 22 15  1  0
 23 24  1  0
 25 23  2  0
M  END
$$$$
