III.pdb
     RDKit          3D

 25 24  0  0  1  0  0  0  0  0999 V2000
    7.8617  -11.7722   19.8202 C   0  0  0  0  0  0  0  0  0  0  0  0
    7.6196  -12.9295   20.7885 C   0  0  0  0  0  0  0  0  0  0  0  0
    8.0674  -14.2283   20.2133 C   0  0  2  0  0  0  0  0  0  0  0  0
    7.4622  -14.5501   18.8873 C   0  0  0  0  0  0  0  0  0  0  0  0
    7.9042  -15.3215   21.2516 C   0  0  2  0  0  0  0  0  0  0  0  0
    6.4530  -15.4789   21.3774 N   0  0  0  0  0  0  0  0  0  0  0  0
    8.5013  -14.9822   22.5649 C   0  0  0  0  0  0  0  0  0  0  0  0
    9.7673  -14.8070   22.6841 O   0  0  0  0  0  0  0  0  0  0  0  0
    6.0208  -11.8437   26.1282 C   0  0  0  0  0  0  0  0  0  0  0  0
    7.0416  -12.4914   25.2101 C   0  0  0  0  0  0  0  0  0  0  0  0
    7.5371  -13.7358   25.9267 C   0  0  2  0  0  0  0  0  0  0  0  0
    8.2062  -13.3775   27.2394 C   0  0  0  0  0  0  0  0  0  0  0  0
    8.4643  -14.5550   25.0455 C   0  0  2  0  0  0  0  0  0  0  0  0
    7.7782  -14.8189   23.7713 N   0  0  0  0  0  0  0  0  0  0  0  0
    8.7440  -15.8253   25.7562 C   0  0  0  0  0  0  0  0  0  0  0  0
    7.7816  -16.6060   26.0223 O   0  0  0  0  0  0  0  0  0  0  0  0
   12.5167  -18.7469   23.8116 C   0  0  0  0  0  0  0  0  0  0  0  0
   11.2615  -18.2659   24.5362 C   0  0  0  0  0  0  0  0  0  0  0  0
   11.4894  -18.1913   26.0210 C   0  0  2  0  0  0  0  0  0  0  0  0
   11.9552  -19.5048   26.5923 C   0  0  0  0  0  0  0  0  0  0  0  0
   10.3161  -17.5895   26.6907 C   0  0  2  0  0  0  0  0  0  0  0  0
   10.0277  -16.2392   26.1670 N   0  0  0  0  0  0  0  0  0  0  0  0
   10.4812  -17.4297   28.1341 C   0  0  0  0  0  0  0  0  0  0  0  0
   11.0604  -16.2881   28.6523 O   0  0  0  0  0  0  0  0  0  0  0  0
   10.1142  -18.2987   28.9433 O   0  0  0  0  0  0  0  0  0  0  0  0
  2  1  1  0
  3  2  1  0
  3  4  1  6
  5  7  1  0
  5  3  1  0
  5  6  1  1
  7  8  2  0
 10  9  1  0
 11 10  1  0
 11 13  1  0
 11 12  1  1
 13 14  1  6
 14  7  1  0
 15 16  2  0
 15 13  1  0
 17 18  1  0
 18 19  1  0
 19 21  1  0
 19 20  1  1
 21 22  1  6
 21 23  1  0
 22 15  1  0
 23 24  1  0
 25 23  2  0
M  END
$$$$
