III.pdb
     RDKit          3D

 25 24  0  0  1  0  0  0  0  0999 V2000
   10.1694  -19.6005   19.2817 C   0  0  0  0  0  0  0  0  0  0  0  0
    9.6524  -18.1688   19.4176 C   0  0  0  0  0  0  0  0  0  0  0  0
    9.8526  -17.6422   20.7963 C   0  0  2  0  0  0  0  0  0  0  0  0
    9.4812  -18.6026   21.8768 C   0  0  0  0  0  0  0  0  0  0  0  0
    9.1885  -16.2842   20.9177 C   0  0  2  0  0  0  0  0  0  0  0  0
    9.7934  -15.4950   19.8417 N   0  0  0  0  0  0  0  0  0  0  0  0
    9.4174  -15.6301   22.2277 C   0  0  0  0  0  0  0  0  0  0  0  0
   10.5567  -15.1118   22.5118 O   0  0  0  0  0  0  0  0  0  0  0  0
    5.5946  -12.6577   24.6009 C   0  0  0  0  0  0  0  0  0  0  0  0
    6.9182  -13.1356   24.0314 C   0  0  0  0  0  0  0  0  0  0  0  0
    7.4649  -14.1587   25.0122 C   0  0  2  0  0  0  0  0  0  0  0  0
    7.6615  -13.5452   26.3850 C   0  0  0  0  0  0  0  0  0  0  0  0
    8.7513  -14.7867   24.5041 C   0  0  2  0  0  0  0  0  0  0  0  0
    8.4529  -15.5079   23.2573 N   0  0  0  0  0  0  0  0  0  0  0  0
    9.2272  -15.7275   25.5458 C   0  0  0  0  0  0  0  0  0  0  0  0
    9.2699  -16.9666   25.2824 O   0  0  0  0  0  0  0  0  0  0  0  0
   10.8126  -13.2270   29.9985 C   0  0  0  0  0  0  0  0  0  0  0  0
   11.1831  -14.0743   28.7832 C   0  0  0  0  0  0  0  0  0  0  0  0
   10.7903  -15.5118   28.9862 C   0  0  2  0  0  0  0  0  0  0  0  0
   11.7475  -16.2412   29.8920 C   0  0  0  0  0  0  0  0  0  0  0  0
   10.5308  -16.1618   27.6835 C   0  0  2  0  0  0  0  0  0  0  0  0
    9.6449  -15.3392   26.8352 N   0  0  0  0  0  0  0  0  0  0  0  0
    9.8769  -17.4642   27.7963 C   0  0  0  0  0  0  0  0  0  0  0  0
    8.5107  -17.5501   27.9784 O   0  0  0  0  0  0  0  0  0  0  0  0
   10.5107  -18.5314   27.7345 O   0  0  0  0  0  0  0  0  0  0  0  0
  2  1  1  0
  3  2  1  0
  3  4  1  1
  5  7  1  0
  5  3  1  0
  5  6  1  6
  7  8  2  0
 10  9  1  0
 11 10  1  0
 11 13  1  0
 11 12  1  1
 13 14  1  6
 14  7  1  0
 15 16  2  0
 15 13  1  0
 17 18  1  0
 18 19  1  0
 19 21  1  0
 19 20  1  6
 21 22  1  6
 21 23  1  0
 22 15  1  0
 23 24  1  0
 25 23  2  0
M  END
$$$$
