III.pdb
     RDKit          3D

 25 24  0  0  1  0  0  0  0  0999 V2000
    7.8191  -12.4652   18.4024 C   0  0  0  0  0  0  0  0  0  0  0  0
    7.8018  -13.9675   18.6821 C   0  0  0  0  0  0  0  0  0  0  0  0
    7.4487  -14.2572   20.0997 C   0  0  2  0  0  0  0  0  0  0  0  0
    8.2452  -13.4843   21.0977 C   0  0  0  0  0  0  0  0  0  0  0  0
    7.4593  -15.7569   20.3246 C   0  0  2  0  0  0  0  0  0  0  0  0
    6.4759  -16.2673   19.3659 N   0  0  0  0  0  0  0  0  0  0  0  0
    7.0860  -16.1497   21.7040 C   0  0  0  0  0  0  0  0  0  0  0  0
    5.9106  -15.9077   22.1595 O   0  0  0  0  0  0  0  0  0  0  0  0
    7.1818  -20.7969   23.7860 C   0  0  0  0  0  0  0  0  0  0  0  0
    6.8894  -19.3571   23.4037 C   0  0  0  0  0  0  0  0  0  0  0  0
    7.6961  -18.4872   24.3524 C   0  0  2  0  0  0  0  0  0  0  0  0
    7.3259  -18.7682   25.7958 C   0  0  0  0  0  0  0  0  0  0  0  0
    7.5409  -17.0121   24.0248 C   0  0  2  0  0  0  0  0  0  0  0  0
    7.9399  -16.8047   22.6243 N   0  0  0  0  0  0  0  0  0  0  0  0
    8.4358  -16.2590   24.9354 C   0  0  0  0  0  0  0  0  0  0  0  0
    9.6698  -16.1786   24.6574 O   0  0  0  0  0  0  0  0  0  0  0  0
    6.3353  -11.8259   26.9079 C   0  0  0  0  0  0  0  0  0  0  0  0
    7.3477  -12.8165   26.3373 C   0  0  0  0  0  0  0  0  0  0  0  0
    8.0562  -13.5592   27.4367 C   0  0  2  0  0  0  0  0  0  0  0  0
    8.8023  -12.6327   28.3607 C   0  0  0  0  0  0  0  0  0  0  0  0
    8.8535  -14.6705   26.8744 C   0  0  2  0  0  0  0  0  0  0  0  0
    8.0080  -15.6118   26.1127 N   0  0  0  0  0  0  0  0  0  0  0  0
    9.5343  -15.4762   27.8861 C   0  0  0  0  0  0  0  0  0  0  0  0
    8.9301  -16.6021   28.4100 O   0  0  0  0  0  0  0  0  0  0  0  0
   10.6660  -15.1881   28.3114 O   0  0  0  0  0  0  0  0  0  0  0  0
  2  1  1  0
  3  2  1  0
  3  4  1  1
  5  7  1  0
  5  3  1  0
  5  6  1  6
  7  8  2  0
 10  9  1  0
 11 10  1  0
 11 13  1  0
 11 12  1  1
 13 14  1  6
 14  7  1  0
 15 16  2  0
 15 13  1  0
 17 18  1  0
 18 19  1  0
 19 21  1  0
 19 20  1  6
 21 22  1  1
 21 23  1  0
 22 15  1  0
 23 24  1  0
 25 23  2  0
M  END
$$$$
