III.pdb
     RDKit          3D

 25 24  0  0  1  0  0  0  0  0999 V2000
    6.9432  -22.0509   25.4061 C   0  0  0  0  0  0  0  0  0  0  0  0
    6.1598  -20.8537   24.8688 C   0  0  0  0  0  0  0  0  0  0  0  0
    7.0132  -19.6365   24.7775 C   0  0  2  0  0  0  0  0  0  0  0  0
    7.8638  -19.3953   25.9800 C   0  0  0  0  0  0  0  0  0  0  0  0
    6.1575  -18.4510   24.3747 C   0  0  2  0  0  0  0  0  0  0  0  0
    5.5396  -18.8702   23.1142 N   0  0  0  0  0  0  0  0  0  0  0  0
    6.9324  -17.2030   24.1787 C   0  0  0  0  0  0  0  0  0  0  0  0
    7.7513  -17.0868   23.1971 O   0  0  0  0  0  0  0  0  0  0  0  0
    5.3417  -12.4328   26.3149 C   0  0  0  0  0  0  0  0  0  0  0  0
    5.8793  -13.3464   25.2282 C   0  0  0  0  0  0  0  0  0  0  0  0
    7.2735  -13.7620   25.6654 C   0  0  2  0  0  0  0  0  0  0  0  0
    8.2334  -12.5895   25.6088 C   0  0  0  0  0  0  0  0  0  0  0  0
    7.7896  -14.9320   24.8457 C   0  0  2  0  0  0  0  0  0  0  0  0
    6.8570  -16.0579   25.0082 N   0  0  0  0  0  0  0  0  0  0  0  0
    9.1281  -15.2875   25.3740 C   0  0  0  0  0  0  0  0  0  0  0  0
   10.1590  -14.9232   24.7329 O   0  0  0  0  0  0  0  0  0  0  0  0
   10.3404  -13.9865   30.2530 C   0  0  0  0  0  0  0  0  0  0  0  0
    9.9878  -15.0643   29.2302 C   0  0  0  0  0  0  0  0  0  0  0  0
   10.9946  -15.1000   28.1134 C   0  0  2  0  0  0  0  0  0  0  0  0
   11.1956  -13.7462   27.4845 C   0  0  0  0  0  0  0  0  0  0  0  0
   10.6779  -16.1953   27.1717 C   0  0  2  0  0  0  0  0  0  0  0  0
    9.3450  -16.0160   26.5615 N   0  0  0  0  0  0  0  0  0  0  0  0
   10.6561  -17.5177   27.7940 C   0  0  0  0  0  0  0  0  0  0  0  0
   11.8073  -18.0600   28.3305 O   0  0  0  0  0  0  0  0  0  0  0  0
    9.6193  -18.1992   27.8658 O   0  0  0  0  0  0  0  0  0  0  0  0
  2  1  1  0
  3  2  1  0
  3  4  1  1
  5  7  1  0
  5  3  1  0
  5  6  1  6
  7  8  2  0
 10  9  1  0
 11 10  1  0
 11 13  1  0
 11 12  1  6
 13 14  1  1
 14  7  1  0
 15 16  2  0
 15 13  1  0
 17 18  1  0
 18 19  1  0
 19 21  1  0
 19 20  1  6
 21 22  1  1
 21 23  1  0
 22 15  1  0
 23 24  1  0
 25 23  2  0
M  END
$$$$
