III.pdb
     RDKit          3D

 25 24  0  0  1  0  0  0  0  0999 V2000
    8.0944  -19.5850   27.1600 C   0  0  0  0  0  0  0  0  0  0  0  0
    8.0333  -19.4478   25.6392 C   0  0  0  0  0  0  0  0  0  0  0  0
    6.6421  -19.2041   25.1662 C   0  0  2  0  0  0  0  0  0  0  0  0
    5.6437  -20.1926   25.6702 C   0  0  0  0  0  0  0  0  0  0  0  0
    6.6449  -19.0384   23.6587 C   0  0  2  0  0  0  0  0  0  0  0  0
    7.0384  -20.3574   23.1566 N   0  0  0  0  0  0  0  0  0  0  0  0
    7.5902  -18.0020   23.1805 C   0  0  0  0  0  0  0  0  0  0  0  0
    8.8043  -18.3039   22.8937 O   0  0  0  0  0  0  0  0  0  0  0  0
    6.1892  -13.7264   20.0624 C   0  0  0  0  0  0  0  0  0  0  0  0
    6.9824  -14.9191   20.5653 C   0  0  0  0  0  0  0  0  0  0  0  0
    7.5968  -14.5003   21.8900 C   0  0  2  0  0  0  0  0  0  0  0  0
    8.5405  -13.3278   21.7054 C   0  0  0  0  0  0  0  0  0  0  0  0
    8.2956  -15.6631   22.5732 C   0  0  2  0  0  0  0  0  0  0  0  0
    7.2741  -16.6345   22.9935 N   0  0  0  0  0  0  0  0  0  0  0  0
    9.0106  -15.1199   23.7525 C   0  0  0  0  0  0  0  0  0  0  0  0
   10.0657  -14.4408   23.5732 O   0  0  0  0  0  0  0  0  0  0  0  0
    6.2352  -12.2150   26.5670 C   0  0  0  0  0  0  0  0  0  0  0  0
    7.4943  -12.8257   25.9555 C   0  0  0  0  0  0  0  0  0  0  0  0
    8.1710  -13.7543   26.9260 C   0  0  2  0  0  0  0  0  0  0  0  0
    8.6591  -13.0353   28.1562 C   0  0  0  0  0  0  0  0  0  0  0  0
    9.1838  -14.5761   26.2288 C   0  0  2  0  0  0  0  0  0  0  0  0
    8.5960  -15.3058   25.0872 N   0  0  0  0  0  0  0  0  0  0  0  0
    9.8000  -15.5943   27.0772 C   0  0  0  0  0  0  0  0  0  0  0  0
    9.5757  -16.9360   26.8392 O   0  0  0  0  0  0  0  0  0  0  0  0
   10.5391  -15.3020   28.0327 O   0  0  0  0  0  0  0  0  0  0  0  0
  2  1  1  0
  3  2  1  0
  3  4  1  6
  5  7  1  0
  5  3  1  0
  5  6  1  6
  7  8  2  0
 10  9  1  0
 11 10  1  0
 11 13  1  0
 11 12  1  6
 13 14  1  1
 14  7  1  0
 15 16  2  0
 15 13  1  0
 17 18  1  0
 18 19  1  0
 19 21  1  0
 19 20  1  1
 21 22  1  6
 21 23  1  0
 22 15  1  0
 23 24  1  0
 25 23  2  0
M  END
$$$$
