III.pdb
     RDKit          3D

 25 24  0  0  1  0  0  0  0  0999 V2000
    6.6686  -18.4983   19.2233 C   0  0  0  0  0  0  0  0  0  0  0  0
    6.7036  -17.0056   19.5489 C   0  0  0  0  0  0  0  0  0  0  0  0
    7.4151  -16.7404   20.8302 C   0  0  2  0  0  0  0  0  0  0  0  0
    7.0801  -17.6986   21.9244 C   0  0  0  0  0  0  0  0  0  0  0  0
    7.2437  -15.2818   21.2085 C   0  0  2  0  0  0  0  0  0  0  0  0
    7.7601  -14.5505   20.0486 N   0  0  0  0  0  0  0  0  0  0  0  0
    7.9867  -14.8981   22.4320 C   0  0  0  0  0  0  0  0  0  0  0  0
    9.2646  -14.7788   22.4131 O   0  0  0  0  0  0  0  0  0  0  0  0
    5.9449  -11.7234   26.2958 C   0  0  0  0  0  0  0  0  0  0  0  0
    6.9194  -12.3169   25.2943 C   0  0  0  0  0  0  0  0  0  0  0  0
    7.4147  -13.6208   25.8959 C   0  0  2  0  0  0  0  0  0  0  0  0
    8.2097  -13.3683   27.1622 C   0  0  0  0  0  0  0  0  0  0  0  0
    8.2233  -14.4260   24.8934 C   0  0  2  0  0  0  0  0  0  0  0  0
    7.3991  -14.6312   23.6924 N   0  0  0  0  0  0  0  0  0  0  0  0
    8.5480  -15.7259   25.5273 C   0  0  0  0  0  0  0  0  0  0  0  0
    7.6036  -16.5141   25.8330 O   0  0  0  0  0  0  0  0  0  0  0  0
   12.3096  -18.5725   23.3498 C   0  0  0  0  0  0  0  0  0  0  0  0
   11.0696  -18.1179   24.1165 C   0  0  0  0  0  0  0  0  0  0  0  0
   11.3270  -18.0987   25.5982 C   0  0  2  0  0  0  0  0  0  0  0  0
   11.7984  -19.4339   26.1117 C   0  0  0  0  0  0  0  0  0  0  0  0
   10.1696  -17.5179   26.3126 C   0  0  2  0  0  0  0  0  0  0  0  0
    9.8565  -16.1606   25.8220 N   0  0  0  0  0  0  0  0  0  0  0  0
   10.3757  -17.3826   27.7533 C   0  0  0  0  0  0  0  0  0  0  0  0
   10.0882  -18.4310   28.6049 O   0  0  0  0  0  0  0  0  0  0  0  0
   10.8107  -16.3370   28.2652 O   0  0  0  0  0  0  0  0  0  0  0  0
  2  1  1  0
  3  2  1  0
  3  4  1  1
  5  7  1  0
  5  3  1  0
  5  6  1  6
  7  8  2  0
 10  9  1  0
 11 10  1  0
 11 13  1  0
 11 12  1  1
 13 14  1  6
 14  7  1  0
 15 16  2  0
 15 13  1  0
 17 18  1  0
 18 19  1  0
 19 21  1  0
 19 20  1  1
 21 22  1  6
 21 23  1  0
 22 15  1  0
 23 24  1  0
 25 23  2  0
M  END
$$$$
