III.pdb
     RDKit          3D

 25 24  0  0  1  0  0  0  0  0999 V2000
    8.3411  -19.9789   26.5984 C   0  0  0  0  0  0  0  0  0  0  0  0
    8.0701  -19.6963   25.1212 C   0  0  0  0  0  0  0  0  0  0  0  0
    6.6738  -19.2276   24.8998 C   0  0  2  0  0  0  0  0  0  0  0  0
    5.6277  -20.1646   25.4054 C   0  0  0  0  0  0  0  0  0  0  0  0
    6.5008  -18.8301   23.4466 C   0  0  2  0  0  0  0  0  0  0  0  0
    6.7184  -20.0769   22.7084 N   0  0  0  0  0  0  0  0  0  0  0  0
    7.4605  -17.7928   23.0000 C   0  0  0  0  0  0  0  0  0  0  0  0
    8.6127  -18.1203   22.5387 O   0  0  0  0  0  0  0  0  0  0  0  0
    6.1106  -13.5527   20.1021 C   0  0  0  0  0  0  0  0  0  0  0  0
    6.9222  -14.7319   20.6074 C   0  0  0  0  0  0  0  0  0  0  0  0
    7.5785  -14.2806   21.9009 C   0  0  2  0  0  0  0  0  0  0  0  0
    8.5519  -13.1453   21.6498 C   0  0  0  0  0  0  0  0  0  0  0  0
    8.2581  -15.4365   22.6145 C   0  0  2  0  0  0  0  0  0  0  0  0
    7.2238  -16.3971   23.0284 N   0  0  0  0  0  0  0  0  0  0  0  0
    8.9520  -14.8795   23.7999 C   0  0  0  0  0  0  0  0  0  0  0  0
    9.6248  -13.8127   23.6739 O   0  0  0  0  0  0  0  0  0  0  0  0
    6.2091  -12.6469   27.0692 C   0  0  0  0  0  0  0  0  0  0  0  0
    7.0273  -13.8600   26.6322 C   0  0  0  0  0  0  0  0  0  0  0  0
    8.4819  -13.5067   26.4857 C   0  0  2  0  0  0  0  0  0  0  0  0
    8.7061  -12.4341   25.4522 C   0  0  0  0  0  0  0  0  0  0  0  0
    9.2927  -14.7315   26.3138 C   0  0  2  0  0  0  0  0  0  0  0  0
    8.9191  -15.4597   25.0845 N   0  0  0  0  0  0  0  0  0  0  0  0
    9.1454  -15.6920   27.4056 C   0  0  0  0  0  0  0  0  0  0  0  0
    9.6941  -15.4337   28.6464 O   0  0  0  0  0  0  0  0  0  0  0  0
    8.5313  -16.7636   27.2673 O   0  0  0  0  0  0  0  0  0  0  0  0
  2  1  1  0
  3  2  1  0
  3  4  1  6
  5  7  1  0
  5  3  1  0
  5  6  1  6
  7  8  2  0
 10  9  1  0
 11 10  1  0
 11 13  1  0
 11 12  1  6
 13 14  1  1
 14  7  1  0
 15 16  2  0
 15 13  1  0
 17 18  1  0
 18 19  1  0
 19 21  1  0
 19 20  1  6
 21 22  1  6
 21 23  1  0
 22 15  1  0
 23 24  1  0
 25 23  2  0
M  END
$$$$
