III.pdb
     RDKit          3D

 25 24  0  0  1  0  0  0  0  0999 V2000
    7.7553  -12.4910   20.0707 C   0  0  0  0  0  0  0  0  0  0  0  0
    7.1282  -13.8801   20.1829 C   0  0  0  0  0  0  0  0  0  0  0  0
    8.0562  -14.9410   19.7014 C   0  0  2  0  0  0  0  0  0  0  0  0
    8.4971  -14.7702   18.2857 C   0  0  0  0  0  0  0  0  0  0  0  0
    7.4647  -16.3035   20.0071 C   0  0  2  0  0  0  0  0  0  0  0  0
    6.3096  -16.3991   19.1109 N   0  0  0  0  0  0  0  0  0  0  0  0
    7.0367  -16.4584   21.4175 C   0  0  0  0  0  0  0  0  0  0  0  0
    5.8814  -16.0513   21.8008 O   0  0  0  0  0  0  0  0  0  0  0  0
    7.0307  -20.8814   24.0008 C   0  0  0  0  0  0  0  0  0  0  0  0
    6.7017  -19.4940   23.4798 C   0  0  0  0  0  0  0  0  0  0  0  0
    7.4768  -18.5143   24.3441 C   0  0  2  0  0  0  0  0  0  0  0  0
    7.0562  -18.6200   25.7972 C   0  0  0  0  0  0  0  0  0  0  0  0
    7.3363  -17.0898   23.8359 C   0  0  2  0  0  0  0  0  0  0  0  0
    7.8139  -17.0455   22.4453 N   0  0  0  0  0  0  0  0  0  0  0  0
    8.1755  -16.2258   24.6998 C   0  0  0  0  0  0  0  0  0  0  0  0
    9.4266  -16.1862   24.5002 O   0  0  0  0  0  0  0  0  0  0  0  0
    6.1374  -11.5334   26.2445 C   0  0  0  0  0  0  0  0  0  0  0  0
    7.1139  -12.6167   25.7917 C   0  0  0  0  0  0  0  0  0  0  0  0
    7.7337  -13.3135   26.9718 C   0  0  2  0  0  0  0  0  0  0  0  0
    8.4694  -12.3586   27.8749 C   0  0  0  0  0  0  0  0  0  0  0  0
    8.5119  -14.4884   26.5234 C   0  0  2  0  0  0  0  0  0  0  0  0
    7.6758  -15.4279   25.7493 N   0  0  0  0  0  0  0  0  0  0  0  0
    9.0791  -15.2709   27.6199 C   0  0  0  0  0  0  0  0  0  0  0  0
   10.3944  -15.0936   28.0017 O   0  0  0  0  0  0  0  0  0  0  0  0
    8.4144  -16.1149   28.2448 O   0  0  0  0  0  0  0  0  0  0  0  0
  2  1  1  0
  3  2  1  0
  3  4  1  6
  5  7  1  0
  5  3  1  0
  5  6  1  6
  7  8  2  0
 10  9  1  0
 11 10  1  0
 11 13  1  0
 11 12  1  1
 13 14  1  6
 14  7  1  0
 15 16  2  0
 15 13  1  0
 17 18  1  0
 18 19  1  0
 19 21  1  0
 19 20  1  6
 21 22  1  1
 21 23  1  0
 22 15  1  0
 23 24  1  0
 25 23  2  0
M  END
$$$$
