KDM.pdb
     RDKit          3D

 26 25  0  0  1  0  0  0  0  0999 V2000
   29.4207  -10.4760  -17.8859 N   0  0  0  0  0  0  0  0  0  0  0  0
   30.4340   -9.6411  -18.5068 C   0  0  1  0  0  0  0  0  0  0  0  0
   29.8101   -8.5637  -19.3539 C   0  0  0  0  0  0  0  0  0  0  0  0
   29.1445   -9.0933  -20.5882 C   0  0  0  0  0  0  0  0  0  0  0  0
   30.0671   -9.4056  -21.7058 C   0  0  0  0  0  0  0  0  0  0  0  0
   29.3425   -9.8348  -22.9697 C   0  0  0  0  0  0  0  0  0  0  0  0
   30.3440  -10.1140  -23.9976 N   0  0  0  0  0  0  0  0  0  0  0  0
   31.1663   -8.9556  -17.4090 C   0  0  0  0  0  0  0  0  0  0  0  0
   30.5103   -8.5668  -16.4202 O   0  0  0  0  0  0  0  0  0  0  0  0
   32.5903   -8.7358  -17.4630 N   0  0  0  0  0  0  0  0  0  0  0  0
   33.2635   -8.1009  -16.3801 C   0  0  1  0  0  0  0  0  0  0  0  0
   34.6019   -8.7297  -16.1367 C   0  0  0  0  0  0  0  0  0  0  0  0
   35.3192   -8.1199  -15.0083 C   0  0  0  0  0  0  0  0  0  0  0  0
   35.3163   -6.8638  -14.9018 O   0  0  0  0  0  0  0  0  0  0  0  0
   33.3743   -6.6291  -16.5673 C   0  0  0  0  0  0  0  0  0  0  0  0
   33.7677   -6.1774  -17.6706 O   0  0  0  0  0  0  0  0  0  0  0  0
   35.9774   -8.8965  -14.0916 O   0  0  0  0  0  0  0  0  0  0  0  0
   30.4508    0.3695  -16.8571 C   0  0  0  0  0  0  0  0  0  0  0  0
   30.2806   -1.4082  -16.4898 S   0  0  0  0  0  0  0  0  0  0  0  0
   31.8568   -2.1691  -16.1461 C   0  0  0  0  0  0  0  0  0  0  0  0
   31.8933   -3.6290  -15.9673 C   0  0  0  0  0  0  0  0  0  0  0  0
   33.2174   -4.2394  -15.7226 C   0  0  2  0  0  0  0  0  0  0  0  0
   33.0527   -5.7090  -15.5458 N   0  0  0  0  0  0  0  0  0  0  0  0
   34.0516   -3.7111  -14.6519 C   0  0  0  0  0  0  0  0  0  0  0  0
   34.9779   -2.6550  -14.8978 O   0  0  0  0  0  0  0  0  0  0  0  0
   34.0517   -4.0986  -13.4660 O   0  0  0  0  0  0  0  0  0  0  0  0
  2  1  1  1
  3  2  1  0
  4  3  1  0
  5  4  1  0
  6  5  1  0
  7  6  1  0
  8  9  2  0
  8  2  1  0
 10  8  1  0
 11 10  1  0
 11 12  1  6
 13 12  1  0
 14 13  2  0
 15 11  1  0
 16 15  2  0
 17 13  1  0
 19 18  1  0
 20 19  1  0
 21 20  1  0
 22 21  1  1
 22 23  1  0
 23 15  1  0
 24 25  1  0
 24 22  1  0
 26 24  2  0
M  END
$$$$
