KDM.pdb
     RDKit          3D

 26 25  0  0  1  0  0  0  0  0999 V2000
   19.6023  -11.6097  -15.6196 N   0  0  0  0  0  0  0  0  0  0  0  0
   18.9063  -10.3352  -15.6454 C   0  0  1  0  0  0  0  0  0  0  0  0
   17.4175  -10.5235  -15.5204 C   0  0  0  0  0  0  0  0  0  0  0  0
   16.8236  -11.3070  -16.6520 C   0  0  0  0  0  0  0  0  0  0  0  0
   15.6369  -12.1185  -16.2900 C   0  0  0  0  0  0  0  0  0  0  0  0
   15.0425  -12.8599  -17.4748 C   0  0  0  0  0  0  0  0  0  0  0  0
   16.0689  -12.9624  -18.5108 N   0  0  0  0  0  0  0  0  0  0  0  0
   19.3461   -9.5744  -14.4458 C   0  0  0  0  0  0  0  0  0  0  0  0
   19.3360  -10.1609  -13.3434 O   0  0  0  0  0  0  0  0  0  0  0  0
   19.7755   -8.2005  -14.5292 N   0  0  0  0  0  0  0  0  0  0  0  0
   20.1082   -7.4760  -13.3488 C   0  0  1  0  0  0  0  0  0  0  0  0
   21.1220   -6.4113  -13.6395 C   0  0  0  0  0  0  0  0  0  0  0  0
   21.4415   -5.5941  -12.4605 C   0  0  0  0  0  0  0  0  0  0  0  0
   21.4657   -4.3401  -12.5865 O   0  0  0  0  0  0  0  0  0  0  0  0
   18.9075   -6.9198  -12.6687 C   0  0  0  0  0  0  0  0  0  0  0  0
   18.1254   -6.1775  -13.3114 O   0  0  0  0  0  0  0  0  0  0  0  0
   21.7079   -6.1794  -11.2509 O   0  0  0  0  0  0  0  0  0  0  0  0
   12.6860   -8.4118   -8.3300 C   0  0  0  0  0  0  0  0  0  0  0  0
   14.1973   -8.9531   -9.1944 S   0  0  0  0  0  0  0  0  0  0  0  0
   15.2531   -7.5771   -9.6108 C   0  0  0  0  0  0  0  0  0  0  0  0
   16.4857   -7.8570  -10.3638 C   0  0  0  0  0  0  0  0  0  0  0  0
   17.3601   -6.7040  -10.6667 C   0  0  2  0  0  0  0  0  0  0  0  0
   18.6074   -7.1942  -11.3166 N   0  0  0  0  0  0  0  0  0  0  0  0
   17.7013   -5.7762   -9.5970 C   0  0  0  0  0  0  0  0  0  0  0  0
   16.7217   -4.8953   -9.0509 O   0  0  0  0  0  0  0  0  0  0  0  0
   18.8237   -5.6525   -9.0664 O   0  0  0  0  0  0  0  0  0  0  0  0
  2  1  1  1
  3  2  1  0
  4  3  1  0
  5  4  1  0
  6  5  1  0
  7  6  1  0
  8  9  2  0
  8  2  1  0
 10  8  1  0
 11 10  1  0
 11 12  1  6
 13 12  1  0
 14 13  2  0
 15 11  1  0
 16 15  2  0
 17 13  1  0
 19 18  1  0
 20 19  1  0
 21 20  1  0
 22 21  1  1
 22 23  1  0
 23 15  1  0
 24 25  1  0
 24 22  1  0
 26 24  2  0
M  END
$$$$
