KDM.pdb
     RDKit          3D

 26 25  0  0  1  0  0  0  0  0999 V2000
   17.1705  -15.8503    3.9843 N   0  0  0  0  0  0  0  0  0  0  0  0
   16.8930  -14.6223    4.7086 C   0  0  1  0  0  0  0  0  0  0  0  0
   15.8241  -14.8313    5.7485 C   0  0  0  0  0  0  0  0  0  0  0  0
   14.4813  -15.1457    5.1611 C   0  0  0  0  0  0  0  0  0  0  0  0
   13.3680  -15.1794    6.1395 C   0  0  0  0  0  0  0  0  0  0  0  0
   12.0442  -15.5870    5.5166 C   0  0  0  0  0  0  0  0  0  0  0  0
   11.0283  -15.5952    6.5678 N   0  0  0  0  0  0  0  0  0  0  0  0
   18.1365  -14.2558    5.4371 C   0  0  0  0  0  0  0  0  0  0  0  0
   18.9445  -15.1669    5.7130 O   0  0  0  0  0  0  0  0  0  0  0  0
   18.4216  -12.8961    5.8231 N   0  0  0  0  0  0  0  0  0  0  0  0
   19.6546  -12.5699    6.4574 C   0  0  1  0  0  0  0  0  0  0  0  0
   19.8968  -11.0913    6.4332 C   0  0  0  0  0  0  0  0  0  0  0  0
   21.2353  -10.7269    6.9184 C   0  0  0  0  0  0  0  0  0  0  0  0
   21.9891  -11.6415    7.3478 O   0  0  0  0  0  0  0  0  0  0  0  0
   19.7433  -13.1183    7.8377 C   0  0  0  0  0  0  0  0  0  0  0  0
   18.6901  -13.2989    8.4965 O   0  0  0  0  0  0  0  0  0  0  0  0
   21.6567   -9.4234    6.9058 O   0  0  0  0  0  0  0  0  0  0  0  0
   19.2740  -18.7212   12.2874 C   0  0  0  0  0  0  0  0  0  0  0  0
   19.3493  -17.8508   10.6872 S   0  0  0  0  0  0  0  0  0  0  0  0
   20.2113  -16.2946   10.8177 C   0  0  0  0  0  0  0  0  0  0  0  0
   20.2503  -15.4264    9.6305 C   0  0  0  0  0  0  0  0  0  0  0  0
   21.0497  -14.1871    9.7350 C   0  0  2  0  0  0  0  0  0  0  0  0
   20.9750  -13.4474    8.4445 N   0  0  0  0  0  0  0  0  0  0  0  0
   22.4385  -14.2767   10.1646 C   0  0  0  0  0  0  0  0  0  0  0  0
   23.4885  -13.7306    9.3690 O   0  0  0  0  0  0  0  0  0  0  0  0
   22.8457  -14.8102   11.2164 O   0  0  0  0  0  0  0  0  0  0  0  0
  2  1  1  1
  3  2  1  0
  4  3  1  0
  5  4  1  0
  6  5  1  0
  7  6  1  0
  8  9  2  0
  8  2  1  0
 10  8  1  0
 11 10  1  0
 11 12  1  1
 13 12  1  0
 14 13  2  0
 15 11  1  0
 16 15  2  0
 17 13  1  0
 19 18  1  0
 20 19  1  0
 21 20  1  0
 22 21  1  6
 22 23  1  0
 23 15  1  0
 24 25  1  0
 24 22  1  0
 26 24  2  0
M  END
$$$$
