KDM.pdb
     RDKit          3D

 26 25  0  0  1  0  0  0  0  0999 V2000
   16.7105  -12.5203  -13.8768 N   0  0  0  0  0  0  0  0  0  0  0  0
   15.9413  -11.3275  -14.1848 C   0  0  1  0  0  0  0  0  0  0  0  0
   14.5388  -11.4279  -13.6459 C   0  0  0  0  0  0  0  0  0  0  0  0
   13.5485  -11.9128  -14.6614 C   0  0  0  0  0  0  0  0  0  0  0  0
   13.7441  -13.3157  -15.0989 C   0  0  0  0  0  0  0  0  0  0  0  0
   12.6662  -13.7933  -16.0564 C   0  0  0  0  0  0  0  0  0  0  0  0
   13.0177  -15.1396  -16.5047 N   0  0  0  0  0  0  0  0  0  0  0  0
   16.5940  -10.1937  -13.4778 C   0  0  0  0  0  0  0  0  0  0  0  0
   17.1159  -10.4186  -12.3660 O   0  0  0  0  0  0  0  0  0  0  0  0
   16.6351   -8.8666  -14.0400 N   0  0  0  0  0  0  0  0  0  0  0  0
   17.1678   -7.7808  -13.2875 C   0  0  1  0  0  0  0  0  0  0  0  0
   17.6166   -6.6711  -14.1890 C   0  0  0  0  0  0  0  0  0  0  0  0
   18.2155   -5.5486  -13.4534 C   0  0  0  0  0  0  0  0  0  0  0  0
   18.2566   -5.6078  -12.1949 O   0  0  0  0  0  0  0  0  0  0  0  0
   16.2211   -7.2946  -12.2476 C   0  0  0  0  0  0  0  0  0  0  0  0
   14.9924   -7.2606  -12.5023 O   0  0  0  0  0  0  0  0  0  0  0  0
   18.7180   -4.4611  -14.1178 O   0  0  0  0  0  0  0  0  0  0  0  0
   11.4656   -7.9254   -6.8075 C   0  0  0  0  0  0  0  0  0  0  0  0
   12.5134   -8.3906   -8.2252 S   0  0  0  0  0  0  0  0  0  0  0  0
   13.7772   -7.1729   -8.5446 C   0  0  0  0  0  0  0  0  0  0  0  0
   14.6570   -7.3805   -9.7054 C   0  0  0  0  0  0  0  0  0  0  0  0
   15.6992   -6.3597   -9.9449 C   0  0  2  0  0  0  0  0  0  0  0  0
   16.6509   -6.8652  -10.9731 N   0  0  0  0  0  0  0  0  0  0  0  0
   16.4443   -5.8314   -8.8104 C   0  0  0  0  0  0  0  0  0  0  0  0
   17.8677   -5.9075   -8.7689 O   0  0  0  0  0  0  0  0  0  0  0  0
   15.9519   -5.2837   -7.8033 O   0  0  0  0  0  0  0  0  0  0  0  0
  2  1  1  1
  3  2  1  0
  4  3  1  0
  5  4  1  0
  6  5  1  0
  7  6  1  0
  8  9  2  0
  8  2  1  0
 10  8  1  0
 11 10  1  0
 11 12  1  6
 13 12  1  0
 14 13  2  0
 15 11  1  0
 16 15  2  0
 17 13  1  0
 19 18  1  0
 20 19  1  0
 21 20  1  0
 22 21  1  1
 22 23  1  0
 23 15  1  0
 24 25  1  0
 24 22  1  0
 26 24  2  0
M  END
$$$$
