KDM.pdb
     RDKit          3D

 26 25  0  0  1  0  0  0  0  0999 V2000
   17.9429  -13.2362  -15.3029 N   0  0  0  0  0  0  0  0  0  0  0  0
   17.7983  -12.2563  -16.3651 C   0  0  1  0  0  0  0  0  0  0  0  0
   16.3915  -12.2364  -16.9020 C   0  0  0  0  0  0  0  0  0  0  0  0
   16.0095  -13.5032  -17.6065 C   0  0  0  0  0  0  0  0  0  0  0  0
   14.5971  -13.5640  -18.0527 C   0  0  0  0  0  0  0  0  0  0  0  0
   14.2485  -14.8735  -18.7386 C   0  0  0  0  0  0  0  0  0  0  0  0
   12.8285  -14.8435  -19.0849 N   0  0  0  0  0  0  0  0  0  0  0  0
   18.0479  -10.9201  -15.7621 C   0  0  0  0  0  0  0  0  0  0  0  0
   17.1853  -10.4561  -14.9877 O   0  0  0  0  0  0  0  0  0  0  0  0
   19.2426  -10.1653  -16.0484 N   0  0  0  0  0  0  0  0  0  0  0  0
   19.4561   -8.8951  -15.4403 C   0  0  1  0  0  0  0  0  0  0  0  0
   20.8279   -8.8089  -14.8432 C   0  0  0  0  0  0  0  0  0  0  0  0
   21.0559   -7.5482  -14.1231 C   0  0  0  0  0  0  0  0  0  0  0  0
   21.9199   -6.7473  -14.5712 O   0  0  0  0  0  0  0  0  0  0  0  0
   19.1927   -7.7683  -16.3755 C   0  0  0  0  0  0  0  0  0  0  0  0
   19.7254   -7.7752  -17.5122 O   0  0  0  0  0  0  0  0  0  0  0  0
   20.3470   -7.2480  -12.9899 O   0  0  0  0  0  0  0  0  0  0  0  0
   14.3299   -2.3001  -19.1983 C   0  0  0  0  0  0  0  0  0  0  0  0
   14.6213   -3.6370  -17.9934 S   0  0  0  0  0  0  0  0  0  0  0  0
   16.3554   -4.0246  -17.8379 C   0  0  0  0  0  0  0  0  0  0  0  0
   16.7316   -5.1840  -17.0140 C   0  0  0  0  0  0  0  0  0  0  0  0
   18.1711   -5.5134  -16.9415 C   0  0  2  0  0  0  0  0  0  0  0  0
   18.3603   -6.6798  -16.0350 N   0  0  0  0  0  0  0  0  0  0  0  0
   19.1185   -4.4647  -16.5891 C   0  0  0  0  0  0  0  0  0  0  0  0
   19.8300   -3.7507  -17.5979 O   0  0  0  0  0  0  0  0  0  0  0  0
   19.4002   -4.0922  -15.4321 O   0  0  0  0  0  0  0  0  0  0  0  0
  2  1  1  1
  3  2  1  0
  4  3  1  0
  5  4  1  0
  6  5  1  0
  7  6  1  0
  8  9  2  0
  8  2  1  0
 10  8  1  0
 11 10  1  0
 11 12  1  6
 13 12  1  0
 14 13  2  0
 15 11  1  0
 16 15  2  0
 17 13  1  0
 19 18  1  0
 20 19  1  0
 21 20  1  0
 22 21  1  1
 22 23  1  0
 23 15  1  0
 24 25  1  0
 24 22  1  0
 26 24  2  0
M  END
$$$$
