KDM.pdb
     RDKit          3D

 26 25  0  0  1  0  0  0  0  0999 V2000
   20.8871  -18.4115  -14.7088 N   0  0  0  0  0  0  0  0  0  0  0  0
   20.3565  -19.2804  -13.6730 C   0  0  1  0  0  0  0  0  0  0  0  0
   19.2476  -20.1496  -14.2045 C   0  0  0  0  0  0  0  0  0  0  0  0
   17.8814  -19.5906  -13.9432 C   0  0  0  0  0  0  0  0  0  0  0  0
   17.7639  -18.1248  -14.1308 C   0  0  0  0  0  0  0  0  0  0  0  0
   16.3541  -17.6092  -13.9001 C   0  0  0  0  0  0  0  0  0  0  0  0
   15.8663  -18.1630  -12.6380 N   0  0  0  0  0  0  0  0  0  0  0  0
   21.4579  -20.1911  -13.2621 C   0  0  0  0  0  0  0  0  0  0  0  0
   21.2440  -20.9817  -12.3195 O   0  0  0  0  0  0  0  0  0  0  0  0
   22.7420  -20.1794  -13.9178 N   0  0  0  0  0  0  0  0  0  0  0  0
   23.7701  -21.0753  -13.5062 C   0  0  1  0  0  0  0  0  0  0  0  0
   24.3944  -21.7556  -14.6866 C   0  0  0  0  0  0  0  0  0  0  0  0
   25.4795  -22.6709  -14.3064 C   0  0  0  0  0  0  0  0  0  0  0  0
   25.6965  -22.8703  -13.0808 O   0  0  0  0  0  0  0  0  0  0  0  0
   24.7913  -20.4110  -12.6520 C   0  0  0  0  0  0  0  0  0  0  0  0
   25.2558  -19.2984  -13.0015 O   0  0  0  0  0  0  0  0  0  0  0  0
   26.2398  -23.2942  -15.2604 O   0  0  0  0  0  0  0  0  0  0  0  0
   28.4754  -19.5481   -5.6985 C   0  0  0  0  0  0  0  0  0  0  0  0
   27.1085  -20.3101   -6.6339 S   0  0  0  0  0  0  0  0  0  0  0  0
   27.3139  -20.1068   -8.3940 C   0  0  0  0  0  0  0  0  0  0  0  0
   26.2373  -20.5878   -9.2739 C   0  0  0  0  0  0  0  0  0  0  0  0
   26.4505  -20.4456  -10.7299 C   0  0  2  0  0  0  0  0  0  0  0  0
   25.2651  -20.9852  -11.4523 N   0  0  0  0  0  0  0  0  0  0  0  0
   27.6675  -20.9846  -11.3214 C   0  0  0  0  0  0  0  0  0  0  0  0
   28.8969  -20.2652  -11.2521 O   0  0  0  0  0  0  0  0  0  0  0  0
   27.7687  -22.0739  -11.9214 O   0  0  0  0  0  0  0  0  0  0  0  0
  2  1  1  6
  3  2  1  0
  4  3  1  0
  5  4  1  0
  6  5  1  0
  7  6  1  0
  8  9  2  0
  8  2  1  0
 10  8  1  0
 11 10  1  0
 11 12  1  6
 13 12  1  0
 14 13  2  0
 15 11  1  0
 16 15  2  0
 17 13  1  0
 19 18  1  0
 20 19  1  0
 21 20  1  0
 22 21  1  1
 22 23  1  0
 23 15  1  0
 24 25  1  0
 24 22  1  0
 26 24  2  0
M  END
$$$$
