KDM.pdb
     RDKit          3D

 26 25  0  0  1  0  0  0  0  0999 V2000
   26.6761  -19.6118  -17.2709 N   0  0  0  0  0  0  0  0  0  0  0  0
   27.4324  -19.1402  -16.1241 C   0  0  1  0  0  0  0  0  0  0  0  0
   27.9785  -17.7570  -16.3615 C   0  0  0  0  0  0  0  0  0  0  0  0
   29.2883  -17.7556  -17.0905 C   0  0  0  0  0  0  0  0  0  0  0  0
   29.2541  -18.3896  -18.4302 C   0  0  0  0  0  0  0  0  0  0  0  0
   30.6094  -18.3994  -19.1156 C   0  0  0  0  0  0  0  0  0  0  0  0
   30.4790  -19.1313  -20.3744 N   0  0  0  0  0  0  0  0  0  0  0  0
   26.4801  -19.0376  -14.9866 C   0  0  0  0  0  0  0  0  0  0  0  0
   26.3661  -17.9331  -14.4153 O   0  0  0  0  0  0  0  0  0  0  0  0
   25.7014  -20.1659  -14.5397 N   0  0  0  0  0  0  0  0  0  0  0  0
   24.7313  -20.0095  -13.5085 C   0  0  1  0  0  0  0  0  0  0  0  0
   23.3606  -20.3603  -14.0025 C   0  0  0  0  0  0  0  0  0  0  0  0
   22.3307  -20.2266  -12.9627 C   0  0  0  0  0  0  0  0  0  0  0  0
   21.9272  -21.2680  -12.3782 O   0  0  0  0  0  0  0  0  0  0  0  0
   25.0837  -20.7709  -12.2797 C   0  0  0  0  0  0  0  0  0  0  0  0
   25.1112  -22.0253  -12.3203 O   0  0  0  0  0  0  0  0  0  0  0  0
   21.8185  -18.9991  -12.6345 O   0  0  0  0  0  0  0  0  0  0  0  0
   28.8927  -18.8647   -7.2556 C   0  0  0  0  0  0  0  0  0  0  0  0
   27.6287  -19.8340   -6.3687 S   0  0  0  0  0  0  0  0  0  0  0  0
   26.5345  -20.6841   -7.4921 C   0  0  0  0  0  0  0  0  0  0  0  0
   26.3591  -20.1228   -8.8407 C   0  0  0  0  0  0  0  0  0  0  0  0
   25.5165  -20.8926   -9.7804 C   0  0  2  0  0  0  0  0  0  0  0  0
   25.3914  -20.1356  -11.0569 N   0  0  0  0  0  0  0  0  0  0  0  0
   24.1986  -21.3359   -9.3466 C   0  0  0  0  0  0  0  0  0  0  0  0
   23.0203  -20.6496   -9.7642 O   0  0  0  0  0  0  0  0  0  0  0  0
   23.9626  -22.3099   -8.6034 O   0  0  0  0  0  0  0  0  0  0  0  0
  2  1  1  6
  3  2  1  0
  4  3  1  0
  5  4  1  0
  6  5  1  0
  7  6  1  0
  8  9  2  0
  8  2  1  0
 10  8  1  0
 11 10  1  0
 11 12  1  6
 13 12  1  0
 14 13  2  0
 15 11  1  0
 16 15  2  0
 17 13  1  0
 19 18  1  0
 20 19  1  0
 21 20  1  0
 22 21  1  1
 22 23  1  0
 23 15  1  0
 24 25  1  0
 24 22  1  0
 26 24  2  0
M  END
$$$$
