KDM.pdb
     RDKit          3D

 26 25  0  0  1  0  0  0  0  0999 V2000
   22.7314  -21.8475  -14.5705 N   0  0  0  0  0  0  0  0  0  0  0  0
   22.6236  -20.6927  -13.6964 C   0  0  1  0  0  0  0  0  0  0  0  0
   22.6067  -19.4102  -14.4855 C   0  0  0  0  0  0  0  0  0  0  0  0
   23.6988  -19.3317  -15.5095 C   0  0  0  0  0  0  0  0  0  0  0  0
   23.7578  -18.0532  -16.2576 C   0  0  0  0  0  0  0  0  0  0  0  0
   24.7149  -18.1000  -17.4359 C   0  0  0  0  0  0  0  0  0  0  0  0
   24.7296  -16.7804  -18.0649 N   0  0  0  0  0  0  0  0  0  0  0  0
   21.3103  -20.7903  -13.0057 C   0  0  0  0  0  0  0  0  0  0  0  0
   21.0148  -19.9015  -12.1800 O   0  0  0  0  0  0  0  0  0  0  0  0
   20.3902  -21.8696  -13.2657 N   0  0  0  0  0  0  0  0  0  0  0  0
   19.2019  -22.0063  -12.4923 C   0  0  1  0  0  0  0  0  0  0  0  0
   17.9826  -21.8119  -13.3415 C   0  0  0  0  0  0  0  0  0  0  0  0
   17.6073  -20.3979  -13.4813 C   0  0  0  0  0  0  0  0  0  0  0  0
   17.6210  -19.6675  -12.4540 O   0  0  0  0  0  0  0  0  0  0  0  0
   19.1545  -23.2952  -11.7504 C   0  0  0  0  0  0  0  0  0  0  0  0
   19.5996  -24.3349  -12.2952 O   0  0  0  0  0  0  0  0  0  0  0  0
   17.2497  -19.8827  -14.6993 O   0  0  0  0  0  0  0  0  0  0  0  0
   17.9150  -26.9324   -4.7505 C   0  0  0  0  0  0  0  0  0  0  0  0
   17.9561  -25.3608   -5.6739 S   0  0  0  0  0  0  0  0  0  0  0  0
   18.1049  -25.6270   -7.4314 C   0  0  0  0  0  0  0  0  0  0  0  0
   18.2695  -24.4479   -8.2958 C   0  0  0  0  0  0  0  0  0  0  0  0
   18.5398  -24.7011   -9.7271 C   0  0  2  0  0  0  0  0  0  0  0  0
   18.6244  -23.3995  -10.4460 N   0  0  0  0  0  0  0  0  0  0  0  0
   17.6664  -25.6065  -10.4612 C   0  0  0  0  0  0  0  0  0  0  0  0
   18.0102  -26.9801  -10.6301 O   0  0  0  0  0  0  0  0  0  0  0  0
   16.5807  -25.3024  -10.9955 O   0  0  0  0  0  0  0  0  0  0  0  0
  2  1  1  6
  3  2  1  0
  4  3  1  0
  5  4  1  0
  6  5  1  0
  7  6  1  0
  8  9  2  0
  8  2  1  0
 10  8  1  0
 11 10  1  0
 11 12  1  6
 13 12  1  0
 14 13  2  0
 15 11  1  0
 16 15  2  0
 17 13  1  0
 19 18  1  0
 20 19  1  0
 21 20  1  0
 22 21  1  1
 22 23  1  0
 23 15  1  0
 24 25  1  0
 24 22  1  0
 26 24  2  0
M  END
$$$$
