AYA.pdb
     RDKit          3D

 23 23  0  0  1  0  0  0  0  0999 V2000
    6.4215  -20.6926   24.3378 C   0  0  0  0  0  0  0  0  0  0  0  0
    7.1570  -19.7903   25.3008 C   0  0  2  0  0  0  0  0  0  0  0  0
    6.2324  -19.3328   26.2926 N   0  0  0  0  0  0  0  0  0  0  0  0
    7.7933  -18.6464   24.6378 C   0  0  0  0  0  0  0  0  0  0  0  0
    8.7530  -18.9111   23.8426 O   0  0  0  0  0  0  0  0  0  0  0  0
    8.2434  -12.2855   18.8431 O   0  0  0  0  0  0  0  0  0  0  0  0
    7.9400  -13.0376   19.9859 C   0  0  0  0  0  0  0  0  0  0  0  0
    7.8839  -12.4626   21.2367 C   0  0  0  0  0  0  0  0  0  0  0  0
    7.5845  -13.2101   22.3571 C   0  0  0  0  0  0  0  0  0  0  0  0
    7.3251  -14.5607   22.3037 C   0  0  0  0  0  0  0  0  0  0  0  0
    7.0002  -15.3883   23.4755 C   0  0  0  0  0  0  0  0  0  0  0  0
    8.0708  -16.2477   24.0318 C   0  0  2  0  0  0  0  0  0  0  0  0
    7.3980  -17.2979   24.8379 N   0  0  0  0  0  0  0  0  0  0  0  0
    8.9592  -15.5598   24.9822 C   0  0  0  0  0  0  0  0  0  0  0  0
   10.1241  -15.1650   24.6168 O   0  0  0  0  0  0  0  0  0  0  0  0
    7.3857  -15.1333   21.0242 C   0  0  0  0  0  0  0  0  0  0  0  0
    7.6844  -14.3892   19.9043 C   0  0  0  0  0  0  0  0  0  0  0  0
    8.9560  -13.3496   27.8428 C   0  0  0  0  0  0  0  0  0  0  0  0
    9.6082  -14.5528   27.1629 C   0  0  2  0  0  0  0  0  0  0  0  0
    8.6485  -15.2588   26.3444 N   0  0  0  0  0  0  0  0  0  0  0  0
   10.1352  -15.3944   28.2554 C   0  0  0  0  0  0  0  0  0  0  0  0
    9.8510  -16.7371   28.4368 O   0  0  0  0  0  0  0  0  0  0  0  0
   10.9200  -14.9007   29.1344 O   0  0  0  0  0  0  0  0  0  0  0  0
  2  1  1  6
  2  4  1  0
  2  3  1  0
  4  5  2  0
  7  6  1  0
  7 17  2  0
  8  7  1  0
  9  8  2  0
  9 10  1  0
 10 16  2  0
 11 10  1  0
 12 11  1  1
 13 12  1  0
 13  4  1  0
 14 12  1  0
 15 14  2  0
 16 17  1  0
 19 18  1  1
 19 20  1  0
 20 14  1  0
 21 22  1  0
 21 19  1  0
 23 21  2  0
M  END
$$$$
