AYA.pdb
     RDKit          3D

 23 23  0  0  1  0  0  0  0  0999 V2000
    8.7314  -20.4032   24.0508 C   0  0  0  0  0  0  0  0  0  0  0  0
    7.3525  -19.7949   23.9468 C   0  0  2  0  0  0  0  0  0  0  0  0
    6.6878  -20.3646   22.8148 N   0  0  0  0  0  0  0  0  0  0  0  0
    7.3813  -18.3324   23.8321 C   0  0  0  0  0  0  0  0  0  0  0  0
    7.2877  -17.8518   22.6559 O   0  0  0  0  0  0  0  0  0  0  0  0
   11.1451  -14.7732   30.0192 O   0  0  0  0  0  0  0  0  0  0  0  0
   10.1748  -14.9168   29.0183 C   0  0  0  0  0  0  0  0  0  0  0  0
    9.5380  -16.1180   28.7950 C   0  0  0  0  0  0  0  0  0  0  0  0
    8.5837  -16.2512   27.8075 C   0  0  0  0  0  0  0  0  0  0  0  0
    8.2076  -15.2098   26.9900 C   0  0  0  0  0  0  0  0  0  0  0  0
    7.1932  -15.3141   25.9298 C   0  0  0  0  0  0  0  0  0  0  0  0
    7.5766  -15.9972   24.6725 C   0  0  2  0  0  0  0  0  0  0  0  0
    7.5052  -17.4559   24.9416 N   0  0  0  0  0  0  0  0  0  0  0  0
    8.9701  -15.7612   24.2625 C   0  0  0  0  0  0  0  0  0  0  0  0
    9.3225  -14.6289   23.7724 O   0  0  0  0  0  0  0  0  0  0  0  0
    8.8638  -13.9928   27.2282 C   0  0  0  0  0  0  0  0  0  0  0  0
    9.8168  -13.8573   28.2133 C   0  0  0  0  0  0  0  0  0  0  0  0
   11.9440  -15.1772   24.5003 C   0  0  0  0  0  0  0  0  0  0  0  0
   11.3325  -16.3898   23.7994 C   0  0  2  0  0  0  0  0  0  0  0  0
   10.0386  -16.7053   24.3612 N   0  0  0  0  0  0  0  0  0  0  0  0
   12.3017  -17.4888   23.9800 C   0  0  0  0  0  0  0  0  0  0  0  0
   13.6070  -17.4857   23.5188 O   0  0  0  0  0  0  0  0  0  0  0  0
   11.9676  -18.5533   24.6025 O   0  0  0  0  0  0  0  0  0  0  0  0
  2  1  1  6
  2  4  1  0
  2  3  1  0
  4  5  2  0
  7  6  1  0
  7 17  2  0
  8  7  1  0
  9  8  2  0
  9 10  1  0
 10 16  2  0
 11 10  1  0
 12 11  1  1
 13 12  1  0
 13  4  1  0
 14 12  1  0
 15 14  2  0
 16 17  1  0
 19 18  1  1
 19 20  1  0
 20 14  1  0
 21 22  1  0
 21 19  1  0
 23 21  2  0
M  END
$$$$
