AYA.pdb
     RDKit          3D

 23 23  0  0  1  0  0  0  0  0999 V2000
    7.4984  -13.0369   19.9315 C   0  0  0  0  0  0  0  0  0  0  0  0
    8.1359  -14.3682   20.2536 C   0  0  2  0  0  0  0  0  0  0  0  0
    7.1417  -15.3902   20.1324 N   0  0  0  0  0  0  0  0  0  0  0  0
    8.7365  -14.4041   21.5918 C   0  0  0  0  0  0  0  0  0  0  0  0
    9.7429  -13.6469   21.7845 O   0  0  0  0  0  0  0  0  0  0  0  0
    5.8175  -10.4900   27.2833 O   0  0  0  0  0  0  0  0  0  0  0  0
    6.3197  -11.6723   26.7231 C   0  0  0  0  0  0  0  0  0  0  0  0
    5.4865  -12.6930   26.3202 C   0  0  0  0  0  0  0  0  0  0  0  0
    5.9888  -13.8539   25.7695 C   0  0  0  0  0  0  0  0  0  0  0  0
    7.3359  -14.0696   25.5871 C   0  0  0  0  0  0  0  0  0  0  0  0
    7.9069  -15.2922   25.0015 C   0  0  0  0  0  0  0  0  0  0  0  0
    8.9501  -15.1371   23.9614 C   0  0  2  0  0  0  0  0  0  0  0  0
    8.2592  -15.2215   22.6495 N   0  0  0  0  0  0  0  0  0  0  0  0
    9.9370  -16.2284   23.9342 C   0  0  0  0  0  0  0  0  0  0  0  0
   10.5031  -16.6224   25.0162 O   0  0  0  0  0  0  0  0  0  0  0  0
    8.1727  -13.0224   26.0016 C   0  0  0  0  0  0  0  0  0  0  0  0
    7.6736  -11.8626   26.5517 C   0  0  0  0  0  0  0  0  0  0  0  0
   10.8243  -19.2493   22.0969 C   0  0  0  0  0  0  0  0  0  0  0  0
   11.2966  -18.0342   22.8943 C   0  0  2  0  0  0  0  0  0  0  0  0
   10.3547  -16.9448   22.7702 N   0  0  0  0  0  0  0  0  0  0  0  0
   12.6244  -17.6880   22.3497 C   0  0  0  0  0  0  0  0  0  0  0  0
   13.7616  -18.4697   22.4616 O   0  0  0  0  0  0  0  0  0  0  0  0
   12.8006  -16.5930   21.7154 O   0  0  0  0  0  0  0  0  0  0  0  0
  2  1  1  1
  2  4  1  0
  2  3  1  0
  4  5  2  0
  7  6  1  0
  7 17  2  0
  8  7  1  0
  9  8  2  0
  9 10  1  0
 10 16  2  0
 11 10  1  0
 12 11  1  1
 13 12  1  0
 13  4  1  0
 14 12  1  0
 15 14  2  0
 16 17  1  0
 19 18  1  6
 19 20  1  0
 20 14  1  0
 21 22  1  0
 21 19  1  0
 23 21  2  0
M  END
$$$$
