AYA.pdb
     RDKit          3D

 23 23  0  0  1  0  0  0  0  0999 V2000
    8.3545  -17.8429   20.2525 C   0  0  0  0  0  0  0  0  0  0  0  0
    8.7474  -16.3874   20.3503 C   0  0  2  0  0  0  0  0  0  0  0  0
    9.5935  -16.0687   19.2412 N   0  0  0  0  0  0  0  0  0  0  0  0
    9.4239  -16.0626   21.6111 C   0  0  0  0  0  0  0  0  0  0  0  0
   10.6979  -16.0779   21.5939 O   0  0  0  0  0  0  0  0  0  0  0  0
   10.5316  -14.5391   30.4268 O   0  0  0  0  0  0  0  0  0  0  0  0
   10.0792  -14.6260   29.1033 C   0  0  0  0  0  0  0  0  0  0  0  0
    9.1877  -15.5983   28.7058 C   0  0  0  0  0  0  0  0  0  0  0  0
    8.7471  -15.6772   27.4007 C   0  0  0  0  0  0  0  0  0  0  0  0
    9.1611  -14.8037   26.4210 C   0  0  0  0  0  0  0  0  0  0  0  0
    8.7111  -14.8557   25.0215 C   0  0  0  0  0  0  0  0  0  0  0  0
    9.5432  -15.6112   24.0565 C   0  0  2  0  0  0  0  0  0  0  0  0
    8.7412  -15.7417   22.8135 N   0  0  0  0  0  0  0  0  0  0  0  0
    9.8267  -16.9964   24.4647 C   0  0  0  0  0  0  0  0  0  0  0  0
    8.8917  -17.8750   24.4826 O   0  0  0  0  0  0  0  0  0  0  0  0
   10.0687  -13.8190   26.8394 C   0  0  0  0  0  0  0  0  0  0  0  0
   10.5100  -13.7382   28.1416 C   0  0  0  0  0  0  0  0  0  0  0  0
   12.2631  -19.6067   24.3956 C   0  0  0  0  0  0  0  0  0  0  0  0
   11.2352  -18.8845   25.2659 C   0  0  2  0  0  0  0  0  0  0  0  0
   11.1031  -17.5035   24.8600 N   0  0  0  0  0  0  0  0  0  0  0  0
   11.7224  -19.0137   26.6535 C   0  0  0  0  0  0  0  0  0  0  0  0
   12.0942  -17.9596   27.4703 O   0  0  0  0  0  0  0  0  0  0  0  0
   11.8319  -20.1639   27.1987 O   0  0  0  0  0  0  0  0  0  0  0  0
  2  1  1  1
  2  4  1  0
  2  3  1  0
  4  5  2  0
  7  6  1  0
  7 17  2  0
  8  7  1  0
  9  8  2  0
  9 10  1  0
 10 16  2  0
 11 10  1  0
 12 11  1  1
 13 12  1  0
 13  4  1  0
 14 12  1  0
 15 14  2  0
 16 17  1  0
 19 18  1  6
 19 20  1  0
 20 14  1  0
 21 22  1  0
 21 19  1  0
 23 21  2  0
M  END
$$$$
