AYA.pdb
     RDKit          3D

 23 23  0  0  1  0  0  0  0  0999 V2000
    9.0292  -19.0311   19.7078 C   0  0  0  0  0  0  0  0  0  0  0  0
    8.9734  -17.5533   19.3991 C   0  0  2  0  0  0  0  0  0  0  0  0
    9.9947  -17.2489   18.4440 N   0  0  0  0  0  0  0  0  0  0  0  0
    9.1322  -16.7148   20.5926 C   0  0  0  0  0  0  0  0  0  0  0  0
   10.3266  -16.4336   20.9359 O   0  0  0  0  0  0  0  0  0  0  0  0
    6.9168  -11.7026   27.7577 O   0  0  0  0  0  0  0  0  0  0  0  0
    6.9730  -12.4047   26.5462 C   0  0  0  0  0  0  0  0  0  0  0  0
    7.6451  -11.9063   25.4516 C   0  0  0  0  0  0  0  0  0  0  0  0
    7.6958  -12.6037   24.2623 C   0  0  0  0  0  0  0  0  0  0  0  0
    7.0880  -13.8265   24.0896 C   0  0  0  0  0  0  0  0  0  0  0  0
    7.1231  -14.5991   22.8383 C   0  0  0  0  0  0  0  0  0  0  0  0
    8.3542  -15.3649   22.5344 C   0  0  2  0  0  0  0  0  0  0  0  0
    8.0455  -16.2181   21.3587 N   0  0  0  0  0  0  0  0  0  0  0  0
    8.7474  -16.3121   23.5898 C   0  0  0  0  0  0  0  0  0  0  0  0
    8.0512  -17.3669   23.8114 O   0  0  0  0  0  0  0  0  0  0  0  0
    6.4073  -14.3221   25.2118 C   0  0  0  0  0  0  0  0  0  0  0  0
    6.3552  -13.6278   26.4002 C   0  0  0  0  0  0  0  0  0  0  0  0
   11.5450  -17.8550   25.1112 C   0  0  0  0  0  0  0  0  0  0  0  0
   10.1872  -17.2184   25.4054 C   0  0  2  0  0  0  0  0  0  0  0  0
    9.8886  -16.1842   24.4406 N   0  0  0  0  0  0  0  0  0  0  0  0
   10.2818  -16.6881   26.7799 C   0  0  0  0  0  0  0  0  0  0  0  0
   10.4420  -17.4544   27.9218 O   0  0  0  0  0  0  0  0  0  0  0  0
   10.2167  -15.4307   26.9966 O   0  0  0  0  0  0  0  0  0  0  0  0
  2  1  1  1
  2  4  1  0
  2  3  1  0
  4  5  2  0
  7  6  1  0
  7 17  2  0
  8  7  1  0
  9  8  2  0
  9 10  1  0
 10 16  2  0
 11 10  1  0
 12 11  1  1
 13 12  1  0
 13  4  1  0
 14 12  1  0
 15 14  2  0
 16 17  1  0
 19 18  1  6
 19 20  1  0
 20 14  1  0
 21 22  1  0
 21 19  1  0
 23 21  2  0
M  END
$$$$
