AYA.pdb
     RDKit          3D

 23 23  0  0  1  0  0  0  0  0999 V2000
    9.7730  -19.5487   21.6157 C   0  0  0  0  0  0  0  0  0  0  0  0
    9.8027  -18.1582   21.0257 C   0  0  2  0  0  0  0  0  0  0  0  0
   10.9701  -18.0359   20.2071 N   0  0  0  0  0  0  0  0  0  0  0  0
    9.7896  -17.1048   22.0470 C   0  0  0  0  0  0  0  0  0  0  0  0
   10.9237  -16.6619   22.4224 O   0  0  0  0  0  0  0  0  0  0  0  0
    7.7936  -12.6186   17.6412 O   0  0  0  0  0  0  0  0  0  0  0  0
    7.7763  -13.0548   18.9728 C   0  0  0  0  0  0  0  0  0  0  0  0
    8.6525  -12.5527   19.9101 C   0  0  0  0  0  0  0  0  0  0  0  0
    8.6291  -12.9873   21.2193 C   0  0  0  0  0  0  0  0  0  0  0  0
    7.7428  -13.9377   21.6726 C   0  0  0  0  0  0  0  0  0  0  0  0
    7.6871  -14.4229   23.0602 C   0  0  0  0  0  0  0  0  0  0  0  0
    8.7264  -15.3836   23.4977 C   0  0  2  0  0  0  0  0  0  0  0  0
    8.6036  -16.5736   22.6179 N   0  0  0  0  0  0  0  0  0  0  0  0
    8.5268  -15.9043   24.8596 C   0  0  0  0  0  0  0  0  0  0  0  0
    8.4848  -15.1057   25.8631 O   0  0  0  0  0  0  0  0  0  0  0  0
    6.8566  -14.4404   20.7080 C   0  0  0  0  0  0  0  0  0  0  0  0
    6.8780  -14.0081   19.4005 C   0  0  0  0  0  0  0  0  0  0  0  0
    6.9746  -18.6982   26.6438 C   0  0  0  0  0  0  0  0  0  0  0  0
    8.0811  -17.6461   26.5795 C   0  0  2  0  0  0  0  0  0  0  0  0
    8.3581  -17.2798   25.2089 N   0  0  0  0  0  0  0  0  0  0  0  0
    9.2522  -18.2542   27.2416 C   0  0  0  0  0  0  0  0  0  0  0  0
    9.3079  -18.6375   28.5707 O   0  0  0  0  0  0  0  0  0  0  0  0
   10.3291  -18.4679   26.5882 O   0  0  0  0  0  0  0  0  0  0  0  0
  2  1  1  1
  2  4  1  0
  2  3  1  0
  4  5  2  0
  7  6  1  0
  7 17  2  0
  8  7  1  0
  9  8  2  0
  9 10  1  0
 10 16  2  0
 11 10  1  0
 12 11  1  6
 13 12  1  0
 13  4  1  0
 14 12  1  0
 15 14  2  0
 16 17  1  0
 19 18  1  6
 19 20  1  0
 20 14  1  0
 21 22  1  0
 21 19  1  0
 23 21  2  0
M  END
$$$$
