AYA.pdb
     RDKit          3D

 23 23  0  0  1  0  0  0  0  0999 V2000
    8.7995  -19.0495   19.2321 C   0  0  0  0  0  0  0  0  0  0  0  0
    8.7283  -17.5525   19.0419 C   0  0  2  0  0  0  0  0  0  0  0  0
    9.7094  -17.1694   18.0732 N   0  0  0  0  0  0  0  0  0  0  0  0
    8.9336  -16.8085   20.2898 C   0  0  0  0  0  0  0  0  0  0  0  0
   10.1419  -16.5962   20.6337 O   0  0  0  0  0  0  0  0  0  0  0  0
    7.0482  -11.9249   27.6306 O   0  0  0  0  0  0  0  0  0  0  0  0
    7.0451  -12.6096   26.4078 C   0  0  0  0  0  0  0  0  0  0  0  0
    7.5889  -12.0580   25.2684 C   0  0  0  0  0  0  0  0  0  0  0  0
    7.5820  -12.7386   24.0683 C   0  0  0  0  0  0  0  0  0  0  0  0
    7.0399  -13.9959   23.9283 C   0  0  0  0  0  0  0  0  0  0  0  0
    7.0170  -14.7519   22.6667 C   0  0  0  0  0  0  0  0  0  0  0  0
    8.2294  -15.5203   22.3004 C   0  0  2  0  0  0  0  0  0  0  0  0
    7.8760  -16.3294   21.1063 N   0  0  0  0  0  0  0  0  0  0  0  0
    8.6422  -16.5072   23.3110 C   0  0  0  0  0  0  0  0  0  0  0  0
    8.2770  -17.7333   23.2119 O   0  0  0  0  0  0  0  0  0  0  0  0
    6.4898  -14.5455   25.0961 C   0  0  0  0  0  0  0  0  0  0  0  0
    6.4954  -13.8681   26.2953 C   0  0  0  0  0  0  0  0  0  0  0  0
   10.9883  -18.1443   24.5428 C   0  0  0  0  0  0  0  0  0  0  0  0
    9.9247  -17.3296   25.2780 C   0  0  2  0  0  0  0  0  0  0  0  0
    9.4575  -16.2382   24.4535 N   0  0  0  0  0  0  0  0  0  0  0  0
   10.5691  -16.8550   26.5186 C   0  0  0  0  0  0  0  0  0  0  0  0
   11.0507  -17.6688   27.5297 O   0  0  0  0  0  0  0  0  0  0  0  0
   10.7224  -15.6049   26.7333 O   0  0  0  0  0  0  0  0  0  0  0  0
  2  1  1  1
  2  4  1  0
  2  3  1  0
  4  5  2  0
  7  6  1  0
  7 17  2  0
  8  7  1  0
  9  8  2  0
  9 10  1  0
 10 16  2  0
 11 10  1  0
 12 11  1  1
 13 12  1  0
 13  4  1  0
 14 12  1  0
 15 14  2  0
 16 17  1  0
 19 18  1  6
 19 20  1  0
 20 14  1  0
 21 22  1  0
 21 19  1  0
 23 21  2  0
M  END
$$$$
