AYA.pdb
     RDKit          3D

 23 23  0  0  1  0  0  0  0  0999 V2000
    8.8733  -18.7213   19.6393 C   0  0  0  0  0  0  0  0  0  0  0  0
    8.9145  -17.2339   19.3780 C   0  0  2  0  0  0  0  0  0  0  0  0
    9.9690  -16.9638   18.4491 N   0  0  0  0  0  0  0  0  0  0  0  0
    9.1043  -16.4450   20.6006 C   0  0  0  0  0  0  0  0  0  0  0  0
   10.2939  -16.0658   20.8543 O   0  0  0  0  0  0  0  0  0  0  0  0
    7.1071  -11.7195   28.0133 O   0  0  0  0  0  0  0  0  0  0  0  0
    7.1199  -12.4062   26.7917 C   0  0  0  0  0  0  0  0  0  0  0  0
    7.6431  -11.8408   25.6494 C   0  0  0  0  0  0  0  0  0  0  0  0
    7.6521  -12.5234   24.4504 C   0  0  0  0  0  0  0  0  0  0  0  0
    7.1470  -13.7965   24.3146 C   0  0  0  0  0  0  0  0  0  0  0  0
    7.1420  -14.5551   23.0543 C   0  0  0  0  0  0  0  0  0  0  0  0
    8.3844  -15.2650   22.6711 C   0  0  2  0  0  0  0  0  0  0  0  0
    8.0516  -16.0965   21.4865 N   0  0  0  0  0  0  0  0  0  0  0  0
    8.8618  -16.2253   23.6788 C   0  0  0  0  0  0  0  0  0  0  0  0
    8.2329  -17.3255   23.8801 O   0  0  0  0  0  0  0  0  0  0  0  0
    6.6175  -14.3601   25.4853 C   0  0  0  0  0  0  0  0  0  0  0  0
    6.6073  -13.6806   26.6833 C   0  0  0  0  0  0  0  0  0  0  0  0
   11.9163  -17.3083   25.4149 C   0  0  0  0  0  0  0  0  0  0  0  0
   10.4010  -17.1099   25.4220 C   0  0  2  0  0  0  0  0  0  0  0  0
   10.0190  -16.0629   24.5016 N   0  0  0  0  0  0  0  0  0  0  0  0
   10.0455  -16.7830   26.8171 C   0  0  0  0  0  0  0  0  0  0  0  0
   10.2461  -17.6124   27.9072 O   0  0  0  0  0  0  0  0  0  0  0  0
    9.5066  -15.6607   27.1037 O   0  0  0  0  0  0  0  0  0  0  0  0
  2  1  1  1
  2  4  1  0
  2  3  1  0
  4  5  2  0
  7  6  1  0
  7 17  2  0
  8  7  1  0
  9  8  2  0
  9 10  1  0
 10 16  2  0
 11 10  1  0
 12 11  1  1
 13 12  1  0
 13  4  1  0
 14 12  1  0
 15 14  2  0
 16 17  1  0
 19 18  1  1
 19 20  1  0
 20 14  1  0
 21 22  1  0
 21 19  1  0
 23 21  2  0
M  END
$$$$
