AYA.pdb
     RDKit          3D

 23 23  0  0  1  0  0  0  0  0999 V2000
    6.5678  -14.8575   19.6896 C   0  0  0  0  0  0  0  0  0  0  0  0
    7.0488  -13.6213   20.4128 C   0  0  2  0  0  0  0  0  0  0  0  0
    7.7098  -12.7710   19.4706 N   0  0  0  0  0  0  0  0  0  0  0  0
    7.9462  -13.9283   21.5323 C   0  0  0  0  0  0  0  0  0  0  0  0
    9.1960  -13.8809   21.2893 O   0  0  0  0  0  0  0  0  0  0  0  0
   10.7160  -15.0386   30.0345 O   0  0  0  0  0  0  0  0  0  0  0  0
    9.9999  -14.8420   28.8460 C   0  0  0  0  0  0  0  0  0  0  0  0
    9.4084  -15.8905   28.1758 C   0  0  0  0  0  0  0  0  0  0  0  0
    8.7051  -15.6887   27.0061 C   0  0  0  0  0  0  0  0  0  0  0  0
    8.5480  -14.4455   26.4367 C   0  0  0  0  0  0  0  0  0  0  0  0
    7.8035  -14.1924   25.1936 C   0  0  0  0  0  0  0  0  0  0  0  0
    8.5119  -14.4032   23.9097 C   0  0  2  0  0  0  0  0  0  0  0  0
    7.4959  -14.2657   22.8354 N   0  0  0  0  0  0  0  0  0  0  0  0
    9.0536  -15.7608   23.7394 C   0  0  0  0  0  0  0  0  0  0  0  0
    8.2660  -16.7636   23.5958 O   0  0  0  0  0  0  0  0  0  0  0  0
    9.1553  -13.3872   27.1293 C   0  0  0  0  0  0  0  0  0  0  0  0
    9.8579  -13.5861   28.2970 C   0  0  0  0  0  0  0  0  0  0  0  0
   11.9690  -17.6580   22.5942 C   0  0  0  0  0  0  0  0  0  0  0  0
   10.8344  -17.4933   23.6046 C   0  0  2  0  0  0  0  0  0  0  0  0
   10.4400  -16.1064   23.7076 N   0  0  0  0  0  0  0  0  0  0  0  0
   11.3541  -18.0214   24.8815 C   0  0  0  0  0  0  0  0  0  0  0  0
   11.4558  -17.3025   26.0603 O   0  0  0  0  0  0  0  0  0  0  0  0
   11.7577  -19.2305   24.9678 O   0  0  0  0  0  0  0  0  0  0  0  0
  2  1  1  6
  2  4  1  0
  2  3  1  0
  4  5  2  0
  7  6  1  0
  7 17  2  0
  8  7  1  0
  9  8  2  0
  9 10  1  0
 10 16  2  0
 11 10  1  0
 12 11  1  1
 13 12  1  0
 13  4  1  0
 14 12  1  0
 15 14  2  0
 16 17  1  0
 19 18  1  6
 19 20  1  0
 20 14  1  0
 21 22  1  0
 21 19  1  0
 23 21  2  0
M  END
$$$$
