DTQ.pdb
     RDKit          3D

 25 24  0  0  1  0  0  0  0  0999 V2000
   18.6694  -11.6766  -15.7104 N   0  0  0  0  0  0  0  0  0  0  0  0
   17.4888  -11.0305  -15.0602 C   0  0  1  0  0  0  0  0  0  0  0  0
   16.5516  -12.1086  -14.6230 C   0  0  0  0  0  0  0  0  0  0  0  0
   15.8088  -12.6619  -15.7619 C   0  0  0  0  0  0  0  0  0  0  0  0
   15.8530  -12.0330  -16.8709 O   0  0  0  0  0  0  0  0  0  0  0  0
   18.0016  -10.3210  -13.8583 C   0  0  0  0  0  0  0  0  0  0  0  0
   18.7799  -10.8935  -13.0684 O   0  0  0  0  0  0  0  0  0  0  0  0
   15.0601  -13.8082  -15.7383 O   0  0  0  0  0  0  0  0  0  0  0  0
   20.2673   -7.8922  -13.4060 C   0  0  0  0  0  0  0  0  0  0  0  0
   19.0347   -7.2263  -12.8485 C   0  0  1  0  0  0  0  0  0  0  0  0
   18.4035   -6.3892  -13.7650 O   0  0  0  0  0  0  0  0  0  0  0  0
   18.0196   -8.2847  -12.4033 C   0  0  2  0  0  0  0  0  0  0  0  0
   17.5972   -8.9811  -13.6150 N   0  0  0  0  0  0  0  0  0  0  0  0
   16.9022   -7.6416  -11.7104 C   0  0  0  0  0  0  0  0  0  0  0  0
   15.7348   -7.7779  -12.1244 O   0  0  0  0  0  0  0  0  0  0  0  0
   13.3999   -9.3393   -8.5347 N   0  0  0  0  0  0  0  0  0  0  0  0
   13.1551   -8.0439   -7.9743 C   0  0  0  0  0  0  0  0  0  0  0  0
   12.2062   -7.9425   -7.1841 O   0  0  0  0  0  0  0  0  0  0  0  0
   14.0627   -6.9656   -8.4035 C   0  0  0  0  0  0  0  0  0  0  0  0
   15.1690   -7.4246   -9.2824 C   0  0  0  0  0  0  0  0  0  0  0  0
   16.0196   -6.2887   -9.8007 C   0  0  2  0  0  0  0  0  0  0  0  0
   17.1585   -6.8549  -10.5555 N   0  0  0  0  0  0  0  0  0  0  0  0
   16.5464   -5.4505   -8.7142 C   0  0  0  0  0  0  0  0  0  0  0  0
   15.9613   -4.3115   -8.2316 O   0  0  0  0  0  0  0  0  0  0  0  0
   17.6474   -5.7860   -8.1484 O   0  0  0  0  0  0  0  0  0  0  0  0
  2  3  1  0
  2  1  1  1
  3  4  1  0
  4  8  1  0
  4  5  2  0
  6  2  1  0
  7  6  2  0
 10  9  1  6
 10 12  1  0
 11 10  1  0
 12 13  1  6
 13  6  1  0
 14 12  1  0
 14 15  2  0
 16 17  1  0
 17 18  2  0
 19 17  1  0
 19 20  1  0
 21 20  1  1
 21 22  1  0
 22 14  1  0
 23 21  1  0
 24 23  1  0
 25 23  2  0
M  END
$$$$
