DTQ.pdb
     RDKit          3D

 25 24  0  0  1  0  0  0  0  0999 V2000
   24.1534  -10.9904  -18.1087 N   0  0  0  0  0  0  0  0  0  0  0  0
   23.6749   -9.5819  -17.9638 C   0  0  1  0  0  0  0  0  0  0  0  0
   23.6328   -8.9635  -19.3231 C   0  0  0  0  0  0  0  0  0  0  0  0
   24.9853   -8.7459  -19.8507 C   0  0  0  0  0  0  0  0  0  0  0  0
   25.9741   -9.1587  -19.1584 O   0  0  0  0  0  0  0  0  0  0  0  0
   22.2910   -9.6568  -17.4253 C   0  0  0  0  0  0  0  0  0  0  0  0
   21.6708  -10.7398  -17.4201 O   0  0  0  0  0  0  0  0  0  0  0  0
   25.2839   -8.1281  -21.0358 O   0  0  0  0  0  0  0  0  0  0  0  0
   20.9400  -10.8462  -15.6019 C   0  0  0  0  0  0  0  0  0  0  0  0
   20.4411   -9.5017  -15.1360 C   0  0  1  0  0  0  0  0  0  0  0  0
   21.2621   -8.9168  -14.1753 O   0  0  0  0  0  0  0  0  0  0  0  0
   20.3445   -8.5356  -16.3218 C   0  0  2  0  0  0  0  0  0  0  0  0
   21.6776   -8.4817  -16.9147 N   0  0  0  0  0  0  0  0  0  0  0  0
   19.8855   -7.2250  -15.8592 C   0  0  0  0  0  0  0  0  0  0  0  0
   20.7015   -6.3140  -15.6203 O   0  0  0  0  0  0  0  0  0  0  0  0
   19.6142   -2.9881  -16.9970 N   0  0  0  0  0  0  0  0  0  0  0  0
   18.3058   -2.5150  -16.6558 C   0  0  0  0  0  0  0  0  0  0  0  0
   18.1751   -1.2947  -16.4859 O   0  0  0  0  0  0  0  0  0  0  0  0
   17.2518   -3.5380  -16.5410 C   0  0  0  0  0  0  0  0  0  0  0  0
   17.7426   -4.9295  -16.7143 C   0  0  0  0  0  0  0  0  0  0  0  0
   18.0186   -5.6246  -15.4016 C   0  0  2  0  0  0  0  0  0  0  0  0
   18.4946   -6.9966  -15.6821 N   0  0  0  0  0  0  0  0  0  0  0  0
   16.8194   -5.7072  -14.5556 C   0  0  0  0  0  0  0  0  0  0  0  0
   16.4967   -4.8434  -13.5446 O   0  0  0  0  0  0  0  0  0  0  0  0
   15.9829   -6.6589  -14.7545 O   0  0  0  0  0  0  0  0  0  0  0  0
  2  3  1  0
  2  1  1  6
  3  4  1  0
  4  8  1  0
  4  5  2  0
  6  2  1  0
  7  6  2  0
 10  9  1  6
 10 12  1  0
 11 10  1  0
 12 13  1  1
 13  6  1  0
 14 12  1  0
 14 15  2  0
 16 17  1  0
 17 18  2  0
 19 17  1  0
 19 20  1  0
 21 20  1  6
 21 22  1  0
 22 14  1  0
 23 21  1  0
 24 23  1  0
 25 23  2  0
M  END
$$$$
