DTQ.pdb
     RDKit          3D

 25 24  0  0  1  0  0  0  0  0999 V2000
   16.0780  -11.8409  -15.8868 N   0  0  0  0  0  0  0  0  0  0  0  0
   16.8928  -12.2789  -14.7128 C   0  0  1  0  0  0  0  0  0  0  0  0
   17.9736  -13.1832  -15.2089 C   0  0  0  0  0  0  0  0  0  0  0  0
   17.4505  -14.5208  -15.5123 C   0  0  0  0  0  0  0  0  0  0  0  0
   16.7056  -15.0860  -14.6445 O   0  0  0  0  0  0  0  0  0  0  0  0
   17.5132  -11.0526  -14.1453 C   0  0  0  0  0  0  0  0  0  0  0  0
   18.2917  -11.1281  -13.1729 O   0  0  0  0  0  0  0  0  0  0  0  0
   17.6966  -15.2267  -16.6596 O   0  0  0  0  0  0  0  0  0  0  0  0
   19.4432   -8.2965  -15.8270 C   0  0  0  0  0  0  0  0  0  0  0  0
   18.2113   -7.6720  -15.2221 C   0  0  1  0  0  0  0  0  0  0  0  0
   17.1837   -7.4866  -16.1434 O   0  0  0  0  0  0  0  0  0  0  0  0
   17.6737   -8.5556  -14.0912 C   0  0  2  0  0  0  0  0  0  0  0  0
   17.2118   -9.7893  -14.7207 N   0  0  0  0  0  0  0  0  0  0  0  0
   16.6024   -7.8562  -13.3802 C   0  0  0  0  0  0  0  0  0  0  0  0
   15.4088   -8.0470  -13.6831 O   0  0  0  0  0  0  0  0  0  0  0  0
   15.4375   -7.3377   -7.6518 N   0  0  0  0  0  0  0  0  0  0  0  0
   14.5803   -6.2733   -8.0812 C   0  0  0  0  0  0  0  0  0  0  0  0
   13.8007   -5.8043   -7.2402 O   0  0  0  0  0  0  0  0  0  0  0  0
   14.7183   -5.8513   -9.4861 C   0  0  0  0  0  0  0  0  0  0  0  0
   15.7593   -6.5973  -10.2389 C   0  0  0  0  0  0  0  0  0  0  0  0
   15.8568   -6.1741  -11.6859 C   0  0  2  0  0  0  0  0  0  0  0  0
   16.9339   -6.9517  -12.3361 N   0  0  0  0  0  0  0  0  0  0  0  0
   16.1611   -4.7427  -11.8252 C   0  0  0  0  0  0  0  0  0  0  0  0
   17.3739   -4.2170  -12.1791 O   0  0  0  0  0  0  0  0  0  0  0  0
   15.2333   -3.8856  -11.6025 O   0  0  0  0  0  0  0  0  0  0  0  0
  2  3  1  0
  2  1  1  6
  3  4  1  0
  4  8  1  0
  4  5  2  0
  6  2  1  0
  7  6  2  0
 10  9  1  6
 10 12  1  0
 11 10  1  0
 12 13  1  6
 13  6  1  0
 14 12  1  0
 14 15  2  0
 16 17  1  0
 17 18  2  0
 19 17  1  0
 19 20  1  0
 21 20  1  1
 21 22  1  0
 22 14  1  0
 23 21  1  0
 24 23  1  0
 25 23  2  0
M  END
$$$$
