DTQ.pdb
     RDKit          3D

 25 24  0  0  1  0  0  0  0  0999 V2000
   23.1609   -4.4046  -18.2210 N   0  0  0  0  0  0  0  0  0  0  0  0
   22.2218   -4.7541  -17.1120 C   0  0  1  0  0  0  0  0  0  0  0  0
   20.9122   -4.0892  -17.3853 C   0  0  0  0  0  0  0  0  0  0  0  0
   20.7840   -2.8363  -16.6311 C   0  0  0  0  0  0  0  0  0  0  0  0
   20.9873   -2.8692  -15.3721 O   0  0  0  0  0  0  0  0  0  0  0  0
   22.0339   -6.2282  -17.1635 C   0  0  0  0  0  0  0  0  0  0  0  0
   22.7528   -6.9333  -17.9007 O   0  0  0  0  0  0  0  0  0  0  0  0
   20.4587   -1.6186  -17.1663 O   0  0  0  0  0  0  0  0  0  0  0  0
   22.3877   -8.4054  -14.4888 C   0  0  0  0  0  0  0  0  0  0  0  0
   22.0851   -8.9207  -15.8731 C   0  0  1  0  0  0  0  0  0  0  0  0
   21.9148  -10.3021  -15.9172 O   0  0  0  0  0  0  0  0  0  0  0  0
   20.8036   -8.2726  -16.4082 C   0  0  2  0  0  0  0  0  0  0  0  0
   21.0257   -6.8303  -16.3641 N   0  0  0  0  0  0  0  0  0  0  0  0
   19.6597   -8.6867  -15.5944 C   0  0  0  0  0  0  0  0  0  0  0  0
   19.4792   -8.2039  -14.4599 O   0  0  0  0  0  0  0  0  0  0  0  0
   14.3088  -10.0323  -18.2209 N   0  0  0  0  0  0  0  0  0  0  0  0
   13.9196  -10.1203  -16.8450 C   0  0  0  0  0  0  0  0  0  0  0  0
   12.7112  -10.2602  -16.6097 O   0  0  0  0  0  0  0  0  0  0  0  0
   15.0055  -10.0317  -15.8532 C   0  0  0  0  0  0  0  0  0  0  0  0
   16.3575   -9.8906  -16.4525 C   0  0  0  0  0  0  0  0  0  0  0  0
   17.4598   -9.8641  -15.4196 C   0  0  2  0  0  0  0  0  0  0  0  0
   18.7508   -9.6497  -16.1089 N   0  0  0  0  0  0  0  0  0  0  0  0
   17.5364  -11.1194  -14.6586 C   0  0  0  0  0  0  0  0  0  0  0  0
   16.8992  -11.3731  -13.4744 O   0  0  0  0  0  0  0  0  0  0  0  0
   18.2537  -12.0799  -15.1146 O   0  0  0  0  0  0  0  0  0  0  0  0
  2  3  1  0
  2  1  1  6
  3  4  1  0
  4  8  1  0
  4  5  2  0
  6  2  1  0
  7  6  2  0
 10  9  1  1
 10 12  1  0
 11 10  1  0
 12 13  1  1
 13  6  1  0
 14 12  1  0
 14 15  2  0
 16 17  1  0
 17 18  2  0
 19 17  1  0
 19 20  1  0
 21 20  1  6
 21 22  1  0
 22 14  1  0
 23 21  1  0
 24 23  1  0
 25 23  2  0
M  END
$$$$
