DTQ.pdb
     RDKit          3D

 25 24  0  0  1  0  0  0  0  0999 V2000
   18.4547  -14.3673  -16.1834 N   0  0  0  0  0  0  0  0  0  0  0  0
   17.9923  -12.9731  -16.4599 C   0  0  1  0  0  0  0  0  0  0  0  0
   17.3112  -12.4580  -15.2341 C   0  0  0  0  0  0  0  0  0  0  0  0
   16.1231  -13.2569  -14.9101 C   0  0  0  0  0  0  0  0  0  0  0  0
   15.3658  -13.6238  -15.8689 O   0  0  0  0  0  0  0  0  0  0  0  0
   19.2135  -12.1624  -16.7095 C   0  0  0  0  0  0  0  0  0  0  0  0
   20.3346  -12.5794  -16.3537 O   0  0  0  0  0  0  0  0  0  0  0  0
   15.7490  -13.6468  -13.6518 O   0  0  0  0  0  0  0  0  0  0  0  0
   20.7830  -11.6408  -19.5835 C   0  0  0  0  0  0  0  0  0  0  0  0
   20.4688  -10.2182  -19.1948 C   0  0  1  0  0  0  0  0  0  0  0  0
   19.3155   -9.7276  -19.8017 O   0  0  0  0  0  0  0  0  0  0  0  0
   20.2804  -10.1158  -17.6774 C   0  0  2  0  0  0  0  0  0  0  0  0
   19.0938  -10.9046  -17.3587 N   0  0  0  0  0  0  0  0  0  0  0  0
   20.1393   -8.7121  -17.2874 C   0  0  0  0  0  0  0  0  0  0  0  0
   19.2037   -8.3488  -16.5489 O   0  0  0  0  0  0  0  0  0  0  0  0
   22.1318   -7.1913  -12.9727 N   0  0  0  0  0  0  0  0  0  0  0  0
   22.1798   -5.8209  -13.3874 C   0  0  0  0  0  0  0  0  0  0  0  0
   22.5062   -4.9853  -12.5328 O   0  0  0  0  0  0  0  0  0  0  0  0
   21.8309   -5.5525  -14.7934 C   0  0  0  0  0  0  0  0  0  0  0  0
   21.5566   -6.7766  -15.5894 C   0  0  0  0  0  0  0  0  0  0  0  0
   21.2385   -6.4794  -17.0361 C   0  0  2  0  0  0  0  0  0  0  0  0
   21.0815   -7.7597  -17.7600 N   0  0  0  0  0  0  0  0  0  0  0  0
   22.2998   -5.6985  -17.6876 C   0  0  0  0  0  0  0  0  0  0  0  0
   22.3577   -4.3329  -17.7537 O   0  0  0  0  0  0  0  0  0  0  0  0
   23.2697   -6.3186  -18.2532 O   0  0  0  0  0  0  0  0  0  0  0  0
  2  3  1  0
  2  1  1  1
  3  4  1  0
  4  8  1  0
  4  5  2  0
  6  2  1  0
  7  6  2  0
 10  9  1  1
 10 12  1  0
 11 10  1  0
 12 13  1  6
 13  6  1  0
 14 12  1  0
 14 15  2  0
 16 17  1  0
 17 18  2  0
 19 17  1  0
 19 20  1  0
 21 20  1  1
 21 22  1  0
 22 14  1  0
 23 21  1  0
 24 23  1  0
 25 23  2  0
M  END
$$$$
