DTQ.pdb
     RDKit          3D

 25 24  0  0  1  0  0  0  0  0999 V2000
   17.3012  -15.8504  -17.3345 N   0  0  0  0  0  0  0  0  0  0  0  0
   18.1948  -15.3877  -16.2293 C   0  0  1  0  0  0  0  0  0  0  0  0
   19.1293  -16.5028  -15.8898 C   0  0  0  0  0  0  0  0  0  0  0  0
   18.4321  -17.5849  -15.1841 C   0  0  0  0  0  0  0  0  0  0  0  0
   19.1164  -18.5911  -14.8009 O   0  0  0  0  0  0  0  0  0  0  0  0
   18.9814  -14.2471  -16.7687 C   0  0  0  0  0  0  0  0  0  0  0  0
   19.7482  -14.4091  -17.7399 O   0  0  0  0  0  0  0  0  0  0  0  0
   17.0931  -17.6115  -14.8989 O   0  0  0  0  0  0  0  0  0  0  0  0
   17.7071  -11.1771  -18.1976 C   0  0  0  0  0  0  0  0  0  0  0  0
   18.5402  -10.7491  -17.0159 C   0  0  1  0  0  0  0  0  0  0  0  0
   17.7862  -10.5315  -15.8656 O   0  0  0  0  0  0  0  0  0  0  0  0
   19.5882  -11.8201  -16.6944 C   0  0  2  0  0  0  0  0  0  0  0  0
   18.8530  -12.9663  -16.1677 N   0  0  0  0  0  0  0  0  0  0  0  0
   20.5608  -11.2923  -15.7364 C   0  0  0  0  0  0  0  0  0  0  0  0
   20.3887  -11.4380  -14.5108 O   0  0  0  0  0  0  0  0  0  0  0  0
   26.5845  -11.1247  -16.7613 N   0  0  0  0  0  0  0  0  0  0  0  0
   26.5571  -10.5632  -15.4436 C   0  0  0  0  0  0  0  0  0  0  0  0
   27.6459  -10.4216  -14.8694 O   0  0  0  0  0  0  0  0  0  0  0  0
   25.2284  -10.2155  -14.9104 C   0  0  0  0  0  0  0  0  0  0  0  0
   24.1076  -10.5386  -15.8304 C   0  0  0  0  0  0  0  0  0  0  0  0
   22.7545  -10.1913  -15.2550 C   0  0  2  0  0  0  0  0  0  0  0  0
   21.7095  -10.6075  -16.2155 N   0  0  0  0  0  0  0  0  0  0  0  0
   22.6131   -8.7502  -15.0022 C   0  0  0  0  0  0  0  0  0  0  0  0
   22.9443   -8.1092  -13.8395 O   0  0  0  0  0  0  0  0  0  0  0  0
   22.1414   -8.0000  -15.9294 O   0  0  0  0  0  0  0  0  0  0  0  0
  2  3  1  0
  2  1  1  6
  3  4  1  0
  4  8  1  0
  4  5  2  0
  6  2  1  0
  7  6  2  0
 10  9  1  6
 10 12  1  0
 11 10  1  0
 12 13  1  1
 13  6  1  0
 14 12  1  0
 14 15  2  0
 16 17  1  0
 17 18  2  0
 19 17  1  0
 19 20  1  0
 21 20  1  6
 21 22  1  0
 22 14  1  0
 23 21  1  0
 24 23  1  0
 25 23  2  0
M  END
$$$$
