DTQ.pdb
     RDKit          3D

 25 24  0  0  1  0  0  0  0  0999 V2000
   28.9386  -10.0303  -19.0966 N   0  0  0  0  0  0  0  0  0  0  0  0
   28.3158   -9.2388  -17.9922 C   0  0  1  0  0  0  0  0  0  0  0  0
   29.1658   -8.0350  -17.7470 C   0  0  0  0  0  0  0  0  0  0  0  0
   30.4652   -8.4087  -17.1751 C   0  0  0  0  0  0  0  0  0  0  0  0
   30.5667   -9.5459  -16.6061 O   0  0  0  0  0  0  0  0  0  0  0  0
   26.9846   -8.7966  -18.4852 C   0  0  0  0  0  0  0  0  0  0  0  0
   26.8502   -8.3692  -19.6500 O   0  0  0  0  0  0  0  0  0  0  0  0
   31.5933   -7.6327  -17.1966 O   0  0  0  0  0  0  0  0  0  0  0  0
   24.0862  -10.8344  -18.8696 C   0  0  0  0  0  0  0  0  0  0  0  0
   23.6588   -9.7549  -17.9075 C   0  0  1  0  0  0  0  0  0  0  0  0
   23.7511  -10.1436  -16.5735 O   0  0  0  0  0  0  0  0  0  0  0  0
   24.5295   -8.5077  -18.0942 C   0  0  2  0  0  0  0  0  0  0  0  0
   25.8624   -8.8646  -17.6169 N   0  0  0  0  0  0  0  0  0  0  0  0
   23.9536   -7.3839  -17.3541 C   0  0  0  0  0  0  0  0  0  0  0  0
   24.4575   -7.0064  -16.2787 O   0  0  0  0  0  0  0  0  0  0  0  0
   20.8311   -2.6920  -19.9131 N   0  0  0  0  0  0  0  0  0  0  0  0
   20.7347   -2.3221  -18.5324 C   0  0  0  0  0  0  0  0  0  0  0  0
   20.2157   -1.2261  -18.2782 O   0  0  0  0  0  0  0  0  0  0  0  0
   21.2691   -3.2905  -17.5591 C   0  0  0  0  0  0  0  0  0  0  0  0
   21.8228   -4.5223  -18.1780 C   0  0  0  0  0  0  0  0  0  0  0  0
   22.2714   -5.5432  -17.1586 C   0  0  2  0  0  0  0  0  0  0  0  0
   22.8083   -6.7221  -17.8723 N   0  0  0  0  0  0  0  0  0  0  0  0
   21.1686   -5.9814  -16.2910 C   0  0  0  0  0  0  0  0  0  0  0  0
   20.7419   -5.3402  -15.1600 O   0  0  0  0  0  0  0  0  0  0  0  0
   20.5307   -7.0531  -16.5902 O   0  0  0  0  0  0  0  0  0  0  0  0
  2  3  1  0
  2  1  1  6
  3  4  1  0
  4  8  1  0
  4  5  2  0
  6  2  1  0
  7  6  2  0
 10  9  1  6
 10 12  1  0
 11 10  1  0
 12 13  1  1
 13  6  1  0
 14 12  1  0
 14 15  2  0
 16 17  1  0
 17 18  2  0
 19 17  1  0
 19 20  1  0
 21 20  1  6
 21 22  1  0
 22 14  1  0
 23 21  1  0
 24 23  1  0
 25 23  2  0
M  END
$$$$
