DTQ.pdb
     RDKit          3D

 25 24  0  0  1  0  0  0  0  0999 V2000
   16.6125  -12.1019  -14.9845 N   0  0  0  0  0  0  0  0  0  0  0  0
   16.6757  -10.6454  -15.3143 C   0  0  1  0  0  0  0  0  0  0  0  0
   15.4300   -9.9988  -14.8024 C   0  0  0  0  0  0  0  0  0  0  0  0
   14.2603  -10.3942  -15.5965 C   0  0  0  0  0  0  0  0  0  0  0  0
   14.4377  -10.6775  -16.8276 O   0  0  0  0  0  0  0  0  0  0  0  0
   17.8431  -10.0935  -14.5774 C   0  0  0  0  0  0  0  0  0  0  0  0
   17.9481  -10.2548  -13.3443 O   0  0  0  0  0  0  0  0  0  0  0  0
   12.9773  -10.4847  -15.1267 O   0  0  0  0  0  0  0  0  0  0  0  0
   21.4510  -10.7114  -15.2359 C   0  0  0  0  0  0  0  0  0  0  0  0
   21.2302   -9.2267  -15.3781 C   0  0  1  0  0  0  0  0  0  0  0  0
   21.0566   -8.8239  -16.6998 O   0  0  0  0  0  0  0  0  0  0  0  0
   19.9863   -8.8010  -14.5906 C   0  0  2  0  0  0  0  0  0  0  0  0
   18.8422   -9.3783  -15.2903 N   0  0  0  0  0  0  0  0  0  0  0  0
   19.9185   -7.3406  -14.5194 C   0  0  0  0  0  0  0  0  0  0  0  0
   19.0127   -6.7173  -15.1056 O   0  0  0  0  0  0  0  0  0  0  0  0
   17.3537   -3.9733  -11.6285 N   0  0  0  0  0  0  0  0  0  0  0  0
   18.3372   -4.6620  -10.8470 C   0  0  0  0  0  0  0  0  0  0  0  0
   18.0892   -4.8216   -9.6436 O   0  0  0  0  0  0  0  0  0  0  0  0
   19.5455   -5.1060  -11.5636 C   0  0  0  0  0  0  0  0  0  0  0  0
   19.5471   -4.7646  -13.0094 C   0  0  0  0  0  0  0  0  0  0  0  0
   20.8288   -5.1575  -13.7061 C   0  0  2  0  0  0  0  0  0  0  0  0
   20.8991   -6.6333  -13.7734 N   0  0  0  0  0  0  0  0  0  0  0  0
   22.0183   -4.6623  -12.9985 C   0  0  0  0  0  0  0  0  0  0  0  0
   22.4358   -3.3598  -12.9570 O   0  0  0  0  0  0  0  0  0  0  0  0
   22.7506   -5.4959  -12.3552 O   0  0  0  0  0  0  0  0  0  0  0  0
  2  3  1  0
  2  1  1  1
  3  4  1  0
  4  8  1  0
  4  5  2  0
  6  2  1  0
  7  6  2  0
 10  9  1  6
 10 12  1  0
 11 10  1  0
 12 13  1  6
 13  6  1  0
 14 12  1  0
 14 15  2  0
 16 17  1  0
 17 18  2  0
 19 17  1  0
 19 20  1  0
 21 20  1  1
 21 22  1  0
 22 14  1  0
 23 21  1  0
 24 23  1  0
 25 23  2  0
M  END
$$$$
