DTQ.pdb
     RDKit          3D

 25 24  0  0  1  0  0  0  0  0999 V2000
   15.9926  -13.6790  -14.4710 N   0  0  0  0  0  0  0  0  0  0  0  0
   17.3028  -13.8432  -15.1714 C   0  0  1  0  0  0  0  0  0  0  0  0
   17.1366  -14.8846  -16.2295 C   0  0  0  0  0  0  0  0  0  0  0  0
   16.9979  -16.2227  -15.6419 C   0  0  0  0  0  0  0  0  0  0  0  0
   16.1738  -16.3742  -14.6799 O   0  0  0  0  0  0  0  0  0  0  0  0
   17.6034  -12.5399  -15.8209 C   0  0  0  0  0  0  0  0  0  0  0  0
   18.6384  -12.3956  -16.5031 O   0  0  0  0  0  0  0  0  0  0  0  0
   17.6862  -17.3379  -16.0388 O   0  0  0  0  0  0  0  0  0  0  0  0
   15.1551  -10.8287  -18.0147 C   0  0  0  0  0  0  0  0  0  0  0  0
   15.5617   -9.8130  -16.9771 C   0  0  1  0  0  0  0  0  0  0  0  0
   14.6420   -9.6945  -15.9382 O   0  0  0  0  0  0  0  0  0  0  0  0
   16.9136  -10.1965  -16.3655 C   0  0  2  0  0  0  0  0  0  0  0  0
   16.6998  -11.4559  -15.6584 N   0  0  0  0  0  0  0  0  0  0  0  0
   17.3784   -9.1295  -15.4779 C   0  0  0  0  0  0  0  0  0  0  0  0
   17.5185   -9.3348  -14.2569 O   0  0  0  0  0  0  0  0  0  0  0  0
   22.3183   -7.2874  -14.4740 N   0  0  0  0  0  0  0  0  0  0  0  0
   21.7380   -6.1152  -13.8896 C   0  0  0  0  0  0  0  0  0  0  0  0
   22.4907   -5.3819  -13.2332 O   0  0  0  0  0  0  0  0  0  0  0  0
   20.2994   -5.9095  -14.1321 C   0  0  0  0  0  0  0  0  0  0  0  0
   19.6795   -6.9500  -14.9925 C   0  0  0  0  0  0  0  0  0  0  0  0
   18.1837   -6.7874  -15.1285 C   0  0  2  0  0  0  0  0  0  0  0  0
   17.6702   -7.8495  -16.0206 N   0  0  0  0  0  0  0  0  0  0  0  0
   17.8176   -5.4810  -15.6943 C   0  0  0  0  0  0  0  0  0  0  0  0
   17.7729   -4.2991  -15.0059 O   0  0  0  0  0  0  0  0  0  0  0  0
   17.5069   -5.4067  -16.9364 O   0  0  0  0  0  0  0  0  0  0  0  0
  2  3  1  0
  2  1  1  6
  3  4  1  0
  4  8  1  0
  4  5  2  0
  6  2  1  0
  7  6  2  0
 10  9  1  6
 10 12  1  0
 11 10  1  0
 12 13  1  1
 13  6  1  0
 14 12  1  0
 14 15  2  0
 16 17  1  0
 17 18  2  0
 19 17  1  0
 19 20  1  0
 21 20  1  6
 21 22  1  0
 22 14  1  0
 23 21  1  0
 24 23  1  0
 25 23  2  0
M  END
$$$$
