ADD.pdb
     RDKit          3D

 22 21  0  0  1  0  0  0  0  0999 V2000
   16.0781  -13.1576  -10.7981 C   0  0  0  0  0  0  0  0  0  0  0  0
   14.8719  -12.4127  -10.2475 C   0  0  2  0  0  0  0  0  0  0  0  0
   13.6638  -13.1579  -10.5311 N   0  0  0  0  0  0  0  0  0  0  0  0
   14.8024  -11.0535  -10.8049 C   0  0  0  0  0  0  0  0  0  0  0  0
   14.2191  -10.8623  -11.9022 O   0  0  0  0  0  0  0  0  0  0  0  0
   15.3780   -9.9541  -10.1333 N   0  0  0  0  0  0  0  0  0  0  0  0
   15.3419   -8.6146  -10.7285 C   0  0  1  0  0  0  0  0  0  0  0  0
   14.5995   -7.7128   -9.8101 C   0  0  0  0  0  0  0  0  0  0  0  0
   14.5322   -6.3290  -10.2770 C   0  0  0  0  0  0  0  0  0  0  0  0
   14.6008   -5.2930   -9.5843 O   0  0  0  0  0  0  0  0  0  0  0  0
   16.7727   -8.1858  -10.8973 C   0  0  0  0  0  0  0  0  0  0  0  0
   17.5553   -8.1137   -9.9348 O   0  0  0  0  0  0  0  0  0  0  0  0
   14.3723   -6.1353  -11.6620 O   0  0  0  0  0  0  0  0  0  0  0  0
   17.2922   -7.8389  -12.1987 N   0  0  0  0  0  0  0  0  0  0  0  0
   18.6884   -7.3962  -12.3522 C   0  0  1  0  0  0  0  0  0  0  0  0
   19.5147   -8.5085  -12.9073 C   0  0  0  0  0  0  0  0  0  0  0  0
   20.8910   -8.1833  -13.2597 C   0  0  0  0  0  0  0  0  0  0  0  0
   21.0632   -7.1161  -13.9332 O   0  0  0  0  0  0  0  0  0  0  0  0
   18.6788   -6.2635  -13.3041 C   0  0  0  0  0  0  0  0  0  0  0  0
   19.7107   -5.5397  -13.3882 O   0  0  0  0  0  0  0  0  0  0  0  0
   22.0087   -8.8983  -12.9471 O   0  0  0  0  0  0  0  0  0  0  0  0
   17.6094   -5.9386  -14.1160 O   0  0  0  0  0  0  0  0  0  0  0  0
  2  1  1  6
  2  4  1  0
  3  2  1  0
  4  6  1  0
  5  4  2  0
  6  7  1  0
  7  8  1  1
  7 11  1  0
  9  8  1  0
 10  9  2  0
 11 12  2  0
 11 14  1  0
 13  9  1  0
 14 15  1  0
 15 19  1  0
 15 16  1  6
 16 17  1  0
 17 18  2  0
 19 22  1  0
 20 19  2  0
 21 17  1  0
M  END
$$$$
