ADD.pdb
     RDKit          3D

 22 21  0  0  1  0  0  0  0  0999 V2000
   16.6667  -11.9968  -17.2351 C   0  0  0  0  0  0  0  0  0  0  0  0
   17.3726  -11.2643  -16.1046 C   0  0  2  0  0  0  0  0  0  0  0  0
   16.7578  -11.6060  -14.8394 N   0  0  0  0  0  0  0  0  0  0  0  0
   17.3493   -9.8116  -16.3329 C   0  0  0  0  0  0  0  0  0  0  0  0
   17.9218   -9.3338  -17.3453 O   0  0  0  0  0  0  0  0  0  0  0  0
   16.6963   -8.9379  -15.4378 N   0  0  0  0  0  0  0  0  0  0  0  0
   16.7136   -7.4894  -15.6638 C   0  0  1  0  0  0  0  0  0  0  0  0
   15.3846   -6.9401  -15.2895 C   0  0  0  0  0  0  0  0  0  0  0  0
   15.3029   -5.4842  -15.3942 C   0  0  0  0  0  0  0  0  0  0  0  0
   15.4277   -4.6515  -14.4728 O   0  0  0  0  0  0  0  0  0  0  0  0
   17.8107   -6.9372  -14.7973 C   0  0  0  0  0  0  0  0  0  0  0  0
   18.0055   -7.3487  -13.6411 O   0  0  0  0  0  0  0  0  0  0  0  0
   15.0561   -4.9545  -16.6747 O   0  0  0  0  0  0  0  0  0  0  0  0
   18.6856   -5.8974  -15.2847 N   0  0  0  0  0  0  0  0  0  0  0  0
   19.7880   -5.3950  -14.4473 C   0  0  1  0  0  0  0  0  0  0  0  0
   21.0824   -5.9756  -14.9117 C   0  0  0  0  0  0  0  0  0  0  0  0
   22.2713   -5.6017  -14.1563 C   0  0  0  0  0  0  0  0  0  0  0  0
   22.0790   -4.8855  -13.1207 O   0  0  0  0  0  0  0  0  0  0  0  0
   19.8174   -3.9248  -14.6108 C   0  0  0  0  0  0  0  0  0  0  0  0
   19.2826   -3.4231  -15.6393 O   0  0  0  0  0  0  0  0  0  0  0  0
   23.5622   -5.9349  -14.4403 O   0  0  0  0  0  0  0  0  0  0  0  0
   20.3945   -3.0530  -13.7078 O   0  0  0  0  0  0  0  0  0  0  0  0
  2  1  1  6
  2  4  1  0
  3  2  1  0
  4  6  1  0
  5  4  2  0
  6  7  1  0
  7  8  1  1
  7 11  1  0
  9  8  1  0
 10  9  2  0
 11 12  2  0
 11 14  1  0
 13  9  1  0
 14 15  1  0
 15 19  1  0
 15 16  1  6
 16 17  1  0
 17 18  2  0
 19 22  1  0
 20 19  2  0
 21 17  1  0
M  END
$$$$
