ADD.pdb
     RDKit          3D

 22 21  0  0  1  0  0  0  0  0999 V2000
   17.0870  -11.8338  -15.3742 C   0  0  0  0  0  0  0  0  0  0  0  0
   17.3152  -10.4207  -15.8880 C   0  0  2  0  0  0  0  0  0  0  0  0
   17.2040  -10.3996  -17.3311 N   0  0  0  0  0  0  0  0  0  0  0  0
   18.6232   -9.9130  -15.4473 C   0  0  0  0  0  0  0  0  0  0  0  0
   18.8706   -9.8215  -14.2179 O   0  0  0  0  0  0  0  0  0  0  0  0
   19.6113   -9.5244  -16.3766 N   0  0  0  0  0  0  0  0  0  0  0  0
   20.8759   -8.9399  -15.9197 C   0  0  1  0  0  0  0  0  0  0  0  0
   21.9759   -9.4914  -16.7527 C   0  0  0  0  0  0  0  0  0  0  0  0
   23.3033   -9.0322  -16.3472 C   0  0  0  0  0  0  0  0  0  0  0  0
   24.3902   -9.2645  -16.9153 O   0  0  0  0  0  0  0  0  0  0  0  0
   20.7410   -7.4521  -16.0859 C   0  0  0  0  0  0  0  0  0  0  0  0
   20.1910   -6.9488  -17.0800 O   0  0  0  0  0  0  0  0  0  0  0  0
   23.3715   -8.2384  -15.1868 O   0  0  0  0  0  0  0  0  0  0  0  0
   21.2522   -6.5467  -15.0844 N   0  0  0  0  0  0  0  0  0  0  0  0
   21.0037   -5.0989  -15.1893 C   0  0  1  0  0  0  0  0  0  0  0  0
   19.5461   -4.8216  -15.0258 C   0  0  0  0  0  0  0  0  0  0  0  0
   18.9262   -3.9795  -16.0410 C   0  0  0  0  0  0  0  0  0  0  0  0
   19.6951   -3.5438  -16.9582 O   0  0  0  0  0  0  0  0  0  0  0  0
   21.7572   -4.4520  -14.0925 C   0  0  0  0  0  0  0  0  0  0  0  0
   21.8230   -3.1908  -14.0701 O   0  0  0  0  0  0  0  0  0  0  0  0
   17.6162   -3.6093  -16.1116 O   0  0  0  0  0  0  0  0  0  0  0  0
   22.4002   -5.1379  -13.0803 O   0  0  0  0  0  0  0  0  0  0  0  0
  2  1  1  6
  2  4  1  0
  3  2  1  0
  4  6  1  0
  5  4  2  0
  6  7  1  0
  7  8  1  6
  7 11  1  0
  9  8  1  0
 10  9  2  0
 11 12  2  0
 11 14  1  0
 13  9  1  0
 14 15  1  0
 15 19  1  0
 15 16  1  1
 16 17  1  0
 17 18  2  0
 19 22  1  0
 20 19  2  0
 21 17  1  0
M  END
$$$$
