ADD.pdb
     RDKit          3D

 22 21  0  0  1  0  0  0  0  0999 V2000
   14.3926  -12.7251  -11.3430 C   0  0  0  0  0  0  0  0  0  0  0  0
   13.8665  -11.8316  -10.2305 C   0  0  2  0  0  0  0  0  0  0  0  0
   12.4390  -12.0210  -10.0828 N   0  0  0  0  0  0  0  0  0  0  0  0
   14.1918  -10.4226  -10.4986 C   0  0  0  0  0  0  0  0  0  0  0  0
   13.6332   -9.8286  -11.4558 O   0  0  0  0  0  0  0  0  0  0  0  0
   15.1204   -9.7189   -9.7028 N   0  0  0  0  0  0  0  0  0  0  0  0
   15.3905   -8.2994   -9.9511 C   0  0  1  0  0  0  0  0  0  0  0  0
   15.6982   -7.6460   -8.6525 C   0  0  0  0  0  0  0  0  0  0  0  0
   16.0380   -6.2295   -8.7765 C   0  0  0  0  0  0  0  0  0  0  0  0
   15.6424   -5.4305   -9.6501 O   0  0  0  0  0  0  0  0  0  0  0  0
   16.5602   -8.2479  -10.8937 C   0  0  0  0  0  0  0  0  0  0  0  0
   17.4296   -9.1355  -10.9116 O   0  0  0  0  0  0  0  0  0  0  0  0
   16.9086   -5.7000   -7.8055 O   0  0  0  0  0  0  0  0  0  0  0  0
   16.7151   -7.1523  -11.8210 N   0  0  0  0  0  0  0  0  0  0  0  0
   17.7193   -7.2197  -12.8961 C   0  0  1  0  0  0  0  0  0  0  0  0
   17.4584   -8.4091  -13.7596 C   0  0  0  0  0  0  0  0  0  0  0  0
   18.2983   -8.5514  -14.9420 C   0  0  0  0  0  0  0  0  0  0  0  0
   18.4925   -7.4945  -15.6259 O   0  0  0  0  0  0  0  0  0  0  0  0
   17.5754   -5.9844  -13.6978 C   0  0  0  0  0  0  0  0  0  0  0  0
   16.4115   -5.5742  -13.9670 O   0  0  0  0  0  0  0  0  0  0  0  0
   18.8944   -9.6915  -15.3925 O   0  0  0  0  0  0  0  0  0  0  0  0
   18.6360   -5.2402  -14.1772 O   0  0  0  0  0  0  0  0  0  0  0  0
  2  1  1  6
  2  4  1  0
  3  2  1  0
  4  6  1  0
  5  4  2  0
  6  7  1  0
  7  8  1  1
  7 11  1  0
  9  8  1  0
 10  9  2  0
 11 12  2  0
 11 14  1  0
 13  9  1  0
 14 15  1  0
 15 19  1  0
 15 16  1  6
 16 17  1  0
 17 18  2  0
 19 22  1  0
 20 19  2  0
 21 17  1  0
M  END
$$$$
