ADD.pdb
     RDKit          3D

 22 21  0  0  1  0  0  0  0  0999 V2000
   18.4478  -13.3686  -16.7075 C   0  0  0  0  0  0  0  0  0  0  0  0
   18.4450  -12.3225  -15.6036 C   0  0  2  0  0  0  0  0  0  0  0  0
   17.3626  -12.5873  -14.6797 N   0  0  0  0  0  0  0  0  0  0  0  0
   18.3420  -10.9695  -16.1709 C   0  0  0  0  0  0  0  0  0  0  0  0
   19.2409  -10.5511  -16.9441 O   0  0  0  0  0  0  0  0  0  0  0  0
   17.2524  -10.1263  -15.8659 N   0  0  0  0  0  0  0  0  0  0  0  0
   17.2130   -8.7486  -16.3660 C   0  0  1  0  0  0  0  0  0  0  0  0
   15.7920   -8.3262  -16.4661 C   0  0  0  0  0  0  0  0  0  0  0  0
   15.6237   -6.9276  -16.8574 C   0  0  0  0  0  0  0  0  0  0  0  0
   14.8937   -6.0730  -16.3145 O   0  0  0  0  0  0  0  0  0  0  0  0
   17.9754   -7.9147  -15.3747 C   0  0  0  0  0  0  0  0  0  0  0  0
   17.9486   -8.1542  -14.1557 O   0  0  0  0  0  0  0  0  0  0  0  0
   16.3648   -6.4881  -17.9704 O   0  0  0  0  0  0  0  0  0  0  0  0
   18.7739   -6.7937  -15.8104 N   0  0  0  0  0  0  0  0  0  0  0  0
   19.5853   -6.0339  -14.8444 C   0  0  1  0  0  0  0  0  0  0  0  0
   20.9282   -6.6695  -14.6997 C   0  0  0  0  0  0  0  0  0  0  0  0
   21.8699   -6.0047  -13.8080 C   0  0  0  0  0  0  0  0  0  0  0  0
   22.9503   -6.6321  -13.5601 O   0  0  0  0  0  0  0  0  0  0  0  0
   19.7400   -4.6681  -15.3920 C   0  0  0  0  0  0  0  0  0  0  0  0
   20.3226   -3.7988  -14.6846 O   0  0  0  0  0  0  0  0  0  0  0  0
   21.7167   -4.7882  -13.2124 O   0  0  0  0  0  0  0  0  0  0  0  0
   19.2875   -4.2729  -16.6360 O   0  0  0  0  0  0  0  0  0  0  0  0
  2  1  1  6
  2  4  1  0
  3  2  1  0
  4  6  1  0
  5  4  2  0
  6  7  1  0
  7  8  1  1
  7 11  1  0
  9  8  1  0
 10  9  2  0
 11 12  2  0
 11 14  1  0
 13  9  1  0
 14 15  1  0
 15 19  1  0
 15 16  1  6
 16 17  1  0
 17 18  2  0
 19 22  1  0
 20 19  2  0
 21 17  1  0
M  END
$$$$
