ADD.pdb
     RDKit          3D

 22 21  0  0  1  0  0  0  0  0999 V2000
   13.4353   -9.6543  -14.7037 C   0  0  0  0  0  0  0  0  0  0  0  0
   14.9485   -9.6807  -14.5534 C   0  0  2  0  0  0  0  0  0  0  0  0
   15.3552  -10.9071  -13.9008 N   0  0  0  0  0  0  0  0  0  0  0  0
   15.4170   -8.5013  -13.8102 C   0  0  0  0  0  0  0  0  0  0  0  0
   15.1933   -7.3514  -14.2669 O   0  0  0  0  0  0  0  0  0  0  0  0
   16.1150   -8.6313  -12.5908 N   0  0  0  0  0  0  0  0  0  0  0  0
   16.6721   -7.4519  -11.9212 C   0  0  1  0  0  0  0  0  0  0  0  0
   16.2769   -7.4945  -10.4895 C   0  0  0  0  0  0  0  0  0  0  0  0
   16.8678   -6.4245   -9.6875 C   0  0  0  0  0  0  0  0  0  0  0  0
   17.6543   -5.5357  -10.0742 O   0  0  0  0  0  0  0  0  0  0  0  0
   18.1635   -7.5312  -12.0919 C   0  0  0  0  0  0  0  0  0  0  0  0
   18.7974   -8.5741  -11.8584 O   0  0  0  0  0  0  0  0  0  0  0  0
   16.5152   -6.3857   -8.3254 O   0  0  0  0  0  0  0  0  0  0  0  0
   18.9188   -6.3847  -12.5379 N   0  0  0  0  0  0  0  0  0  0  0  0
   20.3370   -6.5230  -12.9101 C   0  0  1  0  0  0  0  0  0  0  0  0
   20.4758   -7.5117  -14.0198 C   0  0  0  0  0  0  0  0  0  0  0  0
   21.8224   -7.7289  -14.5329 C   0  0  0  0  0  0  0  0  0  0  0  0
   22.7773   -7.5185  -13.7167 O   0  0  0  0  0  0  0  0  0  0  0  0
   20.7928   -5.1931  -13.3716 C   0  0  0  0  0  0  0  0  0  0  0  0
   22.0337   -4.9589  -13.3997 O   0  0  0  0  0  0  0  0  0  0  0  0
   22.1667   -8.1304  -15.7892 O   0  0  0  0  0  0  0  0  0  0  0  0
   19.9474   -4.1790  -13.7785 O   0  0  0  0  0  0  0  0  0  0  0  0
  2  1  1  1
  2  4  1  0
  3  2  1  0
  4  6  1  0
  5  4  2  0
  6  7  1  0
  7  8  1  1
  7 11  1  0
  9  8  1  0
 10  9  2  0
 11 12  2  0
 11 14  1  0
 13  9  1  0
 14 15  1  0
 15 19  1  0
 15 16  1  6
 16 17  1  0
 17 18  2  0
 19 22  1  0
 20 19  2  0
 21 17  1  0
M  END
$$$$
