EYK.pdb
     RDKit          3D

 31 31  0  0  1  0  0  0  0  0999 V2000
   10.2547  -16.6259   18.7475 N   0  0  0  0  0  0  0  0  0  0  0  0
    9.3541  -17.1350   19.7616 C   0  0  1  0  0  0  0  0  0  0  0  0
    9.5458  -18.6158   19.9857 C   0  0  0  0  0  0  0  0  0  0  0  0
    8.6373  -19.4341   19.0985 C   0  0  0  0  0  0  0  0  0  0  0  0
    8.8099  -20.8782   19.4053 C   0  0  0  0  0  0  0  0  0  0  0  0
    9.6417  -21.2586   20.2751 O   0  0  0  0  0  0  0  0  0  0  0  0
    9.5051  -16.3939   21.0574 C   0  0  0  0  0  0  0  0  0  0  0  0
   10.6389  -16.2835   21.5663 O   0  0  0  0  0  0  0  0  0  0  0  0
    8.0678  -21.8509   18.7507 O   0  0  0  0  0  0  0  0  0  0  0  0
    6.9423  -11.8459   28.2437 O   0  0  0  0  0  0  0  0  0  0  0  0
    7.0568  -12.3930   26.9745 C   0  0  0  0  0  0  0  0  0  0  0  0
    7.9259  -11.9051   26.0209 C   0  0  0  0  0  0  0  0  0  0  0  0
    8.0353  -12.4508   24.7650 C   0  0  0  0  0  0  0  0  0  0  0  0
    7.2417  -13.5299   24.4503 C   0  0  0  0  0  0  0  0  0  0  0  0
    7.2658  -14.2050   23.1330 C   0  0  0  0  0  0  0  0  0  0  0  0
    8.4165  -15.1176   22.9479 C   0  0  2  0  0  0  0  0  0  0  0  0
    8.3820  -15.8285   21.6938 N   0  0  0  0  0  0  0  0  0  0  0  0
    8.6865  -16.0282   24.0944 C   0  0  0  0  0  0  0  0  0  0  0  0
    7.9484  -16.9956   24.3835 O   0  0  0  0  0  0  0  0  0  0  0  0
    6.3488  -14.0520   25.3907 C   0  0  0  0  0  0  0  0  0  0  0  0
    6.2577  -13.4863   26.6451 C   0  0  0  0  0  0  0  0  0  0  0  0
    9.8374  -15.8292   24.9393 N   0  0  0  0  0  0  0  0  0  0  0  0
   10.1353  -16.7111   26.0580 C   0  0  1  0  0  0  0  0  0  0  0  0
   11.3932  -17.4757   25.7080 C   0  0  0  0  0  0  0  0  0  0  0  0
   11.7327  -18.4353   26.8201 C   0  0  0  0  0  0  0  0  0  0  0  0
   12.9541  -19.2663   26.4907 C   0  0  0  0  0  0  0  0  0  0  0  0
   13.3049  -20.2202   27.5956 C   0  0  0  0  0  0  0  0  0  0  0  0
   14.5079  -20.9627   27.3081 N   0  0  0  0  0  0  0  0  0  0  0  0
   10.2100  -16.0070   27.3402 C   0  0  0  0  0  0  0  0  0  0  0  0
   10.2865  -16.6997   28.3864 O   0  0  0  0  0  0  0  0  0  0  0  0
   10.2040  -14.6287   27.5025 O   0  0  0  0  0  0  0  0  0  0  0  0
  2  1  1  6
  2  3  1  0
  3  4  1  0
  4  5  1  0
  5  6  2  0
  5  9  1  0
  7  2  1  0
  8  7  2  0
 10 11  1  0
 11 12  2  0
 11 21  1  0
 12 13  1  0
 13 14  2  0
 14 15  1  0
 16 15  1  1
 16 17  1  0
 17  7  1  0
 18 22  1  0
 18 16  1  0
 19 18  2  0
 20 14  1  0
 21 20  2  0
 23 29  1  0
 23 24  1  6
 23 22  1  0
 25 24  1  0
 26 25  1  0
 27 26  1  0
 27 28  1  0
 29 31  1  0
 30 29  2  0
M  END
$$$$
