EYK.pdb
     RDKit          3D

 31 31  0  0  1  0  0  0  0  0999 V2000
    8.8101  -17.2845   19.4453 N   0  0  0  0  0  0  0  0  0  0  0  0
    9.4598  -17.9161   20.5757 C   0  0  1  0  0  0  0  0  0  0  0  0
   10.8263  -18.4445   20.2103 C   0  0  0  0  0  0  0  0  0  0  0  0
   11.2948  -17.9011   18.8810 C   0  0  0  0  0  0  0  0  0  0  0  0
   12.6430  -18.4434   18.5683 C   0  0  0  0  0  0  0  0  0  0  0  0
   13.6768  -17.7384   18.7342 O   0  0  0  0  0  0  0  0  0  0  0  0
    9.5640  -16.9828   21.7458 C   0  0  0  0  0  0  0  0  0  0  0  0
   10.6577  -16.8655   22.3346 O   0  0  0  0  0  0  0  0  0  0  0  0
   12.8103  -19.7340   18.0870 O   0  0  0  0  0  0  0  0  0  0  0  0
    6.8454  -11.3216   28.0104 O   0  0  0  0  0  0  0  0  0  0  0  0
    6.9793  -12.0614   26.8451 C   0  0  0  0  0  0  0  0  0  0  0  0
    7.8017  -11.6829   25.8045 C   0  0  0  0  0  0  0  0  0  0  0  0
    7.9308  -12.4195   24.6521 C   0  0  0  0  0  0  0  0  0  0  0  0
    7.2063  -13.5836   24.5364 C   0  0  0  0  0  0  0  0  0  0  0  0
    7.2580  -14.4630   23.3467 C   0  0  0  0  0  0  0  0  0  0  0  0
    8.4163  -15.3846   23.3322 C   0  0  2  0  0  0  0  0  0  0  0  0
    8.4421  -16.2466   22.1764 N   0  0  0  0  0  0  0  0  0  0  0  0
    8.6309  -16.1435   24.5950 C   0  0  0  0  0  0  0  0  0  0  0  0
    7.8226  -16.9973   25.0215 O   0  0  0  0  0  0  0  0  0  0  0  0
    6.3622  -13.9995   25.5703 C   0  0  0  0  0  0  0  0  0  0  0  0
    6.2501  -13.2422   26.7175 C   0  0  0  0  0  0  0  0  0  0  0  0
    9.8071  -15.9215   25.3982 N   0  0  0  0  0  0  0  0  0  0  0  0
   10.0734  -16.6890   26.6055 C   0  0  1  0  0  0  0  0  0  0  0  0
   11.1827  -17.6664   26.2842 C   0  0  0  0  0  0  0  0  0  0  0  0
   10.6552  -19.0771   26.3532 C   0  0  0  0  0  0  0  0  0  0  0  0
   11.6957  -20.0870   25.9191 C   0  0  0  0  0  0  0  0  0  0  0  0
   11.1579  -21.4885   25.9161 C   0  0  0  0  0  0  0  0  0  0  0  0
   12.0709  -22.4173   25.2956 N   0  0  0  0  0  0  0  0  0  0  0  0
   10.3480  -15.8472   27.7723 C   0  0  0  0  0  0  0  0  0  0  0  0
   10.7244  -14.6655   27.5678 O   0  0  0  0  0  0  0  0  0  0  0  0
   10.2273  -16.2442   29.0967 O   0  0  0  0  0  0  0  0  0  0  0  0
  2  1  1  6
  2  3  1  0
  3  4  1  0
  4  5  1  0
  5  6  2  0
  5  9  1  0
  7  2  1  0
  8  7  2  0
 10 11  1  0
 11 12  2  0
 11 21  1  0
 12 13  1  0
 13 14  2  0
 14 15  1  0
 16 15  1  1
 16 17  1  0
 17  7  1  0
 18 22  1  0
 18 16  1  0
 19 18  2  0
 20 14  1  0
 21 20  2  0
 23 29  1  0
 23 24  1  6
 23 22  1  0
 25 24  1  0
 26 25  1  0
 27 26  1  0
 27 28  1  0
 29 31  1  0
 30 29  2  0
M  END
$$$$
