EYK.pdb
     RDKit          3D

 31 31  0  0  1  0  0  0  0  0999 V2000
    9.9549  -16.7724   18.5410 N   0  0  0  0  0  0  0  0  0  0  0  0
    9.1484  -17.2516   19.6449 C   0  0  1  0  0  0  0  0  0  0  0  0
    9.4744  -18.6841   19.9935 C   0  0  0  0  0  0  0  0  0  0  0  0
    9.4335  -19.5756   18.7746 C   0  0  0  0  0  0  0  0  0  0  0  0
    8.8127  -20.8784   19.1307 C   0  0  0  0  0  0  0  0  0  0  0  0
    9.2780  -21.5796   20.0715 O   0  0  0  0  0  0  0  0  0  0  0  0
    9.2964  -16.3798   20.8569 C   0  0  0  0  0  0  0  0  0  0  0  0
   10.4393  -16.0480   21.2316 O   0  0  0  0  0  0  0  0  0  0  0  0
    7.7081  -21.3649   18.4462 O   0  0  0  0  0  0  0  0  0  0  0  0
    7.0112  -11.8270   28.0789 O   0  0  0  0  0  0  0  0  0  0  0  0
    6.9677  -12.5339   26.8867 C   0  0  0  0  0  0  0  0  0  0  0  0
    6.4357  -13.8023   26.7835 C   0  0  0  0  0  0  0  0  0  0  0  0
    6.3951  -14.4983   25.5998 C   0  0  0  0  0  0  0  0  0  0  0  0
    6.9086  -13.8997   24.4722 C   0  0  0  0  0  0  0  0  0  0  0  0
    6.9242  -14.5450   23.1400 C   0  0  0  0  0  0  0  0  0  0  0  0
    8.1952  -15.2340   22.8223 C   0  0  2  0  0  0  0  0  0  0  0  0
    8.1603  -15.9397   21.5652 N   0  0  0  0  0  0  0  0  0  0  0  0
    8.7417  -16.0805   23.9185 C   0  0  0  0  0  0  0  0  0  0  0  0
    8.2015  -17.1457   24.2894 O   0  0  0  0  0  0  0  0  0  0  0  0
    7.4561  -12.6151   24.5378 C   0  0  0  0  0  0  0  0  0  0  0  0
    7.4850  -11.9370   25.7384 C   0  0  0  0  0  0  0  0  0  0  0  0
    9.9450  -15.6994   24.6148 N   0  0  0  0  0  0  0  0  0  0  0  0
   10.5387  -16.5378   25.6455 C   0  0  1  0  0  0  0  0  0  0  0  0
   12.0096  -16.6802   25.3204 C   0  0  0  0  0  0  0  0  0  0  0  0
   12.1901  -17.6700   24.1976 C   0  0  0  0  0  0  0  0  0  0  0  0
   13.6505  -17.8645   23.8505 C   0  0  0  0  0  0  0  0  0  0  0  0
   13.8348  -18.7505   22.6528 C   0  0  0  0  0  0  0  0  0  0  0  0
   15.2282  -18.9528   22.3385 N   0  0  0  0  0  0  0  0  0  0  0  0
   10.2784  -16.0510   27.0022 C   0  0  0  0  0  0  0  0  0  0  0  0
   10.7090  -16.7361   27.9641 O   0  0  0  0  0  0  0  0  0  0  0  0
    9.5916  -14.8880   27.3214 O   0  0  0  0  0  0  0  0  0  0  0  0
  2  1  1  6
  2  3  1  0
  3  4  1  0
  4  5  1  0
  5  6  2  0
  5  9  1  0
  7  2  1  0
  8  7  2  0
 10 11  1  0
 11 12  2  0
 11 21  1  0
 12 13  1  0
 13 14  2  0
 14 15  1  0
 16 15  1  1
 16 17  1  0
 17  7  1  0
 18 22  1  0
 18 16  1  0
 19 18  2  0
 20 14  1  0
 21 20  2  0
 23 29  1  0
 23 24  1  6
 23 22  1  0
 25 24  1  0
 26 25  1  0
 27 26  1  0
 27 28  1  0
 29 31  1  0
 30 29  2  0
M  END
$$$$
