EYK.pdb
     RDKit          3D

 31 31  0  0  1  0  0  0  0  0999 V2000
   13.1051  -14.2181   17.8190 N   0  0  0  0  0  0  0  0  0  0  0  0
   12.7708  -15.5335   18.3254 C   0  0  1  0  0  0  0  0  0  0  0  0
   13.9130  -16.5055   18.1513 C   0  0  0  0  0  0  0  0  0  0  0  0
   15.0139  -15.9217   17.2974 C   0  0  0  0  0  0  0  0  0  0  0  0
   16.0840  -16.9349   17.1029 C   0  0  0  0  0  0  0  0  0  0  0  0
   17.2981  -16.5921   17.0622 O   0  0  0  0  0  0  0  0  0  0  0  0
   12.3531  -15.4818   19.7655 C   0  0  0  0  0  0  0  0  0  0  0  0
   13.1094  -14.9434   20.5991 O   0  0  0  0  0  0  0  0  0  0  0  0
   15.7872  -18.2829   16.9604 O   0  0  0  0  0  0  0  0  0  0  0  0
    7.5667  -11.4462   18.1398 O   0  0  0  0  0  0  0  0  0  0  0  0
    7.9670  -12.4476   19.0117 C   0  0  0  0  0  0  0  0  0  0  0  0
    8.4894  -12.1913   20.2623 C   0  0  0  0  0  0  0  0  0  0  0  0
    8.8845  -13.1871   21.1222 C   0  0  0  0  0  0  0  0  0  0  0  0
    8.7512  -14.4942   20.7132 C   0  0  0  0  0  0  0  0  0  0  0  0
    9.1407  -15.6544   21.5461 C   0  0  0  0  0  0  0  0  0  0  0  0
   10.5891  -15.9577   21.5119 C   0  0  2  0  0  0  0  0  0  0  0  0
   11.1224  -16.0334   20.1742 N   0  0  0  0  0  0  0  0  0  0  0  0
   11.0069  -17.1208   22.3422 C   0  0  0  0  0  0  0  0  0  0  0  0
   10.8010  -18.3072   22.0041 O   0  0  0  0  0  0  0  0  0  0  0  0
    8.2258  -14.7929   19.4526 C   0  0  0  0  0  0  0  0  0  0  0  0
    7.8363  -13.7750   18.6076 C   0  0  0  0  0  0  0  0  0  0  0  0
   11.6826  -16.9242   23.6003 N   0  0  0  0  0  0  0  0  0  0  0  0
   12.0991  -18.0408   24.4354 C   0  0  1  0  0  0  0  0  0  0  0  0
   13.5927  -18.2052   24.2581 C   0  0  0  0  0  0  0  0  0  0  0  0
   14.0712  -19.3993   25.0443 C   0  0  0  0  0  0  0  0  0  0  0  0
   15.5630  -19.6077   24.8958 C   0  0  0  0  0  0  0  0  0  0  0  0
   16.0543  -20.7766   25.6994 C   0  0  0  0  0  0  0  0  0  0  0  0
   17.4745  -20.9796   25.5470 N   0  0  0  0  0  0  0  0  0  0  0  0
   11.6825  -17.8998   25.8326 C   0  0  0  0  0  0  0  0  0  0  0  0
   10.7601  -18.6458   26.2480 O   0  0  0  0  0  0  0  0  0  0  0  0
   12.2228  -17.0059   26.7465 O   0  0  0  0  0  0  0  0  0  0  0  0
  2  1  1  1
  2  3  1  0
  3  4  1  0
  4  5  1  0
  5  6  2  0
  5  9  1  0
  7  2  1  0
  8  7  2  0
 10 11  1  0
 11 12  2  0
 11 21  1  0
 12 13  1  0
 13 14  2  0
 14 15  1  0
 16 15  1  6
 16 17  1  0
 17  7  1  0
 18 22  1  0
 18 16  1  0
 19 18  2  0
 20 14  1  0
 21 20  2  0
 23 29  1  0
 23 24  1  1
 23 22  1  0
 25 24  1  0
 26 25  1  0
 27 26  1  0
 27 28  1  0
 29 31  1  0
 30 29  2  0
M  END
$$$$
