EYK.pdb
     RDKit          3D

 31 31  0  0  1  0  0  0  0  0999 V2000
   14.4374  -22.5145   26.0642 N   0  0  0  0  0  0  0  0  0  0  0  0
   15.5075  -21.5397   26.1209 C   0  0  1  0  0  0  0  0  0  0  0  0
   15.5984  -20.7360   24.8459 C   0  0  0  0  0  0  0  0  0  0  0  0
   14.4395  -21.0272   23.9218 C   0  0  0  0  0  0  0  0  0  0  0  0
   14.5829  -20.2292   22.6760 C   0  0  0  0  0  0  0  0  0  0  0  0
   14.1412  -19.0485   22.6111 O   0  0  0  0  0  0  0  0  0  0  0  0
   15.3579  -20.6225   27.2987 C   0  0  0  0  0  0  0  0  0  0  0  0
   16.2160  -19.7380   27.4936 O   0  0  0  0  0  0  0  0  0  0  0  0
   15.2029  -20.7508   21.5496 O   0  0  0  0  0  0  0  0  0  0  0  0
   12.0888  -16.9155   34.5939 O   0  0  0  0  0  0  0  0  0  0  0  0
   12.2311  -17.6092   33.4015 C   0  0  0  0  0  0  0  0  0  0  0  0
   11.9240  -18.9473   33.2687 C   0  0  0  0  0  0  0  0  0  0  0  0
   12.0668  -19.6297   32.0851 C   0  0  0  0  0  0  0  0  0  0  0  0
   12.5368  -18.9442   30.9885 C   0  0  0  0  0  0  0  0  0  0  0  0
   12.7349  -19.5660   29.6597 C   0  0  0  0  0  0  0  0  0  0  0  0
   14.1145  -20.0475   29.4228 C   0  0  2  0  0  0  0  0  0  0  0  0
   14.2627  -20.7560   28.1756 N   0  0  0  0  0  0  0  0  0  0  0  0
   14.7237  -20.7918   30.5593 C   0  0  0  0  0  0  0  0  0  0  0  0
   15.1695  -21.9552   30.4499 O   0  0  0  0  0  0  0  0  0  0  0  0
   12.8586  -17.5872   31.0847 C   0  0  0  0  0  0  0  0  0  0  0  0
   12.7063  -16.9245   32.2845 C   0  0  0  0  0  0  0  0  0  0  0  0
   14.8286  -20.1886   31.8643 N   0  0  0  0  0  0  0  0  0  0  0  0
   15.4825  -20.8629   32.9759 C   0  0  1  0  0  0  0  0  0  0  0  0
   14.8884  -22.2509   33.0750 C   0  0  0  0  0  0  0  0  0  0  0  0
   15.5125  -22.9914   34.2304 C   0  0  0  0  0  0  0  0  0  0  0  0
   14.9512  -24.3902   34.3691 C   0  0  0  0  0  0  0  0  0  0  0  0
   15.5772  -25.1412   35.5083 C   0  0  0  0  0  0  0  0  0  0  0  0
   14.8770  -26.3692   35.7968 N   0  0  0  0  0  0  0  0  0  0  0  0
   16.9437  -20.8521   32.8748 C   0  0  0  0  0  0  0  0  0  0  0  0
   17.6012  -21.3517   33.8225 O   0  0  0  0  0  0  0  0  0  0  0  0
   17.6726  -20.3338   31.8135 O   0  0  0  0  0  0  0  0  0  0  0  0
  2  1  1  6
  2  3  1  0
  3  4  1  0
  4  5  1  0
  5  6  2  0
  5  9  1  0
  7  2  1  0
  8  7  2  0
 10 11  1  0
 11 12  2  0
 11 21  1  0
 12 13  1  0
 13 14  2  0
 14 15  1  0
 16 15  1  1
 16 17  1  0
 17  7  1  0
 18 22  1  0
 18 16  1  0
 19 18  2  0
 20 14  1  0
 21 20  2  0
 23 29  1  0
 23 24  1  6
 23 22  1  0
 25 24  1  0
 26 25  1  0
 27 26  1  0
 27 28  1  0
 29 31  1  0
 30 29  2  0
M  END
$$$$
