EYK.pdb
     RDKit          3D

 31 31  0  0  1  0  0  0  0  0999 V2000
    9.5657  -18.3811   20.4054 N   0  0  0  0  0  0  0  0  0  0  0  0
   10.8110  -17.6606   20.5746 C   0  0  1  0  0  0  0  0  0  0  0  0
   11.2930  -17.0658   19.2732 C   0  0  0  0  0  0  0  0  0  0  0  0
   11.4456  -18.1209   18.2030 C   0  0  0  0  0  0  0  0  0  0  0  0
   11.9273  -17.4899   16.9463 C   0  0  0  0  0  0  0  0  0  0  0  0
   12.1081  -18.1804   15.9052 O   0  0  0  0  0  0  0  0  0  0  0  0
   10.6923  -16.5892   21.6183 C   0  0  0  0  0  0  0  0  0  0  0  0
   11.6914  -15.8938   21.8923 O   0  0  0  0  0  0  0  0  0  0  0  0
   12.1926  -16.1299   16.8747 O   0  0  0  0  0  0  0  0  0  0  0  0
    7.2972  -12.9294   17.7074 O   0  0  0  0  0  0  0  0  0  0  0  0
    7.4359  -13.3748   19.0134 C   0  0  0  0  0  0  0  0  0  0  0  0
    6.7714  -14.4785   19.5061 C   0  0  0  0  0  0  0  0  0  0  0  0
    6.9124  -14.9156   20.8008 C   0  0  0  0  0  0  0  0  0  0  0  0
    7.7537  -14.2186   21.6374 C   0  0  0  0  0  0  0  0  0  0  0  0
    7.9893  -14.5879   23.0515 C   0  0  0  0  0  0  0  0  0  0  0  0
    9.2414  -15.3458   23.2726 C   0  0  2  0  0  0  0  0  0  0  0  0
    9.4690  -16.3689   22.2822 N   0  0  0  0  0  0  0  0  0  0  0  0
    9.4265  -15.8627   24.6566 C   0  0  0  0  0  0  0  0  0  0  0  0
    9.1656  -15.1867   25.6759 O   0  0  0  0  0  0  0  0  0  0  0  0
    8.4441  -13.0949   21.1738 C   0  0  0  0  0  0  0  0  0  0  0  0
    8.2855  -12.6764   19.8693 C   0  0  0  0  0  0  0  0  0  0  0  0
    9.9256  -17.1955   24.8856 N   0  0  0  0  0  0  0  0  0  0  0  0
   10.1002  -17.7345   26.2260 C   0  0  1  0  0  0  0  0  0  0  0  0
   10.0726  -19.2432   26.1135 C   0  0  0  0  0  0  0  0  0  0  0  0
   10.3445  -19.8601   27.4619 C   0  0  0  0  0  0  0  0  0  0  0  0
   10.4720  -21.3658   27.3746 C   0  0  0  0  0  0  0  0  0  0  0  0
   10.7163  -21.9923   28.7168 C   0  0  0  0  0  0  0  0  0  0  0  0
   10.7404  -23.4330   28.6454 N   0  0  0  0  0  0  0  0  0  0  0  0
   11.2902  -17.2148   26.9036 C   0  0  0  0  0  0  0  0  0  0  0  0
   12.3108  -16.9883   26.2058 O   0  0  0  0  0  0  0  0  0  0  0  0
   11.3899  -16.9476   28.2619 O   0  0  0  0  0  0  0  0  0  0  0  0
  2  1  1  6
  2  3  1  0
  3  4  1  0
  4  5  1  0
  5  6  2  0
  5  9  1  0
  7  2  1  0
  8  7  2  0
 10 11  1  0
 11 12  2  0
 11 21  1  0
 12 13  1  0
 13 14  2  0
 14 15  1  0
 16 15  1  1
 16 17  1  0
 17  7  1  0
 18 22  1  0
 18 16  1  0
 19 18  2  0
 20 14  1  0
 21 20  2  0
 23 29  1  0
 23 24  1  6
 23 22  1  0
 25 24  1  0
 26 25  1  0
 27 26  1  0
 27 28  1  0
 29 31  1  0
 30 29  2  0
M  END
$$$$
