EYK.pdb
     RDKit          3D

 31 31  0  0  1  0  0  0  0  0999 V2000
    9.5177  -18.0612   20.8696 N   0  0  0  0  0  0  0  0  0  0  0  0
   10.7253  -17.6985   21.5829 C   0  0  1  0  0  0  0  0  0  0  0  0
   11.7907  -17.1781   20.6481 C   0  0  0  0  0  0  0  0  0  0  0  0
   11.6808  -17.8034   19.2775 C   0  0  0  0  0  0  0  0  0  0  0  0
   12.7615  -17.2785   18.4022 C   0  0  0  0  0  0  0  0  0  0  0  0
   12.4950  -16.7925   17.2682 O   0  0  0  0  0  0  0  0  0  0  0  0
   10.4493  -16.6922   22.6611 C   0  0  0  0  0  0  0  0  0  0  0  0
   11.3810  -16.3296   23.4074 O   0  0  0  0  0  0  0  0  0  0  0  0
   14.0909  -17.3044   18.7989 O   0  0  0  0  0  0  0  0  0  0  0  0
    6.1026  -10.8102   27.6006 O   0  0  0  0  0  0  0  0  0  0  0  0
    6.4403  -11.7259   26.6153 C   0  0  0  0  0  0  0  0  0  0  0  0
    5.8313  -12.9573   26.4926 C   0  0  0  0  0  0  0  0  0  0  0  0
    6.1696  -13.8608   25.5147 C   0  0  0  0  0  0  0  0  0  0  0  0
    7.1591  -13.5174   24.6223 C   0  0  0  0  0  0  0  0  0  0  0  0
    7.6137  -14.4026   23.5263 C   0  0  0  0  0  0  0  0  0  0  0  0
    8.7658  -15.2594   23.8863 C   0  0  2  0  0  0  0  0  0  0  0  0
    9.1548  -16.1617   22.8308 N   0  0  0  0  0  0  0  0  0  0  0  0
    8.6445  -15.9572   25.1959 C   0  0  0  0  0  0  0  0  0  0  0  0
    8.4841  -15.3507   26.2778 O   0  0  0  0  0  0  0  0  0  0  0  0
    7.7992  -12.2780   24.7152 C   0  0  0  0  0  0  0  0  0  0  0  0
    7.4412  -11.3882   25.7061 C   0  0  0  0  0  0  0  0  0  0  0  0
    8.7078  -17.3952   25.2741 N   0  0  0  0  0  0  0  0  0  0  0  0
    8.5627  -18.1067   26.5352 C   0  0  1  0  0  0  0  0  0  0  0  0
    7.8434  -19.4050   26.2414 C   0  0  0  0  0  0  0  0  0  0  0  0
    7.6327  -20.1723   27.5220 C   0  0  0  0  0  0  0  0  0  0  0  0
    6.9320  -21.4913   27.2769 C   0  0  0  0  0  0  0  0  0  0  0  0
    6.6450  -22.2261   28.5541 C   0  0  0  0  0  0  0  0  0  0  0  0
    5.8139  -23.3851   28.3369 N   0  0  0  0  0  0  0  0  0  0  0  0
    9.8320  -18.2824   27.2448 C   0  0  0  0  0  0  0  0  0  0  0  0
    9.8174  -18.2118   28.4997 O   0  0  0  0  0  0  0  0  0  0  0  0
   11.0611  -18.5229   26.6468 O   0  0  0  0  0  0  0  0  0  0  0  0
  2  1  1  6
  2  3  1  0
  3  4  1  0
  4  5  1  0
  5  6  2  0
  5  9  1  0
  7  2  1  0
  8  7  2  0
 10 11  1  0
 11 12  2  0
 11 21  1  0
 12 13  1  0
 13 14  2  0
 14 15  1  0
 16 15  1  6
 16 17  1  0
 17  7  1  0
 18 22  1  0
 18 16  1  0
 19 18  2  0
 20 14  1  0
 21 20  2  0
 23 29  1  0
 23 24  1  6
 23 22  1  0
 25 24  1  0
 26 25  1  0
 27 26  1  0
 27 28  1  0
 29 31  1  0
 30 29  2  0
M  END
$$$$
