VPV.pdb
     RDKit          3D

 22 22  0  0  1  0  0  0  0  0999 V2000
    6.1647  -15.7724   20.8634 C   0  0  0  0  0  0  0  0  0  0  0  0
    7.0205  -15.6975   22.1073 C   0  0  2  0  0  0  0  0  0  0  0  0
    6.1538  -16.1294   23.2704 C   0  0  0  0  0  0  0  0  0  0  0  0
    7.5449  -14.2874   22.3127 C   0  0  2  0  0  0  0  0  0  0  0  0
    8.1872  -13.7761   21.1344 N   0  0  0  0  0  0  0  0  0  0  0  0
    8.3035  -14.1522   23.5587 C   0  0  0  0  0  0  0  0  0  0  0  0
    9.5610  -14.3894   23.4834 O   0  0  0  0  0  0  0  0  0  0  0  0
    7.7943  -13.7889   24.8305 N   0  0  0  0  0  0  0  0  0  0  0  0
    6.4541  -13.5036   25.2874 C   0  0  0  0  0  0  0  0  0  0  0  0
    6.6806  -12.2179   26.0995 C   0  0  0  0  0  0  0  0  0  0  0  0
    7.9736  -12.4769   26.8014 C   0  0  0  0  0  0  0  0  0  0  0  0
    8.5930  -13.6096   26.0618 C   0  0  1  0  0  0  0  0  0  0  0  0
    8.7153  -14.8599   26.8083 C   0  0  0  0  0  0  0  0  0  0  0  0
    7.6670  -15.5160   27.0361 O   0  0  0  0  0  0  0  0  0  0  0  0
   11.6283  -18.7772   27.1188 C   0  0  0  0  0  0  0  0  0  0  0  0
   11.3413  -17.3382   26.7724 C   0  0  2  0  0  0  0  0  0  0  0  0
   12.5896  -16.5228   27.0339 C   0  0  0  0  0  0  0  0  0  0  0  0
   10.1861  -16.7731   27.5594 C   0  0  2  0  0  0  0  0  0  0  0  0
    9.9359  -15.3946   27.2995 N   0  0  0  0  0  0  0  0  0  0  0  0
   10.3902  -17.0840   28.9849 C   0  0  0  0  0  0  0  0  0  0  0  0
   10.5367  -16.1140   29.9614 O   0  0  0  0  0  0  0  0  0  0  0  0
   10.4358  -18.2855   29.3474 O   0  0  0  0  0  0  0  0  0  0  0  0
  2  1  1  6
  2  4  1  0
  2  3  1  0
  4  6  1  0
  4  5  1  6
  6  8  1  0
  6  7  2  0
  8 12  1  0
  9 10  1  0
  9  8  1  0
 10 11  1  0
 11 12  1  0
 12 13  1  1
 13 14  2  0
 16 18  1  0
 16 15  1  1
 17 16  1  0
 18 20  1  0
 19 13  1  0
 18 19  1  1
 20 21  1  0
 22 20  2  0
M  END
$$$$
