VPV.pdb
     RDKit          3D

 22 22  0  0  1  0  0  0  0  0999 V2000
    6.6590  -13.5336   19.1654 C   0  0  0  0  0  0  0  0  0  0  0  0
    7.2734  -14.0832   20.4325 C   0  0  2  0  0  0  0  0  0  0  0  0
    6.1615  -14.7495   21.2135 C   0  0  0  0  0  0  0  0  0  0  0  0
    7.9171  -12.9712   21.2418 C   0  0  2  0  0  0  0  0  0  0  0  0
    8.8605  -12.2178   20.4643 N   0  0  0  0  0  0  0  0  0  0  0  0
    8.3974  -13.4382   22.5447 C   0  0  0  0  0  0  0  0  0  0  0  0
    9.6386  -13.7516   22.6104 O   0  0  0  0  0  0  0  0  0  0  0  0
    7.6366  -13.5786   23.7322 N   0  0  0  0  0  0  0  0  0  0  0  0
    6.2175  -13.4867   23.9853 C   0  0  0  0  0  0  0  0  0  0  0  0
    6.1927  -12.5989   25.2402 C   0  0  0  0  0  0  0  0  0  0  0  0
    7.3500  -13.1007   26.0404 C   0  0  0  0  0  0  0  0  0  0  0  0
    8.1789  -13.8729   25.0759 C   0  0  1  0  0  0  0  0  0  0  0  0
    8.2558  -15.3118   25.3195 C   0  0  0  0  0  0  0  0  0  0  0  0
    7.2353  -16.0062   25.0796 O   0  0  0  0  0  0  0  0  0  0  0  0
   12.0014  -17.3653   25.3024 C   0  0  0  0  0  0  0  0  0  0  0  0
   10.6458  -17.9352   24.9704 C   0  0  2  0  0  0  0  0  0  0  0  0
   10.3250  -17.6039   23.5285 C   0  0  0  0  0  0  0  0  0  0  0  0
    9.5591  -17.4056   25.8716 C   0  0  2  0  0  0  0  0  0  0  0  0
    9.4029  -15.9907   25.8099 N   0  0  0  0  0  0  0  0  0  0  0  0
    9.7825  -17.9225   27.2329 C   0  0  0  0  0  0  0  0  0  0  0  0
    9.7291  -19.2680   27.5537 O   0  0  0  0  0  0  0  0  0  0  0  0
   10.0350  -17.1134   28.1595 O   0  0  0  0  0  0  0  0  0  0  0  0
  2  1  1  6
  2  4  1  0
  2  3  1  0
  4  6  1  0
  4  5  1  6
  6  8  1  0
  6  7  2  0
  8 12  1  0
  9 10  1  0
  9  8  1  0
 10 11  1  0
 11 12  1  0
 12 13  1  1
 13 14  2  0
 16 18  1  0
 16 15  1  1
 17 16  1  0
 18 20  1  0
 19 13  1  0
 18 19  1  1
 20 21  1  0
 22 20  2  0
M  END
$$$$
