VPV.pdb
     RDKit          3D

 22 22  0  0  1  0  0  0  0  0999 V2000
    6.4195  -15.7983   20.7858 C   0  0  0  0  0  0  0  0  0  0  0  0
    7.2891  -15.6682   22.0154 C   0  0  2  0  0  0  0  0  0  0  0  0
    6.4744  -16.1630   23.1910 C   0  0  0  0  0  0  0  0  0  0  0  0
    7.7179  -14.2258   22.2182 C   0  0  2  0  0  0  0  0  0  0  0  0
    8.3840  -13.6956   21.0617 N   0  0  0  0  0  0  0  0  0  0  0  0
    8.4067  -14.0247   23.4955 C   0  0  0  0  0  0  0  0  0  0  0  0
    9.6869  -14.0805   23.4622 O   0  0  0  0  0  0  0  0  0  0  0  0
    7.8080  -13.7768   24.7559 N   0  0  0  0  0  0  0  0  0  0  0  0
    6.4265  -13.6675   25.1629 C   0  0  0  0  0  0  0  0  0  0  0  0
    6.4683  -12.3998   26.0319 C   0  0  0  0  0  0  0  0  0  0  0  0
    7.7536  -12.5374   26.7806 C   0  0  0  0  0  0  0  0  0  0  0  0
    8.5303  -13.5587   26.0276 C   0  0  1  0  0  0  0  0  0  0  0  0
    8.7682  -14.8171   26.7314 C   0  0  0  0  0  0  0  0  0  0  0  0
    7.7817  -15.5648   26.9531 O   0  0  0  0  0  0  0  0  0  0  0  0
   12.8026  -16.3666   27.4811 C   0  0  0  0  0  0  0  0  0  0  0  0
   11.5717  -17.1806   27.1728 C   0  0  2  0  0  0  0  0  0  0  0  0
   11.4595  -17.3324   25.6708 C   0  0  0  0  0  0  0  0  0  0  0  0
   10.3131  -16.5560   27.7199 C   0  0  2  0  0  0  0  0  0  0  0  0
   10.0370  -15.2635   27.1876 N   0  0  0  0  0  0  0  0  0  0  0  0
   10.3686  -16.5959   29.1915 C   0  0  0  0  0  0  0  0  0  0  0  0
   10.4224  -17.7723   29.9189 O   0  0  0  0  0  0  0  0  0  0  0  0
   10.3677  -15.5158   29.8320 O   0  0  0  0  0  0  0  0  0  0  0  0
  2  1  1  6
  2  4  1  0
  2  3  1  0
  4  6  1  0
  4  5  1  6
  6  8  1  0
  6  7  2  0
  8 12  1  0
  9 10  1  0
  9  8  1  0
 10 11  1  0
 11 12  1  0
 12 13  1  1
 13 14  2  0
 16 18  1  0
 16 15  1  6
 17 16  1  0
 18 20  1  0
 19 13  1  0
 18 19  1  1
 20 21  1  0
 22 20  2  0
M  END
$$$$
