VPV.pdb
     RDKit          3D

 22 22  0  0  1  0  0  0  0  0999 V2000
    7.8831  -17.6144   19.9358 C   0  0  0  0  0  0  0  0  0  0  0  0
    8.3233  -16.9861   21.2383 C   0  0  2  0  0  0  0  0  0  0  0  0
    7.5120  -17.6321   22.3405 C   0  0  0  0  0  0  0  0  0  0  0  0
    8.1042  -15.4838   21.2095 C   0  0  2  0  0  0  0  0  0  0  0  0
    8.5852  -14.8940   19.9917 N   0  0  0  0  0  0  0  0  0  0  0  0
    8.5440  -14.8338   22.4466 C   0  0  0  0  0  0  0  0  0  0  0  0
    9.7595  -14.4278   22.4705 O   0  0  0  0  0  0  0  0  0  0  0  0
    7.7696  -14.6093   23.6122 N   0  0  0  0  0  0  0  0  0  0  0  0
    6.4063  -14.9507   23.9452 C   0  0  0  0  0  0  0  0  0  0  0  0
    5.9021  -13.6270   24.5431 C   0  0  0  0  0  0  0  0  0  0  0  0
    7.0671  -13.1450   25.3444 C   0  0  0  0  0  0  0  0  0  0  0  0
    8.2310  -13.9202   24.8364 C   0  0  1  0  0  0  0  0  0  0  0  0
    8.8291  -14.8567   25.7855 C   0  0  0  0  0  0  0  0  0  0  0  0
    8.7583  -16.0851   25.5264 O   0  0  0  0  0  0  0  0  0  0  0  0
   11.6002  -15.5951   29.9033 C   0  0  0  0  0  0  0  0  0  0  0  0
   10.9938  -14.6246   28.9219 C   0  0  2  0  0  0  0  0  0  0  0  0
    9.9502  -13.7996   29.6443 C   0  0  0  0  0  0  0  0  0  0  0  0
   10.3697  -15.3153   27.7358 C   0  0  2  0  0  0  0  0  0  0  0  0
    9.4887  -14.4830   26.9866 N   0  0  0  0  0  0  0  0  0  0  0  0
    9.7563  -16.5744   28.1929 C   0  0  0  0  0  0  0  0  0  0  0  0
   10.4854  -17.7163   28.4765 O   0  0  0  0  0  0  0  0  0  0  0  0
    8.5101  -16.6294   28.3372 O   0  0  0  0  0  0  0  0  0  0  0  0
  2  1  1  6
  2  4  1  0
  2  3  1  0
  4  6  1  0
  4  5  1  6
  6  8  1  0
  6  7  2  0
  8 12  1  0
  9 10  1  0
  9  8  1  0
 10 11  1  0
 11 12  1  0
 12 13  1  1
 13 14  2  0
 16 18  1  0
 16 15  1  1
 17 16  1  0
 18 20  1  0
 19 13  1  0
 18 19  1  1
 20 21  1  0
 22 20  2  0
M  END
$$$$
