VPV.pdb
     RDKit          3D

 22 22  0  0  1  0  0  0  0  0999 V2000
    6.9378  -16.2057   19.9958 C   0  0  0  0  0  0  0  0  0  0  0  0
    7.5323  -15.9201   21.3560 C   0  0  2  0  0  0  0  0  0  0  0  0
    6.6241  -16.5622   22.3823 C   0  0  0  0  0  0  0  0  0  0  0  0
    7.6446  -14.4237   21.5881 C   0  0  2  0  0  0  0  0  0  0  0  0
    8.2451  -13.7503   20.4708 N   0  0  0  0  0  0  0  0  0  0  0  0
    8.2118  -14.1056   22.9009 C   0  0  0  0  0  0  0  0  0  0  0  0
    9.4778  -13.9082   22.9367 O   0  0  0  0  0  0  0  0  0  0  0  0
    7.5103  -13.9946   24.1273 N   0  0  0  0  0  0  0  0  0  0  0  0
    6.1352  -14.2613   24.4796 C   0  0  0  0  0  0  0  0  0  0  0  0
    5.7843  -13.0055   25.2941 C   0  0  0  0  0  0  0  0  0  0  0  0
    7.0215  -12.7563   26.0934 C   0  0  0  0  0  0  0  0  0  0  0  0
    8.0845  -13.5443   25.4133 C   0  0  1  0  0  0  0  0  0  0  0  0
    8.6285  -14.6640   26.1787 C   0  0  0  0  0  0  0  0  0  0  0  0
    8.4200  -15.8278   25.7508 O   0  0  0  0  0  0  0  0  0  0  0  0
   10.1663  -14.8630   30.3087 C   0  0  0  0  0  0  0  0  0  0  0  0
   11.0512  -15.0491   29.1023 C   0  0  2  0  0  0  0  0  0  0  0  0
   11.7410  -13.7348   28.8048 C   0  0  0  0  0  0  0  0  0  0  0  0
   10.2852  -15.5116   27.8888 C   0  0  2  0  0  0  0  0  0  0  0  0
    9.3799  -14.5374   27.3773 N   0  0  0  0  0  0  0  0  0  0  0  0
    9.6561  -16.8082   28.1948 C   0  0  0  0  0  0  0  0  0  0  0  0
   10.3773  -17.9569   28.4709 O   0  0  0  0  0  0  0  0  0  0  0  0
    8.4032  -16.8907   28.2095 O   0  0  0  0  0  0  0  0  0  0  0  0
  2  1  1  6
  2  4  1  0
  2  3  1  0
  4  6  1  0
  4  5  1  6
  6  8  1  0
  6  7  2  0
  8 12  1  0
  9 10  1  0
  9  8  1  0
 10 11  1  0
 11 12  1  0
 12 13  1  1
 13 14  2  0
 16 18  1  0
 16 15  1  1
 17 16  1  0
 18 20  1  0
 19 13  1  0
 18 19  1  1
 20 21  1  0
 22 20  2  0
M  END
$$$$
