VPV.pdb
     RDKit          3D

 22 22  0  0  1  0  0  0  0  0999 V2000
    6.3184  -15.8749   20.7654 C   0  0  0  0  0  0  0  0  0  0  0  0
    7.1506  -15.7423   22.0205 C   0  0  2  0  0  0  0  0  0  0  0  0
    6.2783  -16.1721   23.1802 C   0  0  0  0  0  0  0  0  0  0  0  0
    7.6276  -14.3118   22.1984 C   0  0  2  0  0  0  0  0  0  0  0  0
    8.3362  -13.8343   21.0442 N   0  0  0  0  0  0  0  0  0  0  0  0
    8.2969  -14.1047   23.4850 C   0  0  0  0  0  0  0  0  0  0  0  0
    9.5729  -14.2271   23.4845 O   0  0  0  0  0  0  0  0  0  0  0  0
    7.6836  -13.7854   24.7222 N   0  0  0  0  0  0  0  0  0  0  0  0
    6.2979  -13.6425   25.1035 C   0  0  0  0  0  0  0  0  0  0  0  0
    6.3401  -12.3313   25.9051 C   0  0  0  0  0  0  0  0  0  0  0  0
    7.6138  -12.4407   26.6780 C   0  0  0  0  0  0  0  0  0  0  0  0
    8.3908  -13.5072   25.9906 C   0  0  1  0  0  0  0  0  0  0  0  0
    8.6070  -14.7288   26.7628 C   0  0  0  0  0  0  0  0  0  0  0  0
    7.6365  -15.5153   26.9068 O   0  0  0  0  0  0  0  0  0  0  0  0
   12.6075  -16.2449   27.5599 C   0  0  0  0  0  0  0  0  0  0  0  0
   11.3456  -17.0365   27.3278 C   0  0  2  0  0  0  0  0  0  0  0  0
   11.1540  -17.2093   25.8362 C   0  0  0  0  0  0  0  0  0  0  0  0
   10.1299  -16.3758   27.9272 C   0  0  2  0  0  0  0  0  0  0  0  0
    9.8378  -15.0984   27.3675 N   0  0  0  0  0  0  0  0  0  0  0  0
   10.2736  -16.3661   29.3933 C   0  0  0  0  0  0  0  0  0  0  0  0
   10.4151  -17.5158   30.1511 O   0  0  0  0  0  0  0  0  0  0  0  0
   10.2694  -15.2667   30.0000 O   0  0  0  0  0  0  0  0  0  0  0  0
  2  1  1  6
  2  4  1  0
  2  3  1  0
  4  6  1  0
  4  5  1  6
  6  8  1  0
  6  7  2  0
  8 12  1  0
  9 10  1  0
  9  8  1  0
 10 11  1  0
 11 12  1  0
 12 13  1  1
 13 14  2  0
 16 18  1  0
 16 15  1  6
 17 16  1  0
 18 20  1  0
 19 13  1  0
 18 19  1  6
 20 21  1  0
 22 20  2  0
M  END
$$$$
