VPV.pdb
     RDKit          3D

 22 22  0  0  1  0  0  0  0  0999 V2000
    8.3015  -17.1472   22.0642 C   0  0  0  0  0  0  0  0  0  0  0  0
    7.2482  -16.1105   21.7466 C   0  0  2  0  0  0  0  0  0  0  0  0
    6.6117  -16.5106   20.4332 C   0  0  0  0  0  0  0  0  0  0  0  0
    7.8686  -14.7277   21.6526 C   0  0  2  0  0  0  0  0  0  0  0  0
    8.7795  -14.6216   20.5475 N   0  0  0  0  0  0  0  0  0  0  0  0
    8.3786  -14.2581   22.9432 C   0  0  0  0  0  0  0  0  0  0  0  0
    9.6311  -13.9900   22.9922 O   0  0  0  0  0  0  0  0  0  0  0  0
    7.6354  -14.0711   24.1354 N   0  0  0  0  0  0  0  0  0  0  0  0
    6.2266  -14.2040   24.4248 C   0  0  0  0  0  0  0  0  0  0  0  0
    5.9592  -12.9138   25.2170 C   0  0  0  0  0  0  0  0  0  0  0  0
    7.1766  -12.7757   26.0717 C   0  0  0  0  0  0  0  0  0  0  0  0
    8.1903  -13.6661   25.4447 C   0  0  1  0  0  0  0  0  0  0  0  0
    8.5904  -14.8256   26.2391 C   0  0  0  0  0  0  0  0  0  0  0  0
    8.2367  -15.9645   25.8402 O   0  0  0  0  0  0  0  0  0  0  0  0
   10.2356  -15.3417   30.3337 C   0  0  0  0  0  0  0  0  0  0  0  0
   11.0805  -15.3359   29.0850 C   0  0  2  0  0  0  0  0  0  0  0  0
   11.6517  -13.9466   28.8977 C   0  0  0  0  0  0  0  0  0  0  0  0
   10.3024  -15.7395   27.8582 C   0  0  2  0  0  0  0  0  0  0  0  0
    9.3533  -14.7644   27.4355 N   0  0  0  0  0  0  0  0  0  0  0  0
    9.7244  -17.0754   28.0852 C   0  0  0  0  0  0  0  0  0  0  0  0
   10.4873  -18.2251   28.1958 O   0  0  0  0  0  0  0  0  0  0  0  0
    8.4782  -17.1926   28.1855 O   0  0  0  0  0  0  0  0  0  0  0  0
  2  1  1  6
  2  4  1  0
  2  3  1  0
  4  6  1  0
  4  5  1  6
  6  8  1  0
  6  7  2  0
  8 12  1  0
  9 10  1  0
  9  8  1  0
 10 11  1  0
 11 12  1  0
 12 13  1  1
 13 14  2  0
 16 18  1  0
 16 15  1  1
 17 16  1  0
 18 20  1  0
 19 13  1  0
 18 19  1  1
 20 21  1  0
 22 20  2  0
M  END
$$$$
