VPV.pdb
     RDKit          3D

 22 22  0  0  1  0  0  0  0  0999 V2000
    5.7712  -18.1380   23.4559 C   0  0  0  0  0  0  0  0  0  0  0  0
    5.2711  -17.4350   22.2146 C   0  0  2  0  0  0  0  0  0  0  0  0
    4.0624  -18.2028   21.7247 C   0  0  0  0  0  0  0  0  0  0  0  0
    6.3547  -17.3888   21.1518 C   0  0  2  0  0  0  0  0  0  0  0  0
    6.7247  -18.7022   20.7042 N   0  0  0  0  0  0  0  0  0  0  0  0
    7.4650  -16.5098   21.5275 C   0  0  0  0  0  0  0  0  0  0  0  0
    8.5410  -17.0912   21.9114 O   0  0  0  0  0  0  0  0  0  0  0  0
    7.4723  -15.0927   21.5110 N   0  0  0  0  0  0  0  0  0  0  0  0
    6.4367  -14.1259   21.2302 C   0  0  0  0  0  0  0  0  0  0  0  0
    7.1721  -13.1638   20.2829 C   0  0  0  0  0  0  0  0  0  0  0  0
    8.5364  -13.0650   20.8832 C   0  0  0  0  0  0  0  0  0  0  0  0
    8.6386  -14.2314   21.8012 C   0  0  1  0  0  0  0  0  0  0  0  0
    8.7265  -13.9098   23.2240 C   0  0  0  0  0  0  0  0  0  0  0  0
    8.8801  -12.7045   23.5481 O   0  0  0  0  0  0  0  0  0  0  0  0
    6.1602  -14.3689   25.9625 C   0  0  0  0  0  0  0  0  0  0  0  0
    7.4924  -13.6740   26.0869 C   0  0  2  0  0  0  0  0  0  0  0  0
    7.4629  -12.4224   25.2359 C   0  0  0  0  0  0  0  0  0  0  0  0
    8.6441  -14.5518   25.6671 C   0  0  2  0  0  0  0  0  0  0  0  0
    8.6513  -14.8609   24.2761 N   0  0  0  0  0  0  0  0  0  0  0  0
    8.6766  -15.7368   26.5417 C   0  0  0  0  0  0  0  0  0  0  0  0
    8.5417  -17.0321   26.0726 O   0  0  0  0  0  0  0  0  0  0  0  0
    8.8340  -15.5794   27.7776 O   0  0  0  0  0  0  0  0  0  0  0  0
  2  1  1  1
  2  4  1  0
  2  3  1  0
  4  6  1  0
  4  5  1  1
  6  8  1  0
  6  7  2  0
  8 12  1  0
  9 10  1  0
  9  8  1  0
 10 11  1  0
 11 12  1  0
 12 13  1  1
 13 14  2  0
 16 18  1  0
 16 15  1  6
 17 16  1  0
 18 20  1  0
 19 13  1  0
 18 19  1  6
 20 21  1  0
 22 20  2  0
M  END
$$$$
