VPV.pdb
     RDKit          3D

 22 22  0  0  1  0  0  0  0  0999 V2000
    7.3731  -16.2407   22.0406 C   0  0  0  0  0  0  0  0  0  0  0  0
    6.6055  -14.9386   22.0162 C   0  0  2  0  0  0  0  0  0  0  0  0
    5.8806  -14.8742   20.6893 C   0  0  0  0  0  0  0  0  0  0  0  0
    7.5470  -13.7586   22.1806 C   0  0  2  0  0  0  0  0  0  0  0  0
    8.4162  -13.6030   21.0482 N   0  0  0  0  0  0  0  0  0  0  0  0
    8.2029  -13.7488   23.4906 C   0  0  0  0  0  0  0  0  0  0  0  0
    9.4698  -13.9436   23.4897 O   0  0  0  0  0  0  0  0  0  0  0  0
    7.5856  -13.5480   24.7504 N   0  0  0  0  0  0  0  0  0  0  0  0
    6.1978  -13.4713   25.1434 C   0  0  0  0  0  0  0  0  0  0  0  0
    6.2102  -12.2301   26.0505 C   0  0  0  0  0  0  0  0  0  0  0  0
    7.4885  -12.3715   26.8106 C   0  0  0  0  0  0  0  0  0  0  0  0
    8.2894  -13.3580   26.0369 C   0  0  1  0  0  0  0  0  0  0  0  0
    8.5376  -14.6336   26.7054 C   0  0  0  0  0  0  0  0  0  0  0  0
    7.6018  -15.4727   26.7418 O   0  0  0  0  0  0  0  0  0  0  0  0
   12.5555  -15.9902   27.3265 C   0  0  0  0  0  0  0  0  0  0  0  0
   11.3476  -16.8644   27.1034 C   0  0  2  0  0  0  0  0  0  0  0  0
   11.1247  -17.0048   25.6127 C   0  0  0  0  0  0  0  0  0  0  0  0
   10.1059  -16.3134   27.7573 C   0  0  2  0  0  0  0  0  0  0  0  0
    9.7635  -15.0007   27.3216 N   0  0  0  0  0  0  0  0  0  0  0  0
   10.2474  -16.4391   29.2183 C   0  0  0  0  0  0  0  0  0  0  0  0
   10.1888  -15.3602   30.0836 O   0  0  0  0  0  0  0  0  0  0  0  0
   10.4310  -17.5762   29.7184 O   0  0  0  0  0  0  0  0  0  0  0  0
  2  1  1  6
  2  4  1  0
  2  3  1  0
  4  6  1  0
  4  5  1  6
  6  8  1  0
  6  7  2  0
  8 12  1  0
  9 10  1  0
  9  8  1  0
 10 11  1  0
 11 12  1  0
 12 13  1  1
 13 14  2  0
 16 18  1  0
 16 15  1  6
 17 16  1  0
 18 20  1  0
 19 13  1  0
 18 19  1  1
 20 21  1  0
 22 20  2  0
M  END
$$$$
