VPV.pdb
     RDKit          3D

 22 22  0  0  1  0  0  0  0  0999 V2000
    4.4478  -18.3399   22.4924 C   0  0  0  0  0  0  0  0  0  0  0  0
    4.0835  -17.5923   21.2300 C   0  0  2  0  0  0  0  0  0  0  0  0
    2.7359  -18.1121   20.7782 C   0  0  0  0  0  0  0  0  0  0  0  0
    5.1373  -17.8059   20.1578 C   0  0  2  0  0  0  0  0  0  0  0  0
    5.1808  -19.1702   19.7115 N   0  0  0  0  0  0  0  0  0  0  0  0
    6.4279  -17.2153   20.5210 C   0  0  0  0  0  0  0  0  0  0  0  0
    7.3710  -18.0403   20.7912 O   0  0  0  0  0  0  0  0  0  0  0  0
    6.7394  -15.8352   20.6042 N   0  0  0  0  0  0  0  0  0  0  0  0
    5.9814  -14.6531   20.2662 C   0  0  0  0  0  0  0  0  0  0  0  0
    7.0264  -13.8387   19.4860 C   0  0  0  0  0  0  0  0  0  0  0  0
    8.2863  -14.0680   20.2550 C   0  0  0  0  0  0  0  0  0  0  0  0
    8.0123  -15.2649   21.0950 C   0  0  1  0  0  0  0  0  0  0  0  0
    7.9735  -15.0296   22.5368 C   0  0  0  0  0  0  0  0  0  0  0  0
    7.0410  -14.3206   22.9940 O   0  0  0  0  0  0  0  0  0  0  0  0
    7.7430  -15.6349   27.0672 C   0  0  0  0  0  0  0  0  0  0  0  0
    7.7706  -15.9717   25.5979 C   0  0  2  0  0  0  0  0  0  0  0  0
    7.8878  -17.4739   25.4513 C   0  0  0  0  0  0  0  0  0  0  0  0
    8.9056  -15.2961   24.8708 C   0  0  2  0  0  0  0  0  0  0  0  0
    8.9149  -15.5437   23.4677 N   0  0  0  0  0  0  0  0  0  0  0  0
   10.1689  -15.6404   25.5459 C   0  0  0  0  0  0  0  0  0  0  0  0
   10.5153  -15.1657   26.7992 O   0  0  0  0  0  0  0  0  0  0  0  0
   10.9826  -16.4020   24.9673 O   0  0  0  0  0  0  0  0  0  0  0  0
  2  1  1  1
  2  4  1  0
  2  3  1  0
  4  6  1  0
  4  5  1  1
  6  8  1  0
  6  7  2  0
  8 12  1  0
  9 10  1  0
  9  8  1  0
 10 11  1  0
 11 12  1  0
 12 13  1  1
 13 14  2  0
 16 18  1  0
 16 15  1  1
 17 16  1  0
 18 20  1  0
 19 13  1  0
 18 19  1  6
 20 21  1  0
 22 20  2  0
M  END
$$$$
