VPV.pdb
     RDKit          3D

 22 22  0  0  1  0  0  0  0  0999 V2000
    4.5111  -18.5298   22.2962 C   0  0  0  0  0  0  0  0  0  0  0  0
    4.2570  -17.6265   21.1110 C   0  0  2  0  0  0  0  0  0  0  0  0
    3.0074  -18.1341   20.4245 C   0  0  0  0  0  0  0  0  0  0  0  0
    5.4432  -17.6398   20.1632 C   0  0  2  0  0  0  0  0  0  0  0  0
    5.5928  -18.9087   19.5075 N   0  0  0  0  0  0  0  0  0  0  0  0
    6.6556  -17.0980   20.7819 C   0  0  0  0  0  0  0  0  0  0  0  0
    7.6088  -17.9312   20.9819 O   0  0  0  0  0  0  0  0  0  0  0  0
    6.8819  -15.7567   21.1800 N   0  0  0  0  0  0  0  0  0  0  0  0
    6.0086  -14.6078   21.2399 C   0  0  0  0  0  0  0  0  0  0  0  0
    6.8856  -13.5289   20.5838 C   0  0  0  0  0  0  0  0  0  0  0  0
    8.2478  -13.8152   21.1261 C   0  0  0  0  0  0  0  0  0  0  0  0
    8.1668  -15.2024   21.6576 C   0  0  1  0  0  0  0  0  0  0  0  0
    8.3009  -15.3325   23.1070 C   0  0  0  0  0  0  0  0  0  0  0  0
    7.3815  -14.8686   23.8286 O   0  0  0  0  0  0  0  0  0  0  0  0
    9.7182  -18.6580   25.0187 C   0  0  0  0  0  0  0  0  0  0  0  0
    8.9596  -17.5011   25.6179 C   0  0  2  0  0  0  0  0  0  0  0  0
    7.5029  -17.6267   25.2256 C   0  0  0  0  0  0  0  0  0  0  0  0
    9.4966  -16.1645   25.1723 C   0  0  2  0  0  0  0  0  0  0  0  0
    9.3978  -15.9469   23.7676 N   0  0  0  0  0  0  0  0  0  0  0  0
   10.8598  -16.0026   25.7067 C   0  0  0  0  0  0  0  0  0  0  0  0
   11.9783  -15.8545   24.9048 O   0  0  0  0  0  0  0  0  0  0  0  0
   11.0314  -15.9966   26.9507 O   0  0  0  0  0  0  0  0  0  0  0  0
  2  1  1  1
  2  4  1  0
  2  3  1  0
  4  6  1  0
  4  5  1  1
  6  8  1  0
  6  7  2  0
  8 12  1  0
  9 10  1  0
  9  8  1  0
 10 11  1  0
 11 12  1  0
 12 13  1  1
 13 14  2  0
 16 18  1  0
 16 15  1  6
 17 16  1  0
 18 20  1  0
 19 13  1  0
 18 19  1  6
 20 21  1  0
 22 20  2  0
M  END
$$$$
