VPV.pdb
     RDKit          3D

 22 22  0  0  1  0  0  0  0  0999 V2000
    6.5358  -19.4405   17.5871 C   0  0  0  0  0  0  0  0  0  0  0  0
    7.4592  -18.8539   18.6304 C   0  0  2  0  0  0  0  0  0  0  0  0
    6.6879  -18.8073   19.9316 C   0  0  0  0  0  0  0  0  0  0  0  0
    7.9190  -17.4664   18.2195 C   0  0  2  0  0  0  0  0  0  0  0  0
    8.4877  -17.4573   16.9009 N   0  0  0  0  0  0  0  0  0  0  0  0
    8.7181  -16.8145   19.2601 C   0  0  0  0  0  0  0  0  0  0  0  0
    9.9903  -16.9251   19.1482 O   0  0  0  0  0  0  0  0  0  0  0  0
    8.2334  -16.0793   20.3706 N   0  0  0  0  0  0  0  0  0  0  0  0
    6.8936  -15.8033   20.8342 C   0  0  0  0  0  0  0  0  0  0  0  0
    6.9788  -14.2950   21.1196 C   0  0  0  0  0  0  0  0  0  0  0  0
    8.3323  -14.1359   21.7312 C   0  0  0  0  0  0  0  0  0  0  0  0
    9.0652  -15.3802   21.3734 C   0  0  1  0  0  0  0  0  0  0  0  0
    9.4058  -16.2567   22.4921 C   0  0  0  0  0  0  0  0  0  0  0  0
    8.5095  -17.0157   22.9411 O   0  0  0  0  0  0  0  0  0  0  0  0
   13.5065  -16.6079   23.8844 C   0  0  0  0  0  0  0  0  0  0  0  0
   12.5404  -17.7628   23.8100 C   0  0  2  0  0  0  0  0  0  0  0  0
   12.6883  -18.4269   22.4577 C   0  0  0  0  0  0  0  0  0  0  0  0
   11.1096  -17.3343   24.0164 C   0  0  2  0  0  0  0  0  0  0  0  0
   10.6806  -16.3173   23.1153 N   0  0  0  0  0  0  0  0  0  0  0  0
   10.9206  -16.9915   25.4366 C   0  0  0  0  0  0  0  0  0  0  0  0
   10.5305  -15.7363   25.8706 O   0  0  0  0  0  0  0  0  0  0  0  0
   11.1199  -17.8724   26.3092 O   0  0  0  0  0  0  0  0  0  0  0  0
  2  1  1  6
  2  4  1  0
  2  3  1  0
  4  6  1  0
  4  5  1  6
  6  8  1  0
  6  7  2  0
  8 12  1  0
  9 10  1  0
  9  8  1  0
 10 11  1  0
 11 12  1  0
 12 13  1  1
 13 14  2  0
 16 18  1  0
 16 15  1  6
 17 16  1  0
 18 20  1  0
 19 13  1  0
 18 19  1  6
 20 21  1  0
 22 20  2  0
M  END
$$$$
