IKH.pdb
     RDKit          3D

 28 28  0  0  1  0  0  0  0  0999 V2000
   26.1816  -13.0994  -17.8710 C   0  0  0  0  0  0  0  0  0  0  0  0
   27.0210  -14.1433  -17.2171 C   0  0  0  0  0  0  0  0  0  0  0  0
   26.2132  -15.4004  -16.8568 C   0  0  2  0  0  0  0  0  0  0  0  0
   25.1853  -14.9358  -15.8519 C   0  0  0  0  0  0  0  0  0  0  0  0
   27.1959  -16.3068  -16.1417 C   0  0  2  0  0  0  0  0  0  0  0  0
   28.2595  -16.5812  -17.1240 N   0  0  0  0  0  0  0  0  0  0  0  0
   26.6279  -17.6157  -15.7679 C   0  0  0  0  0  0  0  0  0  0  0  0
   26.2588  -18.4493  -16.6650 O   0  0  0  0  0  0  0  0  0  0  0  0
   26.4334  -18.0843  -14.4472 N   0  0  0  0  0  0  0  0  0  0  0  0
   25.8516  -19.3638  -14.1162 C   0  0  1  0  0  0  0  0  0  0  0  0
   26.5823  -19.9982  -12.9283 C   0  0  0  0  0  0  0  0  0  0  0  0
   27.9536  -20.4399  -13.2918 C   0  0  0  0  0  0  0  0  0  0  0  0
   28.6833  -21.0285  -12.1206 C   0  0  0  0  0  0  0  0  0  0  0  0
   30.0860  -21.3986  -12.5314 C   0  0  0  0  0  0  0  0  0  0  0  0
   30.8701  -21.8462  -11.3843 N   0  0  0  0  0  0  0  0  0  0  0  0
   24.4046  -19.3031  -13.9005 C   0  0  0  0  0  0  0  0  0  0  0  0
   23.9252  -18.5821  -12.9822 O   0  0  0  0  0  0  0  0  0  0  0  0
   23.4666  -20.0273  -14.6828 N   0  0  0  0  0  0  0  0  0  0  0  0
   22.0376  -20.0134  -14.3998 C   0  0  1  0  0  0  0  0  0  0  0  0
   21.2292  -19.7372  -15.6226 C   0  0  0  0  0  0  0  0  0  0  0  0
   21.5256  -18.3806  -16.1289 C   0  0  0  0  0  0  0  0  0  0  0  0
   21.1217  -17.1772  -15.5889 C   0  0  0  0  0  0  0  0  0  0  0  0
   21.6089  -16.2195  -16.3910 N   0  0  0  0  0  0  0  0  0  0  0  0
   22.2995  -16.8053  -17.4061 C   0  0  0  0  0  0  0  0  0  0  0  0
   22.2525  -18.1314  -17.2516 N   0  0  0  0  0  0  0  0  0  0  0  0
   21.6219  -21.2138  -13.6457 C   0  0  0  0  0  0  0  0  0  0  0  0
   20.2837  -21.2491  -13.1998 O   0  0  0  0  0  0  0  0  0  0  0  0
   22.3169  -22.1939  -13.3606 O   0  0  0  0  0  0  0  0  0  0  0  0
  2  1  1  0
  3  2  1  0
  3  5  1  0
  3  4  1  1
  5  6  1  6
  7  8  2  0
  7  5  1  0
  9  7  1  0
 10  9  1  0
 11 12  1  0
 10 11  1  1
 12 13  1  0
 13 14  1  0
 14 15  1  0
 16 17  2  0
 16 10  1  0
 18 16  1  0
 19 20  1  6
 19 18  1  0
 20 21  1  0
 21 25  1  0
 21 22  2  0
 22 23  1  0
 24 23  1  0
 25 24  2  0
 26 19  1  0
 27 26  1  0
 28 26  2  0
M  END
$$$$
