IKH.pdb
     RDKit          3D

 28 28  0  0  1  0  0  0  0  0999 V2000
   26.8344  -12.2394  -16.0519 C   0  0  0  0  0  0  0  0  0  0  0  0
   27.2650  -13.6629  -16.1540 C   0  0  0  0  0  0  0  0  0  0  0  0
   26.0765  -14.6205  -16.3357 C   0  0  2  0  0  0  0  0  0  0  0  0
   25.2642  -14.4881  -15.0689 C   0  0  0  0  0  0  0  0  0  0  0  0
   26.6897  -16.0069  -16.3602 C   0  0  2  0  0  0  0  0  0  0  0  0
   27.5836  -16.0174  -17.5317 N   0  0  0  0  0  0  0  0  0  0  0  0
   25.7060  -17.0840  -16.5787 C   0  0  0  0  0  0  0  0  0  0  0  0
   25.0050  -17.1233  -17.6479 O   0  0  0  0  0  0  0  0  0  0  0  0
   25.4329  -18.1461  -15.6849 N   0  0  0  0  0  0  0  0  0  0  0  0
   24.4433  -19.1713  -15.9191 C   0  0  1  0  0  0  0  0  0  0  0  0
   25.0337  -20.5611  -15.6597 C   0  0  0  0  0  0  0  0  0  0  0  0
   26.1570  -20.8680  -16.5826 C   0  0  0  0  0  0  0  0  0  0  0  0
   26.7428  -22.2246  -16.3232 C   0  0  0  0  0  0  0  0  0  0  0  0
   27.8750  -22.4802  -17.2855 C   0  0  0  0  0  0  0  0  0  0  0  0
   28.5352  -23.7498  -16.9969 N   0  0  0  0  0  0  0  0  0  0  0  0
   23.2004  -18.9565  -15.1755 C   0  0  0  0  0  0  0  0  0  0  0  0
   23.2236  -18.8019  -13.9231 O   0  0  0  0  0  0  0  0  0  0  0  0
   21.9207  -18.9083  -15.7891 N   0  0  0  0  0  0  0  0  0  0  0  0
   20.6902  -18.7797  -15.0200 C   0  0  1  0  0  0  0  0  0  0  0  0
   19.6874  -17.9185  -15.7112 C   0  0  0  0  0  0  0  0  0  0  0  0
   20.1819  -16.5277  -15.7865 C   0  0  0  0  0  0  0  0  0  0  0  0
   21.3668  -16.0306  -15.2847 C   0  0  0  0  0  0  0  0  0  0  0  0
   21.3801  -14.7209  -15.5720 N   0  0  0  0  0  0  0  0  0  0  0  0
   20.2356  -14.4046  -16.2357 C   0  0  0  0  0  0  0  0  0  0  0  0
   19.4956  -15.5086  -16.3708 N   0  0  0  0  0  0  0  0  0  0  0  0
   20.1780  -20.0974  -14.5912 C   0  0  0  0  0  0  0  0  0  0  0  0
   19.1516  -20.0930  -13.6230 O   0  0  0  0  0  0  0  0  0  0  0  0
   20.5486  -21.2070  -14.9867 O   0  0  0  0  0  0  0  0  0  0  0  0
  2  1  1  0
  3  2  1  0
  3  5  1  0
  3  4  1  1
  5  6  1  6
  7  8  2  0
  7  5  1  0
  9  7  1  0
 10  9  1  0
 11 12  1  0
 10 11  1  1
 12 13  1  0
 13 14  1  0
 14 15  1  0
 16 17  2  0
 16 10  1  0
 18 16  1  0
 19 20  1  6
 19 18  1  0
 20 21  1  0
 21 25  1  0
 21 22  2  0
 22 23  1  0
 24 23  1  0
 25 24  2  0
 26 19  1  0
 27 26  1  0
 28 26  2  0
M  END
$$$$
