IKH.pdb
     RDKit          3D

 28 28  0  0  1  0  0  0  0  0999 V2000
   25.9353  -12.6935  -17.4365 C   0  0  0  0  0  0  0  0  0  0  0  0
   26.8020  -13.8944  -17.2667 C   0  0  0  0  0  0  0  0  0  0  0  0
   26.0228  -15.1051  -16.7283 C   0  0  2  0  0  0  0  0  0  0  0  0
   25.5966  -14.7128  -15.3330 C   0  0  0  0  0  0  0  0  0  0  0  0
   27.0505  -16.2137  -16.6134 C   0  0  2  0  0  0  0  0  0  0  0  0
   27.5982  -16.3801  -17.9713 N   0  0  0  0  0  0  0  0  0  0  0  0
   26.4732  -17.5174  -16.2358 C   0  0  0  0  0  0  0  0  0  0  0  0
   25.7354  -18.1681  -17.0533 O   0  0  0  0  0  0  0  0  0  0  0  0
   26.6545  -18.1720  -14.9947 N   0  0  0  0  0  0  0  0  0  0  0  0
   26.0272  -19.4222  -14.6359 C   0  0  1  0  0  0  0  0  0  0  0  0
   27.0381  -20.3626  -13.9717 C   0  0  0  0  0  0  0  0  0  0  0  0
   28.1841  -20.6672  -14.8670 C   0  0  0  0  0  0  0  0  0  0  0  0
   27.9655  -21.9278  -15.6505 C   0  0  0  0  0  0  0  0  0  0  0  0
   29.1821  -22.2186  -16.4924 C   0  0  0  0  0  0  0  0  0  0  0  0
   28.9728  -23.3941  -17.3323 N   0  0  0  0  0  0  0  0  0  0  0  0
   24.8210  -19.2521  -13.8234 C   0  0  0  0  0  0  0  0  0  0  0  0
   24.7317  -18.2957  -13.0048 O   0  0  0  0  0  0  0  0  0  0  0  0
   23.7012  -20.1224  -13.8949 N   0  0  0  0  0  0  0  0  0  0  0  0
   22.3515  -19.6386  -14.1527 C   0  0  1  0  0  0  0  0  0  0  0  0
   22.3249  -18.6048  -15.2278 C   0  0  0  0  0  0  0  0  0  0  0  0
   20.9419  -18.1265  -15.4350 C   0  0  0  0  0  0  0  0  0  0  0  0
   19.9767  -17.9095  -14.4736 C   0  0  0  0  0  0  0  0  0  0  0  0
   18.8793  -17.4976  -15.1247 N   0  0  0  0  0  0  0  0  0  0  0  0
   19.1480  -17.4571  -16.4576 C   0  0  0  0  0  0  0  0  0  0  0  0
   20.4120  -17.8418  -16.6552 N   0  0  0  0  0  0  0  0  0  0  0  0
   21.4032  -20.7544  -14.3488 C   0  0  0  0  0  0  0  0  0  0  0  0
   20.3997  -20.9117  -13.3694 O   0  0  0  0  0  0  0  0  0  0  0  0
   21.3900  -21.5683  -15.2774 O   0  0  0  0  0  0  0  0  0  0  0  0
  2  1  1  0
  3  2  1  0
  3  5  1  0
  3  4  1  1
  5  6  1  6
  7  8  2  0
  7  5  1  0
  9  7  1  0
 10  9  1  0
 11 12  1  0
 10 11  1  1
 12 13  1  0
 13 14  1  0
 14 15  1  0
 16 17  2  0
 16 10  1  0
 18 16  1  0
 19 20  1  6
 19 18  1  0
 20 21  1  0
 21 25  1  0
 21 22  2  0
 22 23  1  0
 24 23  1  0
 25 24  2  0
 26 19  1  0
 27 26  1  0
 28 26  2  0
M  END
$$$$
