IKH.pdb
     RDKit          3D

 28 28  0  0  1  0  0  0  0  0999 V2000
   18.3203  -12.2917  -14.0849 C   0  0  0  0  0  0  0  0  0  0  0  0
   18.6837  -12.2084  -15.5281 C   0  0  0  0  0  0  0  0  0  0  0  0
   17.4470  -12.1757  -16.4404 C   0  0  2  0  0  0  0  0  0  0  0  0
   16.8188  -13.5429  -16.3047 C   0  0  0  0  0  0  0  0  0  0  0  0
   17.9998  -12.0480  -17.8464 C   0  0  2  0  0  0  0  0  0  0  0  0
   18.9924  -13.1295  -17.9750 N   0  0  0  0  0  0  0  0  0  0  0  0
   18.7270  -10.7866  -18.0827 C   0  0  0  0  0  0  0  0  0  0  0  0
   20.0056  -10.7561  -18.0709 O   0  0  0  0  0  0  0  0  0  0  0  0
   18.1343   -9.5276  -18.3380 N   0  0  0  0  0  0  0  0  0  0  0  0
   18.8772   -8.3089  -18.5568 C   0  0  1  0  0  0  0  0  0  0  0  0
   18.0451   -7.3066  -19.3634 C   0  0  0  0  0  0  0  0  0  0  0  0
   17.7050   -7.8265  -20.7130 C   0  0  0  0  0  0  0  0  0  0  0  0
   16.8962   -6.8433  -21.5066 C   0  0  0  0  0  0  0  0  0  0  0  0
   16.4989   -7.4599  -22.8238 C   0  0  0  0  0  0  0  0  0  0  0  0
   15.4782   -8.4870  -22.6383 N   0  0  0  0  0  0  0  0  0  0  0  0
   19.3992   -7.7197  -17.3222 C   0  0  0  0  0  0  0  0  0  0  0  0
   18.8666   -7.9899  -16.2103 O   0  0  0  0  0  0  0  0  0  0  0  0
   20.5058   -6.8306  -17.2872 N   0  0  0  0  0  0  0  0  0  0  0  0
   20.9381   -6.1695  -16.0632 C   0  0  1  0  0  0  0  0  0  0  0  0
   22.2077   -6.7477  -15.5350 C   0  0  0  0  0  0  0  0  0  0  0  0
   21.9458   -8.0669  -14.9221 C   0  0  0  0  0  0  0  0  0  0  0  0
   20.7233   -8.6801  -14.7419 C   0  0  0  0  0  0  0  0  0  0  0  0
   20.9718   -9.8487  -14.1331 N   0  0  0  0  0  0  0  0  0  0  0  0
   22.3128   -9.9659  -13.9367 C   0  0  0  0  0  0  0  0  0  0  0  0
   22.9167   -8.8760  -14.4185 N   0  0  0  0  0  0  0  0  0  0  0  0
   20.9474   -4.6999  -16.2141 C   0  0  0  0  0  0  0  0  0  0  0  0
   21.2600   -3.9473  -15.0623 O   0  0  0  0  0  0  0  0  0  0  0  0
   20.7115   -4.0534  -17.2395 O   0  0  0  0  0  0  0  0  0  0  0  0
  2  1  1  0
  3  2  1  0
  3  5  1  0
  3  4  1  6
  5  6  1  1
  7  8  2  0
  7  5  1  0
  9  7  1  0
 10  9  1  0
 11 12  1  0
 10 11  1  1
 12 13  1  0
 13 14  1  0
 14 15  1  0
 16 17  2  0
 16 10  1  0
 18 16  1  0
 19 20  1  6
 19 18  1  0
 20 21  1  0
 21 25  1  0
 21 22  2  0
 22 23  1  0
 24 23  1  0
 25 24  2  0
 26 19  1  0
 27 26  1  0
 28 26  2  0
M  END
$$$$
