IKH.pdb
     RDKit          3D

 28 28  0  0  1  0  0  0  0  0999 V2000
   15.8285  -15.2626  -13.3743 C   0  0  0  0  0  0  0  0  0  0  0  0
   15.2140  -14.5350  -12.2276 C   0  0  0  0  0  0  0  0  0  0  0  0
   15.3363  -13.0095  -12.3713 C   0  0  2  0  0  0  0  0  0  0  0  0
   16.8107  -12.7151  -12.2244 C   0  0  0  0  0  0  0  0  0  0  0  0
   14.6192  -12.4427  -11.1618 C   0  0  2  0  0  0  0  0  0  0  0  0
   13.2117  -12.8508  -11.3160 N   0  0  0  0  0  0  0  0  0  0  0  0
   14.6211  -10.9686  -11.1112 C   0  0  0  0  0  0  0  0  0  0  0  0
   14.1824  -10.2793  -12.0953 O   0  0  0  0  0  0  0  0  0  0  0  0
   15.0809  -10.1804  -10.0300 N   0  0  0  0  0  0  0  0  0  0  0  0
   15.1321   -8.7373  -10.0403 C   0  0  1  0  0  0  0  0  0  0  0  0
   14.6048   -8.1689   -8.7188 C   0  0  0  0  0  0  0  0  0  0  0  0
   14.6584   -6.6843   -8.6925 C   0  0  0  0  0  0  0  0  0  0  0  0
   14.0276   -6.1211   -7.4533 C   0  0  0  0  0  0  0  0  0  0  0  0
   13.9564   -4.6187   -7.5588 C   0  0  0  0  0  0  0  0  0  0  0  0
   13.2967   -4.0393   -6.3925 N   0  0  0  0  0  0  0  0  0  0  0  0
   16.4554   -8.2076  -10.3754 C   0  0  0  0  0  0  0  0  0  0  0  0
   17.4632   -8.5211   -9.6834 O   0  0  0  0  0  0  0  0  0  0  0  0
   16.6930   -7.3313  -11.4672 N   0  0  0  0  0  0  0  0  0  0  0  0
   18.0086   -6.7721  -11.7477 C   0  0  1  0  0  0  0  0  0  0  0  0
   18.7147   -7.5209  -12.8275 C   0  0  0  0  0  0  0  0  0  0  0  0
   20.0061   -6.8700  -13.1327 C   0  0  0  0  0  0  0  0  0  0  0  0
   20.5257   -5.7280  -12.5594 C   0  0  0  0  0  0  0  0  0  0  0  0
   21.7047   -5.5062  -13.1585 N   0  0  0  0  0  0  0  0  0  0  0  0
   21.9192   -6.4817  -14.0819 C   0  0  0  0  0  0  0  0  0  0  0  0
   20.8808   -7.3221  -14.0715 N   0  0  0  0  0  0  0  0  0  0  0  0
   17.9445   -5.3106  -11.9534 C   0  0  0  0  0  0  0  0  0  0  0  0
   19.1471   -4.5935  -11.7788 O   0  0  0  0  0  0  0  0  0  0  0  0
   16.9526   -4.6431  -12.2623 O   0  0  0  0  0  0  0  0  0  0  0  0
  2  1  1  0
  3  2  1  0
  3  5  1  0
  3  4  1  1
  5  6  1  6
  7  8  2  0
  7  5  1  0
  9  7  1  0
 10  9  1  0
 11 12  1  0
 10 11  1  1
 12 13  1  0
 13 14  1  0
 14 15  1  0
 16 17  2  0
 16 10  1  0
 18 16  1  0
 19 20  1  6
 19 18  1  0
 20 21  1  0
 21 25  1  0
 21 22  2  0
 22 23  1  0
 24 23  1  0
 25 24  2  0
 26 19  1  0
 27 26  1  0
 28 26  2  0
M  END
$$$$
