YGR.pdb
     RDKit          3D

 28 28  0  0  1  0  0  0  0  0999 V2000
   26.1774  -24.9365  -16.5976 O   0  0  0  0  0  0  0  0  0  0  0  0
   25.2035  -24.4198  -15.7456 C   0  0  0  0  0  0  0  0  0  0  0  0
   24.5634  -25.2571  -14.8433 C   0  0  0  0  0  0  0  0  0  0  0  0
   23.5984  -24.7537  -13.9965 C   0  0  0  0  0  0  0  0  0  0  0  0
   23.2740  -23.4154  -14.0517 C   0  0  0  0  0  0  0  0  0  0  0  0
   22.2304  -22.8929  -13.1297 C   0  0  0  0  0  0  0  0  0  0  0  0
   20.8896  -23.5266  -13.4417 C   0  0  2  0  0  0  0  0  0  0  0  0
   20.4389  -23.1140  -14.7554 N   0  0  0  0  0  0  0  0  0  0  0  0
   19.9206  -23.1573  -12.3885 C   0  0  0  0  0  0  0  0  0  0  0  0
   19.2398  -22.1024  -12.4688 O   0  0  0  0  0  0  0  0  0  0  0  0
   23.9280  -22.5983  -14.9624 C   0  0  0  0  0  0  0  0  0  0  0  0
   24.8941  -23.0675  -15.8203 C   0  0  0  0  0  0  0  0  0  0  0  0
   19.7455  -24.0013  -11.2589 N   0  0  0  0  0  0  0  0  0  0  0  0
   18.8642  -23.6390  -10.1674 C   0  0  0  0  0  0  0  0  0  0  0  0
   18.7892  -24.7236   -9.1526 C   0  0  0  0  0  0  0  0  0  0  0  0
   19.4268  -25.7873   -9.3965 O   0  0  0  0  0  0  0  0  0  0  0  0
   14.6630  -23.1519   -1.8831 N   0  0  0  0  0  0  0  0  0  0  0  0
   14.0179  -22.9017   -3.1252 C   0  0  0  0  0  0  0  0  0  0  0  0
   12.9616  -22.1544   -3.1201 N   0  0  0  0  0  0  0  0  0  0  0  0
   14.4967  -23.4420   -4.3456 N   0  0  0  0  0  0  0  0  0  0  0  0
   15.8531  -24.0372   -4.3385 C   0  0  0  0  0  0  0  0  0  0  0  0
   16.1835  -24.6098   -5.6614 C   0  0  0  0  0  0  0  0  0  0  0  0
   17.4561  -25.2788   -5.8151 C   0  0  0  0  0  0  0  0  0  0  0  0
   17.9978  -25.8465   -7.0592 C   0  0  2  0  0  0  0  0  0  0  0  0
   18.0600  -24.6243   -7.9628 N   0  0  0  0  0  0  0  0  0  0  0  0
   17.2158  -26.8490   -7.7934 C   0  0  0  0  0  0  0  0  0  0  0  0
   17.4215  -28.0859   -7.4877 O   0  0  0  0  0  0  0  0  0  0  0  0
   16.2770  -26.6728   -8.7688 O   0  0  0  0  0  0  0  0  0  0  0  0
  2 12  2  0
  2  1  1  0
  3  2  1  0
  4  5  1  0
  4  3  2  0
  5 11  2  0
  6  7  1  0
  6  5  1  0
  7  8  1  6
  9  7  1  0
  9 13  1  0
 10  9  2  0
 11 12  1  0
 13 14  1  0
 15 14  1  0
 15 16  2  0
 18 17  1  0
 19 18  2  0
 20 18  1  0
 21 22  1  0
 21 20  1  0
 22 23  1  0
 24 23  1  1
 24 25  1  0
 24 26  1  0
 25 15  1  0
 26 27  2  0
 26 28  1  0
M  END
$$$$
