YGR.pdb
     RDKit          3D

 28 28  0  0  1  0  0  0  0  0999 V2000
   14.3683  -22.2440  -11.2987 O   0  0  0  0  0  0  0  0  0  0  0  0
   15.7460  -22.0484  -11.3709 C   0  0  0  0  0  0  0  0  0  0  0  0
   16.2706  -20.7751  -11.2023 C   0  0  0  0  0  0  0  0  0  0  0  0
   17.6330  -20.5731  -11.2722 C   0  0  0  0  0  0  0  0  0  0  0  0
   18.4693  -21.6423  -11.5103 C   0  0  0  0  0  0  0  0  0  0  0  0
   19.9354  -21.4024  -11.5819 C   0  0  0  0  0  0  0  0  0  0  0  0
   20.2932  -20.7263  -12.8903 C   0  0  2  0  0  0  0  0  0  0  0  0
   19.8065  -21.5131  -14.0052 N   0  0  0  0  0  0  0  0  0  0  0  0
   21.7573  -20.5332  -12.9530 C   0  0  0  0  0  0  0  0  0  0  0  0
   22.3829  -19.9759  -12.0146 O   0  0  0  0  0  0  0  0  0  0  0  0
   17.9209  -22.9058  -11.6755 C   0  0  0  0  0  0  0  0  0  0  0  0
   16.5682  -23.1420  -11.6119 C   0  0  0  0  0  0  0  0  0  0  0  0
   22.4833  -20.9812  -14.0894 N   0  0  0  0  0  0  0  0  0  0  0  0
   23.9238  -20.8505  -14.1724 C   0  0  0  0  0  0  0  0  0  0  0  0
   24.4422  -21.4016  -15.4527 C   0  0  0  0  0  0  0  0  0  0  0  0
   23.5923  -21.8467  -16.2755 O   0  0  0  0  0  0  0  0  0  0  0  0
   31.2525  -24.5768  -15.7092 N   0  0  0  0  0  0  0  0  0  0  0  0
   30.3034  -25.0011  -16.6791 C   0  0  0  0  0  0  0  0  0  0  0  0
   30.0062  -26.2594  -16.7267 N   0  0  0  0  0  0  0  0  0  0  0  0
   29.6870  -24.0939  -17.5779 N   0  0  0  0  0  0  0  0  0  0  0  0
   29.8383  -22.6481  -17.2932 C   0  0  0  0  0  0  0  0  0  0  0  0
   28.6818  -22.1392  -16.5248 C   0  0  0  0  0  0  0  0  0  0  0  0
   27.5995  -21.5179  -17.2551 C   0  0  0  0  0  0  0  0  0  0  0  0
   26.1778  -21.8896  -17.1901 C   0  0  2  0  0  0  0  0  0  0  0  0
   25.8006  -21.4499  -15.7836 N   0  0  0  0  0  0  0  0  0  0  0  0
   25.7988  -23.3049  -17.2834 C   0  0  0  0  0  0  0  0  0  0  0  0
   25.5297  -23.7593  -18.4611 O   0  0  0  0  0  0  0  0  0  0  0  0
   25.6901  -24.2408  -16.2954 O   0  0  0  0  0  0  0  0  0  0  0  0
  2 12  2  0
  2  1  1  0
  3  2  1  0
  4  5  1  0
  4  3  2  0
  5 11  2  0
  6  7  1  0
  6  5  1  0
  7  8  1  6
  9  7  1  0
  9 13  1  0
 10  9  2  0
 11 12  1  0
 13 14  1  0
 15 14  1  0
 15 16  2  0
 18 17  1  0
 19 18  2  0
 20 18  1  0
 21 22  1  0
 21 20  1  0
 22 23  1  0
 24 23  1  1
 24 25  1  0
 24 26  1  0
 25 15  1  0
 26 27  2  0
 26 28  1  0
M  END
$$$$
