YGR.pdb
     RDKit          3D

 28 28  0  0  1  0  0  0  0  0999 V2000
   15.6917  -23.5182   -3.3372 O   0  0  0  0  0  0  0  0  0  0  0  0
   16.4157  -23.7607   -4.5027 C   0  0  0  0  0  0  0  0  0  0  0  0
   15.9597  -23.2596   -5.7135 C   0  0  0  0  0  0  0  0  0  0  0  0
   16.6704  -23.4951   -6.8716 C   0  0  0  0  0  0  0  0  0  0  0  0
   17.8349  -24.2302   -6.8192 C   0  0  0  0  0  0  0  0  0  0  0  0
   18.5860  -24.4726   -8.0799 C   0  0  0  0  0  0  0  0  0  0  0  0
   17.9743  -25.6318   -8.8406 C   0  0  2  0  0  0  0  0  0  0  0  0
   18.2323  -26.8751   -8.1431 N   0  0  0  0  0  0  0  0  0  0  0  0
   18.5169  -25.6514  -10.2154 C   0  0  0  0  0  0  0  0  0  0  0  0
   19.5762  -26.2721  -10.4901 O   0  0  0  0  0  0  0  0  0  0  0  0
   18.2704  -24.7206   -5.5967 C   0  0  0  0  0  0  0  0  0  0  0  0
   17.5865  -24.5044   -4.4241 C   0  0  0  0  0  0  0  0  0  0  0  0
   17.8386  -24.9601  -11.2551 N   0  0  0  0  0  0  0  0  0  0  0  0
   18.2188  -25.1130  -12.6448 C   0  0  0  0  0  0  0  0  0  0  0  0
   18.7732  -23.8471  -13.1943 C   0  0  0  0  0  0  0  0  0  0  0  0
   18.6890  -22.8167  -12.4673 O   0  0  0  0  0  0  0  0  0  0  0  0
   19.7442  -17.7728  -17.5783 N   0  0  0  0  0  0  0  0  0  0  0  0
   19.8646  -18.7504  -18.6036 C   0  0  0  0  0  0  0  0  0  0  0  0
   19.4370  -18.4448  -19.7860 N   0  0  0  0  0  0  0  0  0  0  0  0
   20.4317  -20.0278  -18.3644 N   0  0  0  0  0  0  0  0  0  0  0  0
   20.8295  -20.3441  -16.9730 C   0  0  0  0  0  0  0  0  0  0  0  0
   21.3766  -21.7149  -16.8807 C   0  0  0  0  0  0  0  0  0  0  0  0
   20.6812  -22.6708  -16.0481 C   0  0  0  0  0  0  0  0  0  0  0  0
   19.7459  -22.3581  -14.9567 C   0  0  2  0  0  0  0  0  0  0  0  0
   19.3724  -23.7446  -14.4543 N   0  0  0  0  0  0  0  0  0  0  0  0
   18.4768  -21.6879  -15.2660 C   0  0  0  0  0  0  0  0  0  0  0  0
   18.4005  -20.4295  -14.9896 O   0  0  0  0  0  0  0  0  0  0  0  0
   17.3385  -22.1989  -15.8200 O   0  0  0  0  0  0  0  0  0  0  0  0
  2 12  2  0
  2  1  1  0
  3  2  1  0
  4  5  1  0
  4  3  2  0
  5 11  2  0
  6  7  1  0
  6  5  1  0
  7  8  1  1
  9  7  1  0
  9 13  1  0
 10  9  2  0
 11 12  1  0
 13 14  1  0
 15 14  1  0
 15 16  2  0
 18 17  1  0
 19 18  2  0
 20 18  1  0
 21 22  1  0
 21 20  1  0
 22 23  1  0
 24 23  1  6
 24 25  1  0
 24 26  1  0
 25 15  1  0
 26 27  2  0
 26 28  1  0
M  END
$$$$
