YGR.pdb
     RDKit          3D

 28 28  0  0  1  0  0  0  0  0999 V2000
   28.1132  -20.5762   -3.6854 O   0  0  0  0  0  0  0  0  0  0  0  0
   27.8699  -20.2276   -5.0123 C   0  0  0  0  0  0  0  0  0  0  0  0
   26.5707  -20.2345   -5.4990 C   0  0  0  0  0  0  0  0  0  0  0  0
   26.3213  -19.8908   -6.8111 C   0  0  0  0  0  0  0  0  0  0  0  0
   27.3691  -19.5408   -7.6350 C   0  0  0  0  0  0  0  0  0  0  0  0
   27.0782  -19.1736   -9.0466 C   0  0  0  0  0  0  0  0  0  0  0  0
   26.6174  -20.3918   -9.8214 C   0  0  2  0  0  0  0  0  0  0  0  0
   27.4145  -21.5446   -9.4545 N   0  0  0  0  0  0  0  0  0  0  0  0
   26.6996  -20.1066  -11.2694 C   0  0  0  0  0  0  0  0  0  0  0  0
   26.0026  -19.2020  -11.7971 O   0  0  0  0  0  0  0  0  0  0  0  0
   28.6594  -19.5415   -7.1252 C   0  0  0  0  0  0  0  0  0  0  0  0
   28.9427  -19.8786   -5.8230 C   0  0  0  0  0  0  0  0  0  0  0  0
   27.5789  -20.8615  -12.0917 N   0  0  0  0  0  0  0  0  0  0  0  0
   27.7220  -20.5859  -13.5069 C   0  0  0  0  0  0  0  0  0  0  0  0
   26.5711  -21.1241  -14.2799 C   0  0  0  0  0  0  0  0  0  0  0  0
   26.8079  -22.0698  -15.0843 O   0  0  0  0  0  0  0  0  0  0  0  0
   20.6036  -20.6181  -11.5923 N   0  0  0  0  0  0  0  0  0  0  0  0
   20.4234  -21.9715  -11.1955 C   0  0  0  0  0  0  0  0  0  0  0  0
   19.2761  -22.3116  -10.7037 N   0  0  0  0  0  0  0  0  0  0  0  0
   21.4528  -22.9382  -11.3243 N   0  0  0  0  0  0  0  0  0  0  0  0
   22.7250  -22.4969  -11.9416 C   0  0  0  0  0  0  0  0  0  0  0  0
   22.8120  -22.9477  -13.3474 C   0  0  0  0  0  0  0  0  0  0  0  0
   23.9880  -22.5858  -14.1068 C   0  0  0  0  0  0  0  0  0  0  0  0
   24.1624  -21.3709  -14.9174 C   0  0  2  0  0  0  0  0  0  0  0  0
   25.2631  -20.6423  -14.1613 N   0  0  0  0  0  0  0  0  0  0  0  0
   23.0532  -20.4157  -15.0306 C   0  0  0  0  0  0  0  0  0  0  0  0
   22.0891  -20.7346  -15.8272 O   0  0  0  0  0  0  0  0  0  0  0  0
   22.8744  -19.2157  -14.4044 O   0  0  0  0  0  0  0  0  0  0  0  0
  2 12  2  0
  2  1  1  0
  3  2  1  0
  4  5  1  0
  4  3  2  0
  5 11  2  0
  6  7  1  0
  6  5  1  0
  7  8  1  6
  9  7  1  0
  9 13  1  0
 10  9  2  0
 11 12  1  0
 13 14  1  0
 15 14  1  0
 15 16  2  0
 18 17  1  0
 19 18  2  0
 20 18  1  0
 21 22  1  0
 21 20  1  0
 22 23  1  0
 24 23  1  1
 24 25  1  0
 24 26  1  0
 25 15  1  0
 26 27  2  0
 26 28  1  0
M  END
$$$$
