YGR.pdb
     RDKit          3D

 28 28  0  0  1  0  0  0  0  0999 V2000
   31.1754  -21.6827   -7.4408 O   0  0  0  0  0  0  0  0  0  0  0  0
   30.5901  -21.6364   -8.7045 C   0  0  0  0  0  0  0  0  0  0  0  0
   29.2862  -21.1830   -8.8433 C   0  0  0  0  0  0  0  0  0  0  0  0
   28.6996  -21.1341  -10.0904 C   0  0  0  0  0  0  0  0  0  0  0  0
   29.4154  -21.5379  -11.1967 C   0  0  0  0  0  0  0  0  0  0  0  0
   28.7639  -21.4771  -12.5324 C   0  0  0  0  0  0  0  0  0  0  0  0
   28.2753  -20.0705  -12.8144 C   0  0  2  0  0  0  0  0  0  0  0  0
   27.2907  -19.6793  -11.8262 N   0  0  0  0  0  0  0  0  0  0  0  0
   27.7285  -20.0119  -14.1864 C   0  0  0  0  0  0  0  0  0  0  0  0
   26.5112  -19.7718  -14.3942 O   0  0  0  0  0  0  0  0  0  0  0  0
   30.7176  -21.9874  -11.0323 C   0  0  0  0  0  0  0  0  0  0  0  0
   31.3320  -22.0488   -9.8042 C   0  0  0  0  0  0  0  0  0  0  0  0
   28.5838  -20.2290  -15.3001 N   0  0  0  0  0  0  0  0  0  0  0  0
   28.0953  -20.1493  -16.6618 C   0  0  0  0  0  0  0  0  0  0  0  0
   26.7952  -20.8561  -16.8102 C   0  0  0  0  0  0  0  0  0  0  0  0
   26.7788  -22.0938  -16.5548 O   0  0  0  0  0  0  0  0  0  0  0  0
   24.6215  -23.0037  -12.9157 N   0  0  0  0  0  0  0  0  0  0  0  0
   24.5979  -21.7433  -12.2582 C   0  0  0  0  0  0  0  0  0  0  0  0
   25.4074  -21.5622  -11.2653 N   0  0  0  0  0  0  0  0  0  0  0  0
   23.7244  -20.7005  -12.6585 N   0  0  0  0  0  0  0  0  0  0  0  0
   22.7015  -21.0262  -13.6792 C   0  0  0  0  0  0  0  0  0  0  0  0
   23.0846  -20.4829  -15.0002 C   0  0  0  0  0  0  0  0  0  0  0  0
   24.0678  -21.2067  -15.7748 C   0  0  0  0  0  0  0  0  0  0  0  0
   24.3317  -21.0500  -17.2133 C   0  0  2  0  0  0  0  0  0  0  0  0
   25.6116  -20.2278  -17.2117 N   0  0  0  0  0  0  0  0  0  0  0  0
   23.3770  -20.3049  -18.0434 C   0  0  0  0  0  0  0  0  0  0  0  0
   23.6950  -19.0923  -18.3504 O   0  0  0  0  0  0  0  0  0  0  0  0
   22.1786  -20.7062  -18.5596 O   0  0  0  0  0  0  0  0  0  0  0  0
  2 12  2  0
  2  1  1  0
  3  2  1  0
  4  5  1  0
  4  3  2  0
  5 11  2  0
  6  7  1  0
  6  5  1  0
  7  8  1  1
  9  7  1  0
  9 13  1  0
 10  9  2  0
 11 12  1  0
 13 14  1  0
 15 14  1  0
 15 16  2  0
 18 17  1  0
 19 18  2  0
 20 18  1  0
 21 22  1  0
 21 20  1  0
 22 23  1  0
 24 23  1  1
 24 25  1  0
 24 26  1  0
 25 15  1  0
 26 27  2  0
 26 28  1  0
M  END
$$$$
