YGR.pdb
     RDKit          3D

 28 28  0  0  1  0  0  0  0  0999 V2000
   29.9312  -18.6310   -3.5896 O   0  0  0  0  0  0  0  0  0  0  0  0
   29.1325  -19.2432   -4.5533 C   0  0  0  0  0  0  0  0  0  0  0  0
   27.7540  -19.2580   -4.3971 C   0  0  0  0  0  0  0  0  0  0  0  0
   26.9564  -19.8618   -5.3463 C   0  0  0  0  0  0  0  0  0  0  0  0
   27.5361  -20.4499   -6.4497 C   0  0  0  0  0  0  0  0  0  0  0  0
   26.6577  -21.0957   -7.4613 C   0  0  0  0  0  0  0  0  0  0  0  0
   26.8940  -20.4847   -8.8280 C   0  0  2  0  0  0  0  0  0  0  0  0
   26.5220  -19.0845   -8.8171 N   0  0  0  0  0  0  0  0  0  0  0  0
   26.1318  -21.2468   -9.8394 C   0  0  0  0  0  0  0  0  0  0  0  0
   26.4017  -22.4497  -10.0901 O   0  0  0  0  0  0  0  0  0  0  0  0
   28.9167  -20.4222   -6.5835 C   0  0  0  0  0  0  0  0  0  0  0  0
   29.7405  -19.8291   -5.6565 C   0  0  0  0  0  0  0  0  0  0  0  0
   25.0720  -20.6202  -10.5488 N   0  0  0  0  0  0  0  0  0  0  0  0
   24.6855  -21.0515  -11.8769 C   0  0  0  0  0  0  0  0  0  0  0  0
   23.5256  -20.2692  -12.3813 C   0  0  0  0  0  0  0  0  0  0  0  0
   23.7017  -19.0317  -12.5682 O   0  0  0  0  0  0  0  0  0  0  0  0
   25.7367  -18.2343  -18.2495 N   0  0  0  0  0  0  0  0  0  0  0  0
   24.4668  -17.6153  -18.0889 C   0  0  0  0  0  0  0  0  0  0  0  0
   24.3064  -16.4259  -18.5723 N   0  0  0  0  0  0  0  0  0  0  0  0
   23.3928  -18.2597  -17.4240 N   0  0  0  0  0  0  0  0  0  0  0  0
   23.6609  -19.5921  -16.8349 C   0  0  0  0  0  0  0  0  0  0  0  0
   22.4152  -20.1998  -16.3191 C   0  0  0  0  0  0  0  0  0  0  0  0
   22.4209  -20.7249  -14.9719 C   0  0  0  0  0  0  0  0  0  0  0  0
   21.5197  -20.3299  -13.8786 C   0  0  2  0  0  0  0  0  0  0  0  0
   22.2722  -20.8276  -12.6538 N   0  0  0  0  0  0  0  0  0  0  0  0
   20.1811  -20.9275  -13.7975 C   0  0  0  0  0  0  0  0  0  0  0  0
   19.2205  -20.1545  -13.4160 O   0  0  0  0  0  0  0  0  0  0  0  0
   19.7824  -22.2032  -14.0759 O   0  0  0  0  0  0  0  0  0  0  0  0
  2 12  2  0
  2  1  1  0
  3  2  1  0
  4  5  1  0
  4  3  2  0
  5 11  2  0
  6  7  1  0
  6  5  1  0
  7  8  1  1
  9  7  1  0
  9 13  1  0
 10  9  2  0
 11 12  1  0
 13 14  1  0
 15 14  1  0
 15 16  2  0
 18 17  1  0
 19 18  2  0
 20 18  1  0
 21 22  1  0
 21 20  1  0
 22 23  1  0
 24 23  1  6
 24 25  1  0
 24 26  1  0
 25 15  1  0
 26 27  2  0
 26 28  1  0
M  END
$$$$
