YGR.pdb
     RDKit          3D

 28 28  0  0  1  0  0  0  0  0999 V2000
   30.3875   -8.4630  -18.0516 O   0  0  0  0  0  0  0  0  0  0  0  0
   31.4962   -8.7986  -17.2773 C   0  0  0  0  0  0  0  0  0  0  0  0
   31.9235  -10.1174  -17.2214 C   0  0  0  0  0  0  0  0  0  0  0  0
   33.0200  -10.4578  -16.4574 C   0  0  0  0  0  0  0  0  0  0  0  0
   33.6880   -9.4814  -15.7506 C   0  0  0  0  0  0  0  0  0  0  0  0
   34.8681   -9.8700  -14.9329 C   0  0  0  0  0  0  0  0  0  0  0  0
   36.1469   -9.4194  -15.6098 C   0  0  2  0  0  0  0  0  0  0  0  0
   36.3378  -10.1489  -16.8469 N   0  0  0  0  0  0  0  0  0  0  0  0
   37.2812   -9.6085  -14.6811 C   0  0  0  0  0  0  0  0  0  0  0  0
   38.0646  -10.5858  -14.7983 O   0  0  0  0  0  0  0  0  0  0  0  0
   33.2417   -8.1698  -15.8225 C   0  0  0  0  0  0  0  0  0  0  0  0
   32.1528   -7.7965  -16.5740 C   0  0  0  0  0  0  0  0  0  0  0  0
   37.5014   -8.6758  -13.6319 N   0  0  0  0  0  0  0  0  0  0  0  0
   38.6087   -8.8168  -12.7083 C   0  0  0  0  0  0  0  0  0  0  0  0
   38.5740   -7.7620  -11.6604 C   0  0  0  0  0  0  0  0  0  0  0  0
   37.6805   -6.8742  -11.7646 O   0  0  0  0  0  0  0  0  0  0  0  0
   42.1752  -11.1466   -6.0224 N   0  0  0  0  0  0  0  0  0  0  0  0
   43.0463  -10.7181   -7.0613 C   0  0  0  0  0  0  0  0  0  0  0  0
   44.0740  -11.4554   -7.3336 N   0  0  0  0  0  0  0  0  0  0  0  0
   42.8184   -9.5240   -7.7914 N   0  0  0  0  0  0  0  0  0  0  0  0
   41.4980   -8.8720   -7.6313 C   0  0  0  0  0  0  0  0  0  0  0  0
   41.4055   -7.6577   -8.4703 C   0  0  0  0  0  0  0  0  0  0  0  0
   40.1488   -6.9430   -8.4973 C   0  0  0  0  0  0  0  0  0  0  0  0
   39.4396   -6.4720   -9.6968 C   0  0  2  0  0  0  0  0  0  0  0  0
   39.4669   -7.7067  -10.5848 N   0  0  0  0  0  0  0  0  0  0  0  0
   40.0217   -5.3883  -10.4982 C   0  0  0  0  0  0  0  0  0  0  0  0
   39.7792   -4.1817  -10.1094 O   0  0  0  0  0  0  0  0  0  0  0  0
   40.8044   -5.4590  -11.6145 O   0  0  0  0  0  0  0  0  0  0  0  0
  2 12  2  0
  2  1  1  0
  3  2  1  0
  4  5  1  0
  4  3  2  0
  5 11  2  0
  6  7  1  0
  6  5  1  0
  7  8  1  6
  9  7  1  0
  9 13  1  0
 10  9  2  0
 11 12  1  0
 13 14  1  0
 15 14  1  0
 15 16  2  0
 18 17  1  0
 19 18  2  0
 20 18  1  0
 21 22  1  0
 21 20  1  0
 22 23  1  0
 24 23  1  1
 24 25  1  0
 24 26  1  0
 25 15  1  0
 26 27  2  0
 26 28  1  0
M  END
$$$$
