YGR.pdb
     RDKit          3D

 28 28  0  0  1  0  0  0  0  0999 V2000
   20.2905  -11.4835  -19.5107 O   0  0  0  0  0  0  0  0  0  0  0  0
   20.5087  -12.7591  -18.9943 C   0  0  0  0  0  0  0  0  0  0  0  0
   20.3875  -13.8667  -19.8210 C   0  0  0  0  0  0  0  0  0  0  0  0
   20.6019  -15.1327  -19.3178 C   0  0  0  0  0  0  0  0  0  0  0  0
   20.9367  -15.2909  -17.9903 C   0  0  0  0  0  0  0  0  0  0  0  0
   21.1635  -16.6649  -17.4679 C   0  0  0  0  0  0  0  0  0  0  0  0
   22.6418  -16.9977  -17.4913 C   0  0  2  0  0  0  0  0  0  0  0  0
   23.0927  -17.1610  -18.8584 N   0  0  0  0  0  0  0  0  0  0  0  0
   22.8787  -18.2148  -16.6867 C   0  0  0  0  0  0  0  0  0  0  0  0
   23.0382  -19.3371  -17.2323 O   0  0  0  0  0  0  0  0  0  0  0  0
   21.0519  -14.1680  -17.1837 C   0  0  0  0  0  0  0  0  0  0  0  0
   20.8451  -12.8926  -17.6530 C   0  0  0  0  0  0  0  0  0  0  0  0
   22.9295  -18.1287  -15.2692 N   0  0  0  0  0  0  0  0  0  0  0  0
   23.1897  -19.2915  -14.4450 C   0  0  0  0  0  0  0  0  0  0  0  0
   24.6495  -19.4965  -14.2475 C   0  0  0  0  0  0  0  0  0  0  0  0
   25.4304  -18.7269  -14.8761 O   0  0  0  0  0  0  0  0  0  0  0  0
   23.2803  -22.2453   -7.5206 N   0  0  0  0  0  0  0  0  0  0  0  0
   23.2401  -21.0835   -8.3393 C   0  0  0  0  0  0  0  0  0  0  0  0
   22.0821  -20.5789   -8.6195 N   0  0  0  0  0  0  0  0  0  0  0  0
   24.4176  -20.4771   -8.8457 N   0  0  0  0  0  0  0  0  0  0  0  0
   24.6639  -20.5847  -10.3024 C   0  0  0  0  0  0  0  0  0  0  0  0
   26.0162  -20.0939  -10.6452 C   0  0  0  0  0  0  0  0  0  0  0  0
   26.7368  -20.7667  -11.7028 C   0  0  0  0  0  0  0  0  0  0  0  0
   26.6842  -20.4424  -13.1366 C   0  0  2  0  0  0  0  0  0  0  0  0
   25.1891  -20.4824  -13.4145 N   0  0  0  0  0  0  0  0  0  0  0  0
   27.2972  -21.3598  -14.1051 C   0  0  0  0  0  0  0  0  0  0  0  0
   26.5023  -22.1588  -14.7340 O   0  0  0  0  0  0  0  0  0  0  0  0
   28.6086  -21.4989  -14.4582 O   0  0  0  0  0  0  0  0  0  0  0  0
  2 12  2  0
  2  1  1  0
  3  2  1  0
  4  5  1  0
  4  3  2  0
  5 11  2  0
  6  7  1  0
  6  5  1  0
  7  8  1  6
  9  7  1  0
  9 13  1  0
 10  9  2  0
 11 12  1  0
 13 14  1  0
 15 14  1  0
 15 16  2  0
 18 17  1  0
 19 18  2  0
 20 18  1  0
 21 22  1  0
 21 20  1  0
 22 23  1  0
 24 23  1  1
 24 25  1  0
 24 26  1  0
 25 15  1  0
 26 27  2  0
 26 28  1  0
M  END
$$$$
