YGR.pdb
     RDKit          3D

 28 28  0  0  1  0  0  0  0  0999 V2000
   28.9469  -15.4460  -18.5886 O   0  0  0  0  0  0  0  0  0  0  0  0
   28.1485  -15.9941  -17.5868 C   0  0  0  0  0  0  0  0  0  0  0  0
   28.2949  -17.3303  -17.2434 C   0  0  0  0  0  0  0  0  0  0  0  0
   27.5086  -17.8805  -16.2530 C   0  0  0  0  0  0  0  0  0  0  0  0
   26.5777  -17.0959  -15.6071 C   0  0  0  0  0  0  0  0  0  0  0  0
   25.7399  -17.7091  -14.5420 C   0  0  0  0  0  0  0  0  0  0  0  0
   24.9174  -18.8475  -15.1115 C   0  0  2  0  0  0  0  0  0  0  0  0
   24.0983  -18.3690  -16.2066 N   0  0  0  0  0  0  0  0  0  0  0  0
   24.0992  -19.4424  -14.0339 C   0  0  0  0  0  0  0  0  0  0  0  0
   24.6194  -19.8215  -12.9530 O   0  0  0  0  0  0  0  0  0  0  0  0
   26.4501  -15.7625  -15.9682 C   0  0  0  0  0  0  0  0  0  0  0  0
   27.2174  -15.1828  -16.9504 C   0  0  0  0  0  0  0  0  0  0  0  0
   22.6974  -19.5945  -14.2100 N   0  0  0  0  0  0  0  0  0  0  0  0
   21.8483  -20.1039  -13.1523 C   0  0  0  0  0  0  0  0  0  0  0  0
   20.7419  -20.9324  -13.7013 C   0  0  0  0  0  0  0  0  0  0  0  0
   20.5723  -20.9119  -14.9536 O   0  0  0  0  0  0  0  0  0  0  0  0
   19.6059  -27.3739  -12.9445 N   0  0  0  0  0  0  0  0  0  0  0  0
   20.1627  -27.3688  -11.6363 C   0  0  0  0  0  0  0  0  0  0  0  0
   21.1028  -28.2182  -11.3741 N   0  0  0  0  0  0  0  0  0  0  0  0
   19.7197  -26.4712  -10.6320 N   0  0  0  0  0  0  0  0  0  0  0  0
   18.7279  -25.4449  -11.0284 C   0  0  0  0  0  0  0  0  0  0  0  0
   19.2732  -24.5667  -12.0861 C   0  0  0  0  0  0  0  0  0  0  0  0
   18.4356  -23.4978  -12.5824 C   0  0  0  0  0  0  0  0  0  0  0  0
   18.8000  -22.5103  -13.6098 C   0  0  2  0  0  0  0  0  0  0  0  0
   19.8957  -21.7186  -12.9121 N   0  0  0  0  0  0  0  0  0  0  0  0
   17.8048  -21.5219  -14.0435 C   0  0  0  0  0  0  0  0  0  0  0  0
   17.6457  -20.4865  -13.2897 O   0  0  0  0  0  0  0  0  0  0  0  0
   17.0058  -21.5237  -15.1506 O   0  0  0  0  0  0  0  0  0  0  0  0
  2 12  2  0
  2  1  1  0
  3  2  1  0
  4  5  1  0
  4  3  2  0
  5 11  2  0
  6  7  1  0
  6  5  1  0
  7  8  1  6
  9  7  1  0
  9 13  1  0
 10  9  2  0
 11 12  1  0
 13 14  1  0
 15 14  1  0
 15 16  2  0
 18 17  1  0
 19 18  2  0
 20 18  1  0
 21 22  1  0
 21 20  1  0
 22 23  1  0
 24 23  1  1
 24 25  1  0
 24 26  1  0
 25 15  1  0
 26 27  2  0
 26 28  1  0
M  END
$$$$
