YGR.pdb
     RDKit          3D

 28 28  0  0  1  0  0  0  0  0999 V2000
   28.8991  -18.9464   -3.4945 O   0  0  0  0  0  0  0  0  0  0  0  0
   28.6844  -19.3301   -4.8167 C   0  0  0  0  0  0  0  0  0  0  0  0
   27.6553  -18.7495   -5.5438 C   0  0  0  0  0  0  0  0  0  0  0  0
   27.4361  -19.1237   -6.8529 C   0  0  0  0  0  0  0  0  0  0  0  0
   28.2445  -20.0767   -7.4339 C   0  0  0  0  0  0  0  0  0  0  0  0
   27.9909  -20.4658   -8.8469 C   0  0  0  0  0  0  0  0  0  0  0  0
   26.5153  -20.3406   -9.1689 C   0  0  2  0  0  0  0  0  0  0  0  0
   25.7525  -21.2849   -8.3781 N   0  0  0  0  0  0  0  0  0  0  0  0
   26.3145  -20.5507  -10.6181 C   0  0  0  0  0  0  0  0  0  0  0  0
   26.7895  -19.7513  -11.4655 O   0  0  0  0  0  0  0  0  0  0  0  0
   29.2669  -20.6428   -6.6863 C   0  0  0  0  0  0  0  0  0  0  0  0
   29.5126  -20.2928   -5.3799 C   0  0  0  0  0  0  0  0  0  0  0  0
   25.5728  -21.6731  -11.0756 N   0  0  0  0  0  0  0  0  0  0  0  0
   25.2365  -21.8442  -12.4744 C   0  0  0  0  0  0  0  0  0  0  0  0
   23.9011  -21.2663  -12.7822 C   0  0  0  0  0  0  0  0  0  0  0  0
   23.5405  -20.2575  -12.1117 O   0  0  0  0  0  0  0  0  0  0  0  0
   18.8491  -17.0890  -14.6993 N   0  0  0  0  0  0  0  0  0  0  0  0
   19.4696  -16.5769  -13.5270 C   0  0  0  0  0  0  0  0  0  0  0  0
   18.7393  -15.9004  -12.7005 N   0  0  0  0  0  0  0  0  0  0  0  0
   20.8440  -16.7869  -13.2485 N   0  0  0  0  0  0  0  0  0  0  0  0
   21.6325  -17.5399  -14.2513 C   0  0  0  0  0  0  0  0  0  0  0  0
   20.9778  -18.8249  -14.5786 C   0  0  0  0  0  0  0  0  0  0  0  0
   21.7990  -20.0139  -14.6292 C   0  0  0  0  0  0  0  0  0  0  0  0
   21.6230  -21.2299  -13.8205 C   0  0  2  0  0  0  0  0  0  0  0  0
   23.0412  -21.7769  -13.7604 N   0  0  0  0  0  0  0  0  0  0  0  0
   20.7922  -22.3243  -14.3376 C   0  0  0  0  0  0  0  0  0  0  0  0
   19.5946  -22.4192  -13.8658 O   0  0  0  0  0  0  0  0  0  0  0  0
   21.0936  -23.2774  -15.2676 O   0  0  0  0  0  0  0  0  0  0  0  0
  2 12  2  0
  2  1  1  0
  3  2  1  0
  4  5  1  0
  4  3  2  0
  5 11  2  0
  6  7  1  0
  6  5  1  0
  7  8  1  1
  9  7  1  0
  9 13  1  0
 10  9  2  0
 11 12  1  0
 13 14  1  0
 15 14  1  0
 15 16  2  0
 18 17  1  0
 19 18  2  0
 20 18  1  0
 21 22  1  0
 21 20  1  0
 22 23  1  0
 24 23  1  6
 24 25  1  0
 24 26  1  0
 25 15  1  0
 26 27  2  0
 26 28  1  0
M  END
$$$$
