YGR.pdb
     RDKit          3D

 28 28  0  0  1  0  0  0  0  0999 V2000
   29.2587  -19.2654   -3.5700 O   0  0  0  0  0  0  0  0  0  0  0  0
   28.5334  -19.3931   -4.7528 C   0  0  0  0  0  0  0  0  0  0  0  0
   29.0687  -18.9223   -5.9431 C   0  0  0  0  0  0  0  0  0  0  0  0
   28.3573  -19.0447   -7.1181 C   0  0  0  0  0  0  0  0  0  0  0  0
   27.1130  -19.6369   -7.1031 C   0  0  0  0  0  0  0  0  0  0  0  0
   26.3626  -19.7589   -8.3815 C   0  0  0  0  0  0  0  0  0  0  0  0
   26.2846  -21.2112   -8.8076 C   0  0  2  0  0  0  0  0  0  0  0  0
   27.6182  -21.7550   -8.9650 N   0  0  0  0  0  0  0  0  0  0  0  0
   25.5012  -21.3098  -10.0571 C   0  0  0  0  0  0  0  0  0  0  0  0
   24.3712  -20.7670  -10.1634 O   0  0  0  0  0  0  0  0  0  0  0  0
   26.5991  -20.0998   -5.9005 C   0  0  0  0  0  0  0  0  0  0  0  0
   27.2813  -19.9937   -4.7119 C   0  0  0  0  0  0  0  0  0  0  0  0
   26.0232  -22.0283  -11.1662 N   0  0  0  0  0  0  0  0  0  0  0  0
   25.2346  -22.2666  -12.3581 C   0  0  0  0  0  0  0  0  0  0  0  0
   25.6648  -21.3831  -13.4745 C   0  0  0  0  0  0  0  0  0  0  0  0
   26.1858  -20.2740  -13.1647 O   0  0  0  0  0  0  0  0  0  0  0  0
   25.5620  -25.8769  -16.3631 N   0  0  0  0  0  0  0  0  0  0  0  0
   26.8965  -26.0182  -16.8330 C   0  0  0  0  0  0  0  0  0  0  0  0
   27.2034  -27.1015  -17.4703 N   0  0  0  0  0  0  0  0  0  0  0  0
   27.8794  -25.0180  -16.6231 N   0  0  0  0  0  0  0  0  0  0  0  0
   27.4476  -23.7735  -15.9456 C   0  0  0  0  0  0  0  0  0  0  0  0
   27.6113  -22.6049  -16.8371 C   0  0  0  0  0  0  0  0  0  0  0  0
   26.5225  -21.6575  -16.9244 C   0  0  0  0  0  0  0  0  0  0  0  0
   26.0731  -20.7458  -15.8612 C   0  0  2  0  0  0  0  0  0  0  0  0
   25.5227  -21.7151  -14.8260 N   0  0  0  0  0  0  0  0  0  0  0  0
   24.9885  -19.7959  -16.1382 C   0  0  0  0  0  0  0  0  0  0  0  0
   25.3223  -18.6727  -16.6793 O   0  0  0  0  0  0  0  0  0  0  0  0
   23.6477  -19.9205  -15.9132 O   0  0  0  0  0  0  0  0  0  0  0  0
  2 12  2  0
  2  1  1  0
  3  2  1  0
  4  5  1  0
  4  3  2  0
  5 11  2  0
  6  7  1  0
  6  5  1  0
  7  8  1  6
  9  7  1  0
  9 13  1  0
 10  9  2  0
 11 12  1  0
 13 14  1  0
 15 14  1  0
 15 16  2  0
 18 17  1  0
 19 18  2  0
 20 18  1  0
 21 22  1  0
 21 20  1  0
 22 23  1  0
 24 23  1  6
 24 25  1  0
 24 26  1  0
 25 15  1  0
 26 27  2  0
 26 28  1  0
M  END
$$$$
