YGR.pdb
     RDKit          3D

 28 28  0  0  1  0  0  0  0  0999 V2000
   32.1477  -11.7344  -26.2957 O   0  0  0  0  0  0  0  0  0  0  0  0
   31.1430  -12.4908  -25.6958 C   0  0  0  0  0  0  0  0  0  0  0  0
   31.4392  -13.7447  -25.1813 C   0  0  0  0  0  0  0  0  0  0  0  0
   30.4505  -14.4997  -24.5860 C   0  0  0  0  0  0  0  0  0  0  0  0
   29.1680  -14.0018  -24.5053 C   0  0  0  0  0  0  0  0  0  0  0  0
   28.1168  -14.8323  -23.8594 C   0  0  0  0  0  0  0  0  0  0  0  0
   27.9745  -14.4557  -22.3983 C   0  0  2  0  0  0  0  0  0  0  0  0
   29.2220  -14.6922  -21.7007 N   0  0  0  0  0  0  0  0  0  0  0  0
   26.8600  -15.2240  -21.8047 C   0  0  0  0  0  0  0  0  0  0  0  0
   27.0733  -16.1673  -21.0001 O   0  0  0  0  0  0  0  0  0  0  0  0
   28.8966  -12.7453  -25.0271 C   0  0  0  0  0  0  0  0  0  0  0  0
   29.8581  -11.9671  -25.6266 C   0  0  0  0  0  0  0  0  0  0  0  0
   25.5179  -14.9007  -22.1410 N   0  0  0  0  0  0  0  0  0  0  0  0
   24.3954  -15.6013  -21.5508 C   0  0  0  0  0  0  0  0  0  0  0  0
   23.1014  -15.0384  -22.0204 C   0  0  0  0  0  0  0  0  0  0  0  0
   23.1517  -14.0115  -22.7555 O   0  0  0  0  0  0  0  0  0  0  0  0
   16.0947  -19.5254  -24.1030 N   0  0  0  0  0  0  0  0  0  0  0  0
   15.5937  -18.2028  -24.2492 C   0  0  0  0  0  0  0  0  0  0  0  0
   14.3964  -18.0561  -24.7169 N   0  0  0  0  0  0  0  0  0  0  0  0
   16.3618  -17.0630  -23.9005 N   0  0  0  0  0  0  0  0  0  0  0  0
   17.7432  -17.2966  -23.4193 C   0  0  0  0  0  0  0  0  0  0  0  0
   18.4079  -16.0181  -23.0867 C   0  0  0  0  0  0  0  0  0  0  0  0
   19.7691  -16.0647  -22.6012 C   0  0  0  0  0  0  0  0  0  0  0  0
   20.6122  -14.9092  -22.2584 C   0  0  2  0  0  0  0  0  0  0  0  0
   21.8543  -15.5814  -21.6933 N   0  0  0  0  0  0  0  0  0  0  0  0
   20.1597  -13.9689  -21.2257 C   0  0  0  0  0  0  0  0  0  0  0  0
   20.6323  -14.1382  -20.0367 O   0  0  0  0  0  0  0  0  0  0  0  0
   19.3006  -12.9130  -21.3304 O   0  0  0  0  0  0  0  0  0  0  0  0
  2 12  2  0
  2  1  1  0
  3  2  1  0
  4  5  1  0
  4  3  2  0
  5 11  2  0
  6  7  1  0
  6  5  1  0
  7  8  1  1
  9  7  1  0
  9 13  1  0
 10  9  2  0
 11 12  1  0
 13 14  1  0
 15 14  1  0
 15 16  2  0
 18 17  1  0
 19 18  2  0
 20 18  1  0
 21 22  1  0
 21 20  1  0
 22 23  1  0
 24 23  1  1
 24 25  1  0
 24 26  1  0
 25 15  1  0
 26 27  2  0
 26 28  1  0
M  END
$$$$
