EMH.pdb
     RDKit          3D

 28 28  0  0  1  0  0  0  0  0999 V2000
   18.5179  -12.5052  -17.4054 N   0  0  0  0  0  0  0  0  0  0  0  0
   18.5154  -11.0682  -17.2600 C   0  0  1  0  0  0  0  0  0  0  0  0
   17.1637  -10.5779  -16.8185 C   0  0  0  0  0  0  0  0  0  0  0  0
   16.6279  -11.4220  -15.6715 C   0  0  0  0  0  0  0  0  0  0  0  0
   15.3241  -10.9208  -15.2071 C   0  0  0  0  0  0  0  0  0  0  0  0
   14.6931  -10.0385  -15.8263 O   0  0  0  0  0  0  0  0  0  0  0  0
   19.5339  -10.6074  -16.2891 C   0  0  0  0  0  0  0  0  0  0  0  0
   19.9778  -11.4328  -15.4630 O   0  0  0  0  0  0  0  0  0  0  0  0
   14.7910  -11.4712  -14.0245 O   0  0  0  0  0  0  0  0  0  0  0  0
   26.5081   -9.5427  -14.6452 C   0  0  0  0  0  0  0  0  0  0  0  0
   25.0860  -10.1889  -15.5669 S   0  0  0  0  0  0  0  0  0  0  0  0
   23.6430   -9.1695  -15.1706 C   0  0  0  0  0  0  0  0  0  0  0  0
   22.4032   -9.6643  -15.8709 C   0  0  0  0  0  0  0  0  0  0  0  0
   21.1971   -8.8607  -15.5275 C   0  0  2  0  0  0  0  0  0  0  0  0
   20.0251   -9.2809  -16.2501 N   0  0  0  0  0  0  0  0  0  0  0  0
   21.3754   -7.4046  -15.6577 C   0  0  0  0  0  0  0  0  0  0  0  0
   21.6259   -6.9828  -16.8420 O   0  0  0  0  0  0  0  0  0  0  0  0
   21.2891   -6.4903  -14.5916 N   0  0  0  0  0  0  0  0  0  0  0  0
   21.4228   -5.0793  -14.8407 C   0  0  1  0  0  0  0  0  0  0  0  0
   20.3773   -4.2736  -14.1445 C   0  0  0  0  0  0  0  0  0  0  0  0
   19.1005   -4.3535  -14.8792 C   0  0  0  0  0  0  0  0  0  0  0  0
   18.8930   -5.1008  -16.0507 C   0  0  0  0  0  0  0  0  0  0  0  0
   17.6399   -4.9558  -16.4660 N   0  0  0  0  0  0  0  0  0  0  0  0
   17.0299   -4.1397  -15.6006 C   0  0  0  0  0  0  0  0  0  0  0  0
   17.9053   -3.7805  -14.6519 N   0  0  0  0  0  0  0  0  0  0  0  0
   22.7635   -4.6725  -14.3739 C   0  0  0  0  0  0  0  0  0  0  0  0
   23.5335   -5.5316  -13.8343 O   0  0  0  0  0  0  0  0  0  0  0  0
   23.1892   -3.3832  -14.5166 O   0  0  0  0  0  0  0  0  0  0  0  0
  2  3  1  0
  2  1  1  1
  3  4  1  0
  4  5  1  0
  5  9  1  0
  5  6  2  0
  7  2  1  0
  8  7  2  0
 11 12  1  0
 11 10  1  0
 12 13  1  0
 14 13  1  6
 14 15  1  0
 15  7  1  0
 16 14  1  0
 16 17  2  0
 18 16  1  0
 19 18  1  0
 19 20  1  1
 21 20  1  0
 22 21  2  0
 23 22  1  0
 24 23  1  0
 24 25  2  0
 25 21  1  0
 26 19  1  0
 26 28  1  0
 27 26  2  0
M  END
$$$$
