EMH.pdb
     RDKit          3D

 28 28  0  0  1  0  0  0  0  0999 V2000
   19.2170  -14.3236  -17.6108 N   0  0  0  0  0  0  0  0  0  0  0  0
   19.9291  -13.2016  -18.1767 C   0  0  1  0  0  0  0  0  0  0  0  0
   18.9695  -12.1757  -18.7144 C   0  0  0  0  0  0  0  0  0  0  0  0
   17.8671  -11.8828  -17.7074 C   0  0  0  0  0  0  0  0  0  0  0  0
   16.9100  -10.8988  -18.2388 C   0  0  0  0  0  0  0  0  0  0  0  0
   15.9096  -10.5279  -17.5893 O   0  0  0  0  0  0  0  0  0  0  0  0
   20.8196  -12.5539  -17.1869 C   0  0  0  0  0  0  0  0  0  0  0  0
   21.0747  -13.1700  -16.1304 O   0  0  0  0  0  0  0  0  0  0  0  0
   17.1531  -10.3715  -19.5227 O   0  0  0  0  0  0  0  0  0  0  0  0
   27.5206  -11.4054  -14.7156 C   0  0  0  0  0  0  0  0  0  0  0  0
   26.2416  -12.1525  -15.7622 S   0  0  0  0  0  0  0  0  0  0  0  0
   24.7715  -11.0972  -15.7012 C   0  0  0  0  0  0  0  0  0  0  0  0
   23.6684  -11.6288  -16.5803 C   0  0  0  0  0  0  0  0  0  0  0  0
   22.4767  -10.7354  -16.6003 C   0  0  2  0  0  0  0  0  0  0  0  0
   21.3915  -11.2738  -17.3779 N   0  0  0  0  0  0  0  0  0  0  0  0
   22.7577   -9.3509  -17.0164 C   0  0  0  0  0  0  0  0  0  0  0  0
   23.1661   -9.2091  -18.2232 O   0  0  0  0  0  0  0  0  0  0  0  0
   22.6077   -8.2218  -16.1900 N   0  0  0  0  0  0  0  0  0  0  0  0
   21.5881   -7.2484  -16.4793 C   0  0  1  0  0  0  0  0  0  0  0  0
   20.2437   -7.8672  -16.6705 C   0  0  0  0  0  0  0  0  0  0  0  0
   19.2705   -6.8459  -17.1019 C   0  0  0  0  0  0  0  0  0  0  0  0
   19.6000   -5.6495  -17.7608 C   0  0  0  0  0  0  0  0  0  0  0  0
   18.4997   -4.9468  -18.0036 N   0  0  0  0  0  0  0  0  0  0  0  0
   17.4690   -5.6500  -17.5240 C   0  0  0  0  0  0  0  0  0  0  0  0
   17.9321   -6.7861  -16.9850 N   0  0  0  0  0  0  0  0  0  0  0  0
   21.5478   -6.3002  -15.3479 C   0  0  0  0  0  0  0  0  0  0  0  0
   21.6282   -5.0483  -15.5680 O   0  0  0  0  0  0  0  0  0  0  0  0
   21.4225   -6.7510  -14.0653 O   0  0  0  0  0  0  0  0  0  0  0  0
  2  3  1  0
  2  1  1  1
  3  4  1  0
  4  5  1  0
  5  9  1  0
  5  6  2  0
  7  2  1  0
  8  7  2  0
 11 12  1  0
 11 10  1  0
 12 13  1  0
 14 13  1  6
 14 15  1  0
 15  7  1  0
 16 14  1  0
 16 17  2  0
 18 16  1  0
 19 18  1  0
 19 20  1  1
 21 20  1  0
 22 21  2  0
 23 22  1  0
 24 23  1  0
 24 25  2  0
 25 21  1  0
 26 19  1  0
 26 28  1  0
 27 26  2  0
M  END
$$$$
