EMH.pdb
     RDKit          3D

 28 28  0  0  1  0  0  0  0  0999 V2000
   20.0445  -12.8802  -16.4254 N   0  0  0  0  0  0  0  0  0  0  0  0
   19.7487  -11.5353  -16.8612 C   0  0  1  0  0  0  0  0  0  0  0  0
   18.3196  -11.1773  -16.5582 C   0  0  0  0  0  0  0  0  0  0  0  0
   17.3604  -12.0937  -17.3034 C   0  0  0  0  0  0  0  0  0  0  0  0
   15.9617  -11.7938  -16.9565 C   0  0  0  0  0  0  0  0  0  0  0  0
   15.0052  -12.4317  -17.4446 O   0  0  0  0  0  0  0  0  0  0  0  0
   20.6389  -10.5380  -16.2247 C   0  0  0  0  0  0  0  0  0  0  0  0
   21.0714  -10.7797  -15.0778 O   0  0  0  0  0  0  0  0  0  0  0  0
   15.7202  -10.7505  -16.0407 O   0  0  0  0  0  0  0  0  0  0  0  0
   25.7667   -4.6420  -17.2591 C   0  0  0  0  0  0  0  0  0  0  0  0
   24.7625   -5.9382  -18.0344 S   0  0  0  0  0  0  0  0  0  0  0  0
   23.6789   -6.6484  -16.7695 C   0  0  0  0  0  0  0  0  0  0  0  0
   22.8205   -7.7539  -17.3294 C   0  0  0  0  0  0  0  0  0  0  0  0
   21.9452   -8.3733  -16.2956 C   0  0  2  0  0  0  0  0  0  0  0  0
   21.0200   -9.3269  -16.8496 N   0  0  0  0  0  0  0  0  0  0  0  0
   21.2274   -7.4089  -15.4450 C   0  0  0  0  0  0  0  0  0  0  0  0
   20.2869   -6.7565  -16.0223 O   0  0  0  0  0  0  0  0  0  0  0  0
   21.5103   -7.1759  -14.0864 N   0  0  0  0  0  0  0  0  0  0  0  0
   20.5900   -6.4201  -13.2788 C   0  0  1  0  0  0  0  0  0  0  0  0
   20.3630   -7.0379  -11.9394 C   0  0  0  0  0  0  0  0  0  0  0  0
   19.4898   -6.1740  -11.1223 C   0  0  0  0  0  0  0  0  0  0  0  0
   18.8616   -5.0036  -11.5802 C   0  0  0  0  0  0  0  0  0  0  0  0
   18.1535   -4.4549  -10.5998 N   0  0  0  0  0  0  0  0  0  0  0  0
   18.3025   -5.2328   -9.5230 C   0  0  0  0  0  0  0  0  0  0  0  0
   19.1022   -6.2609   -9.8375 N   0  0  0  0  0  0  0  0  0  0  0  0
   21.1531   -5.0645  -13.1172 C   0  0  0  0  0  0  0  0  0  0  0  0
   22.4034   -4.9173  -12.9238 O   0  0  0  0  0  0  0  0  0  0  0  0
   20.3472   -3.9639  -13.1752 O   0  0  0  0  0  0  0  0  0  0  0  0
  2  3  1  0
  2  1  1  1
  3  4  1  0
  4  5  1  0
  5  9  1  0
  5  6  2  0
  7  2  1  0
  8  7  2  0
 11 12  1  0
 11 10  1  0
 12 13  1  0
 14 13  1  6
 14 15  1  0
 15  7  1  0
 16 14  1  0
 16 17  2  0
 18 16  1  0
 19 18  1  0
 19 20  1  1
 21 20  1  0
 22 21  2  0
 23 22  1  0
 24 23  1  0
 24 25  2  0
 25 21  1  0
 26 19  1  0
 26 28  1  0
 27 26  2  0
M  END
$$$$
