EMH.pdb
     RDKit          3D

 28 28  0  0  1  0  0  0  0  0999 V2000
   27.9021  -21.9489  -15.7602 N   0  0  0  0  0  0  0  0  0  0  0  0
   27.3858  -20.8511  -14.9764 C   0  0  1  0  0  0  0  0  0  0  0  0
   26.8896  -19.7452  -15.8671 C   0  0  0  0  0  0  0  0  0  0  0  0
   28.0449  -19.0757  -16.5965 C   0  0  0  0  0  0  0  0  0  0  0  0
   27.5683  -17.9730  -17.4472 C   0  0  0  0  0  0  0  0  0  0  0  0
   28.3448  -17.2961  -18.1536 O   0  0  0  0  0  0  0  0  0  0  0  0
   26.2854  -21.2777  -14.0822 C   0  0  0  0  0  0  0  0  0  0  0  0
   25.5910  -22.2575  -14.4268 O   0  0  0  0  0  0  0  0  0  0  0  0
   26.1874  -17.6929  -17.4489 O   0  0  0  0  0  0  0  0  0  0  0  0
   25.1885  -20.7215   -7.3701 C   0  0  0  0  0  0  0  0  0  0  0  0
   26.7253  -20.5940   -8.3246 S   0  0  0  0  0  0  0  0  0  0  0  0
   26.4004  -21.1877  -10.0040 C   0  0  0  0  0  0  0  0  0  0  0  0
   25.1410  -20.5854  -10.5729 C   0  0  0  0  0  0  0  0  0  0  0  0
   24.9010  -20.9968  -11.9842 C   0  0  2  0  0  0  0  0  0  0  0  0
   25.9817  -20.6296  -12.8615 N   0  0  0  0  0  0  0  0  0  0  0  0
   23.6181  -20.5394  -12.5445 C   0  0  0  0  0  0  0  0  0  0  0  0
   23.5867  -19.3155  -12.9247 O   0  0  0  0  0  0  0  0  0  0  0  0
   22.4716  -21.3443  -12.6775 N   0  0  0  0  0  0  0  0  0  0  0  0
   21.2632  -20.7904  -13.2284 C   0  0  1  0  0  0  0  0  0  0  0  0
   20.5856  -21.7237  -14.1755 C   0  0  0  0  0  0  0  0  0  0  0  0
   21.2605  -21.6960  -15.4870 C   0  0  0  0  0  0  0  0  0  0  0  0
   22.2791  -20.7980  -15.8477 C   0  0  0  0  0  0  0  0  0  0  0  0
   22.6682  -21.0303  -17.0960 N   0  0  0  0  0  0  0  0  0  0  0  0
   21.9350  -22.0498  -17.5542 C   0  0  0  0  0  0  0  0  0  0  0  0
   21.0935  -22.4469  -16.5901 N   0  0  0  0  0  0  0  0  0  0  0  0
   20.3634  -20.4806  -12.0992 C   0  0  0  0  0  0  0  0  0  0  0  0
   20.6797  -20.8430  -10.9198 O   0  0  0  0  0  0  0  0  0  0  0  0
   19.1942  -19.8062  -12.3049 O   0  0  0  0  0  0  0  0  0  0  0  0
  2  3  1  0
  2  1  1  6
  3  4  1  0
  4  5  1  0
  5  9  1  0
  5  6  2  0
  7  2  1  0
  8  7  2  0
 11 12  1  0
 11 10  1  0
 12 13  1  0
 14 13  1  1
 14 15  1  0
 15  7  1  0
 16 14  1  0
 16 17  2  0
 18 16  1  0
 19 18  1  0
 19 20  1  6
 21 20  1  0
 22 21  2  0
 23 22  1  0
 24 23  1  0
 24 25  2  0
 25 21  1  0
 26 19  1  0
 26 28  1  0
 27 26  2  0
M  END
$$$$
