EMH.pdb
     RDKit          3D

 28 28  0  0  1  0  0  0  0  0999 V2000
   23.6479  -15.4647  -17.9762 N   0  0  0  0  0  0  0  0  0  0  0  0
   23.0443  -14.1727  -17.7463 C   0  0  1  0  0  0  0  0  0  0  0  0
   21.7362  -14.3159  -17.0178 C   0  0  0  0  0  0  0  0  0  0  0  0
   20.8391  -15.3331  -17.7075 C   0  0  0  0  0  0  0  0  0  0  0  0
   19.4965  -15.3526  -17.1042 C   0  0  0  0  0  0  0  0  0  0  0  0
   19.2080  -14.6623  -16.1041 O   0  0  0  0  0  0  0  0  0  0  0  0
   23.9311  -13.2770  -16.9693 C   0  0  0  0  0  0  0  0  0  0  0  0
   24.8475  -13.7934  -16.2951 O   0  0  0  0  0  0  0  0  0  0  0  0
   18.5226  -16.1833  -17.6932 O   0  0  0  0  0  0  0  0  0  0  0  0
   29.2876  -11.4548  -16.8964 C   0  0  0  0  0  0  0  0  0  0  0  0
   28.5450   -9.8006  -16.9390 S   0  0  0  0  0  0  0  0  0  0  0  0
   26.9113   -9.8926  -16.1637 C   0  0  0  0  0  0  0  0  0  0  0  0
   25.9910  -10.8211  -16.9143 C   0  0  0  0  0  0  0  0  0  0  0  0
   24.6647  -10.9652  -16.2520 C   0  0  2  0  0  0  0  0  0  0  0  0
   23.7895  -11.8692  -16.9514 N   0  0  0  0  0  0  0  0  0  0  0  0
   23.9711   -9.6927  -15.9897 C   0  0  0  0  0  0  0  0  0  0  0  0
   23.6922   -8.9920  -17.0263 O   0  0  0  0  0  0  0  0  0  0  0  0
   23.6143   -9.2257  -14.7111 N   0  0  0  0  0  0  0  0  0  0  0  0
   22.8938   -7.9879  -14.5722 C   0  0  1  0  0  0  0  0  0  0  0  0
   23.4597   -6.8978  -15.4199 C   0  0  0  0  0  0  0  0  0  0  0  0
   22.7252   -5.6397  -15.1877 C   0  0  0  0  0  0  0  0  0  0  0  0
   22.5204   -5.0492  -13.9294 C   0  0  0  0  0  0  0  0  0  0  0  0
   21.8169   -3.9307  -14.0616 N   0  0  0  0  0  0  0  0  0  0  0  0
   21.5607   -3.7780  -15.3647 C   0  0  0  0  0  0  0  0  0  0  0  0
   22.1050   -4.8013  -16.0369 N   0  0  0  0  0  0  0  0  0  0  0  0
   21.4917   -8.2463  -14.9572 C   0  0  0  0  0  0  0  0  0  0  0  0
   21.2376   -8.9579  -15.9825 O   0  0  0  0  0  0  0  0  0  0  0  0
   20.4617   -7.7318  -14.2233 O   0  0  0  0  0  0  0  0  0  0  0  0
  2  3  1  0
  2  1  1  1
  3  4  1  0
  4  5  1  0
  5  9  1  0
  5  6  2  0
  7  2  1  0
  8  7  2  0
 11 12  1  0
 11 10  1  0
 12 13  1  0
 14 13  1  6
 14 15  1  0
 15  7  1  0
 16 14  1  0
 16 17  2  0
 18 16  1  0
 19 18  1  0
 19 20  1  6
 21 20  1  0
 22 21  2  0
 23 22  1  0
 24 23  1  0
 24 25  2  0
 25 21  1  0
 26 19  1  0
 26 28  1  0
 27 26  2  0
M  END
$$$$
