EMH.pdb
     RDKit          3D

 28 28  0  0  1  0  0  0  0  0999 V2000
   21.1847  -16.1273  -17.1385 N   0  0  0  0  0  0  0  0  0  0  0  0
   20.7987  -15.6309  -15.8382 C   0  0  1  0  0  0  0  0  0  0  0  0
   20.7560  -16.7471  -14.8309 C   0  0  0  0  0  0  0  0  0  0  0  0
   21.4184  -18.0013  -15.3818 C   0  0  0  0  0  0  0  0  0  0  0  0
   21.3209  -19.1168  -14.4263 C   0  0  0  0  0  0  0  0  0  0  0  0
   22.3220  -19.5753  -13.8366 O   0  0  0  0  0  0  0  0  0  0  0  0
   21.7199  -14.5792  -15.3506 C   0  0  0  0  0  0  0  0  0  0  0  0
   21.5370  -14.1199  -14.2032 O   0  0  0  0  0  0  0  0  0  0  0  0
   20.0462  -19.6667  -14.1848 O   0  0  0  0  0  0  0  0  0  0  0  0
   28.4968  -12.9555  -15.4000 C   0  0  0  0  0  0  0  0  0  0  0  0
   27.5505  -14.0800  -16.4628 S   0  0  0  0  0  0  0  0  0  0  0  0
   25.8585  -14.1731  -15.8249 C   0  0  0  0  0  0  0  0  0  0  0  0
   24.9983  -13.0591  -16.3650 C   0  0  0  0  0  0  0  0  0  0  0  0
   23.6638  -13.0005  -15.7061 C   0  0  2  0  0  0  0  0  0  0  0  0
   22.7922  -14.0689  -16.1201 N   0  0  0  0  0  0  0  0  0  0  0  0
   22.9736  -11.7062  -15.8375 C   0  0  0  0  0  0  0  0  0  0  0  0
   22.1987  -11.5942  -16.8526 O   0  0  0  0  0  0  0  0  0  0  0  0
   23.1163  -10.6297  -14.9426 N   0  0  0  0  0  0  0  0  0  0  0  0
   22.2798   -9.4665  -15.0765 C   0  0  1  0  0  0  0  0  0  0  0  0
   22.4329   -8.5169  -13.9355 C   0  0  0  0  0  0  0  0  0  0  0  0
   21.4877   -7.3934  -14.0786 C   0  0  0  0  0  0  0  0  0  0  0  0
   20.1190   -7.5264  -14.3667 C   0  0  0  0  0  0  0  0  0  0  0  0
   19.5510   -6.3280  -14.4368 N   0  0  0  0  0  0  0  0  0  0  0  0
   20.5077   -5.4242  -14.2027 C   0  0  0  0  0  0  0  0  0  0  0  0
   21.6657   -6.0634  -13.9884 N   0  0  0  0  0  0  0  0  0  0  0  0
   22.6512   -8.7974  -16.3395 C   0  0  0  0  0  0  0  0  0  0  0  0
   23.8801   -8.6508  -16.6407 O   0  0  0  0  0  0  0  0  0  0  0  0
   21.6899   -8.3349  -17.1916 O   0  0  0  0  0  0  0  0  0  0  0  0
  2  3  1  0
  2  1  1  6
  3  4  1  0
  4  5  1  0
  5  9  1  0
  5  6  2  0
  7  2  1  0
  8  7  2  0
 11 12  1  0
 11 10  1  0
 12 13  1  0
 14 13  1  6
 14 15  1  0
 15  7  1  0
 16 14  1  0
 16 17  2  0
 18 16  1  0
 19 18  1  0
 19 20  1  1
 21 20  1  0
 22 21  2  0
 23 22  1  0
 24 23  1  0
 24 25  2  0
 25 21  1  0
 26 19  1  0
 26 28  1  0
 27 26  2  0
M  END
$$$$
