EMH.pdb
     RDKit          3D

 28 28  0  0  1  0  0  0  0  0999 V2000
   27.1830  -20.6665  -16.0647 N   0  0  0  0  0  0  0  0  0  0  0  0
   26.2722  -19.8231  -15.3260 C   0  0  1  0  0  0  0  0  0  0  0  0
   25.5371  -18.8918  -16.2504 C   0  0  0  0  0  0  0  0  0  0  0  0
   26.5073  -17.9795  -16.9865 C   0  0  0  0  0  0  0  0  0  0  0  0
   25.8004  -17.1168  -17.9470 C   0  0  0  0  0  0  0  0  0  0  0  0
   25.5832  -17.4728  -19.1244 O   0  0  0  0  0  0  0  0  0  0  0  0
   25.2850  -20.6140  -14.5564 C   0  0  0  0  0  0  0  0  0  0  0  0
   24.8246  -21.6517  -15.0779 O   0  0  0  0  0  0  0  0  0  0  0  0
   25.3628  -15.8544  -17.4993 O   0  0  0  0  0  0  0  0  0  0  0  0
   28.1658  -21.0568   -9.4490 C   0  0  0  0  0  0  0  0  0  0  0  0
   26.6555  -20.2089   -9.9870 S   0  0  0  0  0  0  0  0  0  0  0  0
   25.4588  -21.4618  -10.5130 C   0  0  0  0  0  0  0  0  0  0  0  0
   24.1734  -20.8368  -10.9921 C   0  0  0  0  0  0  0  0  0  0  0  0
   23.9508  -21.0410  -12.4506 C   0  0  2  0  0  0  0  0  0  0  0  0
   24.8373  -20.2508  -13.2641 N   0  0  0  0  0  0  0  0  0  0  0  0
   22.5579  -20.8494  -12.8889 C   0  0  0  0  0  0  0  0  0  0  0  0
   22.1028  -19.6563  -12.7762 O   0  0  0  0  0  0  0  0  0  0  0  0
   21.7345  -21.8680  -13.4034 N   0  0  0  0  0  0  0  0  0  0  0  0
   20.3871  -21.5680  -13.8096 C   0  0  1  0  0  0  0  0  0  0  0  0
   19.7629  -22.6785  -14.5870 C   0  0  0  0  0  0  0  0  0  0  0  0
   18.4467  -22.2594  -15.1051 C   0  0  0  0  0  0  0  0  0  0  0  0
   17.9144  -20.9640  -14.9930 C   0  0  0  0  0  0  0  0  0  0  0  0
   16.7114  -20.9173  -15.5535 N   0  0  0  0  0  0  0  0  0  0  0  0
   16.4487  -22.1401  -16.0254 C   0  0  0  0  0  0  0  0  0  0  0  0
   17.4881  -22.9417  -15.7564 N   0  0  0  0  0  0  0  0  0  0  0  0
   19.6028  -21.3100  -12.5852 C   0  0  0  0  0  0  0  0  0  0  0  0
   19.7951  -22.0239  -11.5481 O   0  0  0  0  0  0  0  0  0  0  0  0
   18.6731  -20.3107  -12.5511 O   0  0  0  0  0  0  0  0  0  0  0  0
  2  3  1  0
  2  1  1  6
  3  4  1  0
  4  5  1  0
  5  9  1  0
  5  6  2  0
  7  2  1  0
  8  7  2  0
 11 12  1  0
 11 10  1  0
 12 13  1  0
 14 13  1  1
 14 15  1  0
 15  7  1  0
 16 14  1  0
 16 17  2  0
 18 16  1  0
 19 18  1  0
 19 20  1  1
 21 20  1  0
 22 21  2  0
 23 22  1  0
 24 23  1  0
 24 25  2  0
 25 21  1  0
 26 19  1  0
 26 28  1  0
 27 26  2  0
M  END
$$$$
