EMH.pdb
     RDKit          3D

 28 28  0  0  1  0  0  0  0  0999 V2000
   21.5407  -22.0734  -12.6222 N   0  0  0  0  0  0  0  0  0  0  0  0
   21.8231  -20.8595  -13.3524 C   0  0  1  0  0  0  0  0  0  0  0  0
   20.8022  -19.7994  -13.0424 C   0  0  0  0  0  0  0  0  0  0  0  0
   19.5197  -20.0347  -13.8268 C   0  0  0  0  0  0  0  0  0  0  0  0
   18.3359  -19.8977  -12.9628 C   0  0  0  0  0  0  0  0  0  0  0  0
   17.9813  -18.7963  -12.4922 O   0  0  0  0  0  0  0  0  0  0  0  0
   23.1722  -20.3307  -13.0478 C   0  0  0  0  0  0  0  0  0  0  0  0
   23.4856  -19.2124  -13.5084 O   0  0  0  0  0  0  0  0  0  0  0  0
   17.5943  -21.0604  -12.6737 O   0  0  0  0  0  0  0  0  0  0  0  0
   27.2626  -19.9918   -7.6523 C   0  0  0  0  0  0  0  0  0  0  0  0
   25.9526  -21.2052   -7.9700 S   0  0  0  0  0  0  0  0  0  0  0  0
   25.1433  -20.7702   -9.5302 C   0  0  0  0  0  0  0  0  0  0  0  0
   26.0049  -21.1140  -10.7185 C   0  0  0  0  0  0  0  0  0  0  0  0
   25.4585  -20.5708  -11.9932 C   0  0  2  0  0  0  0  0  0  0  0  0
   24.1214  -21.0297  -12.2650 N   0  0  0  0  0  0  0  0  0  0  0  0
   26.3170  -20.7916  -13.1694 C   0  0  0  0  0  0  0  0  0  0  0  0
   26.4933  -22.0171  -13.5019 O   0  0  0  0  0  0  0  0  0  0  0  0
   26.9291  -19.7678  -13.9157 N   0  0  0  0  0  0  0  0  0  0  0  0
   27.3450  -20.0150  -15.2709 C   0  0  1  0  0  0  0  0  0  0  0  0
   26.2245  -19.8792  -16.2473 C   0  0  0  0  0  0  0  0  0  0  0  0
   26.7350  -19.9953  -17.6265 C   0  0  0  0  0  0  0  0  0  0  0  0
   27.1289  -21.1968  -18.2391 C   0  0  0  0  0  0  0  0  0  0  0  0
   27.5461  -20.9598  -19.4774 N   0  0  0  0  0  0  0  0  0  0  0  0
   27.4341  -19.6441  -19.6860 C   0  0  0  0  0  0  0  0  0  0  0  0
   26.9485  -19.0688  -18.5776 N   0  0  0  0  0  0  0  0  0  0  0  0
   28.4101  -19.0436  -15.5912 C   0  0  0  0  0  0  0  0  0  0  0  0
   28.5700  -18.0147  -14.8577 O   0  0  0  0  0  0  0  0  0  0  0  0
   29.2295  -19.2374  -16.6661 O   0  0  0  0  0  0  0  0  0  0  0  0
  2  3  1  0
  2  1  1  1
  3  4  1  0
  4  5  1  0
  5  9  1  0
  5  6  2  0
  7  2  1  0
  8  7  2  0
 11 12  1  0
 11 10  1  0
 12 13  1  0
 14 13  1  1
 14 15  1  0
 15  7  1  0
 16 14  1  0
 16 17  2  0
 18 16  1  0
 19 18  1  0
 19 20  1  6
 21 20  1  0
 22 21  2  0
 23 22  1  0
 24 23  1  0
 24 25  2  0
 25 21  1  0
 26 19  1  0
 26 28  1  0
 27 26  2  0
M  END
$$$$
