TNE.pdb
     RDKit          3D

 25 24  0  0  1  0  0  0  0  0999 V2000
   10.6570  -14.2088   20.0413 C   0  0  0  0  0  0  0  0  0  0  0  0
    9.5741  -13.2794   19.6115 C   0  0  1  0  0  0  0  0  0  0  0  0
    9.8755  -12.8284   18.3265 O   0  0  0  0  0  0  0  0  0  0  0  0
    8.2124  -13.9103   19.5579 C   0  0  2  0  0  0  0  0  0  0  0  0
    7.2658  -12.9136   19.0916 N   0  0  0  0  0  0  0  0  0  0  0  0
    7.7711  -14.4323   20.8764 C   0  0  0  0  0  0  0  0  0  0  0  0
    7.3370  -13.6327   21.7335 O   0  0  0  0  0  0  0  0  0  0  0  0
    6.1841  -19.6683   23.7210 N   0  0  0  0  0  0  0  0  0  0  0  0
    6.1394  -18.2444   23.5173 C   0  0  0  0  0  0  0  0  0  0  0  0
    5.7148  -17.5030   24.4378 O   0  0  0  0  0  0  0  0  0  0  0  0
    6.5961  -17.6897   22.2248 C   0  0  0  0  0  0  0  0  0  0  0  0
    7.3603  -16.3977   22.4127 C   0  0  2  0  0  0  0  0  0  0  0  0
    7.8269  -15.8171   21.1955 N   0  0  0  0  0  0  0  0  0  0  0  0
    8.4883  -16.6487   23.3788 C   0  0  0  0  0  0  0  0  0  0  0  0
    9.5968  -16.9683   22.8831 O   0  0  0  0  0  0  0  0  0  0  0  0
    8.3395  -16.5390   24.7712 N   0  0  0  0  0  0  0  0  0  0  0  0
    9.4591  -16.7439   25.6672 C   0  0  1  0  0  0  0  0  0  0  0  0
    9.2483  -15.9928   26.9626 C   0  0  0  0  0  0  0  0  0  0  0  0
    9.5390  -14.5255   26.7301 C   0  0  0  0  0  0  0  0  0  0  0  0
    9.3566  -13.7254   27.9609 C   0  0  0  0  0  0  0  0  0  0  0  0
    8.8452  -12.5913   27.8800 O   0  0  0  0  0  0  0  0  0  0  0  0
    9.6755  -18.1893   25.9435 C   0  0  0  0  0  0  0  0  0  0  0  0
   10.9020  -18.7082   26.2785 O   0  0  0  0  0  0  0  0  0  0  0  0
    9.7400  -14.2083   29.1910 O   0  0  0  0  0  0  0  0  0  0  0  0
    8.6814  -18.9513   25.8616 O   0  0  0  0  0  0  0  0  0  0  0  0
  2  1  1  6
  2  3  1  0
  2  4  1  0
  4  6  1  0
  4  5  1  1
  6 13  1  0
  6  7  2  0
  9  8  1  0
  9 10  2  0
 11  9  1  0
 12 14  1  0
 12 11  1  6
 13 12  1  0
 14 16  1  0
 15 14  2  0
 16 17  1  0
 17 18  1  1
 17 22  1  0
 18 19  1  0
 19 20  1  0
 20 24  1  0
 20 21  2  0
 22 25  2  0
 22 23  1  0
M  END
$$$$
