TNE.pdb
     RDKit          3D

 25 24  0  0  1  0  0  0  0  0999 V2000
    7.3488  -16.0741   20.2669 C   0  0  0  0  0  0  0  0  0  0  0  0
    8.0617  -14.9616   19.5774 C   0  0  1  0  0  0  0  0  0  0  0  0
    7.6882  -14.9753   18.2337 O   0  0  0  0  0  0  0  0  0  0  0  0
    7.7381  -13.5991   20.1196 C   0  0  2  0  0  0  0  0  0  0  0  0
    8.3743  -12.6077   19.2715 N   0  0  0  0  0  0  0  0  0  0  0  0
    8.1950  -13.4172   21.5209 C   0  0  0  0  0  0  0  0  0  0  0  0
    9.4169  -13.2880   21.7511 O   0  0  0  0  0  0  0  0  0  0  0  0
    6.0512  -12.7170   27.3823 N   0  0  0  0  0  0  0  0  0  0  0  0
    7.0004  -13.0136   26.3422 C   0  0  0  0  0  0  0  0  0  0  0  0
    8.1841  -13.2984   26.6507 O   0  0  0  0  0  0  0  0  0  0  0  0
    6.5556  -12.9753   24.9324 C   0  0  0  0  0  0  0  0  0  0  0  0
    7.6532  -13.4186   23.9903 C   0  0  2  0  0  0  0  0  0  0  0  0
    7.2838  -13.3852   22.6124 N   0  0  0  0  0  0  0  0  0  0  0  0
    8.1155  -14.7891   24.4104 C   0  0  0  0  0  0  0  0  0  0  0  0
    7.3124  -15.7371   24.2290 O   0  0  0  0  0  0  0  0  0  0  0  0
    9.3771  -15.0279   24.9801 N   0  0  0  0  0  0  0  0  0  0  0  0
    9.7990  -16.3651   25.3434 C   0  0  1  0  0  0  0  0  0  0  0  0
   11.1438  -16.6840   24.7297 C   0  0  0  0  0  0  0  0  0  0  0  0
   10.9354  -17.6061   23.5473 C   0  0  0  0  0  0  0  0  0  0  0  0
   12.2111  -17.9397   22.8768 C   0  0  0  0  0  0  0  0  0  0  0  0
   13.2734  -17.4536   23.3122 O   0  0  0  0  0  0  0  0  0  0  0  0
    9.8581  -16.5331   26.8201 C   0  0  0  0  0  0  0  0  0  0  0  0
   10.1069  -17.7416   27.4230 O   0  0  0  0  0  0  0  0  0  0  0  0
   12.2475  -18.7749   21.7837 O   0  0  0  0  0  0  0  0  0  0  0  0
    9.6696  -15.5140   27.5284 O   0  0  0  0  0  0  0  0  0  0  0  0
  2  1  1  1
  2  3  1  0
  2  4  1  0
  4  6  1  0
  4  5  1  6
  6 13  1  0
  6  7  2  0
  9  8  1  0
  9 10  2  0
 11  9  1  0
 12 14  1  0
 12 11  1  1
 13 12  1  0
 14 16  1  0
 15 14  2  0
 16 17  1  0
 17 18  1  6
 17 22  1  0
 18 19  1  0
 19 20  1  0
 20 24  1  0
 20 21  2  0
 22 25  2  0
 22 23  1  0
M  END
$$$$
