TNE.pdb
     RDKit          3D

 25 24  0  0  1  0  0  0  0  0999 V2000
   10.3630  -12.6831   19.3824 C   0  0  0  0  0  0  0  0  0  0  0  0
    8.8771  -12.5677   19.3856 C   0  0  1  0  0  0  0  0  0  0  0  0
    8.5191  -11.5626   18.4872 O   0  0  0  0  0  0  0  0  0  0  0  0
    8.1656  -13.8210   18.9638 C   0  0  2  0  0  0  0  0  0  0  0  0
    6.7363  -13.5719   19.0102 N   0  0  0  0  0  0  0  0  0  0  0  0
    8.4929  -14.9836   19.8280 C   0  0  0  0  0  0  0  0  0  0  0  0
    7.8316  -15.1716   20.8720 O   0  0  0  0  0  0  0  0  0  0  0  0
    8.4851  -19.6591   19.3027 N   0  0  0  0  0  0  0  0  0  0  0  0
    9.4372  -18.7525   18.7174 C   0  0  0  0  0  0  0  0  0  0  0  0
    9.3559  -18.4780   17.4945 O   0  0  0  0  0  0  0  0  0  0  0  0
   10.4901  -18.1660   19.5742 C   0  0  0  0  0  0  0  0  0  0  0  0
    9.9807  -16.9632   20.3374 C   0  0  2  0  0  0  0  0  0  0  0  0
    9.5380  -15.8923   19.5046 N   0  0  0  0  0  0  0  0  0  0  0  0
   11.0549  -16.5175   21.2945 C   0  0  0  0  0  0  0  0  0  0  0  0
   11.9771  -15.8098   20.8198 O   0  0  0  0  0  0  0  0  0  0  0  0
   11.0536  -16.8600   22.6568 N   0  0  0  0  0  0  0  0  0  0  0  0
   12.1522  -16.4937   23.5269 C   0  0  1  0  0  0  0  0  0  0  0  0
   11.7919  -16.7459   24.9737 C   0  0  0  0  0  0  0  0  0  0  0  0
   11.7472  -18.2400   25.2133 C   0  0  0  0  0  0  0  0  0  0  0  0
   11.5504  -18.5635   26.6433 C   0  0  0  0  0  0  0  0  0  0  0  0
   10.3977  -18.7805   27.0657 O   0  0  0  0  0  0  0  0  0  0  0  0
   13.3941  -17.2319   23.1730 C   0  0  0  0  0  0  0  0  0  0  0  0
   14.6456  -16.8049   23.5433 O   0  0  0  0  0  0  0  0  0  0  0  0
   12.6135  -18.6292   27.5145 O   0  0  0  0  0  0  0  0  0  0  0  0
   13.2715  -18.2887   22.5068 O   0  0  0  0  0  0  0  0  0  0  0  0
  2  1  1  6
  2  3  1  0
  2  4  1  0
  4  6  1  0
  4  5  1  1
  6 13  1  0
  6  7  2  0
  9  8  1  0
  9 10  2  0
 11  9  1  0
 12 14  1  0
 12 11  1  6
 13 12  1  0
 14 16  1  0
 15 14  2  0
 16 17  1  0
 17 18  1  1
 17 22  1  0
 18 19  1  0
 19 20  1  0
 20 24  1  0
 20 21  2  0
 22 25  2  0
 22 23  1  0
M  END
$$$$
