TNE.pdb
     RDKit          3D

 25 24  0  0  1  0  0  0  0  0999 V2000
    7.8164  -12.0154   19.4350 C   0  0  0  0  0  0  0  0  0  0  0  0
    9.0193  -12.8721   19.6357 C   0  0  1  0  0  0  0  0  0  0  0  0
    8.7175  -13.8197   20.6136 O   0  0  0  0  0  0  0  0  0  0  0  0
    9.4508  -13.6180   18.4058 C   0  0  2  0  0  0  0  0  0  0  0  0
    8.3288  -14.4096   17.9352 N   0  0  0  0  0  0  0  0  0  0  0  0
   10.6137  -14.5076   18.6543 C   0  0  0  0  0  0  0  0  0  0  0  0
   10.4143  -15.7190   18.8898 O   0  0  0  0  0  0  0  0  0  0  0  0
   14.6660  -13.9540   15.7293 N   0  0  0  0  0  0  0  0  0  0  0  0
   14.3314  -14.8647   16.7920 C   0  0  0  0  0  0  0  0  0  0  0  0
   14.0307  -16.0522   16.5146 O   0  0  0  0  0  0  0  0  0  0  0  0
   14.3505  -14.3768   18.1879 C   0  0  0  0  0  0  0  0  0  0  0  0
   13.1086  -14.7984   18.9419 C   0  0  2  0  0  0  0  0  0  0  0  0
   11.9508  -14.0237   18.6325 N   0  0  0  0  0  0  0  0  0  0  0  0
   13.4168  -14.7760   20.4160 C   0  0  0  0  0  0  0  0  0  0  0  0
   13.6404  -13.6523   20.9299 O   0  0  0  0  0  0  0  0  0  0  0  0
   13.4595  -15.9375   21.2048 N   0  0  0  0  0  0  0  0  0  0  0  0
   13.7070  -15.8715   22.6305 C   0  0  1  0  0  0  0  0  0  0  0  0
   13.0517  -17.0359   23.3387 C   0  0  0  0  0  0  0  0  0  0  0  0
   13.2640  -16.8835   24.8298 C   0  0  0  0  0  0  0  0  0  0  0  0
   12.8304  -18.0860   25.5742 C   0  0  0  0  0  0  0  0  0  0  0  0
   11.6838  -18.5381   25.3864 O   0  0  0  0  0  0  0  0  0  0  0  0
   15.1642  -15.8466   22.9278 C   0  0  0  0  0  0  0  0  0  0  0  0
   15.6822  -15.2852   24.0690 O   0  0  0  0  0  0  0  0  0  0  0  0
   13.6670  -18.7140   26.4682 O   0  0  0  0  0  0  0  0  0  0  0  0
   15.9373  -16.3664   22.0865 O   0  0  0  0  0  0  0  0  0  0  0  0
  2  1  1  6
  2  3  1  0
  2  4  1  0
  4  6  1  0
  4  5  1  1
  6 13  1  0
  6  7  2  0
  9  8  1  0
  9 10  2  0
 11  9  1  0
 12 14  1  0
 12 11  1  6
 13 12  1  0
 14 16  1  0
 15 14  2  0
 16 17  1  0
 17 18  1  1
 17 22  1  0
 18 19  1  0
 19 20  1  0
 20 24  1  0
 20 21  2  0
 22 25  2  0
 22 23  1  0
M  END
$$$$
