TNE.pdb
     RDKit          3D

 25 24  0  0  1  0  0  0  0  0999 V2000
    7.9423  -16.0251   17.8926 C   0  0  0  0  0  0  0  0  0  0  0  0
    8.4133  -14.6607   17.5210 C   0  0  1  0  0  0  0  0  0  0  0  0
    7.8198  -14.3136   16.3075 O   0  0  0  0  0  0  0  0  0  0  0  0
    8.0527  -13.5969   18.5176 C   0  0  2  0  0  0  0  0  0  0  0  0
    8.4960  -12.3161   17.9983 N   0  0  0  0  0  0  0  0  0  0  0  0
    8.6661  -13.8291   19.8501 C   0  0  0  0  0  0  0  0  0  0  0  0
    9.8932  -13.6414   19.9965 O   0  0  0  0  0  0  0  0  0  0  0  0
    9.4167  -15.1920   24.7333 N   0  0  0  0  0  0  0  0  0  0  0  0
    7.9830  -15.1885   24.6093 C   0  0  0  0  0  0  0  0  0  0  0  0
    7.2763  -15.4312   25.6187 O   0  0  0  0  0  0  0  0  0  0  0  0
    7.3774  -14.8981   23.2918 C   0  0  0  0  0  0  0  0  0  0  0  0
    8.4297  -14.5690   22.2560 C   0  0  2  0  0  0  0  0  0  0  0  0
    7.8994  -14.2594   20.9679 N   0  0  0  0  0  0  0  0  0  0  0  0
    9.4104  -15.7106   22.1953 C   0  0  0  0  0  0  0  0  0  0  0  0
    8.9775  -16.8054   21.7587 O   0  0  0  0  0  0  0  0  0  0  0  0
   10.7501  -15.5886   22.5998 N   0  0  0  0  0  0  0  0  0  0  0  0
   11.6802  -16.6912   22.4688 C   0  0  1  0  0  0  0  0  0  0  0  0
   12.5463  -16.5138   21.2419 C   0  0  0  0  0  0  0  0  0  0  0  0
   13.1145  -15.1106   21.2432 C   0  0  0  0  0  0  0  0  0  0  0  0
   14.0061  -14.8758   20.0864 C   0  0  0  0  0  0  0  0  0  0  0  0
   13.5831  -14.2191   19.1147 O   0  0  0  0  0  0  0  0  0  0  0  0
   12.5320  -16.8295   23.6803 C   0  0  0  0  0  0  0  0  0  0  0  0
   13.4735  -17.8193   23.8200 O   0  0  0  0  0  0  0  0  0  0  0  0
   15.2911  -15.3675   20.0625 O   0  0  0  0  0  0  0  0  0  0  0  0
   12.3677  -15.9954   24.6038 O   0  0  0  0  0  0  0  0  0  0  0  0
  2  1  1  1
  2  3  1  0
  2  4  1  0
  4  6  1  0
  4  5  1  6
  6 13  1  0
  6  7  2  0
  9  8  1  0
  9 10  2  0
 11  9  1  0
 12 14  1  0
 12 11  1  1
 13 12  1  0
 14 16  1  0
 15 14  2  0
 16 17  1  0
 17 18  1  6
 17 22  1  0
 18 19  1  0
 19 20  1  0
 20 24  1  0
 20 21  2  0
 22 25  2  0
 22 23  1  0
M  END
$$$$
