TNE.pdb
     RDKit          3D

 25 24  0  0  1  0  0  0  0  0999 V2000
    9.0674  -16.2882   17.2534 C   0  0  0  0  0  0  0  0  0  0  0  0
    9.0823  -14.8111   17.0552 C   0  0  1  0  0  0  0  0  0  0  0  0
    8.4348  -14.5293   15.8524 O   0  0  0  0  0  0  0  0  0  0  0  0
    8.3775  -14.0421   18.1354 C   0  0  2  0  0  0  0  0  0  0  0  0
    8.2047  -12.6738   17.6829 N   0  0  0  0  0  0  0  0  0  0  0  0
    9.1217  -14.0473   19.4206 C   0  0  0  0  0  0  0  0  0  0  0  0
   10.2658  -13.5457   19.4638 O   0  0  0  0  0  0  0  0  0  0  0  0
    6.7383  -13.7522   21.8587 N   0  0  0  0  0  0  0  0  0  0  0  0
    7.0585  -14.6629   22.9259 C   0  0  0  0  0  0  0  0  0  0  0  0
    6.1859  -14.9344   23.7874 O   0  0  0  0  0  0  0  0  0  0  0  0
    8.4115  -15.2574   22.9803 C   0  0  0  0  0  0  0  0  0  0  0  0
    9.2769  -14.7768   21.8363 C   0  0  2  0  0  0  0  0  0  0  0  0
    8.5722  -14.6067   20.6072 N   0  0  0  0  0  0  0  0  0  0  0  0
   10.4372  -15.7256   21.6868 C   0  0  0  0  0  0  0  0  0  0  0  0
   10.2148  -16.7988   21.0741 O   0  0  0  0  0  0  0  0  0  0  0  0
   11.7174  -15.4523   22.1965 N   0  0  0  0  0  0  0  0  0  0  0  0
   12.7817  -16.4322   22.1252 C   0  0  1  0  0  0  0  0  0  0  0  0
   14.0217  -15.8268   21.5065 C   0  0  0  0  0  0  0  0  0  0  0  0
   13.7037  -15.4034   20.0883 C   0  0  0  0  0  0  0  0  0  0  0  0
   14.8839  -14.8276   19.4071 C   0  0  0  0  0  0  0  0  0  0  0  0
   15.4643  -13.8491   19.9170 O   0  0  0  0  0  0  0  0  0  0  0  0
   13.0992  -16.9873   23.4682 C   0  0  0  0  0  0  0  0  0  0  0  0
   14.0340  -17.9739   23.6645 O   0  0  0  0  0  0  0  0  0  0  0  0
   15.3522  -15.3505   18.2236 O   0  0  0  0  0  0  0  0  0  0  0  0
   12.4746  -16.5203   24.4518 O   0  0  0  0  0  0  0  0  0  0  0  0
  2  1  1  1
  2  3  1  0
  2  4  1  0
  4  6  1  0
  4  5  1  6
  6 13  1  0
  6  7  2  0
  9  8  1  0
  9 10  2  0
 11  9  1  0
 12 14  1  0
 12 11  1  1
 13 12  1  0
 14 16  1  0
 15 14  2  0
 16 17  1  0
 17 18  1  1
 17 22  1  0
 18 19  1  0
 19 20  1  0
 20 24  1  0
 20 21  2  0
 22 25  2  0
 22 23  1  0
M  END
$$$$
