TNE.pdb
     RDKit          3D

 25 24  0  0  1  0  0  0  0  0999 V2000
    8.8985  -19.8614   15.3517 C   0  0  0  0  0  0  0  0  0  0  0  0
   10.0969  -19.3946   16.1049 C   0  0  1  0  0  0  0  0  0  0  0  0
   10.8536  -20.5139   16.4511 O   0  0  0  0  0  0  0  0  0  0  0  0
   10.9894  -18.4735   15.3238 C   0  0  2  0  0  0  0  0  0  0  0  0
   11.4601  -19.1828   14.1481 N   0  0  0  0  0  0  0  0  0  0  0  0
   12.1540  -17.9987   16.1137 C   0  0  0  0  0  0  0  0  0  0  0  0
   13.2811  -18.4921   15.8934 O   0  0  0  0  0  0  0  0  0  0  0  0
   15.2186  -13.8830   18.0819 N   0  0  0  0  0  0  0  0  0  0  0  0
   14.1242  -14.4083   18.8547 C   0  0  0  0  0  0  0  0  0  0  0  0
   14.1912  -14.3918   20.1088 O   0  0  0  0  0  0  0  0  0  0  0  0
   12.9453  -14.9557   18.1495 C   0  0  0  0  0  0  0  0  0  0  0  0
   13.1110  -16.4292   17.8493 C   0  0  2  0  0  0  0  0  0  0  0  0
   12.0269  -16.9974   17.1157 N   0  0  0  0  0  0  0  0  0  0  0  0
   13.3466  -17.1553   19.1477 C   0  0  0  0  0  0  0  0  0  0  0  0
   12.3547  -17.2971   19.9044 O   0  0  0  0  0  0  0  0  0  0  0  0
   14.6024  -17.6609   19.5226 N   0  0  0  0  0  0  0  0  0  0  0  0
   14.7752  -18.4193   20.7445 C   0  0  1  0  0  0  0  0  0  0  0  0
   15.3394  -19.7899   20.4448 C   0  0  0  0  0  0  0  0  0  0  0  0
   15.4800  -20.5556   21.7432 C   0  0  0  0  0  0  0  0  0  0  0  0
   16.1038  -21.8809   21.5369 C   0  0  0  0  0  0  0  0  0  0  0  0
   15.8859  -22.7915   22.3601 O   0  0  0  0  0  0  0  0  0  0  0  0
   15.6544  -17.7039   21.7076 C   0  0  0  0  0  0  0  0  0  0  0  0
   15.6296  -17.9444   23.0594 O   0  0  0  0  0  0  0  0  0  0  0  0
   16.9186  -22.1273   20.4557 O   0  0  0  0  0  0  0  0  0  0  0  0
   16.4463  -16.8469   21.2448 O   0  0  0  0  0  0  0  0  0  0  0  0
  2  1  1  6
  2  3  1  0
  2  4  1  0
  4  6  1  0
  4  5  1  6
  6 13  1  0
  6  7  2  0
  9  8  1  0
  9 10  2  0
 11  9  1  0
 12 14  1  0
 12 11  1  1
 13 12  1  0
 14 16  1  0
 15 14  2  0
 16 17  1  0
 17 18  1  6
 17 22  1  0
 18 19  1  0
 19 20  1  0
 20 24  1  0
 20 21  2  0
 22 25  2  0
 22 23  1  0
M  END
$$$$
