TNE.pdb
     RDKit          3D

 25 24  0  0  1  0  0  0  0  0999 V2000
    8.4219  -16.1403   17.7765 C   0  0  0  0  0  0  0  0  0  0  0  0
    8.6663  -14.6713   17.7165 C   0  0  1  0  0  0  0  0  0  0  0  0
    8.2926  -14.2219   16.4501 O   0  0  0  0  0  0  0  0  0  0  0  0
    7.8825  -13.8795   18.7233 C   0  0  2  0  0  0  0  0  0  0  0  0
    8.0731  -12.4682   18.4422 N   0  0  0  0  0  0  0  0  0  0  0  0
    8.2935  -14.1648   20.1216 C   0  0  0  0  0  0  0  0  0  0  0  0
    9.2944  -13.5829   20.5929 O   0  0  0  0  0  0  0  0  0  0  0  0
    7.0237  -17.6649   20.9825 N   0  0  0  0  0  0  0  0  0  0  0  0
    6.4230  -17.3885   22.2606 C   0  0  0  0  0  0  0  0  0  0  0  0
    5.5344  -18.1578   22.7035 O   0  0  0  0  0  0  0  0  0  0  0  0
    6.8693  -16.2018   23.0217 C   0  0  0  0  0  0  0  0  0  0  0  0
    7.9412  -15.4350   22.2789 C   0  0  2  0  0  0  0  0  0  0  0  0
    7.5823  -15.0818   20.9437 N   0  0  0  0  0  0  0  0  0  0  0  0
    9.2149  -16.2380   22.3198 C   0  0  0  0  0  0  0  0  0  0  0  0
    9.3917  -17.0656   21.3923 O   0  0  0  0  0  0  0  0  0  0  0  0
   10.1775  -16.0914   23.3323 N   0  0  0  0  0  0  0  0  0  0  0  0
   11.4084  -16.8548   23.3179 C   0  0  1  0  0  0  0  0  0  0  0  0
   12.5848  -15.9614   22.9946 C   0  0  0  0  0  0  0  0  0  0  0  0
   13.8285  -16.8157   22.8714 C   0  0  0  0  0  0  0  0  0  0  0  0
   15.0387  -15.9975   22.6386 C   0  0  0  0  0  0  0  0  0  0  0  0
   15.8010  -15.7519   23.5941 O   0  0  0  0  0  0  0  0  0  0  0  0
   11.6331  -17.5467   24.6152 C   0  0  0  0  0  0  0  0  0  0  0  0
   12.4984  -18.6037   24.7558 O   0  0  0  0  0  0  0  0  0  0  0  0
   15.3384  -15.5033   21.3899 O   0  0  0  0  0  0  0  0  0  0  0  0
   10.9946  -17.1313   25.6130 O   0  0  0  0  0  0  0  0  0  0  0  0
  2  1  1  6
  2  3  1  0
  2  4  1  0
  4  6  1  0
  4  5  1  6
  6 13  1  0
  6  7  2  0
  9  8  1  0
  9 10  2  0
 11  9  1  0
 12 14  1  0
 12 11  1  6
 13 12  1  0
 14 16  1  0
 15 14  2  0
 16 17  1  0
 17 18  1  1
 17 22  1  0
 18 19  1  0
 19 20  1  0
 20 24  1  0
 20 21  2  0
 22 25  2  0
 22 23  1  0
M  END
$$$$
