TNE.pdb
     RDKit          3D

 25 24  0  0  1  0  0  0  0  0999 V2000
   11.1520  -18.5313   21.5826 C   0  0  0  0  0  0  0  0  0  0  0  0
    9.6937  -18.6923   21.8446 C   0  0  1  0  0  0  0  0  0  0  0  0
    9.5437  -19.4167   23.0270 O   0  0  0  0  0  0  0  0  0  0  0  0
    8.9564  -17.3954   22.0160 C   0  0  2  0  0  0  0  0  0  0  0  0
    9.0572  -16.6460   20.7770 N   0  0  0  0  0  0  0  0  0  0  0  0
    9.4907  -16.5765   23.1338 C   0  0  0  0  0  0  0  0  0  0  0  0
   10.5971  -16.0104   22.9992 O   0  0  0  0  0  0  0  0  0  0  0  0
   10.0830  -13.8608   27.3720 N   0  0  0  0  0  0  0  0  0  0  0  0
    8.7920  -13.5680   26.8075 C   0  0  0  0  0  0  0  0  0  0  0  0
    8.1483  -12.5732   27.2238 O   0  0  0  0  0  0  0  0  0  0  0  0
    8.2553  -14.4494   25.7484 C   0  0  0  0  0  0  0  0  0  0  0  0
    9.1990  -15.5921   25.4441 C   0  0  2  0  0  0  0  0  0  0  0  0
    8.7815  -16.4155   24.3559 N   0  0  0  0  0  0  0  0  0  0  0  0
    9.3983  -16.3925   26.7043 C   0  0  0  0  0  0  0  0  0  0  0  0
    8.4218  -17.0750   27.1010 O   0  0  0  0  0  0  0  0  0  0  0  0
   10.6049  -16.3965   27.4235 N   0  0  0  0  0  0  0  0  0  0  0  0
   10.9662  -17.5049   28.2831 C   0  0  1  0  0  0  0  0  0  0  0  0
   12.2592  -18.1378   27.8202 C   0  0  0  0  0  0  0  0  0  0  0  0
   12.5906  -19.2980   28.7344 C   0  0  0  0  0  0  0  0  0  0  0  0
   13.8260  -19.9951   28.3150 C   0  0  0  0  0  0  0  0  0  0  0  0
   14.0660  -20.1308   27.0991 O   0  0  0  0  0  0  0  0  0  0  0  0
   11.0867  -17.0746   29.7017 C   0  0  0  0  0  0  0  0  0  0  0  0
   11.0316  -15.7580   30.0881 O   0  0  0  0  0  0  0  0  0  0  0  0
   14.7138  -20.4956   29.2395 O   0  0  0  0  0  0  0  0  0  0  0  0
   11.2451  -17.9688   30.5683 O   0  0  0  0  0  0  0  0  0  0  0  0
  2  1  1  1
  2  3  1  0
  2  4  1  0
  4  6  1  0
  4  5  1  6
  6 13  1  0
  6  7  2  0
  9  8  1  0
  9 10  2  0
 11  9  1  0
 12 14  1  0
 12 11  1  1
 13 12  1  0
 14 16  1  0
 15 14  2  0
 16 17  1  0
 17 18  1  6
 17 22  1  0
 18 19  1  0
 19 20  1  0
 20 24  1  0
 20 21  2  0
 22 25  2  0
 22 23  1  0
M  END
$$$$
