TNE.pdb
     RDKit          3D

 25 24  0  0  1  0  0  0  0  0999 V2000
    7.1684  -12.7542   19.6268 C   0  0  0  0  0  0  0  0  0  0  0  0
    8.1217  -13.6517   18.9147 C   0  0  1  0  0  0  0  0  0  0  0  0
    8.2730  -13.1763   17.6122 O   0  0  0  0  0  0  0  0  0  0  0  0
    9.4886  -13.7065   19.5342 C   0  0  2  0  0  0  0  0  0  0  0  0
   10.4195  -14.2112   18.5415 N   0  0  0  0  0  0  0  0  0  0  0  0
    9.5360  -14.5711   20.7408 C   0  0  0  0  0  0  0  0  0  0  0  0
    8.7585  -14.3343   21.6905 O   0  0  0  0  0  0  0  0  0  0  0  0
   10.5829  -18.7543   19.2136 N   0  0  0  0  0  0  0  0  0  0  0  0
   10.0602  -18.5490   20.5386 C   0  0  0  0  0  0  0  0  0  0  0  0
    8.8713  -18.8674   20.7885 O   0  0  0  0  0  0  0  0  0  0  0  0
   10.9399  -17.9666   21.5748 C   0  0  0  0  0  0  0  0  0  0  0  0
   10.5049  -16.5676   21.9520 C   0  0  2  0  0  0  0  0  0  0  0  0
   10.4407  -15.6629   20.8502 N   0  0  0  0  0  0  0  0  0  0  0  0
   11.4196  -16.0614   23.0363 C   0  0  0  0  0  0  0  0  0  0  0  0
   11.4861  -14.8163   23.1845 O   0  0  0  0  0  0  0  0  0  0  0  0
   12.1745  -16.9145   23.8582 N   0  0  0  0  0  0  0  0  0  0  0  0
   12.5397  -16.5328   25.2069 C   0  0  1  0  0  0  0  0  0  0  0  0
   11.3137  -16.1348   25.9976 C   0  0  0  0  0  0  0  0  0  0  0  0
   11.7362  -15.7719   27.4053 C   0  0  0  0  0  0  0  0  0  0  0  0
   10.5842  -15.3641   28.2388 C   0  0  0  0  0  0  0  0  0  0  0  0
    9.9772  -16.2270   28.9031 O   0  0  0  0  0  0  0  0  0  0  0  0
   13.2641  -17.6290   25.9039 C   0  0  0  0  0  0  0  0  0  0  0  0
   14.3405  -17.4054   26.7268 O   0  0  0  0  0  0  0  0  0  0  0  0
   10.1706  -14.0528   28.2949 O   0  0  0  0  0  0  0  0  0  0  0  0
   12.8584  -18.8025   25.7189 O   0  0  0  0  0  0  0  0  0  0  0  0
  2  1  1  1
  2  3  1  0
  2  4  1  0
  4  6  1  0
  4  5  1  6
  6 13  1  0
  6  7  2  0
  9  8  1  0
  9 10  2  0
 11  9  1  0
 12 14  1  0
 12 11  1  6
 13 12  1  0
 14 16  1  0
 15 14  2  0
 16 17  1  0
 17 18  1  1
 17 22  1  0
 18 19  1  0
 19 20  1  0
 20 24  1  0
 20 21  2  0
 22 25  2  0
 22 23  1  0
M  END
$$$$
