DFW.pdb
     RDKit          3D

 34 36  0  0  1  0  0  0  0  0999 V2000
   10.2485  -18.3581   18.8443 N   0  0  0  0  0  0  0  0  0  0  0  0
   11.4086  -17.5043   19.1405 C   0  0  1  0  0  0  0  0  0  0  0  0
   11.5400  -16.5140   17.9925 C   0  0  0  0  0  0  0  0  0  0  0  0
   12.2710  -17.2304   16.9294 C   0  0  0  0  0  0  0  0  0  0  0  0
   11.8298  -17.2224   15.7585 O   0  0  0  0  0  0  0  0  0  0  0  0
   11.1676  -16.8351   20.4287 C   0  0  0  0  0  0  0  0  0  0  0  0
   12.0816  -16.1523   20.9985 O   0  0  0  0  0  0  0  0  0  0  0  0
   13.4569  -17.9223   17.1814 O   0  0  0  0  0  0  0  0  0  0  0  0
    9.9137  -16.9181   21.0794 N   0  0  0  0  0  0  0  0  0  0  0  0
    9.6523  -16.3875   22.4214 C   0  0  1  0  0  0  0  0  0  0  0  0
    8.1574  -16.0261   22.4327 C   0  0  0  0  0  0  0  0  0  0  0  0
    7.8791  -14.8718   21.5779 C   0  0  0  0  0  0  0  0  0  0  0  0
    8.1084  -13.5923   22.0135 C   0  0  0  0  0  0  0  0  0  0  0  0
    7.8272  -12.4855   21.2033 C   0  0  0  0  0  0  0  0  0  0  0  0
    7.3097  -12.6489   19.9377 C   0  0  0  0  0  0  0  0  0  0  0  0
    7.0778  -13.9320   19.4977 C   0  0  0  0  0  0  0  0  0  0  0  0
    7.3571  -15.0286   20.3025 C   0  0  0  0  0  0  0  0  0  0  0  0
   10.0309  -17.2764   23.5043 C   0  0  0  0  0  0  0  0  0  0  0  0
   11.1403  -17.8544   23.5000 O   0  0  0  0  0  0  0  0  0  0  0  0
    9.1493  -17.5043   24.5852 N   0  0  0  0  0  0  0  0  0  0  0  0
    9.5214  -17.2516   25.9764 C   0  0  1  0  0  0  0  0  0  0  0  0
    9.5190  -15.7691   26.1513 C   0  0  0  0  0  0  0  0  0  0  0  0
    8.2498  -15.0670   25.9892 C   0  0  0  0  0  0  0  0  0  0  0  0
    7.0637  -15.6643   25.5820 C   0  0  0  0  0  0  0  0  0  0  0  0
    6.1113  -14.7539   25.4972 N   0  0  0  0  0  0  0  0  0  0  0  0
    6.6036  -13.5481   25.8333 C   0  0  0  0  0  0  0  0  0  0  0  0
    5.9799  -12.3328   25.9030 C   0  0  0  0  0  0  0  0  0  0  0  0
    6.6897  -11.2290   26.2963 C   0  0  0  0  0  0  0  0  0  0  0  0
    8.0355  -11.3948   26.6114 C   0  0  0  0  0  0  0  0  0  0  0  0
    8.6685  -12.6142   26.5445 C   0  0  0  0  0  0  0  0  0  0  0  0
    7.9343  -13.7407   26.1408 C   0  0  0  0  0  0  0  0  0  0  0  0
    8.6420  -17.9095   26.9447 C   0  0  0  0  0  0  0  0  0  0  0  0
    7.4958  -18.3623   26.6404 O   0  0  0  0  0  0  0  0  0  0  0  0
    9.1081  -18.0395   28.2582 O   0  0  0  0  0  0  0  0  0  0  0  0
  2  1  1  6
  2  3  1  0
  3  4  1  0
  4  5  2  0
  6  2  1  0
  6  7  2  0
  8  4  1  0
  9  6  1  0
 10 11  1  6
 10  9  1  0
 11 12  1  0
 12 13  2  0
 12 17  1  0
 13 14  1  0
 14 15  2  0
 16 15  1  0
 17 16  2  0
 18 10  1  0
 19 18  2  0
 20 18  1  0
 21 20  1  0
 21 22  1  1
 22 23  1  0
 23 31  1  0
 24 23  2  0
 24 25  1  0
 25 26  1  0
 26 27  1  0
 27 28  2  0
 29 28  1  0
 30 29  2  0
 31 26  2  0
 31 30  1  0
 32 34  1  0
 32 21  1  0
 33 32  2  0
M  END
$$$$
