DFW.pdb
     RDKit          3D

 34 36  0  0  1  0  0  0  0  0999 V2000
    9.2123  -17.5591   18.8510 N   0  0  0  0  0  0  0  0  0  0  0  0
   10.0564  -17.8961   20.0071 C   0  0  1  0  0  0  0  0  0  0  0  0
   11.3698  -18.4358   19.4598 C   0  0  0  0  0  0  0  0  0  0  0  0
   11.0348  -19.7182   18.8111 C   0  0  0  0  0  0  0  0  0  0  0  0
   11.5357  -20.0020   17.7001 O   0  0  0  0  0  0  0  0  0  0  0  0
   10.2457  -16.6757   20.8070 C   0  0  0  0  0  0  0  0  0  0  0  0
   11.2567  -15.9193   20.6273 O   0  0  0  0  0  0  0  0  0  0  0  0
   10.1722  -20.6444   19.4001 O   0  0  0  0  0  0  0  0  0  0  0  0
    9.3123  -16.2922   21.7991 N   0  0  0  0  0  0  0  0  0  0  0  0
    9.4166  -15.0596   22.5869 C   0  0  1  0  0  0  0  0  0  0  0  0
    8.0372  -14.3882   22.4776 C   0  0  0  0  0  0  0  0  0  0  0  0
    7.7601  -13.9539   21.1082 C   0  0  0  0  0  0  0  0  0  0  0  0
    6.9562  -14.6904   20.2772 C   0  0  0  0  0  0  0  0  0  0  0  0
    6.7032  -14.2851   18.9611 C   0  0  0  0  0  0  0  0  0  0  0  0
    7.2562  -13.1285   18.4585 C   0  0  0  0  0  0  0  0  0  0  0  0
    8.0642  -12.3872   19.2900 C   0  0  0  0  0  0  0  0  0  0  0  0
    8.3143  -12.7905   20.5950 C   0  0  0  0  0  0  0  0  0  0  0  0
    9.8461  -15.2568   23.9591 C   0  0  0  0  0  0  0  0  0  0  0  0
   10.2860  -14.3012   24.6359 O   0  0  0  0  0  0  0  0  0  0  0  0
    9.7741  -16.5363   24.5551 N   0  0  0  0  0  0  0  0  0  0  0  0
   10.1382  -16.7809   25.9498 C   0  0  1  0  0  0  0  0  0  0  0  0
    8.8568  -16.9310   26.7006 C   0  0  0  0  0  0  0  0  0  0  0  0
    7.8284  -15.9147   26.5012 C   0  0  0  0  0  0  0  0  0  0  0  0
    6.5400  -16.1730   26.0512 C   0  0  0  0  0  0  0  0  0  0  0  0
    5.8700  -15.0407   25.9410 N   0  0  0  0  0  0  0  0  0  0  0  0
    6.6560  -14.0102   26.3010 C   0  0  0  0  0  0  0  0  0  0  0  0
    6.3790  -12.6720   26.3580 C   0  0  0  0  0  0  0  0  0  0  0  0
    7.3452  -11.7981   26.7818 C   0  0  0  0  0  0  0  0  0  0  0  0
    8.5859  -12.3179   27.1401 C   0  0  0  0  0  0  0  0  0  0  0  0
    8.8707  -13.6626   27.0861 C   0  0  0  0  0  0  0  0  0  0  0  0
    7.8753  -14.5519   26.6511 C   0  0  0  0  0  0  0  0  0  0  0  0
   11.0078  -17.9450   26.1306 C   0  0  0  0  0  0  0  0  0  0  0  0
   11.3036  -18.7394   25.1858 O   0  0  0  0  0  0  0  0  0  0  0  0
   11.5301  -18.1701   27.4097 O   0  0  0  0  0  0  0  0  0  0  0  0
  2  1  1  6
  2  3  1  0
  3  4  1  0
  4  5  2  0
  6  2  1  0
  6  7  2  0
  8  4  1  0
  9  6  1  0
 10 11  1  1
 10  9  1  0
 11 12  1  0
 12 13  2  0
 12 17  1  0
 13 14  1  0
 14 15  2  0
 16 15  1  0
 17 16  2  0
 18 10  1  0
 19 18  2  0
 20 18  1  0
 21 20  1  0
 21 22  1  1
 22 23  1  0
 23 31  1  0
 24 23  2  0
 24 25  1  0
 25 26  1  0
 26 27  1  0
 27 28  2  0
 29 28  1  0
 30 29  2  0
 31 26  2  0
 31 30  1  0
 32 34  1  0
 32 21  1  0
 33 32  2  0
M  END
$$$$
