DFW.pdb
     RDKit          3D

 34 36  0  0  1  0  0  0  0  0999 V2000
   10.7202  -17.1833   17.5453 N   0  0  0  0  0  0  0  0  0  0  0  0
   10.8900  -17.9572   18.7841 C   0  0  1  0  0  0  0  0  0  0  0  0
   12.3242  -18.4658   18.8007 C   0  0  0  0  0  0  0  0  0  0  0  0
   12.3095  -19.7260   18.0329 C   0  0  0  0  0  0  0  0  0  0  0  0
   11.3105  -20.4772   18.0911 O   0  0  0  0  0  0  0  0  0  0  0  0
   10.6004  -17.0698   19.9216 C   0  0  0  0  0  0  0  0  0  0  0  0
   11.3007  -16.0265   20.1395 O   0  0  0  0  0  0  0  0  0  0  0  0
   13.3803  -20.1160   17.2268 O   0  0  0  0  0  0  0  0  0  0  0  0
    9.5325  -17.3360   20.8111 N   0  0  0  0  0  0  0  0  0  0  0  0
    9.2097  -16.5025   21.9738 C   0  0  1  0  0  0  0  0  0  0  0  0
    7.6734  -16.4613   22.0319 C   0  0  0  0  0  0  0  0  0  0  0  0
    7.2015  -15.6176   23.1301 C   0  0  0  0  0  0  0  0  0  0  0  0
    6.9191  -16.1466   24.3629 C   0  0  0  0  0  0  0  0  0  0  0  0
    6.4515  -15.3438   25.4104 C   0  0  0  0  0  0  0  0  0  0  0  0
    6.2605  -13.9915   25.2340 C   0  0  0  0  0  0  0  0  0  0  0  0
    6.5424  -13.4575   23.9975 C   0  0  0  0  0  0  0  0  0  0  0  0
    7.0059  -14.2551   22.9595 C   0  0  0  0  0  0  0  0  0  0  0  0
    9.8143  -16.9437   23.2172 C   0  0  0  0  0  0  0  0  0  0  0  0
    9.9137  -18.1619   23.4838 O   0  0  0  0  0  0  0  0  0  0  0  0
   10.3024  -16.0011   24.1503 N   0  0  0  0  0  0  0  0  0  0  0  0
   11.1116  -16.3797   25.3077 C   0  0  1  0  0  0  0  0  0  0  0  0
   11.3143  -15.1350   26.1063 C   0  0  0  0  0  0  0  0  0  0  0  0
   10.2406  -14.7201   27.0038 C   0  0  0  0  0  0  0  0  0  0  0  0
   10.0493  -15.2150   28.2874 C   0  0  0  0  0  0  0  0  0  0  0  0
    8.9726  -14.6681   28.8211 N   0  0  0  0  0  0  0  0  0  0  0  0
    8.4160  -13.8119   27.9457 C   0  0  0  0  0  0  0  0  0  0  0  0
    7.3092  -13.0187   28.0753 C   0  0  0  0  0  0  0  0  0  0  0  0
    6.9387  -12.1992   27.0418 C   0  0  0  0  0  0  0  0  0  0  0  0
    7.7160  -12.2107   25.8869 C   0  0  0  0  0  0  0  0  0  0  0  0
    8.8307  -13.0050   25.7505 C   0  0  0  0  0  0  0  0  0  0  0  0
    9.2041  -13.8418   26.8141 C   0  0  0  0  0  0  0  0  0  0  0  0
   10.5139  -17.4457   26.1142 C   0  0  0  0  0  0  0  0  0  0  0  0
    9.2965  -17.7898   26.0112 O   0  0  0  0  0  0  0  0  0  0  0  0
   11.3418  -18.1058   27.0300 O   0  0  0  0  0  0  0  0  0  0  0  0
  2  1  1  6
  2  3  1  0
  3  4  1  0
  4  5  2  0
  6  2  1  0
  6  7  2  0
  8  4  1  0
  9  6  1  0
 10 11  1  1
 10  9  1  0
 11 12  1  0
 12 13  2  0
 12 17  1  0
 13 14  1  0
 14 15  2  0
 16 15  1  0
 17 16  2  0
 18 10  1  0
 19 18  2  0
 20 18  1  0
 21 20  1  0
 21 22  1  1
 22 23  1  0
 23 31  1  0
 24 23  2  0
 24 25  1  0
 25 26  1  0
 26 27  1  0
 27 28  2  0
 29 28  1  0
 30 29  2  0
 31 26  2  0
 31 30  1  0
 32 34  1  0
 32 21  1  0
 33 32  2  0
M  END
$$$$
