DFW.pdb
     RDKit          3D

 34 36  0  0  1  0  0  0  0  0999 V2000
   10.5823  -17.5050   17.8146 N   0  0  0  0  0  0  0  0  0  0  0  0
   10.4412  -18.3178   19.0318 C   0  0  1  0  0  0  0  0  0  0  0  0
   11.6283  -19.2691   19.0746 C   0  0  0  0  0  0  0  0  0  0  0  0
   11.3613  -20.2870   18.0401 C   0  0  0  0  0  0  0  0  0  0  0  0
   12.3102  -20.9410   17.5525 O   0  0  0  0  0  0  0  0  0  0  0  0
   10.4137  -17.4089   20.1887 C   0  0  0  0  0  0  0  0  0  0  0  0
   11.4681  -16.8083   20.5810 O   0  0  0  0  0  0  0  0  0  0  0  0
   10.0709  -20.5576   17.5812 O   0  0  0  0  0  0  0  0  0  0  0  0
    9.2180  -17.1622   20.9042 N   0  0  0  0  0  0  0  0  0  0  0  0
    9.1277  -16.2653   22.0611 C   0  0  1  0  0  0  0  0  0  0  0  0
    7.7702  -15.5559   21.9217 C   0  0  0  0  0  0  0  0  0  0  0  0
    7.5204  -14.6525   23.0451 C   0  0  0  0  0  0  0  0  0  0  0  0
    7.9916  -13.3651   23.0411 C   0  0  0  0  0  0  0  0  0  0  0  0
    7.7678  -12.5040   24.1223 C   0  0  0  0  0  0  0  0  0  0  0  0
    7.0638  -12.9256   25.2281 C   0  0  0  0  0  0  0  0  0  0  0  0
    6.5900  -14.2175   25.2356 C   0  0  0  0  0  0  0  0  0  0  0  0
    6.8129  -15.0704   24.1625 C   0  0  0  0  0  0  0  0  0  0  0  0
    9.2984  -16.9199   23.3450 C   0  0  0  0  0  0  0  0  0  0  0  0
    8.7187  -18.0000   23.5950 O   0  0  0  0  0  0  0  0  0  0  0  0
   10.1251  -16.3460   24.3373 N   0  0  0  0  0  0  0  0  0  0  0  0
   11.0690  -17.1307   25.1315 C   0  0  1  0  0  0  0  0  0  0  0  0
   10.6238  -17.0154   26.5516 C   0  0  0  0  0  0  0  0  0  0  0  0
    9.5397  -16.0852   26.8513 C   0  0  0  0  0  0  0  0  0  0  0  0
    8.1917  -16.3529   26.6504 C   0  0  0  0  0  0  0  0  0  0  0  0
    7.4722  -15.2972   26.9832 N   0  0  0  0  0  0  0  0  0  0  0  0
    8.2819  -14.3103   27.4073 C   0  0  0  0  0  0  0  0  0  0  0  0
    7.9760  -13.0571   27.8618 C   0  0  0  0  0  0  0  0  0  0  0  0
    8.9817  -12.2192   28.2660 C   0  0  0  0  0  0  0  0  0  0  0  0
   10.2911  -12.6866   28.1941 C   0  0  0  0  0  0  0  0  0  0  0  0
   10.6055  -13.9461   27.7392 C   0  0  0  0  0  0  0  0  0  0  0  0
    9.5693  -14.7989   27.3270 C   0  0  0  0  0  0  0  0  0  0  0  0
   11.1656  -18.5294   24.7092 C   0  0  0  0  0  0  0  0  0  0  0  0
   11.9786  -19.3535   25.2300 O   0  0  0  0  0  0  0  0  0  0  0  0
   10.3099  -18.9574   23.6874 O   0  0  0  0  0  0  0  0  0  0  0  0
  2  1  1  6
  2  3  1  0
  3  4  1  0
  4  5  2  0
  6  2  1  0
  6  7  2  0
  8  4  1  0
  9  6  1  0
 10 11  1  1
 10  9  1  0
 11 12  1  0
 12 13  2  0
 12 17  1  0
 13 14  1  0
 14 15  2  0
 16 15  1  0
 17 16  2  0
 18 10  1  0
 19 18  2  0
 20 18  1  0
 21 20  1  0
 21 22  1  1
 22 23  1  0
 23 31  1  0
 24 23  2  0
 24 25  1  0
 25 26  1  0
 26 27  1  0
 27 28  2  0
 29 28  1  0
 30 29  2  0
 31 26  2  0
 31 30  1  0
 32 34  1  0
 32 21  1  0
 33 32  2  0
M  END
$$$$
