DFW.pdb
     RDKit          3D

 34 36  0  0  1  0  0  0  0  0999 V2000
   10.4958  -18.5912   19.2425 N   0  0  0  0  0  0  0  0  0  0  0  0
   11.6302  -17.7103   19.5579 C   0  0  1  0  0  0  0  0  0  0  0  0
   11.9084  -16.8770   18.3153 C   0  0  0  0  0  0  0  0  0  0  0  0
   12.6910  -17.7483   17.4176 C   0  0  0  0  0  0  0  0  0  0  0  0
   12.2859  -17.9651   16.2537 O   0  0  0  0  0  0  0  0  0  0  0  0
   11.2574  -16.8797   20.7139 C   0  0  0  0  0  0  0  0  0  0  0  0
   12.0483  -15.9884   21.1683 O   0  0  0  0  0  0  0  0  0  0  0  0
   13.8874  -18.3445   17.8200 O   0  0  0  0  0  0  0  0  0  0  0  0
   10.0076  -17.0332   21.3596 N   0  0  0  0  0  0  0  0  0  0  0  0
    9.5532  -16.1920   22.4718 C   0  0  1  0  0  0  0  0  0  0  0  0
    8.0567  -15.9486   22.2135 C   0  0  0  0  0  0  0  0  0  0  0  0
    7.8498  -14.9250   21.1888 C   0  0  0  0  0  0  0  0  0  0  0  0
    7.2948  -15.2360   19.9745 C   0  0  0  0  0  0  0  0  0  0  0  0
    7.1111  -14.2612   18.9863 C   0  0  0  0  0  0  0  0  0  0  0  0
    7.4836  -12.9537   19.2049 C   0  0  0  0  0  0  0  0  0  0  0  0
    8.0416  -12.6383   20.4226 C   0  0  0  0  0  0  0  0  0  0  0  0
    8.2232  -13.6062   21.4016 C   0  0  0  0  0  0  0  0  0  0  0  0
    9.8216  -16.7391   23.7889 C   0  0  0  0  0  0  0  0  0  0  0  0
    9.9047  -17.9750   23.9640 O   0  0  0  0  0  0  0  0  0  0  0  0
    9.9940  -15.8816   24.8991 N   0  0  0  0  0  0  0  0  0  0  0  0
   10.1672  -16.3786   26.2631 C   0  0  1  0  0  0  0  0  0  0  0  0
    9.6172  -15.3269   27.1685 C   0  0  0  0  0  0  0  0  0  0  0  0
    8.2784  -14.8186   26.8864 C   0  0  0  0  0  0  0  0  0  0  0  0
    7.1892  -15.6102   26.5455 C   0  0  0  0  0  0  0  0  0  0  0  0
    6.1366  -14.8468   26.3165 N   0  0  0  0  0  0  0  0  0  0  0  0
    6.4661  -13.5541   26.4892 C   0  0  0  0  0  0  0  0  0  0  0  0
    5.6969  -12.4288   26.3764 C   0  0  0  0  0  0  0  0  0  0  0  0
    6.2525  -11.2013   26.6240 C   0  0  0  0  0  0  0  0  0  0  0  0
    7.5965  -11.1520   26.9837 C   0  0  0  0  0  0  0  0  0  0  0  0
    8.3753  -12.2799   27.1000 C   0  0  0  0  0  0  0  0  0  0  0  0
    7.7986  -13.5342   26.8449 C   0  0  0  0  0  0  0  0  0  0  0  0
    9.5312  -17.6767   26.4966 C   0  0  0  0  0  0  0  0  0  0  0  0
    9.7716  -18.3896   27.5189 O   0  0  0  0  0  0  0  0  0  0  0  0
    8.6160  -18.1303   25.5394 O   0  0  0  0  0  0  0  0  0  0  0  0
  2  1  1  6
  2  3  1  0
  3  4  1  0
  4  5  2  0
  6  2  1  0
  6  7  2  0
  8  4  1  0
  9  6  1  0
 10 11  1  6
 10  9  1  0
 11 12  1  0
 12 13  2  0
 12 17  1  0
 13 14  1  0
 14 15  2  0
 16 15  1  0
 17 16  2  0
 18 10  1  0
 19 18  2  0
 20 18  1  0
 21 20  1  0
 21 22  1  1
 22 23  1  0
 23 31  1  0
 24 23  2  0
 24 25  1  0
 25 26  1  0
 26 27  1  0
 27 28  2  0
 29 28  1  0
 30 29  2  0
 31 26  2  0
 31 30  1  0
 32 34  1  0
 32 21  1  0
 33 32  2  0
M  END
$$$$
