DFW.pdb
     RDKit          3D

 34 36  0  0  1  0  0  0  0  0999 V2000
    4.4418  -21.1529   24.3645 N   0  0  0  0  0  0  0  0  0  0  0  0
    5.8253  -20.7455   24.0775 C   0  0  1  0  0  0  0  0  0  0  0  0
    6.1256  -21.1606   22.6445 C   0  0  0  0  0  0  0  0  0  0  0  0
    7.5199  -21.6440   22.6530 C   0  0  0  0  0  0  0  0  0  0  0  0
    8.1409  -21.7298   23.7359 O   0  0  0  0  0  0  0  0  0  0  0  0
    5.9228  -19.2897   24.2679 C   0  0  0  0  0  0  0  0  0  0  0  0
    5.1671  -18.4882   23.6253 O   0  0  0  0  0  0  0  0  0  0  0  0
    8.1815  -22.0208   21.4830 O   0  0  0  0  0  0  0  0  0  0  0  0
    6.8519  -18.7253   25.1739 N   0  0  0  0  0  0  0  0  0  0  0  0
    7.1649  -17.2939   25.2382 C   0  0  1  0  0  0  0  0  0  0  0  0
    6.8894  -16.8815   26.6940 C   0  0  0  0  0  0  0  0  0  0  0  0
    7.1203  -15.4512   26.8982 C   0  0  0  0  0  0  0  0  0  0  0  0
    6.1240  -14.5329   26.6900 C   0  0  0  0  0  0  0  0  0  0  0  0
    6.3475  -13.1623   26.8689 C   0  0  0  0  0  0  0  0  0  0  0  0
    7.5808  -12.6923   27.2617 C   0  0  0  0  0  0  0  0  0  0  0  0
    8.5833  -13.6115   27.4709 C   0  0  0  0  0  0  0  0  0  0  0  0
    8.3601  -14.9705   27.2930 C   0  0  0  0  0  0  0  0  0  0  0  0
    8.5026  -16.9497   24.7928 C   0  0  0  0  0  0  0  0  0  0  0  0
    9.4956  -17.6015   25.1854 O   0  0  0  0  0  0  0  0  0  0  0  0
    8.7060  -15.8688   23.9053 N   0  0  0  0  0  0  0  0  0  0  0  0
   10.0329  -15.4615   23.4457 C   0  0  1  0  0  0  0  0  0  0  0  0
    9.8449  -14.1894   22.6876 C   0  0  0  0  0  0  0  0  0  0  0  0
    8.7633  -14.1340   21.7092 C   0  0  0  0  0  0  0  0  0  0  0  0
    7.4873  -14.6432   21.9134 C   0  0  0  0  0  0  0  0  0  0  0  0
    6.7581  -14.4700   20.8265 N   0  0  0  0  0  0  0  0  0  0  0  0
    7.4913  -13.8573   19.8798 C   0  0  0  0  0  0  0  0  0  0  0  0
    7.1448  -13.4679   18.6152 C   0  0  0  0  0  0  0  0  0  0  0  0
    8.0665  -12.8316   17.8263 C   0  0  0  0  0  0  0  0  0  0  0  0
    9.3352  -12.6070   18.3536 C   0  0  0  0  0  0  0  0  0  0  0  0
    9.6898  -12.9950   19.6248 C   0  0  0  0  0  0  0  0  0  0  0  0
    8.7396  -13.6463   20.4273 C   0  0  0  0  0  0  0  0  0  0  0  0
   11.0034  -15.3035   24.5307 C   0  0  0  0  0  0  0  0  0  0  0  0
   10.6877  -15.3868   25.7573 O   0  0  0  0  0  0  0  0  0  0  0  0
   12.3349  -15.0555   24.1767 O   0  0  0  0  0  0  0  0  0  0  0  0
  2  1  1  6
  2  3  1  0
  3  4  1  0
  4  5  2  0
  6  2  1  0
  6  7  2  0
  8  4  1  0
  9  6  1  0
 10 11  1  1
 10  9  1  0
 11 12  1  0
 12 13  2  0
 12 17  1  0
 13 14  1  0
 14 15  2  0
 16 15  1  0
 17 16  2  0
 18 10  1  0
 19 18  2  0
 20 18  1  0
 21 20  1  0
 21 22  1  1
 22 23  1  0
 23 31  1  0
 24 23  2  0
 24 25  1  0
 25 26  1  0
 26 27  1  0
 27 28  2  0
 29 28  1  0
 30 29  2  0
 31 26  2  0
 31 30  1  0
 32 34  1  0
 32 21  1  0
 33 32  2  0
M  END
$$$$
