DFW.pdb
     RDKit          3D

 34 36  0  0  1  0  0  0  0  0999 V2000
    9.5753  -17.4271   18.4993 N   0  0  0  0  0  0  0  0  0  0  0  0
   10.8949  -17.3545   19.1441 C   0  0  1  0  0  0  0  0  0  0  0  0
   11.8019  -16.5571   18.2181 C   0  0  0  0  0  0  0  0  0  0  0  0
   11.8903  -17.3431   16.9723 C   0  0  0  0  0  0  0  0  0  0  0  0
   12.0932  -18.5765   17.0290 O   0  0  0  0  0  0  0  0  0  0  0  0
   10.7290  -16.7069   20.4549 C   0  0  0  0  0  0  0  0  0  0  0  0
   11.7351  -16.4457   21.1937 O   0  0  0  0  0  0  0  0  0  0  0  0
   11.7483  -16.7565   15.7135 O   0  0  0  0  0  0  0  0  0  0  0  0
    9.4507  -16.3442   20.9416 N   0  0  0  0  0  0  0  0  0  0  0  0
    9.1965  -15.8892   22.3125 C   0  0  1  0  0  0  0  0  0  0  0  0
    7.8403  -15.1661   22.2571 C   0  0  0  0  0  0  0  0  0  0  0  0
    7.4861  -14.5921   23.5554 C   0  0  0  0  0  0  0  0  0  0  0  0
    7.8268  -13.3048   23.8810 C   0  0  0  0  0  0  0  0  0  0  0  0
    7.5033  -12.7590   25.1292 C   0  0  0  0  0  0  0  0  0  0  0  0
    6.8293  -13.5020   26.0726 C   0  0  0  0  0  0  0  0  0  0  0  0
    6.4864  -14.7948   25.7491 C   0  0  0  0  0  0  0  0  0  0  0  0
    6.8080  -15.3347   24.5108 C   0  0  0  0  0  0  0  0  0  0  0  0
    9.2408  -16.9394   23.3131 C   0  0  0  0  0  0  0  0  0  0  0  0
    8.5996  -18.0018   23.1549 O   0  0  0  0  0  0  0  0  0  0  0  0
   10.0117  -16.7784   24.4867 N   0  0  0  0  0  0  0  0  0  0  0  0
   10.4456  -17.9067   25.3091 C   0  0  1  0  0  0  0  0  0  0  0  0
   11.4736  -17.3723   26.2503 C   0  0  0  0  0  0  0  0  0  0  0  0
   11.0175  -16.8728   27.5436 C   0  0  0  0  0  0  0  0  0  0  0  0
   11.0367  -17.6048   28.7239 C   0  0  0  0  0  0  0  0  0  0  0  0
   10.5231  -16.8850   29.7043 N   0  0  0  0  0  0  0  0  0  0  0  0
   10.1508  -15.6799   29.2370 C   0  0  0  0  0  0  0  0  0  0  0  0
    9.5936  -14.6170   29.8931 C   0  0  0  0  0  0  0  0  0  0  0  0
    9.3148  -13.4663   29.2037 C   0  0  0  0  0  0  0  0  0  0  0  0
    9.6141  -13.4292   27.8446 C   0  0  0  0  0  0  0  0  0  0  0  0
   10.1755  -14.4941   27.1790 C   0  0  0  0  0  0  0  0  0  0  0  0
   10.4585  -15.6696   27.8924 C   0  0  0  0  0  0  0  0  0  0  0  0
    9.3496  -18.5631   26.0246 C   0  0  0  0  0  0  0  0  0  0  0  0
    8.1867  -18.0626   26.1159 O   0  0  0  0  0  0  0  0  0  0  0  0
    9.6167  -19.8001   26.6231 O   0  0  0  0  0  0  0  0  0  0  0  0
  2  1  1  6
  2  3  1  0
  3  4  1  0
  4  5  2  0
  6  2  1  0
  6  7  2  0
  8  4  1  0
  9  6  1  0
 10 11  1  6
 10  9  1  0
 11 12  1  0
 12 13  2  0
 12 17  1  0
 13 14  1  0
 14 15  2  0
 16 15  1  0
 17 16  2  0
 18 10  1  0
 19 18  2  0
 20 18  1  0
 21 20  1  0
 21 22  1  1
 22 23  1  0
 23 31  1  0
 24 23  2  0
 24 25  1  0
 25 26  1  0
 26 27  1  0
 27 28  2  0
 29 28  1  0
 30 29  2  0
 31 26  2  0
 31 30  1  0
 32 34  1  0
 32 21  1  0
 33 32  2  0
M  END
$$$$
