DFW.pdb
     RDKit          3D

 34 36  0  0  1  0  0  0  0  0999 V2000
    9.0723  -18.4349   20.1517 N   0  0  0  0  0  0  0  0  0  0  0  0
   10.3287  -17.7974   19.7306 C   0  0  1  0  0  0  0  0  0  0  0  0
   10.1785  -17.4421   18.2584 C   0  0  0  0  0  0  0  0  0  0  0  0
   10.1983  -18.7275   17.5338 C   0  0  0  0  0  0  0  0  0  0  0  0
   11.1575  -19.5153   17.6924 O   0  0  0  0  0  0  0  0  0  0  0  0
   10.5435  -16.6090   20.5714 C   0  0  0  0  0  0  0  0  0  0  0  0
   11.5628  -15.8603   20.4074 O   0  0  0  0  0  0  0  0  0  0  0  0
    9.1701  -19.1077   16.6696 O   0  0  0  0  0  0  0  0  0  0  0  0
    9.6262  -16.2489   21.5869 N   0  0  0  0  0  0  0  0  0  0  0  0
    9.7319  -15.0245   22.3874 C   0  0  1  0  0  0  0  0  0  0  0  0
    8.3219  -14.4103   22.3806 C   0  0  0  0  0  0  0  0  0  0  0  0
    7.9048  -14.0417   21.0275 C   0  0  0  0  0  0  0  0  0  0  0  0
    8.2767  -12.8461   20.4694 C   0  0  0  0  0  0  0  0  0  0  0  0
    7.8650  -12.4842   19.1810 C   0  0  0  0  0  0  0  0  0  0  0  0
    7.0705  -13.3223   18.4310 C   0  0  0  0  0  0  0  0  0  0  0  0
    6.6949  -14.5230   18.9886 C   0  0  0  0  0  0  0  0  0  0  0  0
    7.1040  -14.8804   20.2666 C   0  0  0  0  0  0  0  0  0  0  0  0
   10.2594  -15.2233   23.7247 C   0  0  0  0  0  0  0  0  0  0  0  0
   10.6121  -14.2488   24.4252 O   0  0  0  0  0  0  0  0  0  0  0  0
   10.3836  -16.5258   24.2592 N   0  0  0  0  0  0  0  0  0  0  0  0
    9.5959  -16.9913   25.3995 C   0  0  1  0  0  0  0  0  0  0  0  0
    8.1690  -16.6953   25.0758 C   0  0  0  0  0  0  0  0  0  0  0  0
    7.4478  -15.7801   25.9547 C   0  0  0  0  0  0  0  0  0  0  0  0
    6.2692  -16.0901   26.6212 C   0  0  0  0  0  0  0  0  0  0  0  0
    5.8513  -15.0389   27.3020 N   0  0  0  0  0  0  0  0  0  0  0  0
    6.7049  -14.0143   27.1258 C   0  0  0  0  0  0  0  0  0  0  0  0
    6.6797  -12.7502   27.6475 C   0  0  0  0  0  0  0  0  0  0  0  0
    7.6835  -11.8704   27.3392 C   0  0  0  0  0  0  0  0  0  0  0  0
    8.7002  -12.3076   26.4946 C   0  0  0  0  0  0  0  0  0  0  0  0
    8.7321  -13.5778   25.9675 C   0  0  0  0  0  0  0  0  0  0  0  0
    7.6999  -14.4737   26.2884 C   0  0  0  0  0  0  0  0  0  0  0  0
    9.7954  -18.4089   25.7071 C   0  0  0  0  0  0  0  0  0  0  0  0
    9.4419  -18.9333   26.8077 O   0  0  0  0  0  0  0  0  0  0  0  0
   10.4002  -19.2048   24.7271 O   0  0  0  0  0  0  0  0  0  0  0  0
  2  1  1  1
  2  3  1  0
  3  4  1  0
  4  5  2  0
  6  2  1  0
  6  7  2  0
  8  4  1  0
  9  6  1  0
 10 11  1  1
 10  9  1  0
 11 12  1  0
 12 13  2  0
 12 17  1  0
 13 14  1  0
 14 15  2  0
 16 15  1  0
 17 16  2  0
 18 10  1  0
 19 18  2  0
 20 18  1  0
 21 20  1  0
 21 22  1  6
 22 23  1  0
 23 31  1  0
 24 23  2  0
 24 25  1  0
 25 26  1  0
 26 27  1  0
 27 28  2  0
 29 28  1  0
 30 29  2  0
 31 26  2  0
 31 30  1  0
 32 34  1  0
 32 21  1  0
 33 32  2  0
M  END
$$$$
