LRR.pdb
     RDKit          3D

 31 30  0  0  1  0  0  0  0  0999 V2000
    6.1193  -11.9964   24.2246 C   0  0  0  0  0  0  0  0  0  0  0  0
    7.1593  -12.7672   24.9905 C   0  0  1  0  0  0  0  0  0  0  0  0
    7.7867  -11.8636   26.0453 C   0  0  0  0  0  0  0  0  0  0  0  0
    6.5269  -13.9402   25.6879 C   0  0  0  0  0  0  0  0  0  0  0  0
    6.1396  -15.0011   24.7119 C   0  0  2  0  0  0  0  0  0  0  0  0
    5.4477  -16.1120   25.2988 N   0  0  0  0  0  0  0  0  0  0  0  0
    7.3692  -15.4566   23.9870 C   0  0  0  0  0  0  0  0  0  0  0  0
    8.0600  -16.3695   24.5593 O   0  0  0  0  0  0  0  0  0  0  0  0
    7.7349  -12.6895   16.6195 N   0  0  0  0  0  0  0  0  0  0  0  0
    7.5567  -14.0684   16.3419 C   0  0  0  0  0  0  0  0  0  0  0  0
    6.9113  -14.4529   15.2795 N   0  0  0  0  0  0  0  0  0  0  0  0
    8.0924  -15.0460   17.2408 N   0  0  0  0  0  0  0  0  0  0  0  0
    8.9446  -14.6524   18.3444 C   0  0  0  0  0  0  0  0  0  0  0  0
    8.2805  -15.1261   19.6526 C   0  0  0  0  0  0  0  0  0  0  0  0
    9.1065  -14.6909   20.8070 C   0  0  0  0  0  0  0  0  0  0  0  0
    8.9408  -15.4527   22.0829 C   0  0  2  0  0  0  0  0  0  0  0  0
    7.7556  -14.9187   22.7417 N   0  0  0  0  0  0  0  0  0  0  0  0
   10.0775  -15.4629   22.9954 C   0  0  0  0  0  0  0  0  0  0  0  0
   10.4283  -14.3506   23.5261 O   0  0  0  0  0  0  0  0  0  0  0  0
    6.7887  -15.4542   15.0765 N   0  0  0  0  0  0  0  0  0  0  0  0
   11.9322  -18.1935   31.0657 C   0  0  0  0  0  0  0  0  0  0  0  0
   11.5782  -16.9774   30.4394 N   0  0  0  0  0  0  0  0  0  0  0  0
   10.8297  -16.0846   31.0350 N   0  0  0  0  0  0  0  0  0  0  0  0
   12.0238  -16.6618   29.1158 C   0  0  0  0  0  0  0  0  0  0  0  0
   11.8944  -17.6273   28.0622 C   0  0  0  0  0  0  0  0  0  0  0  0
   12.4728  -17.0725   26.7529 C   0  0  0  0  0  0  0  0  0  0  0  0
   11.4387  -17.1401   25.6712 C   0  0  2  0  0  0  0  0  0  0  0  0
   11.9008  -16.5172   24.4112 N   0  0  0  0  0  0  0  0  0  0  0  0
   10.8560  -16.5853   23.3747 C   0  0  0  0  0  0  0  0  0  0  0  0
   13.1419  -17.1366   23.9257 O   0  0  0  0  0  0  0  0  0  0  0  0
   14.3456  -16.9226   24.5830 O   0  0  0  0  0  0  0  0  0  0  0  0
  2  1  1  1
  3  2  1  0
  4  2  1  0
  5  4  1  0
  5  6  1  1
  7  8  2  0
  7  5  1  0
 10  9  1  0
 10 11  2  0
 12 10  1  0
 13 12  1  0
 13 14  1  0
 14 15  1  0
 16 15  1  6
 16 17  1  0
 17  7  1  0
 18 16  1  0
 18 19  2  0
 20 21  1  0
 21 22  2  0
 23 24  1  0
 23 21  1  0
 25 24  1  0
 26 25  1  0
 27 28  1  0
 27 26  1  1
 28 18  1  0
 29 27  1  0
 30 29  1  0
 31 29  2  0
M  END
$$$$
