LRR.pdb
     RDKit          3D

 31 30  0  0  1  0  0  0  0  0999 V2000
    9.2983  -21.0052   15.4057 C   0  0  0  0  0  0  0  0  0  0  0  0
    8.5270  -20.9336   16.6950 C   0  0  1  0  0  0  0  0  0  0  0  0
    8.5326  -22.3015   17.3668 C   0  0  0  0  0  0  0  0  0  0  0  0
    9.1688  -19.9450   17.6294 C   0  0  0  0  0  0  0  0  0  0  0  0
    8.4695  -19.9192   18.9479 C   0  0  2  0  0  0  0  0  0  0  0  0
    7.0535  -19.7102   18.8554 N   0  0  0  0  0  0  0  0  0  0  0  0
    9.1113  -18.8751   19.8099 C   0  0  0  0  0  0  0  0  0  0  0  0
   10.3787  -18.9660   19.9626 O   0  0  0  0  0  0  0  0  0  0  0  0
    9.4264  -13.1644   18.5318 N   0  0  0  0  0  0  0  0  0  0  0  0
    8.1153  -12.8784   18.0741 C   0  0  0  0  0  0  0  0  0  0  0  0
    7.9102  -12.4937   16.8482 N   0  0  0  0  0  0  0  0  0  0  0  0
    7.0075  -13.0143   18.9712 N   0  0  0  0  0  0  0  0  0  0  0  0
    7.1595  -13.6940   20.2417 C   0  0  0  0  0  0  0  0  0  0  0  0
    8.1360  -14.8697   20.0400 C   0  0  0  0  0  0  0  0  0  0  0  0
    8.2368  -15.6451   21.3022 C   0  0  0  0  0  0  0  0  0  0  0  0
    9.0723  -16.8846   21.2700 C   0  0  2  0  0  0  0  0  0  0  0  0
    8.3720  -17.8431   20.4245 N   0  0  0  0  0  0  0  0  0  0  0  0
    9.4121  -17.4826   22.5552 C   0  0  0  0  0  0  0  0  0  0  0  0
    8.4704  -18.0369   23.2244 O   0  0  0  0  0  0  0  0  0  0  0  0
    6.9556  -12.3091   16.5114 N   0  0  0  0  0  0  0  0  0  0  0  0
   16.3518  -21.5421   25.9793 C   0  0  0  0  0  0  0  0  0  0  0  0
   15.1035  -22.1233   25.6625 N   0  0  0  0  0  0  0  0  0  0  0  0
   14.9766  -23.4039   25.4256 N   0  0  0  0  0  0  0  0  0  0  0  0
   13.9108  -21.3349   25.5851 C   0  0  0  0  0  0  0  0  0  0  0  0
   13.9397  -19.9466   25.9465 C   0  0  0  0  0  0  0  0  0  0  0  0
   12.5237  -19.3545   25.9137 C   0  0  0  0  0  0  0  0  0  0  0  0
   12.2652  -18.7283   24.5776 C   0  0  2  0  0  0  0  0  0  0  0  0
   10.9222  -18.1129   24.4950 N   0  0  0  0  0  0  0  0  0  0  0  0
   10.6918  -17.5257   23.1636 C   0  0  0  0  0  0  0  0  0  0  0  0
   10.7274  -17.0985   25.5404 O   0  0  0  0  0  0  0  0  0  0  0  0
   10.5145  -17.4721   26.8602 O   0  0  0  0  0  0  0  0  0  0  0  0
  2  1  1  6
  3  2  1  0
  4  2  1  0
  5  4  1  0
  5  6  1  6
  7  8  2  0
  7  5  1  0
 10  9  1  0
 10 11  2  0
 12 10  1  0
 13 12  1  0
 13 14  1  0
 14 15  1  0
 16 15  1  1
 16 17  1  0
 17  7  1  0
 18 16  1  0
 18 19  2  0
 20 21  1  0
 21 22  2  0
 23 24  1  0
 23 21  1  0
 25 24  1  0
 26 25  1  0
 27 28  1  0
 27 26  1  6
 28 18  1  0
 29 27  1  0
 30 29  1  0
 31 29  2  0
M  END
$$$$
