LRR.pdb
     RDKit          3D

 31 30  0  0  1  0  0  0  0  0999 V2000
    5.5047  -11.8961   27.6651 C   0  0  0  0  0  0  0  0  0  0  0  0
    6.0756  -11.8406   26.2745 C   0  0  1  0  0  0  0  0  0  0  0  0
    7.1147  -10.7285   26.1961 C   0  0  0  0  0  0  0  0  0  0  0  0
    6.7494  -13.1424   25.9378 C   0  0  0  0  0  0  0  0  0  0  0  0
    7.4590  -13.0573   24.6273 C   0  0  2  0  0  0  0  0  0  0  0  0
    6.6877  -12.4483   23.5826 N   0  0  0  0  0  0  0  0  0  0  0  0
    7.9044  -14.4327   24.2338 C   0  0  0  0  0  0  0  0  0  0  0  0
    8.3531  -15.1748   25.1751 O   0  0  0  0  0  0  0  0  0  0  0  0
    9.8303  -14.7472   17.6681 N   0  0  0  0  0  0  0  0  0  0  0  0
    8.5749  -14.0939   17.5821 C   0  0  0  0  0  0  0  0  0  0  0  0
    8.4943  -12.8651   17.1620 N   0  0  0  0  0  0  0  0  0  0  0  0
    7.3854  -14.7946   17.9624 N   0  0  0  0  0  0  0  0  0  0  0  0
    7.4476  -15.9337   18.8555 C   0  0  0  0  0  0  0  0  0  0  0  0
    7.9885  -15.4459   20.2142 C   0  0  0  0  0  0  0  0  0  0  0  0
    7.8942  -16.5487   21.2038 C   0  0  0  0  0  0  0  0  0  0  0  0
    8.3193  -16.2399   22.6036 C   0  0  2  0  0  0  0  0  0  0  0  0
    7.8377  -14.8975   22.9038 N   0  0  0  0  0  0  0  0  0  0  0  0
    9.7419  -16.3556   22.8999 C   0  0  0  0  0  0  0  0  0  0  0  0
   10.4886  -15.3444   22.6513 O   0  0  0  0  0  0  0  0  0  0  0  0
    7.5839  -12.3879   17.1145 N   0  0  0  0  0  0  0  0  0  0  0  0
   11.6304  -17.7310   30.6650 C   0  0  0  0  0  0  0  0  0  0  0  0
   11.4443  -16.8184   29.6025 N   0  0  0  0  0  0  0  0  0  0  0  0
   10.5654  -15.8512   29.6671 N   0  0  0  0  0  0  0  0  0  0  0  0
   12.2124  -16.9084   28.3975 C   0  0  0  0  0  0  0  0  0  0  0  0
   11.6872  -17.6050   27.2583 C   0  0  0  0  0  0  0  0  0  0  0  0
   12.6684  -17.5226   26.0805 C   0  0  0  0  0  0  0  0  0  0  0  0
   12.1466  -18.3234   24.9270 C   0  0  2  0  0  0  0  0  0  0  0  0
   11.8525  -17.4827   23.7456 N   0  0  0  0  0  0  0  0  0  0  0  0
   10.4101  -17.4805   23.4453 C   0  0  0  0  0  0  0  0  0  0  0  0
   12.6177  -17.9178   22.5687 O   0  0  0  0  0  0  0  0  0  0  0  0
   13.9778  -17.6584   22.4716 O   0  0  0  0  0  0  0  0  0  0  0  0
  2  1  1  1
  3  2  1  0
  4  2  1  0
  5  4  1  0
  5  6  1  6
  7  8  2  0
  7  5  1  0
 10  9  1  0
 10 11  2  0
 12 10  1  0
 13 12  1  0
 13 14  1  0
 14 15  1  0
 16 15  1  6
 16 17  1  0
 17  7  1  0
 18 16  1  0
 18 19  2  0
 20 21  1  0
 21 22  2  0
 23 24  1  0
 23 21  1  0
 25 24  1  0
 26 25  1  0
 27 28  1  0
 27 26  1  1
 28 18  1  0
 29 27  1  0
 30 29  1  0
 31 29  2  0
M  END
$$$$
