LRR.pdb
     RDKit          3D

 31 30  0  0  1  0  0  0  0  0999 V2000
    8.6360  -12.1649   19.9660 C   0  0  0  0  0  0  0  0  0  0  0  0
    7.8653  -13.3885   19.5521 C   0  0  1  0  0  0  0  0  0  0  0  0
    6.5601  -12.9663   18.8882 C   0  0  0  0  0  0  0  0  0  0  0  0
    8.6615  -14.1928   18.5613 C   0  0  0  0  0  0  0  0  0  0  0  0
    9.6818  -15.0369   19.2503 C   0  0  2  0  0  0  0  0  0  0  0  0
   10.5284  -15.7760   18.3591 N   0  0  0  0  0  0  0  0  0  0  0  0
    8.9795  -15.9520   20.2064 C   0  0  0  0  0  0  0  0  0  0  0  0
    8.3745  -15.3933   21.1861 O   0  0  0  0  0  0  0  0  0  0  0  0
   11.9999  -22.2096   20.9697 N   0  0  0  0  0  0  0  0  0  0  0  0
   11.0950  -22.7544   21.9155 C   0  0  0  0  0  0  0  0  0  0  0  0
   11.5065  -23.1126   23.0967 N   0  0  0  0  0  0  0  0  0  0  0  0
    9.7154  -22.9116   21.5654 N   0  0  0  0  0  0  0  0  0  0  0  0
    9.0532  -21.9519   20.7054 C   0  0  0  0  0  0  0  0  0  0  0  0
    9.0784  -20.5816   21.4112 C   0  0  0  0  0  0  0  0  0  0  0  0
    8.3686  -19.5844   20.5708 C   0  0  0  0  0  0  0  0  0  0  0  0
    8.3418  -18.1752   21.0702 C   0  0  2  0  0  0  0  0  0  0  0  0
    8.9764  -17.3535   20.0474 N   0  0  0  0  0  0  0  0  0  0  0  0
    8.9416  -17.9283   22.3756 C   0  0  0  0  0  0  0  0  0  0  0  0
   10.2204  -17.9298   22.4559 O   0  0  0  0  0  0  0  0  0  0  0  0
   10.8510  -23.5217   23.7764 N   0  0  0  0  0  0  0  0  0  0  0  0
   10.1399  -15.9438   29.3791 C   0  0  0  0  0  0  0  0  0  0  0  0
   10.2263  -14.5393   29.2510 N   0  0  0  0  0  0  0  0  0  0  0  0
   10.6820  -13.7832   30.2168 N   0  0  0  0  0  0  0  0  0  0  0  0
    9.8172  -13.8722   28.0520 C   0  0  0  0  0  0  0  0  0  0  0  0
    8.8517  -14.4806   27.1822 C   0  0  0  0  0  0  0  0  0  0  0  0
    9.4568  -15.7062   26.4835 C   0  0  0  0  0  0  0  0  0  0  0  0
    8.4140  -16.3803   25.6455 C   0  0  2  0  0  0  0  0  0  0  0  0
    8.9592  -17.5236   24.8808 N   0  0  0  0  0  0  0  0  0  0  0  0
    8.2601  -17.6787   23.5933 C   0  0  0  0  0  0  0  0  0  0  0  0
    8.8896  -18.7724   25.6526 O   0  0  0  0  0  0  0  0  0  0  0  0
    9.8836  -19.0986   26.5648 O   0  0  0  0  0  0  0  0  0  0  0  0
  2  1  1  6
  3  2  1  0
  4  2  1  0
  5  4  1  0
  5  6  1  6
  7  8  2  0
  7  5  1  0
 10  9  1  0
 10 11  2  0
 12 10  1  0
 13 12  1  0
 13 14  1  0
 14 15  1  0
 16 15  1  6
 16 17  1  0
 17  7  1  0
 18 16  1  0
 18 19  2  0
 20 21  1  0
 21 22  2  0
 23 24  1  0
 23 21  1  0
 25 24  1  0
 26 25  1  0
 27 28  1  0
 27 26  1  6
 28 18  1  0
 29 27  1  0
 30 29  1  0
 31 29  2  0
M  END
$$$$
