LRR.pdb
     RDKit          3D

 31 30  0  0  1  0  0  0  0  0999 V2000
    4.6127  -23.3737   21.8748 C   0  0  0  0  0  0  0  0  0  0  0  0
    4.7447  -22.2897   22.9092 C   0  0  1  0  0  0  0  0  0  0  0  0
    4.8559  -22.9187   24.2929 C   0  0  0  0  0  0  0  0  0  0  0  0
    5.9866  -21.4797   22.6565 C   0  0  0  0  0  0  0  0  0  0  0  0
    6.0900  -20.3405   23.6155 C   0  0  2  0  0  0  0  0  0  0  0  0
    4.8253  -19.8573   24.0888 N   0  0  0  0  0  0  0  0  0  0  0  0
    6.8775  -19.2413   22.9701 C   0  0  0  0  0  0  0  0  0  0  0  0
    7.9057  -19.5994   22.2974 O   0  0  0  0  0  0  0  0  0  0  0  0
    6.9337  -12.3808   18.3644 N   0  0  0  0  0  0  0  0  0  0  0  0
    8.2202  -12.9238   18.6099 C   0  0  0  0  0  0  0  0  0  0  0  0
    9.2776  -12.3959   18.0657 N   0  0  0  0  0  0  0  0  0  0  0  0
    8.3552  -14.0646   19.4649 N   0  0  0  0  0  0  0  0  0  0  0  0
    7.1870  -14.7634   19.9610 C   0  0  0  0  0  0  0  0  0  0  0  0
    7.1089  -14.5407   21.4845 C   0  0  0  0  0  0  0  0  0  0  0  0
    6.4680  -15.7197   22.1199 C   0  0  0  0  0  0  0  0  0  0  0  0
    7.3565  -16.8751   22.4533 C   0  0  2  0  0  0  0  0  0  0  0  0
    6.5168  -17.8829   23.0883 N   0  0  0  0  0  0  0  0  0  0  0  0
    8.5279  -16.5893   23.2724 C   0  0  0  0  0  0  0  0  0  0  0  0
    8.3367  -16.2697   24.4984 O   0  0  0  0  0  0  0  0  0  0  0  0
   10.2108  -12.7892   18.2483 N   0  0  0  0  0  0  0  0  0  0  0  0
   12.7329  -21.5207   27.7144 C   0  0  0  0  0  0  0  0  0  0  0  0
   11.6517  -20.6177   27.8237 N   0  0  0  0  0  0  0  0  0  0  0  0
   10.6162  -20.8670   28.5838 N   0  0  0  0  0  0  0  0  0  0  0  0
   11.6368  -19.3800   27.1042 C   0  0  0  0  0  0  0  0  0  0  0  0
   12.6171  -19.1251   26.0879 C   0  0  0  0  0  0  0  0  0  0  0  0
   12.3893  -17.7439   25.4577 C   0  0  0  0  0  0  0  0  0  0  0  0
   11.2049  -17.7921   24.5417 C   0  0  1  0  0  0  0  0  0  0  0  0
   11.0070  -16.5210   23.8105 N   0  0  0  0  0  0  0  0  0  0  0  0
    9.8844  -16.6269   22.8624 C   0  0  0  0  0  0  0  0  0  0  0  0
   12.2296  -16.1052   23.1090 O   0  0  0  0  0  0  0  0  0  0  0  0
   13.3759  -15.7732   23.8178 O   0  0  0  0  0  0  0  0  0  0  0  0
  2  1  1  6
  3  2  1  0
  4  2  1  0
  5  4  1  0
  5  6  1  6
  7  8  2  0
  7  5  1  0
 10  9  1  0
 10 11  2  0
 12 10  1  0
 13 12  1  0
 13 14  1  0
 14 15  1  0
 16 15  1  1
 16 17  1  0
 17  7  1  0
 18 16  1  0
 18 19  2  0
 20 21  1  0
 21 22  2  0
 23 24  1  0
 23 21  1  0
 25 24  1  0
 26 25  1  0
 27 28  1  0
 27 26  1  1
 28 18  1  0
 29 27  1  0
 30 29  1  0
 31 29  2  0
M  END
$$$$
