LRR.pdb
     RDKit          3D

 31 30  0  0  1  0  0  0  0  0999 V2000
    4.5959  -10.9512   26.9241 C   0  0  0  0  0  0  0  0  0  0  0  0
    6.0036  -11.3649   26.5928 C   0  0  1  0  0  0  0  0  0  0  0  0
    6.8726  -11.2537   27.8399 C   0  0  0  0  0  0  0  0  0  0  0  0
    6.0280  -12.7943   26.1251 C   0  0  0  0  0  0  0  0  0  0  0  0
    7.4288  -13.2908   25.9864 C   0  0  2  0  0  0  0  0  0  0  0  0
    8.4134  -12.2508   25.9083 N   0  0  0  0  0  0  0  0  0  0  0  0
    7.5017  -14.1903   24.7903 C   0  0  0  0  0  0  0  0  0  0  0  0
    6.6686  -15.1614   24.7590 O   0  0  0  0  0  0  0  0  0  0  0  0
    8.1562  -13.1378   16.3324 N   0  0  0  0  0  0  0  0  0  0  0  0
    8.4144  -14.5243   16.4774 C   0  0  0  0  0  0  0  0  0  0  0  0
    8.3635  -15.3194   15.4487 N   0  0  0  0  0  0  0  0  0  0  0  0
    8.7337  -15.0531   17.7694 N   0  0  0  0  0  0  0  0  0  0  0  0
    8.7451  -14.1989   18.9395 C   0  0  0  0  0  0  0  0  0  0  0  0
    8.8401  -15.0997   20.1870 C   0  0  0  0  0  0  0  0  0  0  0  0
    8.6285  -14.2757   21.4038 C   0  0  0  0  0  0  0  0  0  0  0  0
    8.5505  -15.0026   22.7081 C   0  0  2  0  0  0  0  0  0  0  0  0
    8.4313  -13.9893   23.7488 N   0  0  0  0  0  0  0  0  0  0  0  0
    9.6350  -15.9282   23.0113 C   0  0  0  0  0  0  0  0  0  0  0  0
   10.8355  -15.5310   22.8045 O   0  0  0  0  0  0  0  0  0  0  0  0
    8.6294  -16.3093   15.5398 N   0  0  0  0  0  0  0  0  0  0  0  0
   10.3671  -21.8537   29.0803 C   0  0  0  0  0  0  0  0  0  0  0  0
   11.6795  -21.7498   28.5674 N   0  0  0  0  0  0  0  0  0  0  0  0
   12.7198  -22.1759   29.2370 N   0  0  0  0  0  0  0  0  0  0  0  0
   11.9358  -21.1703   27.2835 C   0  0  0  0  0  0  0  0  0  0  0  0
   10.8838  -20.5046   26.5701 C   0  0  0  0  0  0  0  0  0  0  0  0
   11.3977  -19.9832   25.2207 C   0  0  0  0  0  0  0  0  0  0  0  0
   10.2712  -19.3618   24.4533 C   0  0  2  0  0  0  0  0  0  0  0  0
   10.6774  -18.1145   23.7687 N   0  0  0  0  0  0  0  0  0  0  0  0
    9.5139  -17.2450   23.5222 C   0  0  0  0  0  0  0  0  0  0  0  0
   11.3811  -18.3940   22.5091 O   0  0  0  0  0  0  0  0  0  0  0  0
   12.7468  -18.1734   22.3958 O   0  0  0  0  0  0  0  0  0  0  0  0
  2  1  1  1
  3  2  1  0
  4  2  1  0
  5  4  1  0
  5  6  1  6
  7  8  2  0
  7  5  1  0
 10  9  1  0
 10 11  2  0
 12 10  1  0
 13 12  1  0
 13 14  1  0
 14 15  1  0
 16 15  1  6
 16 17  1  0
 17  7  1  0
 18 16  1  0
 18 19  2  0
 20 21  1  0
 21 22  2  0
 23 24  1  0
 23 21  1  0
 25 24  1  0
 26 25  1  0
 27 28  1  0
 27 26  1  1
 28 18  1  0
 29 27  1  0
 30 29  1  0
 31 29  2  0
M  END
$$$$
