LRR.pdb
     RDKit          3D

 31 30  0  0  1  0  0  0  0  0999 V2000
   10.6120  -18.9010   13.0735 C   0  0  0  0  0  0  0  0  0  0  0  0
   10.8435  -19.4136   14.4685 C   0  0  1  0  0  0  0  0  0  0  0  0
   11.7915  -20.6059   14.4207 C   0  0  0  0  0  0  0  0  0  0  0  0
   11.4724  -18.3428   15.3172 C   0  0  0  0  0  0  0  0  0  0  0  0
   11.8082  -18.8617   16.6759 C   0  0  2  0  0  0  0  0  0  0  0  0
   10.9759  -19.9459   17.1106 N   0  0  0  0  0  0  0  0  0  0  0  0
   11.7588  -17.7233   17.6488 C   0  0  0  0  0  0  0  0  0  0  0  0
   12.5606  -16.7509   17.4257 O   0  0  0  0  0  0  0  0  0  0  0  0
    5.9667  -13.2796   20.6757 N   0  0  0  0  0  0  0  0  0  0  0  0
    6.9378  -13.6525   19.7123 C   0  0  0  0  0  0  0  0  0  0  0  0
    6.8495  -13.2312   18.4844 N   0  0  0  0  0  0  0  0  0  0  0  0
    8.0252  -14.5016   20.0961 N   0  0  0  0  0  0  0  0  0  0  0  0
    8.1972  -14.9109   21.4752 C   0  0  0  0  0  0  0  0  0  0  0  0
    9.5454  -15.6497   21.5890 C   0  0  0  0  0  0  0  0  0  0  0  0
    9.6667  -16.6227   20.4741 C   0  0  0  0  0  0  0  0  0  0  0  0
   10.9305  -16.5831   19.6760 C   0  0  2  0  0  0  0  0  0  0  0  0
   10.8817  -17.7102   18.7533 N   0  0  0  0  0  0  0  0  0  0  0  0
   12.1814  -16.5831   20.4242 C   0  0  0  0  0  0  0  0  0  0  0  0
   12.6318  -17.7097   20.8363 O   0  0  0  0  0  0  0  0  0  0  0  0
    7.5091  -13.5653   17.7688 N   0  0  0  0  0  0  0  0  0  0  0  0
   20.1006  -13.2289   20.0194 C   0  0  0  0  0  0  0  0  0  0  0  0
   18.9492  -13.6492   19.3166 N   0  0  0  0  0  0  0  0  0  0  0  0
   19.0266  -14.2369   18.1501 N   0  0  0  0  0  0  0  0  0  0  0  0
   17.6351  -13.4511   19.8497 C   0  0  0  0  0  0  0  0  0  0  0  0
   17.4276  -13.4382   21.2694 C   0  0  0  0  0  0  0  0  0  0  0  0
   16.5360  -14.6146   21.6914 C   0  0  0  0  0  0  0  0  0  0  0  0
   15.1802  -14.4735   21.0700 C   0  0  2  0  0  0  0  0  0  0  0  0
   14.2667  -15.5711   21.4575 N   0  0  0  0  0  0  0  0  0  0  0  0
   12.9770  -15.4572   20.7545 C   0  0  0  0  0  0  0  0  0  0  0  0
   14.0535  -15.6089   22.9111 O   0  0  0  0  0  0  0  0  0  0  0  0
   12.7755  -15.5091   23.4433 O   0  0  0  0  0  0  0  0  0  0  0  0
  2  1  1  6
  3  2  1  0
  4  2  1  0
  5  4  1  0
  5  6  1  1
  7  8  2  0
  7  5  1  0
 10  9  1  0
 10 11  2  0
 12 10  1  0
 13 12  1  0
 13 14  1  0
 14 15  1  0
 16 15  1  1
 16 17  1  0
 17  7  1  0
 18 16  1  0
 18 19  2  0
 20 21  1  0
 21 22  2  0
 23 24  1  0
 23 21  1  0
 25 24  1  0
 26 25  1  0
 27 28  1  0
 27 26  1  6
 28 18  1  0
 29 27  1  0
 30 29  1  0
 31 29  2  0
M  END
$$$$
