LRR.pdb
     RDKit          3D

 31 30  0  0  1  0  0  0  0  0999 V2000
    6.3348  -13.3263   19.1042 C   0  0  0  0  0  0  0  0  0  0  0  0
    7.7131  -12.7857   18.8389 C   0  0  1  0  0  0  0  0  0  0  0  0
    8.0632  -11.7460   19.8968 C   0  0  0  0  0  0  0  0  0  0  0  0
    8.7278  -13.8937   18.9105 C   0  0  0  0  0  0  0  0  0  0  0  0
   10.0818  -13.3619   19.2451 C   0  0  2  0  0  0  0  0  0  0  0  0
   10.6055  -12.4429   18.2763 N   0  0  0  0  0  0  0  0  0  0  0  0
   11.0135  -14.5178   19.4474 C   0  0  0  0  0  0  0  0  0  0  0  0
   10.5708  -15.4859   20.1578 O   0  0  0  0  0  0  0  0  0  0  0  0
   15.2626  -18.5345   16.2712 N   0  0  0  0  0  0  0  0  0  0  0  0
   14.8397  -18.2232   14.9542 C   0  0  0  0  0  0  0  0  0  0  0  0
   14.7229  -19.1582   14.0569 N   0  0  0  0  0  0  0  0  0  0  0  0
   14.5393  -16.8660   14.6099 N   0  0  0  0  0  0  0  0  0  0  0  0
   14.7561  -15.7934   15.5594 C   0  0  0  0  0  0  0  0  0  0  0  0
   13.5809  -15.7944   16.5571 C   0  0  0  0  0  0  0  0  0  0  0  0
   14.1141  -15.7602   17.9424 C   0  0  0  0  0  0  0  0  0  0  0  0
   13.1128  -15.7558   19.0529 C   0  0  2  0  0  0  0  0  0  0  0  0
   12.3091  -14.5509   18.8909 N   0  0  0  0  0  0  0  0  0  0  0  0
   13.6356  -15.8483   20.4104 C   0  0  0  0  0  0  0  0  0  0  0  0
   14.2709  -14.8380   20.8766 O   0  0  0  0  0  0  0  0  0  0  0  0
   14.3886  -18.9344   13.1098 N   0  0  0  0  0  0  0  0  0  0  0  0
   12.6754  -21.4082   27.4090 C   0  0  0  0  0  0  0  0  0  0  0  0
   13.8983  -20.7192   27.5706 N   0  0  0  0  0  0  0  0  0  0  0  0
   14.7132  -20.9789   28.5609 N   0  0  0  0  0  0  0  0  0  0  0  0
   14.3070  -19.6981   26.6539 C   0  0  0  0  0  0  0  0  0  0  0  0
   13.4001  -19.2299   25.6453 C   0  0  0  0  0  0  0  0  0  0  0  0
   14.0191  -18.0582   24.8702 C   0  0  0  0  0  0  0  0  0  0  0  0
   13.4438  -18.0023   23.4882 C   0  0  1  0  0  0  0  0  0  0  0  0
   14.0463  -16.9260   22.6710 N   0  0  0  0  0  0  0  0  0  0  0  0
   13.5183  -16.9492   21.2958 C   0  0  0  0  0  0  0  0  0  0  0  0
   15.5131  -17.0159   22.6556 O   0  0  0  0  0  0  0  0  0  0  0  0
   16.2719  -16.3968   23.6394 O   0  0  0  0  0  0  0  0  0  0  0  0
  2  1  1  1
  3  2  1  0
  4  2  1  0
  5  4  1  0
  5  6  1  6
  7  8  2  0
  7  5  1  0
 10  9  1  0
 10 11  2  0
 12 10  1  0
 13 12  1  0
 13 14  1  0
 14 15  1  0
 16 15  1  6
 16 17  1  0
 17  7  1  0
 18 16  1  0
 18 19  2  0
 20 21  1  0
 21 22  2  0
 23 24  1  0
 23 21  1  0
 25 24  1  0
 26 25  1  0
 27 28  1  0
 27 26  1  1
 28 18  1  0
 29 27  1  0
 30 29  1  0
 31 29  2  0
M  END
$$$$
