LRR.pdb
     RDKit          3D

 31 30  0  0  1  0  0  0  0  0999 V2000
    7.1491  -11.9810   28.3144 C   0  0  0  0  0  0  0  0  0  0  0  0
    6.2490  -12.7351   27.3743 C   0  0  1  0  0  0  0  0  0  0  0  0
    5.3967  -11.7479   26.5858 C   0  0  0  0  0  0  0  0  0  0  0  0
    7.0696  -13.5352   26.4002 C   0  0  0  0  0  0  0  0  0  0  0  0
    6.2544  -14.6158   25.7710 C   0  0  2  0  0  0  0  0  0  0  0  0
    5.7890  -15.6104   26.6936 N   0  0  0  0  0  0  0  0  0  0  0  0
    7.0550  -15.2389   24.6683 C   0  0  0  0  0  0  0  0  0  0  0  0
    7.5675  -16.3850   24.9170 O   0  0  0  0  0  0  0  0  0  0  0  0
   10.9066  -14.2172   18.0457 N   0  0  0  0  0  0  0  0  0  0  0  0
    9.9870  -14.8703   17.1867 C   0  0  0  0  0  0  0  0  0  0  0  0
   10.4007  -15.4867   16.1180 N   0  0  0  0  0  0  0  0  0  0  0  0
    8.5897  -14.8499   17.4995 N   0  0  0  0  0  0  0  0  0  0  0  0
    8.1053  -14.1870   18.6932 C   0  0  0  0  0  0  0  0  0  0  0  0
    8.4969  -15.0490   19.9099 C   0  0  0  0  0  0  0  0  0  0  0  0
    7.7869  -14.5483   21.1140 C   0  0  0  0  0  0  0  0  0  0  0  0
    7.9918  -15.3084   22.3852 C   0  0  2  0  0  0  0  0  0  0  0  0
    7.2410  -14.6091   23.4201 N   0  0  0  0  0  0  0  0  0  0  0  0
    9.3702  -15.5265   22.8064 C   0  0  0  0  0  0  0  0  0  0  0  0
   10.1478  -14.5094   22.8577 O   0  0  0  0  0  0  0  0  0  0  0  0
    9.7311  -15.9573   15.4942 N   0  0  0  0  0  0  0  0  0  0  0  0
   11.7918  -19.1962   29.7075 C   0  0  0  0  0  0  0  0  0  0  0  0
   11.9043  -19.8199   28.4447 N   0  0  0  0  0  0  0  0  0  0  0  0
   12.4141  -21.0172   28.3074 N   0  0  0  0  0  0  0  0  0  0  0  0
   11.4636  -19.1687   27.2482 C   0  0  0  0  0  0  0  0  0  0  0  0
   11.3228  -17.7411   27.2146 C   0  0  0  0  0  0  0  0  0  0  0  0
   10.6906  -17.2960   25.8883 C   0  0  0  0  0  0  0  0  0  0  0  0
   11.5460  -17.7421   24.7423 C   0  0  2  0  0  0  0  0  0  0  0  0
   11.3833  -16.8810   23.5501 N   0  0  0  0  0  0  0  0  0  0  0  0
    9.9633  -16.7597   23.1767 C   0  0  0  0  0  0  0  0  0  0  0  0
   12.1691  -17.3791   22.4124 O   0  0  0  0  0  0  0  0  0  0  0  0
   13.5428  -17.1871   22.3610 O   0  0  0  0  0  0  0  0  0  0  0  0
  2  1  1  1
  3  2  1  0
  4  2  1  0
  5  4  1  0
  5  6  1  1
  7  8  2  0
  7  5  1  0
 10  9  1  0
 10 11  2  0
 12 10  1  0
 13 12  1  0
 13 14  1  0
 14 15  1  0
 16 15  1  6
 16 17  1  0
 17  7  1  0
 18 16  1  0
 18 19  2  0
 20 21  1  0
 21 22  2  0
 23 24  1  0
 23 21  1  0
 25 24  1  0
 26 25  1  0
 27 28  1  0
 27 26  1  1
 28 18  1  0
 29 27  1  0
 30 29  1  0
 31 29  2  0
M  END
$$$$
