LRR.pdb
     RDKit          3D

 31 30  0  0  1  0  0  0  0  0999 V2000
    5.0776  -12.4740   27.2314 C   0  0  0  0  0  0  0  0  0  0  0  0
    6.0546  -12.2478   26.1104 C   0  0  1  0  0  0  0  0  0  0  0  0
    7.2080  -11.3850   26.6081 C   0  0  0  0  0  0  0  0  0  0  0  0
    6.6156  -13.5610   25.6380 C   0  0  0  0  0  0  0  0  0  0  0  0
    7.7699  -13.3517   24.7150 C   0  0  2  0  0  0  0  0  0  0  0  0
    7.4994  -12.4472   23.6353 N   0  0  0  0  0  0  0  0  0  0  0  0
    8.2182  -14.6851   24.1991 C   0  0  0  0  0  0  0  0  0  0  0  0
    8.0393  -15.6844   24.9784 O   0  0  0  0  0  0  0  0  0  0  0  0
    7.4947  -12.9055   16.2854 N   0  0  0  0  0  0  0  0  0  0  0  0
    8.2838  -13.9478   16.8341 C   0  0  0  0  0  0  0  0  0  0  0  0
    9.2048  -14.5278   16.1210 N   0  0  0  0  0  0  0  0  0  0  0  0
    8.0632  -14.3654   18.1860 N   0  0  0  0  0  0  0  0  0  0  0  0
    8.9222  -15.3522   18.8082 C   0  0  0  0  0  0  0  0  0  0  0  0
    8.4215  -15.5806   20.2483 C   0  0  0  0  0  0  0  0  0  0  0  0
    9.5289  -16.1301   21.0707 C   0  0  0  0  0  0  0  0  0  0  0  0
    9.3242  -16.1542   22.5517 C   0  0  2  0  0  0  0  0  0  0  0  0
    8.8056  -14.8448   22.9268 N   0  0  0  0  0  0  0  0  0  0  0  0
   10.4784  -16.5053   23.3698 C   0  0  0  0  0  0  0  0  0  0  0  0
   11.4862  -15.7142   23.3529 O   0  0  0  0  0  0  0  0  0  0  0  0
    9.8101  -15.2489   16.5363 N   0  0  0  0  0  0  0  0  0  0  0  0
   12.2813  -17.1796   30.0597 C   0  0  0  0  0  0  0  0  0  0  0  0
   11.6229  -16.0294   29.5700 N   0  0  0  0  0  0  0  0  0  0  0  0
   11.6723  -14.8832   30.1992 N   0  0  0  0  0  0  0  0  0  0  0  0
   10.8657  -16.0628   28.3552 C   0  0  0  0  0  0  0  0  0  0  0  0
   10.6810  -17.3014   27.6547 C   0  0  0  0  0  0  0  0  0  0  0  0
   12.0261  -17.8302   27.1372 C   0  0  0  0  0  0  0  0  0  0  0  0
   11.7961  -18.7811   26.0027 C   0  0  2  0  0  0  0  0  0  0  0  0
   11.9254  -18.1245   24.6831 N   0  0  0  0  0  0  0  0  0  0  0  0
   10.6182  -17.6441   24.2024 C   0  0  0  0  0  0  0  0  0  0  0  0
   12.5357  -19.0207   23.6911 O   0  0  0  0  0  0  0  0  0  0  0  0
   13.9146  -19.1590   23.6137 O   0  0  0  0  0  0  0  0  0  0  0  0
  2  1  1  1
  3  2  1  0
  4  2  1  0
  5  4  1  0
  5  6  1  6
  7  8  2  0
  7  5  1  0
 10  9  1  0
 10 11  2  0
 12 10  1  0
 13 12  1  0
 13 14  1  0
 14 15  1  0
 16 15  1  6
 16 17  1  0
 17  7  1  0
 18 16  1  0
 18 19  2  0
 20 21  1  0
 21 22  2  0
 23 24  1  0
 23 21  1  0
 25 24  1  0
 26 25  1  0
 27 28  1  0
 27 26  1  1
 28 18  1  0
 29 27  1  0
 30 29  1  0
 31 29  2  0
M  END
$$$$
