LRR.pdb
     RDKit          3D

 31 30  0  0  1  0  0  0  0  0999 V2000
    7.3131  -11.5449   19.6010 C   0  0  0  0  0  0  0  0  0  0  0  0
    8.2881  -12.6323   19.2415 C   0  0  1  0  0  0  0  0  0  0  0  0
    9.6724  -12.2663   19.7635 C   0  0  0  0  0  0  0  0  0  0  0  0
    7.8724  -13.9321   19.8741 C   0  0  0  0  0  0  0  0  0  0  0  0
    8.8893  -14.9976   19.6315 C   0  0  2  0  0  0  0  0  0  0  0  0
    8.8108  -15.5963   18.3306 N   0  0  0  0  0  0  0  0  0  0  0  0
    8.7641  -16.0327   20.7075 C   0  0  0  0  0  0  0  0  0  0  0  0
    7.7235  -15.9576   21.4489 O   0  0  0  0  0  0  0  0  0  0  0  0
    8.3903  -23.4726   21.4606 N   0  0  0  0  0  0  0  0  0  0  0  0
    9.5160  -23.7571   22.2743 C   0  0  0  0  0  0  0  0  0  0  0  0
    9.5086  -24.7758   23.0837 N   0  0  0  0  0  0  0  0  0  0  0  0
   10.6711  -22.9137   22.2037 N   0  0  0  0  0  0  0  0  0  0  0  0
   10.6883  -21.7479   21.3437 C   0  0  0  0  0  0  0  0  0  0  0  0
   10.0419  -20.5783   22.1124 C   0  0  0  0  0  0  0  0  0  0  0  0
   10.0893  -19.3545   21.2730 C   0  0  0  0  0  0  0  0  0  0  0  0
    9.4350  -18.1290   21.8260 C   0  0  2  0  0  0  0  0  0  0  0  0
    9.7314  -17.0403   20.9035 N   0  0  0  0  0  0  0  0  0  0  0  0
    9.7829  -17.7568   23.1917 C   0  0  0  0  0  0  0  0  0  0  0  0
   10.9650  -17.3121   23.4076 O   0  0  0  0  0  0  0  0  0  0  0  0
   10.3449  -25.0108   23.6353 N   0  0  0  0  0  0  0  0  0  0  0  0
   11.5534  -14.8708   28.4860 C   0  0  0  0  0  0  0  0  0  0  0  0
   10.6795  -14.6745   29.5788 N   0  0  0  0  0  0  0  0  0  0  0  0
   10.9145  -13.7754   30.4999 N   0  0  0  0  0  0  0  0  0  0  0  0
    9.4883  -15.4541   29.7317 C   0  0  0  0  0  0  0  0  0  0  0  0
    9.1832  -16.4960   28.7935 C   0  0  0  0  0  0  0  0  0  0  0  0
    8.7335  -15.8961   27.4539 C   0  0  0  0  0  0  0  0  0  0  0  0
    8.3027  -16.9903   26.5258 C   0  0  2  0  0  0  0  0  0  0  0  0
    9.4161  -17.4888   25.6885 N   0  0  0  0  0  0  0  0  0  0  0  0
    8.9465  -17.8287   24.3340 C   0  0  0  0  0  0  0  0  0  0  0  0
   10.0785  -18.6472   26.3042 O   0  0  0  0  0  0  0  0  0  0  0  0
   11.3211  -18.5151   26.9085 O   0  0  0  0  0  0  0  0  0  0  0  0
  2  1  1  1
  3  2  1  0
  4  2  1  0
  5  4  1  0
  5  6  1  6
  7  8  2  0
  7  5  1  0
 10  9  1  0
 10 11  2  0
 12 10  1  0
 13 12  1  0
 13 14  1  0
 14 15  1  0
 16 15  1  6
 16 17  1  0
 17  7  1  0
 18 16  1  0
 18 19  2  0
 20 21  1  0
 21 22  2  0
 23 24  1  0
 23 21  1  0
 25 24  1  0
 26 25  1  0
 27 28  1  0
 27 26  1  6
 28 18  1  0
 29 27  1  0
 30 29  1  0
 31 29  2  0
M  END
$$$$
