VFA.pdb
     RDKit          3D

 24 24  0  0  1  0  0  0  0  0999 V2000
    8.6141  -18.7987   18.2970 C   0  0  0  0  0  0  0  0  0  0  0  0
    8.9710  -18.0993   19.5928 C   0  0  2  0  0  0  0  0  0  0  0  0
    8.4623  -18.9172   20.7300 C   0  0  0  0  0  0  0  0  0  0  0  0
    8.3865  -16.7121   19.5253 C   0  0  2  0  0  0  0  0  0  0  0  0
    8.9795  -16.0648   18.3570 N   0  0  0  0  0  0  0  0  0  0  0  0
    8.6341  -15.9308   20.7594 C   0  0  0  0  0  0  0  0  0  0  0  0
    9.8034  -15.5038   20.9383 O   0  0  0  0  0  0  0  0  0  0  0  0
    7.6518  -15.6407   21.7325 N   0  0  0  0  0  0  0  0  0  0  0  0
    7.9159  -14.9771   22.9793 C   0  0  1  0  0  0  0  0  0  0  0  0
    6.7116  -14.3276   23.5882 C   0  0  0  0  0  0  0  0  0  0  0  0
    6.9466  -13.7355   24.9058 C   0  0  0  0  0  0  0  0  0  0  0  0
    6.9525  -14.4258   26.0805 C   0  0  0  0  0  0  0  0  0  0  0  0
    7.1846  -13.7891   27.2968 C   0  0  0  0  0  0  0  0  0  0  0  0
    7.4181  -12.4260   27.3524 C   0  0  0  0  0  0  0  0  0  0  0  0
    7.4135  -11.7214   26.1671 C   0  0  0  0  0  0  0  0  0  0  0  0
    7.1816  -12.3689   24.9702 C   0  0  0  0  0  0  0  0  0  0  0  0
    8.5028  -15.9445   23.9404 C   0  0  0  0  0  0  0  0  0  0  0  0
    7.7784  -16.9087   24.3562 O   0  0  0  0  0  0  0  0  0  0  0  0
   11.9999  -16.8513   24.8386 C   0  0  0  0  0  0  0  0  0  0  0  0
   10.5001  -16.9152   25.1335 C   0  0  2  0  0  0  0  0  0  0  0  0
    9.8372  -15.8471   24.4206 N   0  0  0  0  0  0  0  0  0  0  0  0
   10.3505  -16.6857   26.5856 C   0  0  0  0  0  0  0  0  0  0  0  0
   10.8174  -17.5340   27.3808 O   0  0  0  0  0  0  0  0  0  0  0  0
    9.7117  -15.5648   27.1040 O   0  0  0  0  0  0  0  0  0  0  0  0
  2  1  1  6
  2  3  1  0
  4  6  1  0
  4  2  1  0
  4  5  1  6
  6  7  2  0
  8  9  1  0
  8  6  1  0
  9 10  1  1
 11 16  2  0
 11 10  1  0
 12 11  1  0
 13 14  1  0
 13 12  2  0
 14 15  2  0
 15 16  1  0
 17  9  1  0
 18 17  2  0
 20 19  1  1
 20 21  1  0
 21 17  1  0
 22 20  1  0
 22 24  1  0
 23 22  2  0
M  END
$$$$
