VFA.pdb
     RDKit          3D

 24 24  0  0  1  0  0  0  0  0999 V2000
   12.5311  -18.0657   22.4065 C   0  0  0  0  0  0  0  0  0  0  0  0
   11.1551  -18.5386   21.9836 C   0  0  2  0  0  0  0  0  0  0  0  0
   11.3101  -19.7558   21.1377 C   0  0  0  0  0  0  0  0  0  0  0  0
   10.4845  -17.3857   21.2824 C   0  0  2  0  0  0  0  0  0  0  0  0
   11.3822  -16.9714   20.2063 N   0  0  0  0  0  0  0  0  0  0  0  0
   10.1842  -16.2609   22.1984 C   0  0  0  0  0  0  0  0  0  0  0  0
   11.0707  -15.3780   22.3261 O   0  0  0  0  0  0  0  0  0  0  0  0
    8.9812  -16.1217   22.9260 N   0  0  0  0  0  0  0  0  0  0  0  0
    8.7436  -15.1061   23.9144 C   0  0  1  0  0  0  0  0  0  0  0  0
    7.3046  -14.7131   24.0470 C   0  0  0  0  0  0  0  0  0  0  0  0
    7.0499  -13.6874   25.0594 C   0  0  0  0  0  0  0  0  0  0  0  0
    6.2821  -13.8636   26.1712 C   0  0  0  0  0  0  0  0  0  0  0  0
    6.0871  -12.8360   27.0903 C   0  0  0  0  0  0  0  0  0  0  0  0
    6.6703  -11.5948   26.9034 C   0  0  0  0  0  0  0  0  0  0  0  0
    7.4485  -11.4100   25.7802 C   0  0  0  0  0  0  0  0  0  0  0  0
    7.6311  -12.4398   24.8793 C   0  0  0  0  0  0  0  0  0  0  0  0
    9.2609  -15.5636   25.2286 C   0  0  0  0  0  0  0  0  0  0  0  0
    9.1560  -16.7986   25.5302 O   0  0  0  0  0  0  0  0  0  0  0  0
   10.8985  -13.9567   28.2345 C   0  0  0  0  0  0  0  0  0  0  0  0
   10.5763  -15.1552   27.3399 C   0  0  2  0  0  0  0  0  0  0  0  0
    9.8691  -14.6884   26.1692 N   0  0  0  0  0  0  0  0  0  0  0  0
    9.6795  -16.0307   28.1228 C   0  0  0  0  0  0  0  0  0  0  0  0
   10.1353  -16.6069   29.1377 O   0  0  0  0  0  0  0  0  0  0  0  0
    8.3492  -16.2399   27.7770 O   0  0  0  0  0  0  0  0  0  0  0  0
  2  1  1  6
  2  3  1  0
  4  6  1  0
  4  2  1  0
  4  5  1  6
  6  7  2  0
  8  9  1  0
  8  6  1  0
  9 10  1  1
 11 16  2  0
 11 10  1  0
 12 11  1  0
 13 14  1  0
 13 12  2  0
 14 15  2  0
 15 16  1  0
 17  9  1  0
 18 17  2  0
 20 19  1  1
 20 21  1  0
 21 17  1  0
 22 20  1  0
 22 24  1  0
 23 22  2  0
M  END
$$$$
