VFA.pdb
     RDKit          3D

 24 24  0  0  1  0  0  0  0  0999 V2000
    7.2561  -12.7987   21.1446 C   0  0  0  0  0  0  0  0  0  0  0  0
    8.3671  -13.3438   20.2704 C   0  0  2  0  0  0  0  0  0  0  0  0
    7.9087  -13.3252   18.8525 C   0  0  0  0  0  0  0  0  0  0  0  0
    8.7064  -14.7179   20.7873 C   0  0  2  0  0  0  0  0  0  0  0  0
    7.5414  -15.5614   20.5287 N   0  0  0  0  0  0  0  0  0  0  0  0
    9.0605  -14.7122   22.2258 C   0  0  0  0  0  0  0  0  0  0  0  0
   10.0989  -14.0833   22.5543 O   0  0  0  0  0  0  0  0  0  0  0  0
    8.3142  -15.3601   23.2354 N   0  0  0  0  0  0  0  0  0  0  0  0
    8.7066  -15.4302   24.6159 C   0  0  1  0  0  0  0  0  0  0  0  0
    7.5651  -15.3124   25.5781 C   0  0  0  0  0  0  0  0  0  0  0  0
    7.2255  -13.9372   25.9461 C   0  0  0  0  0  0  0  0  0  0  0  0
    5.9828  -13.3875   25.8444 C   0  0  0  0  0  0  0  0  0  0  0  0
    5.7389  -12.0680   26.2160 C   0  0  0  0  0  0  0  0  0  0  0  0
    6.7569  -11.2671   26.7037 C   0  0  0  0  0  0  0  0  0  0  0  0
    8.0169  -11.8173   26.8091 C   0  0  0  0  0  0  0  0  0  0  0  0
    8.2408  -13.1273   26.4361 C   0  0  0  0  0  0  0  0  0  0  0  0
    9.4375  -16.6994   24.8590 C   0  0  0  0  0  0  0  0  0  0  0  0
    9.4680  -17.1695   26.0445 O   0  0  0  0  0  0  0  0  0  0  0  0
   10.9785  -19.3604   22.6795 C   0  0  0  0  0  0  0  0  0  0  0  0
   10.7184  -18.7100   24.0396 C   0  0  2  0  0  0  0  0  0  0  0  0
   10.1066  -17.4176   23.8308 N   0  0  0  0  0  0  0  0  0  0  0  0
   12.0412  -18.5167   24.6691 C   0  0  0  0  0  0  0  0  0  0  0  0
   12.4723  -17.3499   24.8192 O   0  0  0  0  0  0  0  0  0  0  0  0
   12.8265  -19.5796   25.1015 O   0  0  0  0  0  0  0  0  0  0  0  0
  2  1  1  1
  2  3  1  0
  4  6  1  0
  4  2  1  0
  4  5  1  1
  6  7  2  0
  8  9  1  0
  8  6  1  0
  9 10  1  1
 11 16  2  0
 11 10  1  0
 12 11  1  0
 13 14  1  0
 13 12  2  0
 14 15  2  0
 15 16  1  0
 17  9  1  0
 18 17  2  0
 20 19  1  6
 20 21  1  0
 21 17  1  0
 22 20  1  0
 22 24  1  0
 23 22  2  0
M  END
$$$$
