VFA.pdb
     RDKit          3D

 24 24  0  0  1  0  0  0  0  0999 V2000
   10.7431  -19.0313   21.6808 C   0  0  0  0  0  0  0  0  0  0  0  0
    9.2568  -19.1265   21.4025 C   0  0  2  0  0  0  0  0  0  0  0  0
    9.0247  -20.2350   20.4338 C   0  0  0  0  0  0  0  0  0  0  0  0
    8.8094  -17.7755   20.9074 C   0  0  2  0  0  0  0  0  0  0  0  0
    9.6034  -17.4829   19.7159 N   0  0  0  0  0  0  0  0  0  0  0  0
    8.9619  -16.7161   21.9316 C   0  0  0  0  0  0  0  0  0  0  0  0
   10.0673  -16.1177   21.9721 O   0  0  0  0  0  0  0  0  0  0  0  0
    7.9566  -16.3428   22.8515 N   0  0  0  0  0  0  0  0  0  0  0  0
    8.1216  -15.3466   23.8736 C   0  0  1  0  0  0  0  0  0  0  0  0
    6.8489  -14.6596   24.2626 C   0  0  0  0  0  0  0  0  0  0  0  0
    7.0109  -13.6192   25.2791 C   0  0  0  0  0  0  0  0  0  0  0  0
    7.5653  -12.3942   25.0589 C   0  0  0  0  0  0  0  0  0  0  0  0
    7.6844  -11.4558   26.0806 C   0  0  0  0  0  0  0  0  0  0  0  0
    7.2410  -11.7386   27.3608 C   0  0  0  0  0  0  0  0  0  0  0  0
    6.6789  -12.9767   27.5904 C   0  0  0  0  0  0  0  0  0  0  0  0
    6.5687  -13.8949   26.5657 C   0  0  0  0  0  0  0  0  0  0  0  0
    8.7434  -15.9646   25.0716 C   0  0  0  0  0  0  0  0  0  0  0  0
    8.2041  -17.0073   25.5709 O   0  0  0  0  0  0  0  0  0  0  0  0
   12.1331  -16.0621   26.4395 C   0  0  0  0  0  0  0  0  0  0  0  0
   10.6335  -16.1498   26.7294 C   0  0  2  0  0  0  0  0  0  0  0  0
    9.9144  -15.4483   25.6906 N   0  0  0  0  0  0  0  0  0  0  0  0
   10.4160  -15.4542   28.0148 C   0  0  0  0  0  0  0  0  0  0  0  0
    9.8460  -14.3384   28.0072 O   0  0  0  0  0  0  0  0  0  0  0  0
   10.8193  -15.9897   29.2329 O   0  0  0  0  0  0  0  0  0  0  0  0
  2  1  1  6
  2  3  1  0
  4  6  1  0
  4  2  1  0
  4  5  1  6
  6  7  2  0
  8  9  1  0
  8  6  1  0
  9 10  1  1
 11 16  2  0
 11 10  1  0
 12 11  1  0
 13 14  1  0
 13 12  2  0
 14 15  2  0
 15 16  1  0
 17  9  1  0
 18 17  2  0
 20 19  1  6
 20 21  1  0
 21 17  1  0
 22 20  1  0
 22 24  1  0
 23 22  2  0
M  END
$$$$
