VFA.pdb
     RDKit          3D

 24 24  0  0  1  0  0  0  0  0999 V2000
   11.4569  -19.1579   20.1414 C   0  0  0  0  0  0  0  0  0  0  0  0
   11.3934  -17.9914   21.1062 C   0  0  2  0  0  0  0  0  0  0  0  0
   12.1719  -18.3420   22.3277 C   0  0  0  0  0  0  0  0  0  0  0  0
    9.9365  -17.7090   21.3675 C   0  0  2  0  0  0  0  0  0  0  0  0
    9.2957  -17.5740   20.0611 N   0  0  0  0  0  0  0  0  0  0  0  0
    9.7324  -16.4986   22.1968 C   0  0  0  0  0  0  0  0  0  0  0  0
   10.4970  -15.5239   21.9799 O   0  0  0  0  0  0  0  0  0  0  0  0
    8.7465  -16.3744   23.2011 N   0  0  0  0  0  0  0  0  0  0  0  0
    8.5974  -15.2280   24.0544 C   0  0  1  0  0  0  0  0  0  0  0  0
    7.2609  -15.1399   24.7246 C   0  0  0  0  0  0  0  0  0  0  0  0
    6.9883  -13.8501   25.3600 C   0  0  0  0  0  0  0  0  0  0  0  0
    6.1121  -13.6563   26.3854 C   0  0  0  0  0  0  0  0  0  0  0  0
    5.9074  -12.3948   26.9381 C   0  0  0  0  0  0  0  0  0  0  0  0
    6.5912  -11.2901   26.4610 C   0  0  0  0  0  0  0  0  0  0  0  0
    7.4795  -11.4794   25.4234 C   0  0  0  0  0  0  0  0  0  0  0  0
    7.6701  -12.7371   24.8874 C   0  0  0  0  0  0  0  0  0  0  0  0
    9.6720  -15.2301   25.0787 C   0  0  0  0  0  0  0  0  0  0  0  0
   10.8477  -14.8772   24.7315 O   0  0  0  0  0  0  0  0  0  0  0  0
   10.2093  -14.0899   28.1589 C   0  0  0  0  0  0  0  0  0  0  0  0
   10.4426  -15.4359   27.4700 C   0  0  2  0  0  0  0  0  0  0  0  0
    9.4525  -15.6077   26.4314 N   0  0  0  0  0  0  0  0  0  0  0  0
   10.2379  -16.4734   28.5021 C   0  0  0  0  0  0  0  0  0  0  0  0
   11.0256  -16.5188   29.4754 O   0  0  0  0  0  0  0  0  0  0  0  0
    9.2048  -17.4016   28.4352 O   0  0  0  0  0  0  0  0  0  0  0  0
  2  1  1  6
  2  3  1  0
  4  6  1  0
  4  2  1  0
  4  5  1  6
  6  7  2  0
  8  9  1  0
  8  6  1  0
  9 10  1  1
 11 16  2  0
 11 10  1  0
 12 11  1  0
 13 14  1  0
 13 12  2  0
 14 15  2  0
 15 16  1  0
 17  9  1  0
 18 17  2  0
 20 19  1  1
 20 21  1  0
 21 17  1  0
 22 20  1  0
 22 24  1  0
 23 22  2  0
M  END
$$$$
