VFA.pdb
     RDKit          3D

 24 24  0  0  1  0  0  0  0  0999 V2000
    7.5051  -14.8544   18.4015 C   0  0  0  0  0  0  0  0  0  0  0  0
    8.1888  -15.1415   19.7228 C   0  0  2  0  0  0  0  0  0  0  0  0
    7.7215  -16.4657   20.2219 C   0  0  0  0  0  0  0  0  0  0  0  0
    7.8740  -13.9925   20.6454 C   0  0  2  0  0  0  0  0  0  0  0  0
    8.3219  -12.7774   19.9682 N   0  0  0  0  0  0  0  0  0  0  0  0
    8.5147  -14.1382   21.9731 C   0  0  0  0  0  0  0  0  0  0  0  0
    9.6578  -13.6327   22.1126 O   0  0  0  0  0  0  0  0  0  0  0  0
    7.9289  -14.8003   23.0752 N   0  0  0  0  0  0  0  0  0  0  0  0
    8.4819  -14.8136   24.4013 C   0  0  1  0  0  0  0  0  0  0  0  0
    7.4530  -14.7668   25.4885 C   0  0  0  0  0  0  0  0  0  0  0  0
    7.1434  -13.4195   25.9691 C   0  0  0  0  0  0  0  0  0  0  0  0
    8.0701  -12.4955   26.3487 C   0  0  0  0  0  0  0  0  0  0  0  0
    7.6953  -11.2313   26.7958 C   0  0  0  0  0  0  0  0  0  0  0  0
    6.3613  -10.8700   26.8696 C   0  0  0  0  0  0  0  0  0  0  0  0
    5.4184  -11.8005   26.4868 C   0  0  0  0  0  0  0  0  0  0  0  0
    5.8078  -13.0493   26.0461 C   0  0  0  0  0  0  0  0  0  0  0  0
    9.3345  -16.0171   24.5702 C   0  0  0  0  0  0  0  0  0  0  0  0
    9.8926  -16.2171   25.6997 O   0  0  0  0  0  0  0  0  0  0  0  0
   11.5905  -18.0295   22.7623 C   0  0  0  0  0  0  0  0  0  0  0  0
   10.3821  -18.1363   23.6946 C   0  0  2  0  0  0  0  0  0  0  0  0
    9.5590  -16.9599   23.5302 N   0  0  0  0  0  0  0  0  0  0  0  0
   10.9183  -18.1561   25.0715 C   0  0  0  0  0  0  0  0  0  0  0  0
   10.5872  -17.2405   25.8602 O   0  0  0  0  0  0  0  0  0  0  0  0
   11.7762  -19.1514   25.5259 O   0  0  0  0  0  0  0  0  0  0  0  0
  2  1  1  6
  2  3  1  0
  4  6  1  0
  4  2  1  0
  4  5  1  6
  6  7  2  0
  8  9  1  0
  8  6  1  0
  9 10  1  1
 11 16  2  0
 11 10  1  0
 12 11  1  0
 13 14  1  0
 13 12  2  0
 14 15  2  0
 15 16  1  0
 17  9  1  0
 18 17  2  0
 20 19  1  6
 20 21  1  0
 21 17  1  0
 22 20  1  0
 22 24  1  0
 23 22  2  0
M  END
$$$$
