VFA.pdb
     RDKit          3D

 24 24  0  0  1  0  0  0  0  0999 V2000
    8.5871  -15.3993   19.5758 C   0  0  0  0  0  0  0  0  0  0  0  0
    7.3990  -14.5077   19.8745 C   0  0  2  0  0  0  0  0  0  0  0  0
    6.7909  -14.0779   18.5836 C   0  0  0  0  0  0  0  0  0  0  0  0
    7.8998  -13.3696   20.7256 C   0  0  2  0  0  0  0  0  0  0  0  0
    8.8434  -12.6158   19.9028 N   0  0  0  0  0  0  0  0  0  0  0  0
    8.5310  -13.8351   21.9824 C   0  0  0  0  0  0  0  0  0  0  0  0
    9.7484  -13.5634   22.1429 O   0  0  0  0  0  0  0  0  0  0  0  0
    7.8591  -14.5545   22.9958 N   0  0  0  0  0  0  0  0  0  0  0  0
    8.4088  -14.8325   24.2939 C   0  0  1  0  0  0  0  0  0  0  0  0
    7.3894  -14.8637   25.3907 C   0  0  0  0  0  0  0  0  0  0  0  0
    7.1049  -13.5581   25.9876 C   0  0  0  0  0  0  0  0  0  0  0  0
    8.0153  -12.5559   26.1399 C   0  0  0  0  0  0  0  0  0  0  0  0
    7.6665  -11.3387   26.7190 C   0  0  0  0  0  0  0  0  0  0  0  0
    6.3759  -11.1058   27.1614 C   0  0  0  0  0  0  0  0  0  0  0  0
    5.4496  -12.1161   27.0101 C   0  0  0  0  0  0  0  0  0  0  0  0
    5.8128  -13.3166   26.4338 C   0  0  0  0  0  0  0  0  0  0  0  0
    9.1422  -16.1227   24.2551 C   0  0  0  0  0  0  0  0  0  0  0  0
    9.4442  -16.6874   25.3584 O   0  0  0  0  0  0  0  0  0  0  0  0
   10.2743  -18.5070   21.5443 C   0  0  0  0  0  0  0  0  0  0  0  0
   10.1736  -18.0511   23.0012 C   0  0  2  0  0  0  0  0  0  0  0  0
    9.5248  -16.7605   23.0437 N   0  0  0  0  0  0  0  0  0  0  0  0
   11.5607  -17.9053   23.4893 C   0  0  0  0  0  0  0  0  0  0  0  0
   12.2870  -18.9243   23.5534 O   0  0  0  0  0  0  0  0  0  0  0  0
   12.0914  -16.6812   23.8803 O   0  0  0  0  0  0  0  0  0  0  0  0
  2  1  1  6
  2  3  1  0
  4  6  1  0
  4  2  1  0
  4  5  1  6
  6  7  2  0
  8  9  1  0
  8  6  1  0
  9 10  1  1
 11 16  2  0
 11 10  1  0
 12 11  1  0
 13 14  1  0
 13 12  2  0
 14 15  2  0
 15 16  1  0
 17  9  1  0
 18 17  2  0
 20 19  1  6
 20 21  1  0
 21 17  1  0
 22 20  1  0
 22 24  1  0
 23 22  2  0
M  END
$$$$
