SEP.pdb
     RDKit          3D

 23 23  0  0  1  0  0  0  0  0999 V2000
   10.0387  -12.9402   20.5575 O   0  0  0  0  0  0  0  0  0  0  0  0
    9.5529  -14.0775   19.9148 C   0  0  0  0  0  0  0  0  0  0  0  0
    8.0429  -14.0229   19.9575 C   0  0  2  0  0  0  0  0  0  0  0  0
    7.5338  -12.7772   19.4259 N   0  0  0  0  0  0  0  0  0  0  0  0
    7.5806  -14.1819   21.3703 C   0  0  0  0  0  0  0  0  0  0  0  0
    6.8760  -13.3117   21.8979 O   0  0  0  0  0  0  0  0  0  0  0  0
    7.9288  -15.3194   22.1436 N   0  0  0  0  0  0  0  0  0  0  0  0
    7.4176  -15.5411   23.4292 C   0  0  1  0  0  0  0  0  0  0  0  0
    7.2872  -16.9912   23.8373 C   0  0  0  0  0  0  0  0  0  0  0  0
    6.7300  -17.0688   25.2555 C   0  0  0  0  0  0  0  0  0  0  0  0
    6.7528  -18.4648   25.7615 C   0  0  0  0  0  0  0  0  0  0  0  0
    6.2360  -18.7864   26.8678 O   0  0  0  0  0  0  0  0  0  0  0  0
    8.0428  -14.7714   24.5241 C   0  0  0  0  0  0  0  0  0  0  0  0
    9.2684  -15.1034   24.7473 O   0  0  0  0  0  0  0  0  0  0  0  0
    7.3684  -19.4289   24.9744 O   0  0  0  0  0  0  0  0  0  0  0  0
    7.4813  -13.7638   25.3183 N   0  0  0  0  0  0  0  0  0  0  0  0
    6.2364  -13.0647   25.0033 C   0  0  0  0  0  0  0  0  0  0  0  0
    5.9104  -12.1856   26.1987 C   0  0  0  0  0  0  0  0  0  0  0  0
    6.7323  -12.7762   27.2827 C   0  0  0  0  0  0  0  0  0  0  0  0
    8.0047  -13.1981   26.5122 C   0  0  1  0  0  0  0  0  0  0  0  0
    8.7116  -14.0848   27.4333 C   0  0  0  0  0  0  0  0  0  0  0  0
    9.4879  -13.5035   28.4247 O   0  0  0  0  0  0  0  0  0  0  0  0
    8.6609  -15.3229   27.3852 O   0  0  0  0  0  0  0  0  0  0  0  0
  1  2  1  0
  3  5  1  0
  3  2  1  0
  3  4  1  1
  5  6  2  0
  7  8  1  0
  7  5  1  0
  8 13  1  0
  8  9  1  1
 10 11  1  0
 10  9  1  0
 11 12  2  0
 13 14  2  0
 13 16  1  0
 15 11  1  0
 16 20  1  0
 16 17  1  0
 17 18  1  0
 19 18  1  0
 20 19  1  0
 20 21  1  1
 22 21  1  0
 23 21  2  0
M  END
$$$$
