SEP.pdb
     RDKit          3D

 23 23  0  0  1  0  0  0  0  0999 V2000
   10.8454  -12.7260   20.4317 O   0  0  0  0  0  0  0  0  0  0  0  0
   10.4389  -13.9738   19.9625 C   0  0  0  0  0  0  0  0  0  0  0  0
    8.9479  -13.9131   19.7203 C   0  0  2  0  0  0  0  0  0  0  0  0
    8.5694  -12.7244   18.9874 N   0  0  0  0  0  0  0  0  0  0  0  0
    8.2311  -13.9330   21.0322 C   0  0  0  0  0  0  0  0  0  0  0  0
    7.7956  -12.8826   21.5211 O   0  0  0  0  0  0  0  0  0  0  0  0
    8.0286  -15.1392   21.7512 N   0  0  0  0  0  0  0  0  0  0  0  0
    7.4201  -15.1706   23.0129 C   0  0  1  0  0  0  0  0  0  0  0  0
    6.7965  -16.4918   23.4028 C   0  0  0  0  0  0  0  0  0  0  0  0
    5.7839  -16.9058   22.3394 C   0  0  0  0  0  0  0  0  0  0  0  0
    5.6502  -18.3836   22.2774 C   0  0  0  0  0  0  0  0  0  0  0  0
    4.9510  -19.0298   23.1068 O   0  0  0  0  0  0  0  0  0  0  0  0
    8.2206  -14.6477   24.1390 C   0  0  0  0  0  0  0  0  0  0  0  0
    9.3750  -15.2108   24.2505 O   0  0  0  0  0  0  0  0  0  0  0  0
    6.3257  -19.0530   21.2657 O   0  0  0  0  0  0  0  0  0  0  0  0
    7.8845  -13.6521   25.0648 N   0  0  0  0  0  0  0  0  0  0  0  0
    6.9291  -12.5759   24.8062 C   0  0  0  0  0  0  0  0  0  0  0  0
    6.7382  -11.8321   26.1171 C   0  0  0  0  0  0  0  0  0  0  0  0
    7.2382  -12.7976   27.1257 C   0  0  0  0  0  0  0  0  0  0  0  0
    8.4148  -13.4555   26.3684 C   0  0  1  0  0  0  0  0  0  0  0  0
    8.7392  -14.6412   27.1579 C   0  0  0  0  0  0  0  0  0  0  0  0
    9.7198  -14.5231   28.1314 O   0  0  0  0  0  0  0  0  0  0  0  0
    8.1932  -15.7452   27.0130 O   0  0  0  0  0  0  0  0  0  0  0  0
  1  2  1  0
  3  5  1  0
  3  2  1  0
  3  4  1  1
  5  6  2  0
  7  8  1  0
  7  5  1  0
  8 13  1  0
  8  9  1  1
 10 11  1  0
 10  9  1  0
 11 12  2  0
 13 14  2  0
 13 16  1  0
 15 11  1  0
 16 20  1  0
 16 17  1  0
 17 18  1  0
 19 18  1  0
 20 19  1  0
 20 21  1  1
 22 21  1  0
 23 21  2  0
M  END
$$$$
