SEP.pdb
     RDKit          3D

 23 23  0  0  1  0  0  0  0  0999 V2000
    9.6188  -13.0333   19.1863 O   0  0  0  0  0  0  0  0  0  0  0  0
    8.6431  -13.0099   20.1812 C   0  0  0  0  0  0  0  0  0  0  0  0
    7.9812  -14.3687   20.2112 C   0  0  2  0  0  0  0  0  0  0  0  0
    6.9092  -14.4670   19.2444 N   0  0  0  0  0  0  0  0  0  0  0  0
    7.4364  -14.6250   21.5796 C   0  0  0  0  0  0  0  0  0  0  0  0
    6.2854  -14.2733   21.8688 O   0  0  0  0  0  0  0  0  0  0  0  0
    8.2090  -15.2706   22.5792 N   0  0  0  0  0  0  0  0  0  0  0  0
    7.6908  -15.5924   23.8406 C   0  0  1  0  0  0  0  0  0  0  0  0
    7.6855  -17.0644   24.1866 C   0  0  0  0  0  0  0  0  0  0  0  0
    6.9996  -17.2641   25.5346 C   0  0  0  0  0  0  0  0  0  0  0  0
    7.0299  -18.6919   25.9418 C   0  0  0  0  0  0  0  0  0  0  0  0
    6.1855  -19.5292   25.5170 O   0  0  0  0  0  0  0  0  0  0  0  0
    8.2166  -14.8159   24.9820 C   0  0  0  0  0  0  0  0  0  0  0  0
    9.4197  -15.1419   25.3111 O   0  0  0  0  0  0  0  0  0  0  0  0
    8.0285  -19.0941   26.8187 O   0  0  0  0  0  0  0  0  0  0  0  0
    7.5849  -13.8077   25.7208 N   0  0  0  0  0  0  0  0  0  0  0  0
    6.2611  -13.2683   25.4139 C   0  0  0  0  0  0  0  0  0  0  0  0
    5.8937  -12.3296   26.5505 C   0  0  0  0  0  0  0  0  0  0  0  0
    6.8176  -12.7399   27.6356 C   0  0  0  0  0  0  0  0  0  0  0  0
    8.0946  -13.0931   26.8384 C   0  0  1  0  0  0  0  0  0  0  0  0
    8.9289  -13.8223   27.7906 C   0  0  0  0  0  0  0  0  0  0  0  0
    8.9262  -15.2076   27.7262 O   0  0  0  0  0  0  0  0  0  0  0  0
    9.6391  -13.2813   28.6513 O   0  0  0  0  0  0  0  0  0  0  0  0
  1  2  1  0
  3  5  1  0
  3  2  1  0
  3  4  1  6
  5  6  2  0
  7  8  1  0
  7  5  1  0
  8 13  1  0
  8  9  1  1
 10 11  1  0
 10  9  1  0
 11 12  2  0
 13 14  2  0
 13 16  1  0
 15 11  1  0
 16 20  1  0
 16 17  1  0
 17 18  1  0
 19 18  1  0
 20 19  1  0
 20 21  1  1
 22 21  1  0
 23 21  2  0
M  END
$$$$
