SEP.pdb
     RDKit          3D

 23 23  0  0  1  0  0  0  0  0999 V2000
    9.5994  -12.7323   20.4618 O   0  0  0  0  0  0  0  0  0  0  0  0
    9.3236  -13.9977   19.9469 C   0  0  0  0  0  0  0  0  0  0  0  0
    7.8341  -14.2287   20.0618 C   0  0  2  0  0  0  0  0  0  0  0  0
    7.0745  -13.1573   19.4546 N   0  0  0  0  0  0  0  0  0  0  0  0
    7.4597  -14.3427   21.5047 C   0  0  0  0  0  0  0  0  0  0  0  0
    6.7737  -13.4640   22.0425 O   0  0  0  0  0  0  0  0  0  0  0  0
    7.8723  -15.4461   22.2955 N   0  0  0  0  0  0  0  0  0  0  0  0
    7.4181  -15.6447   23.6060 C   0  0  1  0  0  0  0  0  0  0  0  0
    7.3496  -17.0853   24.0604 C   0  0  0  0  0  0  0  0  0  0  0  0
    6.7919  -17.1414   25.4794 C   0  0  0  0  0  0  0  0  0  0  0  0
    6.8626  -18.5206   26.0257 C   0  0  0  0  0  0  0  0  0  0  0  0
    5.8292  -19.2198   26.2193 O   0  0  0  0  0  0  0  0  0  0  0  0
    8.0602  -14.8238   24.6530 C   0  0  0  0  0  0  0  0  0  0  0  0
    9.2963  -15.1290   24.8555 O   0  0  0  0  0  0  0  0  0  0  0  0
    8.1171  -19.0347   26.3255 O   0  0  0  0  0  0  0  0  0  0  0  0
    7.5043  -13.7942   25.4226 N   0  0  0  0  0  0  0  0  0  0  0  0
    6.2600  -13.1003   25.0941 C   0  0  0  0  0  0  0  0  0  0  0  0
    5.9409  -12.1892   26.2671 C   0  0  0  0  0  0  0  0  0  0  0  0
    6.7654  -12.7533   27.3632 C   0  0  0  0  0  0  0  0  0  0  0  0
    8.0338  -13.1987   26.5992 C   0  0  1  0  0  0  0  0  0  0  0  0
    8.7420  -14.0627   27.5406 C   0  0  0  0  0  0  0  0  0  0  0  0
    9.5465  -13.4587   28.4952 O   0  0  0  0  0  0  0  0  0  0  0  0
    8.6687  -15.3007   27.5404 O   0  0  0  0  0  0  0  0  0  0  0  0
  1  2  1  0
  3  5  1  0
  3  2  1  0
  3  4  1  1
  5  6  2  0
  7  8  1  0
  7  5  1  0
  8 13  1  0
  8  9  1  1
 10 11  1  0
 10  9  1  0
 11 12  2  0
 13 14  2  0
 13 16  1  0
 15 11  1  0
 16 20  1  0
 16 17  1  0
 17 18  1  0
 19 18  1  0
 20 19  1  0
 20 21  1  1
 22 21  1  0
 23 21  2  0
M  END
$$$$
