SEP.pdb
     RDKit          3D

 23 23  0  0  1  0  0  0  0  0999 V2000
   10.3955  -12.6398   19.6918 O   0  0  0  0  0  0  0  0  0  0  0  0
    9.9057  -13.8623   20.1480 C   0  0  0  0  0  0  0  0  0  0  0  0
    8.3988  -13.8285   20.0319 C   0  0  2  0  0  0  0  0  0  0  0  0
    7.9267  -12.5622   19.5153 N   0  0  0  0  0  0  0  0  0  0  0  0
    7.7921  -14.0697   21.3768 C   0  0  0  0  0  0  0  0  0  0  0  0
    7.1074  -13.1925   21.9187 O   0  0  0  0  0  0  0  0  0  0  0  0
    7.9779  -15.2948   22.0680 N   0  0  0  0  0  0  0  0  0  0  0  0
    7.4282  -15.5358   23.3340 C   0  0  1  0  0  0  0  0  0  0  0  0
    7.1806  -16.9890   23.6709 C   0  0  0  0  0  0  0  0  0  0  0  0
    6.5245  -17.0843   25.0450 C   0  0  0  0  0  0  0  0  0  0  0  0
    6.3664  -18.5006   25.4630 C   0  0  0  0  0  0  0  0  0  0  0  0
    6.7402  -18.9116   26.5969 O   0  0  0  0  0  0  0  0  0  0  0  0
    8.0901  -14.8678   24.4733 C   0  0  0  0  0  0  0  0  0  0  0  0
    9.2697  -15.3262   24.7195 O   0  0  0  0  0  0  0  0  0  0  0  0
    5.7863  -19.3813   24.5599 O   0  0  0  0  0  0  0  0  0  0  0  0
    7.6045  -13.8363   25.2865 N   0  0  0  0  0  0  0  0  0  0  0  0
    6.4316  -13.0221   24.9715 C   0  0  0  0  0  0  0  0  0  0  0  0
    6.1619  -12.1499   26.1859 C   0  0  0  0  0  0  0  0  0  0  0  0
    6.9088  -12.8395   27.2659 C   0  0  0  0  0  0  0  0  0  0  0  0
    8.1533  -13.3510   26.5042 C   0  0  1  0  0  0  0  0  0  0  0  0
    8.7628  -14.3208   27.4111 C   0  0  0  0  0  0  0  0  0  0  0  0
    9.5503  -13.8357   28.4445 O   0  0  0  0  0  0  0  0  0  0  0  0
    8.6200  -15.5490   27.3157 O   0  0  0  0  0  0  0  0  0  0  0  0
  1  2  1  0
  3  5  1  0
  3  2  1  0
  3  4  1  1
  5  6  2  0
  7  8  1  0
  7  5  1  0
  8 13  1  0
  8  9  1  1
 10 11  1  0
 10  9  1  0
 11 12  2  0
 13 14  2  0
 13 16  1  0
 15 11  1  0
 16 20  1  0
 16 17  1  0
 17 18  1  0
 19 18  1  0
 20 19  1  0
 20 21  1  1
 22 21  1  0
 23 21  2  0
M  END
$$$$
