SEP.pdb
     RDKit          3D

 23 23  0  0  1  0  0  0  0  0999 V2000
   10.8727  -12.5670   20.4821 O   0  0  0  0  0  0  0  0  0  0  0  0
   10.5840  -13.8709   20.0831 C   0  0  0  0  0  0  0  0  0  0  0  0
    9.1108  -13.9369   19.7510 C   0  0  2  0  0  0  0  0  0  0  0  0
    8.6871  -12.8062   18.9538 N   0  0  0  0  0  0  0  0  0  0  0  0
    8.3178  -13.9720   21.0179 C   0  0  0  0  0  0  0  0  0  0  0  0
    7.4980  -13.0785   21.2658 O   0  0  0  0  0  0  0  0  0  0  0  0
    8.4758  -15.0158   21.9659 N   0  0  0  0  0  0  0  0  0  0  0  0
    7.6978  -15.1015   23.1280 C   0  0  1  0  0  0  0  0  0  0  0  0
    7.1024  -16.4616   23.4145 C   0  0  0  0  0  0  0  0  0  0  0  0
    6.2984  -16.9263   22.2040 C   0  0  0  0  0  0  0  0  0  0  0  0
    5.7964  -18.3106   22.3970 C   0  0  0  0  0  0  0  0  0  0  0  0
    6.0014  -18.9566   23.4624 O   0  0  0  0  0  0  0  0  0  0  0  0
    8.2996  -14.5532   24.3607 C   0  0  0  0  0  0  0  0  0  0  0  0
    9.4512  -15.0624   24.6375 O   0  0  0  0  0  0  0  0  0  0  0  0
    5.0818  -18.8910   21.3576 O   0  0  0  0  0  0  0  0  0  0  0  0
    7.7846  -13.5843   25.2308 N   0  0  0  0  0  0  0  0  0  0  0  0
    6.7766  -12.5936   24.8565 C   0  0  0  0  0  0  0  0  0  0  0  0
    6.3850  -11.8613   26.1286 C   0  0  0  0  0  0  0  0  0  0  0  0
    6.8523  -12.7757   27.1987 C   0  0  0  0  0  0  0  0  0  0  0  0
    8.1539  -13.3366   26.5805 C   0  0  1  0  0  0  0  0  0  0  0  0
    8.4889  -14.4865   27.4172 C   0  0  0  0  0  0  0  0  0  0  0  0
    9.2742  -14.2649   28.5386 O   0  0  0  0  0  0  0  0  0  0  0  0
    8.1153  -15.6467   27.1885 O   0  0  0  0  0  0  0  0  0  0  0  0
  1  2  1  0
  3  5  1  0
  3  2  1  0
  3  4  1  6
  5  6  2  0
  7  8  1  0
  7  5  1  0
  8 13  1  0
  8  9  1  1
 10 11  1  0
 10  9  1  0
 11 12  2  0
 13 14  2  0
 13 16  1  0
 15 11  1  0
 16 20  1  0
 16 17  1  0
 17 18  1  0
 19 18  1  0
 20 19  1  0
 20 21  1  1
 22 21  1  0
 23 21  2  0
M  END
$$$$
