SEP.pdb
     RDKit          3D

 23 23  0  0  1  0  0  0  0  0999 V2000
    7.0757  -17.2268   19.6490 O   0  0  0  0  0  0  0  0  0  0  0  0
    6.8913  -15.8558   19.4791 C   0  0  0  0  0  0  0  0  0  0  0  0
    7.8063  -15.1429   20.4486 C   0  0  2  0  0  0  0  0  0  0  0  0
    9.1595  -15.6510   20.3848 N   0  0  0  0  0  0  0  0  0  0  0  0
    7.2820  -15.3089   21.8388 C   0  0  0  0  0  0  0  0  0  0  0  0
    6.1752  -14.8487   22.1472 O   0  0  0  0  0  0  0  0  0  0  0  0
    8.0247  -15.9897   22.8378 N   0  0  0  0  0  0  0  0  0  0  0  0
    7.6129  -16.0446   24.1759 C   0  0  1  0  0  0  0  0  0  0  0  0
    7.5479  -17.4287   24.7813 C   0  0  0  0  0  0  0  0  0  0  0  0
    7.1387  -17.3203   26.2471 C   0  0  0  0  0  0  0  0  0  0  0  0
    7.1645  -18.6502   26.9074 C   0  0  0  0  0  0  0  0  0  0  0  0
    7.4430  -19.7078   26.2763 O   0  0  0  0  0  0  0  0  0  0  0  0
    8.2960  -15.1258   25.1094 C   0  0  0  0  0  0  0  0  0  0  0  0
    9.5154  -15.4629   25.3578 O   0  0  0  0  0  0  0  0  0  0  0  0
    6.8689  -18.7059   28.2629 O   0  0  0  0  0  0  0  0  0  0  0  0
    7.7931  -13.9774   25.7334 N   0  0  0  0  0  0  0  0  0  0  0  0
    6.5368  -13.3248   25.3678 C   0  0  0  0  0  0  0  0  0  0  0  0
    6.2928  -12.2324   26.3951 C   0  0  0  0  0  0  0  0  0  0  0  0
    7.1754  -12.6272   27.5197 C   0  0  0  0  0  0  0  0  0  0  0  0
    8.3941  -13.2098   26.7673 C   0  0  1  0  0  0  0  0  0  0  0  0
    9.1496  -13.9234   27.7942 C   0  0  0  0  0  0  0  0  0  0  0  0
   10.0374  -13.1933   28.5702 O   0  0  0  0  0  0  0  0  0  0  0  0
    9.0467  -15.1392   28.0160 O   0  0  0  0  0  0  0  0  0  0  0  0
  1  2  1  0
  3  5  1  0
  3  2  1  0
  3  4  1  1
  5  6  2  0
  7  8  1  0
  7  5  1  0
  8 13  1  0
  8  9  1  1
 10 11  1  0
 10  9  1  0
 11 12  2  0
 13 14  2  0
 13 16  1  0
 15 11  1  0
 16 20  1  0
 16 17  1  0
 17 18  1  0
 19 18  1  0
 20 19  1  0
 20 21  1  1
 22 21  1  0
 23 21  2  0
M  END
$$$$
