NIQ.pdb
     RDKit          3D

 26 25  0  0  1  0  0  0  0  0999 V2000
   10.9914  -15.4345   13.2933 N   0  0  0  0  0  0  0  0  0  0  0  0
   11.2994  -16.1326   14.4764 C   0  0  0  0  0  0  0  0  0  0  0  0
   11.7617  -17.2860   14.4108 O   0  0  0  0  0  0  0  0  0  0  0  0
   11.0760  -15.5021   15.7835 C   0  0  0  0  0  0  0  0  0  0  0  0
   10.4155  -16.4033   16.7802 C   0  0  2  0  0  0  0  0  0  0  0  0
    9.0705  -16.7502   16.4489 N   0  0  0  0  0  0  0  0  0  0  0  0
   10.4824  -15.6949   18.1107 C   0  0  0  0  0  0  0  0  0  0  0  0
   11.6151  -15.3914   18.5503 O   0  0  0  0  0  0  0  0  0  0  0  0
    7.0776  -13.0246   18.4061 C   0  0  0  0  0  0  0  0  0  0  0  0
    7.7925  -12.8436   19.6974 C   0  0  0  0  0  0  0  0  0  0  0  0
    8.2054  -14.0453   20.4343 C   0  0  2  0  0  0  0  0  0  0  0  0
    7.8161  -13.9316   21.9023 C   0  0  0  0  0  0  0  0  0  0  0  0
    9.4953  -14.7063   20.1666 C   0  0  2  0  0  0  0  0  0  0  0  0
    9.3505  -15.3753   18.8483 N   0  0  0  0  0  0  0  0  0  0  0  0
   10.0414  -15.6446   21.1373 C   0  0  0  0  0  0  0  0  0  0  0  0
    9.6084  -16.8556   21.2202 O   0  0  0  0  0  0  0  0  0  0  0  0
   15.8991  -15.3510   23.1720 N   0  0  0  0  0  0  0  0  0  0  0  0
   15.3532  -15.7890   21.9347 C   0  0  0  0  0  0  0  0  0  0  0  0
   16.1591  -15.8401   20.9408 O   0  0  0  0  0  0  0  0  0  0  0  0
   13.9345  -16.1755   21.7861 C   0  0  0  0  0  0  0  0  0  0  0  0
   13.1197  -16.1436   23.0275 C   0  0  0  0  0  0  0  0  0  0  0  0
   11.6503  -16.3693   22.9273 C   0  0  2  0  0  0  0  0  0  0  0  0
   11.0747  -15.3266   22.0462 N   0  0  0  0  0  0  0  0  0  0  0  0
   10.9668  -16.4262   24.1969 C   0  0  0  0  0  0  0  0  0  0  0  0
   11.0561  -17.4779   25.1221 O   0  0  0  0  0  0  0  0  0  0  0  0
   10.2008  -15.4698   24.5656 O   0  0  0  0  0  0  0  0  0  0  0  0
  2  1  1  0
  2  3  2  0
  4  2  1  0
  5  7  1  0
  5  4  1  0
  5  6  1  6
  7  8  2  0
  9 10  1  0
 11 10  1  0
 11 12  1  1
 13 14  1  6
 13 11  1  0
 14  7  1  0
 15 13  1  0
 16 15  2  0
 18 20  1  0
 18 17  1  0
 19 18  2  0
 21 20  1  0
 22 23  1  0
 22 21  1  1
 23 15  1  0
 24 22  1  0
 25 24  1  0
 26 24  2  0
M  END
$$$$
