NIQ.pdb
     RDKit          3D

 26 25  0  0  1  0  0  0  0  0999 V2000
    6.3108  -16.4595   19.1818 N   0  0  0  0  0  0  0  0  0  0  0  0
    6.6077  -17.3170   20.2581 C   0  0  0  0  0  0  0  0  0  0  0  0
    6.3033  -18.5216   20.1906 O   0  0  0  0  0  0  0  0  0  0  0  0
    7.2741  -16.7919   21.4565 C   0  0  0  0  0  0  0  0  0  0  0  0
    7.4112  -15.3010   21.4630 C   0  0  2  0  0  0  0  0  0  0  0  0
    8.1027  -14.7757   20.3294 N   0  0  0  0  0  0  0  0  0  0  0  0
    8.1179  -14.9400   22.7463 C   0  0  0  0  0  0  0  0  0  0  0  0
    9.3646  -15.0561   22.7749 O   0  0  0  0  0  0  0  0  0  0  0  0
    5.9155  -11.1175   25.8776 C   0  0  0  0  0  0  0  0  0  0  0  0
    6.9007  -11.9646   25.1544 C   0  0  0  0  0  0  0  0  0  0  0  0
    7.4110  -13.1642   25.8313 C   0  0  2  0  0  0  0  0  0  0  0  0
    7.9008  -12.8195   27.2316 C   0  0  0  0  0  0  0  0  0  0  0  0
    8.2041  -14.1757   25.1100 C   0  0  2  0  0  0  0  0  0  0  0  0
    7.4433  -14.4921   23.8740 N   0  0  0  0  0  0  0  0  0  0  0  0
    8.5849  -15.4097   25.7829 C   0  0  0  0  0  0  0  0  0  0  0  0
    7.7118  -16.3072   26.0881 O   0  0  0  0  0  0  0  0  0  0  0  0
   14.5850  -18.7479   26.2372 N   0  0  0  0  0  0  0  0  0  0  0  0
   13.3028  -19.2769   25.9257 C   0  0  0  0  0  0  0  0  0  0  0  0
   13.2622  -20.1795   25.0182 O   0  0  0  0  0  0  0  0  0  0  0  0
   12.0716  -18.8262   26.6078 C   0  0  0  0  0  0  0  0  0  0  0  0
   11.4477  -17.5899   26.0710 C   0  0  0  0  0  0  0  0  0  0  0  0
   10.2293  -17.0525   26.7395 C   0  0  2  0  0  0  0  0  0  0  0  0
    9.9113  -15.7334   26.1447 N   0  0  0  0  0  0  0  0  0  0  0  0
   10.3214  -16.9767   28.1776 C   0  0  0  0  0  0  0  0  0  0  0  0
   10.3519  -18.0763   29.0495 O   0  0  0  0  0  0  0  0  0  0  0  0
   10.3819  -15.8419   28.7656 O   0  0  0  0  0  0  0  0  0  0  0  0
  2  1  1  0
  2  3  2  0
  4  2  1  0
  5  7  1  0
  5  4  1  0
  5  6  1  6
  7  8  2  0
  9 10  1  0
 11 10  1  0
 11 12  1  1
 13 14  1  6
 13 11  1  0
 14  7  1  0
 15 13  1  0
 16 15  2  0
 18 20  1  0
 18 17  1  0
 19 18  2  0
 21 20  1  0
 22 23  1  0
 22 21  1  6
 23 15  1  0
 24 22  1  0
 25 24  1  0
 26 24  2  0
M  END
$$$$
