NIQ.pdb
     RDKit          3D

 26 25  0  0  1  0  0  0  0  0999 V2000
   10.0387  -16.8103   18.2948 N   0  0  0  0  0  0  0  0  0  0  0  0
    9.0487  -16.0278   18.9190 C   0  0  0  0  0  0  0  0  0  0  0  0
    7.9753  -15.8049   18.3306 O   0  0  0  0  0  0  0  0  0  0  0  0
    9.2818  -15.4766   20.2598 C   0  0  0  0  0  0  0  0  0  0  0  0
    8.5970  -16.2401   21.3506 C   0  0  2  0  0  0  0  0  0  0  0  0
    7.1788  -16.3190   21.2032 N   0  0  0  0  0  0  0  0  0  0  0  0
    8.9722  -15.5665   22.6476 C   0  0  0  0  0  0  0  0  0  0  0  0
   10.1884  -15.3602   22.8637 O   0  0  0  0  0  0  0  0  0  0  0  0
    8.1934  -11.6946   26.6272 C   0  0  0  0  0  0  0  0  0  0  0  0
    7.5694  -13.0438   26.6651 C   0  0  0  0  0  0  0  0  0  0  0  0
    7.4286  -13.7771   25.4001 C   0  0  2  0  0  0  0  0  0  0  0  0
    5.9967  -14.2640   25.2216 C   0  0  0  0  0  0  0  0  0  0  0  0
    8.4780  -14.6954   24.9225 C   0  0  2  0  0  0  0  0  0  0  0  0
    8.0306  -15.1761   23.5901 N   0  0  0  0  0  0  0  0  0  0  0  0
    8.8762  -15.8284   25.7462 C   0  0  0  0  0  0  0  0  0  0  0  0
    8.1303  -16.8733   25.8596 O   0  0  0  0  0  0  0  0  0  0  0  0
   13.8272  -18.9268   24.9410 N   0  0  0  0  0  0  0  0  0  0  0  0
   13.4705  -19.4448   26.2159 C   0  0  0  0  0  0  0  0  0  0  0  0
   14.1709  -20.4247   26.6508 O   0  0  0  0  0  0  0  0  0  0  0  0
   12.3576  -18.8899   27.0144 C   0  0  0  0  0  0  0  0  0  0  0  0
   11.6567  -17.7201   26.4260 C   0  0  0  0  0  0  0  0  0  0  0  0
   10.4936  -17.1397   27.1541 C   0  0  2  0  0  0  0  0  0  0  0  0
   10.0878  -15.8901   26.4695 N   0  0  0  0  0  0  0  0  0  0  0  0
   10.7188  -16.9226   28.5629 C   0  0  0  0  0  0  0  0  0  0  0  0
   10.7891  -17.9283   29.5395 O   0  0  0  0  0  0  0  0  0  0  0  0
   10.8730  -15.7378   29.0209 O   0  0  0  0  0  0  0  0  0  0  0  0
  2  1  1  0
  2  3  2  0
  4  2  1  0
  5  7  1  0
  5  4  1  0
  5  6  1  6
  7  8  2  0
  9 10  1  0
 11 10  1  0
 11 12  1  1
 13 14  1  6
 13 11  1  0
 14  7  1  0
 15 13  1  0
 16 15  2  0
 18 20  1  0
 18 17  1  0
 19 18  2  0
 21 20  1  0
 22 23  1  0
 22 21  1  6
 23 15  1  0
 24 22  1  0
 25 24  1  0
 26 24  2  0
M  END
$$$$
