NIQ.pdb
     RDKit          3D

 26 25  0  0  1  0  0  0  0  0999 V2000
    7.6638  -17.7674   18.9331 N   0  0  0  0  0  0  0  0  0  0  0  0
    6.8882  -17.6180   20.0984 C   0  0  0  0  0  0  0  0  0  0  0  0
    5.7021  -17.9941   20.1036 O   0  0  0  0  0  0  0  0  0  0  0  0
    7.4765  -17.0205   21.3037 C   0  0  0  0  0  0  0  0  0  0  0  0
    7.7597  -15.5563   21.1715 C   0  0  2  0  0  0  0  0  0  0  0  0
    8.6238  -15.2271   20.0833 N   0  0  0  0  0  0  0  0  0  0  0  0
    8.3491  -15.1119   22.4874 C   0  0  0  0  0  0  0  0  0  0  0  0
    9.5702  -15.3172   22.6753 O   0  0  0  0  0  0  0  0  0  0  0  0
    6.9270  -11.2630   27.0719 C   0  0  0  0  0  0  0  0  0  0  0  0
    7.8156  -12.3395   26.5591 C   0  0  0  0  0  0  0  0  0  0  0  0
    7.4040  -13.0571   25.3453 C   0  0  2  0  0  0  0  0  0  0  0  0
    5.9043  -13.3213   25.3638 C   0  0  0  0  0  0  0  0  0  0  0  0
    8.2329  -14.1305   24.7682 C   0  0  2  0  0  0  0  0  0  0  0  0
    7.5956  -14.4951   23.4769 N   0  0  0  0  0  0  0  0  0  0  0  0
    8.4981  -15.3346   25.5433 C   0  0  0  0  0  0  0  0  0  0  0  0
    7.6463  -16.3000   25.5998 O   0  0  0  0  0  0  0  0  0  0  0  0
   12.9256  -19.1057   24.7320 N   0  0  0  0  0  0  0  0  0  0  0  0
   13.3077  -17.9373   25.4460 C   0  0  0  0  0  0  0  0  0  0  0  0
   14.5350  -17.5847   25.3498 O   0  0  0  0  0  0  0  0  0  0  0  0
   12.3511  -17.1543   26.2559 C   0  0  0  0  0  0  0  0  0  0  0  0
   10.9389  -17.6126   26.2155 C   0  0  0  0  0  0  0  0  0  0  0  0
    9.9126  -16.8424   26.9727 C   0  0  2  0  0  0  0  0  0  0  0  0
    9.6849  -15.5545   26.2769 N   0  0  0  0  0  0  0  0  0  0  0  0
   10.2244  -16.6430   28.3675 C   0  0  0  0  0  0  0  0  0  0  0  0
   10.4531  -17.6635   29.3036 O   0  0  0  0  0  0  0  0  0  0  0  0
   10.3121  -15.4614   28.8509 O   0  0  0  0  0  0  0  0  0  0  0  0
  2  1  1  0
  2  3  2  0
  4  2  1  0
  5  7  1  0
  5  4  1  0
  5  6  1  6
  7  8  2  0
  9 10  1  0
 11 10  1  0
 11 12  1  1
 13 14  1  6
 13 11  1  0
 14  7  1  0
 15 13  1  0
 16 15  2  0
 18 20  1  0
 18 17  1  0
 19 18  2  0
 21 20  1  0
 22 23  1  0
 22 21  1  6
 23 15  1  0
 24 22  1  0
 25 24  1  0
 26 24  2  0
M  END
$$$$
