NIQ.pdb
     RDKit          3D

 26 25  0  0  1  0  0  0  0  0999 V2000
    8.1120  -19.0415   14.3390 N   0  0  0  0  0  0  0  0  0  0  0  0
    8.4216  -17.6938   14.0746 C   0  0  0  0  0  0  0  0  0  0  0  0
    8.4149  -17.2769   12.9022 O   0  0  0  0  0  0  0  0  0  0  0  0
    8.7512  -16.7832   15.1782 C   0  0  0  0  0  0  0  0  0  0  0  0
    8.8136  -17.4562   16.5142 C   0  0  2  0  0  0  0  0  0  0  0  0
    7.5686  -18.0048   16.9477 N   0  0  0  0  0  0  0  0  0  0  0  0
    9.3233  -16.4255   17.4912 C   0  0  0  0  0  0  0  0  0  0  0  0
   10.4712  -15.9626   17.3003 O   0  0  0  0  0  0  0  0  0  0  0  0
    7.1588  -11.9566   20.8984 C   0  0  0  0  0  0  0  0  0  0  0  0
    8.3254  -12.8002   20.5260 C   0  0  0  0  0  0  0  0  0  0  0  0
    8.0649  -14.1232   19.9433 C   0  0  2  0  0  0  0  0  0  0  0  0
    6.9042  -14.8024   20.6583 C   0  0  0  0  0  0  0  0  0  0  0  0
    9.1657  -15.0116   19.5295 C   0  0  2  0  0  0  0  0  0  0  0  0
    8.5749  -15.9831   18.5735 N   0  0  0  0  0  0  0  0  0  0  0  0
    9.9389  -15.7222   20.5384 C   0  0  0  0  0  0  0  0  0  0  0  0
    9.6575  -16.9350   20.8715 O   0  0  0  0  0  0  0  0  0  0  0  0
   16.0654  -14.8042   21.6656 N   0  0  0  0  0  0  0  0  0  0  0  0
   15.7108  -15.7805   22.6361 C   0  0  0  0  0  0  0  0  0  0  0  0
   16.6579  -16.2184   23.3785 O   0  0  0  0  0  0  0  0  0  0  0  0
   14.3261  -16.2709   22.7988 C   0  0  0  0  0  0  0  0  0  0  0  0
   13.2938  -15.5832   21.9818 C   0  0  0  0  0  0  0  0  0  0  0  0
   11.8712  -16.0036   22.1210 C   0  0  2  0  0  0  0  0  0  0  0  0
   11.0447  -15.1673   21.2197 N   0  0  0  0  0  0  0  0  0  0  0  0
   11.3707  -15.9782   23.4742 C   0  0  0  0  0  0  0  0  0  0  0  0
   11.6608  -16.9276   24.4665 O   0  0  0  0  0  0  0  0  0  0  0  0
   10.5927  -15.0389   23.8613 O   0  0  0  0  0  0  0  0  0  0  0  0
  2  1  1  0
  2  3  2  0
  4  2  1  0
  5  7  1  0
  5  4  1  0
  5  6  1  1
  7  8  2  0
  9 10  1  0
 11 10  1  0
 11 12  1  1
 13 14  1  6
 13 11  1  0
 14  7  1  0
 15 13  1  0
 16 15  2  0
 18 20  1  0
 18 17  1  0
 19 18  2  0
 21 20  1  0
 22 23  1  0
 22 21  1  1
 23 15  1  0
 24 22  1  0
 25 24  1  0
 26 24  2  0
M  END
$$$$
