NIQ.pdb
     RDKit          3D

 26 25  0  0  1  0  0  0  0  0999 V2000
    9.4005  -16.6948   18.2310 N   0  0  0  0  0  0  0  0  0  0  0  0
    8.4649  -15.9671   18.9907 C   0  0  0  0  0  0  0  0  0  0  0  0
    7.3097  -15.8049   18.5577 O   0  0  0  0  0  0  0  0  0  0  0  0
    8.8507  -15.4015   20.2896 C   0  0  0  0  0  0  0  0  0  0  0  0
    8.1690  -16.0506   21.4539 C   0  0  2  0  0  0  0  0  0  0  0  0
    6.7491  -15.8987   21.4550 N   0  0  0  0  0  0  0  0  0  0  0  0
    8.7807  -15.4539   22.6974 C   0  0  0  0  0  0  0  0  0  0  0  0
   10.0106  -15.2183   22.6835 O   0  0  0  0  0  0  0  0  0  0  0  0
    6.4250  -11.7254   25.6169 C   0  0  0  0  0  0  0  0  0  0  0  0
    7.4048  -12.6305   24.9595 C   0  0  0  0  0  0  0  0  0  0  0  0
    7.9316  -13.7609   25.7356 C   0  0  2  0  0  0  0  0  0  0  0  0
    8.4225  -13.2905   27.0984 C   0  0  0  0  0  0  0  0  0  0  0  0
    8.7339  -14.8221   25.1010 C   0  0  2  0  0  0  0  0  0  0  0  0
    8.0380  -15.1637   23.8338 N   0  0  0  0  0  0  0  0  0  0  0  0
    9.0355  -16.0398   25.8405 C   0  0  0  0  0  0  0  0  0  0  0  0
    8.1081  -16.8664   26.1832 O   0  0  0  0  0  0  0  0  0  0  0  0
   13.2376  -20.3778   23.8166 N   0  0  0  0  0  0  0  0  0  0  0  0
   13.1489  -19.0633   24.3504 C   0  0  0  0  0  0  0  0  0  0  0  0
   14.2303  -18.3776   24.3630 O   0  0  0  0  0  0  0  0  0  0  0  0
   11.8825  -18.4986   24.8618 C   0  0  0  0  0  0  0  0  0  0  0  0
   11.7888  -18.3451   26.3361 C   0  0  0  0  0  0  0  0  0  0  0  0
   10.5689  -17.7161   26.9159 C   0  0  2  0  0  0  0  0  0  0  0  0
   10.3377  -16.4228   26.2314 N   0  0  0  0  0  0  0  0  0  0  0  0
   10.6027  -17.5577   28.3499 C   0  0  0  0  0  0  0  0  0  0  0  0
   10.6008  -18.6054   29.2839 O   0  0  0  0  0  0  0  0  0  0  0  0
   10.6365  -16.3908   28.8738 O   0  0  0  0  0  0  0  0  0  0  0  0
  2  1  1  0
  2  3  2  0
  4  2  1  0
  5  7  1  0
  5  4  1  0
  5  6  1  6
  7  8  2  0
  9 10  1  0
 11 10  1  0
 11 12  1  1
 13 14  1  6
 13 11  1  0
 14  7  1  0
 15 13  1  0
 16 15  2  0
 18 20  1  0
 18 17  1  0
 19 18  2  0
 21 20  1  0
 22 23  1  0
 22 21  1  6
 23 15  1  0
 24 22  1  0
 25 24  1  0
 26 24  2  0
M  END
$$$$
