AED.pdb
     RDKit          3D

 23 22  0  0  1  0  0  0  0  0999 V2000
   11.6100  -10.9136  -14.1956 C   0  0  0  0  0  0  0  0  0  0  0  0
   12.9867  -11.2919  -14.6485 C   0  0  2  0  0  0  0  0  0  0  0  0
   13.2603  -12.6725  -14.3173 N   0  0  0  0  0  0  0  0  0  0  0  0
   14.0312  -10.3780  -14.1274 C   0  0  0  0  0  0  0  0  0  0  0  0
   14.0465  -10.0344  -12.9186 O   0  0  0  0  0  0  0  0  0  0  0  0
   15.0416   -9.8621  -14.9652 N   0  0  0  0  0  0  0  0  0  0  0  0
   16.1392   -9.0087  -14.4390 C   0  0  1  0  0  0  0  0  0  0  0  0
   17.3624   -9.5014  -15.1187 C   0  0  0  0  0  0  0  0  0  0  0  0
   18.5964   -8.6801  -14.9724 C   0  0  0  0  0  0  0  0  0  0  0  0
   19.7554   -9.2634  -15.6932 C   0  0  0  0  0  0  0  0  0  0  0  0
   20.6255   -9.8723  -15.0415 O   0  0  0  0  0  0  0  0  0  0  0  0
   15.7271   -7.6278  -14.7214 C   0  0  0  0  0  0  0  0  0  0  0  0
   15.1570   -7.3144  -15.8334 O   0  0  0  0  0  0  0  0  0  0  0  0
   19.8895   -9.1473  -17.0577 O   0  0  0  0  0  0  0  0  0  0  0  0
   15.8849   -6.5120  -13.8592 N   0  0  0  0  0  0  0  0  0  0  0  0
   15.5657   -5.1360  -14.2657 C   0  0  1  0  0  0  0  0  0  0  0  0
   14.7345   -4.4731  -13.1929 C   0  0  0  0  0  0  0  0  0  0  0  0
   14.5470   -3.0525  -13.4977 C   0  0  0  0  0  0  0  0  0  0  0  0
   14.6558   -2.5938  -14.6552 O   0  0  0  0  0  0  0  0  0  0  0  0
   16.8578   -4.4270  -14.3829 C   0  0  0  0  0  0  0  0  0  0  0  0
   16.8467   -3.1311  -14.9407 O   0  0  0  0  0  0  0  0  0  0  0  0
   14.2321   -2.1049  -12.5121 O   0  0  0  0  0  0  0  0  0  0  0  0
   17.9797   -4.8798  -14.0261 O   0  0  0  0  0  0  0  0  0  0  0  0
  2  1  1  1
  2  3  1  0
  4  5  2  0
  4  2  1  0
  6  4  1  0
  7 12  1  0
  7  6  1  0
  7  8  1  6
  9  8  1  0
 10  9  1  0
 11 10  2  0
 12 15  1  0
 13 12  2  0
 14 10  1  0
 15 16  1  0
 16 20  1  0
 17 18  1  0
 16 17  1  1
 18 22  1  0
 19 18  2  0
 20 23  2  0
 20 21  1  0
M  END
$$$$
