AED.pdb
     RDKit          3D

 23 22  0  0  1  0  0  0  0  0999 V2000
   19.2292  -13.7253  -16.0372 C   0  0  0  0  0  0  0  0  0  0  0  0
   18.9100  -12.2619  -16.0277 C   0  0  2  0  0  0  0  0  0  0  0  0
   17.8013  -11.9862  -16.9138 N   0  0  0  0  0  0  0  0  0  0  0  0
   20.0894  -11.4176  -16.3339 C   0  0  0  0  0  0  0  0  0  0  0  0
   21.1298  -11.4794  -15.6316 O   0  0  0  0  0  0  0  0  0  0  0  0
   20.0876  -10.5175  -17.4197 N   0  0  0  0  0  0  0  0  0  0  0  0
   21.2309   -9.6057  -17.6867 C   0  0  1  0  0  0  0  0  0  0  0  0
   21.2463   -9.4376  -19.1606 C   0  0  0  0  0  0  0  0  0  0  0  0
   22.1241   -8.3676  -19.7114 C   0  0  0  0  0  0  0  0  0  0  0  0
   21.9908   -8.2255  -21.1829 C   0  0  0  0  0  0  0  0  0  0  0  0
   22.7399   -8.8921  -21.9225 O   0  0  0  0  0  0  0  0  0  0  0  0
   20.9689   -8.4074  -16.8794 C   0  0  0  0  0  0  0  0  0  0  0  0
   19.7695   -7.9747  -16.6948 O   0  0  0  0  0  0  0  0  0  0  0  0
   21.0635   -7.3785  -21.7452 O   0  0  0  0  0  0  0  0  0  0  0  0
   21.9409   -7.6080  -16.2241 N   0  0  0  0  0  0  0  0  0  0  0  0
   21.5920   -6.4547  -15.3822 C   0  0  1  0  0  0  0  0  0  0  0  0
   22.2032   -6.6275  -14.0118 C   0  0  0  0  0  0  0  0  0  0  0  0
   21.9630   -5.4372  -13.1923 C   0  0  0  0  0  0  0  0  0  0  0  0
   20.8150   -4.9976  -12.9664 O   0  0  0  0  0  0  0  0  0  0  0  0
   22.1907   -5.2694  -16.0322 C   0  0  0  0  0  0  0  0  0  0  0  0
   23.0532   -5.4874  -17.1272 O   0  0  0  0  0  0  0  0  0  0  0  0
   23.0044   -4.7051  -12.6024 O   0  0  0  0  0  0  0  0  0  0  0  0
   21.9985   -4.0697  -15.6933 O   0  0  0  0  0  0  0  0  0  0  0  0
  2  1  1  6
  2  3  1  0
  4  5  2  0
  4  2  1  0
  6  4  1  0
  7 12  1  0
  7  6  1  0
  7  8  1  6
  9  8  1  0
 10  9  1  0
 11 10  2  0
 12 15  1  0
 13 12  2  0
 14 10  1  0
 15 16  1  0
 16 20  1  0
 17 18  1  0
 16 17  1  1
 18 22  1  0
 19 18  2  0
 20 23  2  0
 20 21  1  0
M  END
$$$$
