AED.pdb
     RDKit          3D

 23 22  0  0  1  0  0  0  0  0999 V2000
   27.5536  -19.9487  -16.1300 C   0  0  0  0  0  0  0  0  0  0  0  0
   27.0227  -21.1381  -15.3906 C   0  0  2  0  0  0  0  0  0  0  0  0
   27.5835  -22.3554  -15.9331 N   0  0  0  0  0  0  0  0  0  0  0  0
   25.5411  -21.1756  -15.3569 C   0  0  0  0  0  0  0  0  0  0  0  0
   24.8887  -21.7887  -16.2389 O   0  0  0  0  0  0  0  0  0  0  0  0
   24.8120  -20.5272  -14.3385 N   0  0  0  0  0  0  0  0  0  0  0  0
   23.3372  -20.6683  -14.2160 C   0  0  1  0  0  0  0  0  0  0  0  0
   23.0551  -20.4677  -12.7734 C   0  0  0  0  0  0  0  0  0  0  0  0
   21.9583  -21.2808  -12.1780 C   0  0  0  0  0  0  0  0  0  0  0  0
   21.6575  -20.8898  -10.7781 C   0  0  0  0  0  0  0  0  0  0  0  0
   20.7593  -21.4963  -10.1632 O   0  0  0  0  0  0  0  0  0  0  0  0
   22.7739  -19.6859  -15.1508 C   0  0  0  0  0  0  0  0  0  0  0  0
   23.3878  -18.5841  -15.4131 O   0  0  0  0  0  0  0  0  0  0  0  0
   22.3446  -19.8779  -10.1478 O   0  0  0  0  0  0  0  0  0  0  0  0
   21.5498  -19.8066  -15.8582 N   0  0  0  0  0  0  0  0  0  0  0  0
   21.0481  -18.7692  -16.7708 C   0  0  1  0  0  0  0  0  0  0  0  0
   21.1239  -19.2699  -18.1938 C   0  0  0  0  0  0  0  0  0  0  0  0
   20.6382  -18.2456  -19.1216 C   0  0  0  0  0  0  0  0  0  0  0  0
   20.1606  -17.1583  -18.7318 O   0  0  0  0  0  0  0  0  0  0  0  0
   19.6311  -18.5491  -16.4110 C   0  0  0  0  0  0  0  0  0  0  0  0
   19.0812  -17.2742  -16.6617 O   0  0  0  0  0  0  0  0  0  0  0  0
   20.6741  -18.4114  -20.5143 O   0  0  0  0  0  0  0  0  0  0  0  0
   18.8621  -19.4056  -15.8953 O   0  0  0  0  0  0  0  0  0  0  0  0
  2  1  1  6
  2  3  1  0
  4  5  2  0
  4  2  1  0
  6  4  1  0
  7 12  1  0
  7  6  1  0
  7  8  1  1
  9  8  1  0
 10  9  1  0
 11 10  2  0
 12 15  1  0
 13 12  2  0
 14 10  1  0
 15 16  1  0
 16 20  1  0
 17 18  1  0
 16 17  1  6
 18 22  1  0
 19 18  2  0
 20 23  2  0
 20 21  1  0
M  END
$$$$
