AED.pdb
     RDKit          3D

 23 22  0  0  1  0  0  0  0  0999 V2000
   17.7648  -12.5529  -15.6965 C   0  0  0  0  0  0  0  0  0  0  0  0
   18.1769  -11.2090  -16.2138 C   0  0  2  0  0  0  0  0  0  0  0  0
   18.4712  -11.2860  -17.6273 N   0  0  0  0  0  0  0  0  0  0  0  0
   19.2983  -10.6195  -15.4440 C   0  0  0  0  0  0  0  0  0  0  0  0
   19.2324  -10.4969  -14.1949 O   0  0  0  0  0  0  0  0  0  0  0  0
   20.4753  -10.1759  -16.0820 N   0  0  0  0  0  0  0  0  0  0  0  0
   21.5885   -9.5439  -15.3263 C   0  0  1  0  0  0  0  0  0  0  0  0
   22.8230  -10.1004  -15.9324 C   0  0  0  0  0  0  0  0  0  0  0  0
   23.4823  -11.2264  -15.2140 C   0  0  0  0  0  0  0  0  0  0  0  0
   24.6427  -11.7739  -15.9602 C   0  0  0  0  0  0  0  0  0  0  0  0
   24.4347  -12.5550  -16.9084 O   0  0  0  0  0  0  0  0  0  0  0  0
   21.3735   -8.0970  -15.4553 C   0  0  0  0  0  0  0  0  0  0  0  0
   21.0791   -7.5635  -16.5904 O   0  0  0  0  0  0  0  0  0  0  0  0
   25.9360  -11.4399  -15.6298 O   0  0  0  0  0  0  0  0  0  0  0  0
   21.4501   -7.1407  -14.4099 N   0  0  0  0  0  0  0  0  0  0  0  0
   21.2980   -5.6961  -14.6350 C   0  0  1  0  0  0  0  0  0  0  0  0
   19.8312   -5.3559  -14.7532 C   0  0  0  0  0  0  0  0  0  0  0  0
   19.6573   -3.9187  -14.9775 C   0  0  0  0  0  0  0  0  0  0  0  0
   20.4833   -3.2341  -15.6187 O   0  0  0  0  0  0  0  0  0  0  0  0
   21.8541   -5.0283  -13.4389 C   0  0  0  0  0  0  0  0  0  0  0  0
   22.3164   -5.8462  -12.3864 O   0  0  0  0  0  0  0  0  0  0  0  0
   18.5512   -3.2074  -14.4884 O   0  0  0  0  0  0  0  0  0  0  0  0
   21.9534   -3.7819  -13.2725 O   0  0  0  0  0  0  0  0  0  0  0  0
  2  1  1  1
  2  3  1  0
  4  5  2  0
  4  2  1  0
  6  4  1  0
  7 12  1  0
  7  6  1  0
  7  8  1  6
  9  8  1  0
 10  9  1  0
 11 10  2  0
 12 15  1  0
 13 12  2  0
 14 10  1  0
 15 16  1  0
 16 20  1  0
 17 18  1  0
 16 17  1  1
 18 22  1  0
 19 18  2  0
 20 23  2  0
 20 21  1  0
M  END
$$$$
