AED.pdb
     RDKit          3D

 23 22  0  0  1  0  0  0  0  0999 V2000
   17.6603  -14.4950  -17.6683 C   0  0  0  0  0  0  0  0  0  0  0  0
   17.8256  -13.7453  -16.3822 C   0  0  2  0  0  0  0  0  0  0  0  0
   17.0191  -14.3483  -15.3447 N   0  0  0  0  0  0  0  0  0  0  0  0
   17.5521  -12.2954  -16.5265 C   0  0  0  0  0  0  0  0  0  0  0  0
   18.2553  -11.5757  -17.2796 O   0  0  0  0  0  0  0  0  0  0  0  0
   16.4977  -11.6726  -15.8269 N   0  0  0  0  0  0  0  0  0  0  0  0
   16.1224  -10.2549  -16.0701 C   0  0  1  0  0  0  0  0  0  0  0  0
   14.7016  -10.1614  -15.6532 C   0  0  0  0  0  0  0  0  0  0  0  0
   14.1132   -8.7967  -15.5534 C   0  0  0  0  0  0  0  0  0  0  0  0
   12.7115   -8.8172  -15.0656 C   0  0  0  0  0  0  0  0  0  0  0  0
   11.7972   -8.4911  -15.8468 O   0  0  0  0  0  0  0  0  0  0  0  0
   17.0960   -9.4596  -15.3114 C   0  0  0  0  0  0  0  0  0  0  0  0
   17.3409   -9.7082  -14.0712 O   0  0  0  0  0  0  0  0  0  0  0  0
   12.4011   -9.1862  -13.7768 O   0  0  0  0  0  0  0  0  0  0  0  0
   17.8619   -8.3735  -15.8085 N   0  0  0  0  0  0  0  0  0  0  0  0
   18.8724   -7.6729  -15.0032 C   0  0  1  0  0  0  0  0  0  0  0  0
   20.2071   -8.3631  -15.1571 C   0  0  0  0  0  0  0  0  0  0  0  0
   21.2523   -7.6150  -14.4542 C   0  0  0  0  0  0  0  0  0  0  0  0
   21.0026   -6.6157  -13.7463 O   0  0  0  0  0  0  0  0  0  0  0  0
   18.9693   -6.3051  -15.5561 C   0  0  0  0  0  0  0  0  0  0  0  0
   19.2277   -5.2503  -14.6554 O   0  0  0  0  0  0  0  0  0  0  0  0
   22.6088   -7.9665  -14.5254 O   0  0  0  0  0  0  0  0  0  0  0  0
   18.8406   -5.9927  -16.7713 O   0  0  0  0  0  0  0  0  0  0  0  0
  2  1  1  6
  2  3  1  0
  4  5  2  0
  4  2  1  0
  6  4  1  0
  7 12  1  0
  7  6  1  0
  7  8  1  1
  9  8  1  0
 10  9  1  0
 11 10  2  0
 12 15  1  0
 13 12  2  0
 14 10  1  0
 15 16  1  0
 16 20  1  0
 17 18  1  0
 16 17  1  6
 18 22  1  0
 19 18  2  0
 20 23  2  0
 20 21  1  0
M  END
$$$$
