AED.pdb
     RDKit          3D

 23 22  0  0  1  0  0  0  0  0999 V2000
   20.0025  -13.2277  -19.9484 C   0  0  0  0  0  0  0  0  0  0  0  0
   20.8536  -12.2934  -19.1445 C   0  0  2  0  0  0  0  0  0  0  0  0
   21.5231  -13.0138  -18.0845 N   0  0  0  0  0  0  0  0  0  0  0  0
   20.0951  -11.1277  -18.6312 C   0  0  0  0  0  0  0  0  0  0  0  0
   19.5527  -10.3111  -19.4176 O   0  0  0  0  0  0  0  0  0  0  0  0
   19.9551  -10.8926  -17.2477 N   0  0  0  0  0  0  0  0  0  0  0  0
   19.1746   -9.7423  -16.7209 C   0  0  1  0  0  0  0  0  0  0  0  0
   18.1898  -10.3462  -15.7901 C   0  0  0  0  0  0  0  0  0  0  0  0
   17.4210   -9.4142  -14.9188 C   0  0  0  0  0  0  0  0  0  0  0  0
   16.5042  -10.1271  -13.9946 C   0  0  0  0  0  0  0  0  0  0  0  0
   16.4499  -11.3711  -14.0410 O   0  0  0  0  0  0  0  0  0  0  0  0
   20.1694   -8.8300  -16.1427 C   0  0  0  0  0  0  0  0  0  0  0  0
   21.1610   -9.2740  -15.4503 O   0  0  0  0  0  0  0  0  0  0  0  0
   15.7171   -9.4485  -13.0928 O   0  0  0  0  0  0  0  0  0  0  0  0
   20.1809   -7.4162  -16.2622 N   0  0  0  0  0  0  0  0  0  0  0  0
   21.2287   -6.5723  -15.6701 C   0  0  1  0  0  0  0  0  0  0  0  0
   21.4581   -5.3638  -16.5466 C   0  0  0  0  0  0  0  0  0  0  0  0
   22.4430   -4.4689  -15.9341 C   0  0  0  0  0  0  0  0  0  0  0  0
   22.9751   -4.7110  -14.8294 O   0  0  0  0  0  0  0  0  0  0  0  0
   20.7118   -6.1267  -14.3585 C   0  0  0  0  0  0  0  0  0  0  0  0
   19.3471   -6.3525  -14.0803 O   0  0  0  0  0  0  0  0  0  0  0  0
   22.8597   -3.2757  -16.5435 O   0  0  0  0  0  0  0  0  0  0  0  0
   21.3864   -5.5576  -13.4574 O   0  0  0  0  0  0  0  0  0  0  0  0
  2  1  1  1
  2  3  1  0
  4  5  2  0
  4  2  1  0
  6  4  1  0
  7 12  1  0
  7  6  1  0
  7  8  1  1
  9  8  1  0
 10  9  1  0
 11 10  2  0
 12 15  1  0
 13 12  2  0
 14 10  1  0
 15 16  1  0
 16 20  1  0
 17 18  1  0
 16 17  1  6
 18 22  1  0
 19 18  2  0
 20 23  2  0
 20 21  1  0
M  END
$$$$
