AED.pdb
     RDKit          3D

 23 22  0  0  1  0  0  0  0  0999 V2000
   25.1283  -12.8457  -17.2336 C   0  0  0  0  0  0  0  0  0  0  0  0
   24.6713  -11.7776  -16.2883 C   0  0  2  0  0  0  0  0  0  0  0  0
   23.9843  -12.3677  -15.1612 N   0  0  0  0  0  0  0  0  0  0  0  0
   23.8530  -10.7365  -16.9548 C   0  0  0  0  0  0  0  0  0  0  0  0
   24.3116  -10.0695  -17.9163 O   0  0  0  0  0  0  0  0  0  0  0  0
   22.5355  -10.4568  -16.5362 N   0  0  0  0  0  0  0  0  0  0  0  0
   21.7201   -9.3869  -17.1691 C   0  0  1  0  0  0  0  0  0  0  0  0
   20.3977  -10.0128  -17.4151 C   0  0  0  0  0  0  0  0  0  0  0  0
   20.2391  -10.7879  -18.6771 C   0  0  0  0  0  0  0  0  0  0  0  0
   18.8941  -11.4033  -18.8001 C   0  0  0  0  0  0  0  0  0  0  0  0
   18.1694  -11.0798  -19.7607 O   0  0  0  0  0  0  0  0  0  0  0  0
   21.7622   -8.2592  -16.2296 C   0  0  0  0  0  0  0  0  0  0  0  0
   21.8221   -8.4510  -14.9571 O   0  0  0  0  0  0  0  0  0  0  0  0
   18.4321  -12.3181  -17.8818 O   0  0  0  0  0  0  0  0  0  0  0  0
   21.7486   -6.8819  -16.5707 N   0  0  0  0  0  0  0  0  0  0  0  0
   21.8092   -5.8092  -15.5675 C   0  0  1  0  0  0  0  0  0  0  0  0
   22.4423   -4.5819  -16.1793 C   0  0  0  0  0  0  0  0  0  0  0  0
   22.4183   -3.4678  -15.2284 C   0  0  0  0  0  0  0  0  0  0  0  0
   22.0595   -3.6072  -14.0393 O   0  0  0  0  0  0  0  0  0  0  0  0
   20.4097   -5.5007  -15.2040 C   0  0  0  0  0  0  0  0  0  0  0  0
   20.1512   -5.0916  -13.8787 O   0  0  0  0  0  0  0  0  0  0  0  0
   22.7962   -2.1642  -15.5842 O   0  0  0  0  0  0  0  0  0  0  0  0
   19.4166   -5.5708  -15.9784 O   0  0  0  0  0  0  0  0  0  0  0  0
  2  1  1  6
  2  3  1  0
  4  5  2  0
  4  2  1  0
  6  4  1  0
  7 12  1  0
  7  6  1  0
  7  8  1  1
  9  8  1  0
 10  9  1  0
 11 10  2  0
 12 15  1  0
 13 12  2  0
 14 10  1  0
 15 16  1  0
 16 20  1  0
 17 18  1  0
 16 17  1  6
 18 22  1  0
 19 18  2  0
 20 23  2  0
 20 21  1  0
M  END
$$$$
