AED.pdb
     RDKit          3D

 23 22  0  0  1  0  0  0  0  0999 V2000
   13.0903   -7.3131  -14.0861 C   0  0  0  0  0  0  0  0  0  0  0  0
   14.5014   -7.7569  -13.8510 C   0  0  2  0  0  0  0  0  0  0  0  0
   14.5177   -9.0212  -13.1497 N   0  0  0  0  0  0  0  0  0  0  0  0
   15.3167   -6.7284  -13.1617 C   0  0  0  0  0  0  0  0  0  0  0  0
   15.4374   -5.5716  -13.6378 O   0  0  0  0  0  0  0  0  0  0  0  0
   15.9845   -7.0089  -11.9515 N   0  0  0  0  0  0  0  0  0  0  0  0
   16.8216   -5.9923  -11.2619 C   0  0  1  0  0  0  0  0  0  0  0  0
   16.3896   -6.0436   -9.8435 C   0  0  0  0  0  0  0  0  0  0  0  0
   15.1701   -5.2703   -9.4782 C   0  0  0  0  0  0  0  0  0  0  0  0
   14.8358   -5.3850   -8.0367 C   0  0  0  0  0  0  0  0  0  0  0  0
   15.4833   -6.1811   -7.3299 O   0  0  0  0  0  0  0  0  0  0  0  0
   18.2104   -6.3707  -11.5523 C   0  0  0  0  0  0  0  0  0  0  0  0
   18.6694   -7.5298  -11.2276 O   0  0  0  0  0  0  0  0  0  0  0  0
   13.8321   -4.6359   -7.4667 O   0  0  0  0  0  0  0  0  0  0  0  0
   19.1828   -5.5634  -12.1973 N   0  0  0  0  0  0  0  0  0  0  0  0
   20.5175   -6.0584  -12.5637 C   0  0  1  0  0  0  0  0  0  0  0  0
   20.3797   -7.3127  -13.3938 C   0  0  0  0  0  0  0  0  0  0  0  0
   21.6947   -7.7690  -13.8507 C   0  0  0  0  0  0  0  0  0  0  0  0
   22.6768   -7.8636  -13.0835 O   0  0  0  0  0  0  0  0  0  0  0  0
   21.1416   -5.0005  -13.3866 C   0  0  0  0  0  0  0  0  0  0  0  0
   22.5430   -5.0350  -13.5465 O   0  0  0  0  0  0  0  0  0  0  0  0
   21.9461   -8.1324  -15.1824 O   0  0  0  0  0  0  0  0  0  0  0  0
   20.5291   -4.0611  -13.9641 O   0  0  0  0  0  0  0  0  0  0  0  0
  2  1  1  1
  2  3  1  0
  4  5  2  0
  4  2  1  0
  6  4  1  0
  7 12  1  0
  7  6  1  0
  7  8  1  1
  9  8  1  0
 10  9  1  0
 11 10  2  0
 12 15  1  0
 13 12  2  0
 14 10  1  0
 15 16  1  0
 16 20  1  0
 17 18  1  0
 16 17  1  6
 18 22  1  0
 19 18  2  0
 20 23  2  0
 20 21  1  0
M  END
$$$$
