AED.pdb
     RDKit          3D

 23 22  0  0  1  0  0  0  0  0999 V2000
   29.1368  -21.1849  -15.3951 C   0  0  0  0  0  0  0  0  0  0  0  0
   27.7522  -21.4705  -15.8900 C   0  0  2  0  0  0  0  0  0  0  0  0
   27.7933  -21.9019  -17.2694 N   0  0  0  0  0  0  0  0  0  0  0  0
   26.8277  -20.3287  -15.6921 C   0  0  0  0  0  0  0  0  0  0  0  0
   27.2543  -19.1467  -15.6684 O   0  0  0  0  0  0  0  0  0  0  0  0
   25.4414  -20.5256  -15.5235 N   0  0  0  0  0  0  0  0  0  0  0  0
   24.4775  -19.3942  -15.5530 C   0  0  1  0  0  0  0  0  0  0  0  0
   24.6040  -18.8232  -16.9165 C   0  0  0  0  0  0  0  0  0  0  0  0
   23.6049  -17.7928  -17.3149 C   0  0  0  0  0  0  0  0  0  0  0  0
   23.8369  -17.2780  -18.6876 C   0  0  0  0  0  0  0  0  0  0  0  0
   23.2693  -17.8384  -19.6448 O   0  0  0  0  0  0  0  0  0  0  0  0
   23.1804  -19.9793  -15.1904 C   0  0  0  0  0  0  0  0  0  0  0  0
   22.8614  -21.1740  -15.5518 O   0  0  0  0  0  0  0  0  0  0  0  0
   24.6605  -16.2016  -18.9251 O   0  0  0  0  0  0  0  0  0  0  0  0
   22.1589  -19.3508  -14.4323 N   0  0  0  0  0  0  0  0  0  0  0  0
   20.9345  -20.0457  -14.0096 C   0  0  1  0  0  0  0  0  0  0  0  0
   20.3798  -19.3820  -12.7714 C   0  0  0  0  0  0  0  0  0  0  0  0
   19.1897  -20.0945  -12.3003 C   0  0  0  0  0  0  0  0  0  0  0  0
   18.7758  -21.1422  -12.8417 O   0  0  0  0  0  0  0  0  0  0  0  0
   19.9658  -19.8909  -15.1158 C   0  0  0  0  0  0  0  0  0  0  0  0
   18.9931  -20.8993  -15.2818 O   0  0  0  0  0  0  0  0  0  0  0  0
   18.4288  -19.6519  -11.2077 O   0  0  0  0  0  0  0  0  0  0  0  0
   19.9299  -18.9301  -15.9322 O   0  0  0  0  0  0  0  0  0  0  0  0
  2  1  1  6
  2  3  1  0
  4  5  2  0
  4  2  1  0
  6  4  1  0
  7 12  1  0
  7  6  1  0
  7  8  1  6
  9  8  1  0
 10  9  1  0
 11 10  2  0
 12 15  1  0
 13 12  2  0
 14 10  1  0
 15 16  1  0
 16 20  1  0
 17 18  1  0
 16 17  1  1
 18 22  1  0
 19 18  2  0
 20 23  2  0
 20 21  1  0
M  END
$$$$
