AED.pdb
     RDKit          3D

 23 22  0  0  1  0  0  0  0  0999 V2000
   25.1173  -32.0778   -6.0553 C   0  0  0  0  0  0  0  0  0  0  0  0
   26.0165  -33.0571   -6.7450 C   0  0  2  0  0  0  0  0  0  0  0  0
   25.3283  -33.6685   -7.8600 N   0  0  0  0  0  0  0  0  0  0  0  0
   26.5794  -34.0675   -5.8177 C   0  0  0  0  0  0  0  0  0  0  0  0
   26.0603  -35.2069   -5.7089 O   0  0  0  0  0  0  0  0  0  0  0  0
   27.7131  -33.7888   -5.0264 N   0  0  0  0  0  0  0  0  0  0  0  0
   28.1845  -34.7240   -3.9714 C   0  0  1  0  0  0  0  0  0  0  0  0
   29.6383  -34.4554   -3.8478 C   0  0  0  0  0  0  0  0  0  0  0  0
   30.3459  -35.0742   -2.6923 C   0  0  0  0  0  0  0  0  0  0  0  0
   30.9644  -36.3785   -3.0379 C   0  0  0  0  0  0  0  0  0  0  0  0
   31.6760  -36.4561   -4.0577 O   0  0  0  0  0  0  0  0  0  0  0  0
   27.3493  -34.4386   -2.7978 C   0  0  0  0  0  0  0  0  0  0  0  0
   26.9764  -33.2374   -2.5188 O   0  0  0  0  0  0  0  0  0  0  0  0
   30.7702  -37.4977   -2.2613 O   0  0  0  0  0  0  0  0  0  0  0  0
   26.8604  -35.3891   -1.8646 N   0  0  0  0  0  0  0  0  0  0  0  0
   26.1249  -35.0111   -0.6493 C   0  0  1  0  0  0  0  0  0  0  0  0
   24.7431  -35.6198   -0.6863 C   0  0  0  0  0  0  0  0  0  0  0  0
   24.0184  -35.3157    0.5500 C   0  0  0  0  0  0  0  0  0  0  0  0
   23.6071  -36.2067    1.3239 O   0  0  0  0  0  0  0  0  0  0  0  0
   26.8760  -35.5865    0.4868 C   0  0  0  0  0  0  0  0  0  0  0  0
   26.5661  -35.1197    1.7817 O   0  0  0  0  0  0  0  0  0  0  0  0
   23.7340  -34.0025    0.9539 O   0  0  0  0  0  0  0  0  0  0  0  0
   27.7771  -36.4650    0.4027 O   0  0  0  0  0  0  0  0  0  0  0  0
  2  1  1  1
  2  3  1  0
  4  5  2  0
  4  2  1  0
  6  4  1  0
  7 12  1  0
  7  6  1  0
  7  8  1  1
  9  8  1  0
 10  9  1  0
 11 10  2  0
 12 15  1  0
 13 12  2  0
 14 10  1  0
 15 16  1  0
 16 20  1  0
 17 18  1  0
 16 17  1  6
 18 22  1  0
 19 18  2  0
 20 23  2  0
 20 21  1  0
M  END
$$$$
