AED.pdb
     RDKit          3D

 23 22  0  0  1  0  0  0  0  0999 V2000
   18.5086  -13.0377  -16.0531 C   0  0  0  0  0  0  0  0  0  0  0  0
   18.5009  -11.5806  -16.4000 C   0  0  2  0  0  0  0  0  0  0  0  0
   18.4233  -11.4083  -17.8334 N   0  0  0  0  0  0  0  0  0  0  0  0
   19.6480  -10.8474  -15.8134 C   0  0  0  0  0  0  0  0  0  0  0  0
   19.8533  -10.8513  -14.5735 O   0  0  0  0  0  0  0  0  0  0  0  0
   20.5473  -10.1210  -16.6214 N   0  0  0  0  0  0  0  0  0  0  0  0
   21.5919   -9.2389  -16.0377 C   0  0  1  0  0  0  0  0  0  0  0  0
   22.8094   -9.5091  -16.8413 C   0  0  0  0  0  0  0  0  0  0  0  0
   24.0000   -8.6545  -16.5756 C   0  0  0  0  0  0  0  0  0  0  0  0
   25.1744   -9.0467  -17.3943 C   0  0  0  0  0  0  0  0  0  0  0  0
   25.7754   -8.1698  -18.0441 O   0  0  0  0  0  0  0  0  0  0  0  0
   21.0350   -7.8818  -16.1026 C   0  0  0  0  0  0  0  0  0  0  0  0
   20.5201   -7.4217  -17.1902 O   0  0  0  0  0  0  0  0  0  0  0  0
   25.6115  -10.3502  -17.4514 O   0  0  0  0  0  0  0  0  0  0  0  0
   20.9842   -6.9438  -15.0391 N   0  0  0  0  0  0  0  0  0  0  0  0
   20.4713   -5.5760  -15.2032 C   0  0  1  0  0  0  0  0  0  0  0  0
   19.0179   -5.5301  -14.7948 C   0  0  0  0  0  0  0  0  0  0  0  0
   18.5082   -4.1591  -14.8766 C   0  0  0  0  0  0  0  0  0  0  0  0
   18.7674   -3.4023  -15.8368 O   0  0  0  0  0  0  0  0  0  0  0  0
   21.2581   -4.7244  -14.2858 C   0  0  0  0  0  0  0  0  0  0  0  0
   21.1045   -3.3261  -14.3951 O   0  0  0  0  0  0  0  0  0  0  0  0
   17.6925   -3.5972  -13.8828 O   0  0  0  0  0  0  0  0  0  0  0  0
   22.0617   -5.1383  -13.4062 O   0  0  0  0  0  0  0  0  0  0  0  0
  2  1  1  6
  2  3  1  0
  4  5  2  0
  4  2  1  0
  6  4  1  0
  7 12  1  0
  7  6  1  0
  7  8  1  6
  9  8  1  0
 10  9  1  0
 11 10  2  0
 12 15  1  0
 13 12  2  0
 14 10  1  0
 15 16  1  0
 16 20  1  0
 17 18  1  0
 16 17  1  1
 18 22  1  0
 19 18  2  0
 20 23  2  0
 20 21  1  0
M  END
$$$$
