AED.pdb
     RDKit          3D

 23 22  0  0  1  0  0  0  0  0999 V2000
   21.4088  -13.5454  -17.2746 C   0  0  0  0  0  0  0  0  0  0  0  0
   22.4837  -14.3368  -17.9543 C   0  0  2  0  0  0  0  0  0  0  0  0
   22.5511  -13.9878  -19.3558 N   0  0  0  0  0  0  0  0  0  0  0  0
   22.3326  -15.7976  -17.7519 C   0  0  0  0  0  0  0  0  0  0  0  0
   21.4151  -16.4389  -18.3232 O   0  0  0  0  0  0  0  0  0  0  0  0
   23.2089  -16.5185  -16.9143 N   0  0  0  0  0  0  0  0  0  0  0  0
   23.0471  -17.9771  -16.6771 C   0  0  1  0  0  0  0  0  0  0  0  0
   24.4298  -18.5143  -16.6581 C   0  0  0  0  0  0  0  0  0  0  0  0
   24.6008  -19.9302  -16.2282 C   0  0  0  0  0  0  0  0  0  0  0  0
   26.0049  -20.3954  -16.3520 C   0  0  0  0  0  0  0  0  0  0  0  0
   26.5623  -20.8987  -15.3577 O   0  0  0  0  0  0  0  0  0  0  0  0
   22.2703  -18.0850  -15.4357 C   0  0  0  0  0  0  0  0  0  0  0  0
   22.1061  -17.0700  -14.6594 O   0  0  0  0  0  0  0  0  0  0  0  0
   26.7007  -20.2837  -17.5338 O   0  0  0  0  0  0  0  0  0  0  0  0
   21.6257  -19.2511  -14.9478 N   0  0  0  0  0  0  0  0  0  0  0  0
   20.7799  -19.2535  -13.7456 C   0  0  1  0  0  0  0  0  0  0  0  0
   19.6965  -18.2109  -13.8891 C   0  0  0  0  0  0  0  0  0  0  0  0
   18.8622  -18.1731  -12.6855 C   0  0  0  0  0  0  0  0  0  0  0  0
   19.3176  -18.4058  -11.5451 O   0  0  0  0  0  0  0  0  0  0  0  0
   20.1563  -20.5923  -13.6787 C   0  0  0  0  0  0  0  0  0  0  0  0
   20.5843  -21.5624  -14.6095 O   0  0  0  0  0  0  0  0  0  0  0  0
   17.4922  -17.8730  -12.7265 O   0  0  0  0  0  0  0  0  0  0  0  0
   19.2680  -20.9492  -12.8574 O   0  0  0  0  0  0  0  0  0  0  0  0
  2  1  1  6
  2  3  1  0
  4  5  2  0
  4  2  1  0
  6  4  1  0
  7 12  1  0
  7  6  1  0
  7  8  1  1
  9  8  1  0
 10  9  1  0
 11 10  2  0
 12 15  1  0
 13 12  2  0
 14 10  1  0
 15 16  1  0
 16 20  1  0
 17 18  1  0
 16 17  1  6
 18 22  1  0
 19 18  2  0
 20 23  2  0
 20 21  1  0
M  END
$$$$
