TAE.pdb
     RDKit          3D

 22 21  0  0  1  0  0  0  0  0999 V2000
    6.6315  -14.2538   17.9235 C   0  0  0  0  0  0  0  0  0  0  0  0
    7.0725  -14.5390   19.3585 C   0  0  1  0  0  0  0  0  0  0  0  0
    8.2618  -15.2952   19.2094 O   0  0  0  0  0  0  0  0  0  0  0  0
    7.4584  -13.3092   20.1109 C   0  0  2  0  0  0  0  0  0  0  0  0
    8.3588  -12.5511   19.2627 N   0  0  0  0  0  0  0  0  0  0  0  0
    8.0314  -13.5624   21.4477 C   0  0  0  0  0  0  0  0  0  0  0  0
    9.2645  -13.7858   21.5477 O   0  0  0  0  0  0  0  0  0  0  0  0
    6.8086  -13.5922   25.0572 C   0  0  0  0  0  0  0  0  0  0  0  0
    7.8097  -13.8651   23.9517 C   0  0  2  0  0  0  0  0  0  0  0  0
    7.2792  -13.5722   22.6490 N   0  0  0  0  0  0  0  0  0  0  0  0
    8.3093  -15.2442   24.0795 C   0  0  0  0  0  0  0  0  0  0  0  0
    7.7694  -16.2473   23.5656 O   0  0  0  0  0  0  0  0  0  0  0  0
    9.4895  -15.4550   24.8403 N   0  0  0  0  0  0  0  0  0  0  0  0
    9.9840  -16.8586   25.0343 C   0  0  1  0  0  0  0  0  0  0  0  0
   11.3978  -16.8541   24.6129 C   0  0  0  0  0  0  0  0  0  0  0  0
   12.2414  -18.0430   24.7738 C   0  0  0  0  0  0  0  0  0  0  0  0
   13.6233  -17.9397   24.2838 C   0  0  0  0  0  0  0  0  0  0  0  0
   13.8515  -17.7986   23.0338 O   0  0  0  0  0  0  0  0  0  0  0  0
    9.6904  -17.1720   26.4343 C   0  0  0  0  0  0  0  0  0  0  0  0
    9.3865  -16.2686   27.2951 O   0  0  0  0  0  0  0  0  0  0  0  0
   14.7223  -17.9843   25.1194 O   0  0  0  0  0  0  0  0  0  0  0  0
    9.7091  -18.4536   26.9432 O   0  0  0  0  0  0  0  0  0  0  0  0
  2  1  1  6
  2  4  1  0
  3  2  1  0
  4  5  1  6
  6 10  1  0
  6  4  1  0
  7  6  2  0
  9  8  1  1
  9 10  1  0
  9 11  1  0
 11 13  1  0
 12 11  2  0
 13 14  1  0
 14 15  1  1
 14 19  1  0
 15 16  1  0
 17 18  2  0
 17 16  1  0
 19 22  1  0
 20 19  2  0
 21 17  1  0
M  END
$$$$
