TAE.pdb
     RDKit          3D

 22 21  0  0  1  0  0  0  0  0999 V2000
    6.9785  -16.0552   19.3764 C   0  0  0  0  0  0  0  0  0  0  0  0
    7.8363  -14.8913   18.8820 C   0  0  1  0  0  0  0  0  0  0  0  0
    7.3237  -14.6097   17.5910 O   0  0  0  0  0  0  0  0  0  0  0  0
    7.6511  -13.6433   19.6793 C   0  0  2  0  0  0  0  0  0  0  0  0
    8.2228  -12.5535   18.9110 N   0  0  0  0  0  0  0  0  0  0  0  0
    8.1948  -13.7050   21.0505 C   0  0  0  0  0  0  0  0  0  0  0  0
    9.4360  -13.8277   21.2068 O   0  0  0  0  0  0  0  0  0  0  0  0
    6.8298  -13.6245   24.6108 C   0  0  0  0  0  0  0  0  0  0  0  0
    7.8743  -13.9213   23.5528 C   0  0  2  0  0  0  0  0  0  0  0  0
    7.4051  -13.6347   22.2254 N   0  0  0  0  0  0  0  0  0  0  0  0
    8.3498  -15.3053   23.7152 C   0  0  0  0  0  0  0  0  0  0  0  0
    7.7800  -16.3133   23.2452 O   0  0  0  0  0  0  0  0  0  0  0  0
    9.5411  -15.5151   24.4588 N   0  0  0  0  0  0  0  0  0  0  0  0
   10.0246  -16.9201   24.6690 C   0  0  1  0  0  0  0  0  0  0  0  0
   11.3359  -17.0043   23.9984 C   0  0  0  0  0  0  0  0  0  0  0  0
   12.1695  -18.2058   24.1096 C   0  0  0  0  0  0  0  0  0  0  0  0
   13.4902  -18.1514   23.4668 C   0  0  0  0  0  0  0  0  0  0  0  0
   13.9545  -17.0358   23.0491 O   0  0  0  0  0  0  0  0  0  0  0  0
    9.9859  -17.1195   26.1193 C   0  0  0  0  0  0  0  0  0  0  0  0
    9.8659  -16.1451   26.9473 O   0  0  0  0  0  0  0  0  0  0  0  0
   14.2840  -19.2671   23.2847 O   0  0  0  0  0  0  0  0  0  0  0  0
   10.0685  -18.3604   26.7154 O   0  0  0  0  0  0  0  0  0  0  0  0
  2  1  1  1
  2  4  1  0
  3  2  1  0
  4  5  1  6
  6 10  1  0
  6  4  1  0
  7  6  2  0
  9  8  1  1
  9 10  1  0
  9 11  1  0
 11 13  1  0
 12 11  2  0
 13 14  1  0
 14 15  1  1
 14 19  1  0
 15 16  1  0
 17 18  2  0
 17 16  1  0
 19 22  1  0
 20 19  2  0
 21 17  1  0
M  END
$$$$
