TAE.pdb
     RDKit          3D

 22 21  0  0  1  0  0  0  0  0999 V2000
    6.3735  -14.2491   19.2662 C   0  0  0  0  0  0  0  0  0  0  0  0
    6.7617  -14.4212   20.7341 C   0  0  1  0  0  0  0  0  0  0  0  0
    7.7491  -15.4377   20.7123 O   0  0  0  0  0  0  0  0  0  0  0  0
    7.4248  -13.2159   21.3128 C   0  0  2  0  0  0  0  0  0  0  0  0
    8.4620  -12.8083   20.3839 N   0  0  0  0  0  0  0  0  0  0  0  0
    7.9430  -13.3991   22.6829 C   0  0  0  0  0  0  0  0  0  0  0  0
    9.1055  -13.8519   22.8372 O   0  0  0  0  0  0  0  0  0  0  0  0
    6.6646  -12.9107   26.2437 C   0  0  0  0  0  0  0  0  0  0  0  0
    7.6023  -13.4682   25.1909 C   0  0  2  0  0  0  0  0  0  0  0  0
    7.2122  -13.0964   23.8590 N   0  0  0  0  0  0  0  0  0  0  0  0
    7.7280  -14.9236   25.3750 C   0  0  0  0  0  0  0  0  0  0  0  0
    6.8533  -15.7589   25.0605 O   0  0  0  0  0  0  0  0  0  0  0  0
    8.9276  -15.4188   25.9510 N   0  0  0  0  0  0  0  0  0  0  0  0
    9.0719  -16.8976   26.1623 C   0  0  1  0  0  0  0  0  0  0  0  0
    9.7781  -17.4118   24.9734 C   0  0  0  0  0  0  0  0  0  0  0  0
   11.0860  -16.8788   24.5781 C   0  0  0  0  0  0  0  0  0  0  0  0
   11.7507  -17.5406   23.4463 C   0  0  0  0  0  0  0  0  0  0  0  0
   11.2403  -18.5925   22.9290 O   0  0  0  0  0  0  0  0  0  0  0  0
    9.7359  -17.0302   27.4607 C   0  0  0  0  0  0  0  0  0  0  0  0
   10.1561  -16.0166   28.1281 O   0  0  0  0  0  0  0  0  0  0  0  0
   12.9273  -17.0775   22.8904 O   0  0  0  0  0  0  0  0  0  0  0  0
    9.9600  -18.2439   28.0759 O   0  0  0  0  0  0  0  0  0  0  0  0
  2  1  1  6
  2  4  1  0
  3  2  1  0
  4  5  1  6
  6 10  1  0
  6  4  1  0
  7  6  2  0
  9  8  1  1
  9 10  1  0
  9 11  1  0
 11 13  1  0
 12 11  2  0
 13 14  1  0
 14 15  1  6
 14 19  1  0
 15 16  1  0
 17 18  2  0
 17 16  1  0
 19 22  1  0
 20 19  2  0
 21 17  1  0
M  END
$$$$
