TAE.pdb
     RDKit          3D

 22 21  0  0  1  0  0  0  0  0999 V2000
   10.5235  -13.4054   18.4969 C   0  0  0  0  0  0  0  0  0  0  0  0
    9.1406  -12.8595   18.8499 C   0  0  1  0  0  0  0  0  0  0  0  0
    8.6702  -12.3016   17.6350 O   0  0  0  0  0  0  0  0  0  0  0  0
    8.1636  -13.9258   19.2186 C   0  0  2  0  0  0  0  0  0  0  0  0
    6.8780  -13.2820   19.4134 N   0  0  0  0  0  0  0  0  0  0  0  0
    8.5593  -14.7454   20.3809 C   0  0  0  0  0  0  0  0  0  0  0  0
    8.3496  -14.3004   21.5377 O   0  0  0  0  0  0  0  0  0  0  0  0
    9.9032  -18.2628   20.9631 C   0  0  0  0  0  0  0  0  0  0  0  0
    9.4634  -16.8794   21.4005 C   0  0  2  0  0  0  0  0  0  0  0  0
    9.1699  -16.0210   20.2863 N   0  0  0  0  0  0  0  0  0  0  0  0
   10.4692  -16.3180   22.3177 C   0  0  0  0  0  0  0  0  0  0  0  0
   11.3999  -15.5579   21.9745 O   0  0  0  0  0  0  0  0  0  0  0  0
   10.3796  -16.6622   23.6924 N   0  0  0  0  0  0  0  0  0  0  0  0
   11.4038  -16.1152   24.6432 C   0  0  1  0  0  0  0  0  0  0  0  0
   10.7765  -16.1440   25.9782 C   0  0  0  0  0  0  0  0  0  0  0  0
   11.5102  -15.7083   27.1710 C   0  0  0  0  0  0  0  0  0  0  0  0
   10.7866  -15.7751   28.4487 C   0  0  0  0  0  0  0  0  0  0  0  0
   10.7659  -16.8646   29.1175 O   0  0  0  0  0  0  0  0  0  0  0  0
   12.5946  -16.9406   24.4310 C   0  0  0  0  0  0  0  0  0  0  0  0
   13.7800  -16.5236   24.6960 O   0  0  0  0  0  0  0  0  0  0  0  0
   10.1104  -14.6976   28.9868 O   0  0  0  0  0  0  0  0  0  0  0  0
   12.5456  -18.2277   23.9381 O   0  0  0  0  0  0  0  0  0  0  0  0
  2  1  1  6
  2  4  1  0
  3  2  1  0
  4  5  1  1
  6 10  1  0
  6  4  1  0
  7  6  2  0
  9  8  1  6
  9 10  1  0
  9 11  1  0
 11 13  1  0
 12 11  2  0
 13 14  1  0
 14 15  1  1
 14 19  1  0
 15 16  1  0
 17 18  2  0
 17 16  1  0
 19 22  1  0
 20 19  2  0
 21 17  1  0
M  END
$$$$
