TAE.pdb
     RDKit          3D

 22 21  0  0  1  0  0  0  0  0999 V2000
    9.2244  -19.5444   17.2153 C   0  0  0  0  0  0  0  0  0  0  0  0
    9.5113  -18.3661   18.1450 C   0  0  1  0  0  0  0  0  0  0  0  0
    9.5878  -17.2508   17.2738 O   0  0  0  0  0  0  0  0  0  0  0  0
    8.3924  -18.0750   19.0888 C   0  0  2  0  0  0  0  0  0  0  0  0
    7.2238  -17.7640   18.2872 N   0  0  0  0  0  0  0  0  0  0  0  0
    8.6850  -17.0219   20.0811 C   0  0  0  0  0  0  0  0  0  0  0  0
    9.6811  -17.1582   20.8357 O   0  0  0  0  0  0  0  0  0  0  0  0
    7.2318  -13.6385   21.0760 C   0  0  0  0  0  0  0  0  0  0  0  0
    8.1627  -14.8255   21.2274 C   0  0  2  0  0  0  0  0  0  0  0  0
    7.9106  -15.8467   20.2486 N   0  0  0  0  0  0  0  0  0  0  0  0
    8.0975  -15.3194   22.6130 C   0  0  0  0  0  0  0  0  0  0  0  0
    7.1149  -15.9075   23.1134 O   0  0  0  0  0  0  0  0  0  0  0  0
    9.2301  -15.1153   23.4446 N   0  0  0  0  0  0  0  0  0  0  0  0
    9.3049  -15.8412   24.7559 C   0  0  1  0  0  0  0  0  0  0  0  0
    9.9242  -17.1479   24.4633 C   0  0  0  0  0  0  0  0  0  0  0  0
   10.2324  -18.0989   25.5363 C   0  0  0  0  0  0  0  0  0  0  0  0
   10.8169  -19.3842   25.1277 C   0  0  0  0  0  0  0  0  0  0  0  0
   10.9814  -19.6484   23.8877 O   0  0  0  0  0  0  0  0  0  0  0  0
   10.0228  -14.9310   25.6507 C   0  0  0  0  0  0  0  0  0  0  0  0
   10.0111  -15.0663   26.9278 O   0  0  0  0  0  0  0  0  0  0  0  0
   11.2133  -20.3508   26.0313 O   0  0  0  0  0  0  0  0  0  0  0  0
   10.7715  -13.8630   25.2026 O   0  0  0  0  0  0  0  0  0  0  0  0
  2  1  1  6
  2  4  1  0
  3  2  1  0
  4  5  1  6
  6 10  1  0
  6  4  1  0
  7  6  2  0
  9  8  1  1
  9 10  1  0
  9 11  1  0
 11 13  1  0
 12 11  2  0
 13 14  1  0
 14 15  1  6
 14 19  1  0
 15 16  1  0
 17 18  2  0
 17 16  1  0
 19 22  1  0
 20 19  2  0
 21 17  1  0
M  END
$$$$
