TAE.pdb
     RDKit          3D

 22 21  0  0  1  0  0  0  0  0999 V2000
   14.7929  -17.0440   19.7685 C   0  0  0  0  0  0  0  0  0  0  0  0
   14.7275  -15.5257   19.6083 C   0  0  1  0  0  0  0  0  0  0  0  0
   15.7901  -15.2272   18.7192 O   0  0  0  0  0  0  0  0  0  0  0  0
   13.4817  -15.0583   18.9324 C   0  0  2  0  0  0  0  0  0  0  0  0
   13.6817  -13.6658   18.5777 N   0  0  0  0  0  0  0  0  0  0  0  0
   12.2459  -15.2634   19.7136 C   0  0  0  0  0  0  0  0  0  0  0  0
   11.9740  -14.4608   20.6421 O   0  0  0  0  0  0  0  0  0  0  0  0
    9.0840  -17.3089   19.3830 C   0  0  0  0  0  0  0  0  0  0  0  0
   10.0766  -16.4837   20.1781 C   0  0  2  0  0  0  0  0  0  0  0  0
   11.3266  -16.3185   19.4892 N   0  0  0  0  0  0  0  0  0  0  0  0
   10.2260  -17.0670   21.5218 C   0  0  0  0  0  0  0  0  0  0  0  0
    9.2825  -17.2867   22.3112 O   0  0  0  0  0  0  0  0  0  0  0  0
   11.5344  -17.4061   21.9567 N   0  0  0  0  0  0  0  0  0  0  0  0
   11.7137  -17.9802   23.3316 C   0  0  1  0  0  0  0  0  0  0  0  0
   12.8634  -18.9004   23.2420 C   0  0  0  0  0  0  0  0  0  0  0  0
   14.2376  -18.3931   23.1704 C   0  0  0  0  0  0  0  0  0  0  0  0
   15.2059  -19.2197   22.4358 C   0  0  0  0  0  0  0  0  0  0  0  0
   15.9262  -18.6991   21.5166 O   0  0  0  0  0  0  0  0  0  0  0  0
   11.8376  -16.8173   24.2129 C   0  0  0  0  0  0  0  0  0  0  0  0
   11.9532  -15.6197   23.7637 O   0  0  0  0  0  0  0  0  0  0  0  0
   15.3913  -20.5648   22.6896 O   0  0  0  0  0  0  0  0  0  0  0  0
   11.8351  -16.9067   25.5891 O   0  0  0  0  0  0  0  0  0  0  0  0
  2  1  1  6
  2  4  1  0
  3  2  1  0
  4  5  1  1
  6 10  1  0
  6  4  1  0
  7  6  2  0
  9  8  1  6
  9 10  1  0
  9 11  1  0
 11 13  1  0
 12 11  2  0
 13 14  1  0
 14 15  1  6
 14 19  1  0
 15 16  1  0
 17 18  2  0
 17 16  1  0
 19 22  1  0
 20 19  2  0
 21 17  1  0
M  END
$$$$
