TAE.pdb
     RDKit          3D

 22 21  0  0  1  0  0  0  0  0999 V2000
    6.6785  -17.7241   15.3665 C   0  0  0  0  0  0  0  0  0  0  0  0
    7.3128  -17.0209   16.5657 C   0  0  1  0  0  0  0  0  0  0  0  0
    8.3290  -17.9130   16.9901 O   0  0  0  0  0  0  0  0  0  0  0  0
    8.0062  -15.7498   16.2034 C   0  0  2  0  0  0  0  0  0  0  0  0
    8.8865  -16.0431   15.0882 N   0  0  0  0  0  0  0  0  0  0  0  0
    8.7187  -15.0996   17.3210 C   0  0  0  0  0  0  0  0  0  0  0  0
    9.9038  -15.4397   17.5658 O   0  0  0  0  0  0  0  0  0  0  0  0
    7.8979  -12.5388   20.0283 C   0  0  0  0  0  0  0  0  0  0  0  0
    8.7575  -13.5891   19.3527 C   0  0  2  0  0  0  0  0  0  0  0  0
    8.1538  -14.1013   18.1537 N   0  0  0  0  0  0  0  0  0  0  0  0
    9.0960  -14.6393   20.3277 C   0  0  0  0  0  0  0  0  0  0  0  0
    8.3191  -15.5466   20.6950 O   0  0  0  0  0  0  0  0  0  0  0  0
   10.3979  -14.6246   20.8942 N   0  0  0  0  0  0  0  0  0  0  0  0
   10.8268  -15.7791   21.7516 C   0  0  1  0  0  0  0  0  0  0  0  0
   10.8191  -16.9640   20.8726 C   0  0  0  0  0  0  0  0  0  0  0  0
   11.2531  -18.2760   21.3638 C   0  0  0  0  0  0  0  0  0  0  0  0
   11.2407  -19.3787   20.3920 C   0  0  0  0  0  0  0  0  0  0  0  0
   11.6799  -19.1929   19.2057 O   0  0  0  0  0  0  0  0  0  0  0  0
   12.1079  -15.3656   22.3281 C   0  0  0  0  0  0  0  0  0  0  0  0
   12.8203  -14.4238   21.8233 O   0  0  0  0  0  0  0  0  0  0  0  0
   10.7714  -20.6421   20.6947 O   0  0  0  0  0  0  0  0  0  0  0  0
   12.6520  -15.9429   23.4561 O   0  0  0  0  0  0  0  0  0  0  0  0
  2  1  1  6
  2  4  1  0
  3  2  1  0
  4  5  1  6
  6 10  1  0
  6  4  1  0
  7  6  2  0
  9  8  1  1
  9 10  1  0
  9 11  1  0
 11 13  1  0
 12 11  2  0
 13 14  1  0
 14 15  1  6
 14 19  1  0
 15 16  1  0
 17 18  2  0
 17 16  1  0
 19 22  1  0
 20 19  2  0
 21 17  1  0
M  END
$$$$
