TAE.pdb
     RDKit          3D

 22 21  0  0  1  0  0  0  0  0999 V2000
    7.4096  -12.3110   19.0328 C   0  0  0  0  0  0  0  0  0  0  0  0
    8.3173  -13.3604   19.6729 C   0  0  1  0  0  0  0  0  0  0  0  0
    8.4492  -12.9283   21.0162 O   0  0  0  0  0  0  0  0  0  0  0  0
    7.6964  -14.7161   19.7358 C   0  0  2  0  0  0  0  0  0  0  0  0
    6.3881  -14.5619   20.3436 N   0  0  0  0  0  0  0  0  0  0  0  0
    8.5147  -15.7344   20.4233 C   0  0  0  0  0  0  0  0  0  0  0  0
    8.2576  -16.0125   21.6220 O   0  0  0  0  0  0  0  0  0  0  0  0
   11.2643  -18.1979   19.4943 C   0  0  0  0  0  0  0  0  0  0  0  0
   10.3917  -17.4332   20.4702 C   0  0  2  0  0  0  0  0  0  0  0  0
    9.5892  -16.4346   19.8197 N   0  0  0  0  0  0  0  0  0  0  0  0
   11.2324  -16.8906   21.5503 C   0  0  0  0  0  0  0  0  0  0  0  0
   11.7440  -15.7504   21.5495 O   0  0  0  0  0  0  0  0  0  0  0  0
   11.4828  -17.7185   22.6764 N   0  0  0  0  0  0  0  0  0  0  0  0
   12.2131  -17.1389   23.8523 C   0  0  1  0  0  0  0  0  0  0  0  0
   11.8542  -17.9803   25.0097 C   0  0  0  0  0  0  0  0  0  0  0  0
   12.4884  -17.7827   26.3173 C   0  0  0  0  0  0  0  0  0  0  0  0
   12.1882  -18.7833   27.3513 C   0  0  0  0  0  0  0  0  0  0  0  0
   11.4086  -19.7621   27.0892 O   0  0  0  0  0  0  0  0  0  0  0  0
   13.6190  -17.1044   23.4437 C   0  0  0  0  0  0  0  0  0  0  0  0
   14.1458  -18.0133   22.7049 O   0  0  0  0  0  0  0  0  0  0  0  0
   12.7169  -18.7284   28.6263 O   0  0  0  0  0  0  0  0  0  0  0  0
   14.4891  -16.0988   23.8091 O   0  0  0  0  0  0  0  0  0  0  0  0
  2  1  1  6
  2  4  1  0
  3  2  1  0
  4  5  1  1
  6 10  1  0
  6  4  1  0
  7  6  2  0
  9  8  1  6
  9 10  1  0
  9 11  1  0
 11 13  1  0
 12 11  2  0
 13 14  1  0
 14 15  1  1
 14 19  1  0
 15 16  1  0
 17 18  2  0
 17 16  1  0
 19 22  1  0
 20 19  2  0
 21 17  1  0
M  END
$$$$
