TAE.pdb
     RDKit          3D

 22 21  0  0  1  0  0  0  0  0999 V2000
    6.8863  -17.1199   14.1847 C   0  0  0  0  0  0  0  0  0  0  0  0
    7.5316  -16.5750   15.4582 C   0  0  1  0  0  0  0  0  0  0  0  0
    8.7412  -17.3050   15.5708 O   0  0  0  0  0  0  0  0  0  0  0  0
    7.9257  -15.1396   15.3506 C   0  0  2  0  0  0  0  0  0  0  0  0
    8.7389  -15.0055   14.1565 N   0  0  0  0  0  0  0  0  0  0  0  0
    8.5978  -14.5964   16.5475 C   0  0  0  0  0  0  0  0  0  0  0  0
    9.8429  -14.7294   16.6580 O   0  0  0  0  0  0  0  0  0  0  0  0
    7.5792  -12.7368   19.7199 C   0  0  0  0  0  0  0  0  0  0  0  0
    8.5540  -13.4538   18.8066 C   0  0  2  0  0  0  0  0  0  0  0  0
    7.9295  -13.9235   17.6009 N   0  0  0  0  0  0  0  0  0  0  0  0
    9.2332  -14.5192   19.5627 C   0  0  0  0  0  0  0  0  0  0  0  0
    8.9082  -15.7257   19.5406 O   0  0  0  0  0  0  0  0  0  0  0  0
   10.3377  -14.1547   20.3771 N   0  0  0  0  0  0  0  0  0  0  0  0
   11.1087  -15.2357   21.0765 C   0  0  1  0  0  0  0  0  0  0  0  0
   12.5287  -14.8456   20.9880 C   0  0  0  0  0  0  0  0  0  0  0  0
   13.5731  -15.6247   21.6612 C   0  0  0  0  0  0  0  0  0  0  0  0
   14.9404  -15.0897   21.5914 C   0  0  0  0  0  0  0  0  0  0  0  0
   15.1686  -13.9919   20.9770 O   0  0  0  0  0  0  0  0  0  0  0  0
   10.5077  -15.3262   22.4088 C   0  0  0  0  0  0  0  0  0  0  0  0
    9.6809  -14.4503   22.8543 O   0  0  0  0  0  0  0  0  0  0  0  0
   16.0246  -15.7200   22.1701 O   0  0  0  0  0  0  0  0  0  0  0  0
   10.7712  -16.3539   23.2899 O   0  0  0  0  0  0  0  0  0  0  0  0
  2  1  1  6
  2  4  1  0
  3  2  1  0
  4  5  1  6
  6 10  1  0
  6  4  1  0
  7  6  2  0
  9  8  1  1
  9 10  1  0
  9 11  1  0
 11 13  1  0
 12 11  2  0
 13 14  1  0
 14 15  1  1
 14 19  1  0
 15 16  1  0
 17 18  2  0
 17 16  1  0
 19 22  1  0
 20 19  2  0
 21 17  1  0
M  END
$$$$
