TSC.pdb
     RDKit          3D

 20 19  0  0  1  0  0  0  0  0999 V2000
   22.7037  -11.5449  -14.1461 C   0  0  0  0  0  0  0  0  0  0  0  0
   22.8125  -12.3384  -15.4436 C   0  0  1  0  0  0  0  0  0  0  0  0
   23.4650  -13.5389  -15.2573 O   0  0  0  0  0  0  0  0  0  0  0  0
   21.4628  -12.5006  -16.0979 C   0  0  2  0  0  0  0  0  0  0  0  0
   21.5022  -13.3360  -17.2712 N   0  0  0  0  0  0  0  0  0  0  0  0
   20.9584  -11.1512  -16.4226 C   0  0  0  0  0  0  0  0  0  0  0  0
   21.5043  -10.5047  -17.3409 O   0  0  0  0  0  0  0  0  0  0  0  0
   17.7124   -9.7929  -14.5662 O   0  0  0  0  0  0  0  0  0  0  0  0
   17.9564   -9.1842  -15.7933 C   0  0  0  0  0  0  0  0  0  0  0  0
   19.4712   -9.2457  -16.0031 C   0  0  2  0  0  0  0  0  0  0  0  0
   19.8746  -10.5876  -15.7127 N   0  0  0  0  0  0  0  0  0  0  0  0
   20.0819   -8.2571  -15.0655 C   0  0  0  0  0  0  0  0  0  0  0  0
   20.4695   -8.6237  -13.9280 O   0  0  0  0  0  0  0  0  0  0  0  0
   20.2546   -6.8848  -15.3970 N   0  0  0  0  0  0  0  0  0  0  0  0
   20.8485   -5.9469  -14.4643 C   0  0  1  0  0  0  0  0  0  0  0  0
   22.2962   -5.6535  -14.8789 C   0  0  0  0  0  0  0  0  0  0  0  0
   22.8958   -4.3668  -13.7333 S   0  0  0  0  0  0  0  0  0  0  0  0
   20.1471   -4.6326  -14.4958 C   0  0  0  0  0  0  0  0  0  0  0  0
   19.9237   -3.8674  -13.3862 O   0  0  0  0  0  0  0  0  0  0  0  0
   19.7469   -4.2238  -15.6168 O   0  0  0  0  0  0  0  0  0  0  0  0
  2  1  1  1
  2  3  1  0
  4  6  1  0
  4  2  1  0
  4  5  1  6
  6  7  2  0
  6 11  1  0
  9  8  1  0
 10  9  1  1
 10 12  1  0
 11 10  1  0
 12 13  2  0
 12 14  1  0
 14 15  1  0
 15 18  1  0
 15 16  1  6
 17 16  1  0
 18 19  1  0
 20 18  2  0
M  END
$$$$
