TSC.pdb
     RDKit          3D

 20 19  0  0  1  0  0  0  0  0999 V2000
   27.0419  -17.6929  -14.2470 C   0  0  0  0  0  0  0  0  0  0  0  0
   27.4295  -18.5508  -15.4464 C   0  0  1  0  0  0  0  0  0  0  0  0
   28.3255  -17.9039  -16.2714 O   0  0  0  0  0  0  0  0  0  0  0  0
   27.9124  -19.9117  -15.0096 C   0  0  2  0  0  0  0  0  0  0  0  0
   28.4267  -20.7032  -16.0983 N   0  0  0  0  0  0  0  0  0  0  0  0
   26.7849  -20.5934  -14.3430 C   0  0  0  0  0  0  0  0  0  0  0  0
   25.9458  -21.2008  -15.0403 O   0  0  0  0  0  0  0  0  0  0  0  0
   25.7176  -19.7700  -10.5153 O   0  0  0  0  0  0  0  0  0  0  0  0
   25.7217  -21.1280  -10.8188 C   0  0  0  0  0  0  0  0  0  0  0  0
   25.5265  -21.2242  -12.3336 C   0  0  2  0  0  0  0  0  0  0  0  0
   26.6451  -20.5669  -12.9372 N   0  0  0  0  0  0  0  0  0  0  0  0
   24.2346  -20.5463  -12.6509 C   0  0  0  0  0  0  0  0  0  0  0  0
   24.2155  -19.3177  -12.9132 O   0  0  0  0  0  0  0  0  0  0  0  0
   22.9889  -21.2324  -12.6737 N   0  0  0  0  0  0  0  0  0  0  0  0
   21.7985  -20.6270  -13.2381 C   0  0  1  0  0  0  0  0  0  0  0  0
   21.9521  -20.5077  -14.7599 C   0  0  0  0  0  0  0  0  0  0  0  0
   20.4199  -19.7195  -15.3591 S   0  0  0  0  0  0  0  0  0  0  0  0
   20.5990  -21.4842  -13.0212 C   0  0  0  0  0  0  0  0  0  0  0  0
   19.3717  -20.9942  -12.6745 O   0  0  0  0  0  0  0  0  0  0  0  0
   20.7470  -22.7249  -13.1710 O   0  0  0  0  0  0  0  0  0  0  0  0
  2  1  1  1
  2  3  1  0
  4  6  1  0
  4  2  1  0
  4  5  1  6
  6  7  2  0
  6 11  1  0
  9  8  1  0
 10  9  1  1
 10 12  1  0
 11 10  1  0
 12 13  2  0
 12 14  1  0
 14 15  1  0
 15 18  1  0
 15 16  1  6
 17 16  1  0
 18 19  1  0
 20 18  2  0
M  END
$$$$
