TSC.pdb
     RDKit          3D

 20 19  0  0  1  0  0  0  0  0999 V2000
   16.9411  -11.3375  -18.4253 C   0  0  0  0  0  0  0  0  0  0  0  0
   17.6955  -10.4096  -17.4793 C   0  0  1  0  0  0  0  0  0  0  0  0
   16.8815   -9.4149  -16.9795 O   0  0  0  0  0  0  0  0  0  0  0  0
   18.3992  -11.1899  -16.3967 C   0  0  2  0  0  0  0  0  0  0  0  0
   17.4898  -11.8847  -15.5212 N   0  0  0  0  0  0  0  0  0  0  0  0
   19.2455  -10.2440  -15.6420 C   0  0  0  0  0  0  0  0  0  0  0  0
   18.7997   -9.7366  -14.5918 O   0  0  0  0  0  0  0  0  0  0  0  0
   22.8109   -9.2551  -17.1088 O   0  0  0  0  0  0  0  0  0  0  0  0
   22.8039   -9.2735  -15.7175 C   0  0  0  0  0  0  0  0  0  0  0  0
   21.3518   -9.0341  -15.2978 C   0  0  2  0  0  0  0  0  0  0  0  0
   20.5428   -9.9089  -16.0903 N   0  0  0  0  0  0  0  0  0  0  0  0
   21.0530   -7.5952  -15.5617 C   0  0  0  0  0  0  0  0  0  0  0  0
   20.2483   -7.2755  -16.4720 O   0  0  0  0  0  0  0  0  0  0  0  0
   21.6448   -6.5360  -14.8195 N   0  0  0  0  0  0  0  0  0  0  0  0
   21.3637   -5.1464  -15.1228 C   0  0  1  0  0  0  0  0  0  0  0  0
   19.9047   -4.8265  -14.7723 C   0  0  0  0  0  0  0  0  0  0  0  0
   19.7237   -3.0225  -14.9740 S   0  0  0  0  0  0  0  0  0  0  0  0
   22.1884   -4.2306  -14.2851 C   0  0  0  0  0  0  0  0  0  0  0  0
   22.6751   -3.0331  -14.7275 O   0  0  0  0  0  0  0  0  0  0  0  0
   22.4383   -4.6003  -13.1083 O   0  0  0  0  0  0  0  0  0  0  0  0
  2  1  1  1
  2  3  1  0
  4  6  1  0
  4  2  1  0
  4  5  1  1
  6  7  2  0
  6 11  1  0
  9  8  1  0
 10  9  1  6
 10 12  1  0
 11 10  1  0
 12 13  2  0
 12 14  1  0
 14 15  1  0
 15 18  1  0
 15 16  1  1
 17 16  1  0
 18 19  1  0
 20 18  2  0
M  END
$$$$
