TSC.pdb
     RDKit          3D

 20 19  0  0  1  0  0  0  0  0999 V2000
   16.1767   -8.8904  -14.9676 C   0  0  0  0  0  0  0  0  0  0  0  0
   16.6397  -10.2350  -15.5176 C   0  0  1  0  0  0  0  0  0  0  0  0
   15.6850  -11.2154  -15.3462 O   0  0  0  0  0  0  0  0  0  0  0  0
   17.0996  -10.1091  -16.9490 C   0  0  2  0  0  0  0  0  0  0  0  0
   17.3885  -11.3807  -17.5619 N   0  0  0  0  0  0  0  0  0  0  0  0
   18.2866   -9.2308  -16.9615 C   0  0  0  0  0  0  0  0  0  0  0  0
   19.4033   -9.7169  -16.6858 O   0  0  0  0  0  0  0  0  0  0  0  0
   20.2814   -5.2545  -18.5078 O   0  0  0  0  0  0  0  0  0  0  0  0
   19.0772   -5.9313  -18.3406 C   0  0  0  0  0  0  0  0  0  0  0  0
   19.3592   -7.0577  -17.3436 C   0  0  2  0  0  0  0  0  0  0  0  0
   18.1750   -7.8586  -17.2789 N   0  0  0  0  0  0  0  0  0  0  0  0
   19.6767   -6.4127  -16.0350 C   0  0  0  0  0  0  0  0  0  0  0  0
   18.7560   -5.9236  -15.3338 O   0  0  0  0  0  0  0  0  0  0  0  0
   21.0002   -6.3181  -15.5229 N   0  0  0  0  0  0  0  0  0  0  0  0
   21.2822   -5.6563  -14.2641 C   0  0  1  0  0  0  0  0  0  0  0  0
   22.4580   -6.3529  -13.5668 C   0  0  0  0  0  0  0  0  0  0  0  0
   21.8229   -7.9674  -13.0035 S   0  0  0  0  0  0  0  0  0  0  0  0
   21.7189   -4.2477  -14.4776 C   0  0  0  0  0  0  0  0  0  0  0  0
   21.7910   -3.3183  -13.4788 O   0  0  0  0  0  0  0  0  0  0  0  0
   22.0340   -3.9173  -15.6504 O   0  0  0  0  0  0  0  0  0  0  0  0
  2  1  1  6
  2  3  1  0
  4  6  1  0
  4  2  1  0
  4  5  1  1
  6  7  2  0
  6 11  1  0
  9  8  1  0
 10  9  1  6
 10 12  1  0
 11 10  1  0
 12 13  2  0
 12 14  1  0
 14 15  1  0
 15 18  1  0
 15 16  1  6
 17 16  1  0
 18 19  1  0
 20 18  2  0
M  END
$$$$
