TSC.pdb
     RDKit          3D

 20 19  0  0  1  0  0  0  0  0999 V2000
   12.7347   -7.9423   -9.2477 C   0  0  0  0  0  0  0  0  0  0  0  0
   13.9073   -7.0423   -8.8740 C   0  0  1  0  0  0  0  0  0  0  0  0
   14.0790   -6.9647   -7.5078 O   0  0  0  0  0  0  0  0  0  0  0  0
   15.1639   -7.4550   -9.5998 C   0  0  2  0  0  0  0  0  0  0  0  0
   15.6768   -8.7275   -9.1595 N   0  0  0  0  0  0  0  0  0  0  0  0
   16.1627   -6.3842   -9.4086 C   0  0  0  0  0  0  0  0  0  0  0  0
   16.9426   -6.4493   -8.4356 O   0  0  0  0  0  0  0  0  0  0  0  0
   16.6684   -3.8591  -12.2982 O   0  0  0  0  0  0  0  0  0  0  0  0
   17.7471   -3.8262  -11.4198 C   0  0  0  0  0  0  0  0  0  0  0  0
   17.1977   -4.2568  -10.0578 C   0  0  2  0  0  0  0  0  0  0  0  0
   16.2457   -5.2959  -10.3058 N   0  0  0  0  0  0  0  0  0  0  0  0
   16.5697   -3.0514   -9.4398 C   0  0  0  0  0  0  0  0  0  0  0  0
   15.3808   -2.7504   -9.7129 O   0  0  0  0  0  0  0  0  0  0  0  0
   17.2610   -2.2006   -8.5337 N   0  0  0  0  0  0  0  0  0  0  0  0
   16.7108   -0.9248   -8.1194 C   0  0  1  0  0  0  0  0  0  0  0  0
   16.2392   -1.0148   -6.6623 C   0  0  0  0  0  0  0  0  0  0  0  0
   15.6446    0.6528   -6.2229 S   0  0  0  0  0  0  0  0  0  0  0  0
   17.7470    0.1459   -8.1411 C   0  0  0  0  0  0  0  0  0  0  0  0
   17.4559    1.4796   -8.1951 O   0  0  0  0  0  0  0  0  0  0  0  0
   18.9504   -0.2211   -8.1071 O   0  0  0  0  0  0  0  0  0  0  0  0
  2  1  1  1
  2  3  1  0
  4  6  1  0
  4  2  1  0
  4  5  1  1
  6  7  2  0
  6 11  1  0
  9  8  1  0
 10  9  1  6
 10 12  1  0
 11 10  1  0
 12 13  2  0
 12 14  1  0
 14 15  1  0
 15 18  1  0
 15 16  1  1
 17 16  1  0
 18 19  1  0
 20 18  2  0
M  END
$$$$
