TSC.pdb
     RDKit          3D

 20 19  0  0  1  0  0  0  0  0999 V2000
   16.9106   -9.1951  -17.7405 C   0  0  0  0  0  0  0  0  0  0  0  0
   16.3556  -10.0999  -16.6458 C   0  0  1  0  0  0  0  0  0  0  0  0
   15.2086  -10.7499  -17.0504 O   0  0  0  0  0  0  0  0  0  0  0  0
   17.4136  -11.0442  -16.1310 C   0  0  2  0  0  0  0  0  0  0  0  0
   16.8989  -12.0101  -15.1938 N   0  0  0  0  0  0  0  0  0  0  0  0
   18.4823  -10.2282  -15.5206 C   0  0  0  0  0  0  0  0  0  0  0  0
   18.2511   -9.6296  -14.4494 O   0  0  0  0  0  0  0  0  0  0  0  0
   23.1301   -9.2686  -15.3451 O   0  0  0  0  0  0  0  0  0  0  0  0
   22.1168   -9.8628  -16.0909 C   0  0  0  0  0  0  0  0  0  0  0  0
   20.8016   -9.4328  -15.4370 C   0  0  2  0  0  0  0  0  0  0  0  0
   19.7527  -10.1176  -16.1289 N   0  0  0  0  0  0  0  0  0  0  0  0
   20.7036   -7.9506  -15.5876 C   0  0  0  0  0  0  0  0  0  0  0  0
   20.3862   -7.4495  -16.6951 O   0  0  0  0  0  0  0  0  0  0  0  0
   20.9564   -7.0484  -14.5175 N   0  0  0  0  0  0  0  0  0  0  0  0
   20.8745   -5.6123  -14.6993 C   0  0  1  0  0  0  0  0  0  0  0  0
   20.0367   -4.9963  -13.5713 C   0  0  0  0  0  0  0  0  0  0  0  0
   20.0206   -3.1988  -13.8818 S   0  0  0  0  0  0  0  0  0  0  0  0
   22.2175   -4.9749  -14.5967 C   0  0  0  0  0  0  0  0  0  0  0  0
   22.5884   -3.8723  -15.3131 O   0  0  0  0  0  0  0  0  0  0  0  0
   23.0399   -5.4972  -13.8001 O   0  0  0  0  0  0  0  0  0  0  0  0
  2  1  1  6
  2  3  1  0
  4  6  1  0
  4  2  1  0
  4  5  1  1
  6  7  2  0
  6 11  1  0
  9  8  1  0
 10  9  1  6
 10 12  1  0
 11 10  1  0
 12 13  2  0
 12 14  1  0
 14 15  1  0
 15 18  1  0
 15 16  1  1
 17 16  1  0
 18 19  1  0
 20 18  2  0
M  END
$$$$
