TSC.pdb
     RDKit          3D

 20 19  0  0  1  0  0  0  0  0999 V2000
   19.2651  -13.7780  -17.2056 C   0  0  0  0  0  0  0  0  0  0  0  0
   18.8144  -12.3239  -17.2913 C   0  0  1  0  0  0  0  0  0  0  0  0
   17.4634  -12.2202  -17.5484 O   0  0  0  0  0  0  0  0  0  0  0  0
   19.2393  -11.5487  -16.0687 C   0  0  2  0  0  0  0  0  0  0  0  0
   18.4948  -11.9063  -14.8880 N   0  0  0  0  0  0  0  0  0  0  0  0
   19.0906  -10.1121  -16.3763 C   0  0  0  0  0  0  0  0  0  0  0  0
   19.7142   -9.6320  -17.3458 O   0  0  0  0  0  0  0  0  0  0  0  0
   16.3654   -7.9386  -14.4710 O   0  0  0  0  0  0  0  0  0  0  0  0
   16.8337   -7.3779  -15.6552 C   0  0  0  0  0  0  0  0  0  0  0  0
   18.2749   -7.8675  -15.8149 C   0  0  2  0  0  0  0  0  0  0  0  0
   18.2582   -9.2812  -15.5934 N   0  0  0  0  0  0  0  0  0  0  0  0
   19.0959   -7.1463  -14.7976 C   0  0  0  0  0  0  0  0  0  0  0  0
   19.2983   -7.6625  -13.6702 O   0  0  0  0  0  0  0  0  0  0  0  0
   19.6784   -5.8714  -15.0396 N   0  0  0  0  0  0  0  0  0  0  0  0
   20.5807   -5.2552  -14.0867 C   0  0  1  0  0  0  0  0  0  0  0  0
   21.9144   -6.0134  -14.0739 C   0  0  0  0  0  0  0  0  0  0  0  0
   22.9841   -5.1281  -12.8909 S   0  0  0  0  0  0  0  0  0  0  0  0
   20.9163   -3.8583  -14.4822 C   0  0  0  0  0  0  0  0  0  0  0  0
   21.2579   -2.8809  -13.5909 O   0  0  0  0  0  0  0  0  0  0  0  0
   20.8766   -3.5856  -15.7102 O   0  0  0  0  0  0  0  0  0  0  0  0
  2  1  1  1
  2  3  1  0
  4  6  1  0
  4  2  1  0
  4  5  1  1
  6  7  2  0
  6 11  1  0
  9  8  1  0
 10  9  1  1
 10 12  1  0
 11 10  1  0
 12 13  2  0
 12 14  1  0
 14 15  1  0
 15 18  1  0
 15 16  1  6
 17 16  1  0
 18 19  1  0
 20 18  2  0
M  END
$$$$
