TSC.pdb
     RDKit          3D

 20 19  0  0  1  0  0  0  0  0999 V2000
   39.5090  -13.2331  -15.8196 C   0  0  0  0  0  0  0  0  0  0  0  0
   38.3560  -12.2957  -16.1612 C   0  0  1  0  0  0  0  0  0  0  0  0
   38.2852  -11.2305  -15.2880 O   0  0  0  0  0  0  0  0  0  0  0  0
   38.4129  -11.8659  -17.6062 C   0  0  2  0  0  0  0  0  0  0  0  0
   39.5541  -11.0379  -17.9032 N   0  0  0  0  0  0  0  0  0  0  0  0
   37.1513  -11.1626  -17.9134 C   0  0  0  0  0  0  0  0  0  0  0  0
   37.1550   -9.9162  -17.9894 O   0  0  0  0  0  0  0  0  0  0  0  0
   32.5324  -11.4905  -19.0802 O   0  0  0  0  0  0  0  0  0  0  0  0
   33.6727  -12.2031  -18.7227 C   0  0  0  0  0  0  0  0  0  0  0  0
   34.7581  -11.1584  -18.4533 C   0  0  2  0  0  0  0  0  0  0  0  0
   35.9501  -11.8770  -18.1207 N   0  0  0  0  0  0  0  0  0  0  0  0
   34.2763  -10.3102  -17.3230 C   0  0  0  0  0  0  0  0  0  0  0  0
   34.3690  -10.7242  -16.1404 O   0  0  0  0  0  0  0  0  0  0  0  0
   33.7018   -9.0232  -17.5150 N   0  0  0  0  0  0  0  0  0  0  0  0
   33.2418   -8.2223  -16.3975 C   0  0  1  0  0  0  0  0  0  0  0  0
   34.4317   -7.4919  -15.7615 C   0  0  0  0  0  0  0  0  0  0  0  0
   35.0844   -8.6152  -14.4810 S   0  0  0  0  0  0  0  0  0  0  0  0
   32.3063   -7.1523  -16.8455 C   0  0  0  0  0  0  0  0  0  0  0  0
   31.6317   -6.3296  -15.9884 O   0  0  0  0  0  0  0  0  0  0  0  0
   32.1435   -7.0165  -18.0860 O   0  0  0  0  0  0  0  0  0  0  0  0
  2  1  1  1
  2  3  1  0
  4  6  1  0
  4  2  1  0
  4  5  1  1
  6  7  2  0
  6 11  1  0
  9  8  1  0
 10  9  1  1
 10 12  1  0
 11 10  1  0
 12 13  2  0
 12 14  1  0
 14 15  1  0
 15 18  1  0
 15 16  1  6
 17 16  1  0
 18 19  1  0
 20 18  2  0
M  END
$$$$
