TSC.pdb
     RDKit          3D

 20 19  0  0  1  0  0  0  0  0999 V2000
   16.7207   -9.5518  -19.7594 C   0  0  0  0  0  0  0  0  0  0  0  0
   17.8213   -9.2206  -18.7574 C   0  0  1  0  0  0  0  0  0  0  0  0
   17.4236   -9.4650  -17.4597 O   0  0  0  0  0  0  0  0  0  0  0  0
   19.1115   -9.9157  -19.1156 C   0  0  2  0  0  0  0  0  0  0  0  0
   19.0211  -11.3511  -19.0285 N   0  0  0  0  0  0  0  0  0  0  0  0
   20.1638   -9.3938  -18.2206 C   0  0  0  0  0  0  0  0  0  0  0  0
   20.4598  -10.0380  -17.1927 O   0  0  0  0  0  0  0  0  0  0  0  0
   23.6762   -6.2810  -17.4899 O   0  0  0  0  0  0  0  0  0  0  0  0
   22.6665   -6.6760  -18.3621 C   0  0  0  0  0  0  0  0  0  0  0  0
   21.8190   -7.6942  -17.5958 C   0  0  2  0  0  0  0  0  0  0  0  0
   20.8341   -8.1844  -18.5110 N   0  0  0  0  0  0  0  0  0  0  0  0
   21.2069   -6.9717  -16.4414 C   0  0  0  0  0  0  0  0  0  0  0  0
   20.1547   -6.3042  -16.6020 O   0  0  0  0  0  0  0  0  0  0  0  0
   21.7638   -6.9972  -15.1329 N   0  0  0  0  0  0  0  0  0  0  0  0
   21.1509   -6.2794  -14.0323 C   0  0  1  0  0  0  0  0  0  0  0  0
   21.3339   -7.0736  -12.7325 C   0  0  0  0  0  0  0  0  0  0  0  0
   20.2695   -8.5466  -12.8898 S   0  0  0  0  0  0  0  0  0  0  0  0
   21.8201   -4.9684  -13.7999 C   0  0  0  0  0  0  0  0  0  0  0  0
   21.3581   -4.0281  -12.9230 O   0  0  0  0  0  0  0  0  0  0  0  0
   22.8670   -4.7351  -14.4582 O   0  0  0  0  0  0  0  0  0  0  0  0
  2  1  1  6
  2  3  1  0
  4  6  1  0
  4  2  1  0
  4  5  1  1
  6  7  2  0
  6 11  1  0
  9  8  1  0
 10  9  1  6
 10 12  1  0
 11 10  1  0
 12 13  2  0
 12 14  1  0
 14 15  1  0
 15 18  1  0
 15 16  1  1
 17 16  1  0
 18 19  1  0
 20 18  2  0
M  END
$$$$
