TSC.pdb
     RDKit          3D

 20 19  0  0  1  0  0  0  0  0999 V2000
   18.5617  -10.4344  -18.3378 C   0  0  0  0  0  0  0  0  0  0  0  0
   17.8364  -11.4318  -17.4410 C   0  0  1  0  0  0  0  0  0  0  0  0
   17.4774  -12.5724  -18.1281 O   0  0  0  0  0  0  0  0  0  0  0  0
   18.6349  -11.7253  -16.1950 C   0  0  2  0  0  0  0  0  0  0  0  0
   18.0649  -12.7802  -15.3961 N   0  0  0  0  0  0  0  0  0  0  0  0
   18.7373  -10.4702  -15.4238 C   0  0  0  0  0  0  0  0  0  0  0  0
   17.7360  -10.0568  -14.8027 O   0  0  0  0  0  0  0  0  0  0  0  0
   21.3495   -6.9988  -13.5729 O   0  0  0  0  0  0  0  0  0  0  0  0
   21.3797   -8.2108  -14.2557 C   0  0  0  0  0  0  0  0  0  0  0  0
   19.9561   -8.4451  -14.7662 C   0  0  2  0  0  0  0  0  0  0  0  0
   19.9446   -9.7375  -15.3805 N   0  0  0  0  0  0  0  0  0  0  0  0
   19.6570   -7.3541  -15.7407 C   0  0  0  0  0  0  0  0  0  0  0  0
   20.0985   -7.4198  -16.9152 O   0  0  0  0  0  0  0  0  0  0  0  0
   18.8785   -6.2121  -15.4048 N   0  0  0  0  0  0  0  0  0  0  0  0
   18.5996   -5.1710  -16.3745 C   0  0  1  0  0  0  0  0  0  0  0  0
   17.0835   -5.0408  -16.5703 C   0  0  0  0  0  0  0  0  0  0  0  0
   16.8486   -3.7256  -17.8124 S   0  0  0  0  0  0  0  0  0  0  0  0
   19.0578   -3.8392  -15.8876 C   0  0  0  0  0  0  0  0  0  0  0  0
   19.4649   -2.8305  -16.7143 O   0  0  0  0  0  0  0  0  0  0  0  0
   19.0619   -3.6549  -14.6427 O   0  0  0  0  0  0  0  0  0  0  0  0
  2  1  1  6
  2  3  1  0
  4  6  1  0
  4  2  1  0
  4  5  1  1
  6  7  2  0
  6 11  1  0
  9  8  1  0
 10  9  1  6
 10 12  1  0
 11 10  1  0
 12 13  2  0
 12 14  1  0
 14 15  1  0
 15 18  1  0
 15 16  1  1
 17 16  1  0
 18 19  1  0
 20 18  2  0
M  END
$$$$
