EMD.pdb
     RDKit          3D

 26 25  0  0  1  0  0  0  0  0999 V2000
   20.7056  -11.2256  -18.4369 N   0  0  0  0  0  0  0  0  0  0  0  0
   19.8101  -10.5993  -17.4821 C   0  0  1  0  0  0  0  0  0  0  0  0
   19.0242  -11.6116  -16.7173 C   0  0  0  0  0  0  0  0  0  0  0  0
   19.7818  -12.8138  -16.2850 C   0  0  0  0  0  0  0  0  0  0  0  0
   18.9751  -13.8012  -15.5493 C   0  0  0  0  0  0  0  0  0  0  0  0
   19.4552  -14.9030  -15.2542 O   0  0  0  0  0  0  0  0  0  0  0  0
   20.6262   -9.7670  -16.5612 C   0  0  0  0  0  0  0  0  0  0  0  0
   20.0742   -9.1590  -15.6379 O   0  0  0  0  0  0  0  0  0  0  0  0
   17.6591  -13.5314  -15.1649 O   0  0  0  0  0  0  0  0  0  0  0  0
   27.0034  -12.4800  -15.1359 C   0  0  0  0  0  0  0  0  0  0  0  0
   26.5187  -10.8089  -15.5971 S   0  0  0  0  0  0  0  0  0  0  0  0
   24.7190  -10.5877  -15.5814 C   0  0  0  0  0  0  0  0  0  0  0  0
   24.3403   -9.1609  -15.9416 C   0  0  0  0  0  0  0  0  0  0  0  0
   22.8804   -8.9055  -15.8164 C   0  0  2  0  0  0  0  0  0  0  0  0
   22.0332   -9.6292  -16.6861 N   0  0  0  0  0  0  0  0  0  0  0  0
   22.6469   -7.4511  -15.9938 C   0  0  0  0  0  0  0  0  0  0  0  0
   22.8427   -6.8900  -17.1220 O   0  0  0  0  0  0  0  0  0  0  0  0
   22.1997   -6.6459  -14.9138 N   0  0  0  0  0  0  0  0  0  0  0  0
   21.9827   -5.1881  -15.1250 C   0  0  1  0  0  0  0  0  0  0  0  0
   20.5131   -4.9522  -15.3571 C   0  0  0  0  0  0  0  0  0  0  0  0
   20.0840   -3.5632  -15.3827 C   0  0  0  0  0  0  0  0  0  0  0  0
   20.9023   -2.6234  -15.3448 O   0  0  0  0  0  0  0  0  0  0  0  0
   22.3529   -4.5529  -13.8245 C   0  0  0  0  0  0  0  0  0  0  0  0
   22.7903   -5.2803  -12.7226 O   0  0  0  0  0  0  0  0  0  0  0  0
   18.6993   -3.3267  -15.4526 O   0  0  0  0  0  0  0  0  0  0  0  0
   22.2769   -3.3244  -13.6924 O   0  0  0  0  0  0  0  0  0  0  0  0
  2  3  1  0
  2  1  1  6
  4  3  1  0
  5  6  2  0
  5  4  1  0
  7  8  2  0
  7  2  1  0
  9  5  1  0
 10 11  1  0
 11 12  1  0
 14 13  1  6
 13 12  1  0
 14 15  1  0
 15  7  1  0
 16 14  1  0
 17 16  2  0
 18 16  1  0
 19 20  1  1
 19 18  1  0
 21 25  1  0
 21 20  1  0
 22 21  2  0
 23 19  1  0
 24 23  1  0
 26 23  2  0
M  END
$$$$
