EMD.pdb
     RDKit          3D

 26 25  0  0  1  0  0  0  0  0999 V2000
   21.1505  -11.8129  -18.6531 N   0  0  0  0  0  0  0  0  0  0  0  0
   21.5994  -10.4454  -18.8384 C   0  0  1  0  0  0  0  0  0  0  0  0
   20.4828   -9.5516  -19.2646 C   0  0  0  0  0  0  0  0  0  0  0  0
   19.9241   -9.8271  -20.6129 C   0  0  0  0  0  0  0  0  0  0  0  0
   20.8231   -9.4676  -21.7219 C   0  0  0  0  0  0  0  0  0  0  0  0
   20.5442   -8.5211  -22.4687 O   0  0  0  0  0  0  0  0  0  0  0  0
   22.1856   -9.9744  -17.5572 C   0  0  0  0  0  0  0  0  0  0  0  0
   21.4396   -9.6774  -16.6181 O   0  0  0  0  0  0  0  0  0  0  0  0
   22.0044  -10.1731  -21.9650 O   0  0  0  0  0  0  0  0  0  0  0  0
   27.8110  -12.5450  -14.4803 C   0  0  0  0  0  0  0  0  0  0  0  0
   27.6330  -11.6931  -16.0560 S   0  0  0  0  0  0  0  0  0  0  0  0
   25.9124  -11.2332  -16.3966 C   0  0  0  0  0  0  0  0  0  0  0  0
   25.6368   -9.7987  -15.9783 C   0  0  0  0  0  0  0  0  0  0  0  0
   24.2120   -9.4119  -16.1588 C   0  0  2  0  0  0  0  0  0  0  0  0
   23.5834   -9.8444  -17.3487 N   0  0  0  0  0  0  0  0  0  0  0  0
   24.1156   -7.9349  -16.0561 C   0  0  0  0  0  0  0  0  0  0  0  0
   24.8008   -7.1798  -16.8219 O   0  0  0  0  0  0  0  0  0  0  0  0
   23.2590   -7.3232  -15.1039 N   0  0  0  0  0  0  0  0  0  0  0  0
   23.1260   -5.8404  -15.0810 C   0  0  1  0  0  0  0  0  0  0  0  0
   22.6351   -5.3835  -16.4298 C   0  0  0  0  0  0  0  0  0  0  0  0
   22.3095   -3.9713  -16.5478 C   0  0  0  0  0  0  0  0  0  0  0  0
   23.0329   -3.0877  -16.0477 O   0  0  0  0  0  0  0  0  0  0  0  0
   22.0504   -5.5672  -14.0808 C   0  0  0  0  0  0  0  0  0  0  0  0
   21.7163   -4.2851  -13.6576 O   0  0  0  0  0  0  0  0  0  0  0  0
   21.1374   -3.6459  -17.2540 O   0  0  0  0  0  0  0  0  0  0  0  0
   21.4102   -6.5057  -13.5891 O   0  0  0  0  0  0  0  0  0  0  0  0
  2  3  1  0
  2  1  1  1
  4  3  1  0
  5  6  2  0
  5  4  1  0
  7  8  2  0
  7  2  1  0
  9  5  1  0
 10 11  1  0
 11 12  1  0
 14 13  1  6
 13 12  1  0
 14 15  1  0
 15  7  1  0
 16 14  1  0
 17 16  2  0
 18 16  1  0
 19 20  1  6
 19 18  1  0
 21 25  1  0
 21 20  1  0
 22 21  2  0
 23 19  1  0
 24 23  1  0
 26 23  2  0
M  END
$$$$
