EMD.pdb
     RDKit          3D

 26 25  0  0  1  0  0  0  0  0999 V2000
   16.0660  -11.2521  -12.6101 N   0  0  0  0  0  0  0  0  0  0  0  0
   16.8859  -10.4560  -11.7158 C   0  0  1  0  0  0  0  0  0  0  0  0
   18.1325   -9.9822  -12.3859 C   0  0  0  0  0  0  0  0  0  0  0  0
   18.1999  -10.2211  -13.8503 C   0  0  0  0  0  0  0  0  0  0  0  0
   18.1614   -8.9941  -14.6627 C   0  0  0  0  0  0  0  0  0  0  0  0
   17.2141   -8.7845  -15.4308 O   0  0  0  0  0  0  0  0  0  0  0  0
   16.0738   -9.3034  -11.2482 C   0  0  0  0  0  0  0  0  0  0  0  0
   15.2263   -8.8098  -11.9997 O   0  0  0  0  0  0  0  0  0  0  0  0
   19.1787   -8.0386  -14.5949 O   0  0  0  0  0  0  0  0  0  0  0  0
   11.6410   -6.5517   -5.5975 C   0  0  0  0  0  0  0  0  0  0  0  0
   13.1298   -7.4723   -6.0172 S   0  0  0  0  0  0  0  0  0  0  0  0
   13.6691   -7.1646   -7.7209 C   0  0  0  0  0  0  0  0  0  0  0  0
   14.9985   -7.8436   -8.0046 C   0  0  0  0  0  0  0  0  0  0  0  0
   15.4339   -7.6850   -9.4180 C   0  0  2  0  0  0  0  0  0  0  0  0
   16.2209   -8.7266   -9.9597 N   0  0  0  0  0  0  0  0  0  0  0  0
   16.1642   -6.3989   -9.5370 C   0  0  0  0  0  0  0  0  0  0  0  0
   17.4332   -6.3541   -9.4205 O   0  0  0  0  0  0  0  0  0  0  0  0
   15.4707   -5.1852   -9.7836 N   0  0  0  0  0  0  0  0  0  0  0  0
   16.2409   -3.9480  -10.0886 C   0  0  1  0  0  0  0  0  0  0  0  0
   17.0141   -4.1681  -11.3625 C   0  0  0  0  0  0  0  0  0  0  0  0
   17.7079   -3.0081  -11.8986 C   0  0  0  0  0  0  0  0  0  0  0  0
   17.6702   -1.9001  -11.3283 O   0  0  0  0  0  0  0  0  0  0  0  0
   15.2036   -2.9056  -10.3518 C   0  0  0  0  0  0  0  0  0  0  0  0
   15.4015   -1.5548  -10.0860 O   0  0  0  0  0  0  0  0  0  0  0  0
   18.4259   -3.1931  -13.0939 O   0  0  0  0  0  0  0  0  0  0  0  0
   14.1080   -3.2298  -10.8281 O   0  0  0  0  0  0  0  0  0  0  0  0
  2  3  1  0
  2  1  1  6
  4  3  1  0
  5  6  2  0
  5  4  1  0
  7  8  2  0
  7  2  1  0
  9  5  1  0
 10 11  1  0
 11 12  1  0
 14 13  1  1
 13 12  1  0
 14 15  1  0
 15  7  1  0
 16 14  1  0
 17 16  2  0
 18 16  1  0
 19 20  1  6
 19 18  1  0
 21 25  1  0
 21 20  1  0
 22 21  2  0
 23 19  1  0
 24 23  1  0
 26 23  2  0
M  END
$$$$
