EMD.pdb
     RDKit          3D

 26 25  0  0  1  0  0  0  0  0999 V2000
   29.5695  -12.3383  -17.9839 N   0  0  0  0  0  0  0  0  0  0  0  0
   30.2698  -11.2802  -18.6880 C   0  0  1  0  0  0  0  0  0  0  0  0
   29.3290  -10.4116  -19.4547 C   0  0  0  0  0  0  0  0  0  0  0  0
   28.5664  -11.0923  -20.5323 C   0  0  0  0  0  0  0  0  0  0  0  0
   27.5719  -10.2360  -21.1991 C   0  0  0  0  0  0  0  0  0  0  0  0
   27.5415   -9.0204  -20.9690 O   0  0  0  0  0  0  0  0  0  0  0  0
   31.0225  -10.4799  -17.6882 C   0  0  0  0  0  0  0  0  0  0  0  0
   30.4876  -10.1880  -16.6133 O   0  0  0  0  0  0  0  0  0  0  0  0
   26.6420  -10.7594  -22.1012 O   0  0  0  0  0  0  0  0  0  0  0  0
   37.0410  -12.6012  -15.0684 C   0  0  0  0  0  0  0  0  0  0  0  0
   36.6510  -11.1617  -16.0763 S   0  0  0  0  0  0  0  0  0  0  0  0
   34.8744  -10.7988  -16.0956 C   0  0  0  0  0  0  0  0  0  0  0  0
   34.5763   -9.5710  -16.9396 C   0  0  0  0  0  0  0  0  0  0  0  0
   33.1238   -9.2574  -17.0037 C   0  0  2  0  0  0  0  0  0  0  0  0
   32.3489  -10.0233  -17.9041 N   0  0  0  0  0  0  0  0  0  0  0  0
   32.9738   -7.8162  -17.3227 C   0  0  0  0  0  0  0  0  0  0  0  0
   32.7379   -7.4313  -18.5152 O   0  0  0  0  0  0  0  0  0  0  0  0
   33.0888   -6.8281  -16.3101 N   0  0  0  0  0  0  0  0  0  0  0  0
   32.9252   -5.3911  -16.6640 C   0  0  1  0  0  0  0  0  0  0  0  0
   31.4925   -5.1580  -17.0667 C   0  0  0  0  0  0  0  0  0  0  0  0
   31.2046   -3.8793  -17.6962 C   0  0  0  0  0  0  0  0  0  0  0  0
   32.1057   -3.0564  -17.9511 O   0  0  0  0  0  0  0  0  0  0  0  0
   33.1734   -4.6517  -15.3898 C   0  0  0  0  0  0  0  0  0  0  0  0
   33.4323   -5.2894  -14.1811 O   0  0  0  0  0  0  0  0  0  0  0  0
   29.8589   -3.6117  -18.0056 O   0  0  0  0  0  0  0  0  0  0  0  0
   33.1538   -3.4140  -15.3791 O   0  0  0  0  0  0  0  0  0  0  0  0
  2  3  1  0
  2  1  1  1
  4  3  1  0
  5  6  2  0
  5  4  1  0
  7  8  2  0
  7  2  1  0
  9  5  1  0
 10 11  1  0
 11 12  1  0
 14 13  1  6
 13 12  1  0
 14 15  1  0
 15  7  1  0
 16 14  1  0
 17 16  2  0
 18 16  1  0
 19 20  1  1
 19 18  1  0
 21 25  1  0
 21 20  1  0
 22 21  2  0
 23 19  1  0
 24 23  1  0
 26 23  2  0
M  END
$$$$
