EMD.pdb
     RDKit          3D

 26 25  0  0  1  0  0  0  0  0999 V2000
   22.2968  -11.4701  -19.2877 N   0  0  0  0  0  0  0  0  0  0  0  0
   21.5557  -11.9626  -18.1414 C   0  0  1  0  0  0  0  0  0  0  0  0
   21.5402  -13.4543  -18.0945 C   0  0  0  0  0  0  0  0  0  0  0  0
   22.8742  -14.1070  -18.1098 C   0  0  0  0  0  0  0  0  0  0  0  0
   22.8259  -15.5769  -18.0448 C   0  0  0  0  0  0  0  0  0  0  0  0
   23.7641  -16.2100  -17.5444 O   0  0  0  0  0  0  0  0  0  0  0  0
   22.1819  -11.4078  -16.9139 C   0  0  0  0  0  0  0  0  0  0  0  0
   21.6792  -11.6481  -15.8110 O   0  0  0  0  0  0  0  0  0  0  0  0
   21.7347  -16.2962  -18.5390 O   0  0  0  0  0  0  0  0  0  0  0  0
   28.6607  -12.7926  -15.6109 C   0  0  0  0  0  0  0  0  0  0  0  0
   27.8726  -11.1879  -15.8216 S   0  0  0  0  0  0  0  0  0  0  0  0
   26.0670  -11.2877  -15.6878 C   0  0  0  0  0  0  0  0  0  0  0  0
   25.4331   -9.9120  -15.8079 C   0  0  0  0  0  0  0  0  0  0  0  0
   23.9468   -9.9647  -15.8272 C   0  0  2  0  0  0  0  0  0  0  0  0
   23.3493  -10.6010  -16.9389 N   0  0  0  0  0  0  0  0  0  0  0  0
   23.4318   -8.5778  -15.7142 C   0  0  0  0  0  0  0  0  0  0  0  0
   23.7687   -7.8326  -14.7359 O   0  0  0  0  0  0  0  0  0  0  0  0
   22.5514   -8.0436  -16.6911 N   0  0  0  0  0  0  0  0  0  0  0  0
   21.9437   -6.7013  -16.4768 C   0  0  1  0  0  0  0  0  0  0  0  0
   21.8974   -5.9809  -17.7989 C   0  0  0  0  0  0  0  0  0  0  0  0
   21.2428   -4.6826  -17.7978 C   0  0  0  0  0  0  0  0  0  0  0  0
   21.1346   -4.0038  -16.7577 O   0  0  0  0  0  0  0  0  0  0  0  0
   20.5385   -6.9797  -16.0527 C   0  0  0  0  0  0  0  0  0  0  0  0
   19.8115   -6.1260  -15.2299 O   0  0  0  0  0  0  0  0  0  0  0  0
   20.7353   -4.2254  -19.0273 O   0  0  0  0  0  0  0  0  0  0  0  0
   19.9695   -8.0101  -16.4361 O   0  0  0  0  0  0  0  0  0  0  0  0
  2  3  1  0
  2  1  1  6
  4  3  1  0
  5  6  2  0
  5  4  1  0
  7  8  2  0
  7  2  1  0
  9  5  1  0
 10 11  1  0
 11 12  1  0
 14 13  1  6
 13 12  1  0
 14 15  1  0
 15  7  1  0
 16 14  1  0
 17 16  2  0
 18 16  1  0
 19 20  1  6
 19 18  1  0
 21 25  1  0
 21 20  1  0
 22 21  2  0
 23 19  1  0
 24 23  1  0
 26 23  2  0
M  END
$$$$
