GVH.pdb
     RDKit          3D

 22 22  0  0  1  0  0  0  0  0999 V2000
    6.0679  -18.9413   18.9428 N   0  0  0  0  0  0  0  0  0  0  0  0
    5.7802  -17.8664   19.8543 C   0  0  0  0  0  0  0  0  0  0  0  0
    7.0191  -17.0340   20.0709 C   0  0  0  0  0  0  0  0  0  0  0  0
    8.1214  -17.5736   19.9694 O   0  0  0  0  0  0  0  0  0  0  0  0
    7.1051  -13.3098   18.8225 C   0  0  0  0  0  0  0  0  0  0  0  0
    7.4552  -13.2766   20.2875 C   0  0  2  0  0  0  0  0  0  0  0  0
    8.6498  -12.3641   20.4436 C   0  0  0  0  0  0  0  0  0  0  0  0
    7.7494  -14.6686   20.7716 C   0  0  2  0  0  0  0  0  0  0  0  0
    6.8535  -15.6906   20.3763 N   0  0  0  0  0  0  0  0  0  0  0  0
    8.2118  -14.7556   22.1673 C   0  0  0  0  0  0  0  0  0  0  0  0
    7.4459  -14.3604   23.0781 O   0  0  0  0  0  0  0  0  0  0  0  0
    9.4523  -15.2507   22.5670 N   0  0  0  0  0  0  0  0  0  0  0  0
    9.9255  -15.3458   23.9302 C   0  0  1  0  0  0  0  0  0  0  0  0
    9.0460  -16.0472   24.8559 C   0  0  0  0  0  0  0  0  0  0  0  0
    7.9947  -15.1691   25.4047 C   0  0  0  0  0  0  0  0  0  0  0  0
    8.0030  -13.7978   25.6218 C   0  0  0  0  0  0  0  0  0  0  0  0
    6.8446  -13.4012   26.1778 N   0  0  0  0  0  0  0  0  0  0  0  0
    6.0811  -14.4962   26.3264 C   0  0  0  0  0  0  0  0  0  0  0  0
    6.7594  -15.5383   25.8706 N   0  0  0  0  0  0  0  0  0  0  0  0
   11.2538  -15.9478   23.8758 C   0  0  0  0  0  0  0  0  0  0  0  0
   12.0511  -16.0107   24.9913 O   0  0  0  0  0  0  0  0  0  0  0  0
   11.6910  -16.4161   22.8044 O   0  0  0  0  0  0  0  0  0  0  0  0
  2  1  1  0
  3  9  1  0
  3  2  1  0
  4  3  2  0
  6  5  1  6
  6  8  1  0
  7  6  1  0
  8  9  1  1
  8 10  1  0
 10 12  1  0
 10 11  2  0
 12 13  1  0
 13 14  1  1
 14 15  1  0
 15 16  2  0
 17 16  1  0
 18 17  1  0
 19 18  2  0
 19 15  1  0
 20 13  1  0
 20 21  1  0
 22 20  2  0
M  END
$$$$
