GVH.pdb
     RDKit          3D

 22 22  0  0  1  0  0  0  0  0999 V2000
    9.6115  -15.6065   14.5397 N   0  0  0  0  0  0  0  0  0  0  0  0
    8.6239  -15.7639   15.5735 C   0  0  0  0  0  0  0  0  0  0  0  0
    9.2371  -15.4588   16.9173 C   0  0  0  0  0  0  0  0  0  0  0  0
   10.4386  -15.6720   17.0831 O   0  0  0  0  0  0  0  0  0  0  0  0
    7.5023  -12.5281   19.1346 C   0  0  0  0  0  0  0  0  0  0  0  0
    7.6279  -13.7808   19.9623 C   0  0  2  0  0  0  0  0  0  0  0  0
    8.1153  -13.3676   21.3319 C   0  0  0  0  0  0  0  0  0  0  0  0
    8.5778  -14.7366   19.2970 C   0  0  2  0  0  0  0  0  0  0  0  0
    8.4098  -14.9490   17.9077 N   0  0  0  0  0  0  0  0  0  0  0  0
    8.8866  -15.9479   20.0761 C   0  0  0  0  0  0  0  0  0  0  0  0
    8.2745  -17.0078   19.8037 O   0  0  0  0  0  0  0  0  0  0  0  0
    9.8203  -16.0150   21.1092 N   0  0  0  0  0  0  0  0  0  0  0  0
   10.9153  -16.9553   21.1997 C   0  0  1  0  0  0  0  0  0  0  0  0
   11.8392  -16.9581   20.0731 C   0  0  0  0  0  0  0  0  0  0  0  0
   12.8798  -17.9960   20.2042 C   0  0  0  0  0  0  0  0  0  0  0  0
   13.0617  -18.9556   21.1909 C   0  0  0  0  0  0  0  0  0  0  0  0
   14.1656  -19.6827   20.9441 N   0  0  0  0  0  0  0  0  0  0  0  0
   14.7062  -19.2095   19.8093 C   0  0  0  0  0  0  0  0  0  0  0  0
   13.9480  -18.2151   19.3733 N   0  0  0  0  0  0  0  0  0  0  0  0
   11.5955  -16.6922   22.4637 C   0  0  0  0  0  0  0  0  0  0  0  0
   11.2608  -15.6097   23.2383 O   0  0  0  0  0  0  0  0  0  0  0  0
   12.5022  -17.4520   22.8624 O   0  0  0  0  0  0  0  0  0  0  0  0
  2  1  1  0
  3  9  1  0
  3  2  1  0
  4  3  2  0
  6  5  1  6
  6  8  1  0
  7  6  1  0
  8  9  1  6
  8 10  1  0
 10 12  1  0
 10 11  2  0
 12 13  1  0
 13 14  1  6
 14 15  1  0
 15 16  2  0
 17 16  1  0
 18 17  1  0
 19 18  2  0
 19 15  1  0
 20 13  1  0
 20 21  1  0
 22 20  2  0
M  END
$$$$
