GVH.pdb
     RDKit          3D

 22 22  0  0  1  0  0  0  0  0999 V2000
   11.6675  -17.6235   18.4085 N   0  0  0  0  0  0  0  0  0  0  0  0
   10.3404  -17.5761   18.9612 C   0  0  0  0  0  0  0  0  0  0  0  0
   10.2504  -16.4685   19.9810 C   0  0  0  0  0  0  0  0  0  0  0  0
   11.2853  -16.0695   20.5162 O   0  0  0  0  0  0  0  0  0  0  0  0
    7.4963  -13.4905   19.5562 C   0  0  0  0  0  0  0  0  0  0  0  0
    7.2851  -14.2371   20.8478 C   0  0  2  0  0  0  0  0  0  0  0  0
    6.9280  -13.2163   21.9036 C   0  0  0  0  0  0  0  0  0  0  0  0
    8.5313  -14.9971   21.2054 C   0  0  2  0  0  0  0  0  0  0  0  0
    8.9955  -15.9503   20.2676 N   0  0  0  0  0  0  0  0  0  0  0  0
    8.6176  -15.4203   22.6135 C   0  0  0  0  0  0  0  0  0  0  0  0
    8.3874  -16.6207   22.8936 O   0  0  0  0  0  0  0  0  0  0  0  0
    8.9405  -14.5821   23.6797 N   0  0  0  0  0  0  0  0  0  0  0  0
    9.1682  -15.0002   25.0452 C   0  0  1  0  0  0  0  0  0  0  0  0
    9.6133  -13.9563   25.9588 C   0  0  0  0  0  0  0  0  0  0  0  0
    9.7908  -14.4549   27.3361 C   0  0  0  0  0  0  0  0  0  0  0  0
    9.5380  -15.7122   27.8680 C   0  0  0  0  0  0  0  0  0  0  0  0
    9.8043  -15.7293   29.1859 N   0  0  0  0  0  0  0  0  0  0  0  0
   10.2273  -14.4992   29.5206 C   0  0  0  0  0  0  0  0  0  0  0  0
   10.2192  -13.7481   28.4299 N   0  0  0  0  0  0  0  0  0  0  0  0
    7.9385  -15.6391   25.5027 C   0  0  0  0  0  0  0  0  0  0  0  0
    7.9722  -16.7765   26.2702 O   0  0  0  0  0  0  0  0  0  0  0  0
    6.8270  -15.1593   25.1981 O   0  0  0  0  0  0  0  0  0  0  0  0
  2  1  1  0
  3  9  1  0
  3  2  1  0
  4  3  2  0
  6  5  1  6
  6  8  1  0
  7  6  1  0
  8  9  1  6
  8 10  1  0
 10 12  1  0
 10 11  2  0
 12 13  1  0
 13 14  1  1
 14 15  1  0
 15 16  2  0
 17 16  1  0
 18 17  1  0
 19 18  2  0
 19 15  1  0
 20 13  1  0
 20 21  1  0
 22 20  2  0
M  END
$$$$
