GVH.pdb
     RDKit          3D

 22 22  0  0  1  0  0  0  0  0999 V2000
   -4.4602  -23.6085   21.8181 N   0  0  0  0  0  0  0  0  0  0  0  0
   -4.8709  -22.6586   22.8170 C   0  0  0  0  0  0  0  0  0  0  0  0
   -4.4568  -23.1427   24.1841 C   0  0  0  0  0  0  0  0  0  0  0  0
   -3.8758  -24.2244   24.2794 O   0  0  0  0  0  0  0  0  0  0  0  0
   -2.5698  -21.0720   26.7791 C   0  0  0  0  0  0  0  0  0  0  0  0
   -3.9086  -21.3653   27.4049 C   0  0  2  0  0  0  0  0  0  0  0  0
   -3.6609  -21.7086   28.8558 C   0  0  0  0  0  0  0  0  0  0  0  0
   -4.5766  -22.4938   26.6708 C   0  0  2  0  0  0  0  0  0  0  0  0
   -4.7537  -22.3385   25.2751 N   0  0  0  0  0  0  0  0  0  0  0  0
   -5.7167  -23.1042   27.3759 C   0  0  0  0  0  0  0  0  0  0  0  0
   -6.7860  -22.4549   27.4608 O   0  0  0  0  0  0  0  0  0  0  0  0
   -5.7054  -24.3669   27.9666 N   0  0  0  0  0  0  0  0  0  0  0  0
   -6.8134  -24.9864   28.6594 C   0  0  1  0  0  0  0  0  0  0  0  0
   -7.2330  -26.2834   28.1455 C   0  0  0  0  0  0  0  0  0  0  0  0
   -8.3863  -26.8327   28.8841 C   0  0  0  0  0  0  0  0  0  0  0  0
   -8.4432  -27.4111   30.1450 C   0  0  0  0  0  0  0  0  0  0  0  0
   -9.6952  -27.8154   30.4225 N   0  0  0  0  0  0  0  0  0  0  0  0
  -10.4557  -27.5084   29.3588 C   0  0  0  0  0  0  0  0  0  0  0  0
   -9.6838  -26.9291   28.4519 N   0  0  0  0  0  0  0  0  0  0  0  0
   -6.4475  -25.0500   30.0707 C   0  0  0  0  0  0  0  0  0  0  0  0
   -7.4005  -24.9737   31.0555 O   0  0  0  0  0  0  0  0  0  0  0  0
   -5.2517  -25.1726   30.4077 O   0  0  0  0  0  0  0  0  0  0  0  0
  2  1  1  0
  3  9  1  0
  3  2  1  0
  4  3  2  0
  6  5  1  6
  6  8  1  0
  7  6  1  0
  8  9  1  6
  8 10  1  0
 10 12  1  0
 10 11  2  0
 12 13  1  0
 13 14  1  6
 14 15  1  0
 15 16  2  0
 17 16  1  0
 18 17  1  0
 19 18  2  0
 19 15  1  0
 20 13  1  0
 20 21  1  0
 22 20  2  0
M  END
$$$$
