GVH.pdb
     RDKit          3D

 22 22  0  0  1  0  0  0  0  0999 V2000
    8.2815  -17.3397   15.9544 N   0  0  0  0  0  0  0  0  0  0  0  0
    7.5914  -17.2009   17.2088 C   0  0  0  0  0  0  0  0  0  0  0  0
    8.4454  -16.4235   18.1790 C   0  0  0  0  0  0  0  0  0  0  0  0
    9.6705  -16.4788   18.0669 O   0  0  0  0  0  0  0  0  0  0  0  0
    7.1879  -12.8925   19.6793 C   0  0  0  0  0  0  0  0  0  0  0  0
    7.4320  -13.8558   20.8118 C   0  0  2  0  0  0  0  0  0  0  0  0
    8.1372  -13.0910   21.9082 C   0  0  0  0  0  0  0  0  0  0  0  0
    8.2531  -15.0163   20.3242 C   0  0  2  0  0  0  0  0  0  0  0  0
    7.8024  -15.6786   19.1573 N   0  0  0  0  0  0  0  0  0  0  0  0
    8.7629  -15.9043   21.3830 C   0  0  0  0  0  0  0  0  0  0  0  0
    7.9755  -16.7295   21.9036 O   0  0  0  0  0  0  0  0  0  0  0  0
   10.0721  -15.9037   21.8622 N   0  0  0  0  0  0  0  0  0  0  0  0
   10.6026  -16.7906   22.8738 C   0  0  1  0  0  0  0  0  0  0  0  0
   12.0167  -17.1177   22.7473 C   0  0  0  0  0  0  0  0  0  0  0  0
   12.2863  -18.0057   21.6001 C   0  0  0  0  0  0  0  0  0  0  0  0
   11.5533  -19.0797   21.1133 C   0  0  0  0  0  0  0  0  0  0  0  0
   12.1801  -19.6423   20.0651 N   0  0  0  0  0  0  0  0  0  0  0  0
   13.3127  -18.9494   19.8622 C   0  0  0  0  0  0  0  0  0  0  0  0
   13.3751  -17.9847   20.7673 N   0  0  0  0  0  0  0  0  0  0  0  0
   10.2942  -16.1897   24.1674 C   0  0  0  0  0  0  0  0  0  0  0  0
   10.0785  -14.8397   24.2899 O   0  0  0  0  0  0  0  0  0  0  0  0
   10.2243  -16.8991   25.1922 O   0  0  0  0  0  0  0  0  0  0  0  0
  2  1  1  0
  3  9  1  0
  3  2  1  0
  4  3  2  0
  6  5  1  6
  6  8  1  0
  7  6  1  0
  8  9  1  6
  8 10  1  0
 10 12  1  0
 10 11  2  0
 12 13  1  0
 13 14  1  6
 14 15  1  0
 15 16  2  0
 17 16  1  0
 18 17  1  0
 19 18  2  0
 19 15  1  0
 20 13  1  0
 20 21  1  0
 22 20  2  0
M  END
$$$$
