GVH.pdb
     RDKit          3D

 22 22  0  0  1  0  0  0  0  0999 V2000
   10.8555  -17.1398   17.1307 N   0  0  0  0  0  0  0  0  0  0  0  0
    9.6719  -17.2588   17.9394 C   0  0  0  0  0  0  0  0  0  0  0  0
    9.8153  -16.4173   19.1828 C   0  0  0  0  0  0  0  0  0  0  0  0
   10.9072  -16.3800   19.7510 O   0  0  0  0  0  0  0  0  0  0  0  0
    7.4220  -13.0875   19.5370 C   0  0  0  0  0  0  0  0  0  0  0  0
    7.2728  -14.0022   20.7249 C   0  0  2  0  0  0  0  0  0  0  0  0
    7.1952  -13.1300   21.9568 C   0  0  0  0  0  0  0  0  0  0  0  0
    8.4368  -14.9508   20.7855 C   0  0  2  0  0  0  0  0  0  0  0  0
    8.7004  -15.7214   19.6277 N   0  0  0  0  0  0  0  0  0  0  0  0
    8.5802  -15.6769   22.0590 C   0  0  0  0  0  0  0  0  0  0  0  0
    8.0218  -16.7932   22.1784 O   0  0  0  0  0  0  0  0  0  0  0  0
    9.2988  -15.2180   23.1619 N   0  0  0  0  0  0  0  0  0  0  0  0
    9.4962  -15.9367   24.4012 C   0  0  1  0  0  0  0  0  0  0  0  0
   10.3628  -15.2874   25.3759 C   0  0  0  0  0  0  0  0  0  0  0  0
   10.4303  -16.0305   26.6489 C   0  0  0  0  0  0  0  0  0  0  0  0
    9.4179  -16.6329   27.3836 C   0  0  0  0  0  0  0  0  0  0  0  0
    9.9112  -17.1734   28.5118 N   0  0  0  0  0  0  0  0  0  0  0  0
   11.2323  -16.9310   28.5225 C   0  0  0  0  0  0  0  0  0  0  0  0
   11.5380  -16.2571   27.4242 N   0  0  0  0  0  0  0  0  0  0  0  0
    8.1708  -16.2123   24.9462 C   0  0  0  0  0  0  0  0  0  0  0  0
    7.8923  -17.4040   25.5676 O   0  0  0  0  0  0  0  0  0  0  0  0
    7.2608  -15.3629   24.8523 O   0  0  0  0  0  0  0  0  0  0  0  0
  2  1  1  0
  3  9  1  0
  3  2  1  0
  4  3  2  0
  6  5  1  6
  6  8  1  0
  7  6  1  0
  8  9  1  6
  8 10  1  0
 10 12  1  0
 10 11  2  0
 12 13  1  0
 13 14  1  1
 14 15  1  0
 15 16  2  0
 17 16  1  0
 18 17  1  0
 19 18  2  0
 19 15  1  0
 20 13  1  0
 20 21  1  0
 22 20  2  0
M  END
$$$$
