GVH.pdb
     RDKit          3D

 22 22  0  0  1  0  0  0  0  0999 V2000
    9.0081  -17.4962   16.3752 N   0  0  0  0  0  0  0  0  0  0  0  0
    8.0790  -17.1847   17.4281 C   0  0  0  0  0  0  0  0  0  0  0  0
    8.7894  -16.4474   18.5356 C   0  0  0  0  0  0  0  0  0  0  0  0
   10.0159  -16.5287   18.6107 O   0  0  0  0  0  0  0  0  0  0  0  0
    7.1148  -12.9816   19.9016 C   0  0  0  0  0  0  0  0  0  0  0  0
    7.3501  -13.9392   21.0407 C   0  0  2  0  0  0  0  0  0  0  0  0
    7.8811  -13.1328   22.2034 C   0  0  0  0  0  0  0  0  0  0  0  0
    8.3174  -15.0078   20.6151 C   0  0  2  0  0  0  0  0  0  0  0  0
    8.0189  -15.7082   19.4217 N   0  0  0  0  0  0  0  0  0  0  0  0
    8.8405  -15.8432   21.7095 C   0  0  0  0  0  0  0  0  0  0  0  0
    8.1321  -16.7867   22.1344 O   0  0  0  0  0  0  0  0  0  0  0  0
   10.0803  -15.6693   22.3227 N   0  0  0  0  0  0  0  0  0  0  0  0
   10.6280  -16.4988   23.3732 C   0  0  1  0  0  0  0  0  0  0  0  0
   12.0748  -16.6693   23.3528 C   0  0  0  0  0  0  0  0  0  0  0  0
   12.5154  -17.5932   22.2900 C   0  0  0  0  0  0  0  0  0  0  0  0
   11.7894  -18.5290   21.5655 C   0  0  0  0  0  0  0  0  0  0  0  0
   12.5916  -19.1923   20.7143 N   0  0  0  0  0  0  0  0  0  0  0  0
   13.8315  -18.7016   20.8745 C   0  0  0  0  0  0  0  0  0  0  0  0
   13.7864  -17.7589   21.8035 N   0  0  0  0  0  0  0  0  0  0  0  0
   10.1611  -15.9420   24.6387 C   0  0  0  0  0  0  0  0  0  0  0  0
   10.3585  -16.6071   25.8230 O   0  0  0  0  0  0  0  0  0  0  0  0
    9.5669  -14.8444   24.6643 O   0  0  0  0  0  0  0  0  0  0  0  0
  2  1  1  0
  3  9  1  0
  3  2  1  0
  4  3  2  0
  6  5  1  6
  6  8  1  0
  7  6  1  0
  8  9  1  6
  8 10  1  0
 10 12  1  0
 10 11  2  0
 12 13  1  0
 13 14  1  1
 14 15  1  0
 15 16  2  0
 17 16  1  0
 18 17  1  0
 19 18  2  0
 19 15  1  0
 20 13  1  0
 20 21  1  0
 22 20  2  0
M  END
$$$$
