GVH.pdb
     RDKit          3D

 22 22  0  0  1  0  0  0  0  0999 V2000
    7.3031  -19.2778   19.1542 N   0  0  0  0  0  0  0  0  0  0  0  0
    6.6782  -18.1207   19.7370 C   0  0  0  0  0  0  0  0  0  0  0  0
    7.7253  -17.0881   20.0719 C   0  0  0  0  0  0  0  0  0  0  0  0
    8.9085  -17.4287   20.0936 O   0  0  0  0  0  0  0  0  0  0  0  0
    7.3990  -13.4648   18.6522 C   0  0  0  0  0  0  0  0  0  0  0  0
    7.5076  -13.3220   20.1482 C   0  0  2  0  0  0  0  0  0  0  0  0
    8.4786  -12.1970   20.4229 C   0  0  0  0  0  0  0  0  0  0  0  0
    7.9711  -14.6186   20.7503 C   0  0  2  0  0  0  0  0  0  0  0  0
    7.2993  -15.7953   20.3409 N   0  0  0  0  0  0  0  0  0  0  0  0
    8.2922  -14.5563   22.1865 C   0  0  0  0  0  0  0  0  0  0  0  0
    7.5441  -13.8886   22.9393 O   0  0  0  0  0  0  0  0  0  0  0  0
    9.3779  -15.1901   22.7890 N   0  0  0  0  0  0  0  0  0  0  0  0
    9.6035  -15.3106   24.2124 C   0  0  1  0  0  0  0  0  0  0  0  0
    8.4673  -15.7808   24.9937 C   0  0  0  0  0  0  0  0  0  0  0  0
    7.5830  -14.6780   25.4169 C   0  0  0  0  0  0  0  0  0  0  0  0
    7.7260  -13.3072   25.2496 C   0  0  0  0  0  0  0  0  0  0  0  0
    6.7020  -12.6524   25.8248 N   0  0  0  0  0  0  0  0  0  0  0  0
    5.8932  -13.5784   26.3654 C   0  0  0  0  0  0  0  0  0  0  0  0
    6.4129  -14.7726   26.1249 N   0  0  0  0  0  0  0  0  0  0  0  0
   10.7755  -16.1630   24.3843 C   0  0  0  0  0  0  0  0  0  0  0  0
   11.4526  -16.2071   25.5774 O   0  0  0  0  0  0  0  0  0  0  0  0
   11.1861  -16.8691   23.4402 O   0  0  0  0  0  0  0  0  0  0  0  0
  2  1  1  0
  3  9  1  0
  3  2  1  0
  4  3  2  0
  6  5  1  6
  6  8  1  0
  7  6  1  0
  8  9  1  1
  8 10  1  0
 10 12  1  0
 10 11  2  0
 12 13  1  0
 13 14  1  1
 14 15  1  0
 15 16  2  0
 17 16  1  0
 18 17  1  0
 19 18  2  0
 19 15  1  0
 20 13  1  0
 20 21  1  0
 22 20  2  0
M  END
$$$$
