GVH.pdb
     RDKit          3D

 22 22  0  0  1  0  0  0  0  0999 V2000
    8.8031  -16.8319   15.5082 N   0  0  0  0  0  0  0  0  0  0  0  0
    7.9306  -16.5932   16.6266 C   0  0  0  0  0  0  0  0  0  0  0  0
    8.7116  -15.9825   17.7633 C   0  0  0  0  0  0  0  0  0  0  0  0
    9.9420  -16.0071   17.7181 O   0  0  0  0  0  0  0  0  0  0  0  0
    7.1935  -12.7679   19.7370 C   0  0  0  0  0  0  0  0  0  0  0  0
    7.4553  -13.8941   20.7031 C   0  0  2  0  0  0  0  0  0  0  0  0
    8.0560  -13.2863   21.9497 C   0  0  0  0  0  0  0  0  0  0  0  0
    8.3768  -14.9004   20.0733 C   0  0  2  0  0  0  0  0  0  0  0  0
    7.9986  -15.4187   18.8116 N   0  0  0  0  0  0  0  0  0  0  0  0
    8.9450  -15.8899   21.0047 C   0  0  0  0  0  0  0  0  0  0  0  0
    8.2270  -16.8512   21.3691 O   0  0  0  0  0  0  0  0  0  0  0  0
   10.2384  -15.8460   21.5233 N   0  0  0  0  0  0  0  0  0  0  0  0
   10.8433  -16.8479   22.3727 C   0  0  1  0  0  0  0  0  0  0  0  0
   12.3000  -16.8549   22.4011 C   0  0  0  0  0  0  0  0  0  0  0  0
   12.8379  -17.8783   23.3179 C   0  0  0  0  0  0  0  0  0  0  0  0
   12.2025  -18.5987   24.3204 C   0  0  0  0  0  0  0  0  0  0  0  0
   13.0759  -19.4069   24.9466 N   0  0  0  0  0  0  0  0  0  0  0  0
   14.2729  -19.2227   24.3657 C   0  0  0  0  0  0  0  0  0  0  0  0
   14.1323  -18.3214   23.4056 N   0  0  0  0  0  0  0  0  0  0  0  0
   10.2715  -16.6751   23.7041 C   0  0  0  0  0  0  0  0  0  0  0  0
    9.9270  -17.7573   24.4750 O   0  0  0  0  0  0  0  0  0  0  0  0
   10.0819  -15.5309   24.1658 O   0  0  0  0  0  0  0  0  0  0  0  0
  2  1  1  0
  3  9  1  0
  3  2  1  0
  4  3  2  0
  6  5  1  6
  6  8  1  0
  7  6  1  0
  8  9  1  6
  8 10  1  0
 10 12  1  0
 10 11  2  0
 12 13  1  0
 13 14  1  1
 14 15  1  0
 15 16  2  0
 17 16  1  0
 18 17  1  0
 19 18  2  0
 19 15  1  0
 20 13  1  0
 20 21  1  0
 22 20  2  0
M  END
$$$$
