WYK.pdb
     RDKit          3D

 36 38  0  0  1  0  0  0  0  0999 V2000
    6.8468  -17.9745   26.0158 N   0  0  0  0  0  0  0  0  0  0  0  0
    7.3275  -16.6787   25.5830 C   0  0  1  0  0  0  0  0  0  0  0  0
    8.6903  -16.4547   26.1689 C   0  0  0  0  0  0  0  0  0  0  0  0
    8.6168  -15.3276   27.1316 C   0  0  0  0  0  0  0  0  0  0  0  0
    9.0540  -15.2720   28.4483 C   0  0  0  0  0  0  0  0  0  0  0  0
    8.7897  -14.0441   28.9536 N   0  0  0  0  0  0  0  0  0  0  0  0
    8.1936  -13.2888   28.0158 C   0  0  0  0  0  0  0  0  0  0  0  0
    7.7338  -11.9919   28.0310 C   0  0  0  0  0  0  0  0  0  0  0  0
    7.1472  -11.4638   26.8878 C   0  0  0  0  0  0  0  0  0  0  0  0
    7.0192  -12.2189   25.7397 C   0  0  0  0  0  0  0  0  0  0  0  0
    7.4885  -13.5127   25.7546 C   0  0  0  0  0  0  0  0  0  0  0  0
    8.0842  -14.0769   26.8872 C   0  0  0  0  0  0  0  0  0  0  0  0
    7.3286  -16.5732   24.1015 C   0  0  0  0  0  0  0  0  0  0  0  0
    6.7151  -17.4552   23.4489 O   0  0  0  0  0  0  0  0  0  0  0  0
    8.0742  -13.1500   15.9809 O   0  0  0  0  0  0  0  0  0  0  0  0
    8.0075  -13.3077   17.3572 C   0  0  0  0  0  0  0  0  0  0  0  0
    8.8257  -12.6248   18.2311 C   0  0  0  0  0  0  0  0  0  0  0  0
    8.7218  -12.8151   19.5917 C   0  0  0  0  0  0  0  0  0  0  0  0
    7.8006  -13.6916   20.1340 C   0  0  0  0  0  0  0  0  0  0  0  0
    7.6835  -13.9006   21.5993 C   0  0  0  0  0  0  0  0  0  0  0  0
    7.8026  -15.3592   21.9680 C   0  0  2  0  0  0  0  0  0  0  0  0
    7.9722  -15.5503   23.3922 N   0  0  0  0  0  0  0  0  0  0  0  0
    9.0180  -15.8904   21.2652 C   0  0  0  0  0  0  0  0  0  0  0  0
    9.1242  -15.7626   20.0020 O   0  0  0  0  0  0  0  0  0  0  0  0
    6.9853  -14.3717   19.2621 C   0  0  0  0  0  0  0  0  0  0  0  0
    7.0861  -14.1832   17.8867 C   0  0  0  0  0  0  0  0  0  0  0  0
   10.0544  -16.5306   21.9592 N   0  0  0  0  0  0  0  0  0  0  0  0
   11.4281  -16.2678   21.6185 C   0  0  1  0  0  0  0  0  0  0  0  0
   11.6170  -14.8634   21.0759 C   0  0  0  0  0  0  0  0  0  0  0  0
   12.1892  -14.8656   19.6807 C   0  0  0  0  0  0  0  0  0  0  0  0
   13.4659  -14.0836   19.6711 C   0  0  0  0  0  0  0  0  0  0  0  0
   14.1131  -14.0292   18.3034 C   0  0  0  0  0  0  0  0  0  0  0  0
   15.3557  -13.3234   18.2984 N   0  0  0  0  0  0  0  0  0  0  0  0
   12.3318  -16.5622   22.7336 C   0  0  0  0  0  0  0  0  0  0  0  0
   11.8308  -16.9176   23.9743 O   0  0  0  0  0  0  0  0  0  0  0  0
   13.5745  -16.4985   22.5887 O   0  0  0  0  0  0  0  0  0  0  0  0
  2  1  1  6
  2  3  1  0
  3  4  1  0
  4  5  2  0
  5  6  1  0
  7  6  1  0
  8  7  2  0
  9  8  1  0
 10 11  1  0
 10  9  2  0
 11 12  2  0
 12  4  1  0
 12  7  1  0
 13 14  2  0
 13  2  1  0
 15 16  1  0
 16 26  2  0
 17 16  1  0
 17 18  2  0
 18 19  1  0
 19 25  2  0
 19 20  1  0
 21 20  1  1
 21 22  1  0
 22 13  1  0
 23 27  1  0
 23 21  1  0
 24 23  2  0
 26 25  1  0
 28 27  1  0
 28 34  1  0
 29 30  1  0
 28 29  1  1
 31 30  1  0
 32 31  1  0
 33 32  1  0
 34 35  1  0
 36 34  2  0
M  END
$$$$
