WYK.pdb
     RDKit          3D

 36 38  0  0  1  0  0  0  0  0999 V2000
    7.7271  -16.8174   20.7735 N   0  0  0  0  0  0  0  0  0  0  0  0
    9.1741  -16.8605   20.7286 C   0  0  1  0  0  0  0  0  0  0  0  0
    9.6519  -15.8380   19.7402 C   0  0  0  0  0  0  0  0  0  0  0  0
    8.8164  -14.6185   19.8732 C   0  0  0  0  0  0  0  0  0  0  0  0
    8.2745  -13.8168   18.8776 C   0  0  0  0  0  0  0  0  0  0  0  0
    7.5755  -12.8082   19.4495 N   0  0  0  0  0  0  0  0  0  0  0  0
    7.6380  -12.9174   20.7871 C   0  0  0  0  0  0  0  0  0  0  0  0
    7.1048  -12.1549   21.8009 C   0  0  0  0  0  0  0  0  0  0  0  0
    7.3412  -12.5159   23.1214 C   0  0  0  0  0  0  0  0  0  0  0  0
    8.1012  -13.6256   23.4307 C   0  0  0  0  0  0  0  0  0  0  0  0
    8.6213  -14.3689   22.3956 C   0  0  0  0  0  0  0  0  0  0  0  0
    8.4038  -14.0349   21.0550 C   0  0  0  0  0  0  0  0  0  0  0  0
    9.7602  -16.6546   22.0777 C   0  0  0  0  0  0  0  0  0  0  0  0
   11.0090  -16.5404   22.1647 O   0  0  0  0  0  0  0  0  0  0  0  0
   10.9778  -14.4668   30.5179 O   0  0  0  0  0  0  0  0  0  0  0  0
   10.3942  -14.7752   29.2981 C   0  0  0  0  0  0  0  0  0  0  0  0
    9.7696  -15.9781   29.0482 C   0  0  0  0  0  0  0  0  0  0  0  0
    9.2038  -16.2387   27.8193 C   0  0  0  0  0  0  0  0  0  0  0  0
    9.2379  -15.3131   26.7932 C   0  0  0  0  0  0  0  0  0  0  0  0
    8.6295  -15.5879   25.4670 C   0  0  0  0  0  0  0  0  0  0  0  0
    9.5912  -16.2991   24.5466 C   0  0  2  0  0  0  0  0  0  0  0  0
    9.0033  -16.5805   23.2546 N   0  0  0  0  0  0  0  0  0  0  0  0
    9.9460  -17.6004   25.2052 C   0  0  0  0  0  0  0  0  0  0  0  0
    9.0388  -18.4693   25.4180 O   0  0  0  0  0  0  0  0  0  0  0  0
    9.8605  -14.1142   27.0433 C   0  0  0  0  0  0  0  0  0  0  0  0
   10.4338  -13.8458   28.2830 C   0  0  0  0  0  0  0  0  0  0  0  0
   11.2582  -17.8976   25.5994 N   0  0  0  0  0  0  0  0  0  0  0  0
   11.5785  -19.1913   26.1431 C   0  0  1  0  0  0  0  0  0  0  0  0
   12.3746  -20.0343   25.1642 C   0  0  0  0  0  0  0  0  0  0  0  0
   12.6838  -21.4038   25.7144 C   0  0  0  0  0  0  0  0  0  0  0  0
   13.5096  -22.1589   24.7197 C   0  0  0  0  0  0  0  0  0  0  0  0
   13.7671  -23.5920   25.1347 C   0  0  0  0  0  0  0  0  0  0  0  0
   14.5940  -24.3036   24.2116 N   0  0  0  0  0  0  0  0  0  0  0  0
   12.2321  -19.0864   27.4503 C   0  0  0  0  0  0  0  0  0  0  0  0
   11.9278  -19.9767   28.4659 O   0  0  0  0  0  0  0  0  0  0  0  0
   13.0782  -18.1907   27.6765 O   0  0  0  0  0  0  0  0  0  0  0  0
  2  1  1  1
  2  3  1  0
  3  4  1  0
  4  5  2  0
  5  6  1  0
  7  6  1  0
  8  7  2  0
  9  8  1  0
 10 11  1  0
 10  9  2  0
 11 12  2  0
 12  4  1  0
 12  7  1  0
 13 14  2  0
 13  2  1  0
 15 16  1  0
 16 26  2  0
 17 16  1  0
 17 18  2  0
 18 19  1  0
 19 25  2  0
 19 20  1  0
 21 20  1  1
 21 22  1  0
 22 13  1  0
 23 27  1  0
 23 21  1  0
 24 23  2  0
 26 25  1  0
 28 27  1  0
 28 34  1  0
 29 30  1  0
 28 29  1  6
 31 30  1  0
 32 31  1  0
 33 32  1  0
 34 35  1  0
 36 34  2  0
M  END
$$$$
