WYK.pdb
     RDKit          3D

 36 38  0  0  1  0  0  0  0  0999 V2000
    8.7634  -17.1258   22.7006 N   0  0  0  0  0  0  0  0  0  0  0  0
    9.5448  -15.9074   22.7498 C   0  0  1  0  0  0  0  0  0  0  0  0
    8.6511  -14.7840   23.1858 C   0  0  0  0  0  0  0  0  0  0  0  0
    7.7181  -14.4589   22.0784 C   0  0  0  0  0  0  0  0  0  0  0  0
    6.3575  -14.7167   21.9769 C   0  0  0  0  0  0  0  0  0  0  0  0
    5.9017  -14.2426   20.7935 N   0  0  0  0  0  0  0  0  0  0  0  0
    6.9144  -13.6814   20.1118 C   0  0  0  0  0  0  0  0  0  0  0  0
    6.9703  -13.0692   18.8808 C   0  0  0  0  0  0  0  0  0  0  0  0
    8.1836  -12.5720   18.4218 C   0  0  0  0  0  0  0  0  0  0  0  0
    9.3310  -12.6827   19.1807 C   0  0  0  0  0  0  0  0  0  0  0  0
    9.2441  -13.3000   20.4078 C   0  0  0  0  0  0  0  0  0  0  0  0
    8.0399  -13.8121   20.9013 C   0  0  0  0  0  0  0  0  0  0  0  0
   10.7262  -16.0620   23.6365 C   0  0  0  0  0  0  0  0  0  0  0  0
   11.6332  -15.1946   23.5637 O   0  0  0  0  0  0  0  0  0  0  0  0
    9.1227  -12.9687   29.0766 O   0  0  0  0  0  0  0  0  0  0  0  0
    9.7753  -14.0456   28.4953 C   0  0  0  0  0  0  0  0  0  0  0  0
   10.4716  -13.9498   27.3097 C   0  0  0  0  0  0  0  0  0  0  0  0
   11.1044  -15.0486   26.7710 C   0  0  0  0  0  0  0  0  0  0  0  0
   11.0686  -16.2836   27.3910 C   0  0  0  0  0  0  0  0  0  0  0  0
   11.7489  -17.4713   26.8157 C   0  0  0  0  0  0  0  0  0  0  0  0
   12.0759  -17.2763   25.3553 C   0  0  2  0  0  0  0  0  0  0  0  0
   10.8870  -17.1155   24.5463 N   0  0  0  0  0  0  0  0  0  0  0  0
   12.8015  -18.5093   24.9009 C   0  0  0  0  0  0  0  0  0  0  0  0
   12.2488  -19.6504   25.0263 O   0  0  0  0  0  0  0  0  0  0  0  0
   10.3744  -16.3781   28.5728 C   0  0  0  0  0  0  0  0  0  0  0  0
    9.7333  -15.2712   29.1214 C   0  0  0  0  0  0  0  0  0  0  0  0
   14.0830  -18.4487   24.3354 N   0  0  0  0  0  0  0  0  0  0  0  0
   14.7239  -19.6456   23.8574 C   0  0  1  0  0  0  0  0  0  0  0  0
   15.5260  -19.3914   22.5947 C   0  0  0  0  0  0  0  0  0  0  0  0
   16.2739  -20.6193   22.1399 C   0  0  0  0  0  0  0  0  0  0  0  0
   17.1318  -20.2660   20.9648 C   0  0  0  0  0  0  0  0  0  0  0  0
   17.8585  -21.4612   20.3854 C   0  0  0  0  0  0  0  0  0  0  0  0
   18.6368  -21.1392   19.2310 N   0  0  0  0  0  0  0  0  0  0  0  0
   15.5195  -20.2927   24.9039 C   0  0  0  0  0  0  0  0  0  0  0  0
   16.4105  -19.5597   25.6691 O   0  0  0  0  0  0  0  0  0  0  0  0
   15.4110  -21.5204   25.1282 O   0  0  0  0  0  0  0  0  0  0  0  0
  2  1  1  1
  2  3  1  0
  3  4  1  0
  4  5  2  0
  5  6  1  0
  7  6  1  0
  8  7  2  0
  9  8  1  0
 10 11  1  0
 10  9  2  0
 11 12  2  0
 12  4  1  0
 12  7  1  0
 13 14  2  0
 13  2  1  0
 15 16  1  0
 16 26  2  0
 17 16  1  0
 17 18  2  0
 18 19  1  0
 19 25  2  0
 19 20  1  0
 21 20  1  1
 21 22  1  0
 22 13  1  0
 23 27  1  0
 23 21  1  0
 24 23  2  0
 26 25  1  0
 28 27  1  0
 28 34  1  0
 29 30  1  0
 28 29  1  6
 31 30  1  0
 32 31  1  0
 33 32  1  0
 34 35  1  0
 36 34  2  0
M  END
$$$$
