WYK.pdb
     RDKit          3D

 36 38  0  0  1  0  0  0  0  0999 V2000
    8.2146  -16.4726   21.6171 N   0  0  0  0  0  0  0  0  0  0  0  0
    8.7655  -15.1580   21.8733 C   0  0  1  0  0  0  0  0  0  0  0  0
    7.6379  -14.1697   21.9266 C   0  0  0  0  0  0  0  0  0  0  0  0
    6.8744  -14.3838   23.1812 C   0  0  0  0  0  0  0  0  0  0  0  0
    6.2344  -15.5311   23.6305 C   0  0  0  0  0  0  0  0  0  0  0  0
    5.6637  -15.2807   24.8324 N   0  0  0  0  0  0  0  0  0  0  0  0
    5.9053  -14.0085   25.1906 C   0  0  0  0  0  0  0  0  0  0  0  0
    5.5483  -13.2792   26.3015 C   0  0  0  0  0  0  0  0  0  0  0  0
    5.9483  -11.9527   26.4029 C   0  0  0  0  0  0  0  0  0  0  0  0
    6.6969  -11.3569   25.4083 C   0  0  0  0  0  0  0  0  0  0  0  0
    7.0389  -12.1115   24.3091 C   0  0  0  0  0  0  0  0  0  0  0  0
    6.6535  -13.4491   24.1737 C   0  0  0  0  0  0  0  0  0  0  0  0
    9.5796  -15.1490   23.1155 C   0  0  0  0  0  0  0  0  0  0  0  0
   10.4448  -14.2461   23.2447 O   0  0  0  0  0  0  0  0  0  0  0  0
   12.5348  -16.4215   31.3088 O   0  0  0  0  0  0  0  0  0  0  0  0
   11.7871  -16.2746   30.1500 C   0  0  0  0  0  0  0  0  0  0  0  0
   11.1631  -17.3303   29.5210 C   0  0  0  0  0  0  0  0  0  0  0  0
   10.4304  -17.1346   28.3708 C   0  0  0  0  0  0  0  0  0  0  0  0
   10.2907  -15.8819   27.8031 C   0  0  0  0  0  0  0  0  0  0  0  0
    9.5021  -15.6646   26.5642 C   0  0  0  0  0  0  0  0  0  0  0  0
   10.2704  -16.0762   25.3321 C   0  0  2  0  0  0  0  0  0  0  0  0
    9.4388  -16.0859   24.1479 N   0  0  0  0  0  0  0  0  0  0  0  0
   10.7738  -17.4693   25.5754 C   0  0  0  0  0  0  0  0  0  0  0  0
    9.9487  -18.4383   25.6346 O   0  0  0  0  0  0  0  0  0  0  0  0
   10.9129  -14.8301   28.4310 C   0  0  0  0  0  0  0  0  0  0  0  0
   11.6544  -15.0223   29.5932 C   0  0  0  0  0  0  0  0  0  0  0  0
   12.1382  -17.7454   25.7416 N   0  0  0  0  0  0  0  0  0  0  0  0
   12.6779  -19.0157   25.3326 C   0  0  1  0  0  0  0  0  0  0  0  0
   12.8819  -19.0858   23.8307 C   0  0  0  0  0  0  0  0  0  0  0  0
   13.4724  -20.4042   23.3985 C   0  0  0  0  0  0  0  0  0  0  0  0
   13.6321  -20.4076   21.9098 C   0  0  0  0  0  0  0  0  0  0  0  0
   14.1509  -21.7260   21.3760 C   0  0  0  0  0  0  0  0  0  0  0  0
   14.4763  -21.6793   19.9853 N   0  0  0  0  0  0  0  0  0  0  0  0
   13.8923  -19.3572   26.0780 C   0  0  0  0  0  0  0  0  0  0  0  0
   14.3709  -18.5195   27.0708 O   0  0  0  0  0  0  0  0  0  0  0  0
   14.5222  -20.4120   25.8332 O   0  0  0  0  0  0  0  0  0  0  0  0
  2  1  1  1
  2  3  1  0
  3  4  1  0
  4  5  2  0
  5  6  1  0
  7  6  1  0
  8  7  2  0
  9  8  1  0
 10 11  1  0
 10  9  2  0
 11 12  2  0
 12  4  1  0
 12  7  1  0
 13 14  2  0
 13  2  1  0
 15 16  1  0
 16 26  2  0
 17 16  1  0
 17 18  2  0
 18 19  1  0
 19 25  2  0
 19 20  1  0
 21 20  1  1
 21 22  1  0
 22 13  1  0
 23 27  1  0
 23 21  1  0
 24 23  2  0
 26 25  1  0
 28 27  1  0
 28 34  1  0
 29 30  1  0
 28 29  1  6
 31 30  1  0
 32 31  1  0
 33 32  1  0
 34 35  1  0
 36 34  2  0
M  END
$$$$
