WYK.pdb
     RDKit          3D

 36 38  0  0  1  0  0  0  0  0999 V2000
    8.4120  -17.0586   21.5215 N   0  0  0  0  0  0  0  0  0  0  0  0
    8.6984  -15.6569   21.7466 C   0  0  1  0  0  0  0  0  0  0  0  0
    7.4280  -14.8768   21.5782 C   0  0  0  0  0  0  0  0  0  0  0  0
    7.0919  -14.8178   20.1338 C   0  0  0  0  0  0  0  0  0  0  0  0
    6.2490  -15.6397   19.3977 C   0  0  0  0  0  0  0  0  0  0  0  0
    6.2324  -15.2215   18.1102 N   0  0  0  0  0  0  0  0  0  0  0  0
    7.0348  -14.1528   17.9723 C   0  0  0  0  0  0  0  0  0  0  0  0
    7.3553  -13.3742   16.8839 C   0  0  0  0  0  0  0  0  0  0  0  0
    8.2343  -12.3102   17.0428 C   0  0  0  0  0  0  0  0  0  0  0  0
    8.7894  -12.0231   18.2733 C   0  0  0  0  0  0  0  0  0  0  0  0
    8.4500  -12.8194   19.3434 C   0  0  0  0  0  0  0  0  0  0  0  0
    7.5689  -13.8985   19.2201 C   0  0  0  0  0  0  0  0  0  0  0  0
    9.3171  -15.4420   23.0796 C   0  0  0  0  0  0  0  0  0  0  0  0
   10.2089  -14.5615   23.1786 O   0  0  0  0  0  0  0  0  0  0  0  0
   11.3998  -15.7946   31.6362 O   0  0  0  0  0  0  0  0  0  0  0  0
   10.7644  -15.7064   30.4065 C   0  0  0  0  0  0  0  0  0  0  0  0
   10.6617  -14.5287   29.6980 C   0  0  0  0  0  0  0  0  0  0  0  0
   10.0205  -14.4909   28.4792 C   0  0  0  0  0  0  0  0  0  0  0  0
    9.4574  -15.6225   27.9194 C   0  0  0  0  0  0  0  0  0  0  0  0
    8.7656  -15.5882   26.6062 C   0  0  0  0  0  0  0  0  0  0  0  0
    9.6733  -16.0285   25.4837 C   0  0  2  0  0  0  0  0  0  0  0  0
    8.9648  -16.1619   24.2290 N   0  0  0  0  0  0  0  0  0  0  0  0
   10.2246  -17.3708   25.8676 C   0  0  0  0  0  0  0  0  0  0  0  0
    9.4576  -18.3881   25.8840 O   0  0  0  0  0  0  0  0  0  0  0  0
    9.5605  -16.7961   28.6263 C   0  0  0  0  0  0  0  0  0  0  0  0
   10.2072  -16.8398   29.8581 C   0  0  0  0  0  0  0  0  0  0  0  0
   11.5719  -17.5470   26.2131 N   0  0  0  0  0  0  0  0  0  0  0  0
   12.3076  -18.6800   25.7159 C   0  0  1  0  0  0  0  0  0  0  0  0
   12.2380  -18.7794   24.2034 C   0  0  0  0  0  0  0  0  0  0  0  0
   12.9323  -20.0125   23.6826 C   0  0  0  0  0  0  0  0  0  0  0  0
   12.8628  -20.0218   22.1870 C   0  0  0  0  0  0  0  0  0  0  0  0
   13.5137  -21.2439   21.5746 C   0  0  0  0  0  0  0  0  0  0  0  0
   13.4693  -21.2470   20.1463 N   0  0  0  0  0  0  0  0  0  0  0  0
   13.6855  -18.6961   26.2141 C   0  0  0  0  0  0  0  0  0  0  0  0
   14.4305  -17.5305   26.2693 O   0  0  0  0  0  0  0  0  0  0  0  0
   14.2178  -19.7625   26.5997 O   0  0  0  0  0  0  0  0  0  0  0  0
  2  1  1  1
  2  3  1  0
  3  4  1  0
  4  5  2  0
  5  6  1  0
  7  6  1  0
  8  7  2  0
  9  8  1  0
 10 11  1  0
 10  9  2  0
 11 12  2  0
 12  4  1  0
 12  7  1  0
 13 14  2  0
 13  2  1  0
 15 16  1  0
 16 26  2  0
 17 16  1  0
 17 18  2  0
 18 19  1  0
 19 25  2  0
 19 20  1  0
 21 20  1  1
 21 22  1  0
 22 13  1  0
 23 27  1  0
 23 21  1  0
 24 23  2  0
 26 25  1  0
 28 27  1  0
 28 34  1  0
 29 30  1  0
 28 29  1  6
 31 30  1  0
 32 31  1  0
 33 32  1  0
 34 35  1  0
 36 34  2  0
M  END
$$$$
