WYK.pdb
     RDKit          3D

 36 38  0  0  1  0  0  0  0  0999 V2000
    6.9205  -18.3672   26.1613 N   0  0  0  0  0  0  0  0  0  0  0  0
    7.4799  -17.0744   25.8250 C   0  0  1  0  0  0  0  0  0  0  0  0
    8.8683  -16.9936   26.3878 C   0  0  0  0  0  0  0  0  0  0  0  0
    8.9098  -15.9117   27.4029 C   0  0  0  0  0  0  0  0  0  0  0  0
    9.4302  -15.9394   28.6899 C   0  0  0  0  0  0  0  0  0  0  0  0
    9.2580  -14.7263   29.2658 N   0  0  0  0  0  0  0  0  0  0  0  0
    8.6423  -13.9004   28.4033 C   0  0  0  0  0  0  0  0  0  0  0  0
    8.2480  -12.5861   28.5063 C   0  0  0  0  0  0  0  0  0  0  0  0
    7.6179  -11.9775   27.4281 C   0  0  0  0  0  0  0  0  0  0  0  0
    7.3821  -12.6700   26.2578 C   0  0  0  0  0  0  0  0  0  0  0  0
    7.7878  -13.9832   26.1843 C   0  0  0  0  0  0  0  0  0  0  0  0
    8.4246  -14.6277   27.2498 C   0  0  0  0  0  0  0  0  0  0  0  0
    7.4540  -16.8426   24.3582 C   0  0  0  0  0  0  0  0  0  0  0  0
    7.4443  -17.8485   23.6043 O   0  0  0  0  0  0  0  0  0  0  0  0
    7.6314  -13.1175   16.3395 O   0  0  0  0  0  0  0  0  0  0  0  0
    7.5610  -13.3394   17.7067 C   0  0  0  0  0  0  0  0  0  0  0  0
    6.7552  -14.3056   18.2695 C   0  0  0  0  0  0  0  0  0  0  0  0
    6.7192  -14.4887   19.6345 C   0  0  0  0  0  0  0  0  0  0  0  0
    7.4830  -13.7180   20.4909 C   0  0  0  0  0  0  0  0  0  0  0  0
    7.4489  -13.9109   21.9626 C   0  0  0  0  0  0  0  0  0  0  0  0
    7.4407  -15.3733   22.3355 C   0  0  2  0  0  0  0  0  0  0  0  0
    7.4398  -15.5713   23.7689 N   0  0  0  0  0  0  0  0  0  0  0  0
    8.6933  -15.9763   21.7693 C   0  0  0  0  0  0  0  0  0  0  0  0
    8.6899  -16.4445   20.5844 O   0  0  0  0  0  0  0  0  0  0  0  0
    8.2862  -12.7553   19.9291 C   0  0  0  0  0  0  0  0  0  0  0  0
    8.3263  -12.5661   18.5506 C   0  0  0  0  0  0  0  0  0  0  0  0
    9.8829  -16.0430   22.5083 N   0  0  0  0  0  0  0  0  0  0  0  0
   11.1294  -16.3427   21.8537 C   0  0  1  0  0  0  0  0  0  0  0  0
   11.4928  -15.2913   20.8216 C   0  0  0  0  0  0  0  0  0  0  0  0
   12.7847  -15.6129   20.1136 C   0  0  0  0  0  0  0  0  0  0  0  0
   13.0782  -14.5386   19.1130 C   0  0  0  0  0  0  0  0  0  0  0  0
   14.3671  -14.7760   18.3548 C   0  0  0  0  0  0  0  0  0  0  0  0
   14.7728  -13.6514   17.5719 N   0  0  0  0  0  0  0  0  0  0  0  0
   12.2084  -16.5763   22.8171 C   0  0  0  0  0  0  0  0  0  0  0  0
   12.5807  -15.5895   23.7139 O   0  0  0  0  0  0  0  0  0  0  0  0
   12.8158  -17.6714   22.8498 O   0  0  0  0  0  0  0  0  0  0  0  0
  2  1  1  6
  2  3  1  0
  3  4  1  0
  4  5  2  0
  5  6  1  0
  7  6  1  0
  8  7  2  0
  9  8  1  0
 10 11  1  0
 10  9  2  0
 11 12  2  0
 12  4  1  0
 12  7  1  0
 13 14  2  0
 13  2  1  0
 15 16  1  0
 16 26  2  0
 17 16  1  0
 17 18  2  0
 18 19  1  0
 19 25  2  0
 19 20  1  0
 21 20  1  1
 21 22  1  0
 22 13  1  0
 23 27  1  0
 23 21  1  0
 24 23  2  0
 26 25  1  0
 28 27  1  0
 28 34  1  0
 29 30  1  0
 28 29  1  6
 31 30  1  0
 32 31  1  0
 33 32  1  0
 34 35  1  0
 36 34  2  0
M  END
$$$$
