WYK.pdb
     RDKit          3D

 36 38  0  0  1  0  0  0  0  0999 V2000
    6.8007  -18.9482   26.6031 N   0  0  0  0  0  0  0  0  0  0  0  0
    7.5849  -17.7582   26.3455 C   0  0  1  0  0  0  0  0  0  0  0  0
    9.0030  -18.0222   26.7582 C   0  0  0  0  0  0  0  0  0  0  0  0
    9.3578  -17.0993   27.8651 C   0  0  0  0  0  0  0  0  0  0  0  0
    9.7492  -17.3999   29.1628 C   0  0  0  0  0  0  0  0  0  0  0  0
    9.9797  -16.2482   29.8362 N   0  0  0  0  0  0  0  0  0  0  0  0
    9.7538  -15.1994   29.0275 C   0  0  0  0  0  0  0  0  0  0  0  0
    9.8439  -13.8415   29.2308 C   0  0  0  0  0  0  0  0  0  0  0  0
    9.5419  -12.9751   28.1877 C   0  0  0  0  0  0  0  0  0  0  0  0
    9.1537  -13.4551   26.9534 C   0  0  0  0  0  0  0  0  0  0  0  0
    9.0727  -14.8181   26.7799 C   0  0  0  0  0  0  0  0  0  0  0  0
    9.3691  -15.7195   27.8074 C   0  0  0  0  0  0  0  0  0  0  0  0
    7.4817  -17.3439   24.9229 C   0  0  0  0  0  0  0  0  0  0  0  0
    7.3250  -18.2433   24.0587 O   0  0  0  0  0  0  0  0  0  0  0  0
    7.5113  -12.7534   17.3972 O   0  0  0  0  0  0  0  0  0  0  0  0
    7.5200  -13.0666   18.7483 C   0  0  0  0  0  0  0  0  0  0  0  0
    8.3511  -12.4469   19.6566 C   0  0  0  0  0  0  0  0  0  0  0  0
    8.3234  -12.7925   20.9900 C   0  0  0  0  0  0  0  0  0  0  0  0
    7.4685  -13.7670   21.4700 C   0  0  0  0  0  0  0  0  0  0  0  0
    7.4337  -14.1433   22.9058 C   0  0  0  0  0  0  0  0  0  0  0  0
    7.4914  -15.6397   23.0938 C   0  0  2  0  0  0  0  0  0  0  0  0
    7.5487  -16.0127   24.4907 N   0  0  0  0  0  0  0  0  0  0  0  0
    8.7439  -16.1177   22.4185 C   0  0  0  0  0  0  0  0  0  0  0  0
    8.6729  -16.6703   21.2727 O   0  0  0  0  0  0  0  0  0  0  0  0
    6.6404  -14.3840   20.5639 C   0  0  0  0  0  0  0  0  0  0  0  0
    6.6643  -14.0387   19.2157 C   0  0  0  0  0  0  0  0  0  0  0  0
   10.0061  -15.9752   23.0121 N   0  0  0  0  0  0  0  0  0  0  0  0
   11.1891  -16.4125   22.3184 C   0  0  1  0  0  0  0  0  0  0  0  0
   11.5259  -15.5062   21.1489 C   0  0  0  0  0  0  0  0  0  0  0  0
   11.7003  -16.2770   19.8647 C   0  0  0  0  0  0  0  0  0  0  0  0
   12.0473  -15.3250   18.7625 C   0  0  0  0  0  0  0  0  0  0  0  0
   12.2337  -16.0130   17.4267 C   0  0  0  0  0  0  0  0  0  0  0  0
   12.5612  -15.1080   16.3703 N   0  0  0  0  0  0  0  0  0  0  0  0
   12.3212  -16.5910   23.2311 C   0  0  0  0  0  0  0  0  0  0  0  0
   13.5379  -17.0587   22.7647 O   0  0  0  0  0  0  0  0  0  0  0  0
   12.2128  -16.3250   24.4505 O   0  0  0  0  0  0  0  0  0  0  0  0
  2  1  1  6
  2  3  1  0
  3  4  1  0
  4  5  2  0
  5  6  1  0
  7  6  1  0
  8  7  2  0
  9  8  1  0
 10 11  1  0
 10  9  2  0
 11 12  2  0
 12  4  1  0
 12  7  1  0
 13 14  2  0
 13  2  1  0
 15 16  1  0
 16 26  2  0
 17 16  1  0
 17 18  2  0
 18 19  1  0
 19 25  2  0
 19 20  1  0
 21 20  1  1
 21 22  1  0
 22 13  1  0
 23 27  1  0
 23 21  1  0
 24 23  2  0
 26 25  1  0
 28 27  1  0
 28 34  1  0
 29 30  1  0
 28 29  1  6
 31 30  1  0
 32 31  1  0
 33 32  1  0
 34 35  1  0
 36 34  2  0
M  END
$$$$
