WYK.pdb
     RDKit          3D

 36 38  0  0  1  0  0  0  0  0999 V2000
    6.0136  -17.3491   25.0840 N   0  0  0  0  0  0  0  0  0  0  0  0
    7.1585  -16.7748   24.4082 C   0  0  1  0  0  0  0  0  0  0  0  0
    7.9512  -15.9796   25.4032 C   0  0  0  0  0  0  0  0  0  0  0  0
    7.0533  -14.9880   26.0460 C   0  0  0  0  0  0  0  0  0  0  0  0
    5.8064  -15.1833   26.6247 C   0  0  0  0  0  0  0  0  0  0  0  0
    5.3437  -14.0009   27.0946 N   0  0  0  0  0  0  0  0  0  0  0  0
    6.2421  -13.0335   26.8458 C   0  0  0  0  0  0  0  0  0  0  0  0
    6.2447  -11.6847   27.1181 C   0  0  0  0  0  0  0  0  0  0  0  0
    7.3348  -10.9143   26.7335 C   0  0  0  0  0  0  0  0  0  0  0  0
    8.4129  -11.4804   26.0839 C   0  0  0  0  0  0  0  0  0  0  0  0
    8.3819  -12.8319   25.8252 C   0  0  0  0  0  0  0  0  0  0  0  0
    7.3013  -13.6379   26.1977 C   0  0  0  0  0  0  0  0  0  0  0  0
    7.9761  -17.8249   23.7490 C   0  0  0  0  0  0  0  0  0  0  0  0
    7.5607  -19.0104   23.7980 O   0  0  0  0  0  0  0  0  0  0  0  0
    8.1727  -12.1335   17.5566 O   0  0  0  0  0  0  0  0  0  0  0  0
    8.2012  -12.9746   18.6590 C   0  0  0  0  0  0  0  0  0  0  0  0
    9.3573  -13.2661   19.3505 C   0  0  0  0  0  0  0  0  0  0  0  0
    9.3354  -14.1082   20.4407 C   0  0  0  0  0  0  0  0  0  0  0  0
    8.1633  -14.6917   20.8841 C   0  0  0  0  0  0  0  0  0  0  0  0
    8.1332  -15.5995   22.0586 C   0  0  0  0  0  0  0  0  0  0  0  0
    9.3096  -16.5449   22.0655 C   0  0  2  0  0  0  0  0  0  0  0  0
    9.1797  -17.5707   23.0779 N   0  0  0  0  0  0  0  0  0  0  0  0
   10.5290  -15.7240   22.3691 C   0  0  0  0  0  0  0  0  0  0  0  0
   10.8859  -14.8014   21.5661 O   0  0  0  0  0  0  0  0  0  0  0  0
    7.0114  -14.4004   20.1943 C   0  0  0  0  0  0  0  0  0  0  0  0
    7.0279  -13.5504   19.0922 C   0  0  0  0  0  0  0  0  0  0  0  0
   11.2993  -15.9393   23.5206 N   0  0  0  0  0  0  0  0  0  0  0  0
   12.6361  -16.4622   23.4137 C   0  0  1  0  0  0  0  0  0  0  0  0
   12.6522  -17.9794   23.4273 C   0  0  0  0  0  0  0  0  0  0  0  0
   14.0475  -18.5340   23.2877 C   0  0  0  0  0  0  0  0  0  0  0  0
   13.9919  -20.0287   23.3532 C   0  0  0  0  0  0  0  0  0  0  0  0
   15.3515  -20.6762   23.1969 C   0  0  0  0  0  0  0  0  0  0  0  0
   15.2939  -22.1039   23.1753 N   0  0  0  0  0  0  0  0  0  0  0  0
   13.3479  -15.9062   22.2599 C   0  0  0  0  0  0  0  0  0  0  0  0
   12.8276  -16.0284   20.9828 O   0  0  0  0  0  0  0  0  0  0  0  0
   14.4401  -15.3099   22.4039 O   0  0  0  0  0  0  0  0  0  0  0  0
  2  1  1  1
  2  3  1  0
  3  4  1  0
  4  5  2  0
  5  6  1  0
  7  6  1  0
  8  7  2  0
  9  8  1  0
 10 11  1  0
 10  9  2  0
 11 12  2  0
 12  4  1  0
 12  7  1  0
 13 14  2  0
 13  2  1  0
 15 16  1  0
 16 26  2  0
 17 16  1  0
 17 18  2  0
 18 19  1  0
 19 25  2  0
 19 20  1  0
 21 20  1  1
 21 22  1  0
 22 13  1  0
 23 27  1  0
 23 21  1  0
 24 23  2  0
 26 25  1  0
 28 27  1  0
 28 34  1  0
 29 30  1  0
 28 29  1  6
 31 30  1  0
 32 31  1  0
 33 32  1  0
 34 35  1  0
 36 34  2  0
M  END
$$$$
