SGC.pdb
     RDKit          3D

 17 16  0  0  1  0  0  0  0  0999 V2000
   16.2320  -13.1194  -16.1289 O   0  0  0  0  0  0  0  0  0  0  0  0
   16.6135  -11.9874  -16.8552 C   0  0  0  0  0  0  0  0  0  0  0  0
   18.1337  -12.0004  -17.0311 C   0  0  2  0  0  0  0  0  0  0  0  0
   18.7728  -12.3587  -15.7785 N   0  0  0  0  0  0  0  0  0  0  0  0
   18.6021  -10.6554  -17.4382 C   0  0  0  0  0  0  0  0  0  0  0  0
   18.1116  -10.0640  -18.4375 O   0  0  0  0  0  0  0  0  0  0  0  0
   19.6172  -10.0057  -16.7055 N   0  0  0  0  0  0  0  0  0  0  0  0
   20.1281   -8.6968  -17.0531 C   0  0  0  0  0  0  0  0  0  0  0  0
   20.0441   -7.8231  -15.8819 C   0  0  0  0  0  0  0  0  0  0  0  0
   18.9601   -7.7213  -15.2537 O   0  0  0  0  0  0  0  0  0  0  0  0
   21.1638   -7.0722  -15.4211 N   0  0  0  0  0  0  0  0  0  0  0  0
   21.0553   -6.3574  -14.1851 C   0  0  1  0  0  0  0  0  0  0  0  0
   20.9815   -7.3970  -13.0731 C   0  0  0  0  0  0  0  0  0  0  0  0
   22.3606   -8.5571  -13.2703 S   0  0  0  0  0  0  0  0  0  0  0  0
   22.2308   -5.4561  -13.9563 C   0  0  0  0  0  0  0  0  0  0  0  0
   23.1657   -5.3346  -14.7791 O   0  0  0  0  0  0  0  0  0  0  0  0
   22.2718   -4.7364  -12.7867 O   0  0  0  0  0  0  0  0  0  0  0  0
  2  1  1  0
  3  2  1  0
  3  4  1  1
  5  3  1  0
  6  5  2  0
  7  5  1  0
  8  7  1  0
  9  8  1  0
  9 11  1  0
 10  9  2  0
 12 11  1  0
 12 15  1  0
 12 13  1  1
 14 13  1  0
 15 17  1  0
 16 15  2  0
M  END
$$$$
