SGC.pdb
     RDKit          3D

 17 16  0  0  1  0  0  0  0  0999 V2000
   32.1232   -7.9384  -16.6394 O   0  0  0  0  0  0  0  0  0  0  0  0
   33.3395   -7.7607  -15.9737 C   0  0  0  0  0  0  0  0  0  0  0  0
   34.3267   -7.0736  -16.9199 C   0  0  2  0  0  0  0  0  0  0  0  0
   34.5687   -7.9149  -18.0772 N   0  0  0  0  0  0  0  0  0  0  0  0
   35.6121   -6.8424  -16.2208 C   0  0  0  0  0  0  0  0  0  0  0  0
   36.5192   -7.7175  -16.2082 O   0  0  0  0  0  0  0  0  0  0  0  0
   35.8455   -5.6243  -15.5491 N   0  0  0  0  0  0  0  0  0  0  0  0
   37.0896   -5.3194  -14.8752 C   0  0  0  0  0  0  0  0  0  0  0  0
   37.0990   -5.9749  -13.5667 C   0  0  0  0  0  0  0  0  0  0  0  0
   36.0788   -5.9244  -12.8343 O   0  0  0  0  0  0  0  0  0  0  0  0
   38.2405   -6.6789  -13.0857 N   0  0  0  0  0  0  0  0  0  0  0  0
   38.2238   -7.1914  -11.7488 C   0  0  1  0  0  0  0  0  0  0  0  0
   39.1568   -8.3962  -11.7207 C   0  0  0  0  0  0  0  0  0  0  0  0
   38.6452   -9.5572  -13.0156 S   0  0  0  0  0  0  0  0  0  0  0  0
   38.6872   -6.1707  -10.7538 C   0  0  0  0  0  0  0  0  0  0  0  0
   38.6113   -6.3427   -9.5167 O   0  0  0  0  0  0  0  0  0  0  0  0
   39.2172   -4.9978  -11.2345 O   0  0  0  0  0  0  0  0  0  0  0  0
  2  1  1  0
  3  2  1  0
  3  4  1  6
  5  3  1  0
  6  5  2  0
  7  5  1  0
  8  7  1  0
  9  8  1  0
  9 11  1  0
 10  9  2  0
 12 11  1  0
 12 15  1  0
 12 13  1  6
 14 13  1  0
 15 17  1  0
 16 15  2  0
M  END
$$$$
