SGC.pdb
     RDKit          3D

 17 16  0  0  1  0  0  0  0  0999 V2000
   17.5911  -11.1815  -19.0133 O   0  0  0  0  0  0  0  0  0  0  0  0
   17.3841  -10.9807  -17.6454 C   0  0  0  0  0  0  0  0  0  0  0  0
   18.4224  -11.7881  -16.8630 C   0  0  2  0  0  0  0  0  0  0  0  0
   17.8442  -13.0459  -16.4278 N   0  0  0  0  0  0  0  0  0  0  0  0
   18.8558  -11.0240  -15.6703 C   0  0  0  0  0  0  0  0  0  0  0  0
   18.7049  -11.4830  -14.5061 O   0  0  0  0  0  0  0  0  0  0  0  0
   19.4520   -9.7544  -15.8191 N   0  0  0  0  0  0  0  0  0  0  0  0
   19.8453   -8.9298  -14.6964 C   0  0  0  0  0  0  0  0  0  0  0  0
   20.5504   -7.7477  -15.1939 C   0  0  0  0  0  0  0  0  0  0  0  0
   21.0456   -7.7546  -16.3492 O   0  0  0  0  0  0  0  0  0  0  0  0
   20.6981   -6.5713  -14.4038 N   0  0  0  0  0  0  0  0  0  0  0  0
   21.3848   -5.4456  -14.9619 C   0  0  1  0  0  0  0  0  0  0  0  0
   20.3339   -4.3808  -15.2526 C   0  0  0  0  0  0  0  0  0  0  0  0
   19.3256   -4.1386  -13.7655 S   0  0  0  0  0  0  0  0  0  0  0  0
   22.4132   -4.8960  -14.0202 C   0  0  0  0  0  0  0  0  0  0  0  0
   22.5213   -5.2763  -12.8330 O   0  0  0  0  0  0  0  0  0  0  0  0
   23.2696   -3.9318  -14.4941 O   0  0  0  0  0  0  0  0  0  0  0  0
  2  1  1  0
  3  2  1  0
  3  4  1  1
  5  3  1  0
  6  5  2  0
  7  5  1  0
  8  7  1  0
  9  8  1  0
  9 11  1  0
 10  9  2  0
 12 11  1  0
 12 15  1  0
 12 13  1  1
 14 13  1  0
 15 17  1  0
 16 15  2  0
M  END
$$$$
