SGC.pdb
     RDKit          3D

 17 16  0  0  1  0  0  0  0  0999 V2000
   15.8750  -13.2374  -16.6423 O   0  0  0  0  0  0  0  0  0  0  0  0
   16.3326  -12.0430  -16.0783 C   0  0  0  0  0  0  0  0  0  0  0  0
   17.4807  -12.3569  -15.1163 C   0  0  2  0  0  0  0  0  0  0  0  0
   16.9631  -13.0006  -13.9231 N   0  0  0  0  0  0  0  0  0  0  0  0
   18.1625  -11.1018  -14.7239 C   0  0  0  0  0  0  0  0  0  0  0  0
   19.3641  -10.8824  -15.0354 O   0  0  0  0  0  0  0  0  0  0  0  0
   17.4703  -10.1190  -13.9861 N   0  0  0  0  0  0  0  0  0  0  0  0
   18.0574   -8.8485  -13.6173 C   0  0  0  0  0  0  0  0  0  0  0  0
   17.0778   -8.0703  -12.8577 C   0  0  0  0  0  0  0  0  0  0  0  0
   15.9365   -7.8594  -13.3402 O   0  0  0  0  0  0  0  0  0  0  0  0
   17.3758   -7.5351  -11.5713 N   0  0  0  0  0  0  0  0  0  0  0  0
   16.3725   -6.7735  -10.8903 C   0  0  1  0  0  0  0  0  0  0  0  0
   16.6580   -6.8924   -9.3980 C   0  0  0  0  0  0  0  0  0  0  0  0
   16.5271   -8.6360   -8.9188 S   0  0  0  0  0  0  0  0  0  0  0  0
   16.3962   -5.3306  -11.2954 C   0  0  0  0  0  0  0  0  0  0  0  0
   17.3611   -4.8083  -11.8971 O   0  0  0  0  0  0  0  0  0  0  0  0
   15.3033   -4.5575  -10.9864 O   0  0  0  0  0  0  0  0  0  0  0  0
  2  1  1  0
  3  2  1  0
  3  4  1  1
  5  3  1  0
  6  5  2  0
  7  5  1  0
  8  7  1  0
  9  8  1  0
  9 11  1  0
 10  9  2  0
 12 11  1  0
 12 15  1  0
 12 13  1  1
 14 13  1  0
 15 17  1  0
 16 15  2  0
M  END
$$$$
