SGC.pdb
     RDKit          3D

 17 16  0  0  1  0  0  0  0  0999 V2000
   18.5792  -19.8857  -12.7429 O   0  0  0  0  0  0  0  0  0  0  0  0
   19.5797  -20.8098  -12.4274 C   0  0  0  0  0  0  0  0  0  0  0  0
   20.4804  -21.0018  -13.6496 C   0  0  2  0  0  0  0  0  0  0  0  0
   19.8130  -21.8399  -14.6283 N   0  0  0  0  0  0  0  0  0  0  0  0
   21.7443  -21.6580  -13.2419 C   0  0  0  0  0  0  0  0  0  0  0  0
   21.7666  -22.8585  -12.8581 O   0  0  0  0  0  0  0  0  0  0  0  0
   22.9590  -20.9420  -13.2768 N   0  0  0  0  0  0  0  0  0  0  0  0
   24.2210  -21.5055  -12.8468 C   0  0  0  0  0  0  0  0  0  0  0  0
   25.2907  -20.5420  -13.1105 C   0  0  0  0  0  0  0  0  0  0  0  0
   25.0733  -19.5546  -13.8572 O   0  0  0  0  0  0  0  0  0  0  0  0
   26.5896  -20.6852  -12.5426 N   0  0  0  0  0  0  0  0  0  0  0  0
   27.6470  -19.8433  -13.0150 C   0  0  1  0  0  0  0  0  0  0  0  0
   28.8716  -20.1412  -12.1580 C   0  0  0  0  0  0  0  0  0  0  0  0
   28.5151  -21.5816  -11.1165 S   0  0  0  0  0  0  0  0  0  0  0  0
   27.9648  -20.1020  -14.4567 C   0  0  0  0  0  0  0  0  0  0  0  0
   27.7860  -21.2127  -15.0045 O   0  0  0  0  0  0  0  0  0  0  0  0
   28.4749  -19.0647  -15.1994 O   0  0  0  0  0  0  0  0  0  0  0  0
  2  1  1  0
  3  2  1  0
  3  4  1  6
  5  3  1  0
  6  5  2  0
  7  5  1  0
  8  7  1  0
  9  8  1  0
  9 11  1  0
 10  9  2  0
 12 11  1  0
 12 15  1  0
 12 13  1  1
 14 13  1  0
 15 17  1  0
 16 15  2  0
M  END
$$$$
