SGC.pdb
     RDKit          3D

 17 16  0  0  1  0  0  0  0  0999 V2000
   18.5040  -13.5405  -15.7312 O   0  0  0  0  0  0  0  0  0  0  0  0
   17.8486  -12.3062  -15.7675 C   0  0  0  0  0  0  0  0  0  0  0  0
   18.7742  -11.2722  -16.4125 C   0  0  2  0  0  0  0  0  0  0  0  0
   19.9775  -11.1212  -15.6156 N   0  0  0  0  0  0  0  0  0  0  0  0
   18.0855   -9.9630  -16.4898 C   0  0  0  0  0  0  0  0  0  0  0  0
   17.0090   -9.8242  -17.1307 O   0  0  0  0  0  0  0  0  0  0  0  0
   18.6294   -8.8357  -15.8394 N   0  0  0  0  0  0  0  0  0  0  0  0
   17.9835   -7.5404  -15.8308 C   0  0  0  0  0  0  0  0  0  0  0  0
   18.7009   -6.6532  -14.9142 C   0  0  0  0  0  0  0  0  0  0  0  0
   18.3914   -6.6291  -13.6962 O   0  0  0  0  0  0  0  0  0  0  0  0
   19.7538   -5.8028  -15.3595 N   0  0  0  0  0  0  0  0  0  0  0  0
   20.6345   -5.2268  -14.3885 C   0  0  1  0  0  0  0  0  0  0  0  0
   21.5019   -6.3568  -13.8467 C   0  0  0  0  0  0  0  0  0  0  0  0
   22.6094   -5.6825  -12.5797 S   0  0  0  0  0  0  0  0  0  0  0  0
   21.5058   -4.1637  -14.9862 C   0  0  0  0  0  0  0  0  0  0  0  0
   21.9046   -4.1974  -16.1718 O   0  0  0  0  0  0  0  0  0  0  0  0
   21.8763   -3.1102  -14.1858 O   0  0  0  0  0  0  0  0  0  0  0  0
  2  1  1  0
  3  2  1  0
  3  4  1  1
  5  3  1  0
  6  5  2  0
  7  5  1  0
  8  7  1  0
  9  8  1  0
  9 11  1  0
 10  9  2  0
 12 11  1  0
 12 15  1  0
 12 13  1  6
 14 13  1  0
 15 17  1  0
 16 15  2  0
M  END
$$$$
