SGC.pdb
     RDKit          3D

 17 16  0  0  1  0  0  0  0  0999 V2000
   17.7159  -15.5049  -15.3232 O   0  0  0  0  0  0  0  0  0  0  0  0
   18.8536  -15.0240  -15.9780 C   0  0  0  0  0  0  0  0  0  0  0  0
   18.5031  -13.7105  -16.6808 C   0  0  2  0  0  0  0  0  0  0  0  0
   17.5570  -13.9609  -17.7522 N   0  0  0  0  0  0  0  0  0  0  0  0
   19.7279  -13.1084  -17.2566 C   0  0  0  0  0  0  0  0  0  0  0  0
   20.1285  -13.4134  -18.4122 O   0  0  0  0  0  0  0  0  0  0  0  0
   20.4756  -12.1721  -16.5125 N   0  0  0  0  0  0  0  0  0  0  0  0
   21.6076  -11.4531  -17.0572 C   0  0  0  0  0  0  0  0  0  0  0  0
   22.1271  -10.5366  -16.0411 C   0  0  0  0  0  0  0  0  0  0  0  0
   21.4207  -10.2426  -15.0439 O   0  0  0  0  0  0  0  0  0  0  0  0
   23.4246   -9.9569  -16.1431 N   0  0  0  0  0  0  0  0  0  0  0  0
   23.8520   -9.0370  -15.1324 C   0  0  1  0  0  0  0  0  0  0  0  0
   25.3372   -8.7822  -15.3599 C   0  0  0  0  0  0  0  0  0  0  0  0
   26.2180  -10.3644  -15.2729 S   0  0  0  0  0  0  0  0  0  0  0  0
   23.1010   -7.7418  -15.2028 C   0  0  0  0  0  0  0  0  0  0  0  0
   22.7260   -7.2301  -16.2814 O   0  0  0  0  0  0  0  0  0  0  0  0
   22.8177   -7.0974  -14.0229 O   0  0  0  0  0  0  0  0  0  0  0  0
  2  1  1  0
  3  2  1  0
  3  4  1  6
  5  3  1  0
  6  5  2  0
  7  5  1  0
  8  7  1  0
  9  8  1  0
  9 11  1  0
 10  9  2  0
 12 11  1  0
 12 15  1  0
 12 13  1  6
 14 13  1  0
 15 17  1  0
 16 15  2  0
M  END
$$$$
