DNP.pdb
     RDKit          3D

 24 24  0  0  1  0  0  0  0  0999 V2000
   21.2669  -18.1337  -17.1196 N   0  0  0  0  0  0  0  0  0  0  0  0
   20.7237  -18.1791  -15.7979 C   0  0  1  0  0  0  0  0  0  0  0  0
   19.6539  -19.2209  -15.6214 C   0  0  0  0  0  0  0  0  0  0  0  0
   18.3385  -18.5242  -15.6244 C   0  0  0  0  0  0  0  0  0  0  0  0
   18.0691  -17.6019  -14.8195 O   0  0  0  0  0  0  0  0  0  0  0  0
   21.7801  -18.2502  -14.7513 C   0  0  0  0  0  0  0  0  0  0  0  0
   21.6796  -17.4550  -13.7820 O   0  0  0  0  0  0  0  0  0  0  0  0
   17.3719  -18.9047  -16.5487 O   0  0  0  0  0  0  0  0  0  0  0  0
   24.5651  -19.8763  -11.1365 N   0  0  0  0  0  0  0  0  0  0  0  0
   23.4221  -20.6297  -11.4851 C   0  0  0  0  0  0  0  0  0  0  0  0
   23.0557  -21.6315  -10.7936 O   0  0  0  0  0  0  0  0  0  0  0  0
   22.6511  -20.2163  -12.6940 C   0  0  0  0  0  0  0  0  0  0  0  0
   23.6645  -19.4917  -13.6000 C   0  0  2  0  0  0  0  0  0  0  0  0
   22.8588  -19.1409  -14.7913 N   0  0  0  0  0  0  0  0  0  0  0  0
   24.6665  -20.4977  -13.9992 C   0  0  0  0  0  0  0  0  0  0  0  0
   24.2209  -21.6726  -14.2560 O   0  0  0  0  0  0  0  0  0  0  0  0
   26.0855  -20.2251  -14.1117 N   0  0  0  0  0  0  0  0  0  0  0  0
   26.6679  -19.1752  -13.3302 C   0  0  0  0  0  0  0  0  0  0  0  0
   28.1327  -19.4220  -13.3320 C   0  0  0  0  0  0  0  0  0  0  0  0
   28.3325  -20.0242  -14.7171 C   0  0  0  0  0  0  0  0  0  0  0  0
   27.0630  -20.8758  -14.9022 C   0  0  1  0  0  0  0  0  0  0  0  0
   27.3450  -22.2646  -14.4967 C   0  0  0  0  0  0  0  0  0  0  0  0
   28.0342  -23.1181  -15.3226 O   0  0  0  0  0  0  0  0  0  0  0  0
   26.9518  -22.6724  -13.3882 O   0  0  0  0  0  0  0  0  0  0  0  0
  2  1  1  6
  3  2  1  0
  4  3  1  0
  4  5  2  0
  6  2  1  0
  6  7  2  0
  8  4  1  0
 10 12  1  0
 10  9  1  0
 11 10  2  0
 13 12  1  1
 13 14  1  0
 14  6  1  0
 15 13  1  0
 16 15  2  0
 17 15  1  0
 18 17  1  0
 19 18  1  0
 19 20  1  0
 20 21  1  0
 21 17  1  0
 21 22  1  1
 23 22  1  0
 24 22  2  0
M  END
$$$$
