DNP.pdb
     RDKit          3D

 24 24  0  0  1  0  0  0  0  0999 V2000
   24.3524  -23.2917  -18.6252 N   0  0  0  0  0  0  0  0  0  0  0  0
   24.8489  -21.9907  -18.9496 C   0  0  1  0  0  0  0  0  0  0  0  0
   24.1164  -21.3321  -20.0856 C   0  0  0  0  0  0  0  0  0  0  0  0
   24.3641  -22.1384  -21.3122 C   0  0  0  0  0  0  0  0  0  0  0  0
   25.4976  -22.2196  -21.8408 O   0  0  0  0  0  0  0  0  0  0  0  0
   24.9705  -21.1139  -17.7526 C   0  0  0  0  0  0  0  0  0  0  0  0
   25.9472  -20.3221  -17.7203 O   0  0  0  0  0  0  0  0  0  0  0  0
   23.3064  -22.8270  -21.8958 O   0  0  0  0  0  0  0  0  0  0  0  0
   23.8874  -18.0147  -16.7644 N   0  0  0  0  0  0  0  0  0  0  0  0
   22.7219  -18.4223  -16.0781 C   0  0  0  0  0  0  0  0  0  0  0  0
   21.6597  -17.7246  -16.1090 O   0  0  0  0  0  0  0  0  0  0  0  0
   22.7705  -19.7014  -15.3110 C   0  0  0  0  0  0  0  0  0  0  0  0
   24.2002  -20.2416  -15.5025 C   0  0  2  0  0  0  0  0  0  0  0  0
   24.0694  -21.1265  -16.6820 N   0  0  0  0  0  0  0  0  0  0  0  0
   24.4943  -21.0804  -14.3254 C   0  0  0  0  0  0  0  0  0  0  0  0
   23.6706  -22.0342  -14.0873 O   0  0  0  0  0  0  0  0  0  0  0  0
   25.6365  -20.8812  -13.4557 N   0  0  0  0  0  0  0  0  0  0  0  0
   26.6130  -19.8870  -13.7875 C   0  0  0  0  0  0  0  0  0  0  0  0
   27.3812  -19.6299  -12.5423 C   0  0  0  0  0  0  0  0  0  0  0  0
   27.3683  -21.0083  -11.8935 C   0  0  0  0  0  0  0  0  0  0  0  0
   25.9636  -21.5336  -12.2428 C   0  0  1  0  0  0  0  0  0  0  0  0
   25.0435  -21.2408  -11.1291 C   0  0  0  0  0  0  0  0  0  0  0  0
   25.0753  -21.9779   -9.9710 O   0  0  0  0  0  0  0  0  0  0  0  0
   24.2228  -20.3113  -11.2389 O   0  0  0  0  0  0  0  0  0  0  0  0
  2  1  1  1
  3  2  1  0
  4  3  1  0
  4  5  2  0
  6  2  1  0
  6  7  2  0
  8  4  1  0
 10 12  1  0
 10  9  1  0
 11 10  2  0
 13 12  1  1
 13 14  1  0
 14  6  1  0
 15 13  1  0
 16 15  2  0
 17 15  1  0
 18 17  1  0
 19 18  1  0
 19 20  1  0
 20 21  1  0
 21 17  1  0
 21 22  1  1
 23 22  1  0
 24 22  2  0
M  END
$$$$
