DNP.pdb
     RDKit          3D

 24 24  0  0  1  0  0  0  0  0999 V2000
   19.5284  -25.8510  -13.6550 N   0  0  0  0  0  0  0  0  0  0  0  0
   18.3817  -25.2346  -14.2459 C   0  0  1  0  0  0  0  0  0  0  0  0
   17.0922  -25.5653  -13.5468 C   0  0  0  0  0  0  0  0  0  0  0  0
   17.0285  -27.0443  -13.3901 C   0  0  0  0  0  0  0  0  0  0  0  0
   16.8583  -27.8129  -14.3654 O   0  0  0  0  0  0  0  0  0  0  0  0
   18.5678  -23.7727  -14.4574 C   0  0  0  0  0  0  0  0  0  0  0  0
   17.6029  -23.1396  -14.9576 O   0  0  0  0  0  0  0  0  0  0  0  0
   17.1616  -27.5978  -12.1214 O   0  0  0  0  0  0  0  0  0  0  0  0
   20.1101  -19.0653  -14.4343 N   0  0  0  0  0  0  0  0  0  0  0  0
   20.7408  -19.6500  -13.3137 C   0  0  0  0  0  0  0  0  0  0  0  0
   21.3729  -18.9419  -12.4680 O   0  0  0  0  0  0  0  0  0  0  0  0
   20.6453  -21.1299  -13.1475 C   0  0  0  0  0  0  0  0  0  0  0  0
   19.9358  -21.6410  -14.4156 C   0  0  2  0  0  0  0  0  0  0  0  0
   19.7404  -23.0810  -14.1335 N   0  0  0  0  0  0  0  0  0  0  0  0
   20.9047  -21.5134  -15.5203 C   0  0  0  0  0  0  0  0  0  0  0  0
   22.0883  -21.9511  -15.2913 O   0  0  0  0  0  0  0  0  0  0  0  0
   20.5877  -20.9356  -16.8111 N   0  0  0  0  0  0  0  0  0  0  0  0
   19.2619  -20.4559  -17.0648 C   0  0  0  0  0  0  0  0  0  0  0  0
   19.3637  -19.5656  -18.2495 C   0  0  0  0  0  0  0  0  0  0  0  0
   20.4743  -20.2459  -19.0399 C   0  0  0  0  0  0  0  0  0  0  0  0
   21.4270  -20.7343  -17.9331 C   0  0  1  0  0  0  0  0  0  0  0  0
   22.4871  -19.7312  -17.7257 C   0  0  0  0  0  0  0  0  0  0  0  0
   23.5185  -19.5944  -18.6218 O   0  0  0  0  0  0  0  0  0  0  0  0
   22.4488  -18.9962  -16.7218 O   0  0  0  0  0  0  0  0  0  0  0  0
  2  1  1  1
  3  2  1  0
  4  3  1  0
  4  5  2  0
  6  2  1  0
  6  7  2  0
  8  4  1  0
 10 12  1  0
 10  9  1  0
 11 10  2  0
 13 12  1  1
 13 14  1  0
 14  6  1  0
 15 13  1  0
 16 15  2  0
 17 15  1  0
 18 17  1  0
 19 18  1  0
 19 20  1  0
 20 21  1  0
 21 17  1  0
 21 22  1  1
 23 22  1  0
 24 22  2  0
M  END
$$$$
