DNP.pdb
     RDKit          3D

 24 24  0  0  1  0  0  0  0  0999 V2000
   20.6403  -20.9741  -14.8154 N   0  0  0  0  0  0  0  0  0  0  0  0
   20.7056  -19.5943  -14.4465 C   0  0  1  0  0  0  0  0  0  0  0  0
   20.2763  -19.3281  -13.0302 C   0  0  0  0  0  0  0  0  0  0  0  0
   18.7885  -19.3623  -12.9940 C   0  0  0  0  0  0  0  0  0  0  0  0
   18.0977  -19.4889  -14.0320 O   0  0  0  0  0  0  0  0  0  0  0  0
   22.0196  -18.9785  -14.7792 C   0  0  0  0  0  0  0  0  0  0  0  0
   22.9506  -19.1330  -13.9477 O   0  0  0  0  0  0  0  0  0  0  0  0
   18.1375  -19.2506  -11.7704 O   0  0  0  0  0  0  0  0  0  0  0  0
   23.3306  -20.6868  -17.9740 N   0  0  0  0  0  0  0  0  0  0  0  0
   24.2390  -19.6680  -17.6101 C   0  0  0  0  0  0  0  0  0  0  0  0
   25.4004  -19.9444  -17.1732 O   0  0  0  0  0  0  0  0  0  0  0  0
   23.7969  -18.2499  -17.7525 C   0  0  0  0  0  0  0  0  0  0  0  0
   23.6038  -17.7331  -16.3143 C   0  0  2  0  0  0  0  0  0  0  0  0
   22.2659  -18.2505  -15.9486 N   0  0  0  0  0  0  0  0  0  0  0  0
   23.5228  -16.2630  -16.4028 C   0  0  0  0  0  0  0  0  0  0  0  0
   22.4562  -15.7834  -16.9292 O   0  0  0  0  0  0  0  0  0  0  0  0
   24.5610  -15.3665  -15.9348 N   0  0  0  0  0  0  0  0  0  0  0  0
   25.7495  -15.9072  -15.3456 C   0  0  0  0  0  0  0  0  0  0  0  0
   26.7580  -14.8169  -15.3734 C   0  0  0  0  0  0  0  0  0  0  0  0
   25.8762  -13.5895  -15.1809 C   0  0  0  0  0  0  0  0  0  0  0  0
   24.6115  -13.9526  -15.9807 C   0  0  1  0  0  0  0  0  0  0  0  0
   24.7180  -13.3931  -17.3403 C   0  0  0  0  0  0  0  0  0  0  0  0
   24.4657  -12.0652  -17.5821 O   0  0  0  0  0  0  0  0  0  0  0  0
   25.0407  -14.1354  -18.2861 O   0  0  0  0  0  0  0  0  0  0  0  0
  2  1  1  1
  3  2  1  0
  4  3  1  0
  4  5  2  0
  6  2  1  0
  6  7  2  0
  8  4  1  0
 10 12  1  0
 10  9  1  0
 11 10  2  0
 13 12  1  6
 13 14  1  0
 14  6  1  0
 15 13  1  0
 16 15  2  0
 17 15  1  0
 18 17  1  0
 19 18  1  0
 19 20  1  0
 20 21  1  0
 21 17  1  0
 21 22  1  6
 23 22  1  0
 24 22  2  0
M  END
$$$$
