DNP.pdb
     RDKit          3D

 24 24  0  0  1  0  0  0  0  0999 V2000
   19.1256  -15.7764  -16.3717 N   0  0  0  0  0  0  0  0  0  0  0  0
   18.4699  -14.6136  -15.8596 C   0  0  1  0  0  0  0  0  0  0  0  0
   17.9928  -14.7660  -14.4418 C   0  0  0  0  0  0  0  0  0  0  0  0
   17.0139  -15.8871  -14.4115 C   0  0  0  0  0  0  0  0  0  0  0  0
   16.1383  -16.0336  -15.2963 O   0  0  0  0  0  0  0  0  0  0  0  0
   19.2641  -13.3726  -16.0735 C   0  0  0  0  0  0  0  0  0  0  0  0
   20.4885  -13.4210  -15.7899 O   0  0  0  0  0  0  0  0  0  0  0  0
   17.0676  -16.8060  -13.3693 O   0  0  0  0  0  0  0  0  0  0  0  0
   20.8921   -9.4321  -19.2478 N   0  0  0  0  0  0  0  0  0  0  0  0
   19.6913   -9.2331  -18.5307 C   0  0  0  0  0  0  0  0  0  0  0  0
   19.2996   -8.0671  -18.2099 O   0  0  0  0  0  0  0  0  0  0  0  0
   18.8898  -10.4351  -18.1570 C   0  0  0  0  0  0  0  0  0  0  0  0
   19.5492  -10.9880  -16.8795 C   0  0  2  0  0  0  0  0  0  0  0  0
   18.7264  -12.1778  -16.5652 N   0  0  0  0  0  0  0  0  0  0  0  0
   19.3297   -9.9819  -15.8234 C   0  0  0  0  0  0  0  0  0  0  0  0
   18.1092   -9.7474  -15.5069 O   0  0  0  0  0  0  0  0  0  0  0  0
   20.3979   -9.2714  -15.1491 N   0  0  0  0  0  0  0  0  0  0  0  0
   21.7598   -9.5416  -15.5019 C   0  0  0  0  0  0  0  0  0  0  0  0
   22.5559   -8.3998  -14.9831 C   0  0  0  0  0  0  0  0  0  0  0  0
   21.7799   -8.0434  -13.7215 C   0  0  0  0  0  0  0  0  0  0  0  0
   20.3181   -8.2754  -14.1465 C   0  0  1  0  0  0  0  0  0  0  0  0
   19.7356   -7.0005  -14.6027 C   0  0  0  0  0  0  0  0  0  0  0  0
   19.3217   -6.0484  -13.7039 O   0  0  0  0  0  0  0  0  0  0  0  0
   19.6150   -6.7822  -15.8223 O   0  0  0  0  0  0  0  0  0  0  0  0
  2  1  1  1
  3  2  1  0
  4  3  1  0
  4  5  2  0
  6  2  1  0
  6  7  2  0
  8  4  1  0
 10 12  1  0
 10  9  1  0
 11 10  2  0
 13 12  1  6
 13 14  1  0
 14  6  1  0
 15 13  1  0
 16 15  2  0
 17 15  1  0
 18 17  1  0
 19 18  1  0
 19 20  1  0
 20 21  1  0
 21 17  1  0
 21 22  1  6
 23 22  1  0
 24 22  2  0
M  END
$$$$
