DNP.pdb
     RDKit          3D

 24 24  0  0  1  0  0  0  0  0999 V2000
   14.9493  -12.1306  -15.7580 N   0  0  0  0  0  0  0  0  0  0  0  0
   15.4386  -10.7897  -15.6763 C   0  0  1  0  0  0  0  0  0  0  0  0
   14.9335  -10.0358  -14.4773 C   0  0  0  0  0  0  0  0  0  0  0  0
   13.4511   -9.9535  -14.5857 C   0  0  0  0  0  0  0  0  0  0  0  0
   12.8827   -9.2850  -15.4807 O   0  0  0  0  0  0  0  0  0  0  0  0
   16.9177  -10.7141  -15.8274 C   0  0  0  0  0  0  0  0  0  0  0  0
   17.5112  -11.7654  -16.1805 O   0  0  0  0  0  0  0  0  0  0  0  0
   12.6651  -10.6389  -13.6660 O   0  0  0  0  0  0  0  0  0  0  0  0
   21.5272   -9.4639  -16.8168 N   0  0  0  0  0  0  0  0  0  0  0  0
   20.5701   -9.6343  -17.8418 C   0  0  0  0  0  0  0  0  0  0  0  0
   20.9201   -9.7620  -19.0572 O   0  0  0  0  0  0  0  0  0  0  0  0
   19.1282   -9.6605  -17.4581 C   0  0  0  0  0  0  0  0  0  0  0  0
   19.1043   -9.4393  -15.9339 C   0  0  2  0  0  0  0  0  0  0  0  0
   17.6665   -9.5538  -15.6008 N   0  0  0  0  0  0  0  0  0  0  0  0
   19.5225   -8.0436  -15.7046 C   0  0  0  0  0  0  0  0  0  0  0  0
   18.9972   -7.1598  -16.4714 O   0  0  0  0  0  0  0  0  0  0  0  0
   20.4687   -7.6405  -14.6835 N   0  0  0  0  0  0  0  0  0  0  0  0
   21.1927   -8.6399  -13.9562 C   0  0  0  0  0  0  0  0  0  0  0  0
   22.3444   -7.9422  -13.3290 C   0  0  0  0  0  0  0  0  0  0  0  0
   21.7442   -6.5711  -13.0447 C   0  0  0  0  0  0  0  0  0  0  0  0
   20.8373   -6.3386  -14.2673 C   0  0  1  0  0  0  0  0  0  0  0  0
   21.5756   -5.5639  -15.2809 C   0  0  0  0  0  0  0  0  0  0  0  0
   21.7344   -4.2055  -15.1577 O   0  0  0  0  0  0  0  0  0  0  0  0
   22.0628   -6.1488  -16.2659 O   0  0  0  0  0  0  0  0  0  0  0  0
  2  1  1  1
  3  2  1  0
  4  3  1  0
  4  5  2  0
  6  2  1  0
  6  7  2  0
  8  4  1  0
 10 12  1  0
 10  9  1  0
 11 10  2  0
 13 12  1  6
 13 14  1  0
 14  6  1  0
 15 13  1  0
 16 15  2  0
 17 15  1  0
 18 17  1  0
 19 18  1  0
 19 20  1  0
 20 21  1  0
 21 17  1  0
 21 22  1  6
 23 22  1  0
 24 22  2  0
M  END
$$$$
