DNP.pdb
     RDKit          3D

 24 24  0  0  1  0  0  0  0  0999 V2000
   21.0442  -21.0522  -12.4025 N   0  0  0  0  0  0  0  0  0  0  0  0
   21.5522  -20.6572  -13.6792 C   0  0  1  0  0  0  0  0  0  0  0  0
   20.6280  -19.7477  -14.4405 C   0  0  0  0  0  0  0  0  0  0  0  0
   19.3819  -20.5085  -14.7311 C   0  0  0  0  0  0  0  0  0  0  0  0
   19.3906  -21.7389  -14.9698 O   0  0  0  0  0  0  0  0  0  0  0  0
   22.9441  -20.1349  -13.6003 C   0  0  0  0  0  0  0  0  0  0  0  0
   23.0939  -18.9727  -13.1431 O   0  0  0  0  0  0  0  0  0  0  0  0
   18.1642  -19.8373  -14.7395 O   0  0  0  0  0  0  0  0  0  0  0  0
   25.7012  -21.9351  -11.2799 N   0  0  0  0  0  0  0  0  0  0  0  0
   26.5564  -21.2515  -12.1725 C   0  0  0  0  0  0  0  0  0  0  0  0
   27.4873  -20.4972  -11.7476 O   0  0  0  0  0  0  0  0  0  0  0  0
   26.3371  -21.4388  -13.6367 C   0  0  0  0  0  0  0  0  0  0  0  0
   25.4298  -20.2716  -14.0691 C   0  0  2  0  0  0  0  0  0  0  0  0
   24.0726  -20.8586  -14.0016 N   0  0  0  0  0  0  0  0  0  0  0  0
   25.7446  -19.9956  -15.4835 C   0  0  0  0  0  0  0  0  0  0  0  0
   25.2678  -20.8197  -16.3428 O   0  0  0  0  0  0  0  0  0  0  0  0
   26.5415  -18.8703  -15.9297 N   0  0  0  0  0  0  0  0  0  0  0  0
   27.1330  -17.9949  -14.9624 C   0  0  0  0  0  0  0  0  0  0  0  0
   28.1959  -17.2443  -15.6790 C   0  0  0  0  0  0  0  0  0  0  0  0
   27.5884  -17.1216  -17.0707 C   0  0  0  0  0  0  0  0  0  0  0  0
   26.8721  -18.4732  -17.2476 C   0  0  1  0  0  0  0  0  0  0  0  0
   27.7642  -19.4078  -17.9572 C   0  0  0  0  0  0  0  0  0  0  0  0
   28.4518  -20.3841  -17.2792 O   0  0  0  0  0  0  0  0  0  0  0  0
   27.8987  -19.3110  -19.1909 O   0  0  0  0  0  0  0  0  0  0  0  0
  2  1  1  1
  3  2  1  0
  4  3  1  0
  4  5  2  0
  6  2  1  0
  6  7  2  0
  8  4  1  0
 10 12  1  0
 10  9  1  0
 11 10  2  0
 13 12  1  6
 13 14  1  0
 14  6  1  0
 15 13  1  0
 16 15  2  0
 17 15  1  0
 18 17  1  0
 19 18  1  0
 19 20  1  0
 20 21  1  0
 21 17  1  0
 21 22  1  1
 23 22  1  0
 24 22  2  0
M  END
$$$$
