DNP.pdb
     RDKit          3D

 24 24  0  0  1  0  0  0  0  0999 V2000
   18.3375  -11.3057  -15.0301 N   0  0  0  0  0  0  0  0  0  0  0  0
   17.6522  -11.3911  -16.2820 C   0  0  1  0  0  0  0  0  0  0  0  0
   16.5989  -12.4635  -16.3205 C   0  0  0  0  0  0  0  0  0  0  0  0
   17.2290  -13.7337  -15.8672 C   0  0  0  0  0  0  0  0  0  0  0  0
   18.1842  -14.2625  -16.4827 O   0  0  0  0  0  0  0  0  0  0  0  0
   17.1502  -10.0688  -16.7466 C   0  0  0  0  0  0  0  0  0  0  0  0
   16.5951  -10.0318  -17.8746 O   0  0  0  0  0  0  0  0  0  0  0  0
   16.7460  -14.3594  -14.7233 O   0  0  0  0  0  0  0  0  0  0  0  0
   14.0720   -6.0033  -17.1024 N   0  0  0  0  0  0  0  0  0  0  0  0
   15.0405   -5.9687  -16.0746 C   0  0  0  0  0  0  0  0  0  0  0  0
   15.4358   -4.8678  -15.5769 O   0  0  0  0  0  0  0  0  0  0  0  0
   15.5913   -7.2665  -15.5854 C   0  0  0  0  0  0  0  0  0  0  0  0
   16.7935   -7.5731  -16.4983 C   0  0  2  0  0  0  0  0  0  0  0  0
   17.2629   -8.8874  -16.0049 N   0  0  0  0  0  0  0  0  0  0  0  0
   17.8258   -6.5666  -16.1869 C   0  0  0  0  0  0  0  0  0  0  0  0
   18.2190   -6.5146  -14.9672 O   0  0  0  0  0  0  0  0  0  0  0  0
   18.3973   -5.6647  -17.1669 N   0  0  0  0  0  0  0  0  0  0  0  0
   17.9343   -5.7073  -18.5219 C   0  0  0  0  0  0  0  0  0  0  0  0
   18.3679   -4.4318  -19.1476 C   0  0  0  0  0  0  0  0  0  0  0  0
   19.6857   -4.1781  -18.4263 C   0  0  0  0  0  0  0  0  0  0  0  0
   19.3893   -4.6692  -16.9973 C   0  0  1  0  0  0  0  0  0  0  0  0
   18.9664   -3.5265  -16.1677 C   0  0  0  0  0  0  0  0  0  0  0  0
   17.6863   -3.4412  -15.6783 O   0  0  0  0  0  0  0  0  0  0  0  0
   19.7815   -2.6226  -15.9066 O   0  0  0  0  0  0  0  0  0  0  0  0
  2  1  1  1
  3  2  1  0
  4  3  1  0
  4  5  2  0
  6  2  1  0
  6  7  2  0
  8  4  1  0
 10 12  1  0
 10  9  1  0
 11 10  2  0
 13 12  1  1
 13 14  1  0
 14  6  1  0
 15 13  1  0
 16 15  2  0
 17 15  1  0
 18 17  1  0
 19 18  1  0
 19 20  1  0
 20 21  1  0
 21 17  1  0
 21 22  1  1
 23 22  1  0
 24 22  2  0
M  END
$$$$
