PNY.pdb
     RDKit          3D

 28 29  0  0  1  0  0  0  0  0999 V2000
   43.7407   -9.7650   -6.6372 N   0  0  0  0  0  0  0  0  0  0  0  0
   44.5872  -10.3024   -5.5999 C   0  0  0  0  0  0  0  0  0  0  0  0
   45.5613  -11.1618   -6.3739 C   0  0  0  0  0  0  0  0  0  0  0  0
   45.7346  -10.3840   -7.6663 C   0  0  0  0  0  0  0  0  0  0  0  0
   44.6843   -9.2826   -7.6104 C   0  0  1  0  0  0  0  0  0  0  0  0
   43.9803   -9.2049   -8.9619 C   0  0  0  0  0  0  0  0  0  0  0  0
   44.5387   -8.6454   -9.9141 O   0  0  0  0  0  0  0  0  0  0  0  0
   42.5622  -11.2227  -12.5300 N   0  0  0  0  0  0  0  0  0  0  0  0
   41.5773  -11.8281  -11.7107 C   0  0  0  0  0  0  0  0  0  0  0  0
   41.1840  -12.9696  -12.0999 O   0  0  0  0  0  0  0  0  0  0  0  0
   41.1365  -11.0985  -10.5447 C   0  0  0  0  0  0  0  0  0  0  0  0
   41.8297   -9.8220  -10.1823 C   0  0  2  0  0  0  0  0  0  0  0  0
   42.7136   -9.7676   -9.1084 N   0  0  0  0  0  0  0  0  0  0  0  0
   40.8792   -8.7190  -10.3558 C   0  0  0  0  0  0  0  0  0  0  0  0
   40.1165   -8.6989  -11.3966 O   0  0  0  0  0  0  0  0  0  0  0  0
   37.8273  -11.6851   -6.1617 O   0  0  0  0  0  0  0  0  0  0  0  0
   38.0933  -10.4085   -6.6861 C   0  0  0  0  0  0  0  0  0  0  0  0
   39.2256   -9.7145   -6.3266 C   0  0  0  0  0  0  0  0  0  0  0  0
   39.4974   -8.4587   -6.8358 C   0  0  0  0  0  0  0  0  0  0  0  0
   38.5981   -7.8960   -7.7301 C   0  0  0  0  0  0  0  0  0  0  0  0
   38.8242   -6.5590   -8.3149 C   0  0  0  0  0  0  0  0  0  0  0  0
   39.5602   -6.6745   -9.6173 C   0  0  2  0  0  0  0  0  0  0  0  0
   40.6867   -7.6245   -9.4785 N   0  0  0  0  0  0  0  0  0  0  0  0
   40.0221   -5.4064  -10.1930 C   0  0  0  0  0  0  0  0  0  0  0  0
   39.0943   -4.4080  -10.4783 O   0  0  0  0  0  0  0  0  0  0  0  0
   37.4382   -8.5622   -8.1224 C   0  0  0  0  0  0  0  0  0  0  0  0
   37.2318   -9.8097   -7.5754 C   0  0  0  0  0  0  0  0  0  0  0  0
   41.2172   -5.1485  -10.4525 O   0  0  0  0  0  0  0  0  0  0  0  0
  2  1  1  0
  3  2  1  0
  4  3  1  0
  4  5  1  0
  5  1  1  0
  5  6  1  6
  6  7  2  0
  8  9  1  0
  9 11  1  0
 10  9  2  0
 12 11  1  1
 13  6  1  0
 13 12  1  0
 14 12  1  0
 14 15  2  0
 16 17  1  0
 17 18  2  0
 18 19  1  0
 20 19  2  0
 20 21  1  0
 22 21  1  1
 22 23  1  0
 22 24  1  0
 23 14  1  0
 24 25  1  0
 26 20  1  0
 27 17  1  0
 27 26  2  0
 28 24  2  0
M  END
$$$$
