PNY.pdb
     RDKit          3D

 28 29  0  0  1  0  0  0  0  0999 V2000
   26.6275  -19.1450  -17.8168 N   0  0  0  0  0  0  0  0  0  0  0  0
   27.1876  -18.4223  -18.9328 C   0  0  0  0  0  0  0  0  0  0  0  0
   27.2651  -17.0056  -18.4098 C   0  0  0  0  0  0  0  0  0  0  0  0
   27.5832  -17.2123  -16.9397 C   0  0  0  0  0  0  0  0  0  0  0  0
   27.4358  -18.7103  -16.7086 C   0  0  1  0  0  0  0  0  0  0  0  0
   26.6453  -18.9345  -15.4228 C   0  0  0  0  0  0  0  0  0  0  0  0
   27.0367  -18.4261  -14.3646 O   0  0  0  0  0  0  0  0  0  0  0  0
   22.2798  -19.0318  -16.0326 N   0  0  0  0  0  0  0  0  0  0  0  0
   22.5239  -20.4224  -15.9119 C   0  0  0  0  0  0  0  0  0  0  0  0
   21.9800  -21.1415  -16.8041 O   0  0  0  0  0  0  0  0  0  0  0  0
   23.3488  -20.8636  -14.8114 C   0  0  0  0  0  0  0  0  0  0  0  0
   24.5802  -20.0840  -14.4692 C   0  0  2  0  0  0  0  0  0  0  0  0
   25.4881  -19.7106  -15.4561 N   0  0  0  0  0  0  0  0  0  0  0  0
   25.1062  -20.5923  -13.1983 C   0  0  0  0  0  0  0  0  0  0  0  0
   25.5233  -21.8115  -13.1287 O   0  0  0  0  0  0  0  0  0  0  0  0
   28.4629  -20.3347   -5.0029 O   0  0  0  0  0  0  0  0  0  0  0  0
   28.1317  -20.1655   -6.3583 C   0  0  0  0  0  0  0  0  0  0  0  0
   28.6840  -20.9676   -7.3301 C   0  0  0  0  0  0  0  0  0  0  0  0
   28.3658  -20.8103   -8.6658 C   0  0  0  0  0  0  0  0  0  0  0  0
   27.4662  -19.8154   -9.0214 C   0  0  0  0  0  0  0  0  0  0  0  0
   27.0792  -19.5909  -10.4286 C   0  0  0  0  0  0  0  0  0  0  0  0
   25.8856  -20.4278  -10.7837 C   0  0  2  0  0  0  0  0  0  0  0  0
   25.2191  -19.8740  -11.9835 N   0  0  0  0  0  0  0  0  0  0  0  0
   24.9157  -20.6307   -9.7016 C   0  0  0  0  0  0  0  0  0  0  0  0
   25.2066  -21.5370   -8.6851 O   0  0  0  0  0  0  0  0  0  0  0  0
   26.8823  -18.9795   -8.0711 C   0  0  0  0  0  0  0  0  0  0  0  0
   27.2453  -19.1933   -6.7593 C   0  0  0  0  0  0  0  0  0  0  0  0
   23.8199  -20.0350   -9.6217 O   0  0  0  0  0  0  0  0  0  0  0  0
  2  1  1  0
  3  2  1  0
  4  3  1  0
  4  5  1  0
  5  1  1  0
  5  6  1  1
  6  7  2  0
  8  9  1  0
  9 11  1  0
 10  9  2  0
 12 11  1  6
 13  6  1  0
 13 12  1  0
 14 12  1  0
 14 15  2  0
 16 17  1  0
 17 18  2  0
 18 19  1  0
 20 19  2  0
 20 21  1  0
 22 21  1  1
 22 23  1  0
 22 24  1  0
 23 14  1  0
 24 25  1  0
 26 20  1  0
 27 17  1  0
 27 26  2  0
 28 24  2  0
M  END
$$$$
