PNY.pdb
     RDKit          3D

 28 29  0  0  1  0  0  0  0  0999 V2000
   24.1798  -20.4048  -15.5373 N   0  0  0  0  0  0  0  0  0  0  0  0
   23.7262  -19.7519  -16.7412 C   0  0  0  0  0  0  0  0  0  0  0  0
   23.7893  -18.2868  -16.3721 C   0  0  0  0  0  0  0  0  0  0  0  0
   24.9995  -18.2277  -15.4572 C   0  0  0  0  0  0  0  0  0  0  0  0
   25.3786  -19.6811  -15.2062 C   0  0  1  0  0  0  0  0  0  0  0  0
   25.6544  -19.8677  -13.7172 C   0  0  0  0  0  0  0  0  0  0  0  0
   26.5836  -19.2497  -13.1824 O   0  0  0  0  0  0  0  0  0  0  0  0
   21.0550  -21.3674  -12.8606 N   0  0  0  0  0  0  0  0  0  0  0  0
   21.8030  -20.6267  -11.9121 C   0  0  0  0  0  0  0  0  0  0  0  0
   21.3370  -19.4787  -11.6402 O   0  0  0  0  0  0  0  0  0  0  0  0
   22.9894  -21.2440  -11.3665 C   0  0  0  0  0  0  0  0  0  0  0  0
   24.3276  -20.6550  -11.6885 C   0  0  2  0  0  0  0  0  0  0  0  0
   24.8534  -20.7339  -12.9750 N   0  0  0  0  0  0  0  0  0  0  0  0
   25.2238  -20.9066  -10.5555 C   0  0  0  0  0  0  0  0  0  0  0  0
   25.8141  -22.0499  -10.4576 O   0  0  0  0  0  0  0  0  0  0  0  0
   30.0210  -20.2107   -3.1834 O   0  0  0  0  0  0  0  0  0  0  0  0
   29.3420  -19.9543   -4.3871 C   0  0  0  0  0  0  0  0  0  0  0  0
   28.3058  -19.0507   -4.4396 C   0  0  0  0  0  0  0  0  0  0  0  0
   27.6310  -18.7906   -5.6174 C   0  0  0  0  0  0  0  0  0  0  0  0
   28.0181  -19.4641   -6.7671 C   0  0  0  0  0  0  0  0  0  0  0  0
   27.3432  -19.2357   -8.0605 C   0  0  0  0  0  0  0  0  0  0  0  0
   26.4101  -20.3686   -8.3719 C   0  0  2  0  0  0  0  0  0  0  0  0
   25.5358  -20.0050   -9.5094 N   0  0  0  0  0  0  0  0  0  0  0  0
   25.6110  -20.8538   -7.2410 C   0  0  0  0  0  0  0  0  0  0  0  0
   24.2396  -20.6132   -7.2210 O   0  0  0  0  0  0  0  0  0  0  0  0
   29.0618  -20.3880   -6.7608 C   0  0  0  0  0  0  0  0  0  0  0  0
   29.6895  -20.5971   -5.5522 C   0  0  0  0  0  0  0  0  0  0  0  0
   26.0815  -21.4838   -6.2694 O   0  0  0  0  0  0  0  0  0  0  0  0
  2  1  1  0
  3  2  1  0
  4  3  1  0
  4  5  1  0
  5  1  1  0
  5  6  1  1
  6  7  2  0
  8  9  1  0
  9 11  1  0
 10  9  2  0
 12 11  1  6
 13  6  1  0
 13 12  1  0
 14 12  1  0
 14 15  2  0
 16 17  1  0
 17 18  2  0
 18 19  1  0
 20 19  2  0
 20 21  1  0
 22 21  1  1
 22 23  1  0
 22 24  1  0
 23 14  1  0
 24 25  1  0
 26 20  1  0
 27 17  1  0
 27 26  2  0
 28 24  2  0
M  END
$$$$
