PNY.pdb
     RDKit          3D

 28 29  0  0  1  0  0  0  0  0999 V2000
   29.6856    4.7748   -7.3427 N   0  0  0  0  0  0  0  0  0  0  0  0
   30.6431    5.8084   -7.6528 C   0  0  0  0  0  0  0  0  0  0  0  0
   29.8619    7.0772   -7.3949 C   0  0  0  0  0  0  0  0  0  0  0  0
   28.9770    6.6890   -6.2239 C   0  0  0  0  0  0  0  0  0  0  0  0
   29.1645    5.1860   -6.0660 C   0  0  1  0  0  0  0  0  0  0  0  0
   27.7968    4.5367   -5.8759 C   0  0  0  0  0  0  0  0  0  0  0  0
   27.1532    4.7522   -4.8411 O   0  0  0  0  0  0  0  0  0  0  0  0
   23.4433    2.1259   -7.4369 N   0  0  0  0  0  0  0  0  0  0  0  0
   24.3817    1.8559   -8.4636 C   0  0  0  0  0  0  0  0  0  0  0  0
   23.9065    1.2708   -9.4839 O   0  0  0  0  0  0  0  0  0  0  0  0
   25.7489    2.2674   -8.2452 C   0  0  0  0  0  0  0  0  0  0  0  0
   26.0944    2.9983   -6.9852 C   0  0  2  0  0  0  0  0  0  0  0  0
   27.2872    3.7071   -6.8732 N   0  0  0  0  0  0  0  0  0  0  0  0
   25.6639    2.1796   -5.8475 C   0  0  0  0  0  0  0  0  0  0  0  0
   26.1155    0.9768   -5.7267 O   0  0  0  0  0  0  0  0  0  0  0  0
   24.7776   -1.8724    1.5726 O   0  0  0  0  0  0  0  0  0  0  0  0
   25.0206   -1.1289    0.4048 C   0  0  0  0  0  0  0  0  0  0  0  0
   24.8733   -1.6941   -0.8409 C   0  0  0  0  0  0  0  0  0  0  0  0
   25.1096   -0.9728   -1.9958 C   0  0  0  0  0  0  0  0  0  0  0  0
   25.5045    0.3525   -1.8819 C   0  0  0  0  0  0  0  0  0  0  0  0
   25.7731    1.1836   -3.0725 C   0  0  0  0  0  0  0  0  0  0  0  0
   24.4903    1.7162   -3.6399 C   0  0  2  0  0  0  0  0  0  0  0  0
   24.7736    2.5675   -4.8172 N   0  0  0  0  0  0  0  0  0  0  0  0
   23.6271    2.4233   -2.6872 C   0  0  0  0  0  0  0  0  0  0  0  0
   22.6897    1.7035   -1.9509 O   0  0  0  0  0  0  0  0  0  0  0  0
   25.6668    0.9663   -0.6410 C   0  0  0  0  0  0  0  0  0  0  0  0
   25.4139    0.1876    0.4671 C   0  0  0  0  0  0  0  0  0  0  0  0
   23.6721    3.6553   -2.4813 O   0  0  0  0  0  0  0  0  0  0  0  0
  2  1  1  0
  3  2  1  0
  4  3  1  0
  4  5  1  0
  5  1  1  0
  5  6  1  6
  6  7  2  0
  8  9  1  0
  9 11  1  0
 10  9  2  0
 12 11  1  6
 13  6  1  0
 13 12  1  0
 14 12  1  0
 14 15  2  0
 16 17  1  0
 17 18  2  0
 18 19  1  0
 20 19  2  0
 20 21  1  0
 22 21  1  1
 22 23  1  0
 22 24  1  0
 23 14  1  0
 24 25  1  0
 26 20  1  0
 27 17  1  0
 27 26  2  0
 28 24  2  0
M  END
$$$$
