PNY.pdb
     RDKit          3D

 28 29  0  0  1  0  0  0  0  0999 V2000
   23.7453  -20.9579  -17.4260 N   0  0  0  0  0  0  0  0  0  0  0  0
   23.7266  -20.9997  -18.8680 C   0  0  0  0  0  0  0  0  0  0  0  0
   22.2604  -21.2006  -19.1784 C   0  0  0  0  0  0  0  0  0  0  0  0
   21.5772  -20.4132  -18.0747 C   0  0  0  0  0  0  0  0  0  0  0  0
   22.6935  -20.0270  -17.1135 C   0  0  1  0  0  0  0  0  0  0  0  0
   22.2274  -20.2936  -15.6852 C   0  0  0  0  0  0  0  0  0  0  0  0
   23.0342  -20.7070  -14.8429 O   0  0  0  0  0  0  0  0  0  0  0  0
   19.2684  -17.1420  -12.7892 N   0  0  0  0  0  0  0  0  0  0  0  0
   20.1415  -16.6711  -13.8009 C   0  0  0  0  0  0  0  0  0  0  0  0
   20.3810  -15.4260  -13.7655 O   0  0  0  0  0  0  0  0  0  0  0  0
   20.6560  -17.6373  -14.7434 C   0  0  0  0  0  0  0  0  0  0  0  0
   20.2753  -19.0768  -14.5878 C   0  0  2  0  0  0  0  0  0  0  0  0
   20.8948  -20.0667  -15.3454 N   0  0  0  0  0  0  0  0  0  0  0  0
   18.8222  -19.1496  -14.4052 C   0  0  0  0  0  0  0  0  0  0  0  0
   18.0639  -18.3087  -15.0240 O   0  0  0  0  0  0  0  0  0  0  0  0
   17.2872  -22.2968  -20.3825 O   0  0  0  0  0  0  0  0  0  0  0  0
   17.6244  -22.2238  -19.0200 C   0  0  0  0  0  0  0  0  0  0  0  0
   18.2250  -21.1025  -18.4958 C   0  0  0  0  0  0  0  0  0  0  0  0
   18.5611  -21.0196  -17.1578 C   0  0  0  0  0  0  0  0  0  0  0  0
   18.2805  -22.1007  -16.3345 C   0  0  0  0  0  0  0  0  0  0  0  0
   18.6104  -22.0819  -14.8953 C   0  0  0  0  0  0  0  0  0  0  0  0
   17.5584  -21.3382  -14.1263 C   0  0  2  0  0  0  0  0  0  0  0  0
   18.1182  -20.0745  -13.5968 N   0  0  0  0  0  0  0  0  0  0  0  0
   16.9041  -22.1010  -13.0572 C   0  0  0  0  0  0  0  0  0  0  0  0
   16.3967  -23.3678  -13.3346 O   0  0  0  0  0  0  0  0  0  0  0  0
   17.6734  -23.2569  -16.8220 C   0  0  0  0  0  0  0  0  0  0  0  0
   17.3662  -23.2697  -18.1650 C   0  0  0  0  0  0  0  0  0  0  0  0
   16.7650  -21.6882  -11.8857 O   0  0  0  0  0  0  0  0  0  0  0  0
  2  1  1  0
  3  2  1  0
  4  3  1  0
  4  5  1  0
  5  1  1  0
  5  6  1  1
  6  7  2  0
  8  9  1  0
  9 11  1  0
 10  9  2  0
 12 11  1  6
 13  6  1  0
 13 12  1  0
 14 12  1  0
 14 15  2  0
 16 17  1  0
 17 18  2  0
 18 19  1  0
 20 19  2  0
 20 21  1  0
 22 21  1  1
 22 23  1  0
 22 24  1  0
 23 14  1  0
 24 25  1  0
 26 20  1  0
 27 17  1  0
 27 26  2  0
 28 24  2  0
M  END
$$$$
