PNY.pdb
     RDKit          3D

 28 29  0  0  1  0  0  0  0  0999 V2000
   28.0881  -23.9945  -18.7211 N   0  0  0  0  0  0  0  0  0  0  0  0
   27.6973  -24.6445  -19.9483 C   0  0  0  0  0  0  0  0  0  0  0  0
   28.1220  -23.6494  -21.0047 C   0  0  0  0  0  0  0  0  0  0  0  0
   29.3850  -23.0532  -20.4093 C   0  0  0  0  0  0  0  0  0  0  0  0
   29.4431  -23.5885  -18.9848 C   0  0  1  0  0  0  0  0  0  0  0  0
   29.7908  -22.4406  -18.0415 C   0  0  0  0  0  0  0  0  0  0  0  0
   30.9065  -21.9090  -18.1061 O   0  0  0  0  0  0  0  0  0  0  0  0
   28.2644  -18.1781  -15.4417 N   0  0  0  0  0  0  0  0  0  0  0  0
   28.2280  -18.2540  -16.8562 C   0  0  0  0  0  0  0  0  0  0  0  0
   28.0821  -17.1422  -17.4491 O   0  0  0  0  0  0  0  0  0  0  0  0
   28.3594  -19.5598  -17.4595 C   0  0  0  0  0  0  0  0  0  0  0  0
   28.5710  -20.7497  -16.5759 C   0  0  2  0  0  0  0  0  0  0  0  0
   28.8445  -22.0029  -17.1165 N   0  0  0  0  0  0  0  0  0  0  0  0
   27.6229  -20.6667  -15.4603 C   0  0  0  0  0  0  0  0  0  0  0  0
   26.4047  -21.0549  -15.6352 O   0  0  0  0  0  0  0  0  0  0  0  0
   23.9881  -20.5283   -7.4459 O   0  0  0  0  0  0  0  0  0  0  0  0
   24.9067  -20.4622   -8.5077 C   0  0  0  0  0  0  0  0  0  0  0  0
   25.5584  -19.2893   -8.8114 C   0  0  0  0  0  0  0  0  0  0  0  0
   26.4635  -19.2126   -9.8531 C   0  0  0  0  0  0  0  0  0  0  0  0
   26.7113  -20.3536  -10.6027 C   0  0  0  0  0  0  0  0  0  0  0  0
   27.6661  -20.3457  -11.7291 C   0  0  0  0  0  0  0  0  0  0  0  0
   26.9325  -20.3216  -13.0377 C   0  0  2  0  0  0  0  0  0  0  0  0
   27.8953  -20.1925  -14.1544 N   0  0  0  0  0  0  0  0  0  0  0  0
   25.8758  -19.3095  -13.1474 C   0  0  0  0  0  0  0  0  0  0  0  0
   24.5680  -19.6486  -12.8102 O   0  0  0  0  0  0  0  0  0  0  0  0
   26.0741  -21.5633  -10.3314 C   0  0  0  0  0  0  0  0  0  0  0  0
   25.1850  -21.5665   -9.2789 C   0  0  0  0  0  0  0  0  0  0  0  0
   26.0670  -18.1352  -13.5303 O   0  0  0  0  0  0  0  0  0  0  0  0
  2  1  1  0
  3  2  1  0
  4  3  1  0
  4  5  1  0
  5  1  1  0
  5  6  1  1
  6  7  2  0
  8  9  1  0
  9 11  1  0
 10  9  2  0
 12 11  1  6
 13  6  1  0
 13 12  1  0
 14 12  1  0
 14 15  2  0
 16 17  1  0
 17 18  2  0
 18 19  1  0
 20 19  2  0
 20 21  1  0
 22 21  1  1
 22 23  1  0
 22 24  1  0
 23 14  1  0
 24 25  1  0
 26 20  1  0
 27 17  1  0
 27 26  2  0
 28 24  2  0
M  END
$$$$
