PNY.pdb
     RDKit          3D

 28 29  0  0  1  0  0  0  0  0999 V2000
   30.2697  -21.8783  -19.1069 N   0  0  0  0  0  0  0  0  0  0  0  0
   31.2499  -21.4154  -20.0589 C   0  0  0  0  0  0  0  0  0  0  0  0
   30.4953  -20.3545  -20.8280 C   0  0  0  0  0  0  0  0  0  0  0  0
   29.5989  -19.7482  -19.7631 C   0  0  0  0  0  0  0  0  0  0  0  0
   29.7538  -20.6559  -18.5502 C   0  0  1  0  0  0  0  0  0  0  0  0
   28.3720  -20.9406  -17.9689 C   0  0  0  0  0  0  0  0  0  0  0  0
   27.6931  -20.0108  -17.5150 O   0  0  0  0  0  0  0  0  0  0  0  0
   26.8804  -25.5201  -19.9164 N   0  0  0  0  0  0  0  0  0  0  0  0
   26.2351  -24.3458  -19.4559 C   0  0  0  0  0  0  0  0  0  0  0  0
   25.7428  -23.6125  -20.3664 O   0  0  0  0  0  0  0  0  0  0  0  0
   26.2056  -24.1139  -18.0305 C   0  0  0  0  0  0  0  0  0  0  0  0
   26.6990  -22.8047  -17.4978 C   0  0  2  0  0  0  0  0  0  0  0  0
   27.8894  -22.2482  -17.9570 N   0  0  0  0  0  0  0  0  0  0  0  0
   26.4224  -22.7619  -16.0584 C   0  0  0  0  0  0  0  0  0  0  0  0
   27.3664  -23.0418  -15.2242 O   0  0  0  0  0  0  0  0  0  0  0  0
   25.4035  -20.3736   -7.9381 O   0  0  0  0  0  0  0  0  0  0  0  0
   25.5348  -20.5750   -9.3229 C   0  0  0  0  0  0  0  0  0  0  0  0
   24.5703  -20.1343  -10.1995 C   0  0  0  0  0  0  0  0  0  0  0  0
   24.6888  -20.3269  -11.5630 C   0  0  0  0  0  0  0  0  0  0  0  0
   25.8125  -20.9821  -12.0459 C   0  0  0  0  0  0  0  0  0  0  0  0
   26.0061  -21.2217  -13.4900 C   0  0  0  0  0  0  0  0  0  0  0  0
   25.0424  -22.2610  -13.9824 C   0  0  2  0  0  0  0  0  0  0  0  0
   25.1893  -22.4337  -15.4451 N   0  0  0  0  0  0  0  0  0  0  0  0
   23.6370  -22.0334  -13.6279 C   0  0  0  0  0  0  0  0  0  0  0  0
   22.8331  -21.2756  -14.4757 O   0  0  0  0  0  0  0  0  0  0  0  0
   26.8145  -21.4459  -11.1951 C   0  0  0  0  0  0  0  0  0  0  0  0
   26.6304  -21.2191   -9.8486 C   0  0  0  0  0  0  0  0  0  0  0  0
   23.0931  -22.4810  -12.5954 O   0  0  0  0  0  0  0  0  0  0  0  0
  2  1  1  0
  3  2  1  0
  4  3  1  0
  4  5  1  0
  5  1  1  0
  5  6  1  6
  6  7  2  0
  8  9  1  0
  9 11  1  0
 10  9  2  0
 12 11  1  1
 13  6  1  0
 13 12  1  0
 14 12  1  0
 14 15  2  0
 16 17  1  0
 17 18  2  0
 18 19  1  0
 20 19  2  0
 20 21  1  0
 22 21  1  6
 22 23  1  0
 22 24  1  0
 23 14  1  0
 24 25  1  0
 26 20  1  0
 27 17  1  0
 27 26  2  0
 28 24  2  0
M  END
$$$$
