PNY.pdb
     RDKit          3D

 28 29  0  0  1  0  0  0  0  0999 V2000
   26.8344  -18.9356  -14.3871 N   0  0  0  0  0  0  0  0  0  0  0  0
   28.1657  -18.5574  -14.7945 C   0  0  0  0  0  0  0  0  0  0  0  0
   28.9649  -19.8150  -14.5370 C   0  0  0  0  0  0  0  0  0  0  0  0
   27.9675  -20.9131  -14.8598 C   0  0  0  0  0  0  0  0  0  0  0  0
   26.6370  -20.1972  -15.0503 C   0  0  1  0  0  0  0  0  0  0  0  0
   25.5525  -20.9666  -14.3018 C   0  0  0  0  0  0  0  0  0  0  0  0
   25.0256  -21.9547  -14.8287 O   0  0  0  0  0  0  0  0  0  0  0  0
   26.1507  -20.0938   -9.1062 N   0  0  0  0  0  0  0  0  0  0  0  0
   25.9118  -20.9338  -10.2221 C   0  0  0  0  0  0  0  0  0  0  0  0
   26.9485  -21.4632  -10.7261 O   0  0  0  0  0  0  0  0  0  0  0  0
   24.5439  -21.0957  -10.6567 C   0  0  0  0  0  0  0  0  0  0  0  0
   24.2360  -21.0395  -12.1207 C   0  0  2  0  0  0  0  0  0  0  0  0
   25.1681  -20.5467  -13.0296 N   0  0  0  0  0  0  0  0  0  0  0  0
   22.8338  -20.6411  -12.2793 C   0  0  0  0  0  0  0  0  0  0  0  0
   22.4517  -19.4861  -11.8491 O   0  0  0  0  0  0  0  0  0  0  0  0
   18.0303  -15.0278  -13.3569 O   0  0  0  0  0  0  0  0  0  0  0  0
   18.7787  -16.1836  -13.6396 C   0  0  0  0  0  0  0  0  0  0  0  0
   18.4967  -16.9613  -14.7389 C   0  0  0  0  0  0  0  0  0  0  0  0
   19.2257  -18.0997  -15.0266 C   0  0  0  0  0  0  0  0  0  0  0  0
   20.2641  -18.4554  -14.1778 C   0  0  0  0  0  0  0  0  0  0  0  0
   21.0856  -19.6576  -14.4237 C   0  0  0  0  0  0  0  0  0  0  0  0
   20.6346  -20.7886  -13.5470 C   0  0  2  0  0  0  0  0  0  0  0  0
   21.8017  -21.4044  -12.8766 N   0  0  0  0  0  0  0  0  0  0  0  0
   19.8209  -21.8130  -14.2113 C   0  0  0  0  0  0  0  0  0  0  0  0
   20.4461  -22.7795  -14.9949 O   0  0  0  0  0  0  0  0  0  0  0  0
   20.5852  -17.6979  -13.0527 C   0  0  0  0  0  0  0  0  0  0  0  0
   19.8170  -16.5765  -12.8277 C   0  0  0  0  0  0  0  0  0  0  0  0
   18.5761  -21.8851  -14.1235 O   0  0  0  0  0  0  0  0  0  0  0  0
  2  1  1  0
  3  2  1  0
  4  3  1  0
  4  5  1  0
  5  1  1  0
  5  6  1  1
  6  7  2  0
  8  9  1  0
  9 11  1  0
 10  9  2  0
 12 11  1  1
 13  6  1  0
 13 12  1  0
 14 12  1  0
 14 15  2  0
 16 17  1  0
 17 18  2  0
 18 19  1  0
 20 19  2  0
 20 21  1  0
 22 21  1  6
 22 23  1  0
 22 24  1  0
 23 14  1  0
 24 25  1  0
 26 20  1  0
 27 17  1  0
 27 26  2  0
 28 24  2  0
M  END
$$$$
