PNY.pdb
     RDKit          3D

 28 29  0  0  1  0  0  0  0  0999 V2000
   19.0642  -10.9819  -14.8295 N   0  0  0  0  0  0  0  0  0  0  0  0
   18.7809  -12.3366  -15.2366 C   0  0  0  0  0  0  0  0  0  0  0  0
   17.2761  -12.3340  -15.3856 C   0  0  0  0  0  0  0  0  0  0  0  0
   16.9963  -10.9321  -15.8969 C   0  0  0  0  0  0  0  0  0  0  0  0
   18.3236  -10.1947  -15.7793 C   0  0  1  0  0  0  0  0  0  0  0  0
   18.0703   -8.8200  -15.1674 C   0  0  0  0  0  0  0  0  0  0  0  0
   17.5355   -7.9345  -15.8465 O   0  0  0  0  0  0  0  0  0  0  0  0
   18.8377   -6.0943   -9.7093 N   0  0  0  0  0  0  0  0  0  0  0  0
   17.9637   -6.3541  -10.7938 C   0  0  0  0  0  0  0  0  0  0  0  0
   17.0581   -5.4841  -10.9727 O   0  0  0  0  0  0  0  0  0  0  0  0
   18.1921   -7.5543  -11.5643 C   0  0  0  0  0  0  0  0  0  0  0  0
   18.3768   -7.4417  -13.0457 C   0  0  2  0  0  0  0  0  0  0  0  0
   18.4445   -8.5781  -13.8468 N   0  0  0  0  0  0  0  0  0  0  0  0
   19.3194   -6.3497  -13.3085 C   0  0  0  0  0  0  0  0  0  0  0  0
   19.0811   -5.1778  -12.8238 O   0  0  0  0  0  0  0  0  0  0  0  0
   25.6788   -1.5650  -17.1213 O   0  0  0  0  0  0  0  0  0  0  0  0
   24.9650   -2.5635  -16.4364 C   0  0  0  0  0  0  0  0  0  0  0  0
   25.2667   -3.8951  -16.6053 C   0  0  0  0  0  0  0  0  0  0  0  0
   24.5716   -4.8854  -15.9372 C   0  0  0  0  0  0  0  0  0  0  0  0
   23.5472   -4.5136  -15.0784 C   0  0  0  0  0  0  0  0  0  0  0  0
   22.7631   -5.5172  -14.3310 C   0  0  0  0  0  0  0  0  0  0  0  0
   21.2949   -5.2355  -14.4579 C   0  0  2  0  0  0  0  0  0  0  0  0
   20.5152   -6.4298  -14.0622 N   0  0  0  0  0  0  0  0  0  0  0  0
   20.8597   -4.7465  -15.7711 C   0  0  0  0  0  0  0  0  0  0  0  0
   20.8057   -3.3749  -16.0053 O   0  0  0  0  0  0  0  0  0  0  0  0
   23.2067   -3.1771  -14.8766 C   0  0  0  0  0  0  0  0  0  0  0  0
   23.9415   -2.2440  -15.5749 C   0  0  0  0  0  0  0  0  0  0  0  0
   20.5259   -5.4885  -16.7199 O   0  0  0  0  0  0  0  0  0  0  0  0
  2  1  1  0
  3  2  1  0
  4  3  1  0
  4  5  1  0
  5  1  1  0
  5  6  1  1
  6  7  2  0
  8  9  1  0
  9 11  1  0
 10  9  2  0
 12 11  1  1
 13  6  1  0
 13 12  1  0
 14 12  1  0
 14 15  2  0
 16 17  1  0
 17 18  2  0
 18 19  1  0
 20 19  2  0
 20 21  1  0
 22 21  1  6
 22 23  1  0
 22 24  1  0
 23 14  1  0
 24 25  1  0
 26 20  1  0
 27 17  1  0
 27 26  2  0
 28 24  2  0
M  END
$$$$
