PNY.pdb
     RDKit          3D

 28 29  0  0  1  0  0  0  0  0999 V2000
   19.8492  -12.6773  -18.3007 N   0  0  0  0  0  0  0  0  0  0  0  0
   19.3954  -13.7461  -19.1569 C   0  0  0  0  0  0  0  0  0  0  0  0
   18.0772  -13.2205  -19.6791 C   0  0  0  0  0  0  0  0  0  0  0  0
   18.3383  -11.7295  -19.7964 C   0  0  0  0  0  0  0  0  0  0  0  0
   19.6872  -11.5088  -19.1247 C   0  0  1  0  0  0  0  0  0  0  0  0
   19.5890  -10.2898  -18.2123 C   0  0  0  0  0  0  0  0  0  0  0  0
   19.3926   -9.1703  -18.7019 O   0  0  0  0  0  0  0  0  0  0  0  0
   17.2691  -11.0360  -15.7464 N   0  0  0  0  0  0  0  0  0  0  0  0
   17.7853  -10.6422  -14.4870 C   0  0  0  0  0  0  0  0  0  0  0  0
   17.0742  -10.9713  -13.4895 O   0  0  0  0  0  0  0  0  0  0  0  0
   19.0390   -9.9250  -14.4726 C   0  0  0  0  0  0  0  0  0  0  0  0
   19.6762   -9.5510  -15.7747 C   0  0  2  0  0  0  0  0  0  0  0  0
   19.7212  -10.4525  -16.8344 N   0  0  0  0  0  0  0  0  0  0  0  0
   20.8750   -8.7571  -15.4871 C   0  0  0  0  0  0  0  0  0  0  0  0
   22.0218   -9.1647  -15.9161 O   0  0  0  0  0  0  0  0  0  0  0  0
   26.3318   -2.4205  -17.0228 O   0  0  0  0  0  0  0  0  0  0  0  0
   25.3034   -3.3648  -16.8611 C   0  0  0  0  0  0  0  0  0  0  0  0
   23.9913   -2.9713  -16.7325 C   0  0  0  0  0  0  0  0  0  0  0  0
   22.9719   -3.8908  -16.5730 C   0  0  0  0  0  0  0  0  0  0  0  0
   23.2936   -5.2403  -16.5434 C   0  0  0  0  0  0  0  0  0  0  0  0
   22.2565   -6.2782  -16.3773 C   0  0  0  0  0  0  0  0  0  0  0  0
   22.0286   -6.5628  -14.9218 C   0  0  2  0  0  0  0  0  0  0  0  0
   20.9288   -7.5407  -14.7645 N   0  0  0  0  0  0  0  0  0  0  0  0
   21.7958   -5.3840  -14.0797 C   0  0  0  0  0  0  0  0  0  0  0  0
   22.8683   -4.8009  -13.4098 O   0  0  0  0  0  0  0  0  0  0  0  0
   24.6087   -5.6847  -16.6697 C   0  0  0  0  0  0  0  0  0  0  0  0
   25.5729   -4.7130  -16.8257 C   0  0  0  0  0  0  0  0  0  0  0  0
   20.6778   -4.8500  -13.9150 O   0  0  0  0  0  0  0  0  0  0  0  0
  2  1  1  0
  3  2  1  0
  4  3  1  0
  4  5  1  0
  5  1  1  0
  5  6  1  1
  6  7  2  0
  8  9  1  0
  9 11  1  0
 10  9  2  0
 12 11  1  1
 13  6  1  0
 13 12  1  0
 14 12  1  0
 14 15  2  0
 16 17  1  0
 17 18  2  0
 18 19  1  0
 20 19  2  0
 20 21  1  0
 22 21  1  6
 22 23  1  0
 22 24  1  0
 23 14  1  0
 24 25  1  0
 26 20  1  0
 27 17  1  0
 27 26  2  0
 28 24  2  0
M  END
$$$$
