PNY.pdb
     RDKit          3D

 28 29  0  0  1  0  0  0  0  0999 V2000
   21.2982  -12.8680  -18.3292 N   0  0  0  0  0  0  0  0  0  0  0  0
   20.6478  -14.0899  -18.7358 C   0  0  0  0  0  0  0  0  0  0  0  0
   20.2923  -14.7358  -17.4155 C   0  0  0  0  0  0  0  0  0  0  0  0
   19.9734  -13.5394  -16.5369 C   0  0  0  0  0  0  0  0  0  0  0  0
   20.3897  -12.3242  -17.3548 C   0  0  1  0  0  0  0  0  0  0  0  0
   21.1684  -11.3688  -16.4554 C   0  0  0  0  0  0  0  0  0  0  0  0
   20.6260  -10.8916  -15.4506 O   0  0  0  0  0  0  0  0  0  0  0  0
   24.3466  -12.7902  -15.4143 N   0  0  0  0  0  0  0  0  0  0  0  0
   25.3296  -11.8691  -15.8536 C   0  0  0  0  0  0  0  0  0  0  0  0
   26.5154  -12.3192  -15.8730 O   0  0  0  0  0  0  0  0  0  0  0  0
   24.8871  -10.5454  -16.2256 C   0  0  0  0  0  0  0  0  0  0  0  0
   23.4263  -10.2238  -16.1619 C   0  0  2  0  0  0  0  0  0  0  0  0
   22.4854  -11.0449  -16.7768 N   0  0  0  0  0  0  0  0  0  0  0  0
   23.2707   -8.7715  -16.2911 C   0  0  0  0  0  0  0  0  0  0  0  0
   23.6589   -8.1875  -17.3743 O   0  0  0  0  0  0  0  0  0  0  0  0
   20.0968   -1.0325  -17.8810 O   0  0  0  0  0  0  0  0  0  0  0  0
   20.4557   -2.3680  -17.6293 C   0  0  0  0  0  0  0  0  0  0  0  0
   21.5027   -2.9602  -18.2971 C   0  0  0  0  0  0  0  0  0  0  0  0
   21.8643   -4.2725  -18.0579 C   0  0  0  0  0  0  0  0  0  0  0  0
   21.1456   -4.9987  -17.1191 C   0  0  0  0  0  0  0  0  0  0  0  0
   21.4765   -6.4046  -16.8115 C   0  0  0  0  0  0  0  0  0  0  0  0
   22.3927   -6.4799  -15.6257 C   0  0  2  0  0  0  0  0  0  0  0  0
   22.7187   -7.8926  -15.3280 N   0  0  0  0  0  0  0  0  0  0  0  0
   21.9165   -5.7945  -14.4189 C   0  0  0  0  0  0  0  0  0  0  0  0
   22.2028   -4.4431  -14.2433 O   0  0  0  0  0  0  0  0  0  0  0  0
   20.0776   -4.4400  -16.4190 C   0  0  0  0  0  0  0  0  0  0  0  0
   19.7732   -3.1278  -16.7082 C   0  0  0  0  0  0  0  0  0  0  0  0
   21.2555   -6.3473  -13.5135 O   0  0  0  0  0  0  0  0  0  0  0  0
  2  1  1  0
  3  2  1  0
  4  3  1  0
  4  5  1  0
  5  1  1  0
  5  6  1  1
  6  7  2  0
  8  9  1  0
  9 11  1  0
 10  9  2  0
 12 11  1  6
 13  6  1  0
 13 12  1  0
 14 12  1  0
 14 15  2  0
 16 17  1  0
 17 18  2  0
 18 19  1  0
 20 19  2  0
 20 21  1  0
 22 21  1  6
 22 23  1  0
 22 24  1  0
 23 14  1  0
 24 25  1  0
 26 20  1  0
 27 17  1  0
 27 26  2  0
 28 24  2  0
M  END
$$$$
