QFH.pdb
     RDKit          3D

 31 32  0  0  1  0  0  0  0  0999 V2000
   19.0175  -10.0356  -20.2054 N   0  0  0  0  0  0  0  0  0  0  0  0
   18.3499  -11.2347  -19.9183 C   0  0  0  0  0  0  0  0  0  0  0  0
   18.3650  -12.1826  -20.7412 O   0  0  0  0  0  0  0  0  0  0  0  0
   17.6153  -11.4047  -18.6399 C   0  0  0  0  0  0  0  0  0  0  0  0
   17.6544  -10.1419  -17.8045 C   0  0  0  0  0  0  0  0  0  0  0  0
   18.6998  -10.3422  -16.7372 C   0  0  2  0  0  0  0  0  0  0  0  0
   18.3991  -11.4735  -15.9247 N   0  0  0  0  0  0  0  0  0  0  0  0
   18.9278   -9.1554  -15.9080 C   0  0  0  0  0  0  0  0  0  0  0  0
   18.2630   -9.0318  -14.8496 O   0  0  0  0  0  0  0  0  0  0  0  0
   19.8558   -8.1315  -16.2256 N   0  0  0  0  0  0  0  0  0  0  0  0
   20.0775   -6.9340  -15.4980 C   0  0  1  0  0  0  0  0  0  0  0  0
   21.4638   -6.7835  -14.9009 C   0  0  0  0  0  0  0  0  0  0  0  0
   21.8308   -7.8297  -13.9494 C   0  0  0  0  0  0  0  0  0  0  0  0
   22.6521   -8.8667  -14.2885 C   0  0  0  0  0  0  0  0  0  0  0  0
   22.9953   -9.8698  -13.3728 C   0  0  0  0  0  0  0  0  0  0  0  0
   22.5072   -9.8363  -12.0891 C   0  0  0  0  0  0  0  0  0  0  0  0
   21.6699   -8.7891  -11.7241 C   0  0  0  0  0  0  0  0  0  0  0  0
   21.3489   -7.8199  -12.6384 C   0  0  0  0  0  0  0  0  0  0  0  0
   19.7703   -5.7054  -16.2566 C   0  0  0  0  0  0  0  0  0  0  0  0
   20.1903   -5.5652  -17.4573 O   0  0  0  0  0  0  0  0  0  0  0  0
   19.0180   -4.6133  -15.7601 N   0  0  0  0  0  0  0  0  0  0  0  0
   18.6812   -3.4483  -16.5527 C   0  0  1  0  0  0  0  0  0  0  0  0
   17.4114   -2.7891  -16.0607 C   0  0  0  0  0  0  0  0  0  0  0  0
   16.2146   -3.6463  -16.3771 C   0  0  0  0  0  0  0  0  0  0  0  0
   16.1004   -4.5506  -17.3959 C   0  0  0  0  0  0  0  0  0  0  0  0
   14.8780   -5.0940  -17.3199 N   0  0  0  0  0  0  0  0  0  0  0  0
   14.2056   -4.5540  -16.2697 C   0  0  0  0  0  0  0  0  0  0  0  0
   15.0425   -3.6707  -15.7073 N   0  0  0  0  0  0  0  0  0  0  0  0
   19.7748   -2.4608  -16.4043 C   0  0  0  0  0  0  0  0  0  0  0  0
   19.7309   -1.2448  -17.0643 O   0  0  0  0  0  0  0  0  0  0  0  0
   20.7680   -2.7056  -15.6749 O   0  0  0  0  0  0  0  0  0  0  0  0
  2  1  1  0
  3  2  2  0
  4  2  1  0
  5  4  1  0
  5  6  1  0
  6  7  1  1
  8  9  2  0
  8  6  1  0
 10  8  1  0
 11 10  1  0
 11 12  1  6
 13 12  1  0
 13 18  1  0
 14 13  2  0
 15 14  1  0
 15 16  2  0
 16 17  1  0
 17 18  2  0
 19 11  1  0
 20 19  2  0
 21 19  1  0
 22 21  1  0
 23 24  1  0
 22 23  1  1
 24 28  1  0
 25 24  2  0
 25 26  1  0
 26 27  1  0
 28 27  2  0
 29 22  1  0
 29 30  1  0
 31 29  2  0
M  END
$$$$
