QFH.pdb
     RDKit          3D

 31 32  0  0  1  0  0  0  0  0999 V2000
   27.2307  -17.8345  -18.2049 N   0  0  0  0  0  0  0  0  0  0  0  0
   28.3357  -17.3414  -17.4965 C   0  0  0  0  0  0  0  0  0  0  0  0
   29.1610  -16.5796  -18.0572 O   0  0  0  0  0  0  0  0  0  0  0  0
   28.5493  -17.7101  -16.0747 C   0  0  0  0  0  0  0  0  0  0  0  0
   27.3820  -18.5035  -15.5252 C   0  0  0  0  0  0  0  0  0  0  0  0
   27.9516  -19.6004  -14.6623 C   0  0  2  0  0  0  0  0  0  0  0  0
   28.7782  -20.4786  -15.4211 N   0  0  0  0  0  0  0  0  0  0  0  0
   26.9348  -20.3552  -13.9245 C   0  0  0  0  0  0  0  0  0  0  0  0
   26.0678  -20.9845  -14.5800 O   0  0  0  0  0  0  0  0  0  0  0  0
   26.8662  -20.4212  -12.5097 N   0  0  0  0  0  0  0  0  0  0  0  0
   25.8979  -21.1162  -11.7403 C   0  0  1  0  0  0  0  0  0  0  0  0
   26.3784  -21.6210  -10.3931 C   0  0  0  0  0  0  0  0  0  0  0  0
   27.8127  -21.4638  -10.1634 C   0  0  0  0  0  0  0  0  0  0  0  0
   28.7473  -21.9728  -11.0194 C   0  0  0  0  0  0  0  0  0  0  0  0
   30.1211  -21.8235  -10.7900 C   0  0  0  0  0  0  0  0  0  0  0  0
   30.5720  -21.1505   -9.6805 C   0  0  0  0  0  0  0  0  0  0  0  0
   29.6369  -20.6248   -8.7972 C   0  0  0  0  0  0  0  0  0  0  0  0
   28.2982  -20.7843   -9.0438 C   0  0  0  0  0  0  0  0  0  0  0  0
   24.6473  -20.3615  -11.5265 C   0  0  0  0  0  0  0  0  0  0  0  0
   24.6865  -19.1376  -11.1547 O   0  0  0  0  0  0  0  0  0  0  0  0
   23.3440  -20.8864  -11.7024 N   0  0  0  0  0  0  0  0  0  0  0  0
   22.3339  -20.2582  -12.5296 C   0  0  1  0  0  0  0  0  0  0  0  0
   22.7920  -20.1300  -13.9657 C   0  0  0  0  0  0  0  0  0  0  0  0
   21.7795  -19.3659  -14.7769 C   0  0  0  0  0  0  0  0  0  0  0  0
   20.5953  -18.8478  -14.3320 C   0  0  0  0  0  0  0  0  0  0  0  0
   20.0002  -18.2471  -15.3714 N   0  0  0  0  0  0  0  0  0  0  0  0
   20.7822  -18.3707  -16.4759 C   0  0  0  0  0  0  0  0  0  0  0  0
   21.8656  -19.0587  -16.0889 N   0  0  0  0  0  0  0  0  0  0  0  0
   21.1341  -21.1264  -12.5269 C   0  0  0  0  0  0  0  0  0  0  0  0
   19.8877  -20.6177  -12.2044 O   0  0  0  0  0  0  0  0  0  0  0  0
   21.2213  -22.3454  -12.8178 O   0  0  0  0  0  0  0  0  0  0  0  0
  2  1  1  0
  3  2  2  0
  4  2  1  0
  5  4  1  0
  5  6  1  0
  6  7  1  6
  8  9  2  0
  8  6  1  0
 10  8  1  0
 11 10  1  0
 11 12  1  1
 13 12  1  0
 13 18  1  0
 14 13  2  0
 15 14  1  0
 15 16  2  0
 16 17  1  0
 17 18  2  0
 19 11  1  0
 20 19  2  0
 21 19  1  0
 22 21  1  0
 23 24  1  0
 22 23  1  6
 24 28  1  0
 25 24  2  0
 25 26  1  0
 26 27  1  0
 28 27  2  0
 29 22  1  0
 29 30  1  0
 31 29  2  0
M  END
$$$$
