QFH.pdb
     RDKit          3D

 31 32  0  0  1  0  0  0  0  0999 V2000
   28.7981  -21.8975  -15.7789 N   0  0  0  0  0  0  0  0  0  0  0  0
   29.2414  -20.6083  -15.4511 C   0  0  0  0  0  0  0  0  0  0  0  0
   29.3200  -19.7201  -16.3346 O   0  0  0  0  0  0  0  0  0  0  0  0
   29.6248  -20.2713  -14.0574 C   0  0  0  0  0  0  0  0  0  0  0  0
   29.4715  -21.4631  -13.1354 C   0  0  0  0  0  0  0  0  0  0  0  0
   29.8378  -21.0061  -11.7465 C   0  0  2  0  0  0  0  0  0  0  0  0
   31.0042  -21.6739  -11.2732 N   0  0  0  0  0  0  0  0  0  0  0  0
   28.7430  -21.1287  -10.7799 C   0  0  0  0  0  0  0  0  0  0  0  0
   28.5737  -22.2346  -10.2090 O   0  0  0  0  0  0  0  0  0  0  0  0
   27.8574  -20.0731  -10.4455 N   0  0  0  0  0  0  0  0  0  0  0  0
   26.6916  -20.1680   -9.6425 C   0  0  1  0  0  0  0  0  0  0  0  0
   26.5649  -19.1189   -8.5544 C   0  0  0  0  0  0  0  0  0  0  0  0
   27.1771  -19.4897   -7.2806 C   0  0  0  0  0  0  0  0  0  0  0  0
   26.4383  -19.9191   -6.2154 C   0  0  0  0  0  0  0  0  0  0  0  0
   27.0312  -20.2674   -4.9950 C   0  0  0  0  0  0  0  0  0  0  0  0
   28.3931  -20.1852   -4.8348 C   0  0  0  0  0  0  0  0  0  0  0  0
   29.1629  -19.7506   -5.9070 C   0  0  0  0  0  0  0  0  0  0  0  0
   28.5589  -19.4155   -7.0908 C   0  0  0  0  0  0  0  0  0  0  0  0
   25.4323  -20.1829  -10.4127 C   0  0  0  0  0  0  0  0  0  0  0  0
   25.2600  -19.3697  -11.3856 O   0  0  0  0  0  0  0  0  0  0  0  0
   24.3427  -21.0534  -10.1673 N   0  0  0  0  0  0  0  0  0  0  0  0
   23.1726  -21.1294  -11.0183 C   0  0  1  0  0  0  0  0  0  0  0  0
   22.4241  -22.4291  -10.8199 C   0  0  0  0  0  0  0  0  0  0  0  0
   21.1954  -22.4690  -11.6892 C   0  0  0  0  0  0  0  0  0  0  0  0
   20.7018  -21.4519  -12.4578 C   0  0  0  0  0  0  0  0  0  0  0  0
   19.5988  -21.9048  -13.0690 N   0  0  0  0  0  0  0  0  0  0  0  0
   19.3759  -23.1952  -12.7059 C   0  0  0  0  0  0  0  0  0  0  0  0
   20.3650  -23.5196  -11.8613 N   0  0  0  0  0  0  0  0  0  0  0  0
   22.2555  -20.0313  -10.6361 C   0  0  0  0  0  0  0  0  0  0  0  0
   21.4552  -19.4108  -11.5799 O   0  0  0  0  0  0  0  0  0  0  0  0
   22.1836  -19.6382   -9.4451 O   0  0  0  0  0  0  0  0  0  0  0  0
  2  1  1  0
  3  2  2  0
  4  2  1  0
  5  4  1  0
  5  6  1  0
  6  7  1  1
  8  9  2  0
  8  6  1  0
 10  8  1  0
 11 10  1  0
 11 12  1  1
 13 12  1  0
 13 18  1  0
 14 13  2  0
 15 14  1  0
 15 16  2  0
 16 17  1  0
 17 18  2  0
 19 11  1  0
 20 19  2  0
 21 19  1  0
 22 21  1  0
 23 24  1  0
 22 23  1  1
 24 28  1  0
 25 24  2  0
 25 26  1  0
 26 27  1  0
 28 27  2  0
 29 22  1  0
 29 30  1  0
 31 29  2  0
M  END
$$$$
