QFH.pdb
     RDKit          3D

 31 32  0  0  1  0  0  0  0  0999 V2000
   23.0719  -11.5707  -22.7730 N   0  0  0  0  0  0  0  0  0  0  0  0
   23.0893  -12.9160  -23.1676 C   0  0  0  0  0  0  0  0  0  0  0  0
   23.4536  -13.2332  -24.3263 O   0  0  0  0  0  0  0  0  0  0  0  0
   22.6787  -13.9867  -22.2252 C   0  0  0  0  0  0  0  0  0  0  0  0
   22.2237  -13.4146  -20.8987 C   0  0  0  0  0  0  0  0  0  0  0  0
   23.3430  -13.6258  -19.9114 C   0  0  2  0  0  0  0  0  0  0  0  0
   23.6653  -15.0078  -19.7829 N   0  0  0  0  0  0  0  0  0  0  0  0
   23.0874  -13.0296  -18.5971 C   0  0  0  0  0  0  0  0  0  0  0  0
   22.3366  -13.6447  -17.8000 O   0  0  0  0  0  0  0  0  0  0  0  0
   23.6363  -11.7958  -18.1649 N   0  0  0  0  0  0  0  0  0  0  0  0
   23.4724  -11.1965  -16.8894 C   0  0  1  0  0  0  0  0  0  0  0  0
   24.7334  -11.0943  -16.0526 C   0  0  0  0  0  0  0  0  0  0  0  0
   25.3439  -12.3785  -15.7169 C   0  0  0  0  0  0  0  0  0  0  0  0
   24.9043  -13.1434  -14.6744 C   0  0  0  0  0  0  0  0  0  0  0  0
   25.4981  -14.3711  -14.3544 C   0  0  0  0  0  0  0  0  0  0  0  0
   26.5549  -14.8460  -15.0924 C   0  0  0  0  0  0  0  0  0  0  0  0
   27.0172  -14.0827  -16.1577 C   0  0  0  0  0  0  0  0  0  0  0  0
   26.4193  -12.8847  -16.4505 C   0  0  0  0  0  0  0  0  0  0  0  0
   22.8408   -9.8628  -16.9298 C   0  0  0  0  0  0  0  0  0  0  0  0
   23.2942   -8.9564  -17.7112 O   0  0  0  0  0  0  0  0  0  0  0  0
   21.7263   -9.4702  -16.1496 N   0  0  0  0  0  0  0  0  0  0  0  0
   21.1020   -8.1664  -16.2466 C   0  0  1  0  0  0  0  0  0  0  0  0
   19.6032   -8.2521  -16.0585 C   0  0  0  0  0  0  0  0  0  0  0  0
   18.9858   -6.8796  -16.1048 C   0  0  0  0  0  0  0  0  0  0  0  0
   19.4222   -5.8087  -16.8338 C   0  0  0  0  0  0  0  0  0  0  0  0
   18.5916   -4.7863  -16.5886 N   0  0  0  0  0  0  0  0  0  0  0  0
   17.6294   -5.1826  -15.7146 C   0  0  0  0  0  0  0  0  0  0  0  0
   17.8902   -6.4668  -15.4322 N   0  0  0  0  0  0  0  0  0  0  0  0
   21.6343   -7.3206  -15.1537 C   0  0  0  0  0  0  0  0  0  0  0  0
   21.7700   -5.9523  -15.3136 O   0  0  0  0  0  0  0  0  0  0  0  0
   21.9750   -7.8273  -14.0557 O   0  0  0  0  0  0  0  0  0  0  0  0
  2  1  1  0
  3  2  2  0
  4  2  1  0
  5  4  1  0
  5  6  1  0
  6  7  1  1
  8  9  2  0
  8  6  1  0
 10  8  1  0
 11 10  1  0
 11 12  1  6
 13 12  1  0
 13 18  1  0
 14 13  2  0
 15 14  1  0
 15 16  2  0
 16 17  1  0
 17 18  2  0
 19 11  1  0
 20 19  2  0
 21 19  1  0
 22 21  1  0
 23 24  1  0
 22 23  1  1
 24 28  1  0
 25 24  2  0
 25 26  1  0
 26 27  1  0
 28 27  2  0
 29 22  1  0
 29 30  1  0
 31 29  2  0
M  END
$$$$
