QFH.pdb
     RDKit          3D

 31 32  0  0  1  0  0  0  0  0999 V2000
   10.6620  -15.9415    8.6724 N   0  0  0  0  0  0  0  0  0  0  0  0
   10.3617  -14.6700    8.1633 C   0  0  0  0  0  0  0  0  0  0  0  0
    9.5251  -13.9352    8.7430 O   0  0  0  0  0  0  0  0  0  0  0  0
   11.0256  -14.1710    6.9331 C   0  0  0  0  0  0  0  0  0  0  0  0
   12.0779  -15.1410    6.4374 C   0  0  0  0  0  0  0  0  0  0  0  0
   13.2356  -14.3233    5.9242 C   0  0  2  0  0  0  0  0  0  0  0  0
   12.9455  -13.7608    4.6475 N   0  0  0  0  0  0  0  0  0  0  0  0
   14.5038  -15.0572    5.8904 C   0  0  0  0  0  0  0  0  0  0  0  0
   14.7516  -15.7722    4.8880 O   0  0  0  0  0  0  0  0  0  0  0  0
   15.4749  -15.0116    6.9225 N   0  0  0  0  0  0  0  0  0  0  0  0
   16.6908  -15.7408    6.9741 C   0  0  1  0  0  0  0  0  0  0  0  0
   17.9533  -14.8999    6.9760 C   0  0  0  0  0  0  0  0  0  0  0  0
   18.2230  -14.2085    5.7175 C   0  0  0  0  0  0  0  0  0  0  0  0
   18.4411  -12.8617    5.6589 C   0  0  0  0  0  0  0  0  0  0  0  0
   18.6933  -12.2041    4.4480 C   0  0  0  0  0  0  0  0  0  0  0  0
   18.7288  -12.9077    3.2686 C   0  0  0  0  0  0  0  0  0  0  0  0
   18.5095  -14.2794    3.3068 C   0  0  0  0  0  0  0  0  0  0  0  0
   18.2647  -14.8995    4.5043 C   0  0  0  0  0  0  0  0  0  0  0  0
   16.7728  -16.6917    8.1002 C   0  0  0  0  0  0  0  0  0  0  0  0
   16.3030  -16.3763    9.2480 O   0  0  0  0  0  0  0  0  0  0  0  0
   17.3489  -17.9833    8.0297 N   0  0  0  0  0  0  0  0  0  0  0  0
   17.4311  -18.8850    9.1609 C   0  0  1  0  0  0  0  0  0  0  0  0
   17.5101  -20.3290    8.7164 C   0  0  0  0  0  0  0  0  0  0  0  0
   16.1709  -20.8016    8.2162 C   0  0  0  0  0  0  0  0  0  0  0  0
   14.9485  -20.5292    8.7643 C   0  0  0  0  0  0  0  0  0  0  0  0
   14.0226  -21.1402    8.0128 N   0  0  0  0  0  0  0  0  0  0  0  0
   14.6296  -21.8002    6.9918 C   0  0  0  0  0  0  0  0  0  0  0  0
   15.9439  -21.5792    7.1359 N   0  0  0  0  0  0  0  0  0  0  0  0
   18.6795  -18.5832    9.8981 C   0  0  0  0  0  0  0  0  0  0  0  0
   18.9663  -19.2090   11.0991 O   0  0  0  0  0  0  0  0  0  0  0  0
   19.5068  -17.7512    9.4491 O   0  0  0  0  0  0  0  0  0  0  0  0
  2  1  1  0
  3  2  2  0
  4  2  1  0
  5  4  1  0
  5  6  1  0
  6  7  1  6
  8  9  2  0
  8  6  1  0
 10  8  1  0
 11 10  1  0
 11 12  1  1
 13 12  1  0
 13 18  1  0
 14 13  2  0
 15 14  1  0
 15 16  2  0
 16 17  1  0
 17 18  2  0
 19 11  1  0
 20 19  2  0
 21 19  1  0
 22 21  1  0
 23 24  1  0
 22 23  1  6
 24 28  1  0
 25 24  2  0
 25 26  1  0
 26 27  1  0
 28 27  2  0
 29 22  1  0
 29 30  1  0
 31 29  2  0
M  END
$$$$
