QFH.pdb
     RDKit          3D

 31 32  0  0  1  0  0  0  0  0999 V2000
   46.6240   -8.7607   -5.4225 N   0  0  0  0  0  0  0  0  0  0  0  0
   45.4060   -9.1082   -4.8211 C   0  0  0  0  0  0  0  0  0  0  0  0
   45.0650   -8.5878   -3.7308 O   0  0  0  0  0  0  0  0  0  0  0  0
   44.5003  -10.0949   -5.4607 C   0  0  0  0  0  0  0  0  0  0  0  0
   43.6544   -9.4537   -6.5411 C   0  0  0  0  0  0  0  0  0  0  0  0
   42.6175  -10.4650   -6.9585 C   0  0  2  0  0  0  0  0  0  0  0  0
   43.2196  -11.5947   -7.5843 N   0  0  0  0  0  0  0  0  0  0  0  0
   41.5599   -9.9065   -7.8057 C   0  0  0  0  0  0  0  0  0  0  0  0
   41.6716  -10.0216   -9.0514 O   0  0  0  0  0  0  0  0  0  0  0  0
   40.4118   -9.2407   -7.3067 N   0  0  0  0  0  0  0  0  0  0  0  0
   39.3227   -8.7444   -8.0684 C   0  0  1  0  0  0  0  0  0  0  0  0
   37.9521   -9.2282   -7.6343 C   0  0  0  0  0  0  0  0  0  0  0  0
   37.6647  -10.6197   -7.9745 C   0  0  0  0  0  0  0  0  0  0  0  0
   37.4935  -11.5820   -7.0207 C   0  0  0  0  0  0  0  0  0  0  0  0
   37.2240  -12.9156   -7.3540 C   0  0  0  0  0  0  0  0  0  0  0  0
   37.1228  -13.2969   -8.6698 C   0  0  0  0  0  0  0  0  0  0  0  0
   37.2936  -12.3326   -9.6557 C   0  0  0  0  0  0  0  0  0  0  0  0
   37.5566  -11.0344   -9.3039 C   0  0  0  0  0  0  0  0  0  0  0  0
   39.2790   -7.2719   -8.1639 C   0  0  0  0  0  0  0  0  0  0  0  0
   39.5422   -6.5498   -7.1408 O   0  0  0  0  0  0  0  0  0  0  0  0
   38.9588   -6.5451   -9.3363 N   0  0  0  0  0  0  0  0  0  0  0  0
   39.0889   -5.1063   -9.4456 C   0  0  1  0  0  0  0  0  0  0  0  0
   39.1237   -4.6593  -10.8906 C   0  0  0  0  0  0  0  0  0  0  0  0
   40.4474   -5.0060  -11.5189 C   0  0  0  0  0  0  0  0  0  0  0  0
   41.5400   -5.5344  -10.8897 C   0  0  0  0  0  0  0  0  0  0  0  0
   42.5019   -5.6884  -11.8097 N   0  0  0  0  0  0  0  0  0  0  0  0
   42.0455   -5.2680  -13.0186 C   0  0  0  0  0  0  0  0  0  0  0  0
   40.7864   -4.8546  -12.8171 N   0  0  0  0  0  0  0  0  0  0  0  0
   37.8950   -4.4893   -8.8234 C   0  0  0  0  0  0  0  0  0  0  0  0
   36.8396   -5.2682   -8.3812 O   0  0  0  0  0  0  0  0  0  0  0  0
   37.8138   -3.2435   -8.6831 O   0  0  0  0  0  0  0  0  0  0  0  0
  2  1  1  0
  3  2  2  0
  4  2  1  0
  5  4  1  0
  5  6  1  0
  6  7  1  6
  8  9  2  0
  8  6  1  0
 10  8  1  0
 11 10  1  0
 11 12  1  1
 13 12  1  0
 13 18  1  0
 14 13  2  0
 15 14  1  0
 15 16  2  0
 16 17  1  0
 17 18  2  0
 19 11  1  0
 20 19  2  0
 21 19  1  0
 22 21  1  0
 23 24  1  0
 22 23  1  6
 24 28  1  0
 25 24  2  0
 25 26  1  0
 26 27  1  0
 28 27  2  0
 29 22  1  0
 29 30  1  0
 31 29  2  0
M  END
$$$$
