ERK.pdb
     RDKit          3D

 30 29  0  0  1  0  0  0  0  0999 V2000
   13.7502  -16.1310   19.3283 N   0  0  0  0  0  0  0  0  0  0  0  0
   13.0902  -17.2931   19.9483 C   0  0  1  0  0  0  0  0  0  0  0  0
   14.1351  -18.2889   20.3244 C   0  0  0  0  0  0  0  0  0  0  0  0
   13.5932  -19.4902   21.0217 C   0  0  0  0  0  0  0  0  0  0  0  0
   13.9948  -20.7862   20.4794 C   0  0  0  0  0  0  0  0  0  0  0  0
   15.0566  -21.3384   20.8373 O   0  0  0  0  0  0  0  0  0  0  0  0
   12.3022  -16.8293   21.1282 C   0  0  0  0  0  0  0  0  0  0  0  0
   12.9321  -16.3179   22.0819 O   0  0  0  0  0  0  0  0  0  0  0  0
   13.2379  -21.4907   19.5396 O   0  0  0  0  0  0  0  0  0  0  0  0
    7.5226  -12.7392   17.5054 N   0  0  0  0  0  0  0  0  0  0  0  0
    7.5701  -13.8860   18.3430 C   0  0  0  0  0  0  0  0  0  0  0  0
    8.2626  -14.9026   17.9717 N   0  0  0  0  0  0  0  0  0  0  0  0
    6.8712  -13.9328   19.5783 N   0  0  0  0  0  0  0  0  0  0  0  0
    7.0073  -15.0814   20.4686 C   0  0  0  0  0  0  0  0  0  0  0  0
    8.4362  -15.1204   20.9477 C   0  0  0  0  0  0  0  0  0  0  0  0
    8.6561  -16.3524   21.8075 C   0  0  0  0  0  0  0  0  0  0  0  0
   10.0867  -16.4526   22.2573 C   0  0  2  0  0  0  0  0  0  0  0  0
   10.8903  -16.9526   21.1900 N   0  0  0  0  0  0  0  0  0  0  0  0
   10.2221  -17.2747   23.4956 C   0  0  0  0  0  0  0  0  0  0  0  0
   10.6172  -18.4796   23.4491 O   0  0  0  0  0  0  0  0  0  0  0  0
    8.3173  -15.7924   18.4858 N   0  0  0  0  0  0  0  0  0  0  0  0
    9.9209  -16.7560   24.7585 C   0  0  2  0  0  0  0  0  0  0  0  0
   10.0332  -17.5975   25.9851 C   0  0  0  0  0  0  0  0  0  0  0  0
    9.9089  -16.7329   27.1694 C   0  0  0  0  0  0  0  0  0  0  0  0
   10.7039  -15.5611   27.4308 C   0  0  0  0  0  0  0  0  0  0  0  0
   10.5376  -14.6681   28.5741 C   0  0  0  0  0  0  0  0  0  0  0  0
   11.4564  -13.4583   28.5618 N   0  0  0  0  0  0  0  0  0  0  0  0
   11.1661  -12.6871   29.7532 C   0  0  0  0  0  0  0  0  0  0  0  0
    8.9808  -18.6192   25.7826 O   0  0  0  0  0  0  0  0  0  0  0  0
    8.0666  -18.4453   24.9580 O   0  0  0  0  0  0  0  0  0  0  0  0
  2  1  1  1
  2  3  1  0
  3  4  1  0
  4  5  1  0
  5  9  1  0
  6  5  2  0
  7  2  1  0
  7  8  2  0
 11 10  1  0
 11 12  2  0
 13 11  1  0
 14 13  1  0
 15 16  1  0
 15 14  1  0
 17 16  1  6
 17 18  1  0
 18  7  1  0
 19 21  1  0
 19 17  1  0
 20 19  2  0
 22 21  1  0
 22 28  1  0
 23 24  1  0
 22 23  1  6
 25 24  1  0
 26 25  1  0
 26 27  1  0
 28 30  1  0
 29 28  2  0
M  END
$$$$
