ERK.pdb
     RDKit          3D

 30 29  0  0  1  0  0  0  0  0999 V2000
   11.5278  -19.8815   18.5433 N   0  0  0  0  0  0  0  0  0  0  0  0
   12.6423  -18.9187   18.5064 C   0  0  1  0  0  0  0  0  0  0  0  0
   12.9459  -18.5968   17.0819 C   0  0  0  0  0  0  0  0  0  0  0  0
   11.8141  -17.9467   16.3612 C   0  0  0  0  0  0  0  0  0  0  0  0
   12.0215  -17.6842   14.9389 C   0  0  0  0  0  0  0  0  0  0  0  0
   13.0522  -17.1101   14.5285 O   0  0  0  0  0  0  0  0  0  0  0  0
   12.2606  -17.7066   19.2895 C   0  0  0  0  0  0  0  0  0  0  0  0
   13.1321  -16.8223   19.4518 O   0  0  0  0  0  0  0  0  0  0  0  0
   11.1023  -18.0477   13.9512 O   0  0  0  0  0  0  0  0  0  0  0  0
    7.6715  -11.6743   19.7597 N   0  0  0  0  0  0  0  0  0  0  0  0
    7.5994  -12.7841   18.8755 C   0  0  0  0  0  0  0  0  0  0  0  0
    7.7821  -12.5941   17.6180 N   0  0  0  0  0  0  0  0  0  0  0  0
    7.3308  -14.0954   19.3500 N   0  0  0  0  0  0  0  0  0  0  0  0
    7.3762  -14.3952   20.7778 C   0  0  0  0  0  0  0  0  0  0  0  0
    8.7938  -14.7789   21.1184 C   0  0  0  0  0  0  0  0  0  0  0  0
    9.1612  -16.0697   20.4081 C   0  0  0  0  0  0  0  0  0  0  0  0
   10.5854  -16.4586   20.6900 C   0  0  2  0  0  0  0  0  0  0  0  0
   10.9637  -17.5398   19.8400 N   0  0  0  0  0  0  0  0  0  0  0  0
   10.7979  -16.7767   22.1326 C   0  0  0  0  0  0  0  0  0  0  0  0
    9.8465  -17.1841   22.8667 O   0  0  0  0  0  0  0  0  0  0  0  0
    7.7378  -13.3322   16.9023 N   0  0  0  0  0  0  0  0  0  0  0  0
   12.0507  -16.6407   22.7382 C   0  0  1  0  0  0  0  0  0  0  0  0
   12.3801  -17.3640   24.0005 C   0  0  0  0  0  0  0  0  0  0  0  0
   12.5486  -18.7947   23.7002 C   0  0  0  0  0  0  0  0  0  0  0  0
   12.4077  -19.8664   24.6517 C   0  0  0  0  0  0  0  0  0  0  0  0
   12.5809  -21.2854   24.3540 C   0  0  0  0  0  0  0  0  0  0  0  0
   12.3402  -22.2068   25.5376 N   0  0  0  0  0  0  0  0  0  0  0  0
   12.6365  -23.5551   25.0987 C   0  0  0  0  0  0  0  0  0  0  0  0
   13.5688  -16.6350   24.4987 O   0  0  0  0  0  0  0  0  0  0  0  0
   13.9938  -16.8123   25.6537 O   0  0  0  0  0  0  0  0  0  0  0  0
  2  1  1  6
  2  3  1  0
  3  4  1  0
  4  5  1  0
  5  9  1  0
  6  5  2  0
  7  2  1  0
  7  8  2  0
 11 10  1  0
 11 12  2  0
 13 11  1  0
 14 13  1  0
 15 16  1  0
 15 14  1  0
 17 16  1  1
 17 18  1  0
 18  7  1  0
 19 21  1  0
 19 17  1  0
 20 19  2  0
 22 21  1  0
 22 28  1  0
 23 24  1  0
 22 23  1  1
 25 24  1  0
 26 25  1  0
 26 27  1  0
 28 30  1  0
 29 28  2  0
M  END
$$$$
