ERK.pdb
     RDKit          3D

 30 29  0  0  1  0  0  0  0  0999 V2000
    8.8180  -21.0496   21.5482 N   0  0  0  0  0  0  0  0  0  0  0  0
    9.9730  -20.6190   20.7413 C   0  0  1  0  0  0  0  0  0  0  0  0
    9.7232  -20.9888   19.3180 C   0  0  0  0  0  0  0  0  0  0  0  0
    8.2837  -20.9451   18.9323 C   0  0  0  0  0  0  0  0  0  0  0  0
    7.9704  -21.3510   17.5641 C   0  0  0  0  0  0  0  0  0  0  0  0
    8.8695  -21.6890   16.7656 O   0  0  0  0  0  0  0  0  0  0  0  0
   10.1646  -19.1491   20.9170 C   0  0  0  0  0  0  0  0  0  0  0  0
   11.1881  -18.6330   20.4131 O   0  0  0  0  0  0  0  0  0  0  0  0
    6.6692  -21.3908   17.0562 O   0  0  0  0  0  0  0  0  0  0  0  0
    8.2101  -11.5040   20.3507 N   0  0  0  0  0  0  0  0  0  0  0  0
    8.2714  -12.5512   19.3923 C   0  0  0  0  0  0  0  0  0  0  0  0
    8.7966  -12.3168   18.2434 N   0  0  0  0  0  0  0  0  0  0  0  0
    7.7664  -13.8479   19.6759 N   0  0  0  0  0  0  0  0  0  0  0  0
    7.1320  -14.1366   20.9584 C   0  0  0  0  0  0  0  0  0  0  0  0
    8.1718  -14.7662   21.8501 C   0  0  0  0  0  0  0  0  0  0  0  0
    8.0392  -16.2782   21.8055 C   0  0  0  0  0  0  0  0  0  0  0  0
    9.3866  -16.9430   21.8407 C   0  0  2  0  0  0  0  0  0  0  0  0
    9.2347  -18.3449   21.6249 N   0  0  0  0  0  0  0  0  0  0  0  0
   10.1187  -16.6453   23.1068 C   0  0  0  0  0  0  0  0  0  0  0  0
    9.4998  -16.4360   24.1945 O   0  0  0  0  0  0  0  0  0  0  0  0
    8.8317  -12.9919   17.4675 N   0  0  0  0  0  0  0  0  0  0  0  0
   11.5147  -16.5838   23.1514 C   0  0  1  0  0  0  0  0  0  0  0  0
   12.2367  -16.3621   24.4377 C   0  0  0  0  0  0  0  0  0  0  0  0
   12.3998  -17.6546   25.1219 C   0  0  0  0  0  0  0  0  0  0  0  0
   11.9739  -17.9433   26.4668 C   0  0  0  0  0  0  0  0  0  0  0  0
   12.1643  -19.2167   27.1558 C   0  0  0  0  0  0  0  0  0  0  0  0
   11.7017  -19.2202   28.6028 N   0  0  0  0  0  0  0  0  0  0  0  0
   12.0358  -20.5164   29.1566 C   0  0  0  0  0  0  0  0  0  0  0  0
   13.4709  -15.6658   24.0084 O   0  0  0  0  0  0  0  0  0  0  0  0
   14.3039  -15.2637   24.8393 O   0  0  0  0  0  0  0  0  0  0  0  0
  2  1  1  1
  2  3  1  0
  3  4  1  0
  4  5  1  0
  5  9  1  0
  6  5  2  0
  7  2  1  0
  7  8  2  0
 11 10  1  0
 11 12  2  0
 13 11  1  0
 14 13  1  0
 15 16  1  0
 15 14  1  0
 17 16  1  1
 17 18  1  0
 18  7  1  0
 19 21  1  0
 19 17  1  0
 20 19  2  0
 22 21  1  0
 22 28  1  0
 23 24  1  0
 22 23  1  1
 25 24  1  0
 26 25  1  0
 26 27  1  0
 28 30  1  0
 29 28  2  0
M  END
$$$$
