ERK.pdb
     RDKit          3D

 30 29  0  0  1  0  0  0  0  0999 V2000
   13.4291  -16.6528   19.1804 N   0  0  0  0  0  0  0  0  0  0  0  0
   12.6082  -17.6143   19.9368 C   0  0  1  0  0  0  0  0  0  0  0  0
   13.4462  -18.8057   20.2582 C   0  0  0  0  0  0  0  0  0  0  0  0
   14.0559  -19.4492   19.0594 C   0  0  0  0  0  0  0  0  0  0  0  0
   14.8594  -20.6441   19.3077 C   0  0  0  0  0  0  0  0  0  0  0  0
   15.2240  -20.9524   20.4620 O   0  0  0  0  0  0  0  0  0  0  0  0
   12.0862  -16.9442   21.1642 C   0  0  0  0  0  0  0  0  0  0  0  0
   12.9056  -16.3245   21.8801 O   0  0  0  0  0  0  0  0  0  0  0  0
   15.2719  -21.5136   18.2947 O   0  0  0  0  0  0  0  0  0  0  0  0
    8.2720  -14.7131   18.4454 N   0  0  0  0  0  0  0  0  0  0  0  0
    7.9575  -13.4063   18.9060 C   0  0  0  0  0  0  0  0  0  0  0  0
    8.1077  -12.4099   18.1089 N   0  0  0  0  0  0  0  0  0  0  0  0
    7.4817  -13.1781   20.2244 N   0  0  0  0  0  0  0  0  0  0  0  0
    7.4049  -14.2711   21.1887 C   0  0  0  0  0  0  0  0  0  0  0  0
    8.8143  -14.7135   21.4899 C   0  0  0  0  0  0  0  0  0  0  0  0
    8.7888  -15.9006   22.4363 C   0  0  0  0  0  0  0  0  0  0  0  0
   10.1772  -16.4065   22.7108 C   0  0  2  0  0  0  0  0  0  0  0  0
   10.7156  -16.9934   21.5274 N   0  0  0  0  0  0  0  0  0  0  0  0
   10.2052  -17.3483   23.8682 C   0  0  0  0  0  0  0  0  0  0  0  0
   10.0957  -18.6017   23.7032 O   0  0  0  0  0  0  0  0  0  0  0  0
    8.0064  -11.4226   18.3810 N   0  0  0  0  0  0  0  0  0  0  0  0
   10.3530  -16.8938   25.1821 C   0  0  2  0  0  0  0  0  0  0  0  0
   10.3818  -17.8465   26.3295 C   0  0  0  0  0  0  0  0  0  0  0  0
   10.9918  -17.1774   27.4896 C   0  0  0  0  0  0  0  0  0  0  0  0
   11.1619  -17.7641   28.7936 C   0  0  0  0  0  0  0  0  0  0  0  0
   11.8179  -17.1201   29.9281 C   0  0  0  0  0  0  0  0  0  0  0  0
   11.7520  -17.9137   31.2218 N   0  0  0  0  0  0  0  0  0  0  0  0
   12.3163  -17.0816   32.2646 C   0  0  0  0  0  0  0  0  0  0  0  0
    8.9642  -18.2554   26.4554 O   0  0  0  0  0  0  0  0  0  0  0  0
    8.0498  -17.5566   25.9847 O   0  0  0  0  0  0  0  0  0  0  0  0
  2  1  1  1
  2  3  1  0
  3  4  1  0
  4  5  1  0
  5  9  1  0
  6  5  2  0
  7  2  1  0
  7  8  2  0
 11 10  1  0
 11 12  2  0
 13 11  1  0
 14 13  1  0
 15 16  1  0
 15 14  1  0
 17 16  1  6
 17 18  1  0
 18  7  1  0
 19 21  1  0
 19 17  1  0
 20 19  2  0
 22 21  1  0
 22 28  1  0
 23 24  1  0
 22 23  1  6
 25 24  1  0
 26 25  1  0
 26 27  1  0
 28 30  1  0
 29 28  2  0
M  END
$$$$
