ERK.pdb
     RDKit          3D

 30 29  0  0  1  0  0  0  0  0999 V2000
   14.6034  -14.3319   18.2577 N   0  0  0  0  0  0  0  0  0  0  0  0
   14.5215  -15.4138   19.2543 C   0  0  1  0  0  0  0  0  0  0  0  0
   15.8074  -15.4642   20.0085 C   0  0  0  0  0  0  0  0  0  0  0  0
   16.8578  -16.2888   19.3454 C   0  0  0  0  0  0  0  0  0  0  0  0
   18.1097  -16.4512   20.0812 C   0  0  0  0  0  0  0  0  0  0  0  0
   18.5521  -17.5838   20.3669 O   0  0  0  0  0  0  0  0  0  0  0  0
   13.3529  -15.1607   20.1480 C   0  0  0  0  0  0  0  0  0  0  0  0
   13.2753  -14.0384   20.6979 O   0  0  0  0  0  0  0  0  0  0  0  0
   18.8899  -15.3749   20.5116 O   0  0  0  0  0  0  0  0  0  0  0  0
    6.6644  -13.2059   18.7817 N   0  0  0  0  0  0  0  0  0  0  0  0
    8.0386  -13.1823   19.1420 C   0  0  0  0  0  0  0  0  0  0  0  0
    8.7932  -12.2573   18.6671 N   0  0  0  0  0  0  0  0  0  0  0  0
    8.5945  -14.1561   20.0135 N   0  0  0  0  0  0  0  0  0  0  0  0
    7.8725  -15.3893   20.3106 C   0  0  0  0  0  0  0  0  0  0  0  0
    8.7225  -16.1988   21.2566 C   0  0  0  0  0  0  0  0  0  0  0  0
   10.0125  -16.6065   20.5671 C   0  0  0  0  0  0  0  0  0  0  0  0
   11.2003  -15.9326   21.1946 C   0  0  2  0  0  0  0  0  0  0  0  0
   12.3537  -16.1403   20.3813 N   0  0  0  0  0  0  0  0  0  0  0  0
   11.4153  -16.3846   22.6007 C   0  0  0  0  0  0  0  0  0  0  0  0
   12.1795  -17.3606   22.8717 O   0  0  0  0  0  0  0  0  0  0  0  0
    9.8148  -12.2179   18.7847 N   0  0  0  0  0  0  0  0  0  0  0  0
   10.7865  -15.7552   23.6792 C   0  0  2  0  0  0  0  0  0  0  0  0
   10.8846  -16.3098   25.0604 C   0  0  0  0  0  0  0  0  0  0  0  0
   10.1115  -15.4536   25.9740 C   0  0  0  0  0  0  0  0  0  0  0  0
   10.5211  -15.0690   27.2999 C   0  0  0  0  0  0  0  0  0  0  0  0
    9.7635  -14.2013   28.1973 C   0  0  0  0  0  0  0  0  0  0  0  0
   10.3760  -14.0422   29.5784 N   0  0  0  0  0  0  0  0  0  0  0  0
    9.5967  -13.0432   30.2806 C   0  0  0  0  0  0  0  0  0  0  0  0
   10.4209  -17.7057   24.8899 O   0  0  0  0  0  0  0  0  0  0  0  0
   10.9429  -18.6382   25.5255 O   0  0  0  0  0  0  0  0  0  0  0  0
  2  1  1  6
  2  3  1  0
  3  4  1  0
  4  5  1  0
  5  9  1  0
  6  5  2  0
  7  2  1  0
  7  8  2  0
 11 10  1  0
 11 12  2  0
 13 11  1  0
 14 13  1  0
 15 16  1  0
 15 14  1  0
 17 16  1  6
 17 18  1  0
 18  7  1  0
 19 21  1  0
 19 17  1  0
 20 19  2  0
 22 21  1  0
 22 28  1  0
 23 24  1  0
 22 23  1  1
 25 24  1  0
 26 25  1  0
 26 27  1  0
 28 30  1  0
 29 28  2  0
M  END
$$$$
