ERK.pdb
     RDKit          3D

 30 29  0  0  1  0  0  0  0  0999 V2000
   13.7532  -14.1301   17.3286 N   0  0  0  0  0  0  0  0  0  0  0  0
   13.9731  -14.9076   18.5604 C   0  0  1  0  0  0  0  0  0  0  0  0
   15.3317  -14.5896   19.0876 C   0  0  0  0  0  0  0  0  0  0  0  0
   16.4262  -15.3485   18.4174 C   0  0  0  0  0  0  0  0  0  0  0  0
   17.7860  -15.0387   18.8532 C   0  0  0  0  0  0  0  0  0  0  0  0
   18.3482  -15.7049   19.7478 O   0  0  0  0  0  0  0  0  0  0  0  0
   12.8963  -14.5769   19.5399 C   0  0  0  0  0  0  0  0  0  0  0  0
   12.7034  -13.3682   19.8039 O   0  0  0  0  0  0  0  0  0  0  0  0
   18.5440  -13.9961   18.3138 O   0  0  0  0  0  0  0  0  0  0  0  0
    7.0348  -12.5994   17.9219 N   0  0  0  0  0  0  0  0  0  0  0  0
    7.5410  -13.6821   17.1535 C   0  0  0  0  0  0  0  0  0  0  0  0
    7.6951  -13.5311   15.8870 N   0  0  0  0  0  0  0  0  0  0  0  0
    7.8797  -14.9239   17.7534 N   0  0  0  0  0  0  0  0  0  0  0  0
    7.8201  -15.0928   19.2020 C   0  0  0  0  0  0  0  0  0  0  0  0
    9.1351  -14.6233   19.7704 C   0  0  0  0  0  0  0  0  0  0  0  0
    9.7584  -15.7291   20.6037 C   0  0  0  0  0  0  0  0  0  0  0  0
   11.1007  -15.3154   21.1385 C   0  0  2  0  0  0  0  0  0  0  0  0
   12.1069  -15.5780   20.1621 N   0  0  0  0  0  0  0  0  0  0  0  0
   11.4019  -15.9692   22.4460 C   0  0  0  0  0  0  0  0  0  0  0  0
   12.1086  -17.0210   22.5116 O   0  0  0  0  0  0  0  0  0  0  0  0
    8.0318  -14.2635   15.2472 N   0  0  0  0  0  0  0  0  0  0  0  0
   10.9207  -15.4539   23.6533 C   0  0  2  0  0  0  0  0  0  0  0  0
   11.1879  -16.1447   24.9481 C   0  0  0  0  0  0  0  0  0  0  0  0
   10.9747  -15.1923   26.0495 C   0  0  0  0  0  0  0  0  0  0  0  0
   11.1661  -15.4808   27.4472 C   0  0  0  0  0  0  0  0  0  0  0  0
   10.9762  -14.5285   28.5377 C   0  0  0  0  0  0  0  0  0  0  0  0
   11.2084  -15.1086   29.9224 N   0  0  0  0  0  0  0  0  0  0  0  0
   10.9504  -14.0518   30.8790 C   0  0  0  0  0  0  0  0  0  0  0  0
   10.2878  -17.3189   24.8883 O   0  0  0  0  0  0  0  0  0  0  0  0
    9.2190  -17.2776   24.2541 O   0  0  0  0  0  0  0  0  0  0  0  0
  2  1  1  6
  2  3  1  0
  3  4  1  0
  4  5  1  0
  5  9  1  0
  6  5  2  0
  7  2  1  0
  7  8  2  0
 11 10  1  0
 11 12  2  0
 13 11  1  0
 14 13  1  0
 15 16  1  0
 15 14  1  0
 17 16  1  6
 17 18  1  0
 18  7  1  0
 19 21  1  0
 19 17  1  0
 20 19  2  0
 22 21  1  0
 22 28  1  0
 23 24  1  0
 22 23  1  6
 25 24  1  0
 26 25  1  0
 26 27  1  0
 28 30  1  0
 29 28  2  0
M  END
$$$$
