ERK.pdb
     RDKit          3D

 30 29  0  0  1  0  0  0  0  0999 V2000
   11.5617  -19.4686   19.6587 N   0  0  0  0  0  0  0  0  0  0  0  0
   12.6987  -18.6486   20.1117 C   0  0  1  0  0  0  0  0  0  0  0  0
   13.1718  -17.8175   18.9670 C   0  0  0  0  0  0  0  0  0  0  0  0
   12.6094  -18.2361   17.6512 C   0  0  0  0  0  0  0  0  0  0  0  0
   12.9954  -17.4260   16.4981 C   0  0  0  0  0  0  0  0  0  0  0  0
   12.1752  -16.6756   15.9285 O   0  0  0  0  0  0  0  0  0  0  0  0
   12.2628  -17.8158   21.2713 C   0  0  0  0  0  0  0  0  0  0  0  0
   13.0856  -16.9958   21.7387 O   0  0  0  0  0  0  0  0  0  0  0  0
   14.2837  -17.4292   15.9570 O   0  0  0  0  0  0  0  0  0  0  0  0
    8.6902  -13.5945   19.1911 N   0  0  0  0  0  0  0  0  0  0  0  0
    8.1189  -13.1735   20.4220 C   0  0  0  0  0  0  0  0  0  0  0  0
    8.0339  -11.9165   20.6739 N   0  0  0  0  0  0  0  0  0  0  0  0
    7.6409  -14.1093   21.3773 N   0  0  0  0  0  0  0  0  0  0  0  0
    7.6805  -15.5421   21.1015 C   0  0  0  0  0  0  0  0  0  0  0  0
    9.0871  -16.0180   21.3616 C   0  0  0  0  0  0  0  0  0  0  0  0
    9.1737  -16.6314   22.7479 C   0  0  0  0  0  0  0  0  0  0  0  0
   10.5342  -17.2193   22.9979 C   0  0  2  0  0  0  0  0  0  0  0  0
   10.9684  -17.9309   21.8404 N   0  0  0  0  0  0  0  0  0  0  0  0
   10.5528  -18.0726   24.2223 C   0  0  0  0  0  0  0  0  0  0  0  0
    9.8333  -19.1137   24.3132 O   0  0  0  0  0  0  0  0  0  0  0  0
    7.6198  -11.5177   21.5274 N   0  0  0  0  0  0  0  0  0  0  0  0
   11.3613  -17.7644   25.3205 C   0  0  2  0  0  0  0  0  0  0  0  0
   11.3617  -18.6197   26.5425 C   0  0  0  0  0  0  0  0  0  0  0  0
   12.7473  -19.0047   26.8546 C   0  0  0  0  0  0  0  0  0  0  0  0
   13.4559  -20.1111   26.2653 C   0  0  0  0  0  0  0  0  0  0  0  0
   14.8385  -20.4783   26.5586 C   0  0  0  0  0  0  0  0  0  0  0  0
   15.3708  -21.6295   25.7224 N   0  0  0  0  0  0  0  0  0  0  0  0
   16.7384  -21.8649   26.1379 C   0  0  0  0  0  0  0  0  0  0  0  0
   10.6557  -17.7782   27.5355 O   0  0  0  0  0  0  0  0  0  0  0  0
   10.4304  -16.5756   27.3141 O   0  0  0  0  0  0  0  0  0  0  0  0
  2  1  1  6
  2  3  1  0
  3  4  1  0
  4  5  1  0
  5  9  1  0
  6  5  2  0
  7  2  1  0
  7  8  2  0
 11 10  1  0
 11 12  2  0
 13 11  1  0
 14 13  1  0
 15 16  1  0
 15 14  1  0
 17 16  1  6
 17 18  1  0
 18  7  1  0
 19 21  1  0
 19 17  1  0
 20 19  2  0
 22 21  1  0
 22 28  1  0
 23 24  1  0
 22 23  1  6
 25 24  1  0
 26 25  1  0
 26 27  1  0
 28 30  1  0
 29 28  2  0
M  END
$$$$
