ERK.pdb
     RDKit          3D

 30 29  0  0  1  0  0  0  0  0999 V2000
   12.8203  -18.8287   19.5683 N   0  0  0  0  0  0  0  0  0  0  0  0
   13.6912  -18.2575   20.6102 C   0  0  1  0  0  0  0  0  0  0  0  0
   14.8878  -17.6564   19.9530 C   0  0  0  0  0  0  0  0  0  0  0  0
   15.2367  -18.2913   18.6498 C   0  0  0  0  0  0  0  0  0  0  0  0
   16.5214  -17.9074   18.0693 C   0  0  0  0  0  0  0  0  0  0  0  0
   17.1759  -16.9444   18.5216 O   0  0  0  0  0  0  0  0  0  0  0  0
   12.9134  -17.2526   21.3933 C   0  0  0  0  0  0  0  0  0  0  0  0
   13.5252  -16.6000   22.2695 O   0  0  0  0  0  0  0  0  0  0  0  0
   17.1025  -18.5740   16.9874 O   0  0  0  0  0  0  0  0  0  0  0  0
    6.3417  -12.6419   18.5853 N   0  0  0  0  0  0  0  0  0  0  0  0
    7.5494  -13.3524   18.3496 C   0  0  0  0  0  0  0  0  0  0  0  0
    7.9675  -13.4907   17.1426 N   0  0  0  0  0  0  0  0  0  0  0  0
    8.3024  -13.9113   19.4160 N   0  0  0  0  0  0  0  0  0  0  0  0
    7.7289  -14.0260   20.7533 C   0  0  0  0  0  0  0  0  0  0  0  0
    8.8208  -14.4991   21.6789 C   0  0  0  0  0  0  0  0  0  0  0  0
    9.5801  -15.6450   21.0339 C   0  0  0  0  0  0  0  0  0  0  0  0
   10.7503  -16.0649   21.8785 C   0  0  2  0  0  0  0  0  0  0  0  0
   11.5305  -17.0271   21.1712 N   0  0  0  0  0  0  0  0  0  0  0  0
   10.3170  -16.5660   23.2159 C   0  0  0  0  0  0  0  0  0  0  0  0
    9.9637  -17.7726   23.3869 O   0  0  0  0  0  0  0  0  0  0  0  0
    8.8002  -14.0304   16.8703 N   0  0  0  0  0  0  0  0  0  0  0  0
   10.2810  -15.7313   24.3370 C   0  0  2  0  0  0  0  0  0  0  0  0
    9.9200  -16.2626   25.6833 C   0  0  0  0  0  0  0  0  0  0  0  0
   10.2444  -15.2483   26.6988 C   0  0  0  0  0  0  0  0  0  0  0  0
   10.1525  -15.4385   28.1233 C   0  0  0  0  0  0  0  0  0  0  0  0
   10.4752  -14.4314   29.1302 C   0  0  0  0  0  0  0  0  0  0  0  0
   10.2527  -14.8856   30.5627 N   0  0  0  0  0  0  0  0  0  0  0  0
   10.5875  -13.7694   31.4234 C   0  0  0  0  0  0  0  0  0  0  0  0
    8.4932  -16.6252   25.5240 O   0  0  0  0  0  0  0  0  0  0  0  0
    7.7682  -16.0355   24.7038 O   0  0  0  0  0  0  0  0  0  0  0  0
  2  1  1  6
  2  3  1  0
  3  4  1  0
  4  5  1  0
  5  9  1  0
  6  5  2  0
  7  2  1  0
  7  8  2  0
 11 10  1  0
 11 12  2  0
 13 11  1  0
 14 13  1  0
 15 16  1  0
 15 14  1  0
 17 16  1  6
 17 18  1  0
 18  7  1  0
 19 21  1  0
 19 17  1  0
 20 19  2  0
 22 21  1  0
 22 28  1  0
 23 24  1  0
 22 23  1  6
 25 24  1  0
 26 25  1  0
 26 27  1  0
 28 30  1  0
 29 28  2  0
M  END
$$$$
