ERK.pdb
     RDKit          3D

 30 29  0  0  1  0  0  0  0  0999 V2000
   12.2901  -18.0268   19.4340 N   0  0  0  0  0  0  0  0  0  0  0  0
   13.1095  -17.6534   20.6000 C   0  0  1  0  0  0  0  0  0  0  0  0
   14.2801  -16.8606   20.1245 C   0  0  0  0  0  0  0  0  0  0  0  0
   13.9251  -15.8063   19.1318 C   0  0  0  0  0  0  0  0  0  0  0  0
   15.0315  -14.9941   18.6307 C   0  0  0  0  0  0  0  0  0  0  0  0
   14.8395  -13.8479   18.1728 O   0  0  0  0  0  0  0  0  0  0  0  0
   12.2623  -16.8874   21.5612 C   0  0  0  0  0  0  0  0  0  0  0  0
   12.8365  -16.3302   22.5244 O   0  0  0  0  0  0  0  0  0  0  0  0
   16.3595  -15.4287   18.6259 O   0  0  0  0  0  0  0  0  0  0  0  0
    7.9639  -12.1522   19.8933 N   0  0  0  0  0  0  0  0  0  0  0  0
    7.8171  -12.8954   18.6912 C   0  0  0  0  0  0  0  0  0  0  0  0
    8.2061  -12.3744   17.5830 N   0  0  0  0  0  0  0  0  0  0  0  0
    7.2515  -14.1980   18.6879 N   0  0  0  0  0  0  0  0  0  0  0  0
    7.2018  -14.9921   19.9116 C   0  0  0  0  0  0  0  0  0  0  0  0
    8.5921  -15.0201   20.4938 C   0  0  0  0  0  0  0  0  0  0  0  0
    8.6278  -15.9502   21.6935 C   0  0  0  0  0  0  0  0  0  0  0  0
   10.0099  -16.0291   22.2789 C   0  0  2  0  0  0  0  0  0  0  0  0
   10.8558  -16.7802   21.4099 N   0  0  0  0  0  0  0  0  0  0  0  0
    9.9941  -16.5828   23.6648 C   0  0  0  0  0  0  0  0  0  0  0  0
   10.0856  -17.8301   23.8792 O   0  0  0  0  0  0  0  0  0  0  0  0
    8.1154  -12.8237   16.6617 N   0  0  0  0  0  0  0  0  0  0  0  0
    9.8783  -15.7550   24.7855 C   0  0  2  0  0  0  0  0  0  0  0  0
    9.8550  -16.3225   26.1648 C   0  0  0  0  0  0  0  0  0  0  0  0
   10.0503  -15.2313   27.1327 C   0  0  0  0  0  0  0  0  0  0  0  0
   10.3200  -15.4033   28.5367 C   0  0  0  0  0  0  0  0  0  0  0  0
   10.4951  -14.3197   29.4998 C   0  0  0  0  0  0  0  0  0  0  0  0
   10.7428  -14.7836   30.9250 N   0  0  0  0  0  0  0  0  0  0  0  0
   11.7868  -13.9429   31.4744 C   0  0  0  0  0  0  0  0  0  0  0  0
    8.5588  -17.0370   26.2066 O   0  0  0  0  0  0  0  0  0  0  0  0
    7.5729  -16.6168   25.5761 O   0  0  0  0  0  0  0  0  0  0  0  0
  2  1  1  6
  2  3  1  0
  3  4  1  0
  4  5  1  0
  5  9  1  0
  6  5  2  0
  7  2  1  0
  7  8  2  0
 11 10  1  0
 11 12  2  0
 13 11  1  0
 14 13  1  0
 15 16  1  0
 15 14  1  0
 17 16  1  6
 17 18  1  0
 18  7  1  0
 19 21  1  0
 19 17  1  0
 20 19  2  0
 22 21  1  0
 22 28  1  0
 23 24  1  0
 22 23  1  6
 25 24  1  0
 26 25  1  0
 26 27  1  0
 28 30  1  0
 29 28  2  0
M  END
$$$$
