ERK.pdb
     RDKit          3D

 30 29  0  0  1  0  0  0  0  0999 V2000
   12.4468  -19.3035   19.6368 N   0  0  0  0  0  0  0  0  0  0  0  0
   13.3496  -18.7370   20.6540 C   0  0  1  0  0  0  0  0  0  0  0  0
   14.5556  -18.1897   19.9677 C   0  0  0  0  0  0  0  0  0  0  0  0
   14.3112  -17.7983   18.5499 C   0  0  0  0  0  0  0  0  0  0  0  0
   15.4836  -17.3782   17.7860 C   0  0  0  0  0  0  0  0  0  0  0  0
   16.0861  -16.3170   18.0532 O   0  0  0  0  0  0  0  0  0  0  0  0
   12.6148  -17.6902   21.4237 C   0  0  0  0  0  0  0  0  0  0  0  0
   13.2694  -17.0052   22.2422 O   0  0  0  0  0  0  0  0  0  0  0  0
   16.0084  -18.1156   16.7215 O   0  0  0  0  0  0  0  0  0  0  0  0
    8.3845  -12.3342   19.9540 N   0  0  0  0  0  0  0  0  0  0  0  0
    8.1022  -13.4516   19.1229 C   0  0  0  0  0  0  0  0  0  0  0  0
    8.3463  -13.3713   17.8640 N   0  0  0  0  0  0  0  0  0  0  0  0
    7.5578  -14.6518   19.6518 N   0  0  0  0  0  0  0  0  0  0  0  0
    7.1931  -14.7468   21.0620 C   0  0  0  0  0  0  0  0  0  0  0  0
    8.4541  -15.0196   21.8419 C   0  0  0  0  0  0  0  0  0  0  0  0
    9.1915  -16.1976   21.2302 C   0  0  0  0  0  0  0  0  0  0  0  0
   10.4836  -16.4631   21.9505 C   0  0  2  0  0  0  0  0  0  0  0  0
   11.2254  -17.4610   21.2514 N   0  0  0  0  0  0  0  0  0  0  0  0
   10.2565  -16.8295   23.3794 C   0  0  0  0  0  0  0  0  0  0  0  0
    9.9258  -18.0076   23.7150 O   0  0  0  0  0  0  0  0  0  0  0  0
    8.2059  -14.1370   17.1910 N   0  0  0  0  0  0  0  0  0  0  0  0
   10.3973  -15.8944   24.4091 C   0  0  2  0  0  0  0  0  0  0  0  0
   10.1755  -16.2762   25.8339 C   0  0  0  0  0  0  0  0  0  0  0  0
   10.4112  -15.0993   26.6852 C   0  0  0  0  0  0  0  0  0  0  0  0
   10.3199  -15.0806   28.1222 C   0  0  0  0  0  0  0  0  0  0  0  0
   10.5371  -13.9080   28.9650 C   0  0  0  0  0  0  0  0  0  0  0  0
   10.3129  -14.1530   30.4474 N   0  0  0  0  0  0  0  0  0  0  0  0
   10.5907  -12.9084   31.1346 C   0  0  0  0  0  0  0  0  0  0  0  0
    8.8033  -16.8326   25.8173 O   0  0  0  0  0  0  0  0  0  0  0  0
    8.4858  -17.7816   26.5552 O   0  0  0  0  0  0  0  0  0  0  0  0
  2  1  1  6
  2  3  1  0
  3  4  1  0
  4  5  1  0
  5  9  1  0
  6  5  2  0
  7  2  1  0
  7  8  2  0
 11 10  1  0
 11 12  2  0
 13 11  1  0
 14 13  1  0
 15 16  1  0
 15 14  1  0
 17 16  1  6
 17 18  1  0
 18  7  1  0
 19 21  1  0
 19 17  1  0
 20 19  2  0
 22 21  1  0
 22 28  1  0
 23 24  1  0
 22 23  1  6
 25 24  1  0
 26 25  1  0
 26 27  1  0
 28 30  1  0
 29 28  2  0
M  END
$$$$
