ERK.pdb
     RDKit          3D

 30 29  0  0  1  0  0  0  0  0999 V2000
    9.9725  -18.7152   17.9144 N   0  0  0  0  0  0  0  0  0  0  0  0
   11.3195  -18.4699   18.4583 C   0  0  1  0  0  0  0  0  0  0  0  0
   12.1845  -17.9391   17.3651 C   0  0  0  0  0  0  0  0  0  0  0  0
   11.4272  -17.5339   16.1464 C   0  0  0  0  0  0  0  0  0  0  0  0
   12.2292  -17.1284   14.9943 C   0  0  0  0  0  0  0  0  0  0  0  0
   11.8566  -17.3703   13.8269 O   0  0  0  0  0  0  0  0  0  0  0  0
   11.2127  -17.5201   19.6048 C   0  0  0  0  0  0  0  0  0  0  0  0
   12.2033  -17.4122   20.3631 O   0  0  0  0  0  0  0  0  0  0  0  0
   13.4474  -16.4537   15.1088 O   0  0  0  0  0  0  0  0  0  0  0  0
    7.0930  -13.8342   15.8315 N   0  0  0  0  0  0  0  0  0  0  0  0
    7.7051  -13.4786   17.0634 C   0  0  0  0  0  0  0  0  0  0  0  0
    8.9067  -13.0236   17.0557 N   0  0  0  0  0  0  0  0  0  0  0  0
    7.0196  -13.6144   18.2997 N   0  0  0  0  0  0  0  0  0  0  0  0
    7.6225  -13.1416   19.5420 C   0  0  0  0  0  0  0  0  0  0  0  0
    8.8913  -13.9259   19.7607 C   0  0  0  0  0  0  0  0  0  0  0  0
    8.6392  -15.0429   20.7578 C   0  0  0  0  0  0  0  0  0  0  0  0
    9.8714  -15.8796   20.9593 C   0  0  2  0  0  0  0  0  0  0  0  0
   10.0420  -16.7563   19.8470 N   0  0  0  0  0  0  0  0  0  0  0  0
    9.8343  -16.6175   22.2561 C   0  0  0  0  0  0  0  0  0  0  0  0
    8.7677  -17.1608   22.6771 O   0  0  0  0  0  0  0  0  0  0  0  0
    9.4223  -12.7192   17.8926 N   0  0  0  0  0  0  0  0  0  0  0  0
   10.9693  -16.7431   23.0628 C   0  0  1  0  0  0  0  0  0  0  0  0
   10.9180  -17.4830   24.3570 C   0  0  0  0  0  0  0  0  0  0  0  0
   11.2508  -18.8953   24.1123 C   0  0  0  0  0  0  0  0  0  0  0  0
   11.4091  -19.9010   25.1308 C   0  0  0  0  0  0  0  0  0  0  0  0
   11.8317  -21.2788   24.8957 C   0  0  0  0  0  0  0  0  0  0  0  0
   12.0214  -22.0993   26.1601 N   0  0  0  0  0  0  0  0  0  0  0  0
   12.5285  -23.3953   25.7583 C   0  0  0  0  0  0  0  0  0  0  0  0
   11.8445  -16.7109   25.2161 O   0  0  0  0  0  0  0  0  0  0  0  0
   11.9246  -16.9331   26.4369 O   0  0  0  0  0  0  0  0  0  0  0  0
  2  1  1  6
  2  3  1  0
  3  4  1  0
  4  5  1  0
  5  9  1  0
  6  5  2  0
  7  2  1  0
  7  8  2  0
 11 10  1  0
 11 12  2  0
 13 11  1  0
 14 13  1  0
 15 16  1  0
 15 14  1  0
 17 16  1  6
 17 18  1  0
 18  7  1  0
 19 21  1  0
 19 17  1  0
 20 19  2  0
 22 21  1  0
 22 28  1  0
 23 24  1  0
 22 23  1  1
 25 24  1  0
 26 25  1  0
 26 27  1  0
 28 30  1  0
 29 28  2  0
M  END
$$$$
