WMP.pdb
     RDKit          3D

 30 32  0  0  1  0  0  0  0  0999 V2000
   15.2496  -23.4079   -1.5385 N   0  0  0  0  0  0  0  0  0  0  0  0
   14.8877  -22.6313   -0.3563 C   0  0  1  0  0  0  0  0  0  0  0  0
   13.3957  -22.4289   -0.3960 C   0  0  0  0  0  0  0  0  0  0  0  0
   13.1759  -21.4031   -1.4853 C   0  0  0  0  0  0  0  0  0  0  0  0
   13.5760  -21.4778   -2.7925 C   0  0  0  0  0  0  0  0  0  0  0  0
   13.1810  -20.3587   -3.4142 N   0  0  0  0  0  0  0  0  0  0  0  0
   12.5274  -19.5392   -2.5558 C   0  0  0  0  0  0  0  0  0  0  0  0
   11.9402  -18.2862   -2.7268 C   0  0  0  0  0  0  0  0  0  0  0  0
   11.3279  -17.6604   -1.6599 C   0  0  0  0  0  0  0  0  0  0  0  0
   11.3310  -18.3260   -0.4520 C   0  0  0  0  0  0  0  0  0  0  0  0
   11.9098  -19.5647   -0.2764 C   0  0  0  0  0  0  0  0  0  0  0  0
   12.5255  -20.1971   -1.3455 C   0  0  0  0  0  0  0  0  0  0  0  0
   15.3572  -23.3372    0.8731 C   0  0  0  0  0  0  0  0  0  0  0  0
   15.5202  -24.5914    0.8929 O   0  0  0  0  0  0  0  0  0  0  0  0
   21.1876  -24.6265    1.7451 C   0  0  0  0  0  0  0  0  0  0  0  0
   19.9502  -24.1719    2.9055 S   0  0  0  0  0  0  0  0  0  0  0  0
   18.3269  -23.7353    2.3141 C   0  0  0  0  0  0  0  0  0  0  0  0
   17.1609  -24.3109    3.0061 C   0  0  0  0  0  0  0  0  0  0  0  0
   16.0148  -23.3966    3.2949 C   0  0  2  0  0  0  0  0  0  0  0  0
   15.6488  -22.6594    2.0807 N   0  0  0  0  0  0  0  0  0  0  0  0
   16.1945  -22.5373    4.4711 C   0  0  0  0  0  0  0  0  0  0  0  0
   16.9572  -21.5101    4.3087 O   0  0  0  0  0  0  0  0  0  0  0  0
   15.6626  -22.6538    5.7771 N   0  0  0  0  0  0  0  0  0  0  0  0
   14.7306  -23.6705    6.1944 C   0  0  0  0  0  0  0  0  0  0  0  0
   14.3401  -23.3315    7.6293 C   0  0  0  0  0  0  0  0  0  0  0  0
   15.6005  -22.6726    8.1102 C   0  0  0  0  0  0  0  0  0  0  0  0
   15.9533  -21.8079    6.8916 C   0  0  1  0  0  0  0  0  0  0  0  0
   17.3648  -21.3807    7.0201 C   0  0  0  0  0  0  0  0  0  0  0  0
   17.6891  -20.4538    7.9862 O   0  0  0  0  0  0  0  0  0  0  0  0
   18.2390  -21.8408    6.2808 O   0  0  0  0  0  0  0  0  0  0  0  0
  2  1  1  6
  2 13  1  0
  2  3  1  0
  3  4  1  0
  4 12  1  0
  4  5  2  0
  5  6  1  0
  7  6  1  0
  7  8  2  0
  9  8  1  0
 10  9  2  0
 11 12  2  0
 11 10  1  0
 12  7  1  0
 13 14  2  0
 16 15  1  0
 17 16  1  0
 18 17  1  0
 19 18  1  6
 20 19  1  0
 20 13  1  0
 21 19  1  0
 21 23  1  0
 22 21  2  0
 23 24  1  0
 25 24  1  0
 26 27  1  0
 26 25  1  0
 27 23  1  0
 27 28  1  1
 29 28  1  0
 30 28  2  0
M  END
$$$$
