WMP.pdb
     RDKit          3D

 30 32  0  0  1  0  0  0  0  0999 V2000
   36.4760  -22.3331    9.8368 N   0  0  0  0  0  0  0  0  0  0  0  0
   35.4086  -21.9968    8.8991 C   0  0  1  0  0  0  0  0  0  0  0  0
   34.9163  -23.2892    8.3023 C   0  0  0  0  0  0  0  0  0  0  0  0
   34.9723  -23.0679    6.8072 C   0  0  0  0  0  0  0  0  0  0  0  0
   35.9915  -23.3967    5.9543 C   0  0  0  0  0  0  0  0  0  0  0  0
   35.6357  -23.0265    4.7169 N   0  0  0  0  0  0  0  0  0  0  0  0
   34.4052  -22.4593    4.7219 C   0  0  0  0  0  0  0  0  0  0  0  0
   33.6196  -21.9261    3.7008 C   0  0  0  0  0  0  0  0  0  0  0  0
   32.3770  -21.3997    3.9903 C   0  0  0  0  0  0  0  0  0  0  0  0
   31.9704  -21.4307    5.3077 C   0  0  0  0  0  0  0  0  0  0  0  0
   32.7423  -21.9564    6.3217 C   0  0  0  0  0  0  0  0  0  0  0  0
   33.9909  -22.4864    6.0354 C   0  0  0  0  0  0  0  0  0  0  0  0
   34.3419  -21.2264    9.6056 C   0  0  0  0  0  0  0  0  0  0  0  0
   34.0273  -21.4810   10.8039 O   0  0  0  0  0  0  0  0  0  0  0  0
   31.5330  -15.4648    7.2007 C   0  0  0  0  0  0  0  0  0  0  0  0
   30.6301  -15.9248    8.6351 S   0  0  0  0  0  0  0  0  0  0  0  0
   31.1021  -17.3976    9.5202 C   0  0  0  0  0  0  0  0  0  0  0  0
   32.1756  -18.2313    8.9526 C   0  0  0  0  0  0  0  0  0  0  0  0
   32.5578  -19.4636    9.7062 C   0  0  2  0  0  0  0  0  0  0  0  0
   33.6233  -20.1738    8.9906 N   0  0  0  0  0  0  0  0  0  0  0  0
   31.4325  -20.3252   10.0880 C   0  0  0  0  0  0  0  0  0  0  0  0
   30.9129  -21.0284    9.1399 O   0  0  0  0  0  0  0  0  0  0  0  0
   30.8110  -20.5123   11.3452 N   0  0  0  0  0  0  0  0  0  0  0  0
   31.3245  -20.0124   12.5954 C   0  0  0  0  0  0  0  0  0  0  0  0
   30.4061  -20.5570   13.6846 C   0  0  0  0  0  0  0  0  0  0  0  0
   29.1075  -20.6386   12.9358 C   0  0  0  0  0  0  0  0  0  0  0  0
   29.5876  -21.2081   11.5932 C   0  0  1  0  0  0  0  0  0  0  0  0
   28.5175  -20.9984   10.5921 C   0  0  0  0  0  0  0  0  0  0  0  0
   27.5115  -21.9344   10.4946 O   0  0  0  0  0  0  0  0  0  0  0  0
   28.5194  -20.0079    9.8563 O   0  0  0  0  0  0  0  0  0  0  0  0
  2  1  1  1
  2 13  1  0
  2  3  1  0
  3  4  1  0
  4 12  1  0
  4  5  2  0
  5  6  1  0
  7  6  1  0
  7  8  2  0
  9  8  1  0
 10  9  2  0
 11 12  2  0
 11 10  1  0
 12  7  1  0
 13 14  2  0
 16 15  1  0
 17 16  1  0
 18 17  1  0
 19 18  1  6
 20 19  1  0
 20 13  1  0
 21 19  1  0
 21 23  1  0
 22 21  2  0
 23 24  1  0
 25 24  1  0
 26 27  1  0
 26 25  1  0
 27 23  1  0
 27 28  1  6
 29 28  1  0
 30 28  2  0
M  END
$$$$
