WMP.pdb
     RDKit          3D

 30 32  0  0  1  0  0  0  0  0999 V2000
   27.9399  -20.9668  -10.6369 N   0  0  0  0  0  0  0  0  0  0  0  0
   26.5518  -21.3589  -10.4114 C   0  0  1  0  0  0  0  0  0  0  0  0
   26.3675  -21.5093   -8.9240 C   0  0  0  0  0  0  0  0  0  0  0  0
   27.6776  -21.0478   -8.3259 C   0  0  0  0  0  0  0  0  0  0  0  0
   28.9367  -21.2457   -8.8256 C   0  0  0  0  0  0  0  0  0  0  0  0
   29.8127  -20.6767   -7.9866 N   0  0  0  0  0  0  0  0  0  0  0  0
   29.1706  -20.1039   -6.9400 C   0  0  0  0  0  0  0  0  0  0  0  0
   29.6384  -19.4051   -5.8279 C   0  0  0  0  0  0  0  0  0  0  0  0
   28.7463  -18.9198   -4.8933 C   0  0  0  0  0  0  0  0  0  0  0  0
   27.4066  -19.1592   -5.1165 C   0  0  0  0  0  0  0  0  0  0  0  0
   26.9377  -19.8493   -6.2139 C   0  0  0  0  0  0  0  0  0  0  0  0
   27.8303  -20.3383   -7.1553 C   0  0  0  0  0  0  0  0  0  0  0  0
   25.6374  -20.3484  -11.0223 C   0  0  0  0  0  0  0  0  0  0  0  0
   25.8427  -19.1073  -10.8908 O   0  0  0  0  0  0  0  0  0  0  0  0
   27.7771  -16.9862  -15.4191 C   0  0  0  0  0  0  0  0  0  0  0  0
   26.6045  -18.2931  -15.3853 S   0  0  0  0  0  0  0  0  0  0  0  0
   26.5520  -19.3731  -13.9689 C   0  0  0  0  0  0  0  0  0  0  0  0
   25.5387  -20.4420  -13.9515 C   0  0  0  0  0  0  0  0  0  0  0  0
   24.3042  -20.2035  -13.1441 C   0  0  2  0  0  0  0  0  0  0  0  0
   24.4973  -20.7071  -11.7800 N   0  0  0  0  0  0  0  0  0  0  0  0
   23.0604  -20.6675  -13.7701 C   0  0  0  0  0  0  0  0  0  0  0  0
   23.1846  -21.6081  -14.6436 O   0  0  0  0  0  0  0  0  0  0  0  0
   21.7251  -20.2435  -13.5724 N   0  0  0  0  0  0  0  0  0  0  0  0
   21.3297  -19.1536  -12.7166 C   0  0  0  0  0  0  0  0  0  0  0  0
   19.8045  -19.1422  -12.7135 C   0  0  0  0  0  0  0  0  0  0  0  0
   19.5215  -19.6732  -14.0890 C   0  0  0  0  0  0  0  0  0  0  0  0
   20.5575  -20.8028  -14.1776 C   0  0  1  0  0  0  0  0  0  0  0  0
   20.6971  -21.1926  -15.5987 C   0  0  0  0  0  0  0  0  0  0  0  0
   19.6972  -21.9410  -16.1798 O   0  0  0  0  0  0  0  0  0  0  0  0
   21.6860  -20.8578  -16.2564 O   0  0  0  0  0  0  0  0  0  0  0  0
  2  1  1  1
  2 13  1  0
  2  3  1  0
  3  4  1  0
  4 12  1  0
  4  5  2  0
  5  6  1  0
  7  6  1  0
  7  8  2  0
  9  8  1  0
 10  9  2  0
 11 12  2  0
 11 10  1  0
 12  7  1  0
 13 14  2  0
 16 15  1  0
 17 16  1  0
 18 17  1  0
 19 18  1  6
 20 19  1  0
 20 13  1  0
 21 19  1  0
 21 23  1  0
 22 21  2  0
 23 24  1  0
 25 24  1  0
 26 27  1  0
 26 25  1  0
 27 23  1  0
 27 28  1  6
 29 28  1  0
 30 28  2  0
M  END
$$$$
