WMP.pdb
     RDKit          3D

 30 32  0  0  1  0  0  0  0  0999 V2000
   16.7880  -18.6257    2.0361 N   0  0  0  0  0  0  0  0  0  0  0  0
   16.0005  -18.0738    3.1346 C   0  0  1  0  0  0  0  0  0  0  0  0
   16.1424  -19.0157    4.3015 C   0  0  0  0  0  0  0  0  0  0  0  0
   15.6698  -20.3527    3.7758 C   0  0  0  0  0  0  0  0  0  0  0  0
   14.4218  -20.6709    3.3117 C   0  0  0  0  0  0  0  0  0  0  0  0
   14.4292  -21.9595    2.9448 N   0  0  0  0  0  0  0  0  0  0  0  0
   15.6502  -22.5093    3.1519 C   0  0  0  0  0  0  0  0  0  0  0  0
   16.1439  -23.7945    2.9319 C   0  0  0  0  0  0  0  0  0  0  0  0
   17.4562  -24.0909    3.2398 C   0  0  0  0  0  0  0  0  0  0  0  0
   18.2268  -23.0734    3.7620 C   0  0  0  0  0  0  0  0  0  0  0  0
   17.7446  -21.8007    3.9819 C   0  0  0  0  0  0  0  0  0  0  0  0
   16.4272  -21.4986    3.6737 C   0  0  0  0  0  0  0  0  0  0  0  0
   16.4597  -16.6849    3.4353 C   0  0  0  0  0  0  0  0  0  0  0  0
   17.6469  -16.3168    3.2013 O   0  0  0  0  0  0  0  0  0  0  0  0
   11.9418  -11.3882    1.7665 C   0  0  0  0  0  0  0  0  0  0  0  0
   12.7848  -11.9015    3.2191 S   0  0  0  0  0  0  0  0  0  0  0  0
   14.1455  -13.0429    3.0732 C   0  0  0  0  0  0  0  0  0  0  0  0
   14.8717  -13.4136    4.2999 C   0  0  0  0  0  0  0  0  0  0  0  0
   16.0555  -14.3131    4.1506 C   0  0  2  0  0  0  0  0  0  0  0  0
   15.6084  -15.7012    3.9925 N   0  0  0  0  0  0  0  0  0  0  0  0
   17.0904  -14.1436    5.1774 C   0  0  0  0  0  0  0  0  0  0  0  0
   16.9490  -14.8543    6.2443 O   0  0  0  0  0  0  0  0  0  0  0  0
   18.2354  -13.3124    5.1917 N   0  0  0  0  0  0  0  0  0  0  0  0
   18.6743  -12.5034    4.0829 C   0  0  0  0  0  0  0  0  0  0  0  0
   20.0040  -11.8854    4.5028 C   0  0  0  0  0  0  0  0  0  0  0  0
   19.8008  -11.7742    5.9861 C   0  0  0  0  0  0  0  0  0  0  0  0
   19.1362  -13.1255    6.2853 C   0  0  1  0  0  0  0  0  0  0  0  0
   18.5101  -13.0472    7.6243 C   0  0  0  0  0  0  0  0  0  0  0  0
   19.3074  -13.2051    8.7366 O   0  0  0  0  0  0  0  0  0  0  0  0
   17.2995  -12.8448    7.7501 O   0  0  0  0  0  0  0  0  0  0  0  0
  2  1  1  6
  2 13  1  0
  2  3  1  0
  3  4  1  0
  4 12  1  0
  4  5  2  0
  5  6  1  0
  7  6  1  0
  7  8  2  0
  9  8  1  0
 10  9  2  0
 11 12  2  0
 11 10  1  0
 12  7  1  0
 13 14  2  0
 16 15  1  0
 17 16  1  0
 18 17  1  0
 19 18  1  1
 20 19  1  0
 20 13  1  0
 21 19  1  0
 21 23  1  0
 22 21  2  0
 23 24  1  0
 25 24  1  0
 26 27  1  0
 26 25  1  0
 27 23  1  0
 27 28  1  1
 29 28  1  0
 30 28  2  0
M  END
$$$$
