WMP.pdb
     RDKit          3D

 30 32  0  0  1  0  0  0  0  0999 V2000
   25.3522  -19.3688  -12.4695 N   0  0  0  0  0  0  0  0  0  0  0  0
   25.0908  -20.1390  -11.2569 C   0  0  1  0  0  0  0  0  0  0  0  0
   24.6640  -21.5176  -11.6883 C   0  0  0  0  0  0  0  0  0  0  0  0
   23.2129  -21.3638  -12.0857 C   0  0  0  0  0  0  0  0  0  0  0  0
   22.6333  -21.7159  -13.2750 C   0  0  0  0  0  0  0  0  0  0  0  0
   21.3310  -21.4077  -13.2119 N   0  0  0  0  0  0  0  0  0  0  0  0
   21.0264  -20.8592  -12.0110 C   0  0  0  0  0  0  0  0  0  0  0  0
   19.8281  -20.3847  -11.4792 C   0  0  0  0  0  0  0  0  0  0  0  0
   19.7992  -19.8642  -10.2013 C   0  0  0  0  0  0  0  0  0  0  0  0
   20.9880  -19.8411   -9.5027 C   0  0  0  0  0  0  0  0  0  0  0  0
   22.1760  -20.3086  -10.0227 C   0  0  0  0  0  0  0  0  0  0  0  0
   22.2095  -20.8326  -11.3058 C   0  0  0  0  0  0  0  0  0  0  0  0
   26.3061  -20.1397  -10.3890 C   0  0  0  0  0  0  0  0  0  0  0  0
   27.4572  -20.3595  -10.8649 O   0  0  0  0  0  0  0  0  0  0  0  0
   29.8688  -18.0132   -3.7041 C   0  0  0  0  0  0  0  0  0  0  0  0
   28.6249  -18.0055   -4.9438 S   0  0  0  0  0  0  0  0  0  0  0  0
   28.2408  -19.5233   -5.7948 C   0  0  0  0  0  0  0  0  0  0  0  0
   27.1432  -19.5068   -6.7769 C   0  0  0  0  0  0  0  0  0  0  0  0
   27.4642  -19.9377   -8.1712 C   0  0  2  0  0  0  0  0  0  0  0  0
   26.2518  -19.8961   -8.9960 N   0  0  0  0  0  0  0  0  0  0  0  0
   28.1976  -21.2052   -8.2700 C   0  0  0  0  0  0  0  0  0  0  0  0
   27.5503  -22.2615   -7.9117 O   0  0  0  0  0  0  0  0  0  0  0  0
   29.5214  -21.4634   -8.6975 N   0  0  0  0  0  0  0  0  0  0  0  0
   30.3366  -20.5384   -9.4435 C   0  0  0  0  0  0  0  0  0  0  0  0
   31.6221  -21.2825   -9.7899 C   0  0  0  0  0  0  0  0  0  0  0  0
   31.7322  -22.2069   -8.6121 C   0  0  0  0  0  0  0  0  0  0  0  0
   30.2718  -22.6572   -8.4652 C   0  0  1  0  0  0  0  0  0  0  0  0
   30.1076  -23.2663   -7.1261 C   0  0  0  0  0  0  0  0  0  0  0  0
   30.6761  -24.4980   -6.8863 O   0  0  0  0  0  0  0  0  0  0  0  0
   29.4757  -22.6889   -6.2374 O   0  0  0  0  0  0  0  0  0  0  0  0
  2  1  1  6
  2 13  1  0
  2  3  1  0
  3  4  1  0
  4 12  1  0
  4  5  2  0
  5  6  1  0
  7  6  1  0
  7  8  2  0
  9  8  1  0
 10  9  2  0
 11 12  2  0
 11 10  1  0
 12  7  1  0
 13 14  2  0
 16 15  1  0
 17 16  1  0
 18 17  1  0
 19 18  1  1
 20 19  1  0
 20 13  1  0
 21 19  1  0
 21 23  1  0
 22 21  2  0
 23 24  1  0
 25 24  1  0
 26 27  1  0
 26 25  1  0
 27 23  1  0
 27 28  1  1
 29 28  1  0
 30 28  2  0
M  END
$$$$
