WMP.pdb
     RDKit          3D

 30 32  0  0  1  0  0  0  0  0999 V2000
   23.7230  -19.8414  -17.6142 N   0  0  0  0  0  0  0  0  0  0  0  0
   24.4773  -19.2062  -16.5375 C   0  0  1  0  0  0  0  0  0  0  0  0
   23.4911  -18.4420  -15.6936 C   0  0  0  0  0  0  0  0  0  0  0  0
   23.7800  -16.9869  -15.9878 C   0  0  0  0  0  0  0  0  0  0  0  0
   22.9690  -16.0902  -16.6301 C   0  0  0  0  0  0  0  0  0  0  0  0
   23.6069  -14.9132  -16.6815 N   0  0  0  0  0  0  0  0  0  0  0  0
   24.8227  -15.0012  -16.0899 C   0  0  0  0  0  0  0  0  0  0  0  0
   25.8361  -14.0634  -15.8966 C   0  0  0  0  0  0  0  0  0  0  0  0
   26.9988  -14.4283  -15.2487 C   0  0  0  0  0  0  0  0  0  0  0  0
   27.0969  -15.7345  -14.8173 C   0  0  0  0  0  0  0  0  0  0  0  0
   26.0987  -16.6665  -15.0053 C   0  0  0  0  0  0  0  0  0  0  0  0
   24.9290  -16.3041  -15.6553 C   0  0  0  0  0  0  0  0  0  0  0  0
   25.2332  -20.2426  -15.7728 C   0  0  0  0  0  0  0  0  0  0  0  0
   25.1534  -21.4700  -16.0677 O   0  0  0  0  0  0  0  0  0  0  0  0
   30.2641  -19.1571  -10.9446 C   0  0  0  0  0  0  0  0  0  0  0  0
   30.3590  -20.6788  -11.8163 S   0  0  0  0  0  0  0  0  0  0  0  0
   28.8852  -21.3384  -12.5701 C   0  0  0  0  0  0  0  0  0  0  0  0
   28.0699  -20.4356  -13.4007 C   0  0  0  0  0  0  0  0  0  0  0  0
   26.7847  -20.9741  -13.9402 C   0  0  2  0  0  0  0  0  0  0  0  0
   26.0790  -19.9248  -14.6836 N   0  0  0  0  0  0  0  0  0  0  0  0
   25.9429  -21.6610  -12.9534 C   0  0  0  0  0  0  0  0  0  0  0  0
   26.4758  -22.6787  -12.3673 O   0  0  0  0  0  0  0  0  0  0  0  0
   24.6192  -21.3884  -12.5344 N   0  0  0  0  0  0  0  0  0  0  0  0
   23.4352  -21.7581  -13.2678 C   0  0  0  0  0  0  0  0  0  0  0  0
   22.2562  -21.1551  -12.5110 C   0  0  0  0  0  0  0  0  0  0  0  0
   22.7843  -21.1871  -11.1060 C   0  0  0  0  0  0  0  0  0  0  0  0
   24.2288  -20.7193  -11.3335 C   0  0  1  0  0  0  0  0  0  0  0  0
   25.0194  -21.0548  -10.1278 C   0  0  0  0  0  0  0  0  0  0  0  0
   24.6724  -20.4743   -8.9276 O   0  0  0  0  0  0  0  0  0  0  0  0
   25.9712  -21.8377  -10.1882 O   0  0  0  0  0  0  0  0  0  0  0  0
  2  1  1  6
  2 13  1  0
  2  3  1  0
  3  4  1  0
  4 12  1  0
  4  5  2  0
  5  6  1  0
  7  6  1  0
  7  8  2  0
  9  8  1  0
 10  9  2  0
 11 12  2  0
 11 10  1  0
 12  7  1  0
 13 14  2  0
 16 15  1  0
 17 16  1  0
 18 17  1  0
 19 18  1  1
 20 19  1  0
 20 13  1  0
 21 19  1  0
 21 23  1  0
 22 21  2  0
 23 24  1  0
 25 24  1  0
 26 27  1  0
 26 25  1  0
 27 23  1  0
 27 28  1  1
 29 28  1  0
 30 28  2  0
M  END
$$$$
