WMP.pdb
     RDKit          3D

 30 32  0  0  1  0  0  0  0  0999 V2000
   20.6430  -19.7036  -14.5499 N   0  0  0  0  0  0  0  0  0  0  0  0
   21.2753  -20.8069  -13.8325 C   0  0  1  0  0  0  0  0  0  0  0  0
   21.0834  -22.0476  -14.6647 C   0  0  0  0  0  0  0  0  0  0  0  0
   19.6136  -22.3775  -14.5294 C   0  0  0  0  0  0  0  0  0  0  0  0
   18.7036  -22.5540  -15.5368 C   0  0  0  0  0  0  0  0  0  0  0  0
   17.5157  -22.8304  -14.9822 N   0  0  0  0  0  0  0  0  0  0  0  0
   17.6097  -22.8431  -13.6306 C   0  0  0  0  0  0  0  0  0  0  0  0
   16.6649  -23.0762  -12.6320 C   0  0  0  0  0  0  0  0  0  0  0  0
   17.0383  -23.0257  -11.3043 C   0  0  0  0  0  0  0  0  0  0  0  0
   18.3595  -22.7397  -11.0313 C   0  0  0  0  0  0  0  0  0  0  0  0
   19.2984  -22.5084  -12.0139 C   0  0  0  0  0  0  0  0  0  0  0  0
   18.9277  -22.5584  -13.3488 C   0  0  0  0  0  0  0  0  0  0  0  0
   22.7101  -20.4829  -13.5741 C   0  0  0  0  0  0  0  0  0  0  0  0
   23.3251  -19.6161  -14.2598 O   0  0  0  0  0  0  0  0  0  0  0  0
   26.1589  -19.9626   -8.0928 C   0  0  0  0  0  0  0  0  0  0  0  0
   27.1963  -21.0035   -9.0544 S   0  0  0  0  0  0  0  0  0  0  0  0
   26.8020  -21.2715  -10.7714 C   0  0  0  0  0  0  0  0  0  0  0  0
   25.3896  -21.4836  -11.1317 C   0  0  0  0  0  0  0  0  0  0  0  0
   24.8816  -20.7882  -12.3527 C   0  0  2  0  0  0  0  0  0  0  0  0
   23.4662  -21.1142  -12.5580 N   0  0  0  0  0  0  0  0  0  0  0  0
   25.7059  -20.9719  -13.5532 C   0  0  0  0  0  0  0  0  0  0  0  0
   25.7067  -22.1572  -14.0616 O   0  0  0  0  0  0  0  0  0  0  0  0
   26.5163  -20.0483  -14.2548 N   0  0  0  0  0  0  0  0  0  0  0  0
   26.5181  -18.6248  -14.0309 C   0  0  0  0  0  0  0  0  0  0  0  0
   27.4397  -18.0255  -15.0882 C   0  0  0  0  0  0  0  0  0  0  0  0
   28.4141  -19.1521  -15.2759 C   0  0  0  0  0  0  0  0  0  0  0  0
   27.4611  -20.3558  -15.2819 C   0  0  1  0  0  0  0  0  0  0  0  0
   28.2625  -21.5819  -15.0686 C   0  0  0  0  0  0  0  0  0  0  0  0
   28.9016  -22.1498  -16.1487 O   0  0  0  0  0  0  0  0  0  0  0  0
   28.3612  -22.0911  -13.9489 O   0  0  0  0  0  0  0  0  0  0  0  0
  2  1  1  6
  2 13  1  0
  2  3  1  0
  3  4  1  0
  4 12  1  0
  4  5  2  0
  5  6  1  0
  7  6  1  0
  7  8  2  0
  9  8  1  0
 10  9  2  0
 11 12  2  0
 11 10  1  0
 12  7  1  0
 13 14  2  0
 16 15  1  0
 17 16  1  0
 18 17  1  0
 19 18  1  1
 20 19  1  0
 20 13  1  0
 21 19  1  0
 21 23  1  0
 22 21  2  0
 23 24  1  0
 25 24  1  0
 26 27  1  0
 26 25  1  0
 27 23  1  0
 27 28  1  1
 29 28  1  0
 30 28  2  0
M  END
$$$$
