MCD.pdb
     RDKit          3D

 23 22  0  0  1  0  0  0  0  0999 V2000
    7.8232  -11.7317   18.8052 C   0  0  0  0  0  0  0  0  0  0  0  0
    6.5230  -12.8352   19.3986 S   0  0  0  0  0  0  0  0  0  0  0  0
    7.2056  -14.3988   19.9985 C   0  0  0  0  0  0  0  0  0  0  0  0
    8.5032  -14.7401   19.3201 C   0  0  0  0  0  0  0  0  0  0  0  0
    9.0917  -16.0295   19.8572 C   0  0  2  0  0  0  0  0  0  0  0  0
    8.0148  -16.9799   19.9640 N   0  0  0  0  0  0  0  0  0  0  0  0
    9.7621  -15.8096   21.1684 C   0  0  0  0  0  0  0  0  0  0  0  0
   10.8516  -15.1753   21.2752 O   0  0  0  0  0  0  0  0  0  0  0  0
    9.2135  -16.3023   22.3828 N   0  0  0  0  0  0  0  0  0  0  0  0
    9.8226  -16.0557   23.6629 C   0  0  1  0  0  0  0  0  0  0  0  0
    8.9286  -16.4136   24.8204 C   0  0  0  0  0  0  0  0  0  0  0  0
    8.8039  -15.0557   26.0163 S   0  0  0  0  0  0  0  0  0  0  0  0
   11.1008  -16.7917   23.8306 C   0  0  0  0  0  0  0  0  0  0  0  0
   11.1776  -18.0095   23.5280 O   0  0  0  0  0  0  0  0  0  0  0  0
   12.2801  -16.1661   24.3328 N   0  0  0  0  0  0  0  0  0  0  0  0
   13.5537  -16.8696   24.3977 C   0  0  1  0  0  0  0  0  0  0  0  0
   14.6927  -15.8904   24.2495 C   0  0  0  0  0  0  0  0  0  0  0  0
   15.8421  -16.4185   23.4938 C   0  0  0  0  0  0  0  0  0  0  0  0
   15.6800  -17.3475   22.6789 O   0  0  0  0  0  0  0  0  0  0  0  0
   13.6457  -17.5137   25.7322 C   0  0  0  0  0  0  0  0  0  0  0  0
   14.4269  -18.6378   25.8909 O   0  0  0  0  0  0  0  0  0  0  0  0
   17.0902  -15.8820   23.6923 O   0  0  0  0  0  0  0  0  0  0  0  0
   13.0294  -17.0592   26.7180 O   0  0  0  0  0  0  0  0  0  0  0  0
  2  1  1  0
  3  2  1  0
  4  3  1  0
  5  4  1  0
  5  6  1  1
  7  5  1  0
  7  8  2  0
  9  7  1  0
 10 13  1  0
 10  9  1  0
 10 11  1  1
 12 11  1  0
 13 15  1  0
 14 13  2  0
 15 16  1  0
 16 20  1  0
 17 18  1  0
 16 17  1  1
 18 19  2  0
 20 23  2  0
 20 21  1  0
 22 18  1  0
M  END
$$$$
