MCD.pdb
     RDKit          3D

 23 22  0  0  1  0  0  0  0  0999 V2000
    6.2427  -11.2044   27.2971 C   0  0  0  0  0  0  0  0  0  0  0  0
    6.7807  -12.5644   26.2383 S   0  0  0  0  0  0  0  0  0  0  0  0
    5.9385  -14.1071   26.6643 C   0  0  0  0  0  0  0  0  0  0  0  0
    6.2098  -15.1897   25.6570 C   0  0  0  0  0  0  0  0  0  0  0  0
    7.6560  -15.6417   25.6989 C   0  0  2  0  0  0  0  0  0  0  0  0
    8.4588  -14.4820   25.9905 N   0  0  0  0  0  0  0  0  0  0  0  0
    8.0578  -16.2788   24.4145 C   0  0  0  0  0  0  0  0  0  0  0  0
    7.6013  -17.3981   24.0407 O   0  0  0  0  0  0  0  0  0  0  0  0
    8.9827  -15.6631   23.5292 N   0  0  0  0  0  0  0  0  0  0  0  0
    9.3418  -16.2407   22.2612 C   0  0  1  0  0  0  0  0  0  0  0  0
    9.2397  -15.2654   21.1186 C   0  0  0  0  0  0  0  0  0  0  0  0
    7.5507  -14.6328   20.9259 S   0  0  0  0  0  0  0  0  0  0  0  0
   10.7185  -16.7959   22.2639 C   0  0  0  0  0  0  0  0  0  0  0  0
   11.6551  -16.1708   22.8230 O   0  0  0  0  0  0  0  0  0  0  0  0
   11.0394  -18.0403   21.6450 N   0  0  0  0  0  0  0  0  0  0  0  0
   12.3722  -18.6206   21.7345 C   0  0  1  0  0  0  0  0  0  0  0  0
   12.2792  -20.1269   21.7563 C   0  0  0  0  0  0  0  0  0  0  0  0
   11.6608  -20.6712   22.9781 C   0  0  0  0  0  0  0  0  0  0  0  0
   12.2040  -20.4929   24.0856 O   0  0  0  0  0  0  0  0  0  0  0  0
   13.1276  -18.2043   20.5260 C   0  0  0  0  0  0  0  0  0  0  0  0
   14.4917  -18.3937   20.4795 O   0  0  0  0  0  0  0  0  0  0  0  0
   10.4851  -21.3745   22.8891 O   0  0  0  0  0  0  0  0  0  0  0  0
   12.5536  -17.6845   19.5469 O   0  0  0  0  0  0  0  0  0  0  0  0
  2  1  1  0
  3  2  1  0
  4  3  1  0
  5  4  1  0
  5  6  1  6
  7  5  1  0
  7  8  2  0
  9  7  1  0
 10 13  1  0
 10  9  1  0
 10 11  1  6
 12 11  1  0
 13 15  1  0
 14 13  2  0
 15 16  1  0
 16 20  1  0
 17 18  1  0
 16 17  1  6
 18 19  2  0
 20 23  2  0
 20 21  1  0
 22 18  1  0
M  END
$$$$
