MCD.pdb
     RDKit          3D

 23 22  0  0  1  0  0  0  0  0999 V2000
    6.5223  -18.5220   21.7882 C   0  0  0  0  0  0  0  0  0  0  0  0
    6.5073  -17.5468   20.2686 S   0  0  0  0  0  0  0  0  0  0  0  0
    7.2665  -15.9242   20.5167 C   0  0  0  0  0  0  0  0  0  0  0  0
    6.2359  -14.8358   20.6332 C   0  0  0  0  0  0  0  0  0  0  0  0
    6.8772  -13.4822   20.8655 C   0  0  2  0  0  0  0  0  0  0  0  0
    7.6899  -13.1900   19.7129 N   0  0  0  0  0  0  0  0  0  0  0  0
    7.6800  -13.4755   22.1195 C   0  0  0  0  0  0  0  0  0  0  0  0
    8.9452  -13.4910   22.1149 O   0  0  0  0  0  0  0  0  0  0  0  0
    7.0681  -13.4512   23.4014 N   0  0  0  0  0  0  0  0  0  0  0  0
    7.8277  -13.5031   24.6223 C   0  0  1  0  0  0  0  0  0  0  0  0
    7.0216  -13.1209   25.8353 C   0  0  0  0  0  0  0  0  0  0  0  0
    8.0470  -13.0611   27.3302 S   0  0  0  0  0  0  0  0  0  0  0  0
    8.4102  -14.8462   24.8677 C   0  0  0  0  0  0  0  0  0  0  0  0
    7.8318  -15.8776   24.4409 O   0  0  0  0  0  0  0  0  0  0  0  0
    9.6296  -15.0285   25.5848 N   0  0  0  0  0  0  0  0  0  0  0  0
   10.3655  -16.2845   25.5403 C   0  0  1  0  0  0  0  0  0  0  0  0
    9.4592  -17.4280   25.9263 C   0  0  0  0  0  0  0  0  0  0  0  0
    9.7870  -18.0395   27.2262 C   0  0  0  0  0  0  0  0  0  0  0  0
   10.9732  -18.2846   27.5197 O   0  0  0  0  0  0  0  0  0  0  0  0
   10.8261  -16.4881   24.1436 C   0  0  0  0  0  0  0  0  0  0  0  0
   11.6395  -17.5600   23.8466 O   0  0  0  0  0  0  0  0  0  0  0  0
    8.7797  -18.3370   28.1105 O   0  0  0  0  0  0  0  0  0  0  0  0
   10.4923  -15.7079   23.2281 O   0  0  0  0  0  0  0  0  0  0  0  0
  2  1  1  0
  3  2  1  0
  4  3  1  0
  5  4  1  0
  5  6  1  6
  7  5  1  0
  7  8  2  0
  9  7  1  0
 10 13  1  0
 10  9  1  0
 10 11  1  1
 12 11  1  0
 13 15  1  0
 14 13  2  0
 15 16  1  0
 16 20  1  0
 17 18  1  0
 16 17  1  6
 18 19  2  0
 20 23  2  0
 20 21  1  0
 22 18  1  0
M  END
$$$$
