MCD.pdb
     RDKit          3D

 23 22  0  0  1  0  0  0  0  0999 V2000
    7.2756  -11.5137   27.5383 C   0  0  0  0  0  0  0  0  0  0  0  0
    6.1280  -12.2954   26.3841 S   0  0  0  0  0  0  0  0  0  0  0  0
    5.6702  -13.9575   26.9306 C   0  0  0  0  0  0  0  0  0  0  0  0
    5.7642  -14.9597   25.8139 C   0  0  0  0  0  0  0  0  0  0  0  0
    7.0907  -15.6931   25.8321 C   0  0  2  0  0  0  0  0  0  0  0  0
    8.0623  -14.8061   26.4183 N   0  0  0  0  0  0  0  0  0  0  0  0
    7.4900  -16.1164   24.4616 C   0  0  0  0  0  0  0  0  0  0  0  0
    6.8890  -17.0358   23.8336 O   0  0  0  0  0  0  0  0  0  0  0  0
    8.5756  -15.5087   23.7756 N   0  0  0  0  0  0  0  0  0  0  0  0
    9.0303  -15.9649   22.4890 C   0  0  1  0  0  0  0  0  0  0  0  0
    8.8142  -14.9537   21.3944 C   0  0  0  0  0  0  0  0  0  0  0  0
    7.0588  -14.5412   21.1996 S   0  0  0  0  0  0  0  0  0  0  0  0
   10.4696  -16.3278   22.4955 C   0  0  0  0  0  0  0  0  0  0  0  0
   11.3157  -15.5635   23.0250 O   0  0  0  0  0  0  0  0  0  0  0  0
   10.9532  -17.5369   21.9133 N   0  0  0  0  0  0  0  0  0  0  0  0
   12.2407  -18.1066   22.2860 C   0  0  1  0  0  0  0  0  0  0  0  0
   12.0665  -19.5459   22.7054 C   0  0  0  0  0  0  0  0  0  0  0  0
   13.3331  -20.2477   22.9785 C   0  0  0  0  0  0  0  0  0  0  0  0
   14.4209  -19.6724   22.7812 O   0  0  0  0  0  0  0  0  0  0  0  0
   13.1184  -18.0587   21.0895 C   0  0  0  0  0  0  0  0  0  0  0  0
   12.5670  -17.8022   19.8530 O   0  0  0  0  0  0  0  0  0  0  0  0
   13.3076  -21.5367   23.4506 O   0  0  0  0  0  0  0  0  0  0  0  0
   14.3495  -18.2463   21.1776 O   0  0  0  0  0  0  0  0  0  0  0  0
  2  1  1  0
  3  2  1  0
  4  3  1  0
  5  4  1  0
  5  6  1  6
  7  5  1  0
  7  8  2  0
  9  7  1  0
 10 13  1  0
 10  9  1  0
 10 11  1  6
 12 11  1  0
 13 15  1  0
 14 13  2  0
 15 16  1  0
 16 20  1  0
 17 18  1  0
 16 17  1  6
 18 19  2  0
 20 23  2  0
 20 21  1  0
 22 18  1  0
M  END
$$$$
