MCD.pdb
     RDKit          3D

 23 22  0  0  1  0  0  0  0  0999 V2000
    8.0470  -11.4253   20.5920 C   0  0  0  0  0  0  0  0  0  0  0  0
    7.6227  -12.3018   19.0715 S   0  0  0  0  0  0  0  0  0  0  0  0
    8.5173  -13.8680   18.9395 C   0  0  0  0  0  0  0  0  0  0  0  0
    9.9839  -13.7009   19.2252 C   0  0  0  0  0  0  0  0  0  0  0  0
   10.7257  -15.0190   19.1265 C   0  0  2  0  0  0  0  0  0  0  0  0
   10.3543  -15.6266   17.8746 N   0  0  0  0  0  0  0  0  0  0  0  0
   10.4075  -15.9030   20.2817 C   0  0  0  0  0  0  0  0  0  0  0  0
   10.6418  -15.5658   21.4784 O   0  0  0  0  0  0  0  0  0  0  0  0
    9.8190  -17.1840   20.1056 N   0  0  0  0  0  0  0  0  0  0  0  0
    9.5913  -18.0879   21.2018 C   0  0  1  0  0  0  0  0  0  0  0  0
    8.4921  -19.0803   20.9295 C   0  0  0  0  0  0  0  0  0  0  0  0
    6.9481  -18.2567   20.4526 S   0  0  0  0  0  0  0  0  0  0  0  0
   10.8117  -18.8496   21.5677 C   0  0  0  0  0  0  0  0  0  0  0  0
   11.5487  -19.3374   20.6736 O   0  0  0  0  0  0  0  0  0  0  0  0
   11.2000  -19.0609   22.9238 N   0  0  0  0  0  0  0  0  0  0  0  0
   12.5208  -19.5648   23.2741 C   0  0  1  0  0  0  0  0  0  0  0  0
   13.1272  -18.7118   24.3616 C   0  0  0  0  0  0  0  0  0  0  0  0
   14.4264  -19.2030   24.8537 C   0  0  0  0  0  0  0  0  0  0  0  0
   14.9218  -20.2429   24.3778 O   0  0  0  0  0  0  0  0  0  0  0  0
   12.3544  -20.9483   23.7867 C   0  0  0  0  0  0  0  0  0  0  0  0
   13.1547  -21.9557   23.2932 O   0  0  0  0  0  0  0  0  0  0  0  0
   15.0865  -18.5096   25.8378 O   0  0  0  0  0  0  0  0  0  0  0  0
   11.5031  -21.2215   24.6578 O   0  0  0  0  0  0  0  0  0  0  0  0
  2  1  1  0
  3  2  1  0
  4  3  1  0
  5  4  1  0
  5  6  1  6
  7  5  1  0
  7  8  2  0
  9  7  1  0
 10 13  1  0
 10  9  1  0
 10 11  1  6
 12 11  1  0
 13 15  1  0
 14 13  2  0
 15 16  1  0
 16 20  1  0
 17 18  1  0
 16 17  1  1
 18 19  2  0
 20 23  2  0
 20 21  1  0
 22 18  1  0
M  END
$$$$
