MCD.pdb
     RDKit          3D

 23 22  0  0  1  0  0  0  0  0999 V2000
    7.2858  -17.1504   18.9109 C   0  0  0  0  0  0  0  0  0  0  0  0
    6.3216  -15.8069   18.1859 S   0  0  0  0  0  0  0  0  0  0  0  0
    6.6373  -14.2375   19.0274 C   0  0  0  0  0  0  0  0  0  0  0  0
    7.2566  -14.4432   20.3819 C   0  0  0  0  0  0  0  0  0  0  0  0
    7.4688  -13.1278   21.1044 C   0  0  2  0  0  0  0  0  0  0  0  0
    8.3226  -12.3167   20.2752 N   0  0  0  0  0  0  0  0  0  0  0  0
    8.0592  -13.3445   22.4540 C   0  0  0  0  0  0  0  0  0  0  0  0
    9.2748  -13.6529   22.6210 O   0  0  0  0  0  0  0  0  0  0  0  0
    7.2868  -13.2169   23.6395 N   0  0  0  0  0  0  0  0  0  0  0  0
    7.7052  -13.7727   24.8990 C   0  0  1  0  0  0  0  0  0  0  0  0
    6.7951  -13.4009   26.0395 C   0  0  0  0  0  0  0  0  0  0  0  0
    6.0681  -11.7554   25.8081 S   0  0  0  0  0  0  0  0  0  0  0  0
    7.8016  -15.2534   24.8580 C   0  0  0  0  0  0  0  0  0  0  0  0
    7.1673  -15.9081   23.9922 O   0  0  0  0  0  0  0  0  0  0  0  0
    8.6023  -15.9907   25.7798 N   0  0  0  0  0  0  0  0  0  0  0  0
    9.5039  -17.0464   25.3395 C   0  0  1  0  0  0  0  0  0  0  0  0
   10.5392  -16.4818   24.3974 C   0  0  0  0  0  0  0  0  0  0  0  0
   11.5442  -17.4639   23.9538 C   0  0  0  0  0  0  0  0  0  0  0  0
   11.4988  -18.6367   24.3730 O   0  0  0  0  0  0  0  0  0  0  0  0
   10.1911  -17.5830   26.5413 C   0  0  0  0  0  0  0  0  0  0  0  0
   10.1106  -18.9291   26.8248 O   0  0  0  0  0  0  0  0  0  0  0  0
   12.5290  -17.0797   23.0777 O   0  0  0  0  0  0  0  0  0  0  0  0
   10.8428  -16.8403   27.3041 O   0  0  0  0  0  0  0  0  0  0  0  0
  2  1  1  0
  3  2  1  0
  4  3  1  0
  5  4  1  0
  5  6  1  6
  7  5  1  0
  7  8  2  0
  9  7  1  0
 10 13  1  0
 10  9  1  0
 10 11  1  1
 12 11  1  0
 13 15  1  0
 14 13  2  0
 15 16  1  0
 16 20  1  0
 17 18  1  0
 16 17  1  6
 18 19  2  0
 20 23  2  0
 20 21  1  0
 22 18  1  0
M  END
$$$$
