TPD.pdb
     RDKit          3D

 23 23  0  0  1  0  0  0  0  0999 V2000
    7.3580  -17.4504   17.1133 C   0  0  0  0  0  0  0  0  0  0  0  0
    8.4197  -16.9481   16.1899 C   0  0  1  0  0  0  0  0  0  0  0  0
    8.1338  -17.1772   14.8359 O   0  0  0  0  0  0  0  0  0  0  0  0
    8.6542  -15.4442   16.4182 C   0  0  2  0  0  0  0  0  0  0  0  0
    9.4369  -15.0017   15.2699 N   0  0  0  0  0  0  0  0  0  0  0  0
    9.4323  -15.2489   17.6750 C   0  0  0  0  0  0  0  0  0  0  0  0
   10.4588  -15.9772   17.7509 O   0  0  0  0  0  0  0  0  0  0  0  0
    9.0524  -14.3385   18.6752 N   0  0  0  0  0  0  0  0  0  0  0  0
    8.6780  -12.9357   18.3651 C   0  0  0  0  0  0  0  0  0  0  0  0
    7.3463  -12.8831   19.0745 C   0  0  0  0  0  0  0  0  0  0  0  0
    7.4395  -13.9096   20.1969 C   0  0  0  0  0  0  0  0  0  0  0  0
    8.9082  -14.3197   20.0856 C   0  0  1  0  0  0  0  0  0  0  0  0
    9.2325  -15.4801   20.8674 C   0  0  0  0  0  0  0  0  0  0  0  0
    8.7703  -16.6154   20.6748 O   0  0  0  0  0  0  0  0  0  0  0  0
   10.1528  -15.3719   21.9623 N   0  0  0  0  0  0  0  0  0  0  0  0
   10.7555  -16.5777   22.5521 C   0  0  1  0  0  0  0  0  0  0  0  0
   11.5828  -17.2029   21.4539 C   0  0  0  0  0  0  0  0  0  0  0  0
   12.2431  -18.4609   21.8638 C   0  0  0  0  0  0  0  0  0  0  0  0
   12.1528  -18.9831   23.0055 O   0  0  0  0  0  0  0  0  0  0  0  0
   11.6134  -16.2510   23.6912 C   0  0  0  0  0  0  0  0  0  0  0  0
   11.3715  -16.8894   24.8988 O   0  0  0  0  0  0  0  0  0  0  0  0
   13.0465  -19.1756   20.9552 O   0  0  0  0  0  0  0  0  0  0  0  0
   12.5641  -15.4171   23.6371 O   0  0  0  0  0  0  0  0  0  0  0  0
  2  1  1  1
  3  2  1  0
  4  6  1  0
  4  2  1  0
  4  5  1  6
  6  7  2  0
  8 12  1  0
  8  6  1  0
  9  8  1  0
 10  9  1  0
 10 11  1  0
 11 12  1  0
 13 14  2  0
 12 13  1  6
 15 13  1  0
 16 15  1  0
 16 20  1  0
 16 17  1  6
 18 17  1  0
 18 22  1  0
 19 18  2  0
 20 21  1  0
 23 20  2  0
M  END
$$$$
