TPD.pdb
     RDKit          3D

 23 23  0  0  1  0  0  0  0  0999 V2000
    8.4775  -14.5269   25.5863 C   0  0  0  0  0  0  0  0  0  0  0  0
    7.8991  -15.8768   25.8611 C   0  0  1  0  0  0  0  0  0  0  0  0
    7.1151  -15.9203   27.0233 O   0  0  0  0  0  0  0  0  0  0  0  0
    7.0628  -16.3509   24.6591 C   0  0  2  0  0  0  0  0  0  0  0  0
    6.3950  -17.5649   25.1144 N   0  0  0  0  0  0  0  0  0  0  0  0
    7.9689  -16.6619   23.5165 C   0  0  0  0  0  0  0  0  0  0  0  0
    8.9228  -17.4275   23.8232 O   0  0  0  0  0  0  0  0  0  0  0  0
    7.7729  -16.1478   22.2239 N   0  0  0  0  0  0  0  0  0  0  0  0
    6.4209  -16.0084   21.6264 C   0  0  0  0  0  0  0  0  0  0  0  0
    6.4916  -14.5573   21.2155 C   0  0  0  0  0  0  0  0  0  0  0  0
    7.9703  -14.2676   20.9883 C   0  0  0  0  0  0  0  0  0  0  0  0
    8.5621  -15.6683   21.1480 C   0  0  1  0  0  0  0  0  0  0  0  0
    9.9956  -15.6702   21.2374 C   0  0  0  0  0  0  0  0  0  0  0  0
   10.6791  -14.7295   21.6703 O   0  0  0  0  0  0  0  0  0  0  0  0
   10.7386  -16.8195   20.8079 N   0  0  0  0  0  0  0  0  0  0  0  0
   12.1284  -17.0168   21.2491 C   0  0  1  0  0  0  0  0  0  0  0  0
   12.0690  -17.1363   22.7535 C   0  0  0  0  0  0  0  0  0  0  0  0
   13.3911  -17.3674   23.3741 C   0  0  0  0  0  0  0  0  0  0  0  0
   14.4724  -17.4893   22.7413 O   0  0  0  0  0  0  0  0  0  0  0  0
   12.7083  -18.2333   20.6798 C   0  0  0  0  0  0  0  0  0  0  0  0
   12.0197  -19.4264   20.8424 O   0  0  0  0  0  0  0  0  0  0  0  0
   13.5168  -17.4682   24.7725 O   0  0  0  0  0  0  0  0  0  0  0  0
   13.8047  -18.2586   20.0476 O   0  0  0  0  0  0  0  0  0  0  0  0
  2  1  1  6
  3  2  1  0
  4  6  1  0
  4  2  1  0
  4  5  1  1
  6  7  2  0
  8 12  1  0
  8  6  1  0
  9  8  1  0
 10  9  1  0
 10 11  1  0
 11 12  1  0
 13 14  2  0
 12 13  1  1
 15 13  1  0
 16 15  1  0
 16 20  1  0
 16 17  1  1
 18 17  1  0
 18 22  1  0
 19 18  2  0
 20 21  1  0
 23 20  2  0
M  END
$$$$
