TPD.pdb
     RDKit          3D

 23 23  0  0  1  0  0  0  0  0999 V2000
    7.1886  -17.6206   17.5516 C   0  0  0  0  0  0  0  0  0  0  0  0
    8.3384  -17.3001   16.6530 C   0  0  1  0  0  0  0  0  0  0  0  0
    8.1153  -17.6568   15.3149 O   0  0  0  0  0  0  0  0  0  0  0  0
    8.6752  -15.8006   16.7358 C   0  0  2  0  0  0  0  0  0  0  0  0
    9.5498  -15.5429   15.5975 N   0  0  0  0  0  0  0  0  0  0  0  0
    9.3978  -15.5244   18.0105 C   0  0  0  0  0  0  0  0  0  0  0  0
   10.3316  -16.3379   18.2473 O   0  0  0  0  0  0  0  0  0  0  0  0
    9.0649  -14.4577   18.8619 N   0  0  0  0  0  0  0  0  0  0  0  0
    8.8574  -13.0778   18.3546 C   0  0  0  0  0  0  0  0  0  0  0  0
    7.5037  -12.8022   18.9638 C   0  0  0  0  0  0  0  0  0  0  0  0
    7.4297  -13.6765   20.2097 C   0  0  0  0  0  0  0  0  0  0  0  0
    8.8506  -14.2398   20.2464 C   0  0  1  0  0  0  0  0  0  0  0  0
    9.0096  -15.3136   21.1869 C   0  0  0  0  0  0  0  0  0  0  0  0
    8.2609  -16.2997   21.2687 O   0  0  0  0  0  0  0  0  0  0  0  0
   10.0974  -15.2920   22.1216 N   0  0  0  0  0  0  0  0  0  0  0  0
   10.4885  -16.5156   22.8392 C   0  0  1  0  0  0  0  0  0  0  0  0
   11.0051  -17.4640   21.7832 C   0  0  0  0  0  0  0  0  0  0  0  0
   11.4300  -18.7709   22.3289 C   0  0  0  0  0  0  0  0  0  0  0  0
   11.1960  -19.1737   23.4983 O   0  0  0  0  0  0  0  0  0  0  0  0
   11.5391  -16.2526   23.8228 C   0  0  0  0  0  0  0  0  0  0  0  0
   12.6111  -15.4593   23.4411 O   0  0  0  0  0  0  0  0  0  0  0  0
   12.1535  -19.6777   21.5314 O   0  0  0  0  0  0  0  0  0  0  0  0
   11.5253  -16.7096   25.0032 O   0  0  0  0  0  0  0  0  0  0  0  0
  2  1  1  1
  3  2  1  0
  4  6  1  0
  4  2  1  0
  4  5  1  6
  6  7  2  0
  8 12  1  0
  8  6  1  0
  9  8  1  0
 10  9  1  0
 10 11  1  0
 11 12  1  0
 13 14  2  0
 12 13  1  1
 15 13  1  0
 16 15  1  0
 16 20  1  0
 16 17  1  6
 18 17  1  0
 18 22  1  0
 19 18  2  0
 20 21  1  0
 23 20  2  0
M  END
$$$$
