TPD.pdb
     RDKit          3D

 23 23  0  0  1  0  0  0  0  0999 V2000
    7.3388  -17.3318   17.1756 C   0  0  0  0  0  0  0  0  0  0  0  0
    8.4294  -16.9590   16.2251 C   0  0  1  0  0  0  0  0  0  0  0  0
    8.1137  -17.2235   14.8842 O   0  0  0  0  0  0  0  0  0  0  0  0
    8.7874  -15.4706   16.3846 C   0  0  2  0  0  0  0  0  0  0  0  0
    9.6579  -15.1646   15.2552 N   0  0  0  0  0  0  0  0  0  0  0  0
    9.5221  -15.2722   17.6669 C   0  0  0  0  0  0  0  0  0  0  0  0
   10.5504  -15.9937   17.7757 O   0  0  0  0  0  0  0  0  0  0  0  0
    9.1033  -14.3659   18.6552 N   0  0  0  0  0  0  0  0  0  0  0  0
    8.6658  -12.9858   18.3265 C   0  0  0  0  0  0  0  0  0  0  0  0
    7.3342  -12.9832   19.0379 C   0  0  0  0  0  0  0  0  0  0  0  0
    7.4750  -13.9888   20.1742 C   0  0  0  0  0  0  0  0  0  0  0  0
    8.9604  -14.3341   20.0655 C   0  0  1  0  0  0  0  0  0  0  0  0
    9.3377  -15.4678   20.8626 C   0  0  0  0  0  0  0  0  0  0  0  0
    8.8616  -16.6073   20.7427 O   0  0  0  0  0  0  0  0  0  0  0  0
   10.3331  -15.3250   21.8854 N   0  0  0  0  0  0  0  0  0  0  0  0
   10.8029  -16.4988   22.6380 C   0  0  1  0  0  0  0  0  0  0  0  0
   12.2840  -16.5996   22.3599 C   0  0  0  0  0  0  0  0  0  0  0  0
   12.9168  -17.7812   22.9843 C   0  0  0  0  0  0  0  0  0  0  0  0
   12.3013  -18.6760   23.6207 O   0  0  0  0  0  0  0  0  0  0  0  0
   10.5801  -16.3434   24.0756 C   0  0  0  0  0  0  0  0  0  0  0  0
   10.2244  -15.0903   24.5524 O   0  0  0  0  0  0  0  0  0  0  0  0
   14.3079  -17.9777   22.8959 O   0  0  0  0  0  0  0  0  0  0  0  0
   10.6947  -17.2887   24.9096 O   0  0  0  0  0  0  0  0  0  0  0  0
  2  1  1  1
  3  2  1  0
  4  6  1  0
  4  2  1  0
  4  5  1  6
  6  7  2  0
  8 12  1  0
  8  6  1  0
  9  8  1  0
 10  9  1  0
 10 11  1  0
 11 12  1  0
 13 14  2  0
 12 13  1  6
 15 13  1  0
 16 15  1  0
 16 20  1  0
 16 17  1  1
 18 17  1  0
 18 22  1  0
 19 18  2  0
 20 21  1  0
 23 20  2  0
M  END
$$$$
