TPD.pdb
     RDKit          3D

 23 23  0  0  1  0  0  0  0  0999 V2000
    7.2244  -17.3331   17.3690 C   0  0  0  0  0  0  0  0  0  0  0  0
    8.3123  -16.9873   16.4052 C   0  0  1  0  0  0  0  0  0  0  0  0
    7.9561  -17.1976   15.0649 O   0  0  0  0  0  0  0  0  0  0  0  0
    8.7469  -15.5234   16.5976 C   0  0  2  0  0  0  0  0  0  0  0  0
    9.6927  -15.2615   15.5187 N   0  0  0  0  0  0  0  0  0  0  0  0
    9.4225  -15.3764   17.9187 C   0  0  0  0  0  0  0  0  0  0  0  0
   10.2969  -16.2578   18.1388 O   0  0  0  0  0  0  0  0  0  0  0  0
    9.1099  -14.3512   18.8269 N   0  0  0  0  0  0  0  0  0  0  0  0
    8.7913  -12.9714   18.3809 C   0  0  0  0  0  0  0  0  0  0  0  0
    7.4821  -12.7831   19.1088 C   0  0  0  0  0  0  0  0  0  0  0  0
    7.5576  -13.6924   20.3293 C   0  0  0  0  0  0  0  0  0  0  0  0
    9.0030  -14.1811   20.2305 C   0  0  1  0  0  0  0  0  0  0  0  0
    9.2946  -15.2693   21.1214 C   0  0  0  0  0  0  0  0  0  0  0  0
    8.7202  -16.3691   21.1073 O   0  0  0  0  0  0  0  0  0  0  0  0
   10.3157  -15.1249   22.1183 N   0  0  0  0  0  0  0  0  0  0  0  0
   10.5528  -16.1922   23.1031 C   0  0  1  0  0  0  0  0  0  0  0  0
   12.0482  -16.2346   23.3112 C   0  0  0  0  0  0  0  0  0  0  0  0
   12.7951  -16.6439   22.1025 C   0  0  0  0  0  0  0  0  0  0  0  0
   12.4926  -17.6174   21.3640 O   0  0  0  0  0  0  0  0  0  0  0  0
    9.8853  -15.9123   24.3744 C   0  0  0  0  0  0  0  0  0  0  0  0
    9.8309  -16.9229   25.3231 O   0  0  0  0  0  0  0  0  0  0  0  0
   13.9390  -15.9326   21.6938 O   0  0  0  0  0  0  0  0  0  0  0  0
    9.3532  -14.7991   24.6573 O   0  0  0  0  0  0  0  0  0  0  0  0
  2  1  1  1
  3  2  1  0
  4  6  1  0
  4  2  1  0
  4  5  1  6
  6  7  2  0
  8 12  1  0
  8  6  1  0
  9  8  1  0
 10  9  1  0
 10 11  1  0
 11 12  1  0
 13 14  2  0
 12 13  1  1
 15 13  1  0
 16 15  1  0
 16 20  1  0
 16 17  1  1
 18 17  1  0
 18 22  1  0
 19 18  2  0
 20 21  1  0
 23 20  2  0
M  END
$$$$
