TPD.pdb
     RDKit          3D

 23 23  0  0  1  0  0  0  0  0999 V2000
    7.0304  -17.4482   17.3689 C   0  0  0  0  0  0  0  0  0  0  0  0
    8.0967  -17.1372   16.3697 C   0  0  1  0  0  0  0  0  0  0  0  0
    7.7041  -17.3758   15.0444 O   0  0  0  0  0  0  0  0  0  0  0  0
    8.5509  -15.6739   16.5156 C   0  0  2  0  0  0  0  0  0  0  0  0
    9.4471  -15.4388   15.3893 N   0  0  0  0  0  0  0  0  0  0  0  0
    9.2886  -15.5096   17.8009 C   0  0  0  0  0  0  0  0  0  0  0  0
   10.1654  -16.3944   17.9958 O   0  0  0  0  0  0  0  0  0  0  0  0
    9.0267  -14.4660   18.7042 N   0  0  0  0  0  0  0  0  0  0  0  0
    8.7312  -13.0838   18.2496 C   0  0  0  0  0  0  0  0  0  0  0  0
    7.4473  -12.8534   19.0098 C   0  0  0  0  0  0  0  0  0  0  0  0
    7.5328  -13.7498   20.2391 C   0  0  0  0  0  0  0  0  0  0  0  0
    8.9621  -14.2765   20.1079 C   0  0  1  0  0  0  0  0  0  0  0  0
    9.2500  -15.3612   21.0042 C   0  0  0  0  0  0  0  0  0  0  0  0
    8.5591  -16.3852   21.1214 O   0  0  0  0  0  0  0  0  0  0  0  0
   10.4092  -15.3054   21.8473 N   0  0  0  0  0  0  0  0  0  0  0  0
   10.7101  -16.4068   22.7754 C   0  0  1  0  0  0  0  0  0  0  0  0
   12.2166  -16.5046   22.8225 C   0  0  0  0  0  0  0  0  0  0  0  0
   12.7070  -17.5104   23.7890 C   0  0  0  0  0  0  0  0  0  0  0  0
   12.1588  -18.6211   24.0134 O   0  0  0  0  0  0  0  0  0  0  0  0
   10.1907  -16.1400   24.1168 C   0  0  0  0  0  0  0  0  0  0  0  0
    9.6408  -14.8921   24.3710 O   0  0  0  0  0  0  0  0  0  0  0  0
   13.8688  -17.2677   24.5460 O   0  0  0  0  0  0  0  0  0  0  0  0
   10.2159  -16.9842   25.0597 O   0  0  0  0  0  0  0  0  0  0  0  0
  2  1  1  1
  3  2  1  0
  4  6  1  0
  4  2  1  0
  4  5  1  6
  6  7  2  0
  8 12  1  0
  8  6  1  0
  9  8  1  0
 10  9  1  0
 10 11  1  0
 11 12  1  0
 13 14  2  0
 12 13  1  1
 15 13  1  0
 16 15  1  0
 16 20  1  0
 16 17  1  1
 18 17  1  0
 18 22  1  0
 19 18  2  0
 20 21  1  0
 23 20  2  0
M  END
$$$$
