TPD.pdb
     RDKit          3D

 23 23  0  0  1  0  0  0  0  0999 V2000
    6.6636  -18.3129   18.9704 C   0  0  0  0  0  0  0  0  0  0  0  0
    7.4973  -18.0601   17.7567 C   0  0  1  0  0  0  0  0  0  0  0  0
    6.8867  -18.4779   16.5651 O   0  0  0  0  0  0  0  0  0  0  0  0
    7.8500  -16.5653   17.6565 C   0  0  2  0  0  0  0  0  0  0  0  0
    8.4732  -16.4074   16.3474 N   0  0  0  0  0  0  0  0  0  0  0  0
    8.8202  -16.2117   18.7322 C   0  0  0  0  0  0  0  0  0  0  0  0
    9.8298  -16.9663   18.7687 O   0  0  0  0  0  0  0  0  0  0  0  0
    8.6224  -15.1388   19.6172 N   0  0  0  0  0  0  0  0  0  0  0  0
    8.0361  -13.8484   19.1750 C   0  0  0  0  0  0  0  0  0  0  0  0
    6.9382  -13.7218   20.2035 C   0  0  0  0  0  0  0  0  0  0  0  0
    7.4276  -14.4945   21.4223 C   0  0  0  0  0  0  0  0  0  0  0  0
    8.8506  -14.8431   20.9850 C   0  0  1  0  0  0  0  0  0  0  0  0
    9.4868  -15.8038   21.8425 C   0  0  0  0  0  0  0  0  0  0  0  0
    9.0252  -16.9221   22.1178 O   0  0  0  0  0  0  0  0  0  0  0  0
   10.7493  -15.4964   22.4499 N   0  0  0  0  0  0  0  0  0  0  0  0
   11.3976  -16.4614   23.3520 C   0  0  1  0  0  0  0  0  0  0  0  0
   12.8626  -16.0940   23.3627 C   0  0  0  0  0  0  0  0  0  0  0  0
   13.6797  -16.9747   24.2247 C   0  0  0  0  0  0  0  0  0  0  0  0
   13.2681  -18.0315   24.7708 O   0  0  0  0  0  0  0  0  0  0  0  0
   10.8581  -16.3787   24.7094 C   0  0  0  0  0  0  0  0  0  0  0  0
    9.9835  -15.3436   25.0055 O   0  0  0  0  0  0  0  0  0  0  0  0
   15.0260  -16.6632   24.4933 O   0  0  0  0  0  0  0  0  0  0  0  0
   11.1457  -17.1987   25.6298 O   0  0  0  0  0  0  0  0  0  0  0  0
  2  1  1  1
  3  2  1  0
  4  6  1  0
  4  2  1  0
  4  5  1  6
  6  7  2  0
  8 12  1  0
  8  6  1  0
  9  8  1  0
 10  9  1  0
 10 11  1  0
 11 12  1  0
 13 14  2  0
 12 13  1  1
 15 13  1  0
 16 15  1  0
 16 20  1  0
 16 17  1  1
 18 17  1  0
 18 22  1  0
 19 18  2  0
 20 21  1  0
 23 20  2  0
M  END
$$$$
