PAM.pdb
     RDKit          3D

 21 21  0  0  1  0  0  0  0  0999 V2000
    6.3657  -19.3420   20.7689 N   0  0  0  0  0  0  0  0  0  0  0  0
    5.9521  -20.3023   21.7652 C   0  0  0  0  0  0  0  0  0  0  0  0
    5.9845  -19.4895   23.0596 C   0  0  0  0  0  0  0  0  0  0  0  0
    5.3975  -18.1771   22.5819 C   0  0  0  0  0  0  0  0  0  0  0  0
    5.9838  -18.0556   21.1935 C   0  0  1  0  0  0  0  0  0  0  0  0
    7.0452  -17.0458   21.2370 C   0  0  0  0  0  0  0  0  0  0  0  0
    8.2413  -17.4653   21.2681 O   0  0  0  0  0  0  0  0  0  0  0  0
    7.4949  -13.3905   20.5366 C   0  0  0  0  0  0  0  0  0  0  0  0
    7.9405  -14.6905   21.1435 C   0  0  2  0  0  0  0  0  0  0  0  0
    6.8632  -15.6487   21.2475 N   0  0  0  0  0  0  0  0  0  0  0  0
    8.6102  -14.4477   22.4316 C   0  0  0  0  0  0  0  0  0  0  0  0
    9.6098  -13.7084   22.5773 O   0  0  0  0  0  0  0  0  0  0  0  0
    6.5924  -10.9894   27.4522 C   0  0  0  0  0  0  0  0  0  0  0  0
    5.9387  -12.4297   26.5664 S   0  0  0  0  0  0  0  0  0  0  0  0
    7.2280  -12.9795   25.3905 C   0  0  0  0  0  0  0  0  0  0  0  0
    7.6405  -14.3654   25.7932 C   0  0  0  0  0  0  0  0  0  0  0  0
    8.7271  -14.9302   24.9148 C   0  0  2  0  0  0  0  0  0  0  0  0
    8.1014  -15.0857   23.5919 N   0  0  0  0  0  0  0  0  0  0  0  0
    9.0972  -16.2806   25.3788 C   0  0  0  0  0  0  0  0  0  0  0  0
    8.8557  -17.4485   24.6697 O   0  0  0  0  0  0  0  0  0  0  0  0
    9.6699  -16.4076   26.4889 O   0  0  0  0  0  0  0  0  0  0  0  0
  2  1  1  0
  3  4  1  0
  3  2  1  0
  4  5  1  0
  5  1  1  0
  5  6  1  1
  7  6  2  0
  9 10  1  0
  9  8  1  1
 10  6  1  0
 11 18  1  0
 11  9  1  0
 12 11  2  0
 14 13  1  0
 15 16  1  0
 15 14  1  0
 17 18  1  0
 17 16  1  1
 19 17  1  0
 20 19  1  0
 21 19  2  0
M  END
$$$$
