PAM.pdb
     RDKit          3D

 21 21  0  0  1  0  0  0  0  0999 V2000
    9.1313  -14.9964   17.4449 N   0  0  0  0  0  0  0  0  0  0  0  0
    8.4741  -14.4628   16.2748 C   0  0  0  0  0  0  0  0  0  0  0  0
    7.3889  -13.5655   16.8701 C   0  0  0  0  0  0  0  0  0  0  0  0
    8.1502  -12.9233   18.0116 C   0  0  0  0  0  0  0  0  0  0  0  0
    9.0189  -14.0634   18.4928 C   0  0  1  0  0  0  0  0  0  0  0  0
    8.4537  -14.5646   19.7488 C   0  0  0  0  0  0  0  0  0  0  0  0
    8.3075  -13.7289   20.6910 O   0  0  0  0  0  0  0  0  0  0  0  0
    7.2108  -17.8101   21.2774 C   0  0  0  0  0  0  0  0  0  0  0  0
    7.4836  -16.3328   21.2619 C   0  0  2  0  0  0  0  0  0  0  0  0
    8.0558  -15.8906   20.0103 N   0  0  0  0  0  0  0  0  0  0  0  0
    8.3021  -15.9542   22.4253 C   0  0  0  0  0  0  0  0  0  0  0  0
    9.5536  -15.9749   22.4426 O   0  0  0  0  0  0  0  0  0  0  0  0
    5.6709  -11.8614   28.1651 C   0  0  0  0  0  0  0  0  0  0  0  0
    6.9335  -11.9324   26.8662 S   0  0  0  0  0  0  0  0  0  0  0  0
    6.7904  -13.5655   26.0537 C   0  0  0  0  0  0  0  0  0  0  0  0
    7.8498  -13.6326   24.9924 C   0  0  0  0  0  0  0  0  0  0  0  0
    8.3776  -15.0283   24.7810 C   0  0  2  0  0  0  0  0  0  0  0  0
    7.6443  -15.5367   23.6107 N   0  0  0  0  0  0  0  0  0  0  0  0
    8.0101  -15.8831   25.9255 C   0  0  0  0  0  0  0  0  0  0  0  0
    8.6983  -15.9221   27.1298 O   0  0  0  0  0  0  0  0  0  0  0  0
    7.0107  -16.6367   25.8270 O   0  0  0  0  0  0  0  0  0  0  0  0
  2  1  1  0
  3  4  1  0
  3  2  1  0
  4  5  1  0
  5  1  1  0
  5  6  1  1
  7  6  2  0
  9 10  1  0
  9  8  1  6
 10  6  1  0
 11 18  1  0
 11  9  1  0
 12 11  2  0
 14 13  1  0
 15 16  1  0
 15 14  1  0
 17 18  1  0
 17 16  1  1
 19 17  1  0
 20 19  1  0
 21 19  2  0
M  END
$$$$
