PAM.pdb
     RDKit          3D

 21 21  0  0  1  0  0  0  0  0999 V2000
    7.3649  -17.7403   19.6141 N   0  0  0  0  0  0  0  0  0  0  0  0
    5.9728  -17.3654   19.7006 C   0  0  0  0  0  0  0  0  0  0  0  0
    5.9605  -16.3535   20.8464 C   0  0  0  0  0  0  0  0  0  0  0  0
    7.2246  -15.5741   20.5466 C   0  0  0  0  0  0  0  0  0  0  0  0
    8.1534  -16.6583   20.0484 C   0  0  1  0  0  0  0  0  0  0  0  0
    9.1223  -16.9472   21.1094 C   0  0  0  0  0  0  0  0  0  0  0  0
    9.0232  -18.0684   21.6931 O   0  0  0  0  0  0  0  0  0  0  0  0
   12.5186  -15.8790   22.1607 C   0  0  0  0  0  0  0  0  0  0  0  0
   11.1820  -16.4822   22.4874 C   0  0  2  0  0  0  0  0  0  0  0  0
   10.1570  -16.0956   21.5444 N   0  0  0  0  0  0  0  0  0  0  0  0
   10.8144  -16.1807   23.8805 C   0  0  0  0  0  0  0  0  0  0  0  0
   11.5624  -16.3778   24.8647 O   0  0  0  0  0  0  0  0  0  0  0  0
    6.3278  -11.4364   25.9874 C   0  0  0  0  0  0  0  0  0  0  0  0
    7.4297  -12.4462   27.0133 S   0  0  0  0  0  0  0  0  0  0  0  0
    7.1127  -14.1988   26.5945 C   0  0  0  0  0  0  0  0  0  0  0  0
    7.8265  -14.4881   25.3061 C   0  0  0  0  0  0  0  0  0  0  0  0
    9.0747  -15.3097   25.5013 C   0  0  2  0  0  0  0  0  0  0  0  0
    9.5329  -15.6307   24.1401 N   0  0  0  0  0  0  0  0  0  0  0  0
    8.7377  -16.5877   26.1561 C   0  0  0  0  0  0  0  0  0  0  0  0
    8.8798  -16.8363   27.5138 O   0  0  0  0  0  0  0  0  0  0  0  0
    8.2910  -17.5308   25.4579 O   0  0  0  0  0  0  0  0  0  0  0  0
  2  1  1  0
  3  4  1  0
  3  2  1  0
  4  5  1  0
  5  1  1  0
  5  6  1  1
  7  6  2  0
  9 10  1  0
  9  8  1  6
 10  6  1  0
 11 18  1  0
 11  9  1  0
 12 11  2  0
 14 13  1  0
 15 16  1  0
 15 14  1  0
 17 18  1  0
 17 16  1  6
 19 17  1  0
 20 19  1  0
 21 19  2  0
M  END
$$$$
