PAM.pdb
     RDKit          3D

 21 21  0  0  1  0  0  0  0  0999 V2000
    9.0974  -14.8575   17.6867 N   0  0  0  0  0  0  0  0  0  0  0  0
    8.1886  -14.3315   16.6951 C   0  0  0  0  0  0  0  0  0  0  0  0
    7.1065  -13.6619   17.5425 C   0  0  0  0  0  0  0  0  0  0  0  0
    7.9534  -13.0118   18.6172 C   0  0  0  0  0  0  0  0  0  0  0  0
    9.0361  -14.0448   18.8341 C   0  0  1  0  0  0  0  0  0  0  0  0
    8.7607  -14.7304   20.0999 C   0  0  0  0  0  0  0  0  0  0  0  0
    8.3696  -14.0156   21.0714 O   0  0  0  0  0  0  0  0  0  0  0  0
    9.0801  -18.1657   21.6651 C   0  0  0  0  0  0  0  0  0  0  0  0
    8.5979  -16.7440   21.6087 C   0  0  2  0  0  0  0  0  0  0  0  0
    8.8894  -16.1125   20.3415 N   0  0  0  0  0  0  0  0  0  0  0  0
    9.1207  -15.9834   22.7554 C   0  0  0  0  0  0  0  0  0  0  0  0
   10.2348  -15.4128   22.7730 O   0  0  0  0  0  0  0  0  0  0  0  0
    6.3111  -11.0347   27.8750 C   0  0  0  0  0  0  0  0  0  0  0  0
    6.0077  -12.3890   26.7087 S   0  0  0  0  0  0  0  0  0  0  0  0
    7.5716  -13.3230   26.5368 C   0  0  0  0  0  0  0  0  0  0  0  0
    7.4441  -14.1906   25.3186 C   0  0  0  0  0  0  0  0  0  0  0  0
    8.6823  -15.0067   25.0502 C   0  0  2  0  0  0  0  0  0  0  0  0
    8.3218  -15.8815   23.9230 N   0  0  0  0  0  0  0  0  0  0  0  0
    8.9665  -15.8823   26.2027 C   0  0  0  0  0  0  0  0  0  0  0  0
    8.8139  -17.2615   26.1979 O   0  0  0  0  0  0  0  0  0  0  0  0
    9.3743  -15.3678   27.2728 O   0  0  0  0  0  0  0  0  0  0  0  0
  2  1  1  0
  3  4  1  0
  3  2  1  0
  4  5  1  0
  5  1  1  0
  5  6  1  1
  7  6  2  0
  9 10  1  0
  9  8  1  6
 10  6  1  0
 11 18  1  0
 11  9  1  0
 12 11  2  0
 14 13  1  0
 15 16  1  0
 15 14  1  0
 17 18  1  0
 17 16  1  1
 19 17  1  0
 20 19  1  0
 21 19  2  0
M  END
$$$$
