PAM.pdb
     RDKit          3D

 21 21  0  0  1  0  0  0  0  0999 V2000
    9.4732  -14.3011   18.3170 N   0  0  0  0  0  0  0  0  0  0  0  0
    8.7154  -13.8289   17.1818 C   0  0  0  0  0  0  0  0  0  0  0  0
    7.3741  -13.4385   17.8031 C   0  0  0  0  0  0  0  0  0  0  0  0
    7.8397  -12.7759   19.0834 C   0  0  0  0  0  0  0  0  0  0  0  0
    9.0217  -13.6351   19.4719 C   0  0  1  0  0  0  0  0  0  0  0  0
    8.6137  -14.4864   20.5930 C   0  0  0  0  0  0  0  0  0  0  0  0
    7.9878  -13.9289   21.5443 O   0  0  0  0  0  0  0  0  0  0  0  0
    8.8969  -18.0949   21.7406 C   0  0  0  0  0  0  0  0  0  0  0  0
    8.5477  -16.6423   21.8989 C   0  0  2  0  0  0  0  0  0  0  0  0
    8.8512  -15.8698   20.7154 N   0  0  0  0  0  0  0  0  0  0  0  0
    9.1800  -16.0961   23.1107 C   0  0  0  0  0  0  0  0  0  0  0  0
   10.3422  -15.6329   23.1510 O   0  0  0  0  0  0  0  0  0  0  0  0
    6.0855  -11.0244   26.5785 C   0  0  0  0  0  0  0  0  0  0  0  0
    6.1765  -12.8160   26.8396 S   0  0  0  0  0  0  0  0  0  0  0  0
    7.6896  -13.4141   26.0028 C   0  0  0  0  0  0  0  0  0  0  0  0
    7.7832  -14.8920   26.2480 C   0  0  0  0  0  0  0  0  0  0  0  0
    8.9712  -15.5230   25.5685 C   0  0  2  0  0  0  0  0  0  0  0  0
    8.4365  -16.0871   24.3188 N   0  0  0  0  0  0  0  0  0  0  0  0
    9.4689  -16.6538   26.3744 C   0  0  0  0  0  0  0  0  0  0  0  0
   10.3691  -16.5345   27.4235 O   0  0  0  0  0  0  0  0  0  0  0  0
    9.0658  -17.8134   26.1114 O   0  0  0  0  0  0  0  0  0  0  0  0
  2  1  1  0
  3  4  1  0
  3  2  1  0
  4  5  1  0
  5  1  1  0
  5  6  1  1
  7  6  2  0
  9 10  1  0
  9  8  1  6
 10  6  1  0
 11 18  1  0
 11  9  1  0
 12 11  2  0
 14 13  1  0
 15 16  1  0
 15 14  1  0
 17 18  1  0
 17 16  1  1
 19 17  1  0
 20 19  1  0
 21 19  2  0
M  END
$$$$
