PAM.pdb
     RDKit          3D

 21 21  0  0  1  0  0  0  0  0999 V2000
    9.2530  -14.7229   17.9430 N   0  0  0  0  0  0  0  0  0  0  0  0
    8.3536  -14.3313   16.8830 C   0  0  0  0  0  0  0  0  0  0  0  0
    7.1569  -13.7585   17.6426 C   0  0  0  0  0  0  0  0  0  0  0  0
    7.8630  -12.9857   18.7378 C   0  0  0  0  0  0  0  0  0  0  0  0
    9.0358  -13.8862   19.0538 C   0  0  1  0  0  0  0  0  0  0  0  0
    8.7609  -14.5579   20.3271 C   0  0  0  0  0  0  0  0  0  0  0  0
    8.4045  -13.8279   21.3006 O   0  0  0  0  0  0  0  0  0  0  0  0
    8.8376  -18.0293   21.8570 C   0  0  0  0  0  0  0  0  0  0  0  0
    8.4879  -16.5686   21.8237 C   0  0  2  0  0  0  0  0  0  0  0  0
    8.8551  -15.9418   20.5740 N   0  0  0  0  0  0  0  0  0  0  0  0
    9.0603  -15.8815   22.9929 C   0  0  0  0  0  0  0  0  0  0  0  0
   10.2229  -15.4200   23.0391 O   0  0  0  0  0  0  0  0  0  0  0  0
    6.1716  -11.1766   25.7047 C   0  0  0  0  0  0  0  0  0  0  0  0
    6.3364  -12.2027   27.1901 S   0  0  0  0  0  0  0  0  0  0  0  0
    7.7867  -13.2908   26.9446 C   0  0  0  0  0  0  0  0  0  0  0  0
    7.5398  -14.0929   25.7000 C   0  0  0  0  0  0  0  0  0  0  0  0
    8.7075  -14.9704   25.3290 C   0  0  2  0  0  0  0  0  0  0  0  0
    8.2541  -15.7246   24.1495 N   0  0  0  0  0  0  0  0  0  0  0  0
    8.9575  -15.9533   26.4001 C   0  0  0  0  0  0  0  0  0  0  0  0
    9.7266  -15.7069   27.5285 O   0  0  0  0  0  0  0  0  0  0  0  0
    8.4516  -17.0985   26.3063 O   0  0  0  0  0  0  0  0  0  0  0  0
  2  1  1  0
  3  4  1  0
  3  2  1  0
  4  5  1  0
  5  1  1  0
  5  6  1  1
  7  6  2  0
  9 10  1  0
  9  8  1  6
 10  6  1  0
 11 18  1  0
 11  9  1  0
 12 11  2  0
 14 13  1  0
 15 16  1  0
 15 14  1  0
 17 18  1  0
 17 16  1  1
 19 17  1  0
 20 19  1  0
 21 19  2  0
M  END
$$$$
