PAM.pdb
     RDKit          3D

 21 21  0  0  1  0  0  0  0  0999 V2000
    6.9232  -18.6801   19.3333 N   0  0  0  0  0  0  0  0  0  0  0  0
    6.4262  -19.7766   20.1311 C   0  0  0  0  0  0  0  0  0  0  0  0
    6.2543  -19.1454   21.5128 C   0  0  0  0  0  0  0  0  0  0  0  0
    5.6773  -17.7964   21.1357 C   0  0  0  0  0  0  0  0  0  0  0  0
    6.4332  -17.4732   19.8666 C   0  0  1  0  0  0  0  0  0  0  0  0
    7.4346  -16.4511   20.1839 C   0  0  0  0  0  0  0  0  0  0  0  0
    8.6241  -16.8466   20.3743 O   0  0  0  0  0  0  0  0  0  0  0  0
    7.8269  -12.7175   19.9888 C   0  0  0  0  0  0  0  0  0  0  0  0
    8.2447  -14.0799   20.4644 C   0  0  2  0  0  0  0  0  0  0  0  0
    7.2012  -15.0663   20.2980 N   0  0  0  0  0  0  0  0  0  0  0  0
    8.7401  -14.0060   21.8486 C   0  0  0  0  0  0  0  0  0  0  0  0
    9.6558  -13.2419   22.2290 O   0  0  0  0  0  0  0  0  0  0  0  0
    6.0154  -11.2118   27.5021 C   0  0  0  0  0  0  0  0  0  0  0  0
    5.8276  -12.7654   26.5870 S   0  0  0  0  0  0  0  0  0  0  0  0
    7.4392  -13.1372   25.8047 C   0  0  0  0  0  0  0  0  0  0  0  0
    7.2535  -14.3604   24.9548 C   0  0  0  0  0  0  0  0  0  0  0  0
    8.5177  -14.7794   24.2496 C   0  0  2  0  0  0  0  0  0  0  0  0
    8.1514  -14.8489   22.8259 N   0  0  0  0  0  0  0  0  0  0  0  0
    8.8963  -16.1432   24.6650 C   0  0  0  0  0  0  0  0  0  0  0  0
    9.6942  -16.4374   25.7614 O   0  0  0  0  0  0  0  0  0  0  0  0
    8.4815  -17.1212   23.9958 O   0  0  0  0  0  0  0  0  0  0  0  0
  2  1  1  0
  3  4  1  0
  3  2  1  0
  4  5  1  0
  5  1  1  0
  5  6  1  1
  7  6  2  0
  9 10  1  0
  9  8  1  1
 10  6  1  0
 11 18  1  0
 11  9  1  0
 12 11  2  0
 14 13  1  0
 15 16  1  0
 15 14  1  0
 17 18  1  0
 17 16  1  1
 19 17  1  0
 20 19  1  0
 21 19  2  0
M  END
$$$$
