PAM.pdb
     RDKit          3D

 21 21  0  0  1  0  0  0  0  0999 V2000
   10.1112  -18.4760   17.9554 N   0  0  0  0  0  0  0  0  0  0  0  0
    9.6479  -19.0814   16.7288 C   0  0  0  0  0  0  0  0  0  0  0  0
    8.2806  -18.4303   16.5198 C   0  0  0  0  0  0  0  0  0  0  0  0
    8.5868  -17.0004   16.9159 C   0  0  0  0  0  0  0  0  0  0  0  0
    9.5486  -17.1907   18.0670 C   0  0  1  0  0  0  0  0  0  0  0  0
    8.8282  -16.9044   19.3109 C   0  0  0  0  0  0  0  0  0  0  0  0
    8.3866  -15.7259   19.4650 O   0  0  0  0  0  0  0  0  0  0  0  0
    7.3115  -18.7594   22.2287 C   0  0  0  0  0  0  0  0  0  0  0  0
    7.7668  -17.5189   21.5139 C   0  0  2  0  0  0  0  0  0  0  0  0
    8.5787  -17.8163   20.3555 N   0  0  0  0  0  0  0  0  0  0  0  0
    8.4345  -16.6052   22.4553 C   0  0  0  0  0  0  0  0  0  0  0  0
    9.6752  -16.4607   22.5363 O   0  0  0  0  0  0  0  0  0  0  0  0
    6.3500  -10.9973   27.6218 C   0  0  0  0  0  0  0  0  0  0  0  0
    5.8809  -12.2411   26.3892 S   0  0  0  0  0  0  0  0  0  0  0  0
    7.4111  -13.0978   25.8676 C   0  0  0  0  0  0  0  0  0  0  0  0
    7.0356  -14.0664   24.7841 C   0  0  0  0  0  0  0  0  0  0  0  0
    8.2107  -14.8646   24.2807 C   0  0  2  0  0  0  0  0  0  0  0  0
    7.6331  -15.8318   23.3338 N   0  0  0  0  0  0  0  0  0  0  0  0
    8.8003  -15.6424   25.3867 C   0  0  0  0  0  0  0  0  0  0  0  0
    9.8847  -15.2288   26.1471 O   0  0  0  0  0  0  0  0  0  0  0  0
    8.3052  -16.7588   25.6780 O   0  0  0  0  0  0  0  0  0  0  0  0
  2  1  1  0
  3  4  1  0
  3  2  1  0
  4  5  1  0
  5  1  1  0
  5  6  1  1
  7  6  2  0
  9 10  1  0
  9  8  1  1
 10  6  1  0
 11 18  1  0
 11  9  1  0
 12 11  2  0
 14 13  1  0
 15 16  1  0
 15 14  1  0
 17 18  1  0
 17 16  1  1
 19 17  1  0
 20 19  1  0
 21 19  2  0
M  END
$$$$
