PAM.pdb
     RDKit          3D

 21 21  0  0  1  0  0  0  0  0999 V2000
    9.1178  -14.7155   18.0620 N   0  0  0  0  0  0  0  0  0  0  0  0
    8.4163  -14.1589   16.9290 C   0  0  0  0  0  0  0  0  0  0  0  0
    7.2427  -13.4254   17.5786 C   0  0  0  0  0  0  0  0  0  0  0  0
    7.9291  -12.8032   18.7772 C   0  0  0  0  0  0  0  0  0  0  0  0
    8.9061  -13.8852   19.1786 C   0  0  1  0  0  0  0  0  0  0  0  0
    8.3877  -14.5391   20.3835 C   0  0  0  0  0  0  0  0  0  0  0  0
    8.1009  -13.7934   21.3680 O   0  0  0  0  0  0  0  0  0  0  0  0
    7.6070  -18.0190   21.6850 C   0  0  0  0  0  0  0  0  0  0  0  0
    7.6546  -16.5194   21.7613 C   0  0  2  0  0  0  0  0  0  0  0  0
    8.1767  -15.9218   20.5532 N   0  0  0  0  0  0  0  0  0  0  0  0
    8.3851  -16.0941   22.9664 C   0  0  0  0  0  0  0  0  0  0  0  0
    9.6210  -15.8993   23.0087 O   0  0  0  0  0  0  0  0  0  0  0  0
    6.7656  -10.8372   27.5226 C   0  0  0  0  0  0  0  0  0  0  0  0
    6.0974  -12.5219   27.5660 S   0  0  0  0  0  0  0  0  0  0  0  0
    7.4664  -13.6635   27.1534 C   0  0  0  0  0  0  0  0  0  0  0  0
    7.1404  -14.2952   25.8314 C   0  0  0  0  0  0  0  0  0  0  0  0
    8.2345  -15.2036   25.3321 C   0  0  2  0  0  0  0  0  0  0  0  0
    7.6550  -15.8874   24.1649 N   0  0  0  0  0  0  0  0  0  0  0  0
    8.5253  -16.2407   26.3398 C   0  0  0  0  0  0  0  0  0  0  0  0
    9.3688  -16.0648   27.4273 O   0  0  0  0  0  0  0  0  0  0  0  0
    7.9854  -17.3686   26.2266 O   0  0  0  0  0  0  0  0  0  0  0  0
  2  1  1  0
  3  4  1  0
  3  2  1  0
  4  5  1  0
  5  1  1  0
  5  6  1  1
  7  6  2  0
  9 10  1  0
  9  8  1  6
 10  6  1  0
 11 18  1  0
 11  9  1  0
 12 11  2  0
 14 13  1  0
 15 16  1  0
 15 14  1  0
 17 18  1  0
 17 16  1  1
 19 17  1  0
 20 19  1  0
 21 19  2  0
M  END
$$$$
