PAM.pdb
     RDKit          3D

 21 21  0  0  1  0  0  0  0  0999 V2000
    5.7993  -18.5900   21.7247 N   0  0  0  0  0  0  0  0  0  0  0  0
    4.6216  -18.9656   20.9779 C   0  0  0  0  0  0  0  0  0  0  0  0
    4.9697  -18.5400   19.5514 C   0  0  0  0  0  0  0  0  0  0  0  0
    6.4212  -18.9674   19.4769 C   0  0  0  0  0  0  0  0  0  0  0  0
    6.9159  -18.6492   20.8699 C   0  0  1  0  0  0  0  0  0  0  0  0
    7.7380  -17.4383   20.7928 C   0  0  0  0  0  0  0  0  0  0  0  0
    8.9569  -17.5862   20.4765 O   0  0  0  0  0  0  0  0  0  0  0  0
    7.4621  -13.7383   20.4885 C   0  0  0  0  0  0  0  0  0  0  0  0
    8.1656  -14.9623   21.0023 C   0  0  2  0  0  0  0  0  0  0  0  0
    7.3021  -16.1210   21.0374 N   0  0  0  0  0  0  0  0  0  0  0  0
    8.7907  -14.6808   22.3049 C   0  0  0  0  0  0  0  0  0  0  0  0
    9.6944  -13.8332   22.4839 O   0  0  0  0  0  0  0  0  0  0  0  0
    6.2703  -11.0476   26.9621 C   0  0  0  0  0  0  0  0  0  0  0  0
    6.3028  -12.8501   26.7714 S   0  0  0  0  0  0  0  0  0  0  0  0
    7.7448  -13.2629   25.7236 C   0  0  0  0  0  0  0  0  0  0  0  0
    7.8321  -14.7596   25.6505 C   0  0  0  0  0  0  0  0  0  0  0  0
    8.9579  -15.2370   24.7696 C   0  0  2  0  0  0  0  0  0  0  0  0
    8.3509  -15.4089   23.4400 N   0  0  0  0  0  0  0  0  0  0  0  0
    9.4122  -16.5687   25.2124 C   0  0  0  0  0  0  0  0  0  0  0  0
    9.2902  -17.7297   24.4624 O   0  0  0  0  0  0  0  0  0  0  0  0
    9.9479  -16.6852   26.3418 O   0  0  0  0  0  0  0  0  0  0  0  0
  2  1  1  0
  3  4  1  0
  3  2  1  0
  4  5  1  0
  5  1  1  0
  5  6  1  6
  7  6  2  0
  9 10  1  0
  9  8  1  1
 10  6  1  0
 11 18  1  0
 11  9  1  0
 12 11  2  0
 14 13  1  0
 15 16  1  0
 15 14  1  0
 17 18  1  0
 17 16  1  1
 19 17  1  0
 20 19  1  0
 21 19  2  0
M  END
$$$$
