PAM.pdb
     RDKit          3D

 21 21  0  0  1  0  0  0  0  0999 V2000
    9.2979  -14.6307   17.8730 N   0  0  0  0  0  0  0  0  0  0  0  0
    8.4779  -14.2956   16.7324 C   0  0  0  0  0  0  0  0  0  0  0  0
    7.1863  -13.7897   17.3751 C   0  0  0  0  0  0  0  0  0  0  0  0
    7.7445  -12.9735   18.5229 C   0  0  0  0  0  0  0  0  0  0  0  0
    8.9331  -13.8037   18.9520 C   0  0  1  0  0  0  0  0  0  0  0  0
    8.5821  -14.4853   20.2011 C   0  0  0  0  0  0  0  0  0  0  0  0
    8.1384  -13.7667   21.1468 O   0  0  0  0  0  0  0  0  0  0  0  0
    8.5636  -17.9765   21.6933 C   0  0  0  0  0  0  0  0  0  0  0  0
    8.2773  -16.5017   21.6839 C   0  0  2  0  0  0  0  0  0  0  0  0
    8.6909  -15.8673   20.4526 N   0  0  0  0  0  0  0  0  0  0  0  0
    8.8597  -15.8626   22.8751 C   0  0  0  0  0  0  0  0  0  0  0  0
   10.0436  -15.4634   22.9523 O   0  0  0  0  0  0  0  0  0  0  0  0
    6.4749  -10.6062   26.0030 C   0  0  0  0  0  0  0  0  0  0  0  0
    6.1586  -12.0880   26.9984 S   0  0  0  0  0  0  0  0  0  0  0  0
    7.5892  -13.2077   26.7814 C   0  0  0  0  0  0  0  0  0  0  0  0
    7.3392  -14.0199   25.5441 C   0  0  0  0  0  0  0  0  0  0  0  0
    8.4899  -14.9304   25.2003 C   0  0  2  0  0  0  0  0  0  0  0  0
    8.0385  -15.6803   24.0172 N   0  0  0  0  0  0  0  0  0  0  0  0
    8.6940  -15.9124   26.2819 C   0  0  0  0  0  0  0  0  0  0  0  0
    9.5179  -15.7115   27.3802 O   0  0  0  0  0  0  0  0  0  0  0  0
    8.0928  -17.0132   26.2268 O   0  0  0  0  0  0  0  0  0  0  0  0
  2  1  1  0
  3  4  1  0
  3  2  1  0
  4  5  1  0
  5  1  1  0
  5  6  1  1
  7  6  2  0
  9 10  1  0
  9  8  1  6
 10  6  1  0
 11 18  1  0
 11  9  1  0
 12 11  2  0
 14 13  1  0
 15 16  1  0
 15 14  1  0
 17 18  1  0
 17 16  1  1
 19 17  1  0
 20 19  1  0
 21 19  2  0
M  END
$$$$
