PAM.pdb
     RDKit          3D

 21 21  0  0  1  0  0  0  0  0999 V2000
    8.6781  -14.9481   18.0477 N   0  0  0  0  0  0  0  0  0  0  0  0
    7.9283  -14.1469   17.1087 C   0  0  0  0  0  0  0  0  0  0  0  0
    7.1984  -13.1528   18.0120 C   0  0  0  0  0  0  0  0  0  0  0  0
    8.2904  -12.8254   19.0097 C   0  0  0  0  0  0  0  0  0  0  0  0
    8.9768  -14.1623   19.1766 C   0  0  1  0  0  0  0  0  0  0  0  0
    8.5809  -14.7158   20.4746 C   0  0  0  0  0  0  0  0  0  0  0  0
    8.2218  -13.8920   21.3691 O   0  0  0  0  0  0  0  0  0  0  0  0
    8.1352  -18.0748   22.1833 C   0  0  0  0  0  0  0  0  0  0  0  0
    8.2077  -16.5749   22.1365 C   0  0  2  0  0  0  0  0  0  0  0  0
    8.5609  -16.0803   20.8250 N   0  0  0  0  0  0  0  0  0  0  0  0
    9.1043  -16.0756   23.1918 C   0  0  0  0  0  0  0  0  0  0  0  0
   10.3366  -15.9089   23.0482 O   0  0  0  0  0  0  0  0  0  0  0  0
    5.5165  -11.7677   26.9806 C   0  0  0  0  0  0  0  0  0  0  0  0
    7.2689  -11.9649   26.5604 S   0  0  0  0  0  0  0  0  0  0  0  0
    7.5619  -13.7458   26.2602 C   0  0  0  0  0  0  0  0  0  0  0  0
    8.9965  -13.9006   25.8467 C   0  0  0  0  0  0  0  0  0  0  0  0
    9.3812  -15.3364   25.5979 C   0  0  2  0  0  0  0  0  0  0  0  0
    8.5506  -15.7585   24.4586 N   0  0  0  0  0  0  0  0  0  0  0  0
    8.9883  -16.1688   26.7505 C   0  0  0  0  0  0  0  0  0  0  0  0
    9.6907  -16.2380   27.9452 O   0  0  0  0  0  0  0  0  0  0  0  0
    7.9519  -16.8726   26.6686 O   0  0  0  0  0  0  0  0  0  0  0  0
  2  1  1  0
  3  4  1  0
  3  2  1  0
  4  5  1  0
  5  1  1  0
  5  6  1  1
  7  6  2  0
  9 10  1  0
  9  8  1  6
 10  6  1  0
 11 18  1  0
 11  9  1  0
 12 11  2  0
 14 13  1  0
 15 16  1  0
 15 14  1  0
 17 18  1  0
 17 16  1  1
 19 17  1  0
 20 19  1  0
 21 19  2  0
M  END
$$$$
