HYA.pdb
     RDKit          3D

 28 29  0  0  1  0  0  0  0  0999 V2000
   36.4484   -8.5125  -14.5106 N   0  0  0  0  0  0  0  0  0  0  0  0
   35.8963   -9.3068  -15.5703 C   0  0  1  0  0  0  0  0  0  0  0  0
   36.1417  -10.7760  -15.2951 C   0  0  0  0  0  0  0  0  0  0  0  0
   37.5927  -11.0902  -15.4771 C   0  0  0  0  0  0  0  0  0  0  0  0
   38.5805  -10.1632  -15.7293 C   0  0  0  0  0  0  0  0  0  0  0  0
   39.7543  -10.8091  -15.8324 N   0  0  0  0  0  0  0  0  0  0  0  0
   39.5046  -12.0988  -15.6499 C   0  0  0  0  0  0  0  0  0  0  0  0
   38.1950  -12.2851  -15.4328 N   0  0  0  0  0  0  0  0  0  0  0  0
   34.4535   -9.0174  -15.7434 C   0  0  0  0  0  0  0  0  0  0  0  0
   33.7002   -8.9527  -14.7212 O   0  0  0  0  0  0  0  0  0  0  0  0
   33.9135   -3.1710  -14.0646 O   0  0  0  0  0  0  0  0  0  0  0  0
   33.5860   -4.1361  -15.0012 C   0  0  0  0  0  0  0  0  0  0  0  0
   34.4309   -4.5340  -16.0139 C   0  0  0  0  0  0  0  0  0  0  0  0
   34.0426   -5.5021  -16.9152 C   0  0  0  0  0  0  0  0  0  0  0  0
   32.7990   -6.0938  -16.8224 C   0  0  0  0  0  0  0  0  0  0  0  0
   32.4038   -7.1349  -17.8059 C   0  0  0  0  0  0  0  0  0  0  0  0
   32.5131   -8.5164  -17.2691 C   0  0  2  0  0  0  0  0  0  0  0  0
   33.9152   -8.8130  -17.0499 N   0  0  0  0  0  0  0  0  0  0  0  0
   31.8777   -9.5619  -18.0514 C   0  0  0  0  0  0  0  0  0  0  0  0
   32.4680   -9.9999  -19.0700 O   0  0  0  0  0  0  0  0  0  0  0  0
   31.9592   -5.7041  -15.8226 C   0  0  0  0  0  0  0  0  0  0  0  0
   32.3495   -4.7351  -14.9216 C   0  0  0  0  0  0  0  0  0  0  0  0
   28.6541  -11.5715  -17.7672 C   0  0  0  0  0  0  0  0  0  0  0  0
   29.9229  -11.1098  -18.4487 C   0  0  2  0  0  0  0  0  0  0  0  0
   30.6231  -10.1083  -17.7160 N   0  0  0  0  0  0  0  0  0  0  0  0
   29.5384  -10.5720  -19.7744 C   0  0  0  0  0  0  0  0  0  0  0  0
   29.1009   -9.4004  -19.8737 O   0  0  0  0  0  0  0  0  0  0  0  0
   29.6428  -11.3222  -20.9356 O   0  0  0  0  0  0  0  0  0  0  0  0
  2  1  1  1
  3  2  1  0
  4  3  1  0
  5  4  2  0
  6  5  1  0
  7  6  1  0
  7  8  2  0
  8  4  1  0
  9 18  1  0
  9  2  1  0
 10  9  2  0
 12 11  1  0
 13 12  2  0
 14 13  1  0
 15 21  1  0
 15 14  2  0
 17 16  1  6
 16 15  1  0
 17 18  1  0
 19 25  1  0
 19 17  1  0
 20 19  2  0
 21 22  2  0
 22 12  1  0
 24 23  1  1
 24 26  1  0
 24 25  1  0
 26 28  1  0
 27 26  2  0
M  END
$$$$
