HYA.pdb
     RDKit          3D

 28 29  0  0  1  0  0  0  0  0999 V2000
   32.7611  -28.5584  -18.2481 N   0  0  0  0  0  0  0  0  0  0  0  0
   32.1559  -29.8584  -18.3005 C   0  0  1  0  0  0  0  0  0  0  0  0
   33.1401  -30.9050  -17.8206 C   0  0  0  0  0  0  0  0  0  0  0  0
   34.2231  -31.0857  -18.8363 C   0  0  0  0  0  0  0  0  0  0  0  0
   35.5720  -30.9461  -18.5922 C   0  0  0  0  0  0  0  0  0  0  0  0
   36.2382  -31.1825  -19.7351 N   0  0  0  0  0  0  0  0  0  0  0  0
   35.3314  -31.4608  -20.6620 C   0  0  0  0  0  0  0  0  0  0  0  0
   34.1020  -31.4059  -20.1306 N   0  0  0  0  0  0  0  0  0  0  0  0
   30.9030  -29.8840  -17.5100 C   0  0  0  0  0  0  0  0  0  0  0  0
   30.8525  -29.2742  -16.3954 O   0  0  0  0  0  0  0  0  0  0  0  0
   28.2016  -24.1399  -17.4145 O   0  0  0  0  0  0  0  0  0  0  0  0
   28.0705  -25.4992  -17.6406 C   0  0  0  0  0  0  0  0  0  0  0  0
   28.6488  -26.1545  -18.7055 C   0  0  0  0  0  0  0  0  0  0  0  0
   28.4787  -27.5122  -18.8731 C   0  0  0  0  0  0  0  0  0  0  0  0
   27.7255  -28.2444  -17.9777 C   0  0  0  0  0  0  0  0  0  0  0  0
   27.5571  -29.7066  -18.1800 C   0  0  0  0  0  0  0  0  0  0  0  0
   28.4722  -30.5214  -17.3391 C   0  0  2  0  0  0  0  0  0  0  0  0
   29.7617  -30.5891  -17.9985 N   0  0  0  0  0  0  0  0  0  0  0  0
   28.0036  -31.8479  -16.9786 C   0  0  0  0  0  0  0  0  0  0  0  0
   28.2069  -32.7990  -17.7734 O   0  0  0  0  0  0  0  0  0  0  0  0
   27.1512  -27.6013  -16.9224 C   0  0  0  0  0  0  0  0  0  0  0  0
   27.3225  -26.2426  -16.7564 C   0  0  0  0  0  0  0  0  0  0  0  0
   26.2179  -33.3565  -13.9696 C   0  0  0  0  0  0  0  0  0  0  0  0
   26.8424  -33.3853  -15.3468 C   0  0  2  0  0  0  0  0  0  0  0  0
   27.3281  -32.1149  -15.7713 N   0  0  0  0  0  0  0  0  0  0  0  0
   25.8019  -33.8554  -16.2908 C   0  0  0  0  0  0  0  0  0  0  0  0
   25.0770  -33.0253  -16.8902 O   0  0  0  0  0  0  0  0  0  0  0  0
   25.5890  -35.2012  -16.5469 O   0  0  0  0  0  0  0  0  0  0  0  0
  2  1  1  1
  3  2  1  0
  4  3  1  0
  5  4  2  0
  6  5  1  0
  7  6  1  0
  7  8  2  0
  8  4  1  0
  9 18  1  0
  9  2  1  0
 10  9  2  0
 12 11  1  0
 13 12  2  0
 14 13  1  0
 15 21  1  0
 15 14  2  0
 17 16  1  6
 16 15  1  0
 17 18  1  0
 19 25  1  0
 19 17  1  0
 20 19  2  0
 21 22  2  0
 22 12  1  0
 24 23  1  1
 24 26  1  0
 24 25  1  0
 26 28  1  0
 27 26  2  0
M  END
$$$$
