HYA.pdb
     RDKit          3D

 28 29  0  0  1  0  0  0  0  0999 V2000
   44.0042   -9.8396   -7.0185 N   0  0  0  0  0  0  0  0  0  0  0  0
   42.9903   -8.9882   -6.4653 C   0  0  1  0  0  0  0  0  0  0  0  0
   43.6337   -7.8482   -5.7031 C   0  0  0  0  0  0  0  0  0  0  0  0
   44.4419   -8.3904   -4.5673 C   0  0  0  0  0  0  0  0  0  0  0  0
   45.8055   -8.2520   -4.4257 C   0  0  0  0  0  0  0  0  0  0  0  0
   46.1800   -8.8649   -3.2899 N   0  0  0  0  0  0  0  0  0  0  0  0
   45.0828   -9.3693   -2.7416 C   0  0  0  0  0  0  0  0  0  0  0  0
   44.0183   -9.0889   -3.5066 N   0  0  0  0  0  0  0  0  0  0  0  0
   42.0866   -8.4920   -7.5295 C   0  0  0  0  0  0  0  0  0  0  0  0
   42.5731   -8.1329   -8.6480 O   0  0  0  0  0  0  0  0  0  0  0  0
   40.8777  -12.8477  -12.3573 O   0  0  0  0  0  0  0  0  0  0  0  0
   40.3642  -11.9145  -11.4734 C   0  0  0  0  0  0  0  0  0  0  0  0
   39.8164  -10.7129  -11.8658 C   0  0  0  0  0  0  0  0  0  0  0  0
   39.3218   -9.8266  -10.9329 C   0  0  0  0  0  0  0  0  0  0  0  0
   39.3646  -10.1238   -9.5857 C   0  0  0  0  0  0  0  0  0  0  0  0
   38.8250   -9.1521   -8.5998 C   0  0  0  0  0  0  0  0  0  0  0  0
   39.7473   -8.0176   -8.3337 C   0  0  2  0  0  0  0  0  0  0  0  0
   40.6796   -8.4184   -7.2982 N   0  0  0  0  0  0  0  0  0  0  0  0
   39.1251   -6.7465   -8.0078 C   0  0  0  0  0  0  0  0  0  0  0  0
   38.3916   -6.6741   -6.9907 O   0  0  0  0  0  0  0  0  0  0  0  0
   39.9054  -11.3110   -9.1920 C   0  0  0  0  0  0  0  0  0  0  0  0
   40.3998  -12.1966  -10.1268 C   0  0  0  0  0  0  0  0  0  0  0  0
   39.6347   -3.1575   -8.9040 C   0  0  0  0  0  0  0  0  0  0  0  0
   38.7266   -4.3104   -8.5382 C   0  0  2  0  0  0  0  0  0  0  0  0
   39.3093   -5.5866   -8.7863 N   0  0  0  0  0  0  0  0  0  0  0  0
   37.4909   -4.1682   -9.3428 C   0  0  0  0  0  0  0  0  0  0  0  0
   37.2938   -4.9187  -10.3285 O   0  0  0  0  0  0  0  0  0  0  0  0
   36.5213   -3.2219   -9.0486 O   0  0  0  0  0  0  0  0  0  0  0  0
  2  1  1  6
  3  2  1  0
  4  3  1  0
  5  4  2  0
  6  5  1  0
  7  6  1  0
  7  8  2  0
  8  4  1  0
  9 18  1  0
  9  2  1  0
 10  9  2  0
 12 11  1  0
 13 12  2  0
 14 13  1  0
 15 21  1  0
 15 14  2  0
 17 16  1  1
 16 15  1  0
 17 18  1  0
 19 25  1  0
 19 17  1  0
 20 19  2  0
 21 22  2  0
 22 12  1  0
 24 23  1  6
 24 26  1  0
 24 25  1  0
 26 28  1  0
 27 26  2  0
M  END
$$$$
