HYA.pdb
     RDKit          3D

 28 29  0  0  1  0  0  0  0  0999 V2000
   23.7656  -11.8325  -19.8240 N   0  0  0  0  0  0  0  0  0  0  0  0
   23.3633  -10.4673  -20.0066 C   0  0  1  0  0  0  0  0  0  0  0  0
   22.2060  -10.3968  -20.9814 C   0  0  0  0  0  0  0  0  0  0  0  0
   22.6729  -10.7771  -22.3506 C   0  0  0  0  0  0  0  0  0  0  0  0
   23.0868   -9.8926  -23.3227 C   0  0  0  0  0  0  0  0  0  0  0  0
   23.4315  -10.5928  -24.4165 N   0  0  0  0  0  0  0  0  0  0  0  0
   23.2380  -11.8740  -24.1337 C   0  0  0  0  0  0  0  0  0  0  0  0
   22.7770  -12.0017  -22.8815 N   0  0  0  0  0  0  0  0  0  0  0  0
   23.0205   -9.8450  -18.7064 C   0  0  0  0  0  0  0  0  0  0  0  0
   22.3943  -10.5236  -17.8323 O   0  0  0  0  0  0  0  0  0  0  0  0
   28.0110  -11.4981  -15.3963 O   0  0  0  0  0  0  0  0  0  0  0  0
   27.0925  -10.4937  -15.6482 C   0  0  0  0  0  0  0  0  0  0  0  0
   26.0189  -10.2191  -14.8298 C   0  0  0  0  0  0  0  0  0  0  0  0
   25.1399   -9.2030  -15.1387 C   0  0  0  0  0  0  0  0  0  0  0  0
   25.3165   -8.4388  -16.2744 C   0  0  0  0  0  0  0  0  0  0  0  0
   24.3555   -7.3492  -16.5855 C   0  0  0  0  0  0  0  0  0  0  0  0
   23.0859   -7.8428  -17.1796 C   0  0  2  0  0  0  0  0  0  0  0  0
   23.3918   -8.4926  -18.4391 N   0  0  0  0  0  0  0  0  0  0  0  0
   22.0295   -6.8602  -17.3458 C   0  0  0  0  0  0  0  0  0  0  0  0
   22.0465   -6.1178  -18.3589 O   0  0  0  0  0  0  0  0  0  0  0  0
   26.3768   -8.7060  -17.0876 C   0  0  0  0  0  0  0  0  0  0  0  0
   27.2553   -9.7232  -16.7769 C   0  0  0  0  0  0  0  0  0  0  0  0
   18.6812   -6.2750  -15.6805 C   0  0  0  0  0  0  0  0  0  0  0  0
   19.8288   -5.8843  -16.5849 C   0  0  2  0  0  0  0  0  0  0  0  0
   20.9824   -6.7032  -16.4162 N   0  0  0  0  0  0  0  0  0  0  0  0
   20.1735   -4.4775  -16.2738 C   0  0  0  0  0  0  0  0  0  0  0  0
   21.1933   -4.2174  -15.5911 O   0  0  0  0  0  0  0  0  0  0  0  0
   19.4024   -3.4124  -16.7132 O   0  0  0  0  0  0  0  0  0  0  0  0
  2  1  1  1
  3  2  1  0
  4  3  1  0
  5  4  2  0
  6  5  1  0
  7  6  1  0
  7  8  2  0
  8  4  1  0
  9 18  1  0
  9  2  1  0
 10  9  2  0
 12 11  1  0
 13 12  2  0
 14 13  1  0
 15 21  1  0
 15 14  2  0
 17 16  1  6
 16 15  1  0
 17 18  1  0
 19 25  1  0
 19 17  1  0
 20 19  2  0
 21 22  2  0
 22 12  1  0
 24 23  1  1
 24 26  1  0
 24 25  1  0
 26 28  1  0
 27 26  2  0
M  END
$$$$
