HYA.pdb
     RDKit          3D

 28 29  0  0  1  0  0  0  0  0999 V2000
   26.6225  -27.6494  -22.9518 N   0  0  0  0  0  0  0  0  0  0  0  0
   25.6507  -27.6486  -21.8961 C   0  0  1  0  0  0  0  0  0  0  0  0
   24.2574  -27.5274  -22.4778 C   0  0  0  0  0  0  0  0  0  0  0  0
   24.0953  -26.1914  -23.1308 C   0  0  0  0  0  0  0  0  0  0  0  0
   23.7910  -25.9885  -24.4592 C   0  0  0  0  0  0  0  0  0  0  0  0
   23.7265  -24.6652  -24.6839 N   0  0  0  0  0  0  0  0  0  0  0  0
   23.9828  -24.0631  -23.5303 C   0  0  0  0  0  0  0  0  0  0  0  0
   24.2090  -24.9778  -22.5769 N   0  0  0  0  0  0  0  0  0  0  0  0
   25.7886  -28.8624  -21.0577 C   0  0  0  0  0  0  0  0  0  0  0  0
   25.8725  -30.0025  -21.6143 O   0  0  0  0  0  0  0  0  0  0  0  0
   28.2571  -34.2402  -14.6803 O   0  0  0  0  0  0  0  0  0  0  0  0
   28.0392  -33.1697  -15.5303 C   0  0  0  0  0  0  0  0  0  0  0  0
   27.9428  -31.8636  -15.1029 C   0  0  0  0  0  0  0  0  0  0  0  0
   27.7247  -30.8426  -16.0030 C   0  0  0  0  0  0  0  0  0  0  0  0
   27.5980  -31.1066  -17.3518 C   0  0  0  0  0  0  0  0  0  0  0  0
   27.3633  -29.9888  -18.3020 C   0  0  0  0  0  0  0  0  0  0  0  0
   25.9559  -29.9086  -18.7726 C   0  0  2  0  0  0  0  0  0  0  0  0
   25.8266  -28.7502  -19.6349 N   0  0  0  0  0  0  0  0  0  0  0  0
   24.9329  -29.9049  -17.7418 C   0  0  0  0  0  0  0  0  0  0  0  0
   24.8154  -28.8918  -17.0086 O   0  0  0  0  0  0  0  0  0  0  0  0
   27.6924  -32.3968  -17.7802 C   0  0  0  0  0  0  0  0  0  0  0  0
   27.9108  -33.4172  -16.8781 C   0  0  0  0  0  0  0  0  0  0  0  0
   21.8090  -31.8293  -17.0398 C   0  0  0  0  0  0  0  0  0  0  0  0
   23.0150  -31.0498  -16.5648 C   0  0  2  0  0  0  0  0  0  0  0  0
   24.0634  -30.9926  -17.5279 N   0  0  0  0  0  0  0  0  0  0  0  0
   23.5103  -31.7130  -15.3362 C   0  0  0  0  0  0  0  0  0  0  0  0
   24.4271  -32.5662  -15.4095 O   0  0  0  0  0  0  0  0  0  0  0  0
   22.9945  -31.4265  -14.0816 O   0  0  0  0  0  0  0  0  0  0  0  0
  2  1  1  6
  3  2  1  0
  4  3  1  0
  5  4  2  0
  6  5  1  0
  7  6  1  0
  7  8  2  0
  8  4  1  0
  9 18  1  0
  9  2  1  0
 10  9  2  0
 12 11  1  0
 13 12  2  0
 14 13  1  0
 15 21  1  0
 15 14  2  0
 17 16  1  1
 16 15  1  0
 17 18  1  0
 19 25  1  0
 19 17  1  0
 20 19  2  0
 21 22  2  0
 22 12  1  0
 24 23  1  6
 24 26  1  0
 24 25  1  0
 26 28  1  0
 27 26  2  0
M  END
$$$$
