EDC.pdb
     RDKit          3D

 24 23  0  0  1  0  0  0  0  0999 V2000
   -1.4572  -26.8073   32.4243 N   0  0  0  0  0  0  0  0  0  0  0  0
   -1.4989  -26.2012   31.0681 C   0  0  1  0  0  0  0  0  0  0  0  0
   -0.6234  -27.0279   30.1851 C   0  0  0  0  0  0  0  0  0  0  0  0
   -0.8364  -28.4872   30.1709 C   0  0  0  0  0  0  0  0  0  0  0  0
    0.0351  -29.2496   29.2549 C   0  0  0  0  0  0  0  0  0  0  0  0
    1.0425  -29.8474   29.7014 O   0  0  0  0  0  0  0  0  0  0  0  0
   -2.9169  -26.1757   30.6871 C   0  0  0  0  0  0  0  0  0  0  0  0
   -3.2623  -25.8046   29.5486 O   0  0  0  0  0  0  0  0  0  0  0  0
   -0.2378  -29.3188   27.9089 O   0  0  0  0  0  0  0  0  0  0  0  0
   -3.9171  -26.5715   31.5967 N   0  0  0  0  0  0  0  0  0  0  0  0
   -5.3771  -26.5265   31.2023 C   0  0  1  0  0  0  0  0  0  0  0  0
   -6.0059  -27.3898   32.2753 C   0  0  0  0  0  0  0  0  0  0  0  0
   -7.4373  -27.4662   32.3471 C   0  0  0  0  0  0  0  0  0  0  0  0
   -8.2073  -27.3029   31.3972 O   0  0  0  0  0  0  0  0  0  0  0  0
   -5.7736  -25.1059   31.2926 C   0  0  0  0  0  0  0  0  0  0  0  0
   -5.4449  -24.4568   32.3459 O   0  0  0  0  0  0  0  0  0  0  0  0
   -8.0706  -27.7490   33.5844 O   0  0  0  0  0  0  0  0  0  0  0  0
   -6.4843  -24.3631   30.3299 N   0  0  0  0  0  0  0  0  0  0  0  0
   -6.8415  -22.9679   30.5656 C   0  0  1  0  0  0  0  0  0  0  0  0
   -6.0466  -22.0174   29.7009 C   0  0  0  0  0  0  0  0  0  0  0  0
   -6.5371  -20.2986   29.9270 S   0  0  0  0  0  0  0  0  0  0  0  0
   -8.2862  -22.7566   30.2535 C   0  0  0  0  0  0  0  0  0  0  0  0
   -9.0488  -21.8391   30.9540 O   0  0  0  0  0  0  0  0  0  0  0  0
   -8.8406  -23.4109   29.3443 O   0  0  0  0  0  0  0  0  0  0  0  0
  2  1  1  1
  2  3  1  0
  3  4  1  0
  4  5  1  0
  5  9  1  0
  5  6  2  0
  7  2  1  0
  8  7  2  0
 10  7  1  0
 11 10  1  0
 12 13  1  0
 11 12  1  1
 13 17  1  0
 14 13  2  0
 15 11  1  0
 15 18  1  0
 16 15  2  0
 19 18  1  0
 19 20  1  6
 19 22  1  0
 20 21  1  0
 22 23  1  0
 24 22  2  0
M  END
$$$$
