EDC.pdb
     RDKit          3D

 24 23  0  0  1  0  0  0  0  0999 V2000
   11.9146  -20.8656   19.4349 N   0  0  0  0  0  0  0  0  0  0  0  0
   12.1595  -19.4003   19.3990 C   0  0  1  0  0  0  0  0  0  0  0  0
   10.9965  -18.7725   18.7043 C   0  0  0  0  0  0  0  0  0  0  0  0
   10.8253  -19.0392   17.2638 C   0  0  0  0  0  0  0  0  0  0  0  0
   10.3371  -17.9019   16.4588 C   0  0  0  0  0  0  0  0  0  0  0  0
    9.1326  -17.8492   16.1153 O   0  0  0  0  0  0  0  0  0  0  0  0
   12.3400  -18.9928   20.7983 C   0  0  0  0  0  0  0  0  0  0  0  0
   11.7984  -19.6320   21.7210 O   0  0  0  0  0  0  0  0  0  0  0  0
   11.1840  -16.8891   16.0743 O   0  0  0  0  0  0  0  0  0  0  0  0
   13.1293  -17.8741   21.1295 N   0  0  0  0  0  0  0  0  0  0  0  0
   13.3608  -17.4970   22.5764 C   0  0  1  0  0  0  0  0  0  0  0  0
   14.5957  -16.6280   22.4675 C   0  0  0  0  0  0  0  0  0  0  0  0
   15.8844  -17.2389   22.6279 C   0  0  0  0  0  0  0  0  0  0  0  0
   16.0983  -18.3084   23.2045 O   0  0  0  0  0  0  0  0  0  0  0  0
   12.1574  -16.7476   22.9931 C   0  0  0  0  0  0  0  0  0  0  0  0
   11.8685  -15.6747   22.3577 O   0  0  0  0  0  0  0  0  0  0  0  0
   17.0393  -16.6056   22.1014 O   0  0  0  0  0  0  0  0  0  0  0  0
   11.2668  -17.0865   24.0303 N   0  0  0  0  0  0  0  0  0  0  0  0
   10.1459  -16.2186   24.3766 C   0  0  1  0  0  0  0  0  0  0  0  0
    8.8250  -16.7616   23.8831 C   0  0  0  0  0  0  0  0  0  0  0  0
    8.4763  -18.4141   24.5100 S   0  0  0  0  0  0  0  0  0  0  0  0
   10.0497  -16.0854   25.8606 C   0  0  0  0  0  0  0  0  0  0  0  0
    9.1837  -15.1811   26.4490 O   0  0  0  0  0  0  0  0  0  0  0  0
   10.7566  -16.7953   26.6079 O   0  0  0  0  0  0  0  0  0  0  0  0
  2  1  1  1
  2  3  1  0
  3  4  1  0
  4  5  1  0
  5  9  1  0
  5  6  2  0
  7  2  1  0
  8  7  2  0
 10  7  1  0
 11 10  1  0
 12 13  1  0
 11 12  1  6
 13 17  1  0
 14 13  2  0
 15 11  1  0
 15 18  1  0
 16 15  2  0
 19 18  1  0
 19 20  1  1
 19 22  1  0
 20 21  1  0
 22 23  1  0
 24 22  2  0
M  END
$$$$
