EDC.pdb
     RDKit          3D

 24 23  0  0  1  0  0  0  0  0999 V2000
   10.0525  -14.6693   18.3541 N   0  0  0  0  0  0  0  0  0  0  0  0
   10.6643  -15.8015   19.0973 C   0  0  1  0  0  0  0  0  0  0  0  0
   12.1318  -15.5383   19.1782 C   0  0  0  0  0  0  0  0  0  0  0  0
   12.5869  -14.4097   20.0115 C   0  0  0  0  0  0  0  0  0  0  0  0
   14.0459  -14.1848   20.0380 C   0  0  0  0  0  0  0  0  0  0  0  0
   14.7025  -14.4545   21.0714 O   0  0  0  0  0  0  0  0  0  0  0  0
    9.9704  -15.8495   20.3907 C   0  0  0  0  0  0  0  0  0  0  0  0
    9.2945  -14.8797   20.7854 O   0  0  0  0  0  0  0  0  0  0  0  0
   14.7064  -13.6812   18.9422 O   0  0  0  0  0  0  0  0  0  0  0  0
   10.0505  -16.9910   21.2122 N   0  0  0  0  0  0  0  0  0  0  0  0
    9.1039  -17.1669   22.3793 C   0  0  1  0  0  0  0  0  0  0  0  0
    9.0665  -18.6745   22.5124 C   0  0  0  0  0  0  0  0  0  0  0  0
    8.0607  -19.4048   21.7949 C   0  0  0  0  0  0  0  0  0  0  0  0
    8.2565  -20.4352   21.1455 O   0  0  0  0  0  0  0  0  0  0  0  0
    9.7524  -16.4979   23.5262 C   0  0  0  0  0  0  0  0  0  0  0  0
   11.0283  -16.5560   23.6121 O   0  0  0  0  0  0  0  0  0  0  0  0
    6.7170  -18.9501   21.7982 O   0  0  0  0  0  0  0  0  0  0  0  0
    9.1156  -15.7825   24.5589 N   0  0  0  0  0  0  0  0  0  0  0  0
    9.8720  -15.2570   25.6909 C   0  0  1  0  0  0  0  0  0  0  0  0
    9.0946  -14.2224   26.4708 C   0  0  0  0  0  0  0  0  0  0  0  0
    8.7254  -12.7523   25.4970 S   0  0  0  0  0  0  0  0  0  0  0  0
   10.2104  -16.3665   26.6311 C   0  0  0  0  0  0  0  0  0  0  0  0
   11.0294  -16.1590   27.7266 O   0  0  0  0  0  0  0  0  0  0  0  0
    9.7559  -17.5158   26.4451 O   0  0  0  0  0  0  0  0  0  0  0  0
  2  1  1  6
  2  3  1  0
  3  4  1  0
  4  5  1  0
  5  9  1  0
  5  6  2  0
  7  2  1  0
  8  7  2  0
 10  7  1  0
 11 10  1  0
 12 13  1  0
 11 12  1  1
 13 17  1  0
 14 13  2  0
 15 11  1  0
 15 18  1  0
 16 15  2  0
 19 18  1  0
 19 20  1  1
 19 22  1  0
 20 21  1  0
 22 23  1  0
 24 22  2  0
M  END
$$$$
