EDC.pdb
     RDKit          3D

 24 23  0  0  1  0  0  0  0  0999 V2000
    9.7644  -16.8943   16.6257 N   0  0  0  0  0  0  0  0  0  0  0  0
    8.4972  -16.9175   17.4017 C   0  0  1  0  0  0  0  0  0  0  0  0
    7.5133  -17.7251   16.6213 C   0  0  0  0  0  0  0  0  0  0  0  0
    8.0300  -18.8236   15.7837 C   0  0  0  0  0  0  0  0  0  0  0  0
    7.0086  -19.6152   15.0696 C   0  0  0  0  0  0  0  0  0  0  0  0
    7.2775  -20.7745   14.6753 O   0  0  0  0  0  0  0  0  0  0  0  0
    8.8466  -17.4679   18.7176 C   0  0  0  0  0  0  0  0  0  0  0  0
    7.9572  -17.7659   19.5381 O   0  0  0  0  0  0  0  0  0  0  0  0
    5.7560  -19.1029   14.8258 O   0  0  0  0  0  0  0  0  0  0  0  0
   10.1919  -17.6736   19.0812 N   0  0  0  0  0  0  0  0  0  0  0  0
   10.5458  -18.1984   20.4554 C   0  0  1  0  0  0  0  0  0  0  0  0
   11.9016  -18.8219   20.2000 C   0  0  0  0  0  0  0  0  0  0  0  0
   11.9590  -20.1234   19.5980 C   0  0  0  0  0  0  0  0  0  0  0  0
   12.5678  -20.4021   18.5618 O   0  0  0  0  0  0  0  0  0  0  0  0
   10.6077  -17.0121   21.3343 C   0  0  0  0  0  0  0  0  0  0  0  0
   11.6144  -16.2302   21.2172 O   0  0  0  0  0  0  0  0  0  0  0  0
   11.2796  -21.2133   20.2001 O   0  0  0  0  0  0  0  0  0  0  0  0
    9.6631  -16.6294   22.3065 N   0  0  0  0  0  0  0  0  0  0  0  0
    9.8691  -15.4451   23.1340 C   0  0  1  0  0  0  0  0  0  0  0  0
    8.5673  -14.7943   23.5400 C   0  0  0  0  0  0  0  0  0  0  0  0
    7.5753  -14.2849   22.1250 S   0  0  0  0  0  0  0  0  0  0  0  0
   10.5912  -15.8225   24.3852 C   0  0  0  0  0  0  0  0  0  0  0  0
   11.0787  -14.8626   25.2540 O   0  0  0  0  0  0  0  0  0  0  0  0
   10.7712  -17.0249   24.6751 O   0  0  0  0  0  0  0  0  0  0  0  0
  2  1  1  6
  2  3  1  0
  3  4  1  0
  4  5  1  0
  5  9  1  0
  5  6  2  0
  7  2  1  0
  8  7  2  0
 10  7  1  0
 11 10  1  0
 12 13  1  0
 11 12  1  6
 13 17  1  0
 14 13  2  0
 15 11  1  0
 15 18  1  0
 16 15  2  0
 19 18  1  0
 19 20  1  1
 19 22  1  0
 20 21  1  0
 22 23  1  0
 24 22  2  0
M  END
$$$$
