EDC.pdb
     RDKit          3D

 24 23  0  0  1  0  0  0  0  0999 V2000
   11.1459  -13.6061   20.2407 N   0  0  0  0  0  0  0  0  0  0  0  0
    9.6826  -13.8173   20.3900 C   0  0  1  0  0  0  0  0  0  0  0  0
    9.1508  -14.2057   19.0499 C   0  0  0  0  0  0  0  0  0  0  0  0
    8.3355  -13.2190   18.3171 C   0  0  0  0  0  0  0  0  0  0  0  0
    7.8456  -13.6539   16.9940 C   0  0  0  0  0  0  0  0  0  0  0  0
    7.1141  -12.8941   16.3163 O   0  0  0  0  0  0  0  0  0  0  0  0
    9.5325  -14.8370   21.4362 C   0  0  0  0  0  0  0  0  0  0  0  0
    8.4079  -15.1153   21.8953 O   0  0  0  0  0  0  0  0  0  0  0  0
    8.1784  -14.8867   16.4839 O   0  0  0  0  0  0  0  0  0  0  0  0
   10.6533  -15.5242   21.9420 N   0  0  0  0  0  0  0  0  0  0  0  0
   10.4898  -16.5779   23.0153 C   0  0  1  0  0  0  0  0  0  0  0  0
   11.6453  -17.5057   22.7055 C   0  0  0  0  0  0  0  0  0  0  0  0
   11.6083  -18.2708   21.4918 C   0  0  0  0  0  0  0  0  0  0  0  0
   10.7084  -19.0504   21.1691 O   0  0  0  0  0  0  0  0  0  0  0  0
   10.6434  -15.8675   24.3018 C   0  0  0  0  0  0  0  0  0  0  0  0
   11.4918  -14.9108   24.3616 O   0  0  0  0  0  0  0  0  0  0  0  0
   12.6653  -18.1608   20.5522 O   0  0  0  0  0  0  0  0  0  0  0  0
    9.9453  -16.1232   25.4981 N   0  0  0  0  0  0  0  0  0  0  0  0
   10.2011  -15.3412   26.7033 C   0  0  1  0  0  0  0  0  0  0  0  0
    9.1072  -14.3361   26.9791 C   0  0  0  0  0  0  0  0  0  0  0  0
    9.3896  -13.4010   28.4929 S   0  0  0  0  0  0  0  0  0  0  0  0
   10.2848  -16.2488   27.8860 C   0  0  0  0  0  0  0  0  0  0  0  0
   10.9648  -15.8786   29.0325 O   0  0  0  0  0  0  0  0  0  0  0  0
    9.7368  -17.3719   27.8633 O   0  0  0  0  0  0  0  0  0  0  0  0
  2  1  1  6
  2  3  1  0
  3  4  1  0
  4  5  1  0
  5  9  1  0
  5  6  2  0
  7  2  1  0
  8  7  2  0
 10  7  1  0
 11 10  1  0
 12 13  1  0
 11 12  1  6
 13 17  1  0
 14 13  2  0
 15 11  1  0
 15 18  1  0
 16 15  2  0
 19 18  1  0
 19 20  1  1
 19 22  1  0
 20 21  1  0
 22 23  1  0
 24 22  2  0
M  END
$$$$
