EDC.pdb
     RDKit          3D

 24 23  0  0  1  0  0  0  0  0999 V2000
    7.7844  -16.5146   18.7778 N   0  0  0  0  0  0  0  0  0  0  0  0
    8.7350  -15.8134   19.6795 C   0  0  1  0  0  0  0  0  0  0  0  0
    8.8186  -14.3951   19.2204 C   0  0  0  0  0  0  0  0  0  0  0  0
    7.7810  -13.9061   18.2934 C   0  0  0  0  0  0  0  0  0  0  0  0
    7.9656  -14.2782   16.8766 C   0  0  0  0  0  0  0  0  0  0  0  0
    7.6896  -15.4394   16.4930 O   0  0  0  0  0  0  0  0  0  0  0  0
    8.2042  -15.9959   21.0366 C   0  0  0  0  0  0  0  0  0  0  0  0
    6.9758  -16.0699   21.2336 O   0  0  0  0  0  0  0  0  0  0  0  0
    8.4382  -13.3690   15.9596 O   0  0  0  0  0  0  0  0  0  0  0  0
    9.0690  -16.0936   22.1441 N   0  0  0  0  0  0  0  0  0  0  0  0
    8.5196  -16.3630   23.5279 C   0  0  1  0  0  0  0  0  0  0  0  0
    9.4399  -17.4650   24.0083 C   0  0  0  0  0  0  0  0  0  0  0  0
    9.3224  -17.9181   25.3650 C   0  0  0  0  0  0  0  0  0  0  0  0
   10.2507  -18.3477   26.0548 O   0  0  0  0  0  0  0  0  0  0  0  0
    8.6839  -15.1003   24.2776 C   0  0  0  0  0  0  0  0  0  0  0  0
    9.7733  -14.4466   24.1212 O   0  0  0  0  0  0  0  0  0  0  0  0
    8.0615  -17.8924   26.0141 O   0  0  0  0  0  0  0  0  0  0  0  0
    7.7573  -14.5152   25.1625 N   0  0  0  0  0  0  0  0  0  0  0  0
    8.0574  -13.2640   25.8509 C   0  0  1  0  0  0  0  0  0  0  0  0
    6.9024  -12.2908   25.8037 C   0  0  0  0  0  0  0  0  0  0  0  0
    5.5114  -12.8150   26.8215 S   0  0  0  0  0  0  0  0  0  0  0  0
    8.3552  -13.5371   27.2883 C   0  0  0  0  0  0  0  0  0  0  0  0
    8.8272  -12.5444   28.1284 O   0  0  0  0  0  0  0  0  0  0  0  0
    8.1821  -14.6792   27.7656 O   0  0  0  0  0  0  0  0  0  0  0  0
  2  1  1  6
  2  3  1  0
  3  4  1  0
  4  5  1  0
  5  9  1  0
  5  6  2  0
  7  2  1  0
  8  7  2  0
 10  7  1  0
 11 10  1  0
 12 13  1  0
 11 12  1  1
 13 17  1  0
 14 13  2  0
 15 11  1  0
 15 18  1  0
 16 15  2  0
 19 18  1  0
 19 20  1  1
 19 22  1  0
 20 21  1  0
 22 23  1  0
 24 22  2  0
M  END
$$$$
