EDC.pdb
     RDKit          3D

 24 23  0  0  1  0  0  0  0  0999 V2000
    9.7652  -13.2401   19.3576 N   0  0  0  0  0  0  0  0  0  0  0  0
    8.3049  -13.4426   19.5445 C   0  0  1  0  0  0  0  0  0  0  0  0
    7.7695  -14.0143   18.2733 C   0  0  0  0  0  0  0  0  0  0  0  0
    8.6709  -14.0715   17.1073 C   0  0  0  0  0  0  0  0  0  0  0  0
    8.1403  -14.7804   15.9258 C   0  0  0  0  0  0  0  0  0  0  0  0
    7.3628  -14.1908   15.1386 O   0  0  0  0  0  0  0  0  0  0  0  0
    8.1711  -14.3121   20.7204 C   0  0  0  0  0  0  0  0  0  0  0  0
    7.0510  -14.7173   21.0867 O   0  0  0  0  0  0  0  0  0  0  0  0
    8.4846  -16.0864   15.6678 O   0  0  0  0  0  0  0  0  0  0  0  0
    9.3033  -14.7093   21.4584 N   0  0  0  0  0  0  0  0  0  0  0  0
    9.1581  -15.6117   22.6641 C   0  0  1  0  0  0  0  0  0  0  0  0
   10.4142  -16.4510   22.5656 C   0  0  0  0  0  0  0  0  0  0  0  0
   10.7197  -17.3618   23.6319 C   0  0  0  0  0  0  0  0  0  0  0  0
    9.9999  -17.5799   24.6097 O   0  0  0  0  0  0  0  0  0  0  0  0
    9.1491  -14.7143   23.8381 C   0  0  0  0  0  0  0  0  0  0  0  0
   10.1239  -13.8962   23.9757 O   0  0  0  0  0  0  0  0  0  0  0  0
   11.9332  -18.0959   23.6110 O   0  0  0  0  0  0  0  0  0  0  0  0
    8.1671  -14.6493   24.8456 N   0  0  0  0  0  0  0  0  0  0  0  0
    8.3154  -13.7527   25.9875 C   0  0  1  0  0  0  0  0  0  0  0  0
    7.2249  -12.7082   26.0433 C   0  0  0  0  0  0  0  0  0  0  0  0
    5.5832  -13.4279   26.2227 S   0  0  0  0  0  0  0  0  0  0  0  0
    8.2511  -14.5364   27.2568 C   0  0  0  0  0  0  0  0  0  0  0  0
    8.5650  -13.9622   28.4756 O   0  0  0  0  0  0  0  0  0  0  0  0
    7.9089  -15.7384   27.2430 O   0  0  0  0  0  0  0  0  0  0  0  0
  2  1  1  6
  2  3  1  0
  3  4  1  0
  4  5  1  0
  5  9  1  0
  5  6  2  0
  7  2  1  0
  8  7  2  0
 10  7  1  0
 11 10  1  0
 12 13  1  0
 11 12  1  1
 13 17  1  0
 14 13  2  0
 15 11  1  0
 15 18  1  0
 16 15  2  0
 19 18  1  0
 19 20  1  1
 19 22  1  0
 20 21  1  0
 22 23  1  0
 24 22  2  0
M  END
$$$$
