LDM.pdb
     RDKit          3D

 25 24  0  0  1  0  0  0  0  0999 V2000
    6.5686  -12.0493   26.5955 C   0  0  0  0  0  0  0  0  0  0  0  0
    6.7317  -12.7534   25.2679 C   0  0  1  0  0  0  0  0  0  0  0  0
    7.5258  -11.7799   24.3846 C   0  0  0  0  0  0  0  0  0  0  0  0
    7.5186  -14.0108   25.3602 C   0  0  0  0  0  0  0  0  0  0  0  0
    7.7319  -14.7530   24.0823 C   0  0  2  0  0  0  0  0  0  0  0  0
    6.5159  -15.0661   23.3746 N   0  0  0  0  0  0  0  0  0  0  0  0
    8.6844  -15.8794   24.1725 C   0  0  0  0  0  0  0  0  0  0  0  0
    8.5738  -16.7031   25.1157 O   0  0  0  0  0  0  0  0  0  0  0  0
    9.7424  -16.1033   23.2478 N   0  0  0  0  0  0  0  0  0  0  0  0
   10.7420  -17.1113   23.4350 C   0  0  1  0  0  0  0  0  0  0  0  0
   11.6782  -17.2091   22.2733 C   0  0  0  0  0  0  0  0  0  0  0  0
   12.6701  -18.2979   22.3759 C   0  0  0  0  0  0  0  0  0  0  0  0
   12.4695  -19.2607   23.1553 O   0  0  0  0  0  0  0  0  0  0  0  0
   11.5828  -16.8402   24.6512 C   0  0  0  0  0  0  0  0  0  0  0  0
   12.4612  -15.9604   24.6918 O   0  0  0  0  0  0  0  0  0  0  0  0
   13.8425  -18.3289   21.6475 O   0  0  0  0  0  0  0  0  0  0  0  0
    9.5715  -13.3732   28.0491 C   0  0  0  0  0  0  0  0  0  0  0  0
    9.6119  -14.9063   29.0084 S   0  0  0  0  0  0  0  0  0  0  0  0
   10.1306  -16.3119   28.0219 C   0  0  0  0  0  0  0  0  0  0  0  0
   11.6315  -16.2600   27.8231 C   0  0  0  0  0  0  0  0  0  0  0  0
   12.1244  -17.4553   27.0334 C   0  0  2  0  0  0  0  0  0  0  0  0
   11.3606  -17.6294   25.8097 N   0  0  0  0  0  0  0  0  0  0  0  0
   11.9631  -18.6554   27.8809 C   0  0  0  0  0  0  0  0  0  0  0  0
   12.6327  -18.7935   29.1043 O   0  0  0  0  0  0  0  0  0  0  0  0
   11.2125  -19.5852   27.5140 O   0  0  0  0  0  0  0  0  0  0  0  0
  2  1  1  1
  3  2  1  0
  4  5  1  0
  4  2  1  0
  5  6  1  1
  7  5  1  0
  7  9  1  0
  8  7  2  0
 10  9  1  0
 10 11  1  6
 12 11  1  0
 12 13  2  0
 14 10  1  0
 15 14  2  0
 16 12  1  0
 17 18  1  0
 18 19  1  0
 20 19  1  0
 21 20  1  1
 21 22  1  0
 22 14  1  0
 23 21  1  0
 24 23  1  0
 25 23  2  0
M  END
$$$$
