LDM.pdb
     RDKit          3D

 25 24  0  0  1  0  0  0  0  0999 V2000
    6.5944  -13.0451   18.6292 C   0  0  0  0  0  0  0  0  0  0  0  0
    7.9864  -13.5567   18.9213 C   0  0  1  0  0  0  0  0  0  0  0  0
    8.8382  -12.3031   19.1693 C   0  0  0  0  0  0  0  0  0  0  0  0
    8.0618  -14.3934   20.1472 C   0  0  0  0  0  0  0  0  0  0  0  0
    9.4313  -14.7677   20.6096 C   0  0  2  0  0  0  0  0  0  0  0  0
   10.2884  -15.2672   19.5640 N   0  0  0  0  0  0  0  0  0  0  0  0
    9.4681  -15.5663   21.8527 C   0  0  0  0  0  0  0  0  0  0  0  0
    8.5012  -15.5007   22.6535 O   0  0  0  0  0  0  0  0  0  0  0  0
   10.5440  -16.4231   22.2169 N   0  0  0  0  0  0  0  0  0  0  0  0
   10.5473  -17.2046   23.4168 C   0  0  1  0  0  0  0  0  0  0  0  0
   11.6068  -18.2595   23.4076 C   0  0  0  0  0  0  0  0  0  0  0  0
   11.4693  -19.2564   22.3273 C   0  0  0  0  0  0  0  0  0  0  0  0
   11.0954  -20.4245   22.5926 O   0  0  0  0  0  0  0  0  0  0  0  0
   10.7888  -16.3542   24.6325 C   0  0  0  0  0  0  0  0  0  0  0  0
   11.8352  -15.7074   24.8165 O   0  0  0  0  0  0  0  0  0  0  0  0
   11.7330  -18.9804   21.0005 O   0  0  0  0  0  0  0  0  0  0  0  0
    6.1794  -11.9480   25.7435 C   0  0  0  0  0  0  0  0  0  0  0  0
    7.5490  -12.2703   26.8803 S   0  0  0  0  0  0  0  0  0  0  0  0
    8.6990  -13.4849   26.2321 C   0  0  0  0  0  0  0  0  0  0  0  0
    8.7361  -14.6851   27.1558 C   0  0  0  0  0  0  0  0  0  0  0  0
    9.9351  -15.5654   26.8676 C   0  0  2  0  0  0  0  0  0  0  0  0
    9.7695  -16.2881   25.6180 N   0  0  0  0  0  0  0  0  0  0  0  0
   10.0614  -16.5352   27.9758 C   0  0  0  0  0  0  0  0  0  0  0  0
   10.4913  -16.1488   29.2525 O   0  0  0  0  0  0  0  0  0  0  0  0
    9.7816  -17.7392   27.7897 O   0  0  0  0  0  0  0  0  0  0  0  0
  2  1  1  1
  3  2  1  0
  4  5  1  0
  4  2  1  0
  5  6  1  6
  7  5  1  0
  7  9  1  0
  8  7  2  0
 10  9  1  0
 10 11  1  6
 12 11  1  0
 12 13  2  0
 14 10  1  0
 15 14  2  0
 16 12  1  0
 17 18  1  0
 18 19  1  0
 20 19  1  0
 21 20  1  1
 21 22  1  0
 22 14  1  0
 23 21  1  0
 24 23  1  0
 25 23  2  0
M  END
$$$$
