LDM.pdb
     RDKit          3D

 25 24  0  0  1  0  0  0  0  0999 V2000
    9.1765  -12.8897   19.5794 C   0  0  0  0  0  0  0  0  0  0  0  0
    8.2120  -13.5824   20.5147 C   0  0  1  0  0  0  0  0  0  0  0  0
    7.2267  -12.4936   20.9645 C   0  0  0  0  0  0  0  0  0  0  0  0
    7.4191  -14.6533   19.8567 C   0  0  0  0  0  0  0  0  0  0  0  0
    8.0704  -15.9933   19.7585 C   0  0  2  0  0  0  0  0  0  0  0  0
    7.3337  -16.9482   18.9693 N   0  0  0  0  0  0  0  0  0  0  0  0
    8.5759  -16.5311   21.0390 C   0  0  0  0  0  0  0  0  0  0  0  0
    7.7556  -16.9320   21.9031 O   0  0  0  0  0  0  0  0  0  0  0  0
    9.9557  -16.6292   21.3719 N   0  0  0  0  0  0  0  0  0  0  0  0
   10.4249  -17.2268   22.5856 C   0  0  1  0  0  0  0  0  0  0  0  0
   11.8383  -17.7026   22.4780 C   0  0  0  0  0  0  0  0  0  0  0  0
   12.7395  -16.7857   21.7522 C   0  0  0  0  0  0  0  0  0  0  0  0
   13.8173  -16.4156   22.2776 O   0  0  0  0  0  0  0  0  0  0  0  0
   10.3764  -16.2598   23.7355 C   0  0  0  0  0  0  0  0  0  0  0  0
   10.4216  -15.0252   23.5917 O   0  0  0  0  0  0  0  0  0  0  0  0
   12.4671  -16.2919   20.4920 O   0  0  0  0  0  0  0  0  0  0  0  0
    6.5484  -11.6372   26.0671 C   0  0  0  0  0  0  0  0  0  0  0  0
    6.9952  -13.2528   25.3872 S   0  0  0  0  0  0  0  0  0  0  0  0
    8.0880  -14.1694   26.4750 C   0  0  0  0  0  0  0  0  0  0  0  0
    8.3360  -15.5465   25.8943 C   0  0  0  0  0  0  0  0  0  0  0  0
    9.7527  -16.0112   26.1636 C   0  0  2  0  0  0  0  0  0  0  0  0
   10.2736  -16.7854   25.0499 N   0  0  0  0  0  0  0  0  0  0  0  0
    9.7287  -16.8585   27.3744 C   0  0  0  0  0  0  0  0  0  0  0  0
    9.9121  -18.2464   27.3107 O   0  0  0  0  0  0  0  0  0  0  0  0
    9.5407  -16.3418   28.4970 O   0  0  0  0  0  0  0  0  0  0  0  0
  2  1  1  6
  3  2  1  0
  4  5  1  0
  4  2  1  0
  5  6  1  1
  7  5  1  0
  7  9  1  0
  8  7  2  0
 10  9  1  0
 10 11  1  6
 12 11  1  0
 12 13  2  0
 14 10  1  0
 15 14  2  0
 16 12  1  0
 17 18  1  0
 18 19  1  0
 20 19  1  0
 21 20  1  6
 21 22  1  0
 22 14  1  0
 23 21  1  0
 24 23  1  0
 25 23  2  0
M  END
$$$$
