LDM.pdb
     RDKit          3D

 25 24  0  0  1  0  0  0  0  0999 V2000
    7.6332  -13.6945   17.4388 C   0  0  0  0  0  0  0  0  0  0  0  0
    8.2706  -13.1330   18.6891 C   0  0  1  0  0  0  0  0  0  0  0  0
    7.4694  -11.8657   19.0217 C   0  0  0  0  0  0  0  0  0  0  0  0
    8.1700  -14.0413   19.8610 C   0  0  0  0  0  0  0  0  0  0  0  0
    9.3179  -14.9714   20.0777 C   0  0  2  0  0  0  0  0  0  0  0  0
    9.6158  -15.8108   18.9445 N   0  0  0  0  0  0  0  0  0  0  0  0
    9.2987  -15.6874   21.3703 C   0  0  0  0  0  0  0  0  0  0  0  0
    8.4514  -15.3619   22.2401 O   0  0  0  0  0  0  0  0  0  0  0  0
   10.1912  -16.7424   21.7093 N   0  0  0  0  0  0  0  0  0  0  0  0
   10.1850  -17.3894   22.9867 C   0  0  1  0  0  0  0  0  0  0  0  0
   11.2929  -18.3835   23.1280 C   0  0  0  0  0  0  0  0  0  0  0  0
   11.2391  -19.5016   22.1652 C   0  0  0  0  0  0  0  0  0  0  0  0
   12.2686  -20.1789   21.9289 O   0  0  0  0  0  0  0  0  0  0  0  0
   10.3389  -16.4022   24.1098 C   0  0  0  0  0  0  0  0  0  0  0  0
   11.2367  -15.5421   24.1447 O   0  0  0  0  0  0  0  0  0  0  0  0
   10.0937  -19.8641   21.4850 O   0  0  0  0  0  0  0  0  0  0  0  0
    6.7591  -11.9142   25.2648 C   0  0  0  0  0  0  0  0  0  0  0  0
    6.7556  -12.4521   26.9919 S   0  0  0  0  0  0  0  0  0  0  0  0
    8.0470  -13.6495   27.3334 C   0  0  0  0  0  0  0  0  0  0  0  0
    8.0854  -14.6781   26.2219 C   0  0  0  0  0  0  0  0  0  0  0  0
    9.3810  -15.4633   26.2423 C   0  0  2  0  0  0  0  0  0  0  0  0
    9.4112  -16.4570   25.1826 N   0  0  0  0  0  0  0  0  0  0  0  0
    9.4762  -16.1455   27.5500 C   0  0  0  0  0  0  0  0  0  0  0  0
    9.4466  -17.5423   27.6605 O   0  0  0  0  0  0  0  0  0  0  0  0
    9.5868  -15.4756   28.5995 O   0  0  0  0  0  0  0  0  0  0  0  0
  2  1  1  6
  3  2  1  0
  4  5  1  0
  4  2  1  0
  5  6  1  6
  7  5  1  0
  7  9  1  0
  8  7  2  0
 10  9  1  0
 10 11  1  6
 12 11  1  0
 12 13  2  0
 14 10  1  0
 15 14  2  0
 16 12  1  0
 17 18  1  0
 18 19  1  0
 20 19  1  0
 21 20  1  1
 21 22  1  0
 22 14  1  0
 23 21  1  0
 24 23  1  0
 25 23  2  0
M  END
$$$$
