LDM.pdb
     RDKit          3D

 25 24  0  0  1  0  0  0  0  0999 V2000
    7.3109  -12.1756   19.9083 C   0  0  0  0  0  0  0  0  0  0  0  0
    7.5671  -13.6161   19.5289 C   0  0  1  0  0  0  0  0  0  0  0  0
    8.5141  -13.5577   18.3213 C   0  0  0  0  0  0  0  0  0  0  0  0
    8.2540  -14.3929   20.5936 C   0  0  0  0  0  0  0  0  0  0  0  0
    8.4455  -15.8501   20.3304 C   0  0  2  0  0  0  0  0  0  0  0  0
    7.2667  -16.5182   19.8389 N   0  0  0  0  0  0  0  0  0  0  0  0
    9.1533  -16.5844   21.3999 C   0  0  0  0  0  0  0  0  0  0  0  0
    8.4851  -17.2209   22.2536 O   0  0  0  0  0  0  0  0  0  0  0  0
   10.5691  -16.6230   21.5365 N   0  0  0  0  0  0  0  0  0  0  0  0
   11.2289  -17.2290   22.6535 C   0  0  1  0  0  0  0  0  0  0  0  0
   12.6967  -17.3995   22.4252 C   0  0  0  0  0  0  0  0  0  0  0  0
   13.0424  -18.1986   21.2329 C   0  0  0  0  0  0  0  0  0  0  0  0
   12.4641  -19.2914   21.0182 O   0  0  0  0  0  0  0  0  0  0  0  0
   11.0743  -16.4069   23.9024 C   0  0  0  0  0  0  0  0  0  0  0  0
   11.7768  -15.4125   24.1567 O   0  0  0  0  0  0  0  0  0  0  0  0
   13.9906  -17.8113   20.3072 O   0  0  0  0  0  0  0  0  0  0  0  0
    7.3100  -11.7595   27.9218 C   0  0  0  0  0  0  0  0  0  0  0  0
    7.5488  -12.9266   26.5606 S   0  0  0  0  0  0  0  0  0  0  0  0
    8.0625  -14.5462   27.1361 C   0  0  0  0  0  0  0  0  0  0  0  0
    8.3613  -15.4318   25.9438 C   0  0  0  0  0  0  0  0  0  0  0  0
    9.7651  -15.9972   26.0154 C   0  0  2  0  0  0  0  0  0  0  0  0
   10.0754  -16.7874   24.8362 N   0  0  0  0  0  0  0  0  0  0  0  0
    9.8448  -16.8602   27.2126 C   0  0  0  0  0  0  0  0  0  0  0  0
   10.0595  -18.2418   27.1166 O   0  0  0  0  0  0  0  0  0  0  0  0
    9.7197  -16.3632   28.3527 O   0  0  0  0  0  0  0  0  0  0  0  0
  2  1  1  1
  3  2  1  0
  4  5  1  0
  4  2  1  0
  5  6  1  1
  7  5  1  0
  7  9  1  0
  8  7  2  0
 10  9  1  0
 10 11  1  6
 12 11  1  0
 12 13  2  0
 14 10  1  0
 15 14  2  0
 16 12  1  0
 17 18  1  0
 18 19  1  0
 20 19  1  0
 21 20  1  6
 21 22  1  0
 22 14  1  0
 23 21  1  0
 24 23  1  0
 25 23  2  0
M  END
$$$$
