LDM.pdb
     RDKit          3D

 25 24  0  0  1  0  0  0  0  0999 V2000
    8.0176  -11.9362   20.3407 C   0  0  0  0  0  0  0  0  0  0  0  0
    7.8399  -13.3748   19.9124 C   0  0  1  0  0  0  0  0  0  0  0  0
    7.8055  -13.3423   18.3774 C   0  0  0  0  0  0  0  0  0  0  0  0
    8.9706  -14.2528   20.3119 C   0  0  0  0  0  0  0  0  0  0  0  0
    8.6980  -15.7209   20.3183 C   0  0  2  0  0  0  0  0  0  0  0  0
    7.3704  -16.0738   19.8822 N   0  0  0  0  0  0  0  0  0  0  0  0
    9.1396  -16.4269   21.5392 C   0  0  0  0  0  0  0  0  0  0  0  0
    8.2779  -16.8305   22.3607 O   0  0  0  0  0  0  0  0  0  0  0  0
   10.5012  -16.6881   21.8593 N   0  0  0  0  0  0  0  0  0  0  0  0
   10.9155  -17.2420   23.1131 C   0  0  1  0  0  0  0  0  0  0  0  0
   12.2891  -17.8293   23.0512 C   0  0  0  0  0  0  0  0  0  0  0  0
   12.6793  -18.6021   24.2472 C   0  0  0  0  0  0  0  0  0  0  0  0
   13.2828  -18.0380   25.1918 O   0  0  0  0  0  0  0  0  0  0  0  0
   10.9335  -16.2037   24.1999 C   0  0  0  0  0  0  0  0  0  0  0  0
   11.7378  -15.2552   24.2248 O   0  0  0  0  0  0  0  0  0  0  0  0
   12.4156  -19.9485   24.4013 O   0  0  0  0  0  0  0  0  0  0  0  0
    6.6581  -11.9844   25.1216 C   0  0  0  0  0  0  0  0  0  0  0  0
    6.8048  -12.5810   26.8230 S   0  0  0  0  0  0  0  0  0  0  0  0
    8.3506  -13.4448   27.1096 C   0  0  0  0  0  0  0  0  0  0  0  0
    8.4908  -14.5706   26.1056 C   0  0  0  0  0  0  0  0  0  0  0  0
    9.8159  -15.2880   26.2636 C   0  0  2  0  0  0  0  0  0  0  0  0
    9.9836  -16.3141   25.2487 N   0  0  0  0  0  0  0  0  0  0  0  0
    9.8319  -15.9199   27.5997 C   0  0  0  0  0  0  0  0  0  0  0  0
   10.0204  -15.1725   28.7701 O   0  0  0  0  0  0  0  0  0  0  0  0
    9.6746  -17.1550   27.7105 O   0  0  0  0  0  0  0  0  0  0  0  0
  2  1  1  1
  3  2  1  0
  4  5  1  0
  4  2  1  0
  5  6  1  1
  7  5  1  0
  7  9  1  0
  8  7  2  0
 10  9  1  0
 10 11  1  6
 12 11  1  0
 12 13  2  0
 14 10  1  0
 15 14  2  0
 16 12  1  0
 17 18  1  0
 18 19  1  0
 20 19  1  0
 21 20  1  6
 21 22  1  0
 22 14  1  0
 23 21  1  0
 24 23  1  0
 25 23  2  0
M  END
$$$$
