LDM.pdb
     RDKit          3D

 25 24  0  0  1  0  0  0  0  0999 V2000
    7.8736  -11.8522   24.1872 C   0  0  0  0  0  0  0  0  0  0  0  0
    7.5309  -13.2550   24.6336 C   0  0  1  0  0  0  0  0  0  0  0  0
    6.4586  -13.0870   25.7201 C   0  0  0  0  0  0  0  0  0  0  0  0
    6.9413  -14.0896   23.5543 C   0  0  0  0  0  0  0  0  0  0  0  0
    6.9554  -15.5659   23.7772 C   0  0  2  0  0  0  0  0  0  0  0  0
    6.5014  -15.9670   25.0851 N   0  0  0  0  0  0  0  0  0  0  0  0
    8.1887  -16.2473   23.3315 C   0  0  0  0  0  0  0  0  0  0  0  0
    8.1387  -17.0236   22.3439 O   0  0  0  0  0  0  0  0  0  0  0  0
    9.4575  -16.0848   23.9545 N   0  0  0  0  0  0  0  0  0  0  0  0
   10.6515  -16.7072   23.4671 C   0  0  1  0  0  0  0  0  0  0  0  0
   11.3997  -15.8352   22.5104 C   0  0  0  0  0  0  0  0  0  0  0  0
   12.6322  -16.4392   21.9665 C   0  0  0  0  0  0  0  0  0  0  0  0
   12.5877  -17.5574   21.3987 O   0  0  0  0  0  0  0  0  0  0  0  0
   11.5991  -17.0418   24.5850 C   0  0  0  0  0  0  0  0  0  0  0  0
   12.8105  -17.2633   24.4099 O   0  0  0  0  0  0  0  0  0  0  0  0
   13.8719  -15.8362   22.0432 O   0  0  0  0  0  0  0  0  0  0  0  0
    8.6474  -13.7429   29.6255 C   0  0  0  0  0  0  0  0  0  0  0  0
   10.3223  -14.3929   29.4145 S   0  0  0  0  0  0  0  0  0  0  0  0
   10.3924  -15.7089   28.1976 C   0  0  0  0  0  0  0  0  0  0  0  0
   11.8248  -16.1786   28.0473 C   0  0  0  0  0  0  0  0  0  0  0  0
   11.9276  -17.3286   27.0662 C   0  0  2  0  0  0  0  0  0  0  0  0
   11.0823  -17.1074   25.9052 N   0  0  0  0  0  0  0  0  0  0  0  0
   11.4867  -18.5566   27.7605 C   0  0  0  0  0  0  0  0  0  0  0  0
   10.3832  -19.3003   27.3208 O   0  0  0  0  0  0  0  0  0  0  0  0
   12.1021  -18.9604   28.7708 O   0  0  0  0  0  0  0  0  0  0  0  0
  2  1  1  6
  3  2  1  0
  4  5  1  0
  4  2  1  0
  5  6  1  1
  7  5  1  0
  7  9  1  0
  8  7  2  0
 10  9  1  0
 10 11  1  6
 12 11  1  0
 12 13  2  0
 14 10  1  0
 15 14  2  0
 16 12  1  0
 17 18  1  0
 18 19  1  0
 20 19  1  0
 21 20  1  1
 21 22  1  0
 22 14  1  0
 23 21  1  0
 24 23  1  0
 25 23  2  0
M  END
$$$$
