SYP.pdb
     RDKit          3D

 26 27  0  0  1  0  0  0  0  0999 V2000
   21.4677  -34.5615   -3.5582 O   0  0  0  0  0  0  0  0  0  0  0  0
   21.3436  -33.2644   -4.0022 C   0  0  0  0  0  0  0  0  0  0  0  0
   21.7504  -33.1731   -5.4506 C   0  0  2  0  0  0  0  0  0  0  0  0
   20.8472  -34.0135   -6.2276 N   0  0  0  0  0  0  0  0  0  0  0  0
   23.1339  -33.6391   -5.7104 C   0  0  0  0  0  0  0  0  0  0  0  0
   23.3346  -34.7040   -6.3751 O   0  0  0  0  0  0  0  0  0  0  0  0
   25.2927  -32.0261  -11.8242 O   0  0  0  0  0  0  0  0  0  0  0  0
   25.5618  -32.1016  -10.4428 C   0  0  0  0  0  0  0  0  0  0  0  0
   26.5436  -32.9318   -9.9524 C   0  0  0  0  0  0  0  0  0  0  0  0
   26.7959  -32.9922   -8.5767 C   0  0  0  0  0  0  0  0  0  0  0  0
   26.0670  -32.2228   -7.6915 C   0  0  0  0  0  0  0  0  0  0  0  0
   26.3262  -32.2985   -6.2649 C   0  0  0  0  0  0  0  0  0  0  0  0
   25.5993  -33.4475   -5.5453 C   0  0  2  0  0  0  0  0  0  0  0  0
   24.2942  -32.9576   -5.2568 N   0  0  0  0  0  0  0  0  0  0  0  0
   26.3607  -34.0299   -4.4553 C   0  0  0  0  0  0  0  0  0  0  0  0
   26.3710  -33.3306   -3.3797 O   0  0  0  0  0  0  0  0  0  0  0  0
   25.0804  -31.3875   -8.1734 C   0  0  0  0  0  0  0  0  0  0  0  0
   24.8382  -31.3367   -9.5517 C   0  0  0  0  0  0  0  0  0  0  0  0
   27.0768  -35.2929   -4.4994 N   0  0  0  0  0  0  0  0  0  0  0  0
   27.1622  -36.2215   -5.5671 C   0  0  0  0  0  0  0  0  0  0  0  0
   28.3656  -37.0895   -5.2077 C   0  0  0  0  0  0  0  0  0  0  0  0
   28.3504  -37.0901   -3.6959 C   0  0  0  0  0  0  0  0  0  0  0  0
   27.8365  -35.7438   -3.3742 C   0  0  1  0  0  0  0  0  0  0  0  0
   28.9204  -34.7780   -3.0260 C   0  0  0  0  0  0  0  0  0  0  0  0
   29.2265  -33.7257   -3.8494 O   0  0  0  0  0  0  0  0  0  0  0  0
   29.5418  -34.9539   -1.9643 O   0  0  0  0  0  0  0  0  0  0  0  0
  1  2  1  0
  3  2  1  0
  3  4  1  6
  5  3  1  0
  5  6  2  0
  7  8  1  0
  8 18  2  0
  9  8  1  0
  9 10  2  0
 10 11  1  0
 11 17  2  0
 11 12  1  0
 13 12  1  1
 13 14  1  0
 14  5  1  0
 15 13  1  0
 16 15  2  0
 18 17  1  0
 19 23  1  0
 19 15  1  0
 20 21  1  0
 20 19  1  0
 21 22  1  0
 23 22  1  0
 23 24  1  6
 25 24  1  0
 26 24  2  0
M  END
$$$$
