SYP.pdb
     RDKit          3D

 26 27  0  0  1  0  0  0  0  0999 V2000
   27.3480  -18.8162  -20.2701 O   0  0  0  0  0  0  0  0  0  0  0  0
   27.3030  -18.8485  -18.8947 C   0  0  0  0  0  0  0  0  0  0  0  0
   26.2067  -17.9443  -18.3924 C   0  0  2  0  0  0  0  0  0  0  0  0
   26.7514  -16.5970  -18.2729 N   0  0  0  0  0  0  0  0  0  0  0  0
   25.6758  -18.3345  -17.0640 C   0  0  0  0  0  0  0  0  0  0  0  0
   26.0942  -17.7535  -16.0136 O   0  0  0  0  0  0  0  0  0  0  0  0
   19.8621  -20.5542  -10.8709 O   0  0  0  0  0  0  0  0  0  0  0  0
   20.5631  -20.2607  -12.0577 C   0  0  0  0  0  0  0  0  0  0  0  0
   20.8089  -18.9610  -12.4374 C   0  0  0  0  0  0  0  0  0  0  0  0
   21.5075  -18.6903  -13.6200 C   0  0  0  0  0  0  0  0  0  0  0  0
   21.9605  -19.7185  -14.4228 C   0  0  0  0  0  0  0  0  0  0  0  0
   22.6746  -19.4306  -15.6537 C   0  0  0  0  0  0  0  0  0  0  0  0
   24.1950  -19.6504  -15.5748 C   0  0  2  0  0  0  0  0  0  0  0  0
   24.6968  -19.3448  -16.8715 N   0  0  0  0  0  0  0  0  0  0  0  0
   24.5726  -20.9215  -14.9844 C   0  0  0  0  0  0  0  0  0  0  0  0
   24.4046  -21.9359  -15.7519 O   0  0  0  0  0  0  0  0  0  0  0  0
   21.7189  -21.0248  -14.0508 C   0  0  0  0  0  0  0  0  0  0  0  0
   21.0188  -21.2817  -12.8655 C   0  0  0  0  0  0  0  0  0  0  0  0
   25.1040  -21.1119  -13.6460 N   0  0  0  0  0  0  0  0  0  0  0  0
   25.2823  -20.1474  -12.6225 C   0  0  0  0  0  0  0  0  0  0  0  0
   25.4405  -20.9798  -11.3526 C   0  0  0  0  0  0  0  0  0  0  0  0
   26.0980  -22.2467  -11.8511 C   0  0  0  0  0  0  0  0  0  0  0  0
   25.5182  -22.4064  -13.1996 C   0  0  1  0  0  0  0  0  0  0  0  0
   24.3883  -23.3817  -13.2327 C   0  0  0  0  0  0  0  0  0  0  0  0
   23.1004  -22.9702  -13.4578 O   0  0  0  0  0  0  0  0  0  0  0  0
   24.6473  -24.5832  -13.0495 O   0  0  0  0  0  0  0  0  0  0  0  0
  1  2  1  0
  3  2  1  0
  3  4  1  1
  5  3  1  0
  5  6  2  0
  7  8  1  0
  8 18  2  0
  9  8  1  0
  9 10  2  0
 10 11  1  0
 11 17  2  0
 11 12  1  0
 13 12  1  6
 13 14  1  0
 14  5  1  0
 15 13  1  0
 16 15  2  0
 18 17  1  0
 19 23  1  0
 19 15  1  0
 20 21  1  0
 20 19  1  0
 21 22  1  0
 23 22  1  0
 23 24  1  1
 25 24  1  0
 26 24  2  0
M  END
$$$$
