SYP.pdb
     RDKit          3D

 26 27  0  0  1  0  0  0  0  0999 V2000
   29.4005  -21.4036  -14.2055 O   0  0  0  0  0  0  0  0  0  0  0  0
   28.9537  -20.6394  -13.1514 C   0  0  0  0  0  0  0  0  0  0  0  0
   27.5591  -21.0592  -12.7635 C   0  0  2  0  0  0  0  0  0  0  0  0
   26.6416  -20.5846  -13.7926 N   0  0  0  0  0  0  0  0  0  0  0  0
   27.1087  -20.4998  -11.4663 C   0  0  0  0  0  0  0  0  0  0  0  0
   26.8637  -19.2572  -11.3575 O   0  0  0  0  0  0  0  0  0  0  0  0
   21.0860  -19.5816  -12.3430 O   0  0  0  0  0  0  0  0  0  0  0  0
   22.0874  -19.9892  -11.4391 C   0  0  0  0  0  0  0  0  0  0  0  0
   22.2531  -19.3585  -10.2272 C   0  0  0  0  0  0  0  0  0  0  0  0
   23.2537  -19.7786   -9.3429 C   0  0  0  0  0  0  0  0  0  0  0  0
   24.0884  -20.8290   -9.6697 C   0  0  0  0  0  0  0  0  0  0  0  0
   25.1315  -21.2525   -8.7528 C   0  0  0  0  0  0  0  0  0  0  0  0
   26.5249  -20.6802   -9.0644 C   0  0  2  0  0  0  0  0  0  0  0  0
   26.9215  -21.2786  -10.2938 N   0  0  0  0  0  0  0  0  0  0  0  0
   27.4494  -20.7501   -7.9476 C   0  0  0  0  0  0  0  0  0  0  0  0
   27.9367  -21.9172   -7.7318 O   0  0  0  0  0  0  0  0  0  0  0  0
   23.9304  -21.4675  -10.8824 C   0  0  0  0  0  0  0  0  0  0  0  0
   22.9256  -21.0373  -11.7578 C   0  0  0  0  0  0  0  0  0  0  0  0
   27.8416  -19.6383   -7.0990 N   0  0  0  0  0  0  0  0  0  0  0  0
   27.5156  -18.2656   -7.2369 C   0  0  0  0  0  0  0  0  0  0  0  0
   27.8147  -17.6738   -5.8618 C   0  0  0  0  0  0  0  0  0  0  0  0
   28.9563  -18.5287   -5.3601 C   0  0  0  0  0  0  0  0  0  0  0  0
   28.6522  -19.8522   -5.9397 C   0  0  1  0  0  0  0  0  0  0  0  0
   27.9848  -20.7700   -4.9697 C   0  0  0  0  0  0  0  0  0  0  0  0
   28.6433  -21.2323   -3.8599 O   0  0  0  0  0  0  0  0  0  0  0  0
   26.8100  -21.1062   -5.1959 O   0  0  0  0  0  0  0  0  0  0  0  0
  1  2  1  0
  3  2  1  0
  3  4  1  6
  5  3  1  0
  5  6  2  0
  7  8  1  0
  8 18  2  0
  9  8  1  0
  9 10  2  0
 10 11  1  0
 11 17  2  0
 11 12  1  0
 13 12  1  1
 13 14  1  0
 14  5  1  0
 15 13  1  0
 16 15  2  0
 18 17  1  0
 19 23  1  0
 19 15  1  0
 20 21  1  0
 20 19  1  0
 21 22  1  0
 23 22  1  0
 23 24  1  1
 25 24  1  0
 26 24  2  0
M  END
$$$$
