SYP.pdb
     RDKit          3D

 26 27  0  0  1  0  0  0  0  0999 V2000
   33.0898  -30.3783  -21.4852 O   0  0  0  0  0  0  0  0  0  0  0  0
   32.6241  -30.7396  -20.2412 C   0  0  0  0  0  0  0  0  0  0  0  0
   31.7998  -29.6228  -19.6539 C   0  0  2  0  0  0  0  0  0  0  0  0
   32.7043  -28.7018  -18.9758 N   0  0  0  0  0  0  0  0  0  0  0  0
   30.7977  -30.0814  -18.6618 C   0  0  0  0  0  0  0  0  0  0  0  0
   31.0345  -29.9715  -17.4177 O   0  0  0  0  0  0  0  0  0  0  0  0
   28.8326  -24.5936  -17.2364 O   0  0  0  0  0  0  0  0  0  0  0  0
   28.4812  -25.9393  -17.4642 C   0  0  0  0  0  0  0  0  0  0  0  0
   28.4076  -26.8419  -16.4280 C   0  0  0  0  0  0  0  0  0  0  0  0
   28.0564  -28.1743  -16.6751 C   0  0  0  0  0  0  0  0  0  0  0  0
   27.7785  -28.6044  -17.9576 C   0  0  0  0  0  0  0  0  0  0  0  0
   27.4258  -29.9903  -18.2083 C   0  0  0  0  0  0  0  0  0  0  0  0
   28.5822  -30.9867  -18.0182 C   0  0  2  0  0  0  0  0  0  0  0  0
   29.5459  -30.6533  -19.0115 N   0  0  0  0  0  0  0  0  0  0  0  0
   28.1534  -32.3705  -17.9277 C   0  0  0  0  0  0  0  0  0  0  0  0
   27.7520  -32.8772  -19.0360 O   0  0  0  0  0  0  0  0  0  0  0  0
   27.8498  -27.7071  -19.0030 C   0  0  0  0  0  0  0  0  0  0  0  0
   28.2024  -26.3772  -18.7422 C   0  0  0  0  0  0  0  0  0  0  0  0
   28.1499  -33.1814  -16.7225 N   0  0  0  0  0  0  0  0  0  0  0  0
   28.5414  -32.8133  -15.4107 C   0  0  0  0  0  0  0  0  0  0  0  0
   27.9158  -33.8860  -14.5227 C   0  0  0  0  0  0  0  0  0  0  0  0
   27.9151  -35.1101  -15.4101 C   0  0  0  0  0  0  0  0  0  0  0  0
   27.6989  -34.5387  -16.7543 C   0  0  1  0  0  0  0  0  0  0  0  0
   26.2772  -34.6302  -17.2009 C   0  0  0  0  0  0  0  0  0  0  0  0
   25.5101  -33.5063  -17.3660 O   0  0  0  0  0  0  0  0  0  0  0  0
   25.8046  -35.7584  -17.4201 O   0  0  0  0  0  0  0  0  0  0  0  0
  1  2  1  0
  3  2  1  0
  3  4  1  1
  5  3  1  0
  5  6  2  0
  7  8  1  0
  8 18  2  0
  9  8  1  0
  9 10  2  0
 10 11  1  0
 11 17  2  0
 11 12  1  0
 13 12  1  6
 13 14  1  0
 14  5  1  0
 15 13  1  0
 16 15  2  0
 18 17  1  0
 19 23  1  0
 19 15  1  0
 20 21  1  0
 20 19  1  0
 21 22  1  0
 23 22  1  0
 23 24  1  1
 25 24  1  0
 26 24  2  0
M  END
$$$$
