SYP.pdb
     RDKit          3D

 26 27  0  0  1  0  0  0  0  0999 V2000
   22.0887  -22.6427  -15.3315 O   0  0  0  0  0  0  0  0  0  0  0  0
   21.9246  -21.3586  -15.7996 C   0  0  0  0  0  0  0  0  0  0  0  0
   23.1918  -20.8853  -16.4643 C   0  0  2  0  0  0  0  0  0  0  0  0
   23.5201  -21.8233  -17.5312 N   0  0  0  0  0  0  0  0  0  0  0  0
   24.3558  -20.8207  -15.5480 C   0  0  0  0  0  0  0  0  0  0  0  0
   25.2401  -21.7336  -15.5739 O   0  0  0  0  0  0  0  0  0  0  0  0
   28.4581  -16.4660  -18.6107 O   0  0  0  0  0  0  0  0  0  0  0  0
   27.8802  -16.9154  -17.4064 C   0  0  0  0  0  0  0  0  0  0  0  0
   26.5773  -16.6116  -17.0843 C   0  0  0  0  0  0  0  0  0  0  0  0
   26.0215  -17.0678  -15.8831 C   0  0  0  0  0  0  0  0  0  0  0  0
   26.7679  -17.8277  -15.0043 C   0  0  0  0  0  0  0  0  0  0  0  0
   26.1888  -18.2882  -13.7549 C   0  0  0  0  0  0  0  0  0  0  0  0
   25.7157  -19.7518  -13.7731 C   0  0  2  0  0  0  0  0  0  0  0  0
   24.5648  -19.7748  -14.6106 N   0  0  0  0  0  0  0  0  0  0  0  0
   25.6059  -20.3476  -12.4540 C   0  0  0  0  0  0  0  0  0  0  0  0
   24.4178  -20.3539  -11.9698 O   0  0  0  0  0  0  0  0  0  0  0  0
   28.0751  -18.1373  -15.3182 C   0  0  0  0  0  0  0  0  0  0  0  0
   28.6188  -17.6746  -16.5228 C   0  0  0  0  0  0  0  0  0  0  0  0
   26.7003  -20.9116  -11.6831 N   0  0  0  0  0  0  0  0  0  0  0  0
   28.0666  -21.0248  -12.0437 C   0  0  0  0  0  0  0  0  0  0  0  0
   28.7809  -21.2685  -10.7166 C   0  0  0  0  0  0  0  0  0  0  0  0
   27.7510  -22.0203   -9.9042 C   0  0  0  0  0  0  0  0  0  0  0  0
   26.4776  -21.4365  -10.3711 C   0  0  1  0  0  0  0  0  0  0  0  0
   25.9472  -20.3899   -9.4480 C   0  0  0  0  0  0  0  0  0  0  0  0
   25.3373  -20.7261   -8.2674 O   0  0  0  0  0  0  0  0  0  0  0  0
   26.0736  -19.1990   -9.7798 O   0  0  0  0  0  0  0  0  0  0  0  0
  1  2  1  0
  3  2  1  0
  3  4  1  6
  5  3  1  0
  5  6  2  0
  7  8  1  0
  8 18  2  0
  9  8  1  0
  9 10  2  0
 10 11  1  0
 11 17  2  0
 11 12  1  0
 13 12  1  1
 13 14  1  0
 14  5  1  0
 15 13  1  0
 16 15  2  0
 18 17  1  0
 19 23  1  0
 19 15  1  0
 20 21  1  0
 20 19  1  0
 21 22  1  0
 23 22  1  0
 23 24  1  1
 25 24  1  0
 26 24  2  0
M  END
$$$$
