SYP.pdb
     RDKit          3D

 26 27  0  0  1  0  0  0  0  0999 V2000
   16.2586  -14.6585  -16.2237 O   0  0  0  0  0  0  0  0  0  0  0  0
   16.7352  -13.6180  -15.4587 C   0  0  0  0  0  0  0  0  0  0  0  0
   15.7544  -13.2919  -14.3618 C   0  0  2  0  0  0  0  0  0  0  0  0
   14.5100  -13.9976  -14.6436 N   0  0  0  0  0  0  0  0  0  0  0  0
   15.4383  -11.8470  -14.2567 C   0  0  0  0  0  0  0  0  0  0  0  0
   14.4812  -11.3521  -14.9312 O   0  0  0  0  0  0  0  0  0  0  0  0
   10.3837   -9.9222   -9.8641 O   0  0  0  0  0  0  0  0  0  0  0  0
   11.6928   -9.7672  -10.3625 C   0  0  0  0  0  0  0  0  0  0  0  0
   12.5822  -10.8172  -10.3680 C   0  0  0  0  0  0  0  0  0  0  0  0
   13.8782  -10.6430  -10.8678 C   0  0  0  0  0  0  0  0  0  0  0  0
   14.2850   -9.4195  -11.3622 C   0  0  0  0  0  0  0  0  0  0  0  0
   15.6341   -9.2426  -11.8688 C   0  0  0  0  0  0  0  0  0  0  0  0
   15.8007   -9.5635  -13.3639 C   0  0  2  0  0  0  0  0  0  0  0  0
   16.1506  -10.9421  -13.4259 N   0  0  0  0  0  0  0  0  0  0  0  0
   16.6419   -8.6183  -14.0752 C   0  0  0  0  0  0  0  0  0  0  0  0
   17.9004   -8.7741  -13.8803 O   0  0  0  0  0  0  0  0  0  0  0  0
   13.4006   -8.3606  -11.3608 C   0  0  0  0  0  0  0  0  0  0  0  0
   12.1073   -8.5484  -10.8579 C   0  0  0  0  0  0  0  0  0  0  0  0
   16.1751   -7.5587  -14.9524 N   0  0  0  0  0  0  0  0  0  0  0  0
   14.8533   -7.2961  -15.3922 C   0  0  0  0  0  0  0  0  0  0  0  0
   14.9105   -5.8569  -15.8983 C   0  0  0  0  0  0  0  0  0  0  0  0
   16.3278   -5.7276  -16.4087 C   0  0  0  0  0  0  0  0  0  0  0  0
   17.0873   -6.5945  -15.4858 C   0  0  1  0  0  0  0  0  0  0  0  0
   17.7679   -5.8288  -14.3998 C   0  0  0  0  0  0  0  0  0  0  0  0
   17.3993   -5.9761  -13.0878 O   0  0  0  0  0  0  0  0  0  0  0  0
   18.6823   -5.0498  -14.7180 O   0  0  0  0  0  0  0  0  0  0  0  0
  1  2  1  0
  3  2  1  0
  3  4  1  6
  5  3  1  0
  5  6  2  0
  7  8  1  0
  8 18  2  0
  9  8  1  0
  9 10  2  0
 10 11  1  0
 11 17  2  0
 11 12  1  0
 13 12  1  1
 13 14  1  0
 14  5  1  0
 15 13  1  0
 16 15  2  0
 18 17  1  0
 19 23  1  0
 19 15  1  0
 20 21  1  0
 20 19  1  0
 21 22  1  0
 23 22  1  0
 23 24  1  1
 25 24  1  0
 26 24  2  0
M  END
$$$$
