SYP.pdb
     RDKit          3D

 26 27  0  0  1  0  0  0  0  0999 V2000
   21.9008   -8.6567  -20.6938 O   0  0  0  0  0  0  0  0  0  0  0  0
   23.2625   -8.5223  -20.5431 C   0  0  0  0  0  0  0  0  0  0  0  0
   23.6432   -8.7099  -19.0969 C   0  0  2  0  0  0  0  0  0  0  0  0
   23.1339  -10.0043  -18.6597 N   0  0  0  0  0  0  0  0  0  0  0  0
   23.0800   -7.6767  -18.1947 C   0  0  0  0  0  0  0  0  0  0  0  0
   21.8999   -7.8016  -17.7392 O   0  0  0  0  0  0  0  0  0  0  0  0
   21.3590   -9.2219  -12.0209 O   0  0  0  0  0  0  0  0  0  0  0  0
   21.9735   -8.3136  -12.9061 C   0  0  0  0  0  0  0  0  0  0  0  0
   21.5640   -7.0018  -12.9789 C   0  0  0  0  0  0  0  0  0  0  0  0
   22.1876   -6.1150  -13.8646 C   0  0  0  0  0  0  0  0  0  0  0  0
   23.2203   -6.5392  -14.6772 C   0  0  0  0  0  0  0  0  0  0  0  0
   23.8552   -5.6170  -15.6017 C   0  0  0  0  0  0  0  0  0  0  0  0
   23.1713   -5.5206  -16.9761 C   0  0  2  0  0  0  0  0  0  0  0  0
   23.7885   -6.5163  -17.7849 N   0  0  0  0  0  0  0  0  0  0  0  0
   23.1008   -4.1691  -17.5011 C   0  0  0  0  0  0  0  0  0  0  0  0
   24.1981   -3.7360  -18.0056 O   0  0  0  0  0  0  0  0  0  0  0  0
   23.6378   -7.8525  -14.6117 C   0  0  0  0  0  0  0  0  0  0  0  0
   23.0055   -8.7292  -13.7215 C   0  0  0  0  0  0  0  0  0  0  0  0
   21.9254   -3.3156  -17.4944 N   0  0  0  0  0  0  0  0  0  0  0  0
   20.6188   -3.6175  -17.0347 C   0  0  0  0  0  0  0  0  0  0  0  0
   19.9600   -2.2506  -16.8673 C   0  0  0  0  0  0  0  0  0  0  0  0
   20.6268   -1.4139  -17.9356 C   0  0  0  0  0  0  0  0  0  0  0  0
   21.9928   -1.9725  -17.9823 C   0  0  1  0  0  0  0  0  0  0  0  0
   22.9776   -1.1602  -17.2082 C   0  0  0  0  0  0  0  0  0  0  0  0
   23.3939    0.0671  -17.6545 O   0  0  0  0  0  0  0  0  0  0  0  0
   23.4129   -1.6285  -16.1425 O   0  0  0  0  0  0  0  0  0  0  0  0
  1  2  1  0
  3  2  1  0
  3  4  1  1
  5  3  1  0
  5  6  2  0
  7  8  1  0
  8 18  2  0
  9  8  1  0
  9 10  2  0
 10 11  1  0
 11 17  2  0
 11 12  1  0
 13 12  1  1
 13 14  1  0
 14  5  1  0
 15 13  1  0
 16 15  2  0
 18 17  1  0
 19 23  1  0
 19 15  1  0
 20 21  1  0
 20 19  1  0
 21 22  1  0
 23 22  1  0
 23 24  1  1
 25 24  1  0
 26 24  2  0
M  END
$$$$
