SYP.pdb
     RDKit          3D

 26 27  0  0  1  0  0  0  0  0999 V2000
   27.4999  -21.3867  -19.2959 O   0  0  0  0  0  0  0  0  0  0  0  0
   28.6263  -20.7106  -18.8850 C   0  0  0  0  0  0  0  0  0  0  0  0
   29.2560  -21.4198  -17.7135 C   0  0  2  0  0  0  0  0  0  0  0  0
   29.7449  -22.7127  -18.1775 N   0  0  0  0  0  0  0  0  0  0  0  0
   28.3160  -21.6694  -16.5942 C   0  0  0  0  0  0  0  0  0  0  0  0
   27.8367  -22.8324  -16.4105 O   0  0  0  0  0  0  0  0  0  0  0  0
   24.3576  -20.7839   -8.7295 O   0  0  0  0  0  0  0  0  0  0  0  0
   25.1106  -20.6023   -9.9068 C   0  0  0  0  0  0  0  0  0  0  0  0
   26.3497  -21.1818  -10.0568 C   0  0  0  0  0  0  0  0  0  0  0  0
   27.0820  -20.9896  -11.2343 C   0  0  0  0  0  0  0  0  0  0  0  0
   26.5757  -20.2184  -12.2619 C   0  0  0  0  0  0  0  0  0  0  0  0
   27.3452  -20.0139  -13.4760 C   0  0  0  0  0  0  0  0  0  0  0  0
   26.9803  -20.9638  -14.6295 C   0  0  2  0  0  0  0  0  0  0  0  0
   27.8981  -20.6692  -15.6770 N   0  0  0  0  0  0  0  0  0  0  0  0
   25.5651  -20.9760  -14.9521 C   0  0  0  0  0  0  0  0  0  0  0  0
   25.1516  -19.9322  -15.5732 O   0  0  0  0  0  0  0  0  0  0  0  0
   25.3345  -19.6330  -12.1209 C   0  0  0  0  0  0  0  0  0  0  0  0
   24.6125  -19.8332  -10.9379 C   0  0  0  0  0  0  0  0  0  0  0  0
   24.6306  -22.0417  -14.6342 N   0  0  0  0  0  0  0  0  0  0  0  0
   24.8915  -23.2848  -14.0048 C   0  0  0  0  0  0  0  0  0  0  0  0
   23.5159  -23.7652  -13.5491 C   0  0  0  0  0  0  0  0  0  0  0  0
   22.5869  -23.1903  -14.5943 C   0  0  0  0  0  0  0  0  0  0  0  0
   23.2400  -21.9131  -14.9442 C   0  0  1  0  0  0  0  0  0  0  0  0
   22.6322  -20.7414  -14.2467 C   0  0  0  0  0  0  0  0  0  0  0  0
   21.5913  -20.0443  -14.8031 O   0  0  0  0  0  0  0  0  0  0  0  0
   23.0972  -20.4124  -13.1423 O   0  0  0  0  0  0  0  0  0  0  0  0
  1  2  1  0
  3  2  1  0
  3  4  1  6
  5  3  1  0
  5  6  2  0
  7  8  1  0
  8 18  2  0
  9  8  1  0
  9 10  2  0
 10 11  1  0
 11 17  2  0
 11 12  1  0
 13 12  1  1
 13 14  1  0
 14  5  1  0
 15 13  1  0
 16 15  2  0
 18 17  1  0
 19 23  1  0
 19 15  1  0
 20 21  1  0
 20 19  1  0
 21 22  1  0
 23 22  1  0
 23 24  1  1
 25 24  1  0
 26 24  2  0
M  END
$$$$
