SYP.pdb
     RDKit          3D

 26 27  0  0  1  0  0  0  0  0999 V2000
   26.3932  -17.8639  -20.8819 O   0  0  0  0  0  0  0  0  0  0  0  0
   26.7199  -17.7111  -19.5534 C   0  0  0  0  0  0  0  0  0  0  0  0
   25.5490  -18.0959  -18.6859 C   0  0  2  0  0  0  0  0  0  0  0  0
   24.5287  -17.0629  -18.8198 N   0  0  0  0  0  0  0  0  0  0  0  0
   25.8872  -18.2105  -17.2468 C   0  0  0  0  0  0  0  0  0  0  0  0
   25.4960  -17.3218  -16.4263 O   0  0  0  0  0  0  0  0  0  0  0  0
   24.7974  -20.8716   -9.2994 O   0  0  0  0  0  0  0  0  0  0  0  0
   24.9108  -20.5752  -10.6725 C   0  0  0  0  0  0  0  0  0  0  0  0
   24.7190  -21.5455  -11.6292 C   0  0  0  0  0  0  0  0  0  0  0  0
   24.8358  -21.2308  -12.9883 C   0  0  0  0  0  0  0  0  0  0  0  0
   25.1441  -19.9464  -13.3910 C   0  0  0  0  0  0  0  0  0  0  0  0
   25.2749  -19.6293  -14.8018 C   0  0  0  0  0  0  0  0  0  0  0  0
   26.7260  -19.4781  -15.2892 C   0  0  2  0  0  0  0  0  0  0  0  0
   26.6416  -19.2803  -16.6965 N   0  0  0  0  0  0  0  0  0  0  0  0
   27.6177  -20.5151  -14.8030 C   0  0  0  0  0  0  0  0  0  0  0  0
   27.4081  -21.6765  -15.3062 O   0  0  0  0  0  0  0  0  0  0  0  0
   25.3386  -18.9667  -12.4393 C   0  0  0  0  0  0  0  0  0  0  0  0
   25.2188  -19.2949  -11.0833 C   0  0  0  0  0  0  0  0  0  0  0  0
   28.6819  -20.3331  -13.8312 N   0  0  0  0  0  0  0  0  0  0  0  0
   28.9674  -19.1927  -13.0391 C   0  0  0  0  0  0  0  0  0  0  0  0
   29.8741  -19.7273  -11.9333 C   0  0  0  0  0  0  0  0  0  0  0  0
   30.6146  -20.8575  -12.6117 C   0  0  0  0  0  0  0  0  0  0  0  0
   29.6092  -21.3868  -13.5547 C   0  0  1  0  0  0  0  0  0  0  0  0
   28.9141  -22.6029  -13.0381 C   0  0  0  0  0  0  0  0  0  0  0  0
   29.5935  -23.7746  -12.8275 O   0  0  0  0  0  0  0  0  0  0  0  0
   27.6963  -22.5249  -12.8027 O   0  0  0  0  0  0  0  0  0  0  0  0
  1  2  1  0
  3  2  1  0
  3  4  1  1
  5  3  1  0
  5  6  2  0
  7  8  1  0
  8 18  2  0
  9  8  1  0
  9 10  2  0
 10 11  1  0
 11 17  2  0
 11 12  1  0
 13 12  1  6
 13 14  1  0
 14  5  1  0
 15 13  1  0
 16 15  2  0
 18 17  1  0
 19 23  1  0
 19 15  1  0
 20 21  1  0
 20 19  1  0
 21 22  1  0
 23 22  1  0
 23 24  1  1
 25 24  1  0
 26 24  2  0
M  END
$$$$
