LCP.pdb
     RDKit          3D

 22 22  0  0  1  0  0  0  0  0999 V2000
   26.5479  -26.8837  -19.7650 C   0  0  0  0  0  0  0  0  0  0  0  0
   26.8656  -27.5665  -18.4448 C   0  0  2  0  0  0  0  0  0  0  0  0
   25.7549  -28.5946  -18.2222 C   0  0  0  0  0  0  0  0  0  0  0  0
   26.7891  -26.5989  -17.2874 C   0  0  0  0  0  0  0  0  0  0  0  0
   27.9960  -25.7124  -17.3410 C   0  0  2  0  0  0  0  0  0  0  0  0
   29.1571  -26.4638  -16.9542 N   0  0  0  0  0  0  0  0  0  0  0  0
   27.8578  -24.5290  -16.4485 C   0  0  0  0  0  0  0  0  0  0  0  0
   28.0986  -24.6065  -15.2100 O   0  0  0  0  0  0  0  0  0  0  0  0
   27.4544  -23.2877  -16.9579 N   0  0  0  0  0  0  0  0  0  0  0  0
   27.3474  -22.0753  -16.1046 C   0  0  1  0  0  0  0  0  0  0  0  0
   28.0998  -21.0290  -16.9253 C   0  0  0  0  0  0  0  0  0  0  0  0
   27.9308  -19.3880  -16.1625 S   0  0  0  0  0  0  0  0  0  0  0  0
   25.9429  -21.6880  -15.9500 C   0  0  0  0  0  0  0  0  0  0  0  0
   25.4443  -21.2182  -17.0728 O   0  0  0  0  0  0  0  0  0  0  0  0
   25.1074  -21.7470  -14.8278 N   0  0  0  0  0  0  0  0  0  0  0  0
   25.5984  -22.5147  -13.6241 C   0  0  0  0  0  0  0  0  0  0  0  0
   25.4736  -21.4156  -12.5952 C   0  0  0  0  0  0  0  0  0  0  0  0
   24.2989  -20.5786  -13.0324 C   0  0  0  0  0  0  0  0  0  0  0  0
   23.8695  -21.3235  -14.3174 C   0  0  1  0  0  0  0  0  0  0  0  0
   22.9131  -20.5660  -15.0498 C   0  0  0  0  0  0  0  0  0  0  0  0
   21.7425  -20.3929  -14.7537 O   0  0  0  0  0  0  0  0  0  0  0  0
   23.3379  -19.9405  -16.2456 O   0  0  0  0  0  0  0  0  0  0  0  0
  2  1  1  6
  2  3  1  0
  4  2  1  0
  5  4  1  0
  5  7  1  0
  5  6  1  1
  7  8  2  0
  7  9  1  0
  9 10  1  0
 10 11  1  6
 11 12  1  0
 13 10  1  0
 13 15  1  0
 14 13  2  0
 15 16  1  0
 17 16  1  0
 18 17  1  0
 19 18  1  0
 19 15  1  0
 19 20  1  6
 20 22  1  0
 21 20  2  0
M  END
$$$$
