LCP.pdb
     RDKit          3D

 22 22  0  0  1  0  0  0  0  0999 V2000
   23.5438  -22.5708  -12.7147 C   0  0  0  0  0  0  0  0  0  0  0  0
   24.8787  -22.1136  -13.2796 C   0  0  2  0  0  0  0  0  0  0  0  0
   25.4636  -23.3218  -14.0134 C   0  0  0  0  0  0  0  0  0  0  0  0
   25.8564  -21.7674  -12.1816 C   0  0  0  0  0  0  0  0  0  0  0  0
   25.3962  -20.4982  -11.5313 C   0  0  2  0  0  0  0  0  0  0  0  0
   25.1462  -19.5084  -12.5415 N   0  0  0  0  0  0  0  0  0  0  0  0
   26.3997  -19.9714  -10.5661 C   0  0  0  0  0  0  0  0  0  0  0  0
   27.4814  -19.4492  -10.9599 O   0  0  0  0  0  0  0  0  0  0  0  0
   26.1734  -20.0394   -9.1851 N   0  0  0  0  0  0  0  0  0  0  0  0
   27.1303  -19.4805   -8.1945 C   0  0  1  0  0  0  0  0  0  0  0  0
   26.3476  -18.3064   -7.6086 C   0  0  0  0  0  0  0  0  0  0  0  0
   27.2253  -17.6159   -6.1746 S   0  0  0  0  0  0  0  0  0  0  0  0
   27.4176  -20.4711   -7.1541 C   0  0  0  0  0  0  0  0  0  0  0  0
   26.3301  -21.1098   -6.7809 O   0  0  0  0  0  0  0  0  0  0  0  0
   28.6286  -20.8088   -6.5374 N   0  0  0  0  0  0  0  0  0  0  0  0
   29.8525  -20.9365   -7.4121 C   0  0  0  0  0  0  0  0  0  0  0  0
   30.7442  -19.9544   -6.6891 C   0  0  0  0  0  0  0  0  0  0  0  0
   30.3471  -20.0347   -5.2373 C   0  0  0  0  0  0  0  0  0  0  0  0
   29.2240  -21.0956   -5.2982 C   0  0  1  0  0  0  0  0  0  0  0  0
   28.5203  -21.1639   -4.0632 C   0  0  0  0  0  0  0  0  0  0  0  0
   27.3591  -20.8445   -3.8701 O   0  0  0  0  0  0  0  0  0  0  0  0
   29.2156  -21.6477   -2.9300 O   0  0  0  0  0  0  0  0  0  0  0  0
  2  1  1  1
  2  3  1  0
  4  2  1  0
  5  4  1  0
  5  7  1  0
  5  6  1  6
  7  8  2  0
  7  9  1  0
  9 10  1  0
 10 11  1  1
 11 12  1  0
 13 10  1  0
 13 15  1  0
 14 13  2  0
 15 16  1  0
 17 16  1  0
 18 17  1  0
 19 18  1  0
 19 15  1  0
 19 20  1  1
 20 22  1  0
 21 20  2  0
M  END
$$$$
