LCP.pdb
     RDKit          3D

 22 22  0  0  1  0  0  0  0  0999 V2000
   27.1090  -21.6038  -14.4278 C   0  0  0  0  0  0  0  0  0  0  0  0
   25.9209  -20.6594  -14.5081 C   0  0  2  0  0  0  0  0  0  0  0  0
   26.2829  -19.6129  -15.5636 C   0  0  0  0  0  0  0  0  0  0  0  0
   25.7214  -19.9076  -13.2133 C   0  0  0  0  0  0  0  0  0  0  0  0
   25.5594  -20.9111  -12.1123 C   0  0  2  0  0  0  0  0  0  0  0  0
   24.3417  -21.6459  -12.3124 N   0  0  0  0  0  0  0  0  0  0  0  0
   25.5284  -20.2661  -10.7710 C   0  0  0  0  0  0  0  0  0  0  0  0
   24.7100  -19.3403  -10.5042 O   0  0  0  0  0  0  0  0  0  0  0  0
   26.4103  -20.6683   -9.7594 N   0  0  0  0  0  0  0  0  0  0  0  0
   26.1814  -20.3389   -8.3282 C   0  0  1  0  0  0  0  0  0  0  0  0
   25.0176  -21.2585   -7.9619 C   0  0  0  0  0  0  0  0  0  0  0  0
   24.5377  -21.0082   -6.2268 S   0  0  0  0  0  0  0  0  0  0  0  0
   27.3664  -20.6764   -7.5356 C   0  0  0  0  0  0  0  0  0  0  0  0
   27.7717  -21.9054   -7.7709 O   0  0  0  0  0  0  0  0  0  0  0  0
   28.0845  -19.9078   -6.6112 N   0  0  0  0  0  0  0  0  0  0  0  0
   28.6270  -18.5767   -7.0730 C   0  0  0  0  0  0  0  0  0  0  0  0
   27.9936  -17.7017   -6.0168 C   0  0  0  0  0  0  0  0  0  0  0  0
   27.9183  -18.5513   -4.7742 C   0  0  0  0  0  0  0  0  0  0  0  0
   28.5401  -19.8722   -5.2833 C   0  0  1  0  0  0  0  0  0  0  0  0
   28.3529  -20.9204   -4.3393 C   0  0  0  0  0  0  0  0  0  0  0  0
   27.6575  -21.9122   -4.4833 O   0  0  0  0  0  0  0  0  0  0  0  0
   29.0309  -20.8263   -3.1010 O   0  0  0  0  0  0  0  0  0  0  0  0
  2  1  1  1
  2  3  1  0
  4  2  1  0
  5  4  1  0
  5  7  1  0
  5  6  1  6
  7  8  2  0
  7  9  1  0
  9 10  1  0
 10 11  1  1
 11 12  1  0
 13 10  1  0
 13 15  1  0
 14 13  2  0
 15 16  1  0
 17 16  1  0
 18 17  1  0
 19 18  1  0
 19 15  1  0
 19 20  1  1
 20 22  1  0
 21 20  2  0
M  END
$$$$
