LCP.pdb
     RDKit          3D

 22 22  0  0  1  0  0  0  0  0999 V2000
   16.6506  -10.5415  -18.8321 C   0  0  0  0  0  0  0  0  0  0  0  0
   18.0120  -11.1272  -18.4949 C   0  0  2  0  0  0  0  0  0  0  0  0
   18.0602  -12.5003  -19.1675 C   0  0  0  0  0  0  0  0  0  0  0  0
   18.1579  -11.3736  -17.0118 C   0  0  0  0  0  0  0  0  0  0  0  0
   19.5031  -11.9889  -16.7721 C   0  0  2  0  0  0  0  0  0  0  0  0
   19.3351  -13.2863  -16.1797 N   0  0  0  0  0  0  0  0  0  0  0  0
   20.3490  -11.1484  -15.8809 C   0  0  0  0  0  0  0  0  0  0  0  0
   20.1267  -11.0754  -14.6386 O   0  0  0  0  0  0  0  0  0  0  0  0
   21.4223  -10.4096  -16.3957 N   0  0  0  0  0  0  0  0  0  0  0  0
   22.3164   -9.5976  -15.5293 C   0  0  1  0  0  0  0  0  0  0  0  0
   23.6997  -10.1391  -15.8864 C   0  0  0  0  0  0  0  0  0  0  0  0
   24.2897  -11.2674  -14.5894 S   0  0  0  0  0  0  0  0  0  0  0  0
   22.2162   -8.1803  -15.8864 C   0  0  0  0  0  0  0  0  0  0  0  0
   22.5065   -7.9791  -17.1534 O   0  0  0  0  0  0  0  0  0  0  0  0
   21.8728   -7.0726  -15.1016 N   0  0  0  0  0  0  0  0  0  0  0  0
   21.1691   -7.3294  -13.7909 C   0  0  0  0  0  0  0  0  0  0  0  0
   22.1278   -6.6004  -12.8789 C   0  0  0  0  0  0  0  0  0  0  0  0
   22.6748   -5.4557  -13.6927 C   0  0  0  0  0  0  0  0  0  0  0  0
   21.9382   -5.6713  -15.0350 C   0  0  1  0  0  0  0  0  0  0  0  0
   22.4833   -4.8412  -16.0541 C   0  0  0  0  0  0  0  0  0  0  0  0
   22.1251   -3.7106  -16.3392 O   0  0  0  0  0  0  0  0  0  0  0  0
   23.5493   -5.3561  -16.8290 O   0  0  0  0  0  0  0  0  0  0  0  0
  2  1  1  1
  2  3  1  0
  4  2  1  0
  5  4  1  0
  5  7  1  0
  5  6  1  1
  7  8  2  0
  7  9  1  0
  9 10  1  0
 10 11  1  6
 11 12  1  0
 13 10  1  0
 13 15  1  0
 14 13  2  0
 15 16  1  0
 17 16  1  0
 18 17  1  0
 19 18  1  0
 19 15  1  0
 19 20  1  6
 20 22  1  0
 21 20  2  0
M  END
$$$$
