LCP.pdb
     RDKit          3D

 22 22  0  0  1  0  0  0  0  0999 V2000
   21.3763  -22.4068  -13.6473 C   0  0  0  0  0  0  0  0  0  0  0  0
   20.4686  -21.3080  -13.1192 C   0  0  2  0  0  0  0  0  0  0  0  0
   19.8426  -20.6487  -14.3496 C   0  0  0  0  0  0  0  0  0  0  0  0
   21.2559  -20.2301  -12.4122 C   0  0  0  0  0  0  0  0  0  0  0  0
   22.2683  -20.8955  -11.5303 C   0  0  2  0  0  0  0  0  0  0  0  0
   21.8928  -20.7183  -10.1555 N   0  0  0  0  0  0  0  0  0  0  0  0
   23.6360  -20.3464  -11.7400 C   0  0  0  0  0  0  0  0  0  0  0  0
   24.0031  -19.2669  -11.1941 O   0  0  0  0  0  0  0  0  0  0  0  0
   24.5616  -21.0137  -12.5530 N   0  0  0  0  0  0  0  0  0  0  0  0
   25.9419  -20.5057  -12.7679 C   0  0  1  0  0  0  0  0  0  0  0  0
   26.7964  -21.5917  -12.1160 C   0  0  0  0  0  0  0  0  0  0  0  0
   28.5330  -21.4173  -12.6232 S   0  0  0  0  0  0  0  0  0  0  0  0
   26.2323  -20.4210  -14.2014 C   0  0  0  0  0  0  0  0  0  0  0  0
   26.2649  -21.6115  -14.7595 O   0  0  0  0  0  0  0  0  0  0  0  0
   26.4678  -19.3032  -15.0113 N   0  0  0  0  0  0  0  0  0  0  0  0
   26.1641  -17.9407  -14.4364 C   0  0  0  0  0  0  0  0  0  0  0  0
   27.5201  -17.3070  -14.6418 C   0  0  0  0  0  0  0  0  0  0  0  0
   28.0793  -17.9359  -15.8922 C   0  0  0  0  0  0  0  0  0  0  0  0
   26.9328  -18.9007  -16.2738 C   0  0  1  0  0  0  0  0  0  0  0  0
   27.3402  -19.7935  -17.3043 C   0  0  0  0  0  0  0  0  0  0  0  0
   27.6810  -20.9564  -17.1652 O   0  0  0  0  0  0  0  0  0  0  0  0
   27.3604  -19.3074  -18.6329 O   0  0  0  0  0  0  0  0  0  0  0  0
  2  1  1  6
  2  3  1  0
  4  2  1  0
  5  4  1  0
  5  7  1  0
  5  6  1  1
  7  8  2  0
  7  9  1  0
  9 10  1  0
 10 11  1  1
 11 12  1  0
 13 10  1  0
 13 15  1  0
 14 13  2  0
 15 16  1  0
 17 16  1  0
 18 17  1  0
 19 18  1  0
 19 15  1  0
 19 20  1  6
 20 22  1  0
 21 20  2  0
M  END
$$$$
