LCP.pdb
     RDKit          3D

 22 22  0  0  1  0  0  0  0  0999 V2000
   27.0024  -14.1829  -14.7900 C   0  0  0  0  0  0  0  0  0  0  0  0
   27.1339  -13.5807  -16.1793 C   0  0  2  0  0  0  0  0  0  0  0  0
   28.5517  -13.0119  -16.2614 C   0  0  0  0  0  0  0  0  0  0  0  0
   26.1946  -12.4131  -16.3690 C   0  0  0  0  0  0  0  0  0  0  0  0
   24.7983  -12.9490  -16.4611 C   0  0  2  0  0  0  0  0  0  0  0  0
   24.7523  -13.9930  -17.4462 N   0  0  0  0  0  0  0  0  0  0  0  0
   23.8178  -11.8890  -16.8236 C   0  0  0  0  0  0  0  0  0  0  0  0
   23.6204  -11.5584  -18.0277 O   0  0  0  0  0  0  0  0  0  0  0  0
   23.0810  -11.2231  -15.8354 N   0  0  0  0  0  0  0  0  0  0  0  0
   22.0351  -10.2196  -16.1648 C   0  0  1  0  0  0  0  0  0  0  0  0
   20.7682  -10.8738  -15.6159 C   0  0  0  0  0  0  0  0  0  0  0  0
   19.4879   -9.6185  -15.3187 S   0  0  0  0  0  0  0  0  0  0  0  0
   22.3031   -8.9611  -15.4642 C   0  0  0  0  0  0  0  0  0  0  0  0
   22.4363   -9.1474  -14.1690 O   0  0  0  0  0  0  0  0  0  0  0  0
   22.4282   -7.6583  -15.9623 N   0  0  0  0  0  0  0  0  0  0  0  0
   22.6712   -7.4909  -17.4428 C   0  0  0  0  0  0  0  0  0  0  0  0
   21.5057   -6.5825  -17.7567 C   0  0  0  0  0  0  0  0  0  0  0  0
   21.2922   -5.7498  -16.5187 C   0  0  0  0  0  0  0  0  0  0  0  0
   22.4045   -6.3023  -15.5976 C   0  0  1  0  0  0  0  0  0  0  0  0
   22.2442   -5.8293  -14.2652 C   0  0  0  0  0  0  0  0  0  0  0  0
   21.5500   -6.3289  -13.3955 O   0  0  0  0  0  0  0  0  0  0  0  0
   22.9507   -4.6636  -13.8860 O   0  0  0  0  0  0  0  0  0  0  0  0
  2  1  1  1
  2  3  1  0
  4  2  1  0
  5  4  1  0
  5  7  1  0
  5  6  1  6
  7  8  2  0
  7  9  1  0
  9 10  1  0
 10 11  1  1
 11 12  1  0
 13 10  1  0
 13 15  1  0
 14 13  2  0
 15 16  1  0
 17 16  1  0
 18 17  1  0
 19 18  1  0
 19 15  1  0
 19 20  1  1
 20 22  1  0
 21 20  2  0
M  END
$$$$
