LCP.pdb
     RDKit          3D

 22 22  0  0  1  0  0  0  0  0999 V2000
   19.1030  -11.1370  -18.0507 C   0  0  0  0  0  0  0  0  0  0  0  0
   17.7799  -10.8904  -17.3447 C   0  0  2  0  0  0  0  0  0  0  0  0
   16.7381  -10.7080  -18.4501 C   0  0  0  0  0  0  0  0  0  0  0  0
   17.8011   -9.5989  -16.5617 C   0  0  0  0  0  0  0  0  0  0  0  0
   18.8226   -9.7310  -15.4732 C   0  0  2  0  0  0  0  0  0  0  0  0
   18.3866  -10.7203  -14.5278 N   0  0  0  0  0  0  0  0  0  0  0  0
   19.0508   -8.4420  -14.7643 C   0  0  0  0  0  0  0  0  0  0  0  0
   18.2328   -8.0106  -13.9025 O   0  0  0  0  0  0  0  0  0  0  0  0
   20.1851   -7.6649  -15.0331 N   0  0  0  0  0  0  0  0  0  0  0  0
   20.4239   -6.3533  -14.3758 C   0  0  1  0  0  0  0  0  0  0  0  0
   21.7621   -6.5771  -13.6733 C   0  0  0  0  0  0  0  0  0  0  0  0
   22.3419   -5.0313  -12.9132 S   0  0  0  0  0  0  0  0  0  0  0  0
   20.5480   -5.2974  -15.3838 C   0  0  0  0  0  0  0  0  0  0  0  0
   21.6303   -5.4517  -16.1151 O   0  0  0  0  0  0  0  0  0  0  0  0
   19.7145   -4.2056  -15.6564 N   0  0  0  0  0  0  0  0  0  0  0  0
   18.2585   -4.3186  -15.2738 C   0  0  0  0  0  0  0  0  0  0  0  0
   18.1609   -3.0836  -14.4091 C   0  0  0  0  0  0  0  0  0  0  0  0
   19.1262   -2.0910  -15.0047 C   0  0  0  0  0  0  0  0  0  0  0  0
   19.6924   -2.9067  -16.1900 C   0  0  1  0  0  0  0  0  0  0  0  0
   20.8175   -2.2536  -16.7664 C   0  0  0  0  0  0  0  0  0  0  0  0
   21.9709   -2.3112  -16.3738 O   0  0  0  0  0  0  0  0  0  0  0  0
   20.6031   -1.4505  -17.9114 O   0  0  0  0  0  0  0  0  0  0  0  0
  2  1  1  6
  2  3  1  0
  4  2  1  0
  5  4  1  0
  5  7  1  0
  5  6  1  1
  7  8  2  0
  7  9  1  0
  9 10  1  0
 10 11  1  6
 11 12  1  0
 13 10  1  0
 13 15  1  0
 14 13  2  0
 15 16  1  0
 17 16  1  0
 18 17  1  0
 19 18  1  0
 19 15  1  0
 19 20  1  1
 20 22  1  0
 21 20  2  0
M  END
$$$$
