LCP.pdb
     RDKit          3D

 22 22  0  0  1  0  0  0  0  0999 V2000
   22.8574  -15.7357  -16.0523 C   0  0  0  0  0  0  0  0  0  0  0  0
   24.2825  -15.2392  -16.2325 C   0  0  2  0  0  0  0  0  0  0  0  0
   24.9895  -15.4899  -14.8993 C   0  0  0  0  0  0  0  0  0  0  0  0
   24.3250  -13.7471  -16.4636 C   0  0  0  0  0  0  0  0  0  0  0  0
   23.6500  -13.4588  -17.7700 C   0  0  2  0  0  0  0  0  0  0  0  0
   24.4282  -14.0144  -18.8416 N   0  0  0  0  0  0  0  0  0  0  0  0
   23.4760  -11.9978  -17.9964 C   0  0  0  0  0  0  0  0  0  0  0  0
   24.4602  -11.2509  -18.2637 O   0  0  0  0  0  0  0  0  0  0  0  0
   22.2092  -11.4043  -17.9194 N   0  0  0  0  0  0  0  0  0  0  0  0
   21.9943   -9.9545  -18.1672 C   0  0  1  0  0  0  0  0  0  0  0  0
   21.2142   -9.9582  -19.4808 C   0  0  0  0  0  0  0  0  0  0  0  0
   20.6277   -8.2828  -19.8711 S   0  0  0  0  0  0  0  0  0  0  0  0
   21.1834   -9.3728  -17.0947 C   0  0  0  0  0  0  0  0  0  0  0  0
   20.0204   -9.9773  -16.9854 O   0  0  0  0  0  0  0  0  0  0  0  0
   21.4656   -8.3164  -16.2198 N   0  0  0  0  0  0  0  0  0  0  0  0
   22.9109   -7.9205  -16.0371 C   0  0  0  0  0  0  0  0  0  0  0  0
   22.7867   -6.4586  -16.3973 C   0  0  0  0  0  0  0  0  0  0  0  0
   21.4087   -6.0435  -15.9494 C   0  0  0  0  0  0  0  0  0  0  0  0
   20.8781   -7.3719  -15.3624 C   0  0  1  0  0  0  0  0  0  0  0  0
   19.4837   -7.2879  -15.0913 C   0  0  0  0  0  0  0  0  0  0  0  0
   18.5764   -7.5578  -15.8607 O   0  0  0  0  0  0  0  0  0  0  0  0
   19.0833   -6.8499  -13.8069 O   0  0  0  0  0  0  0  0  0  0  0  0
  2  1  1  1
  2  3  1  0
  4  2  1  0
  5  4  1  0
  5  7  1  0
  5  6  1  6
  7  8  2  0
  7  9  1  0
  9 10  1  0
 10 11  1  6
 11 12  1  0
 13 10  1  0
 13 15  1  0
 14 13  2  0
 15 16  1  0
 17 16  1  0
 18 17  1  0
 19 18  1  0
 19 15  1  0
 19 20  1  6
 20 22  1  0
 21 20  2  0
M  END
$$$$
