LCP.pdb
     RDKit          3D

 22 22  0  0  1  0  0  0  0  0999 V2000
   19.0174  -13.1667  -20.1851 C   0  0  0  0  0  0  0  0  0  0  0  0
   17.9071  -13.6004  -19.2422 C   0  0  2  0  0  0  0  0  0  0  0  0
   16.6036  -13.4596  -20.0304 C   0  0  0  0  0  0  0  0  0  0  0  0
   17.7911  -12.6711  -18.0571 C   0  0  0  0  0  0  0  0  0  0  0  0
   19.0731  -12.7396  -17.2843 C   0  0  2  0  0  0  0  0  0  0  0  0
   19.1640  -14.0115  -16.6235 N   0  0  0  0  0  0  0  0  0  0  0  0
   19.1719  -11.6527  -16.2720 C   0  0  0  0  0  0  0  0  0  0  0  0
   18.4878  -11.6783  -15.2092 O   0  0  0  0  0  0  0  0  0  0  0  0
   20.0306  -10.5632  -16.4685 N   0  0  0  0  0  0  0  0  0  0  0  0
   20.0792   -9.4105  -15.5313 C   0  0  1  0  0  0  0  0  0  0  0  0
   21.5011   -9.4966  -14.9788 C   0  0  0  0  0  0  0  0  0  0  0  0
   21.8354   -8.0914  -13.8756 S   0  0  0  0  0  0  0  0  0  0  0  0
   19.8923   -8.1553  -16.2633 C   0  0  0  0  0  0  0  0  0  0  0  0
   20.9113   -7.9006  -17.0549 O   0  0  0  0  0  0  0  0  0  0  0  0
   18.8324   -7.2406  -16.2330 N   0  0  0  0  0  0  0  0  0  0  0  0
   17.4836   -7.7408  -15.7748 C   0  0  0  0  0  0  0  0  0  0  0  0
   17.2461   -6.7475  -14.6616 C   0  0  0  0  0  0  0  0  0  0  0  0
   17.9176   -5.4722  -15.1024 C   0  0  0  0  0  0  0  0  0  0  0  0
   18.4897   -5.9001  -16.4737 C   0  0  1  0  0  0  0  0  0  0  0  0
   19.3863   -4.9182  -16.9804 C   0  0  0  0  0  0  0  0  0  0  0  0
   19.1047   -3.9900  -17.7201 O   0  0  0  0  0  0  0  0  0  0  0  0
   20.7470   -5.0052  -16.6028 O   0  0  0  0  0  0  0  0  0  0  0  0
  2  1  1  6
  2  3  1  0
  4  2  1  0
  5  4  1  0
  5  7  1  0
  5  6  1  1
  7  8  2  0
  7  9  1  0
  9 10  1  0
 10 11  1  6
 11 12  1  0
 13 10  1  0
 13 15  1  0
 14 13  2  0
 15 16  1  0
 17 16  1  0
 18 17  1  0
 19 18  1  0
 19 15  1  0
 19 20  1  1
 20 22  1  0
 21 20  2  0
M  END
$$$$
