LCP.pdb
     RDKit          3D

 22 22  0  0  1  0  0  0  0  0999 V2000
   18.3037  -11.1861  -20.0162 C   0  0  0  0  0  0  0  0  0  0  0  0
   17.5317  -11.5661  -18.7633 C   0  0  2  0  0  0  0  0  0  0  0  0
   16.2170  -10.7862  -18.8237 C   0  0  0  0  0  0  0  0  0  0  0  0
   18.2430  -11.1065  -17.5126 C   0  0  0  0  0  0  0  0  0  0  0  0
   19.5153  -11.8881  -17.3866 C   0  0  2  0  0  0  0  0  0  0  0  0
   19.2083  -13.2431  -17.0229 N   0  0  0  0  0  0  0  0  0  0  0  0
   20.4301  -11.3022  -16.3688 C   0  0  0  0  0  0  0  0  0  0  0  0
   20.6316  -11.8722  -15.2585 O   0  0  0  0  0  0  0  0  0  0  0  0
   21.0985  -10.0953  -16.6129 N   0  0  0  0  0  0  0  0  0  0  0  0
   22.1030   -9.5382  -15.6695 C   0  0  1  0  0  0  0  0  0  0  0  0
   23.3888  -10.2367  -16.1092 C   0  0  0  0  0  0  0  0  0  0  0  0
   24.7978   -9.6403  -15.1282 S   0  0  0  0  0  0  0  0  0  0  0  0
   22.2214   -8.0897  -15.8541 C   0  0  0  0  0  0  0  0  0  0  0  0
   22.7828   -7.7931  -17.0059 O   0  0  0  0  0  0  0  0  0  0  0  0
   21.8387   -7.0372  -15.0134 N   0  0  0  0  0  0  0  0  0  0  0  0
   20.9072   -7.3539  -13.8683 C   0  0  0  0  0  0  0  0  0  0  0  0
   21.7533   -6.8135  -12.7393 C   0  0  0  0  0  0  0  0  0  0  0  0
   22.5167   -5.6516  -13.3214 C   0  0  0  0  0  0  0  0  0  0  0  0
   22.0013   -5.6621  -14.7791 C   0  0  1  0  0  0  0  0  0  0  0  0
   22.7728   -4.7912  -15.5984 C   0  0  0  0  0  0  0  0  0  0  0  0
   23.6446   -5.1179  -16.3865 O   0  0  0  0  0  0  0  0  0  0  0  0
   22.5224   -3.4016  -15.5085 O   0  0  0  0  0  0  0  0  0  0  0  0
  2  1  1  6
  2  3  1  0
  4  2  1  0
  5  4  1  0
  5  7  1  0
  5  6  1  1
  7  8  2  0
  7  9  1  0
  9 10  1  0
 10 11  1  6
 11 12  1  0
 13 10  1  0
 13 15  1  0
 14 13  2  0
 15 16  1  0
 17 16  1  0
 18 17  1  0
 19 18  1  0
 19 15  1  0
 19 20  1  6
 20 22  1  0
 21 20  2  0
M  END
$$$$
