GTV.pdb
     RDKit          3D

 19 18  0  0  1  0  0  0  0  0999 V2000
   26.7866  -10.4580  -18.3712 N   0  0  0  0  0  0  0  0  0  0  0  0
   27.8603   -9.4882  -18.3983 C   0  0  0  0  0  0  0  0  0  0  0  0
   29.1387  -10.1254  -18.0372 C   0  0  0  0  0  0  0  0  0  0  0  0
   29.1456  -11.3220  -17.6601 O   0  0  0  0  0  0  0  0  0  0  0  0
   31.6082  -11.4457  -19.9057 C   0  0  0  0  0  0  0  0  0  0  0  0
   32.3436  -10.4085  -19.1065 C   0  0  1  0  0  0  0  0  0  0  0  0
   32.6151   -9.3179  -19.8923 O   0  0  0  0  0  0  0  0  0  0  0  0
   31.6237  -10.0236  -17.8335 C   0  0  2  0  0  0  0  0  0  0  0  0
   30.3580   -9.4099  -18.1091 N   0  0  0  0  0  0  0  0  0  0  0  0
   32.4237   -9.1659  -16.9343 C   0  0  0  0  0  0  0  0  0  0  0  0
   31.8993   -8.1150  -16.4920 O   0  0  0  0  0  0  0  0  0  0  0  0
   34.9592  -10.4904  -14.0555 C   0  0  0  0  0  0  0  0  0  0  0  0
   35.5478   -9.3542  -14.8626 C   0  0  2  0  0  0  0  0  0  0  0  0
   36.3157   -8.4041  -13.9855 C   0  0  0  0  0  0  0  0  0  0  0  0
   34.4520   -8.5789  -15.5902 C   0  0  2  0  0  0  0  0  0  0  0  0
   33.7537   -9.4448  -16.5289 N   0  0  0  0  0  0  0  0  0  0  0  0
   35.1157   -7.4787  -16.3199 C   0  0  0  0  0  0  0  0  0  0  0  0
   35.2491   -6.2538  -15.6968 O   0  0  0  0  0  0  0  0  0  0  0  0
   35.5617   -7.6157  -17.4821 O   0  0  0  0  0  0  0  0  0  0  0  0
  2  1  1  0
  3  2  1  0
  3  4  2  0
  6  5  1  6
  6  8  1  0
  7  6  1  0
  8  9  1  6
  9  3  1  0
 10  8  1  0
 11 10  2  0
 13 12  1  1
 13 14  1  0
 15 13  1  0
 15 16  1  6
 16 10  1  0
 17 15  1  0
 18 17  1  0
 19 17  2  0
M  END
$$$$
