GTV.pdb
     RDKit          3D

 19 18  0  0  1  0  0  0  0  0999 V2000
   23.9741  -17.8791  -18.4427 N   0  0  0  0  0  0  0  0  0  0  0  0
   24.4740  -17.4746  -17.1463 C   0  0  0  0  0  0  0  0  0  0  0  0
   24.8399  -18.6552  -16.3445 C   0  0  0  0  0  0  0  0  0  0  0  0
   23.9880  -19.5552  -16.1490 O   0  0  0  0  0  0  0  0  0  0  0  0
   28.4324  -21.3281  -14.1953 C   0  0  0  0  0  0  0  0  0  0  0  0
   27.9909  -20.2039  -15.0878 C   0  0  1  0  0  0  0  0  0  0  0  0
   28.3738  -20.4549  -16.3806 O   0  0  0  0  0  0  0  0  0  0  0  0
   26.5108  -19.9123  -14.9825 C   0  0  2  0  0  0  0  0  0  0  0  0
   26.1361  -18.7901  -15.7917 N   0  0  0  0  0  0  0  0  0  0  0  0
   26.0395  -19.7229  -13.5946 C   0  0  0  0  0  0  0  0  0  0  0  0
   26.3692  -18.6725  -12.9923 O   0  0  0  0  0  0  0  0  0  0  0  0
   22.8868  -21.9722  -11.7399 C   0  0  0  0  0  0  0  0  0  0  0  0
   23.3002  -20.5615  -11.3822 C   0  0  2  0  0  0  0  0  0  0  0  0
   22.6129  -19.5534  -12.2613 C   0  0  0  0  0  0  0  0  0  0  0  0
   24.8109  -20.3863  -11.5172 C   0  0  2  0  0  0  0  0  0  0  0  0
   25.2334  -20.6490  -12.8851 N   0  0  0  0  0  0  0  0  0  0  0  0
   25.4404  -21.3601  -10.6013 C   0  0  0  0  0  0  0  0  0  0  0  0
   26.0821  -22.4584  -11.1382 O   0  0  0  0  0  0  0  0  0  0  0  0
   25.4136  -21.2264   -9.3563 O   0  0  0  0  0  0  0  0  0  0  0  0
  2  1  1  0
  3  2  1  0
  3  4  2  0
  6  5  1  1
  6  8  1  0
  7  6  1  0
  8  9  1  6
  9  3  1  0
 10  8  1  0
 11 10  2  0
 13 12  1  6
 13 14  1  0
 15 13  1  0
 15 16  1  6
 16 10  1  0
 17 15  1  0
 18 17  1  0
 19 17  2  0
M  END
$$$$
