GTV.pdb
     RDKit          3D

 19 18  0  0  1  0  0  0  0  0999 V2000
   27.8559  -27.6334  -16.8103 N   0  0  0  0  0  0  0  0  0  0  0  0
   26.7668  -26.7101  -17.0458 C   0  0  0  0  0  0  0  0  0  0  0  0
   27.0953  -25.3786  -16.5075 C   0  0  0  0  0  0  0  0  0  0  0  0
   28.1170  -24.7810  -16.9235 O   0  0  0  0  0  0  0  0  0  0  0  0
   26.8263  -22.8695  -17.7282 C   0  0  0  0  0  0  0  0  0  0  0  0
   25.8838  -22.6055  -16.5892 C   0  0  1  0  0  0  0  0  0  0  0  0
   24.5959  -22.8757  -16.9753 O   0  0  0  0  0  0  0  0  0  0  0  0
   26.2626  -23.3447  -15.3255 C   0  0  2  0  0  0  0  0  0  0  0  0
   26.2775  -24.7634  -15.5295 N   0  0  0  0  0  0  0  0  0  0  0  0
   25.4181  -23.0036  -14.1615 C   0  0  0  0  0  0  0  0  0  0  0  0
   24.3993  -23.7021  -13.9403 O   0  0  0  0  0  0  0  0  0  0  0  0
   24.7939  -20.8910   -9.7344 C   0  0  0  0  0  0  0  0  0  0  0  0
   25.6688  -21.1863  -10.9327 C   0  0  2  0  0  0  0  0  0  0  0  0
   26.4131  -19.9582  -11.3792 C   0  0  0  0  0  0  0  0  0  0  0  0
   24.8348  -21.7102  -12.0995 C   0  0  2  0  0  0  0  0  0  0  0  0
   25.6762  -21.9350  -13.2657 N   0  0  0  0  0  0  0  0  0  0  0  0
   23.8222  -20.6775  -12.4021 C   0  0  0  0  0  0  0  0  0  0  0  0
   22.7530  -20.5236  -11.5423 O   0  0  0  0  0  0  0  0  0  0  0  0
   23.8976  -19.9370  -13.4092 O   0  0  0  0  0  0  0  0  0  0  0  0
  2  1  1  0
  3  2  1  0
  3  4  2  0
  6  5  1  6
  6  8  1  0
  7  6  1  0
  8  9  1  6
  9  3  1  0
 10  8  1  0
 11 10  2  0
 13 12  1  1
 13 14  1  0
 15 13  1  0
 15 16  1  6
 16 10  1  0
 17 15  1  0
 18 17  1  0
 19 17  2  0
M  END
$$$$
