GTV.pdb
     RDKit          3D

 19 18  0  0  1  0  0  0  0  0999 V2000
   19.2781  -13.0455  -17.4883 N   0  0  0  0  0  0  0  0  0  0  0  0
   19.3568  -11.6197  -17.7229 C   0  0  0  0  0  0  0  0  0  0  0  0
   19.8748  -10.9294  -16.5289 C   0  0  0  0  0  0  0  0  0  0  0  0
   19.2771  -11.0608  -15.4336 O   0  0  0  0  0  0  0  0  0  0  0  0
   22.7905  -11.4605  -14.5694 C   0  0  0  0  0  0  0  0  0  0  0  0
   22.8978  -10.0353  -15.0302 C   0  0  1  0  0  0  0  0  0  0  0  0
   23.8398   -9.9338  -16.0218 O   0  0  0  0  0  0  0  0  0  0  0  0
   21.5689   -9.4485  -15.4500 C   0  0  2  0  0  0  0  0  0  0  0  0
   21.0349  -10.1211  -16.5976 N   0  0  0  0  0  0  0  0  0  0  0  0
   21.6107   -7.9899  -15.6849 C   0  0  0  0  0  0  0  0  0  0  0  0
   21.9435   -7.5797  -16.8233 O   0  0  0  0  0  0  0  0  0  0  0  0
   19.1128   -5.4578  -16.0048 C   0  0  0  0  0  0  0  0  0  0  0  0
   20.0351   -4.9212  -14.9322 C   0  0  2  0  0  0  0  0  0  0  0  0
   20.2100   -3.4330  -15.0594 C   0  0  0  0  0  0  0  0  0  0  0  0
   21.4063   -5.5883  -15.0099 C   0  0  2  0  0  0  0  0  0  0  0  0
   21.2989   -7.0085  -14.7099 N   0  0  0  0  0  0  0  0  0  0  0  0
   22.2642   -4.9261  -14.0054 C   0  0  0  0  0  0  0  0  0  0  0  0
   22.9370   -3.7745  -14.3621 O   0  0  0  0  0  0  0  0  0  0  0  0
   22.4037   -5.3705  -12.8429 O   0  0  0  0  0  0  0  0  0  0  0  0
  2  1  1  0
  3  2  1  0
  3  4  2  0
  6  5  1  6
  6  8  1  0
  7  6  1  0
  8  9  1  6
  9  3  1  0
 10  8  1  0
 11 10  2  0
 13 12  1  6
 13 14  1  0
 15 13  1  0
 15 16  1  1
 16 10  1  0
 17 15  1  0
 18 17  1  0
 19 17  2  0
M  END
$$$$
