GTV.pdb
     RDKit          3D

 19 18  0  0  1  0  0  0  0  0999 V2000
   14.6663  -13.5330  -13.6377 N   0  0  0  0  0  0  0  0  0  0  0  0
   14.4515  -12.1048  -13.7289 C   0  0  0  0  0  0  0  0  0  0  0  0
   15.1491  -11.4085  -12.6339 C   0  0  0  0  0  0  0  0  0  0  0  0
   15.3458  -12.0077  -11.5494 O   0  0  0  0  0  0  0  0  0  0  0  0
   18.5658  -10.0778  -12.5279 C   0  0  0  0  0  0  0  0  0  0  0  0
   17.6628   -8.9302  -12.1775 C   0  0  1  0  0  0  0  0  0  0  0  0
   17.6080   -8.0424  -13.2214 O   0  0  0  0  0  0  0  0  0  0  0  0
   16.2853   -9.3746  -11.7397 C   0  0  2  0  0  0  0  0  0  0  0  0
   15.6006  -10.0754  -12.7859 N   0  0  0  0  0  0  0  0  0  0  0  0
   15.4426   -8.2760  -11.2226 C   0  0  0  0  0  0  0  0  0  0  0  0
   14.5792   -7.7786  -11.9855 O   0  0  0  0  0  0  0  0  0  0  0  0
   13.6951   -5.3730   -7.5987 C   0  0  0  0  0  0  0  0  0  0  0  0
   14.4913   -6.5888   -8.0193 C   0  0  2  0  0  0  0  0  0  0  0  0
   15.8060   -6.6567   -7.2924 C   0  0  0  0  0  0  0  0  0  0  0  0
   14.7582   -6.5712   -9.5225 C   0  0  2  0  0  0  0  0  0  0  0  0
   15.5373   -7.7364   -9.9147 N   0  0  0  0  0  0  0  0  0  0  0  0
   15.5196   -5.3379   -9.8098 C   0  0  0  0  0  0  0  0  0  0  0  0
   14.8299   -4.1513   -9.9602 O   0  0  0  0  0  0  0  0  0  0  0  0
   16.7669   -5.3287   -9.9218 O   0  0  0  0  0  0  0  0  0  0  0  0
  2  1  1  0
  3  2  1  0
  3  4  2  0
  6  5  1  6
  6  8  1  0
  7  6  1  0
  8  9  1  6
  9  3  1  0
 10  8  1  0
 11 10  2  0
 13 12  1  1
 13 14  1  0
 15 13  1  0
 15 16  1  1
 16 10  1  0
 17 15  1  0
 18 17  1  0
 19 17  2  0
M  END
$$$$
