GTV.pdb
     RDKit          3D

 19 18  0  0  1  0  0  0  0  0999 V2000
   25.6720  -20.5023   -8.4082 N   0  0  0  0  0  0  0  0  0  0  0  0
   24.8395  -20.9028   -9.5221 C   0  0  0  0  0  0  0  0  0  0  0  0
   25.5392  -20.6699  -10.7975 C   0  0  0  0  0  0  0  0  0  0  0  0
   26.7855  -20.8051  -10.8500 O   0  0  0  0  0  0  0  0  0  0  0  0
   25.6526  -22.6618  -13.5571 C   0  0  0  0  0  0  0  0  0  0  0  0
   25.1615  -21.3627  -14.1284 C   0  0  1  0  0  0  0  0  0  0  0  0
   23.8250  -21.4561  -14.4217 O   0  0  0  0  0  0  0  0  0  0  0  0
   25.4647  -20.1754  -13.2423 C   0  0  2  0  0  0  0  0  0  0  0  0
   24.8287  -20.2965  -11.9635 N   0  0  0  0  0  0  0  0  0  0  0  0
   25.1324  -18.8737  -13.8583 C   0  0  0  0  0  0  0  0  0  0  0  0
   24.0924  -18.2834  -13.4777 O   0  0  0  0  0  0  0  0  0  0  0  0
   26.3867  -14.6344  -15.9287 C   0  0  0  0  0  0  0  0  0  0  0  0
   26.7712  -16.0253  -15.4743 C   0  0  2  0  0  0  0  0  0  0  0  0
   27.7580  -16.6533  -16.4195 C   0  0  0  0  0  0  0  0  0  0  0  0
   25.5414  -16.9246  -15.3745 C   0  0  2  0  0  0  0  0  0  0  0  0
   25.9095  -18.2345  -14.8575 N   0  0  0  0  0  0  0  0  0  0  0  0
   24.9950  -17.0593  -16.7408 C   0  0  0  0  0  0  0  0  0  0  0  0
   24.2919  -16.0016  -17.2823 O   0  0  0  0  0  0  0  0  0  0  0  0
   25.1459  -18.0968  -17.4258 O   0  0  0  0  0  0  0  0  0  0  0  0
  2  1  1  0
  3  2  1  0
  3  4  2  0
  6  5  1  1
  6  8  1  0
  7  6  1  0
  8  9  1  1
  9  3  1  0
 10  8  1  0
 11 10  2  0
 13 12  1  6
 13 14  1  0
 15 13  1  0
 15 16  1  6
 16 10  1  0
 17 15  1  0
 18 17  1  0
 19 17  2  0
M  END
$$$$
