GTV.pdb
     RDKit          3D

 19 18  0  0  1  0  0  0  0  0999 V2000
   29.8852  -21.4709  -10.6551 N   0  0  0  0  0  0  0  0  0  0  0  0
   28.5973  -20.8190  -10.5516 C   0  0  0  0  0  0  0  0  0  0  0  0
   27.8954  -20.8576  -11.8464 C   0  0  0  0  0  0  0  0  0  0  0  0
   28.5025  -21.2697  -12.8641 O   0  0  0  0  0  0  0  0  0  0  0  0
   25.2321  -23.0040  -12.7324 C   0  0  0  0  0  0  0  0  0  0  0  0
   24.7032  -21.6274  -13.0158 C   0  0  1  0  0  0  0  0  0  0  0  0
   23.7917  -21.2695  -12.0557 O   0  0  0  0  0  0  0  0  0  0  0  0
   25.7969  -20.5946  -13.1708 C   0  0  2  0  0  0  0  0  0  0  0  0
   26.5484  -20.4376  -11.9604 N   0  0  0  0  0  0  0  0  0  0  0  0
   25.3119  -19.2820  -13.6463 C   0  0  0  0  0  0  0  0  0  0  0  0
   24.8097  -18.4940  -12.8086 O   0  0  0  0  0  0  0  0  0  0  0  0
   26.6074  -17.2687  -17.0725 C   0  0  0  0  0  0  0  0  0  0  0  0
   25.8367  -16.6291  -15.9386 C   0  0  2  0  0  0  0  0  0  0  0  0
   26.7520  -16.2362  -14.8118 C   0  0  0  0  0  0  0  0  0  0  0  0
   24.7706  -17.5804  -15.4004 C   0  0  2  0  0  0  0  0  0  0  0  0
   25.3728  -18.8412  -14.9928 N   0  0  0  0  0  0  0  0  0  0  0  0
   23.8093  -17.8143  -16.4979 C   0  0  0  0  0  0  0  0  0  0  0  0
   22.9975  -16.7736  -16.9030 O   0  0  0  0  0  0  0  0  0  0  0  0
   23.7035  -18.9211  -17.0743 O   0  0  0  0  0  0  0  0  0  0  0  0
  2  1  1  0
  3  2  1  0
  3  4  2  0
  6  5  1  1
  6  8  1  0
  7  6  1  0
  8  9  1  1
  9  3  1  0
 10  8  1  0
 11 10  2  0
 13 12  1  6
 13 14  1  0
 15 13  1  0
 15 16  1  6
 16 10  1  0
 17 15  1  0
 18 17  1  0
 19 17  2  0
M  END
$$$$
