GTV.pdb
     RDKit          3D

 19 18  0  0  1  0  0  0  0  0999 V2000
   18.5821  -12.6926  -18.1089 N   0  0  0  0  0  0  0  0  0  0  0  0
   18.7670  -11.2601  -18.1983 C   0  0  0  0  0  0  0  0  0  0  0  0
   19.4378  -10.7513  -16.9893 C   0  0  0  0  0  0  0  0  0  0  0  0
   18.8244  -10.7594  -15.8949 O   0  0  0  0  0  0  0  0  0  0  0  0
   23.5196  -10.2195  -14.4629 C   0  0  0  0  0  0  0  0  0  0  0  0
   22.7044  -10.6823  -15.6362 C   0  0  1  0  0  0  0  0  0  0  0  0
   22.3968  -12.0115  -15.4971 O   0  0  0  0  0  0  0  0  0  0  0  0
   21.4719   -9.8376  -15.8691 C   0  0  2  0  0  0  0  0  0  0  0  0
   20.7621  -10.2540  -17.0427 N   0  0  0  0  0  0  0  0  0  0  0  0
   21.7475   -8.3867  -15.9252 C   0  0  0  0  0  0  0  0  0  0  0  0
   22.4018   -7.9424  -16.8996 O   0  0  0  0  0  0  0  0  0  0  0  0
   19.3856   -5.4235  -14.2645 C   0  0  0  0  0  0  0  0  0  0  0  0
   20.4386   -5.1948  -15.3265 C   0  0  2  0  0  0  0  0  0  0  0  0
   19.9129   -5.5289  -16.6952 C   0  0  0  0  0  0  0  0  0  0  0  0
   21.6796   -6.0413  -15.0536 C   0  0  2  0  0  0  0  0  0  0  0  0
   21.3229   -7.4487  -14.9502 N   0  0  0  0  0  0  0  0  0  0  0  0
   22.2475   -5.5716  -13.7729 C   0  0  0  0  0  0  0  0  0  0  0  0
   22.9321   -4.3728  -13.7497 O   0  0  0  0  0  0  0  0  0  0  0  0
   22.1312   -6.2202  -12.7079 O   0  0  0  0  0  0  0  0  0  0  0  0
  2  1  1  0
  3  2  1  0
  3  4  2  0
  6  5  1  1
  6  8  1  0
  7  6  1  0
  8  9  1  6
  9  3  1  0
 10  8  1  0
 11 10  2  0
 13 12  1  1
 13 14  1  0
 15 13  1  0
 15 16  1  1
 16 10  1  0
 17 15  1  0
 18 17  1  0
 19 17  2  0
M  END
$$$$
