GTV.pdb
     RDKit          3D

 19 18  0  0  1  0  0  0  0  0999 V2000
   20.3944  -20.3956   -9.5828 N   0  0  0  0  0  0  0  0  0  0  0  0
   20.7550  -19.6727  -10.7835 C   0  0  0  0  0  0  0  0  0  0  0  0
   21.7702  -20.4182  -11.5477 C   0  0  0  0  0  0  0  0  0  0  0  0
   22.3063  -21.4304  -11.0357 O   0  0  0  0  0  0  0  0  0  0  0  0
   21.3636  -22.6394  -14.1228 C   0  0  0  0  0  0  0  0  0  0  0  0
   22.2377  -21.5725  -14.7169 C   0  0  1  0  0  0  0  0  0  0  0  0
   21.4901  -20.7470  -15.5171 O   0  0  0  0  0  0  0  0  0  0  0  0
   23.0159  -20.7991  -13.6762 C   0  0  2  0  0  0  0  0  0  0  0  0
   22.1502  -20.0110  -12.8491 N   0  0  0  0  0  0  0  0  0  0  0  0
   24.0902  -19.9564  -14.2420 C   0  0  0  0  0  0  0  0  0  0  0  0
   23.8856  -18.7228  -14.3480 O   0  0  0  0  0  0  0  0  0  0  0  0
   28.0614  -21.3022  -14.5547 C   0  0  0  0  0  0  0  0  0  0  0  0
   27.7103  -19.8353  -14.4374 C   0  0  2  0  0  0  0  0  0  0  0  0
   27.6034  -19.4146  -12.9975 C   0  0  0  0  0  0  0  0  0  0  0  0
   26.3883  -19.5342  -15.1395 C   0  0  2  0  0  0  0  0  0  0  0  0
   25.3488  -20.4426  -14.6784 N   0  0  0  0  0  0  0  0  0  0  0  0
   26.6168  -19.7254  -16.5868 C   0  0  0  0  0  0  0  0  0  0  0  0
   27.4763  -18.8667  -17.2427 O   0  0  0  0  0  0  0  0  0  0  0  0
   26.0599  -20.6370  -17.2405 O   0  0  0  0  0  0  0  0  0  0  0  0
  2  1  1  0
  3  2  1  0
  3  4  2  0
  6  5  1  1
  6  8  1  0
  7  6  1  0
  8  9  1  6
  9  3  1  0
 10  8  1  0
 11 10  2  0
 13 12  1  1
 13 14  1  0
 15 13  1  0
 15 16  1  1
 16 10  1  0
 17 15  1  0
 18 17  1  0
 19 17  2  0
M  END
$$$$
