GTV.pdb
     RDKit          3D

 19 18  0  0  1  0  0  0  0  0999 V2000
   14.0205  -12.8926  -16.2074 N   0  0  0  0  0  0  0  0  0  0  0  0
   14.7988  -12.0584  -15.3171 C   0  0  0  0  0  0  0  0  0  0  0  0
   15.9385  -11.4622  -16.0356 C   0  0  0  0  0  0  0  0  0  0  0  0
   16.0342  -11.6185  -17.2767 O   0  0  0  0  0  0  0  0  0  0  0  0
   16.2262   -9.2985  -17.8331 C   0  0  0  0  0  0  0  0  0  0  0  0
   17.1967   -8.7852  -16.8084 C   0  0  1  0  0  0  0  0  0  0  0  0
   16.5722   -7.8876  -15.9807 O   0  0  0  0  0  0  0  0  0  0  0  0
   17.8773   -9.8910  -16.0333 C   0  0  2  0  0  0  0  0  0  0  0  0
   16.9264  -10.7166  -15.3485 N   0  0  0  0  0  0  0  0  0  0  0  0
   18.9088   -9.4087  -15.0911 C   0  0  0  0  0  0  0  0  0  0  0  0
   18.5547   -9.1018  -13.9270 O   0  0  0  0  0  0  0  0  0  0  0  0
   23.1114   -9.5234  -15.8705 C   0  0  0  0  0  0  0  0  0  0  0  0
   22.5384   -9.4746  -14.4712 C   0  0  2  0  0  0  0  0  0  0  0  0
   22.2991  -10.8581  -13.9324 C   0  0  0  0  0  0  0  0  0  0  0  0
   21.2222   -8.7011  -14.4488 C   0  0  2  0  0  0  0  0  0  0  0  0
   20.2838   -9.2658  -15.4074 N   0  0  0  0  0  0  0  0  0  0  0  0
   21.5374   -7.3052  -14.8168 C   0  0  0  0  0  0  0  0  0  0  0  0
   22.1174   -6.4836  -13.8708 O   0  0  0  0  0  0  0  0  0  0  0  0
   21.2981   -6.8396  -15.9545 O   0  0  0  0  0  0  0  0  0  0  0  0
  2  1  1  0
  3  2  1  0
  3  4  2  0
  6  5  1  6
  6  8  1  0
  7  6  1  0
  8  9  1  1
  9  3  1  0
 10  8  1  0
 11 10  2  0
 13 12  1  6
 13 14  1  0
 15 13  1  0
 15 16  1  6
 16 10  1  0
 17 15  1  0
 18 17  1  0
 19 17  2  0
M  END
$$$$
