GTV.pdb
     RDKit          3D

 19 18  0  0  1  0  0  0  0  0999 V2000
   28.8283  -22.4612  -16.6269 N   0  0  0  0  0  0  0  0  0  0  0  0
   27.4742  -22.1251  -16.2425 C   0  0  0  0  0  0  0  0  0  0  0  0
   27.4797  -21.1329  -15.1535 C   0  0  0  0  0  0  0  0  0  0  0  0
   27.9076  -19.9749  -15.3774 O   0  0  0  0  0  0  0  0  0  0  0  0
   25.5250  -19.3246  -15.0816 C   0  0  0  0  0  0  0  0  0  0  0  0
   25.1626  -19.8822  -13.7351 C   0  0  1  0  0  0  0  0  0  0  0  0
   24.1067  -20.7489  -13.8564 O   0  0  0  0  0  0  0  0  0  0  0  0
   26.3362  -20.5164  -13.0229 C   0  0  2  0  0  0  0  0  0  0  0  0
   27.0104  -21.4647  -13.8598 N   0  0  0  0  0  0  0  0  0  0  0  0
   25.9818  -21.1364  -11.7289 C   0  0  0  0  0  0  0  0  0  0  0  0
   25.7820  -22.3749  -11.6973 O   0  0  0  0  0  0  0  0  0  0  0  0
   25.9262  -19.0418   -7.9277 C   0  0  0  0  0  0  0  0  0  0  0  0
   26.3022  -20.4970   -8.0998 C   0  0  2  0  0  0  0  0  0  0  0  0
   27.7779  -20.6526   -8.3448 C   0  0  0  0  0  0  0  0  0  0  0  0
   25.5393  -21.1221   -9.2653 C   0  0  2  0  0  0  0  0  0  0  0  0
   25.8499  -20.4290  -10.5070 N   0  0  0  0  0  0  0  0  0  0  0  0
   24.1001  -20.9852   -8.9600 C   0  0  0  0  0  0  0  0  0  0  0  0
   23.3257  -20.1701   -9.7614 O   0  0  0  0  0  0  0  0  0  0  0  0
   23.5566  -21.5809   -8.0018 O   0  0  0  0  0  0  0  0  0  0  0  0
  2  1  1  0
  3  2  1  0
  3  4  2  0
  6  5  1  6
  6  8  1  0
  7  6  1  0
  8  9  1  6
  9  3  1  0
 10  8  1  0
 11 10  2  0
 13 12  1  6
 13 14  1  0
 15 13  1  0
 15 16  1  6
 16 10  1  0
 17 15  1  0
 18 17  1  0
 19 17  2  0
M  END
$$$$
