GTV.pdb
     RDKit          3D

 19 18  0  0  1  0  0  0  0  0999 V2000
   15.3307  -13.7860  -16.2459 N   0  0  0  0  0  0  0  0  0  0  0  0
   15.5796  -12.3937  -15.9398 C   0  0  0  0  0  0  0  0  0  0  0  0
   16.9898  -12.0541  -16.1981 C   0  0  0  0  0  0  0  0  0  0  0  0
   17.8669  -12.9450  -16.0940 O   0  0  0  0  0  0  0  0  0  0  0  0
   18.3878  -10.8098  -19.3743 C   0  0  0  0  0  0  0  0  0  0  0  0
   18.7977   -9.8294  -18.3131 C   0  0  1  0  0  0  0  0  0  0  0  0
   18.0684   -8.6745  -18.4362 O   0  0  0  0  0  0  0  0  0  0  0  0
   18.7177  -10.4031  -16.9162 C   0  0  2  0  0  0  0  0  0  0  0  0
   17.3704  -10.7399  -16.5615 N   0  0  0  0  0  0  0  0  0  0  0  0
   19.3176   -9.5346  -15.8817 C   0  0  0  0  0  0  0  0  0  0  0  0
   18.5539   -8.8195  -15.1888 O   0  0  0  0  0  0  0  0  0  0  0  0
   23.4762   -9.5929  -14.9044 C   0  0  0  0  0  0  0  0  0  0  0  0
   22.4303   -9.1920  -13.8874 C   0  0  2  0  0  0  0  0  0  0  0  0
   21.9753  -10.3756  -13.0790 C   0  0  0  0  0  0  0  0  0  0  0  0
   21.2177   -8.5656  -14.5718 C   0  0  2  0  0  0  0  0  0  0  0  0
   20.7068   -9.4486  -15.6099 N   0  0  0  0  0  0  0  0  0  0  0  0
   21.6719   -7.2942  -15.1724 C   0  0  0  0  0  0  0  0  0  0  0  0
   21.9785   -6.2376  -14.3382 O   0  0  0  0  0  0  0  0  0  0  0  0
   21.7892   -7.1393  -16.4096 O   0  0  0  0  0  0  0  0  0  0  0  0
  2  1  1  0
  3  2  1  0
  3  4  2  0
  6  5  1  6
  6  8  1  0
  7  6  1  0
  8  9  1  1
  9  3  1  0
 10  8  1  0
 11 10  2  0
 13 12  1  6
 13 14  1  0
 15 13  1  0
 15 16  1  6
 16 10  1  0
 17 15  1  0
 18 17  1  0
 19 17  2  0
M  END
$$$$
