GVD.pdb
     RDKit          3D

 20 19  0  0  1  0  0  0  0  0999 V2000
    6.4777  -16.1309   21.2397 N   0  0  0  0  0  0  0  0  0  0  0  0
    6.0490  -16.2353   22.6047 C   0  0  0  0  0  0  0  0  0  0  0  0
    6.9313  -15.4151   23.4601 C   0  0  0  0  0  0  0  0  0  0  0  0
    8.0978  -15.1870   23.0644 O   0  0  0  0  0  0  0  0  0  0  0  0
    8.0474  -12.8061   27.5153 C   0  0  0  0  0  0  0  0  0  0  0  0
    6.9434  -13.3778   26.6351 C   0  0  1  0  0  0  0  0  0  0  0  0
    6.0717  -12.3041   26.0517 C   0  0  0  0  0  0  0  0  0  0  0  0
    7.5006  -14.3178   25.5964 C   0  0  2  0  0  0  0  0  0  0  0  0
    6.5498  -14.8630   24.7066 N   0  0  0  0  0  0  0  0  0  0  0  0
    8.2570  -15.3951   26.2694 C   0  0  0  0  0  0  0  0  0  0  0  0
    7.6356  -16.3393   26.7958 O   0  0  0  0  0  0  0  0  0  0  0  0
    9.6692  -15.3664   26.3223 N   0  0  0  0  0  0  0  0  0  0  0  0
   10.4730  -16.3631   26.9816 C   0  0  1  0  0  0  0  0  0  0  0  0
   11.8173  -16.5861   26.3319 C   0  0  0  0  0  0  0  0  0  0  0  0
   11.7415  -16.9105   24.8984 C   0  0  0  0  0  0  0  0  0  0  0  0
   10.9074  -17.7514   24.4987 O   0  0  0  0  0  0  0  0  0  0  0  0
   10.6564  -16.0921   28.4172 C   0  0  0  0  0  0  0  0  0  0  0  0
   11.1630  -17.1063   29.2138 O   0  0  0  0  0  0  0  0  0  0  0  0
   12.5782  -16.3000   23.9855 O   0  0  0  0  0  0  0  0  0  0  0  0
   10.3591  -14.9692   28.8986 O   0  0  0  0  0  0  0  0  0  0  0  0
  2  1  1  0
  3  2  1  0
  4  3  2  0
  6  8  1  0
  6  5  1  6
  7  6  1  0
  8  9  1  1
  9  3  1  0
 10  8  1  0
 10 12  1  0
 11 10  2  0
 13 17  1  0
 13 12  1  0
 13 14  1  6
 15 14  1  0
 15 19  1  0
 16 15  2  0
 17 18  1  0
 20 17  2  0
M  END
$$$$
