GVD.pdb
     RDKit          3D

 20 19  0  0  1  0  0  0  0  0999 V2000
    8.6748  -17.6989   16.3848 N   0  0  0  0  0  0  0  0  0  0  0  0
    7.9145  -17.6095   17.5980 C   0  0  0  0  0  0  0  0  0  0  0  0
    8.4782  -16.5445   18.4528 C   0  0  0  0  0  0  0  0  0  0  0  0
    9.6836  -16.2380   18.3030 O   0  0  0  0  0  0  0  0  0  0  0  0
    8.2642  -13.2184   22.1237 C   0  0  0  0  0  0  0  0  0  0  0  0
    7.5371  -13.9375   20.9947 C   0  0  1  0  0  0  0  0  0  0  0  0
    6.9976  -12.9822   19.9702 C   0  0  0  0  0  0  0  0  0  0  0  0
    8.3914  -15.0265   20.3972 C   0  0  2  0  0  0  0  0  0  0  0  0
    7.7473  -15.8386   19.4386 N   0  0  0  0  0  0  0  0  0  0  0  0
    8.9544  -15.8559   21.4838 C   0  0  0  0  0  0  0  0  0  0  0  0
    8.2470  -16.7410   22.0044 O   0  0  0  0  0  0  0  0  0  0  0  0
   10.2787  -15.6576   21.9362 N   0  0  0  0  0  0  0  0  0  0  0  0
   10.9153  -16.4610   22.9480 C   0  0  1  0  0  0  0  0  0  0  0  0
   12.3925  -16.1892   23.0987 C   0  0  0  0  0  0  0  0  0  0  0  0
   13.0631  -17.0594   24.0779 C   0  0  0  0  0  0  0  0  0  0  0  0
   12.5551  -17.2238   25.2082 O   0  0  0  0  0  0  0  0  0  0  0  0
   10.2565  -16.3555   24.2605 C   0  0  0  0  0  0  0  0  0  0  0  0
    9.9538  -17.5271   24.9355 O   0  0  0  0  0  0  0  0  0  0  0  0
   14.2470  -17.6988   23.7683 O   0  0  0  0  0  0  0  0  0  0  0  0
    9.9799  -15.2299   24.7480 O   0  0  0  0  0  0  0  0  0  0  0  0
  2  1  1  0
  3  2  1  0
  4  3  2  0
  6  8  1  0
  6  5  1  1
  7  6  1  0
  8  9  1  6
  9  3  1  0
 10  8  1  0
 10 12  1  0
 11 10  2  0
 13 17  1  0
 13 12  1  0
 13 14  1  1
 15 14  1  0
 15 19  1  0
 16 15  2  0
 17 18  1  0
 20 17  2  0
M  END
$$$$
