GVD.pdb
     RDKit          3D

 20 19  0  0  1  0  0  0  0  0999 V2000
    9.3055  -17.7437   16.7028 N   0  0  0  0  0  0  0  0  0  0  0  0
    8.2354  -17.3916   17.5909 C   0  0  0  0  0  0  0  0  0  0  0  0
    8.7597  -16.5369   18.6760 C   0  0  0  0  0  0  0  0  0  0  0  0
    9.9901  -16.5620   18.9104 O   0  0  0  0  0  0  0  0  0  0  0  0
    8.3126  -13.0643   22.1933 C   0  0  0  0  0  0  0  0  0  0  0  0
    7.6745  -13.7667   21.0018 C   0  0  1  0  0  0  0  0  0  0  0  0
    7.3112  -12.8064   19.9067 C   0  0  0  0  0  0  0  0  0  0  0  0
    8.5234  -14.9170   20.5232 C   0  0  2  0  0  0  0  0  0  0  0  0
    7.9642  -15.6833   19.4777 N   0  0  0  0  0  0  0  0  0  0  0  0
    8.8657  -15.7816   21.6726 C   0  0  0  0  0  0  0  0  0  0  0  0
    8.0252  -16.6030   22.0893 O   0  0  0  0  0  0  0  0  0  0  0  0
   10.1283  -15.6876   22.3008 N   0  0  0  0  0  0  0  0  0  0  0  0
   10.5263  -16.4789   23.4365 C   0  0  1  0  0  0  0  0  0  0  0  0
   12.0184  -16.5080   23.6634 C   0  0  0  0  0  0  0  0  0  0  0  0
   12.7985  -16.8517   22.4637 C   0  0  0  0  0  0  0  0  0  0  0  0
   12.4407  -17.8125   21.7486 O   0  0  0  0  0  0  0  0  0  0  0  0
    9.8447  -16.0795   24.6790 C   0  0  0  0  0  0  0  0  0  0  0  0
    9.7702  -17.0031   25.7091 O   0  0  0  0  0  0  0  0  0  0  0  0
   13.9216  -16.1289   22.1141 O   0  0  0  0  0  0  0  0  0  0  0  0
    9.3469  -14.9305   24.7938 O   0  0  0  0  0  0  0  0  0  0  0  0
  2  1  1  0
  3  2  1  0
  4  3  2  0
  6  8  1  0
  6  5  1  1
  7  6  1  0
  8  9  1  6
  9  3  1  0
 10  8  1  0
 10 12  1  0
 11 10  2  0
 13 17  1  0
 13 12  1  0
 13 14  1  1
 15 14  1  0
 15 19  1  0
 16 15  2  0
 17 18  1  0
 20 17  2  0
M  END
$$$$
