GVD.pdb
     RDKit          3D

 20 19  0  0  1  0  0  0  0  0999 V2000
    9.0536  -17.6901   16.5059 N   0  0  0  0  0  0  0  0  0  0  0  0
    8.0770  -17.4683   17.5330 C   0  0  0  0  0  0  0  0  0  0  0  0
    8.5768  -16.4431   18.4720 C   0  0  0  0  0  0  0  0  0  0  0  0
    9.8022  -16.1824   18.4701 O   0  0  0  0  0  0  0  0  0  0  0  0
    8.0855  -13.0734   22.0664 C   0  0  0  0  0  0  0  0  0  0  0  0
    7.4615  -13.7864   20.8737 C   0  0  1  0  0  0  0  0  0  0  0  0
    7.1009  -12.8346   19.7705 C   0  0  0  0  0  0  0  0  0  0  0  0
    8.3216  -14.9339   20.4084 C   0  0  2  0  0  0  0  0  0  0  0  0
    7.7631  -15.7270   19.3827 N   0  0  0  0  0  0  0  0  0  0  0  0
    8.6864  -15.7722   21.5703 C   0  0  0  0  0  0  0  0  0  0  0  0
    7.8139  -16.4831   22.1071 O   0  0  0  0  0  0  0  0  0  0  0  0
   10.0061  -15.7764   22.0763 N   0  0  0  0  0  0  0  0  0  0  0  0
   10.4272  -16.5324   23.2276 C   0  0  1  0  0  0  0  0  0  0  0  0
   11.9201  -16.5181   23.4505 C   0  0  0  0  0  0  0  0  0  0  0  0
   12.4245  -17.6846   24.1926 C   0  0  0  0  0  0  0  0  0  0  0  0
   11.9065  -18.8068   24.0058 O   0  0  0  0  0  0  0  0  0  0  0  0
    9.7386  -16.1238   24.4633 C   0  0  0  0  0  0  0  0  0  0  0  0
    9.1110  -17.1035   25.2157 O   0  0  0  0  0  0  0  0  0  0  0  0
   13.4628  -17.5599   25.0941 O   0  0  0  0  0  0  0  0  0  0  0  0
    9.7254  -14.9177   24.8185 O   0  0  0  0  0  0  0  0  0  0  0  0
  2  1  1  0
  3  2  1  0
  4  3  2  0
  6  8  1  0
  6  5  1  1
  7  6  1  0
  8  9  1  6
  9  3  1  0
 10  8  1  0
 10 12  1  0
 11 10  2  0
 13 17  1  0
 13 12  1  0
 13 14  1  1
 15 14  1  0
 15 19  1  0
 16 15  2  0
 17 18  1  0
 20 17  2  0
M  END
$$$$
