GVD.pdb
     RDKit          3D

 20 19  0  0  1  0  0  0  0  0999 V2000
    6.7894  -17.7255   22.3037 N   0  0  0  0  0  0  0  0  0  0  0  0
    6.0560  -16.9560   23.2670 C   0  0  0  0  0  0  0  0  0  0  0  0
    6.9790  -16.0405   23.9688 C   0  0  0  0  0  0  0  0  0  0  0  0
    8.2114  -16.2156   23.8274 O   0  0  0  0  0  0  0  0  0  0  0  0
    7.0132  -11.9848   24.7360 C   0  0  0  0  0  0  0  0  0  0  0  0
    7.0877  -12.8666   25.9759 C   0  0  1  0  0  0  0  0  0  0  0  0
    5.8351  -12.7919   26.7996 C   0  0  0  0  0  0  0  0  0  0  0  0
    7.4810  -14.2785   25.6228 C   0  0  2  0  0  0  0  0  0  0  0  0
    6.5672  -14.9691   24.7976 N   0  0  0  0  0  0  0  0  0  0  0  0
    7.7338  -15.0394   26.8650 C   0  0  0  0  0  0  0  0  0  0  0  0
    6.9187  -15.9130   27.2214 O   0  0  0  0  0  0  0  0  0  0  0  0
    8.8832  -14.7885   27.6485 N   0  0  0  0  0  0  0  0  0  0  0  0
    9.6149  -15.8062   28.3578 C   0  0  1  0  0  0  0  0  0  0  0  0
   10.2077  -16.8650   27.4599 C   0  0  0  0  0  0  0  0  0  0  0  0
   10.9742  -17.8962   28.1777 C   0  0  0  0  0  0  0  0  0  0  0  0
   10.4586  -18.4809   29.1549 O   0  0  0  0  0  0  0  0  0  0  0  0
   10.6644  -15.2531   29.2301 C   0  0  0  0  0  0  0  0  0  0  0  0
   10.9535  -13.9020   29.1280 O   0  0  0  0  0  0  0  0  0  0  0  0
   12.2564  -18.2293   27.7888 O   0  0  0  0  0  0  0  0  0  0  0  0
   11.2761  -15.9932   30.0420 O   0  0  0  0  0  0  0  0  0  0  0  0
  2  1  1  0
  3  2  1  0
  4  3  2  0
  6  8  1  0
  6  5  1  6
  7  6  1  0
  8  9  1  1
  9  3  1  0
 10  8  1  0
 10 12  1  0
 11 10  2  0
 13 17  1  0
 13 12  1  0
 13 14  1  6
 15 14  1  0
 15 19  1  0
 16 15  2  0
 17 18  1  0
 20 17  2  0
M  END
$$$$
