YKN.pdb
     RDKit          3D

 30 30  0  0  1  0  0  0  0  0999 V2000
   23.8574   -8.9712  -23.0681 O   0  0  0  0  0  0  0  0  0  0  0  0
   23.7893   -8.8965  -21.6812 C   0  0  0  0  0  0  0  0  0  0  0  0
   23.0348   -7.9391  -21.0295 C   0  0  0  0  0  0  0  0  0  0  0  0
   22.9481   -7.8399  -19.6650 C   0  0  0  0  0  0  0  0  0  0  0  0
   23.6587   -8.7536  -18.9028 C   0  0  0  0  0  0  0  0  0  0  0  0
   23.6113   -8.7070  -17.4127 C   0  0  0  0  0  0  0  0  0  0  0  0
   22.6799   -9.7578  -16.8899 C   0  0  2  0  0  0  0  0  0  0  0  0
   22.3949  -10.7263  -17.9020 N   0  0  0  0  0  0  0  0  0  0  0  0
   21.4330   -9.0692  -16.4081 C   0  0  0  0  0  0  0  0  0  0  0  0
   20.4584   -8.9039  -17.1750 O   0  0  0  0  0  0  0  0  0  0  0  0
   24.4278   -9.7300  -19.5172 C   0  0  0  0  0  0  0  0  0  0  0  0
   24.4842   -9.7903  -20.8933 C   0  0  0  0  0  0  0  0  0  0  0  0
   21.3478   -8.6005  -15.0817 N   0  0  0  0  0  0  0  0  0  0  0  0
   20.2779   -7.9572  -14.4205 C   0  0  1  0  0  0  0  0  0  0  0  0
   19.8224   -8.5725  -13.1053 C   0  0  0  0  0  0  0  0  0  0  0  0
   18.5907   -7.9972  -12.5205 C   0  0  0  0  0  0  0  0  0  0  0  0
   18.1819   -8.6196  -11.1946 C   0  0  0  0  0  0  0  0  0  0  0  0
   16.9993   -7.7905  -10.6591 C   0  0  0  0  0  0  0  0  0  0  0  0
   16.5430   -8.3094   -9.4074 N   0  0  0  0  0  0  0  0  0  0  0  0
   20.3445   -6.5069  -14.2838 C   0  0  0  0  0  0  0  0  0  0  0  0
   21.3795   -5.9624  -13.7869 O   0  0  0  0  0  0  0  0  0  0  0  0
   20.9881   -2.2595  -13.6057 N   0  0  0  0  0  0  0  0  0  0  0  0
   21.4465   -2.7189  -14.8626 C   0  0  0  0  0  0  0  0  0  0  0  0
   22.4848   -2.2484  -15.4064 O   0  0  0  0  0  0  0  0  0  0  0  0
   20.6977   -3.7814  -15.5736 C   0  0  0  0  0  0  0  0  0  0  0  0
   19.5062   -4.1685  -14.7299 C   0  0  2  0  0  0  0  0  0  0  0  0
   19.3154   -5.5994  -14.6703 N   0  0  0  0  0  0  0  0  0  0  0  0
   18.2607   -3.5697  -15.2713 C   0  0  0  0  0  0  0  0  0  0  0  0
   17.4615   -4.2296  -15.9818 O   0  0  0  0  0  0  0  0  0  0  0  0
   17.9092   -2.2401  -15.0202 O   0  0  0  0  0  0  0  0  0  0  0  0
  2  1  1  0
  3  2  2  0
  4  3  1  0
  5 11  1  0
  5  4  2  0
  6  5  1  0
  7  6  1  0
  7  9  1  0
  7  8  1  6
  9 10  2  0
 11 12  2  0
 12  2  1  0
 13  9  1  0
 13 14  1  0
 14 15  1  1
 15 16  1  0
 16 17  1  0
 17 18  1  0
 18 19  1  0
 20 14  1  0
 20 21  2  0
 22 23  1  0
 23 25  1  0
 24 23  2  0
 26 25  1  6
 26 27  1  0
 27 20  1  0
 28 30  1  0
 28 26  1  0
 29 28  2  0
M  END
$$$$
