YKN.pdb
     RDKit          3D

 30 30  0  0  1  0  0  0  0  0999 V2000
   24.7318  -13.4167  -22.8910 O   0  0  0  0  0  0  0  0  0  0  0  0
   24.2724  -14.3801  -21.9997 C   0  0  0  0  0  0  0  0  0  0  0  0
   24.6759  -14.4156  -20.6781 C   0  0  0  0  0  0  0  0  0  0  0  0
   24.2413  -15.3520  -19.7763 C   0  0  0  0  0  0  0  0  0  0  0  0
   23.3479  -16.3137  -20.2210 C   0  0  0  0  0  0  0  0  0  0  0  0
   22.8316  -17.3636  -19.2958 C   0  0  0  0  0  0  0  0  0  0  0  0
   23.8957  -18.3820  -19.0211 C   0  0  2  0  0  0  0  0  0  0  0  0
   24.2073  -19.1169  -20.2070 N   0  0  0  0  0  0  0  0  0  0  0  0
   23.4005  -19.2798  -17.9210 C   0  0  0  0  0  0  0  0  0  0  0  0
   22.5028  -20.1230  -18.1411 O   0  0  0  0  0  0  0  0  0  0  0  0
   22.9179  -16.3137  -21.5392 C   0  0  0  0  0  0  0  0  0  0  0  0
   23.3829  -15.3513  -22.4098 C   0  0  0  0  0  0  0  0  0  0  0  0
   23.9442  -19.1810  -16.6246 N   0  0  0  0  0  0  0  0  0  0  0  0
   23.5626  -19.8403  -15.4349 C   0  0  1  0  0  0  0  0  0  0  0  0
   24.5588  -19.7999  -14.2852 C   0  0  0  0  0  0  0  0  0  0  0  0
   24.1619  -20.5395  -13.0663 C   0  0  0  0  0  0  0  0  0  0  0  0
   25.1802  -20.4729  -11.9389 C   0  0  0  0  0  0  0  0  0  0  0  0
   24.6485  -21.3695  -10.8048 C   0  0  0  0  0  0  0  0  0  0  0  0
   25.4333  -21.2070   -9.6208 N   0  0  0  0  0  0  0  0  0  0  0  0
   22.2194  -19.5890  -14.9261 C   0  0  0  0  0  0  0  0  0  0  0  0
   21.7033  -18.4332  -15.0384 O   0  0  0  0  0  0  0  0  0  0  0  0
   16.8991  -20.9103  -15.3097 N   0  0  0  0  0  0  0  0  0  0  0  0
   17.8324  -19.8596  -15.1485 C   0  0  0  0  0  0  0  0  0  0  0  0
   17.4807  -18.7077  -14.7680 O   0  0  0  0  0  0  0  0  0  0  0  0
   19.2666  -20.1019  -15.4305 C   0  0  0  0  0  0  0  0  0  0  0  0
   19.9653  -20.3916  -14.1232 C   0  0  2  0  0  0  0  0  0  0  0  0
   21.3913  -20.5568  -14.2859 N   0  0  0  0  0  0  0  0  0  0  0  0
   19.4351  -21.6332  -13.5066 C   0  0  0  0  0  0  0  0  0  0  0  0
   19.5420  -22.7516  -14.0693 O   0  0  0  0  0  0  0  0  0  0  0  0
   18.7886  -21.6260  -12.2670 O   0  0  0  0  0  0  0  0  0  0  0  0
  2  1  1  0
  3  2  2  0
  4  3  1  0
  5 11  1  0
  5  4  2  0
  6  5  1  0
  7  6  1  0
  7  9  1  0
  7  8  1  6
  9 10  2  0
 11 12  2  0
 12  2  1  0
 13  9  1  0
 13 14  1  0
 14 15  1  1
 15 16  1  0
 16 17  1  0
 17 18  1  0
 18 19  1  0
 20 14  1  0
 20 21  2  0
 22 23  1  0
 23 25  1  0
 24 23  2  0
 26 25  1  6
 26 27  1  0
 27 20  1  0
 28 30  1  0
 28 26  1  0
 29 28  2  0
M  END
$$$$
