YKN.pdb
     RDKit          3D

 30 30  0  0  1  0  0  0  0  0999 V2000
   30.3165  -14.4190  -20.1073 O   0  0  0  0  0  0  0  0  0  0  0  0
   29.4442  -15.2821  -19.4532 C   0  0  0  0  0  0  0  0  0  0  0  0
   29.2821  -15.2677  -18.0806 C   0  0  0  0  0  0  0  0  0  0  0  0
   28.4309  -16.1054  -17.4076 C   0  0  0  0  0  0  0  0  0  0  0  0
   27.6951  -17.0147  -18.1509 C   0  0  0  0  0  0  0  0  0  0  0  0
   26.7486  -17.9569  -17.4867 C   0  0  0  0  0  0  0  0  0  0  0  0
   27.4873  -19.1492  -16.9597 C   0  0  2  0  0  0  0  0  0  0  0  0
   27.9849  -19.9487  -18.0351 N   0  0  0  0  0  0  0  0  0  0  0  0
   26.5452  -19.9216  -16.0782 C   0  0  0  0  0  0  0  0  0  0  0  0
   25.8127  -20.8161  -16.5564 O   0  0  0  0  0  0  0  0  0  0  0  0
   27.8281  -17.0619  -19.5302 C   0  0  0  0  0  0  0  0  0  0  0  0
   28.6972  -16.1990  -20.1631 C   0  0  0  0  0  0  0  0  0  0  0  0
   26.4765  -19.6456  -14.6979 N   0  0  0  0  0  0  0  0  0  0  0  0
   25.6521  -20.2190  -13.7044 C   0  0  1  0  0  0  0  0  0  0  0  0
   26.0814  -20.0090  -12.2596 C   0  0  0  0  0  0  0  0  0  0  0  0
   25.1786  -20.5762  -11.2333 C   0  0  0  0  0  0  0  0  0  0  0  0
   25.6899  -20.4345   -9.8081 C   0  0  0  0  0  0  0  0  0  0  0  0
   24.6077  -21.0267   -8.8856 C   0  0  0  0  0  0  0  0  0  0  0  0
   25.0559  -21.0480   -7.5281 N   0  0  0  0  0  0  0  0  0  0  0  0
   24.2132  -20.0129  -13.8210 C   0  0  0  0  0  0  0  0  0  0  0  0
   23.7319  -18.8389  -13.7518 O   0  0  0  0  0  0  0  0  0  0  0  0
   19.2475  -20.3557  -14.6564 N   0  0  0  0  0  0  0  0  0  0  0  0
   19.8595  -21.2670  -15.5485 C   0  0  0  0  0  0  0  0  0  0  0  0
   19.2248  -21.7898  -16.5073 O   0  0  0  0  0  0  0  0  0  0  0  0
   21.2846  -21.6286  -15.3657 C   0  0  0  0  0  0  0  0  0  0  0  0
   21.8486  -20.7857  -14.2464 C   0  0  2  0  0  0  0  0  0  0  0  0
   23.2504  -21.0463  -14.0135 N   0  0  0  0  0  0  0  0  0  0  0  0
   21.1249  -21.0439  -12.9766 C   0  0  0  0  0  0  0  0  0  0  0  0
   20.1927  -20.3000  -12.5809 O   0  0  0  0  0  0  0  0  0  0  0  0
   21.4407  -22.1281  -12.1524 O   0  0  0  0  0  0  0  0  0  0  0  0
  2  1  1  0
  3  2  2  0
  4  3  1  0
  5 11  1  0
  5  4  2  0
  6  5  1  0
  7  6  1  0
  7  9  1  0
  7  8  1  6
  9 10  2  0
 11 12  2  0
 12  2  1  0
 13  9  1  0
 13 14  1  0
 14 15  1  1
 15 16  1  0
 16 17  1  0
 17 18  1  0
 18 19  1  0
 20 14  1  0
 20 21  2  0
 22 23  1  0
 23 25  1  0
 24 23  2  0
 26 25  1  6
 26 27  1  0
 27 20  1  0
 28 30  1  0
 28 26  1  0
 29 28  2  0
M  END
$$$$
