YKN.pdb
     RDKit          3D

 30 30  0  0  1  0  0  0  0  0999 V2000
   20.8287  -10.3902  -19.3797 O   0  0  0  0  0  0  0  0  0  0  0  0
   20.7164  -11.7449  -19.0871 C   0  0  0  0  0  0  0  0  0  0  0  0
   20.1256  -12.6418  -19.9573 C   0  0  0  0  0  0  0  0  0  0  0  0
   20.0000  -13.9818  -19.6972 C   0  0  0  0  0  0  0  0  0  0  0  0
   20.4950  -14.4570  -18.4931 C   0  0  0  0  0  0  0  0  0  0  0  0
   20.3942  -15.9033  -18.1425 C   0  0  0  0  0  0  0  0  0  0  0  0
   21.6811  -16.6041  -18.4551 C   0  0  2  0  0  0  0  0  0  0  0  0
   21.9185  -16.6156  -19.8647 N   0  0  0  0  0  0  0  0  0  0  0  0
   21.5963  -17.9954  -17.8911 C   0  0  0  0  0  0  0  0  0  0  0  0
   20.9675  -18.8920  -18.4962 O   0  0  0  0  0  0  0  0  0  0  0  0
   21.0950  -13.5907  -17.5921 C   0  0  0  0  0  0  0  0  0  0  0  0
   21.1985  -12.2505  -17.8978 C   0  0  0  0  0  0  0  0  0  0  0  0
   22.2269  -18.3065  -16.6697 N   0  0  0  0  0  0  0  0  0  0  0  0
   22.2722  -19.5301  -15.9652 C   0  0  1  0  0  0  0  0  0  0  0  0
   23.4070  -19.6977  -14.9652 C   0  0  0  0  0  0  0  0  0  0  0  0
   23.4632  -21.0039  -14.2718 C   0  0  0  0  0  0  0  0  0  0  0  0
   24.7732  -21.2670  -13.5456 C   0  0  0  0  0  0  0  0  0  0  0  0
   24.6091  -22.6059  -12.8017 C   0  0  0  0  0  0  0  0  0  0  0  0
   25.7766  -22.9038  -12.0321 N   0  0  0  0  0  0  0  0  0  0  0  0
   21.0289  -20.0166  -15.3787 C   0  0  0  0  0  0  0  0  0  0  0  0
   20.3767  -19.2824  -14.5723 O   0  0  0  0  0  0  0  0  0  0  0  0
   17.5852  -23.0755  -13.2791 N   0  0  0  0  0  0  0  0  0  0  0  0
   18.5552  -22.3137  -12.5865 C   0  0  0  0  0  0  0  0  0  0  0  0
   18.5103  -22.1570  -11.3340 O   0  0  0  0  0  0  0  0  0  0  0  0
   19.6609  -21.6752  -13.3380 C   0  0  0  0  0  0  0  0  0  0  0  0
   19.4014  -21.8612  -14.8142 C   0  0  2  0  0  0  0  0  0  0  0  0
   20.4475  -21.2931  -15.6330 N   0  0  0  0  0  0  0  0  0  0  0  0
   18.1220  -21.2208  -15.2089 C   0  0  0  0  0  0  0  0  0  0  0  0
   18.0775  -20.0475  -15.6564 O   0  0  0  0  0  0  0  0  0  0  0  0
   16.8977  -21.8877  -15.1044 O   0  0  0  0  0  0  0  0  0  0  0  0
  2  1  1  0
  3  2  2  0
  4  3  1  0
  5 11  1  0
  5  4  2  0
  6  5  1  0
  7  6  1  0
  7  9  1  0
  7  8  1  6
  9 10  2  0
 11 12  2  0
 12  2  1  0
 13  9  1  0
 13 14  1  0
 14 15  1  1
 15 16  1  0
 16 17  1  0
 17 18  1  0
 18 19  1  0
 20 14  1  0
 20 21  2  0
 22 23  1  0
 23 25  1  0
 24 23  2  0
 26 25  1  1
 26 27  1  0
 27 20  1  0
 28 30  1  0
 28 26  1  0
 29 28  2  0
M  END
$$$$
