NCH.pdb
     RDKit          3D

 25 25  0  0  1  0  0  0  0  0999 V2000
   15.2105  -21.6877   15.4312 N   0  0  0  0  0  0  0  0  0  0  0  0
   14.0533  -21.4377   16.2072 C   0  0  0  0  0  0  0  0  0  0  0  0
   12.9808  -22.0424   15.9481 O   0  0  0  0  0  0  0  0  0  0  0  0
   14.1129  -20.4737   17.3100 C   0  0  0  0  0  0  0  0  0  0  0  0
   12.9209  -19.5659   17.2950 C   0  0  2  0  0  0  0  0  0  0  0  0
   13.0311  -18.5607   16.2813 N   0  0  0  0  0  0  0  0  0  0  0  0
   12.6365  -19.0194   18.6408 C   0  0  0  0  0  0  0  0  0  0  0  0
   13.2691  -18.0020   18.9995 O   0  0  0  0  0  0  0  0  0  0  0  0
   11.6891  -19.5937   19.5291 N   0  0  0  0  0  0  0  0  0  0  0  0
   11.4293  -18.9418   20.7743 C   0  0  1  0  0  0  0  0  0  0  0  0
   10.0133  -18.4044   20.8070 C   0  0  0  0  0  0  0  0  0  0  0  0
    8.8357  -19.6231   20.1778 S   0  0  0  0  0  0  0  0  0  0  0  0
   11.6926  -19.8304   21.9449 C   0  0  0  0  0  0  0  0  0  0  0  0
   11.3841  -21.0495   21.9326 O   0  0  0  0  0  0  0  0  0  0  0  0
   12.3062  -19.3548   23.1419 N   0  0  0  0  0  0  0  0  0  0  0  0
   12.6148  -20.1886   24.2628 C   0  0  1  0  0  0  0  0  0  0  0  0
   13.7908  -19.6871   25.0654 C   0  0  0  0  0  0  0  0  0  0  0  0
   15.0613  -19.7815   24.3459 C   0  0  0  0  0  0  0  0  0  0  0  0
   15.2634  -20.3576   23.1123 C   0  0  0  0  0  0  0  0  0  0  0  0
   16.5719  -20.2461   22.7873 N   0  0  0  0  0  0  0  0  0  0  0  0
   17.1867  -19.6141   23.7905 C   0  0  0  0  0  0  0  0  0  0  0  0
   16.2630  -19.3324   24.7388 N   0  0  0  0  0  0  0  0  0  0  0  0
   11.4418  -20.4867   25.1091 C   0  0  0  0  0  0  0  0  0  0  0  0
   11.5037  -21.3724   26.1620 O   0  0  0  0  0  0  0  0  0  0  0  0
   10.3591  -19.9162   24.8607 O   0  0  0  0  0  0  0  0  0  0  0  0
  2  3  2  0
  2  1  1  0
  4  2  1  0
  5  4  1  0
  5  7  1  0
  5  6  1  6
  7  9  1  0
  7  8  2  0
  9 10  1  0
 10 13  1  0
 10 11  1  6
 11 12  1  0
 13 14  2  0
 15 13  1  0
 15 16  1  0
 16 23  1  0
 16 17  1  1
 18 17  1  0
 19 18  2  0
 20 21  1  0
 20 19  1  0
 21 22  2  0
 22 18  1  0
 23 24  1  0
 25 23  2  0
M  END
$$$$
