NCH.pdb
     RDKit          3D

 25 25  0  0  1  0  0  0  0  0999 V2000
   12.3594  -15.6477   12.2059 N   0  0  0  0  0  0  0  0  0  0  0  0
   11.5272  -16.7859   12.3295 C   0  0  0  0  0  0  0  0  0  0  0  0
   11.1696  -17.4170   11.3014 O   0  0  0  0  0  0  0  0  0  0  0  0
   11.0867  -17.2226   13.6578 C   0  0  0  0  0  0  0  0  0  0  0  0
   11.6977  -16.3750   14.7318 C   0  0  2  0  0  0  0  0  0  0  0  0
   13.1015  -16.1841   14.5242 N   0  0  0  0  0  0  0  0  0  0  0  0
   11.3636  -16.8828   16.0814 C   0  0  0  0  0  0  0  0  0  0  0  0
   10.1580  -17.0893   16.3417 O   0  0  0  0  0  0  0  0  0  0  0  0
   12.3408  -17.1417   17.0787 N   0  0  0  0  0  0  0  0  0  0  0  0
   11.9260  -17.7329   18.3122 C   0  0  1  0  0  0  0  0  0  0  0  0
   12.8202  -18.9030   18.6673 C   0  0  0  0  0  0  0  0  0  0  0  0
   12.4118  -19.5680   20.2978 S   0  0  0  0  0  0  0  0  0  0  0  0
   11.8735  -16.7407   19.4267 C   0  0  0  0  0  0  0  0  0  0  0  0
   12.7789  -15.8839   19.5928 O   0  0  0  0  0  0  0  0  0  0  0  0
   10.8003  -16.7035   20.3660 N   0  0  0  0  0  0  0  0  0  0  0  0
   10.6739  -15.7126   21.3902 C   0  0  1  0  0  0  0  0  0  0  0  0
    9.2694  -15.1752   21.5215 C   0  0  0  0  0  0  0  0  0  0  0  0
    8.8344  -14.4090   20.3534 C   0  0  0  0  0  0  0  0  0  0  0  0
    9.5943  -14.0968   19.2490 C   0  0  0  0  0  0  0  0  0  0  0  0
    8.8381  -13.3784   18.3875 N   0  0  0  0  0  0  0  0  0  0  0  0
    7.6265  -13.2373   18.9315 C   0  0  0  0  0  0  0  0  0  0  0  0
    7.6278  -13.8667   20.1297 N   0  0  0  0  0  0  0  0  0  0  0  0
   11.2372  -16.1385   22.6873 C   0  0  0  0  0  0  0  0  0  0  0  0
   11.4524  -15.2523   23.7194 O   0  0  0  0  0  0  0  0  0  0  0  0
   11.5274  -17.3419   22.8521 O   0  0  0  0  0  0  0  0  0  0  0  0
  2  3  2  0
  2  1  1  0
  4  2  1  0
  5  4  1  0
  5  7  1  0
  5  6  1  6
  7  9  1  0
  7  8  2  0
  9 10  1  0
 10 13  1  0
 10 11  1  1
 11 12  1  0
 13 14  2  0
 15 13  1  0
 15 16  1  0
 16 23  1  0
 16 17  1  1
 18 17  1  0
 19 18  2  0
 20 21  1  0
 20 19  1  0
 21 22  2  0
 22 18  1  0
 23 24  1  0
 25 23  2  0
M  END
$$$$
