NCH.pdb
     RDKit          3D

 25 25  0  0  1  0  0  0  0  0999 V2000
    8.4713  -18.6526   14.7661 N   0  0  0  0  0  0  0  0  0  0  0  0
    7.9162  -18.0342   15.9119 C   0  0  0  0  0  0  0  0  0  0  0  0
    8.4620  -18.1878   17.0351 O   0  0  0  0  0  0  0  0  0  0  0  0
    6.7060  -17.2170   15.7815 C   0  0  0  0  0  0  0  0  0  0  0  0
    7.0451  -15.8171   15.3684 C   0  0  2  0  0  0  0  0  0  0  0  0
    7.6349  -15.7758   14.0643 N   0  0  0  0  0  0  0  0  0  0  0  0
    7.8469  -15.1243   16.4018 C   0  0  0  0  0  0  0  0  0  0  0  0
    8.4924  -14.1115   16.0531 O   0  0  0  0  0  0  0  0  0  0  0  0
    7.9129  -15.5551   17.7533 N   0  0  0  0  0  0  0  0  0  0  0  0
    8.4310  -14.6575   18.7376 C   0  0  1  0  0  0  0  0  0  0  0  0
    7.6975  -13.3330   18.6868 C   0  0  0  0  0  0  0  0  0  0  0  0
    8.2475  -12.2288   20.0082 S   0  0  0  0  0  0  0  0  0  0  0  0
    8.3917  -15.2397   20.1120 C   0  0  0  0  0  0  0  0  0  0  0  0
    7.3204  -15.6527   20.6250 O   0  0  0  0  0  0  0  0  0  0  0  0
    9.5590  -15.3625   20.9229 N   0  0  0  0  0  0  0  0  0  0  0  0
   10.3313  -16.5622   21.0284 C   0  0  1  0  0  0  0  0  0  0  0  0
   10.6586  -17.1734   19.6875 C   0  0  0  0  0  0  0  0  0  0  0  0
   11.3510  -18.4580   19.7936 C   0  0  0  0  0  0  0  0  0  0  0  0
   12.4359  -18.7404   20.5924 C   0  0  0  0  0  0  0  0  0  0  0  0
   12.7866  -20.0344   20.4110 N   0  0  0  0  0  0  0  0  0  0  0  0
   11.9446  -20.5616   19.5183 C   0  0  0  0  0  0  0  0  0  0  0  0
   11.0710  -19.5981   19.1441 N   0  0  0  0  0  0  0  0  0  0  0  0
   11.5245  -16.4149   21.8861 C   0  0  0  0  0  0  0  0  0  0  0  0
   12.0566  -15.1830   22.1964 O   0  0  0  0  0  0  0  0  0  0  0  0
   12.0676  -17.4418   22.3443 O   0  0  0  0  0  0  0  0  0  0  0  0
  2  3  2  0
  2  1  1  0
  4  2  1  0
  5  4  1  0
  5  7  1  0
  5  6  1  6
  7  9  1  0
  7  8  2  0
  9 10  1  0
 10 13  1  0
 10 11  1  1
 11 12  1  0
 13 14  2  0
 15 13  1  0
 15 16  1  0
 16 23  1  0
 16 17  1  6
 18 17  1  0
 19 18  2  0
 20 21  1  0
 20 19  1  0
 21 22  2  0
 22 18  1  0
 23 24  1  0
 25 23  2  0
M  END
$$$$
