NCH.pdb
     RDKit          3D

 25 25  0  0  1  0  0  0  0  0999 V2000
   13.3244  -17.3738   14.6380 N   0  0  0  0  0  0  0  0  0  0  0  0
   12.6678  -18.1001   15.6601 C   0  0  0  0  0  0  0  0  0  0  0  0
   12.2857  -19.2796   15.4462 O   0  0  0  0  0  0  0  0  0  0  0  0
   12.4368  -17.4711   16.9641 C   0  0  0  0  0  0  0  0  0  0  0  0
   10.9825  -17.4988   17.3238 C   0  0  2  0  0  0  0  0  0  0  0  0
   10.1848  -16.7925   16.3672 N   0  0  0  0  0  0  0  0  0  0  0  0
   10.7590  -17.0592   18.7193 C   0  0  0  0  0  0  0  0  0  0  0  0
   10.3473  -15.8924   18.9013 O   0  0  0  0  0  0  0  0  0  0  0  0
   10.9890  -17.8948   19.8442 N   0  0  0  0  0  0  0  0  0  0  0  0
   10.5982  -17.4305   21.1383 C   0  0  1  0  0  0  0  0  0  0  0  0
    9.1243  -17.0806   21.1541 C   0  0  0  0  0  0  0  0  0  0  0  0
    8.1252  -18.4233   20.4711 S   0  0  0  0  0  0  0  0  0  0  0  0
   10.9281  -18.4105   22.2154 C   0  0  0  0  0  0  0  0  0  0  0  0
   11.4297  -19.5342   21.9564 O   0  0  0  0  0  0  0  0  0  0  0  0
   10.6962  -18.1347   23.5958 N   0  0  0  0  0  0  0  0  0  0  0  0
   11.7308  -17.7936   24.5233 C   0  0  1  0  0  0  0  0  0  0  0  0
   12.6255  -16.6835   24.0276 C   0  0  0  0  0  0  0  0  0  0  0  0
   13.7377  -17.1633   23.2067 C   0  0  0  0  0  0  0  0  0  0  0  0
   14.2447  -16.5578   22.0794 C   0  0  0  0  0  0  0  0  0  0  0  0
   15.2674  -17.3054   21.6047 N   0  0  0  0  0  0  0  0  0  0  0  0
   15.4069  -18.3608   22.4111 C   0  0  0  0  0  0  0  0  0  0  0  0
   14.4730  -18.2710   23.3865 N   0  0  0  0  0  0  0  0  0  0  0  0
   11.2306  -17.5454   25.8905 C   0  0  0  0  0  0  0  0  0  0  0  0
    9.8857  -17.4598   26.1747 O   0  0  0  0  0  0  0  0  0  0  0  0
   12.0554  -17.4088   26.8182 O   0  0  0  0  0  0  0  0  0  0  0  0
  2  3  2  0
  2  1  1  0
  4  2  1  0
  5  4  1  0
  5  7  1  0
  5  6  1  6
  7  9  1  0
  7  8  2  0
  9 10  1  0
 10 13  1  0
 10 11  1  6
 11 12  1  0
 13 14  2  0
 15 13  1  0
 15 16  1  0
 16 23  1  0
 16 17  1  6
 18 17  1  0
 19 18  2  0
 20 21  1  0
 20 19  1  0
 21 22  2  0
 22 18  1  0
 23 24  1  0
 25 23  2  0
M  END
$$$$
