NCH.pdb
     RDKit          3D

 25 25  0  0  1  0  0  0  0  0999 V2000
   10.5935  -19.5839   14.8445 N   0  0  0  0  0  0  0  0  0  0  0  0
   10.6010  -18.2211   14.4620 C   0  0  0  0  0  0  0  0  0  0  0  0
   10.5802  -17.9109   13.2429 O   0  0  0  0  0  0  0  0  0  0  0  0
   10.6328  -17.1782   15.4918 C   0  0  0  0  0  0  0  0  0  0  0  0
   11.6542  -16.1317   15.1651 C   0  0  2  0  0  0  0  0  0  0  0  0
   12.3333  -16.4169   13.9371 N   0  0  0  0  0  0  0  0  0  0  0  0
   12.5686  -15.8898   16.3036 C   0  0  0  0  0  0  0  0  0  0  0  0
   13.6420  -15.2926   16.0690 O   0  0  0  0  0  0  0  0  0  0  0  0
   12.2821  -16.3015   17.6321 N   0  0  0  0  0  0  0  0  0  0  0  0
   13.0252  -15.7235   18.7075 C   0  0  1  0  0  0  0  0  0  0  0  0
   12.9440  -14.2116   18.6566 C   0  0  0  0  0  0  0  0  0  0  0  0
   13.9926  -13.4566   19.9208 S   0  0  0  0  0  0  0  0  0  0  0  0
   12.5892  -16.2392   20.0392 C   0  0  0  0  0  0  0  0  0  0  0  0
   11.4170  -16.0702   20.4625 O   0  0  0  0  0  0  0  0  0  0  0  0
   13.4691  -16.9506   20.9080 N   0  0  0  0  0  0  0  0  0  0  0  0
   13.0602  -17.5382   22.1467 C   0  0  1  0  0  0  0  0  0  0  0  0
   11.9159  -18.5101   21.9896 C   0  0  0  0  0  0  0  0  0  0  0  0
   12.1309  -19.4849   20.9198 C   0  0  0  0  0  0  0  0  0  0  0  0
   13.2088  -19.5393   20.0655 C   0  0  0  0  0  0  0  0  0  0  0  0
   13.0422  -20.5806   19.2180 N   0  0  0  0  0  0  0  0  0  0  0  0
   11.8859  -21.1737   19.5264 C   0  0  0  0  0  0  0  0  0  0  0  0
   11.3331  -20.5033   20.5640 N   0  0  0  0  0  0  0  0  0  0  0  0
   14.1813  -18.1090   22.9203 C   0  0  0  0  0  0  0  0  0  0  0  0
   15.4881  -18.0138   22.4960 O   0  0  0  0  0  0  0  0  0  0  0  0
   13.9346  -18.6970   23.9940 O   0  0  0  0  0  0  0  0  0  0  0  0
  2  3  2  0
  2  1  1  0
  4  2  1  0
  5  4  1  0
  5  7  1  0
  5  6  1  6
  7  9  1  0
  7  8  2  0
  9 10  1  0
 10 13  1  0
 10 11  1  1
 11 12  1  0
 13 14  2  0
 15 13  1  0
 15 16  1  0
 16 23  1  0
 16 17  1  6
 18 17  1  0
 19 18  2  0
 20 21  1  0
 20 19  1  0
 21 22  2  0
 22 18  1  0
 23 24  1  0
 25 23  2  0
M  END
$$$$
