HTT.pdb
     RDKit          3D

 25 25  0  0  1  0  0  0  0  0999 V2000
   18.5136  -12.8923  -17.3557 N   0  0  0  0  0  0  0  0  0  0  0  0
   18.1697  -11.6760  -16.6882 C   0  0  1  0  0  0  0  0  0  0  0  0
   17.8127  -12.0309  -15.2441 C   0  0  0  0  0  0  0  0  0  0  0  0
   16.5302  -12.7987  -15.1927 C   0  0  0  0  0  0  0  0  0  0  0  0
   16.4436  -14.1414  -14.8366 C   0  0  0  0  0  0  0  0  0  0  0  0
   15.1725  -14.5290  -14.8873 N   0  0  0  0  0  0  0  0  0  0  0  0
   14.4655  -13.4520  -15.2686 C   0  0  0  0  0  0  0  0  0  0  0  0
   15.2857  -12.4022  -15.4542 N   0  0  0  0  0  0  0  0  0  0  0  0
   19.3022  -10.7180  -16.6181 C   0  0  0  0  0  0  0  0  0  0  0  0
   20.4819  -11.1076  -16.4018 O   0  0  0  0  0  0  0  0  0  0  0  0
   20.6467   -8.7643  -19.2763 C   0  0  0  0  0  0  0  0  0  0  0  0
   20.4303   -7.7545  -18.1659 C   0  0  1  0  0  0  0  0  0  0  0  0
   19.2649   -7.0713  -18.4619 O   0  0  0  0  0  0  0  0  0  0  0  0
   20.2835   -8.4035  -16.8244 C   0  0  2  0  0  0  0  0  0  0  0  0
   19.1529   -9.3197  -16.7848 N   0  0  0  0  0  0  0  0  0  0  0  0
   20.1851   -7.3782  -15.7802 C   0  0  0  0  0  0  0  0  0  0  0  0
   19.0799   -6.8548  -15.4347 O   0  0  0  0  0  0  0  0  0  0  0  0
   20.2372   -7.1939  -12.3368 C   0  0  0  0  0  0  0  0  0  0  0  0
   21.4104   -6.2947  -12.6772 C   0  0  1  0  0  0  0  0  0  0  0  0
   22.5624   -7.0911  -12.5635 O   0  0  0  0  0  0  0  0  0  0  0  0
   21.2116   -5.8229  -14.0873 C   0  0  2  0  0  0  0  0  0  0  0  0
   21.2985   -6.8814  -15.0636 N   0  0  0  0  0  0  0  0  0  0  0  0
   22.1869   -4.7659  -14.3886 C   0  0  0  0  0  0  0  0  0  0  0  0
   23.1372   -4.8607  -15.3762 O   0  0  0  0  0  0  0  0  0  0  0  0
   22.1750   -3.6898  -13.7128 O   0  0  0  0  0  0  0  0  0  0  0  0
  2  9  1  0
  2  1  1  6
  3  2  1  0
  4  3  1  0
  5  4  2  0
  6  5  1  0
  7  6  1  0
  7  8  2  0
  8  4  1  0
  9 10  2  0
 12 11  1  6
 12 13  1  0
 12 14  1  0
 14 15  1  6
 15  9  1  0
 16 14  1  0
 16 17  2  0
 19 18  1  6
 19 21  1  0
 20 19  1  0
 21 22  1  6
 21 23  1  0
 22 16  1  0
 23 24  1  0
 25 23  2  0
M  END
$$$$
