HTT.pdb
     RDKit          3D

 25 25  0  0  1  0  0  0  0  0999 V2000
   27.9404  -23.3318  -17.8354 N   0  0  0  0  0  0  0  0  0  0  0  0
   28.3998  -22.9463  -16.5378 C   0  0  1  0  0  0  0  0  0  0  0  0
   29.8078  -22.3727  -16.7020 C   0  0  0  0  0  0  0  0  0  0  0  0
   30.7465  -23.4200  -17.2111 C   0  0  0  0  0  0  0  0  0  0  0  0
   30.3814  -24.7433  -17.4415 C   0  0  0  0  0  0  0  0  0  0  0  0
   31.4354  -25.4189  -17.8896 N   0  0  0  0  0  0  0  0  0  0  0  0
   32.4508  -24.5406  -17.9426 C   0  0  0  0  0  0  0  0  0  0  0  0
   32.0361  -23.3288  -17.5320 N   0  0  0  0  0  0  0  0  0  0  0  0
   27.5753  -21.8700  -15.9318 C   0  0  0  0  0  0  0  0  0  0  0  0
   27.9075  -21.3171  -14.8482 O   0  0  0  0  0  0  0  0  0  0  0  0
   27.0889  -18.4786  -16.4583 C   0  0  0  0  0  0  0  0  0  0  0  0
   25.6840  -19.0406  -16.5588 C   0  0  1  0  0  0  0  0  0  0  0  0
   25.4066  -19.1981  -17.9044 O   0  0  0  0  0  0  0  0  0  0  0  0
   25.5498  -20.3678  -15.8784 C   0  0  2  0  0  0  0  0  0  0  0  0
   26.3754  -21.3876  -16.5088 N   0  0  0  0  0  0  0  0  0  0  0  0
   24.1391  -20.7666  -15.8325 C   0  0  0  0  0  0  0  0  0  0  0  0
   23.6294  -21.5817  -16.6636 O   0  0  0  0  0  0  0  0  0  0  0  0
   22.1032  -22.2819  -13.0681 C   0  0  0  0  0  0  0  0  0  0  0  0
   21.3323  -21.0436  -13.4845 C   0  0  1  0  0  0  0  0  0  0  0  0
   21.6303  -20.0557  -12.5308 O   0  0  0  0  0  0  0  0  0  0  0  0
   21.8256  -20.6524  -14.8461 C   0  0  2  0  0  0  0  0  0  0  0  0
   23.2218  -20.2897  -14.8677 N   0  0  0  0  0  0  0  0  0  0  0  0
   21.0016  -19.5516  -15.3641 C   0  0  0  0  0  0  0  0  0  0  0  0
   19.6575  -19.6600  -15.6268 O   0  0  0  0  0  0  0  0  0  0  0  0
   21.5358  -18.4214  -15.5923 O   0  0  0  0  0  0  0  0  0  0  0  0
  2  9  1  0
  2  1  1  6
  3  2  1  0
  4  3  1  0
  5  4  2  0
  6  5  1  0
  7  6  1  0
  7  8  2  0
  8  4  1  0
  9 10  2  0
 12 11  1  6
 12 13  1  0
 12 14  1  0
 14 15  1  6
 15  9  1  0
 16 14  1  0
 16 17  2  0
 19 18  1  1
 19 21  1  0
 20 19  1  0
 21 22  1  1
 21 23  1  0
 22 16  1  0
 23 24  1  0
 25 23  2  0
M  END
$$$$
