HTT.pdb
     RDKit          3D

 25 25  0  0  1  0  0  0  0  0999 V2000
   26.3591  -18.3135  -18.7490 N   0  0  0  0  0  0  0  0  0  0  0  0
   25.2434  -19.2011  -18.8535 C   0  0  1  0  0  0  0  0  0  0  0  0
   25.7924  -20.6284  -18.8596 C   0  0  0  0  0  0  0  0  0  0  0  0
   26.4649  -20.9280  -20.1615 C   0  0  0  0  0  0  0  0  0  0  0  0
   26.4748  -20.0579  -21.2479 C   0  0  0  0  0  0  0  0  0  0  0  0
   27.1517  -20.6120  -22.2493 N   0  0  0  0  0  0  0  0  0  0  0  0
   27.5638  -21.8118  -21.8067 C   0  0  0  0  0  0  0  0  0  0  0  0
   27.1490  -22.0057  -20.5420 N   0  0  0  0  0  0  0  0  0  0  0  0
   24.3241  -19.1091  -17.6910 C   0  0  0  0  0  0  0  0  0  0  0  0
   24.7502  -18.8460  -16.5336 O   0  0  0  0  0  0  0  0  0  0  0  0
   22.8424  -16.6743  -16.3762 C   0  0  0  0  0  0  0  0  0  0  0  0
   21.6432  -17.5656  -16.6357 C   0  0  1  0  0  0  0  0  0  0  0  0
   21.1186  -17.1917  -17.8594 O   0  0  0  0  0  0  0  0  0  0  0  0
   22.0108  -19.0162  -16.6895 C   0  0  2  0  0  0  0  0  0  0  0  0
   22.9247  -19.3049  -17.7853 N   0  0  0  0  0  0  0  0  0  0  0  0
   20.7981  -19.8376  -16.7665 C   0  0  0  0  0  0  0  0  0  0  0  0
   20.3393  -20.2820  -17.8650 O   0  0  0  0  0  0  0  0  0  0  0  0
   20.0221  -23.0554  -14.9001 C   0  0  0  0  0  0  0  0  0  0  0  0
   18.8532  -22.1249  -14.6377 C   0  0  1  0  0  0  0  0  0  0  0  0
   19.0723  -21.5669  -13.3668 O   0  0  0  0  0  0  0  0  0  0  0  0
   18.8773  -21.0723  -15.7061 C   0  0  2  0  0  0  0  0  0  0  0  0
   20.0333  -20.2120  -15.6374 N   0  0  0  0  0  0  0  0  0  0  0  0
   17.6425  -20.2788  -15.6350 C   0  0  0  0  0  0  0  0  0  0  0  0
   16.3853  -20.8021  -15.8162 O   0  0  0  0  0  0  0  0  0  0  0  0
   17.7101  -19.0331  -15.3933 O   0  0  0  0  0  0  0  0  0  0  0  0
  2  9  1  0
  2  1  1  1
  3  2  1  0
  4  3  1  0
  5  4  2  0
  6  5  1  0
  7  6  1  0
  7  8  2  0
  8  4  1  0
  9 10  2  0
 12 11  1  6
 12 13  1  0
 12 14  1  0
 14 15  1  6
 15  9  1  0
 16 14  1  0
 16 17  2  0
 19 18  1  6
 19 21  1  0
 20 19  1  0
 21 22  1  1
 21 23  1  0
 22 16  1  0
 23 24  1  0
 25 23  2  0
M  END
$$$$
