HTT.pdb
     RDKit          3D

 25 25  0  0  1  0  0  0  0  0999 V2000
   42.2302  -10.7091   -7.0410 N   0  0  0  0  0  0  0  0  0  0  0  0
   42.0836   -9.2923   -7.1613 C   0  0  1  0  0  0  0  0  0  0  0  0
   43.4796   -8.7031   -7.3679 C   0  0  0  0  0  0  0  0  0  0  0  0
   44.2722   -8.7713   -6.1013 C   0  0  0  0  0  0  0  0  0  0  0  0
   43.7897   -9.3104   -4.9122 C   0  0  0  0  0  0  0  0  0  0  0  0
   44.7302   -9.2236   -3.9762 N   0  0  0  0  0  0  0  0  0  0  0  0
   45.7901   -8.6402   -4.5605 C   0  0  0  0  0  0  0  0  0  0  0  0
   45.5152   -8.3651   -5.8481 N   0  0  0  0  0  0  0  0  0  0  0  0
   41.2802   -8.8954   -8.3454 C   0  0  0  0  0  0  0  0  0  0  0  0
   41.3889   -9.4989   -9.4474 O   0  0  0  0  0  0  0  0  0  0  0  0
   38.0561   -9.4294   -9.4261 C   0  0  0  0  0  0  0  0  0  0  0  0
   38.1597   -7.9165   -9.4280 C   0  0  1  0  0  0  0  0  0  0  0  0
   37.6043   -7.4716   -8.2422 O   0  0  0  0  0  0  0  0  0  0  0  0
   39.5775   -7.4412   -9.5067 C   0  0  2  0  0  0  0  0  0  0  0  0
   40.3470   -7.8303   -8.3338 N   0  0  0  0  0  0  0  0  0  0  0  0
   39.6082   -5.9899   -9.7163 C   0  0  0  0  0  0  0  0  0  0  0  0
   39.7736   -5.1630   -8.7656 O   0  0  0  0  0  0  0  0  0  0  0  0
   39.8790   -2.0523  -12.6498 C   0  0  0  0  0  0  0  0  0  0  0  0
   39.7014   -3.5585  -12.6204 C   0  0  1  0  0  0  0  0  0  0  0  0
   40.8924   -4.1049  -13.1276 O   0  0  0  0  0  0  0  0  0  0  0  0
   39.4889   -3.9509  -11.1882 C   0  0  2  0  0  0  0  0  0  0  0  0
   39.4611   -5.3786  -10.9830 N   0  0  0  0  0  0  0  0  0  0  0  0
   38.2480   -3.3376  -10.6949 C   0  0  0  0  0  0  0  0  0  0  0  0
   38.2086   -2.1861   -9.9466 O   0  0  0  0  0  0  0  0  0  0  0  0
   37.1306   -3.8814  -10.9601 O   0  0  0  0  0  0  0  0  0  0  0  0
  2  9  1  0
  2  1  1  6
  3  2  1  0
  4  3  1  0
  5  4  2  0
  6  5  1  0
  7  6  1  0
  7  8  2  0
  8  4  1  0
  9 10  2  0
 12 11  1  1
 12 13  1  0
 12 14  1  0
 14 15  1  1
 15  9  1  0
 16 14  1  0
 16 17  2  0
 19 18  1  1
 19 21  1  0
 20 19  1  0
 21 22  1  6
 21 23  1  0
 22 16  1  0
 23 24  1  0
 25 23  2  0
M  END
$$$$
