ACL.pdb
     RDKit          3D

 20 19  0  0  1  0  0  0  0  0999 V2000
   24.1784  -16.6190  -15.2935 C   0  0  0  0  0  0  0  0  0  0  0  0
   23.0591  -16.6762  -16.3151 C   0  0  2  0  0  0  0  0  0  0  0  0
   23.4645  -17.4026  -17.4791 N   0  0  0  0  0  0  0  0  0  0  0  0
   22.6550  -15.2934  -16.6297 C   0  0  0  0  0  0  0  0  0  0  0  0
   23.3984  -14.6103  -17.3958 O   0  0  0  0  0  0  0  0  0  0  0  0
   21.4728  -14.7022  -16.1107 N   0  0  0  0  0  0  0  0  0  0  0  0
   20.9912  -13.3949  -16.4833 C   0  0  1  0  0  0  0  0  0  0  0  0
   19.5088  -13.2399  -16.1917 C   0  0  0  0  0  0  0  0  0  0  0  0
   18.5162  -14.5119  -16.9734 S   0  0  0  0  0  0  0  0  0  0  0  0
   21.6959  -12.3799  -15.6215 C   0  0  0  0  0  0  0  0  0  0  0  0
   21.7934  -12.5465  -14.3778 O   0  0  0  0  0  0  0  0  0  0  0  0
   25.8745  -10.4041  -13.8182 C   0  0  0  0  0  0  0  0  0  0  0  0
   25.5965   -9.7178  -15.1954 C   0  0  1  0  0  0  0  0  0  0  0  0
   26.9051   -9.9195  -15.9576 C   0  0  0  0  0  0  0  0  0  0  0  0
   24.4908  -10.5064  -15.7819 C   0  0  0  0  0  0  0  0  0  0  0  0
   23.0994  -10.3099  -15.3199 C   0  0  2  0  0  0  0  0  0  0  0  0
   22.2674  -11.2133  -16.1806 N   0  0  0  0  0  0  0  0  0  0  0  0
   22.5898   -8.9478  -15.4771 C   0  0  0  0  0  0  0  0  0  0  0  0
   21.9499   -8.6160  -16.6911 O   0  0  0  0  0  0  0  0  0  0  0  0
   22.6523   -8.0166  -14.6484 O   0  0  0  0  0  0  0  0  0  0  0  0
  2  3  1  0
  2  1  1  1
  4  2  1  0
  5  4  2  0
  6  4  1  0
  7 10  1  0
  7  6  1  0
  7  8  1  1
  9  8  1  0
 10 11  2  0
 13 12  1  1
 13 14  1  0
 15 13  1  0
 16 15  1  6
 17 16  1  0
 17 10  1  0
 18 16  1  0
 19 18  1  0
 20 18  2  0
M  END
$$$$
