ACL.pdb
     RDKit          3D

 20 19  0  0  1  0  0  0  0  0999 V2000
   22.0038  -17.7599  -19.3269 C   0  0  0  0  0  0  0  0  0  0  0  0
   23.2832  -17.6030  -18.5280 C   0  0  2  0  0  0  0  0  0  0  0  0
   23.6575  -18.8390  -17.9123 N   0  0  0  0  0  0  0  0  0  0  0  0
   23.0789  -16.5252  -17.5427 C   0  0  0  0  0  0  0  0  0  0  0  0
   21.9045  -16.3192  -17.1133 O   0  0  0  0  0  0  0  0  0  0  0  0
   24.1405  -15.7149  -17.0602 N   0  0  0  0  0  0  0  0  0  0  0  0
   23.9716  -14.6383  -16.1154 C   0  0  1  0  0  0  0  0  0  0  0  0
   25.2959  -14.2183  -15.5021 C   0  0  0  0  0  0  0  0  0  0  0  0
   26.2947  -15.6178  -14.9942 S   0  0  0  0  0  0  0  0  0  0  0  0
   23.4596  -13.4384  -16.8688 C   0  0  0  0  0  0  0  0  0  0  0  0
   23.6501  -13.3254  -18.1078 O   0  0  0  0  0  0  0  0  0  0  0  0
   21.0896  -10.9899  -20.0457 C   0  0  0  0  0  0  0  0  0  0  0  0
   20.2189  -11.2778  -18.7793 C   0  0  1  0  0  0  0  0  0  0  0  0
   19.0886  -12.1505  -19.3225 C   0  0  0  0  0  0  0  0  0  0  0  0
   21.1168  -12.0363  -17.8811 C   0  0  0  0  0  0  0  0  0  0  0  0
   22.0886  -11.3303  -17.0179 C   0  0  2  0  0  0  0  0  0  0  0  0
   22.7521  -12.4060  -16.2104 N   0  0  0  0  0  0  0  0  0  0  0  0
   21.4948  -10.3726  -16.0853 C   0  0  0  0  0  0  0  0  0  0  0  0
   21.3769   -9.0286  -16.5015 O   0  0  0  0  0  0  0  0  0  0  0  0
   21.0678  -10.6022  -14.9351 O   0  0  0  0  0  0  0  0  0  0  0  0
  2  3  1  0
  2  1  1  1
  4  2  1  0
  5  4  2  0
  6  4  1  0
  7 10  1  0
  7  6  1  0
  7  8  1  6
  9  8  1  0
 10 11  2  0
 13 12  1  6
 13 14  1  0
 15 13  1  0
 16 15  1  6
 17 16  1  0
 17 10  1  0
 18 16  1  0
 19 18  1  0
 20 18  2  0
M  END
$$$$
