ACL.pdb
     RDKit          3D

 20 19  0  0  1  0  0  0  0  0999 V2000
   27.8268  -21.1070  -18.1510 C   0  0  0  0  0  0  0  0  0  0  0  0
   27.9198  -21.7989  -16.8047 C   0  0  2  0  0  0  0  0  0  0  0  0
   27.0940  -22.9667  -16.7707 N   0  0  0  0  0  0  0  0  0  0  0  0
   27.5539  -20.8229  -15.7617 C   0  0  0  0  0  0  0  0  0  0  0  0
   28.1910  -19.7284  -15.7138 O   0  0  0  0  0  0  0  0  0  0  0  0
   26.5222  -21.0610  -14.8156 N   0  0  0  0  0  0  0  0  0  0  0  0
   26.0021  -20.0603  -13.9166 C   0  0  1  0  0  0  0  0  0  0  0  0
   24.8570  -19.2845  -14.5440 C   0  0  0  0  0  0  0  0  0  0  0  0
   23.4242  -20.3124  -14.8677 S   0  0  0  0  0  0  0  0  0  0  0  0
   25.4217  -20.7699  -12.7211 C   0  0  0  0  0  0  0  0  0  0  0  0
   24.9462  -21.9303  -12.8281 O   0  0  0  0  0  0  0  0  0  0  0  0
   26.9212  -19.2123   -7.6253 C   0  0  0  0  0  0  0  0  0  0  0  0
   26.7657  -20.0529   -8.9346 C   0  0  1  0  0  0  0  0  0  0  0  0
   27.4697  -21.3653   -8.5938 C   0  0  0  0  0  0  0  0  0  0  0  0
   25.3050  -20.2343   -9.0829 C   0  0  0  0  0  0  0  0  0  0  0  0
   24.7454  -20.8684  -10.2965 C   0  0  2  0  0  0  0  0  0  0  0  0
   25.3933  -20.1570  -11.4469 N   0  0  0  0  0  0  0  0  0  0  0  0
   23.2966  -20.7321  -10.4447 C   0  0  0  0  0  0  0  0  0  0  0  0
   22.4688  -21.5278   -9.6232 O   0  0  0  0  0  0  0  0  0  0  0  0
   22.6842  -19.9789  -11.2293 O   0  0  0  0  0  0  0  0  0  0  0  0
  2  3  1  0
  2  1  1  6
  4  2  1  0
  5  4  2  0
  6  4  1  0
  7 10  1  0
  7  6  1  0
  7  8  1  6
  9  8  1  0
 10 11  2  0
 13 12  1  1
 13 14  1  0
 15 13  1  0
 16 15  1  1
 17 16  1  0
 17 10  1  0
 18 16  1  0
 19 18  1  0
 20 18  2  0
M  END
$$$$
