ACL.pdb
     RDKit          3D

 20 19  0  0  1  0  0  0  0  0999 V2000
   25.5358  -26.1189  -16.5109 C   0  0  0  0  0  0  0  0  0  0  0  0
   26.4821  -25.1770  -17.2301 C   0  0  2  0  0  0  0  0  0  0  0  0
   27.7321  -25.8169  -17.5037 N   0  0  0  0  0  0  0  0  0  0  0  0
   26.6411  -23.9671  -16.4024 C   0  0  0  0  0  0  0  0  0  0  0  0
   27.1293  -24.0949  -15.2399 O   0  0  0  0  0  0  0  0  0  0  0  0
   26.2705  -22.6732  -16.8550 N   0  0  0  0  0  0  0  0  0  0  0  0
   26.4549  -21.4647  -16.0898 C   0  0  1  0  0  0  0  0  0  0  0  0
   26.3256  -20.2260  -16.9590 C   0  0  0  0  0  0  0  0  0  0  0  0
   27.6161  -20.1165  -18.1987 S   0  0  0  0  0  0  0  0  0  0  0  0
   25.3419  -21.3842  -15.0777 C   0  0  0  0  0  0  0  0  0  0  0  0
   24.1948  -21.8283  -15.3441 O   0  0  0  0  0  0  0  0  0  0  0  0
   26.0796  -20.1297   -9.4494 C   0  0  0  0  0  0  0  0  0  0  0  0
   25.4086  -21.0728  -10.5008 C   0  0  1  0  0  0  0  0  0  0  0  0
   24.2081  -21.6410   -9.7456 C   0  0  0  0  0  0  0  0  0  0  0  0
   24.9926  -20.1669  -11.5938 C   0  0  0  0  0  0  0  0  0  0  0  0
   24.4059  -20.7099  -12.8383 C   0  0  2  0  0  0  0  0  0  0  0  0
   25.5504  -20.8097  -13.8024 N   0  0  0  0  0  0  0  0  0  0  0  0
   23.3788  -19.8661  -13.4488 C   0  0  0  0  0  0  0  0  0  0  0  0
   22.0287  -20.1327  -13.1333 O   0  0  0  0  0  0  0  0  0  0  0  0
   23.5525  -18.9133  -14.2361 O   0  0  0  0  0  0  0  0  0  0  0  0
  2  3  1  0
  2  1  1  1
  4  2  1  0
  5  4  2  0
  6  4  1  0
  7 10  1  0
  7  6  1  0
  7  8  1  6
  9  8  1  0
 10 11  2  0
 13 12  1  1
 13 14  1  0
 15 13  1  0
 16 15  1  1
 17 16  1  0
 17 10  1  0
 18 16  1  0
 19 18  1  0
 20 18  2  0
M  END
$$$$
