ACL.pdb
     RDKit          3D

 20 19  0  0  1  0  0  0  0  0999 V2000
   18.9833  -13.8428  -21.0945 C   0  0  0  0  0  0  0  0  0  0  0  0
   19.4795  -13.6005  -19.6821 C   0  0  2  0  0  0  0  0  0  0  0  0
   18.7891  -14.4341  -18.7464 N   0  0  0  0  0  0  0  0  0  0  0  0
   19.3189  -12.1662  -19.3799 C   0  0  0  0  0  0  0  0  0  0  0  0
   19.9730  -11.3300  -20.0721 O   0  0  0  0  0  0  0  0  0  0  0  0
   18.4653  -11.6895  -18.3501 N   0  0  0  0  0  0  0  0  0  0  0  0
   18.2643  -10.2938  -18.0472 C   0  0  1  0  0  0  0  0  0  0  0  0
   16.8009   -9.9825  -17.7858 C   0  0  0  0  0  0  0  0  0  0  0  0
   16.5567   -8.3424  -17.1041 S   0  0  0  0  0  0  0  0  0  0  0  0
   18.9928   -9.9898  -16.7640 C   0  0  0  0  0  0  0  0  0  0  0  0
   18.9587  -10.7946  -15.7969 O   0  0  0  0  0  0  0  0  0  0  0  0
   22.2407  -10.1642  -13.3051 C   0  0  0  0  0  0  0  0  0  0  0  0
   22.8515   -9.6405  -14.6459 C   0  0  1  0  0  0  0  0  0  0  0  0
   23.8614  -10.7251  -15.0178 C   0  0  0  0  0  0  0  0  0  0  0  0
   21.7073   -9.6093  -15.5830 C   0  0  0  0  0  0  0  0  0  0  0  0
   20.6177   -8.6246  -15.4069 C   0  0  2  0  0  0  0  0  0  0  0  0
   19.7344   -8.7959  -16.6068 N   0  0  0  0  0  0  0  0  0  0  0  0
   21.0550   -7.2293  -15.3686 C   0  0  0  0  0  0  0  0  0  0  0  0
   21.1562   -6.5330  -16.5927 O   0  0  0  0  0  0  0  0  0  0  0  0
   21.3584   -6.5592  -14.3602 O   0  0  0  0  0  0  0  0  0  0  0  0
  2  3  1  0
  2  1  1  6
  4  2  1  0
  5  4  2  0
  6  4  1  0
  7 10  1  0
  7  6  1  0
  7  8  1  1
  9  8  1  0
 10 11  2  0
 13 12  1  1
 13 14  1  0
 15 13  1  0
 16 15  1  6
 17 16  1  0
 17 10  1  0
 18 16  1  0
 19 18  1  0
 20 18  2  0
M  END
$$$$
