ACL.pdb
     RDKit          3D

 20 19  0  0  1  0  0  0  0  0999 V2000
   27.3450  -19.8127  -15.9621 C   0  0  0  0  0  0  0  0  0  0  0  0
   27.8207  -20.9404  -15.0665 C   0  0  2  0  0  0  0  0  0  0  0  0
   28.2836  -22.0500  -15.8419 N   0  0  0  0  0  0  0  0  0  0  0  0
   26.7126  -21.3089  -14.1662 C   0  0  0  0  0  0  0  0  0  0  0  0
   25.8078  -22.0768  -14.6111 O   0  0  0  0  0  0  0  0  0  0  0  0
   26.6212  -20.8395  -12.8292 N   0  0  0  0  0  0  0  0  0  0  0  0
   25.5550  -21.1850  -11.9215 C   0  0  1  0  0  0  0  0  0  0  0  0
   25.8557  -20.7284  -10.5045 C   0  0  0  0  0  0  0  0  0  0  0  0
   24.4943  -21.0342   -9.3788 S   0  0  0  0  0  0  0  0  0  0  0  0
   24.3214  -20.4341  -12.3505 C   0  0  0  0  0  0  0  0  0  0  0  0
   24.3690  -19.1996  -12.5910 O   0  0  0  0  0  0  0  0  0  0  0  0
   21.9114  -21.1248  -16.5736 C   0  0  0  0  0  0  0  0  0  0  0  0
   22.4522  -20.3184  -15.3480 C   0  0  1  0  0  0  0  0  0  0  0  0
   22.2827  -18.8638  -15.7836 C   0  0  0  0  0  0  0  0  0  0  0  0
   21.5352  -20.6722  -14.2424 C   0  0  0  0  0  0  0  0  0  0  0  0
   21.8561  -20.2937  -12.8489 C   0  0  2  0  0  0  0  0  0  0  0  0
   23.0770  -21.0900  -12.4958 N   0  0  0  0  0  0  0  0  0  0  0  0
   20.8148  -20.6145  -11.8731 C   0  0  0  0  0  0  0  0  0  0  0  0
   19.7931  -19.6642  -11.6578 O   0  0  0  0  0  0  0  0  0  0  0  0
   20.7146  -21.6530  -11.1878 O   0  0  0  0  0  0  0  0  0  0  0  0
  2  3  1  0
  2  1  1  6
  4  2  1  0
  5  4  2  0
  6  4  1  0
  7 10  1  0
  7  6  1  0
  7  8  1  1
  9  8  1  0
 10 11  2  0
 13 12  1  6
 13 14  1  0
 15 13  1  0
 16 15  1  6
 17 16  1  0
 17 10  1  0
 18 16  1  0
 19 18  1  0
 20 18  2  0
M  END
$$$$
