EWC.pdb
     RDKit          3D

 30 31  0  0  1  0  0  0  0  0999 V2000
   28.8114  -21.4321  -14.4346 N   0  0  0  0  0  0  0  0  0  0  0  0
   27.9856  -20.3888  -13.8326 C   0  0  1  0  0  0  0  0  0  0  0  0
   27.1630  -19.8108  -14.9818 C   0  0  0  0  0  0  0  0  0  0  0  0
   28.1598  -19.0832  -15.8765 C   0  0  0  0  0  0  0  0  0  0  0  0
   28.2029  -17.6415  -15.5228 C   0  0  0  0  0  0  0  0  0  0  0  0
   27.2340  -17.0530  -14.9796 O   0  0  0  0  0  0  0  0  0  0  0  0
   27.1099  -20.9912  -12.7956 C   0  0  0  0  0  0  0  0  0  0  0  0
   26.7318  -22.1791  -12.9063 O   0  0  0  0  0  0  0  0  0  0  0  0
   29.3470  -16.9177  -15.7988 O   0  0  0  0  0  0  0  0  0  0  0  0
   26.7062  -20.2333  -11.6939 N   0  0  0  0  0  0  0  0  0  0  0  0
   25.7520  -20.7054  -10.6737 C   0  0  1  0  0  0  0  0  0  0  0  0
   26.1175  -20.0569   -9.3907 C   0  0  0  0  0  0  0  0  0  0  0  0
   27.3965  -20.4808   -8.7907 C   0  0  0  0  0  0  0  0  0  0  0  0
   28.3859  -21.3073   -9.3180 C   0  0  0  0  0  0  0  0  0  0  0  0
   29.3913  -21.4552   -8.4383 N   0  0  0  0  0  0  0  0  0  0  0  0
   29.1145  -20.7523   -7.3261 C   0  0  0  0  0  0  0  0  0  0  0  0
   29.8146  -20.5812   -6.1533 C   0  0  0  0  0  0  0  0  0  0  0  0
   29.2597  -19.7849   -5.1775 C   0  0  0  0  0  0  0  0  0  0  0  0
   28.0325  -19.1724   -5.3676 C   0  0  0  0  0  0  0  0  0  0  0  0
   27.3454  -19.3549   -6.5481 C   0  0  0  0  0  0  0  0  0  0  0  0
   27.8796  -20.1417   -7.5289 C   0  0  0  0  0  0  0  0  0  0  0  0
   24.4102  -20.4891  -11.1864 C   0  0  0  0  0  0  0  0  0  0  0  0
   24.0695  -19.2998  -11.5183 O   0  0  0  0  0  0  0  0  0  0  0  0
   23.4150  -21.4686  -11.3663 N   0  0  0  0  0  0  0  0  0  0  0  0
   22.2089  -21.1640  -12.0636 C   0  0  1  0  0  0  0  0  0  0  0  0
   21.6820  -22.3185  -12.8839 C   0  0  0  0  0  0  0  0  0  0  0  0
   23.0284  -22.8070  -14.0192 S   0  0  0  0  0  0  0  0  0  0  0  0
   21.1454  -20.8295  -11.0795 C   0  0  0  0  0  0  0  0  0  0  0  0
   19.8929  -20.3935  -11.5449 O   0  0  0  0  0  0  0  0  0  0  0  0
   21.2817  -20.9078   -9.8440 O   0  0  0  0  0  0  0  0  0  0  0  0
  2  1  1  6
  2  7  1  0
  3  2  1  0
  3  4  1  0
  4  5  1  0
  5  6  2  0
  7  8  2  0
  9  5  1  0
 10 11  1  0
 10  7  1  0
 12 13  1  0
 11 12  1  1
 13 14  2  0
 15 14  1  0
 16 15  1  0
 17 16  2  0
 18 17  1  0
 19 20  1  0
 19 18  2  0
 20 21  2  0
 21 16  1  0
 21 13  1  0
 22 11  1  0
 22 24  1  0
 23 22  2  0
 25 24  1  0
 25 26  1  1
 27 26  1  0
 28 25  1  0
 29 28  1  0
 30 28  2  0
M  END
$$$$
