EWC.pdb
     RDKit          3D

 30 31  0  0  1  0  0  0  0  0999 V2000
   28.1922  -21.2843  -15.7174 N   0  0  0  0  0  0  0  0  0  0  0  0
   28.4646  -20.4864  -14.5249 C   0  0  1  0  0  0  0  0  0  0  0  0
   28.3056  -19.0332  -14.9658 C   0  0  0  0  0  0  0  0  0  0  0  0
   26.9328  -18.9500  -15.6230 C   0  0  0  0  0  0  0  0  0  0  0  0
   27.0695  -18.4986  -17.0312 C   0  0  0  0  0  0  0  0  0  0  0  0
   26.6054  -19.1566  -17.9965 O   0  0  0  0  0  0  0  0  0  0  0  0
   27.4854  -20.8359  -13.4646 C   0  0  0  0  0  0  0  0  0  0  0  0
   26.5147  -21.5806  -13.7277 O   0  0  0  0  0  0  0  0  0  0  0  0
   27.7295  -17.3135  -17.2940 O   0  0  0  0  0  0  0  0  0  0  0  0
   27.6458  -20.3342  -12.1709 N   0  0  0  0  0  0  0  0  0  0  0  0
   26.8580  -20.7845  -11.0086 C   0  0  1  0  0  0  0  0  0  0  0  0
   27.5989  -20.3827   -9.7881 C   0  0  0  0  0  0  0  0  0  0  0  0
   26.8908  -20.5708   -8.5079 C   0  0  0  0  0  0  0  0  0  0  0  0
   25.6172  -21.0834   -8.2726 C   0  0  0  0  0  0  0  0  0  0  0  0
   25.3422  -21.0703   -6.9571 N   0  0  0  0  0  0  0  0  0  0  0  0
   26.3931  -20.5630   -6.2892 C   0  0  0  0  0  0  0  0  0  0  0  0
   26.6051  -20.3428   -4.9471 C   0  0  0  0  0  0  0  0  0  0  0  0
   27.8093  -19.7988   -4.5619 C   0  0  0  0  0  0  0  0  0  0  0  0
   28.7811  -19.4814   -5.4957 C   0  0  0  0  0  0  0  0  0  0  0  0
   28.5517  -19.7087   -6.8353 C   0  0  0  0  0  0  0  0  0  0  0  0
   27.3627  -20.2480   -7.2377 C   0  0  0  0  0  0  0  0  0  0  0  0
   25.5015  -20.2916  -11.1734 C   0  0  0  0  0  0  0  0  0  0  0  0
   25.3202  -19.0269  -11.2650 O   0  0  0  0  0  0  0  0  0  0  0  0
   24.3312  -21.0706  -11.2478 N   0  0  0  0  0  0  0  0  0  0  0  0
   23.1014  -20.4997  -11.6897 C   0  0  1  0  0  0  0  0  0  0  0  0
   22.4079  -21.3180  -12.7539 C   0  0  0  0  0  0  0  0  0  0  0  0
   22.3601  -23.0382  -12.1383 S   0  0  0  0  0  0  0  0  0  0  0  0
   22.1587  -20.4192  -10.5424 C   0  0  0  0  0  0  0  0  0  0  0  0
   20.9290  -19.7597  -10.7101 O   0  0  0  0  0  0  0  0  0  0  0  0
   22.3798  -20.9030   -9.4162 O   0  0  0  0  0  0  0  0  0  0  0  0
  2  1  1  6
  2  7  1  0
  3  2  1  0
  3  4  1  0
  4  5  1  0
  5  6  2  0
  7  8  2  0
  9  5  1  0
 10 11  1  0
 10  7  1  0
 12 13  1  0
 11 12  1  1
 13 14  2  0
 15 14  1  0
 16 15  1  0
 17 16  2  0
 18 17  1  0
 19 20  1  0
 19 18  2  0
 20 21  2  0
 21 16  1  0
 21 13  1  0
 22 11  1  0
 22 24  1  0
 23 22  2  0
 25 24  1  0
 25 26  1  6
 27 26  1  0
 28 25  1  0
 29 28  1  0
 30 28  2  0
M  END
$$$$
