EWC.pdb
     RDKit          3D

 30 31  0  0  1  0  0  0  0  0999 V2000
   27.8348  -20.8157  -16.3972 N   0  0  0  0  0  0  0  0  0  0  0  0
   27.3545  -22.1805  -16.1982 C   0  0  1  0  0  0  0  0  0  0  0  0
   28.6119  -23.0380  -16.0760 C   0  0  0  0  0  0  0  0  0  0  0  0
   29.2193  -23.0798  -17.4734 C   0  0  0  0  0  0  0  0  0  0  0  0
   28.5310  -24.1064  -18.2968 C   0  0  0  0  0  0  0  0  0  0  0  0
   28.2861  -25.2613  -17.8651 O   0  0  0  0  0  0  0  0  0  0  0  0
   26.5414  -22.2400  -14.9570 C   0  0  0  0  0  0  0  0  0  0  0  0
   26.1788  -23.3459  -14.4968 O   0  0  0  0  0  0  0  0  0  0  0  0
   28.1442  -23.7845  -19.5835 O   0  0  0  0  0  0  0  0  0  0  0  0
   26.1795  -21.0616  -14.3002 N   0  0  0  0  0  0  0  0  0  0  0  0
   25.4346  -21.0222  -13.0282 C   0  0  1  0  0  0  0  0  0  0  0  0
   26.0866  -20.0086  -12.1636 C   0  0  0  0  0  0  0  0  0  0  0  0
   27.2147  -20.4858  -11.3418 C   0  0  0  0  0  0  0  0  0  0  0  0
   28.4775  -20.9150  -11.7431 C   0  0  0  0  0  0  0  0  0  0  0  0
   29.2082  -21.2834  -10.6769 N   0  0  0  0  0  0  0  0  0  0  0  0
   28.4785  -21.1171   -9.5601 C   0  0  0  0  0  0  0  0  0  0  0  0
   28.7687  -21.3466   -8.2342 C   0  0  0  0  0  0  0  0  0  0  0  0
   27.7949  -21.0730   -7.3008 C   0  0  0  0  0  0  0  0  0  0  0  0
   26.5580  -20.5811   -7.6821 C   0  0  0  0  0  0  0  0  0  0  0  0
   26.2847  -20.3574   -9.0140 C   0  0  0  0  0  0  0  0  0  0  0  0
   27.2384  -20.6227   -9.9557 C   0  0  0  0  0  0  0  0  0  0  0  0
   24.0277  -20.8437  -13.3425 C   0  0  0  0  0  0  0  0  0  0  0  0
   23.6834  -19.8231  -14.0356 O   0  0  0  0  0  0  0  0  0  0  0  0
   22.9708  -21.6921  -12.9613 N   0  0  0  0  0  0  0  0  0  0  0  0
   21.6266  -21.3964  -13.3348 C   0  0  1  0  0  0  0  0  0  0  0  0
   20.7852  -22.6284  -13.5738 C   0  0  0  0  0  0  0  0  0  0  0  0
   21.7267  -23.6847  -14.7306 S   0  0  0  0  0  0  0  0  0  0  0  0
   20.9666  -20.6453  -12.2340 C   0  0  0  0  0  0  0  0  0  0  0  0
   19.6667  -20.1469  -12.4271 O   0  0  0  0  0  0  0  0  0  0  0  0
   21.4891  -20.4180  -11.1265 O   0  0  0  0  0  0  0  0  0  0  0  0
  2  1  1  1
  2  7  1  0
  3  2  1  0
  3  4  1  0
  4  5  1  0
  5  6  2  0
  7  8  2  0
  9  5  1  0
 10 11  1  0
 10  7  1  0
 12 13  1  0
 11 12  1  1
 13 14  2  0
 15 14  1  0
 16 15  1  0
 17 16  2  0
 18 17  1  0
 19 20  1  0
 19 18  2  0
 20 21  2  0
 21 16  1  0
 21 13  1  0
 22 11  1  0
 22 24  1  0
 23 22  2  0
 25 24  1  0
 25 26  1  1
 27 26  1  0
 28 25  1  0
 29 28  1  0
 30 28  2  0
M  END
$$$$
