EWC.pdb
     RDKit          3D

 30 31  0  0  1  0  0  0  0  0999 V2000
   26.9065  -24.5876  -16.3133 N   0  0  0  0  0  0  0  0  0  0  0  0
   25.6183  -23.9128  -16.1786 C   0  0  1  0  0  0  0  0  0  0  0  0
   24.5695  -25.0164  -16.2951 C   0  0  0  0  0  0  0  0  0  0  0  0
   24.4375  -25.3034  -17.7863 C   0  0  0  0  0  0  0  0  0  0  0  0
   23.8034  -24.1489  -18.4723 C   0  0  0  0  0  0  0  0  0  0  0  0
   22.7748  -23.5823  -18.0240 O   0  0  0  0  0  0  0  0  0  0  0  0
   25.5490  -23.2440  -14.8546 C   0  0  0  0  0  0  0  0  0  0  0  0
   25.9602  -23.8347  -13.8309 O   0  0  0  0  0  0  0  0  0  0  0  0
   24.3611  -23.6776  -19.6453 O   0  0  0  0  0  0  0  0  0  0  0  0
   25.0247  -21.9537  -14.7489 N   0  0  0  0  0  0  0  0  0  0  0  0
   25.0966  -21.1323  -13.5264 C   0  0  1  0  0  0  0  0  0  0  0  0
   25.8209  -19.8848  -13.8721 C   0  0  0  0  0  0  0  0  0  0  0  0
   27.2830  -19.9088  -13.6788 C   0  0  0  0  0  0  0  0  0  0  0  0
   28.2918  -19.4693  -14.5326 C   0  0  0  0  0  0  0  0  0  0  0  0
   29.4990  -19.6867  -13.9831 N   0  0  0  0  0  0  0  0  0  0  0  0
   29.3408  -20.2623  -12.7784 C   0  0  0  0  0  0  0  0  0  0  0  0
   30.2533  -20.6763  -11.8347 C   0  0  0  0  0  0  0  0  0  0  0  0
   29.7748  -21.2417  -10.6746 C   0  0  0  0  0  0  0  0  0  0  0  0
   28.4149  -21.3909  -10.4608 C   0  0  0  0  0  0  0  0  0  0  0  0
   27.5156  -20.9708  -11.4166 C   0  0  0  0  0  0  0  0  0  0  0  0
   27.9709  -20.4070  -12.5748 C   0  0  0  0  0  0  0  0  0  0  0  0
   23.7510  -21.0112  -12.9927 C   0  0  0  0  0  0  0  0  0  0  0  0
   22.7624  -21.1771  -13.7903 O   0  0  0  0  0  0  0  0  0  0  0  0
   23.4021  -20.7257  -11.6590 N   0  0  0  0  0  0  0  0  0  0  0  0
   22.0343  -20.6359  -11.2657 C   0  0  1  0  0  0  0  0  0  0  0  0
   21.8491  -20.4334   -9.7798 C   0  0  0  0  0  0  0  0  0  0  0  0
   23.4685  -20.7718   -9.0030 S   0  0  0  0  0  0  0  0  0  0  0  0
   21.4100  -19.4609  -11.9297 C   0  0  0  0  0  0  0  0  0  0  0  0
   20.0333  -19.2310  -11.7646 O   0  0  0  0  0  0  0  0  0  0  0  0
   22.0278  -18.6441  -12.6386 O   0  0  0  0  0  0  0  0  0  0  0  0
  2  1  1  1
  2  7  1  0
  3  2  1  0
  3  4  1  0
  4  5  1  0
  5  6  2  0
  7  8  2  0
  9  5  1  0
 10 11  1  0
 10  7  1  0
 12 13  1  0
 11 12  1  6
 13 14  2  0
 15 14  1  0
 16 15  1  0
 17 16  2  0
 18 17  1  0
 19 20  1  0
 19 18  2  0
 20 21  2  0
 21 16  1  0
 21 13  1  0
 22 11  1  0
 22 24  1  0
 23 22  2  0
 25 24  1  0
 25 26  1  1
 27 26  1  0
 28 25  1  0
 29 28  1  0
 30 28  2  0
M  END
$$$$
