EWC.pdb
     RDKit          3D

 30 31  0  0  1  0  0  0  0  0999 V2000
   23.7501  -20.1239  -14.8002 N   0  0  0  0  0  0  0  0  0  0  0  0
   23.2952  -19.4146  -13.6075 C   0  0  1  0  0  0  0  0  0  0  0  0
   21.9290  -18.8401  -13.9750 C   0  0  0  0  0  0  0  0  0  0  0  0
   21.2134  -19.9418  -14.7480 C   0  0  0  0  0  0  0  0  0  0  0  0
   19.8664  -19.4772  -15.1663 C   0  0  0  0  0  0  0  0  0  0  0  0
   19.6986  -18.4548  -15.8780 O   0  0  0  0  0  0  0  0  0  0  0  0
   23.1887  -20.3711  -12.4765 C   0  0  0  0  0  0  0  0  0  0  0  0
   22.9457  -21.5788  -12.6969 O   0  0  0  0  0  0  0  0  0  0  0  0
   18.7553  -20.1917  -14.7611 O   0  0  0  0  0  0  0  0  0  0  0  0
   23.3596  -19.9249  -11.1640 N   0  0  0  0  0  0  0  0  0  0  0  0
   23.4439  -20.8183   -9.9940 C   0  0  1  0  0  0  0  0  0  0  0  0
   24.3299  -20.1650   -8.9999 C   0  0  0  0  0  0  0  0  0  0  0  0
   25.7622  -20.5073   -9.0834 C   0  0  0  0  0  0  0  0  0  0  0  0
   26.4428  -21.2147  -10.0716 C   0  0  0  0  0  0  0  0  0  0  0  0
   27.7456  -21.3214   -9.7588 N   0  0  0  0  0  0  0  0  0  0  0  0
   27.9718  -20.7062   -8.5850 C   0  0  0  0  0  0  0  0  0  0  0  0
   29.1209  -20.5378   -7.8461 C   0  0  0  0  0  0  0  0  0  0  0  0
   29.0329  -19.8466   -6.6592 C   0  0  0  0  0  0  0  0  0  0  0  0
   27.8242  -19.3343   -6.2189 C   0  0  0  0  0  0  0  0  0  0  0  0
   26.6837  -19.5123   -6.9715 C   0  0  0  0  0  0  0  0  0  0  0  0
   26.7505  -20.1957   -8.1526 C   0  0  0  0  0  0  0  0  0  0  0  0
   22.0886  -21.1446   -9.5856 C   0  0  0  0  0  0  0  0  0  0  0  0
   21.2237  -20.2011   -9.5360 O   0  0  0  0  0  0  0  0  0  0  0  0
   21.6053  -22.4183   -9.2302 N   0  0  0  0  0  0  0  0  0  0  0  0
   20.2678  -22.5877   -8.7653 C   0  0  1  0  0  0  0  0  0  0  0  0
   19.5081  -23.6658   -9.5028 C   0  0  0  0  0  0  0  0  0  0  0  0
   17.8757  -23.7990   -8.6918 S   0  0  0  0  0  0  0  0  0  0  0  0
   20.2944  -22.9969   -7.3359 C   0  0  0  0  0  0  0  0  0  0  0  0
   19.1439  -22.8156   -6.5491 O   0  0  0  0  0  0  0  0  0  0  0  0
   21.2815  -23.5006   -6.7675 O   0  0  0  0  0  0  0  0  0  0  0  0
  2  1  1  6
  2  7  1  0
  3  2  1  0
  3  4  1  0
  4  5  1  0
  5  6  2  0
  7  8  2  0
  9  5  1  0
 10 11  1  0
 10  7  1  0
 12 13  1  0
 11 12  1  1
 13 14  2  0
 15 14  1  0
 16 15  1  0
 17 16  2  0
 18 17  1  0
 19 20  1  0
 19 18  2  0
 20 21  2  0
 21 16  1  0
 21 13  1  0
 22 11  1  0
 22 24  1  0
 23 22  2  0
 25 24  1  0
 25 26  1  6
 27 26  1  0
 28 25  1  0
 29 28  1  0
 30 28  2  0
M  END
$$$$
