EWC.pdb
     RDKit          3D

 30 31  0  0  1  0  0  0  0  0999 V2000
   27.7607  -18.9456  -17.3417 N   0  0  0  0  0  0  0  0  0  0  0  0
   27.2269  -20.3019  -17.4336 C   0  0  1  0  0  0  0  0  0  0  0  0
   28.2780  -21.0989  -18.2027 C   0  0  0  0  0  0  0  0  0  0  0  0
   27.5444  -21.7076  -19.3921 C   0  0  0  0  0  0  0  0  0  0  0  0
   28.0855  -23.0590  -19.6862 C   0  0  0  0  0  0  0  0  0  0  0  0
   29.2185  -23.2321  -20.2022 O   0  0  0  0  0  0  0  0  0  0  0  0
   27.0331  -20.8483  -16.0665 C   0  0  0  0  0  0  0  0  0  0  0  0
   26.4137  -21.9233  -15.9023 O   0  0  0  0  0  0  0  0  0  0  0  0
   27.3194  -24.1682  -19.3829 O   0  0  0  0  0  0  0  0  0  0  0  0
   27.5419  -20.1635  -14.9604 N   0  0  0  0  0  0  0  0  0  0  0  0
   27.3776  -20.6128  -13.5656 C   0  0  1  0  0  0  0  0  0  0  0  0
   28.4830  -20.0185  -12.7750 C   0  0  0  0  0  0  0  0  0  0  0  0
   28.6230  -20.5036  -11.3891 C   0  0  0  0  0  0  0  0  0  0  0  0
   29.5148  -21.4385  -10.8688 C   0  0  0  0  0  0  0  0  0  0  0  0
   29.3005  -21.6091   -9.5530 N   0  0  0  0  0  0  0  0  0  0  0  0
   28.2874  -20.8163   -9.1620 C   0  0  0  0  0  0  0  0  0  0  0  0
   27.6949  -20.6263   -7.9342 C   0  0  0  0  0  0  0  0  0  0  0  0
   26.6564  -19.7271   -7.8479 C   0  0  0  0  0  0  0  0  0  0  0  0
   26.2185  -19.0324   -8.9627 C   0  0  0  0  0  0  0  0  0  0  0  0
   26.8235  -19.2351  -10.1841 C   0  0  0  0  0  0  0  0  0  0  0  0
   27.8559  -20.1235  -10.2903 C   0  0  0  0  0  0  0  0  0  0  0  0
   26.0150  -20.3140  -13.1602 C   0  0  0  0  0  0  0  0  0  0  0  0
   25.5321  -19.1634  -13.4495 O   0  0  0  0  0  0  0  0  0  0  0  0
   25.1407  -21.1726  -12.4670 N   0  0  0  0  0  0  0  0  0  0  0  0
   23.8290  -20.7435  -12.1080 C   0  0  1  0  0  0  0  0  0  0  0  0
   22.7801  -21.0936  -13.1378 C   0  0  0  0  0  0  0  0  0  0  0  0
   22.3515  -22.8496  -12.8673 S   0  0  0  0  0  0  0  0  0  0  0  0
   23.4207  -21.4190  -10.8477 C   0  0  0  0  0  0  0  0  0  0  0  0
   24.2705  -22.3841  -10.2804 O   0  0  0  0  0  0  0  0  0  0  0  0
   22.3575  -21.1904  -10.2406 O   0  0  0  0  0  0  0  0  0  0  0  0
  2  1  1  1
  2  7  1  0
  3  2  1  0
  3  4  1  0
  4  5  1  0
  5  6  2  0
  7  8  2  0
  9  5  1  0
 10 11  1  0
 10  7  1  0
 12 13  1  0
 11 12  1  1
 13 14  2  0
 15 14  1  0
 16 15  1  0
 17 16  2  0
 18 17  1  0
 19 20  1  0
 19 18  2  0
 20 21  2  0
 21 16  1  0
 21 13  1  0
 22 11  1  0
 22 24  1  0
 23 22  2  0
 25 24  1  0
 25 26  1  6
 27 26  1  0
 28 25  1  0
 29 28  1  0
 30 28  2  0
M  END
$$$$
