EWC.pdb
     RDKit          3D

 30 31  0  0  1  0  0  0  0  0999 V2000
   29.2762  -20.9208  -16.7932 N   0  0  0  0  0  0  0  0  0  0  0  0
   27.9137  -21.2915  -17.1660 C   0  0  1  0  0  0  0  0  0  0  0  0
   28.0665  -22.3579  -18.2482 C   0  0  0  0  0  0  0  0  0  0  0  0
   27.3660  -21.7974  -19.4805 C   0  0  0  0  0  0  0  0  0  0  0  0
   28.3645  -21.2122  -20.4112 C   0  0  0  0  0  0  0  0  0  0  0  0
   29.1449  -21.9228  -21.0939 O   0  0  0  0  0  0  0  0  0  0  0  0
   27.2075  -21.8312  -15.9764 C   0  0  0  0  0  0  0  0  0  0  0  0
   27.3055  -23.0444  -15.6853 O   0  0  0  0  0  0  0  0  0  0  0  0
   28.4413  -19.8382  -20.5342 O   0  0  0  0  0  0  0  0  0  0  0  0
   26.4321  -20.9858  -15.1795 N   0  0  0  0  0  0  0  0  0  0  0  0
   25.7862  -21.4024  -13.9211 C   0  0  1  0  0  0  0  0  0  0  0  0
   25.8752  -20.2612  -12.9778 C   0  0  0  0  0  0  0  0  0  0  0  0
   25.2599  -20.4651  -11.6529 C   0  0  0  0  0  0  0  0  0  0  0  0
   25.7973  -21.0604  -10.5142 C   0  0  0  0  0  0  0  0  0  0  0  0
   24.8975  -21.0601   -9.5158 N   0  0  0  0  0  0  0  0  0  0  0  0
   23.7617  -20.4809   -9.9425 C   0  0  0  0  0  0  0  0  0  0  0  0
   22.5629  -20.2408   -9.3102 C   0  0  0  0  0  0  0  0  0  0  0  0
   21.5667  -19.6157  -10.0252 C   0  0  0  0  0  0  0  0  0  0  0  0
   21.7624  -19.2384  -11.3430 C   0  0  0  0  0  0  0  0  0  0  0  0
   22.9691  -19.4867  -11.9603 C   0  0  0  0  0  0  0  0  0  0  0  0
   23.9704  -20.1061  -11.2673 C   0  0  0  0  0  0  0  0  0  0  0  0
   24.4661  -21.9133  -14.2472 C   0  0  0  0  0  0  0  0  0  0  0  0
   23.7824  -21.3056  -15.1439 O   0  0  0  0  0  0  0  0  0  0  0  0
   23.8372  -23.0344  -13.6730 N   0  0  0  0  0  0  0  0  0  0  0  0
   22.5857  -23.5035  -14.1704 C   0  0  1  0  0  0  0  0  0  0  0  0
   22.4293  -25.0038  -14.0830 C   0  0  0  0  0  0  0  0  0  0  0  0
   23.8322  -25.7274  -15.0042 S   0  0  0  0  0  0  0  0  0  0  0  0
   21.4858  -22.9196  -13.3575 C   0  0  0  0  0  0  0  0  0  0  0  0
   20.1532  -23.1500  -13.7403 O   0  0  0  0  0  0  0  0  0  0  0  0
   21.6580  -22.2249  -12.3382 O   0  0  0  0  0  0  0  0  0  0  0  0
  2  1  1  1
  2  7  1  0
  3  2  1  0
  3  4  1  0
  4  5  1  0
  5  6  2  0
  7  8  2  0
  9  5  1  0
 10 11  1  0
 10  7  1  0
 12 13  1  0
 11 12  1  1
 13 14  2  0
 15 14  1  0
 16 15  1  0
 17 16  2  0
 18 17  1  0
 19 20  1  0
 19 18  2  0
 20 21  2  0
 21 16  1  0
 21 13  1  0
 22 11  1  0
 22 24  1  0
 23 22  2  0
 25 24  1  0
 25 26  1  1
 27 26  1  0
 28 25  1  0
 29 28  1  0
 30 28  2  0
M  END
$$$$
