EWC.pdb
     RDKit          3D

 30 31  0  0  1  0  0  0  0  0999 V2000
   29.1274  -23.0841  -17.2763 N   0  0  0  0  0  0  0  0  0  0  0  0
   28.2749  -21.9457  -16.9445 C   0  0  1  0  0  0  0  0  0  0  0  0
   27.2983  -21.8181  -18.1113 C   0  0  0  0  0  0  0  0  0  0  0  0
   28.1627  -21.6508  -19.3555 C   0  0  0  0  0  0  0  0  0  0  0  0
   28.7951  -20.3071  -19.3587 C   0  0  0  0  0  0  0  0  0  0  0  0
   28.1242  -19.2478  -19.2705 O   0  0  0  0  0  0  0  0  0  0  0  0
   27.5591  -22.2209  -15.6729 C   0  0  0  0  0  0  0  0  0  0  0  0
   26.8967  -23.2745  -15.5410 O   0  0  0  0  0  0  0  0  0  0  0  0
   30.1698  -20.2137  -19.4619 O   0  0  0  0  0  0  0  0  0  0  0  0
   27.6236  -21.3044  -14.6208 N   0  0  0  0  0  0  0  0  0  0  0  0
   26.9111  -21.4679  -13.3402 C   0  0  1  0  0  0  0  0  0  0  0  0
   27.6134  -20.6362  -12.3326 C   0  0  0  0  0  0  0  0  0  0  0  0
   26.9246  -20.4640  -11.0397 C   0  0  0  0  0  0  0  0  0  0  0  0
   25.6361  -20.0018  -10.7825 C   0  0  0  0  0  0  0  0  0  0  0  0
   25.4001  -19.9829   -9.4595 N   0  0  0  0  0  0  0  0  0  0  0  0
   26.4920  -20.4194   -8.8078 C   0  0  0  0  0  0  0  0  0  0  0  0
   26.7525  -20.5849   -7.4664 C   0  0  0  0  0  0  0  0  0  0  0  0
   27.9910  -21.0609   -7.1005 C   0  0  0  0  0  0  0  0  0  0  0  0
   28.9491  -21.3653   -8.0526 C   0  0  0  0  0  0  0  0  0  0  0  0
   28.6711  -21.1935   -9.3912 C   0  0  0  0  0  0  0  0  0  0  0  0
   27.4474  -20.7220   -9.7746 C   0  0  0  0  0  0  0  0  0  0  0  0
   25.5029  -21.2026  -13.5782 C   0  0  0  0  0  0  0  0  0  0  0  0
   25.1881  -20.2162  -14.3323 O   0  0  0  0  0  0  0  0  0  0  0  0
   24.4149  -21.9300  -13.0595 N   0  0  0  0  0  0  0  0  0  0  0  0
   23.0858  -21.6749  -13.5089 C   0  0  1  0  0  0  0  0  0  0  0  0
   22.3307  -22.9267  -13.8911 C   0  0  0  0  0  0  0  0  0  0  0  0
   20.6421  -22.3966  -14.3473 S   0  0  0  0  0  0  0  0  0  0  0  0
   22.3115  -21.0374  -12.4110 C   0  0  0  0  0  0  0  0  0  0  0  0
   21.1247  -20.3499  -12.7181 O   0  0  0  0  0  0  0  0  0  0  0  0
   22.6411  -21.0662  -11.2102 O   0  0  0  0  0  0  0  0  0  0  0  0
  2  1  1  6
  2  7  1  0
  3  2  1  0
  3  4  1  0
  4  5  1  0
  5  6  2  0
  7  8  2  0
  9  5  1  0
 10 11  1  0
 10  7  1  0
 12 13  1  0
 11 12  1  1
 13 14  2  0
 15 14  1  0
 16 15  1  0
 17 16  2  0
 18 17  1  0
 19 20  1  0
 19 18  2  0
 20 21  2  0
 21 16  1  0
 21 13  1  0
 22 11  1  0
 22 24  1  0
 23 22  2  0
 25 24  1  0
 25 26  1  1
 27 26  1  0
 28 25  1  0
 29 28  1  0
 30 28  2  0
M  END
$$$$
