EWC.pdb
     RDKit          3D

 30 31  0  0  1  0  0  0  0  0999 V2000
   27.7771  -24.3169  -17.0407 N   0  0  0  0  0  0  0  0  0  0  0  0
   27.4032  -22.9456  -16.7051 C   0  0  1  0  0  0  0  0  0  0  0  0
   26.4406  -22.5079  -17.8066 C   0  0  0  0  0  0  0  0  0  0  0  0
   27.3170  -22.1505  -19.0014 C   0  0  0  0  0  0  0  0  0  0  0  0
   28.1349  -20.9503  -18.6916 C   0  0  0  0  0  0  0  0  0  0  0  0
   27.6216  -19.8630  -18.3249 O   0  0  0  0  0  0  0  0  0  0  0  0
   26.7418  -22.9270  -15.3757 C   0  0  0  0  0  0  0  0  0  0  0  0
   25.9945  -23.8706  -15.0333 O   0  0  0  0  0  0  0  0  0  0  0  0
   29.5094  -21.0275  -18.8090 O   0  0  0  0  0  0  0  0  0  0  0  0
   26.9526  -21.8561  -14.5040 N   0  0  0  0  0  0  0  0  0  0  0  0
   26.2906  -21.7171  -13.1938 C   0  0  1  0  0  0  0  0  0  0  0  0
   27.1621  -20.8692  -12.3442 C   0  0  0  0  0  0  0  0  0  0  0  0
   26.6444  -20.5481  -11.0009 C   0  0  0  0  0  0  0  0  0  0  0  0
   25.3980  -20.0464  -10.6338 C   0  0  0  0  0  0  0  0  0  0  0  0
   25.3336  -19.8793   -9.3017 N   0  0  0  0  0  0  0  0  0  0  0  0
   26.5016  -20.2534   -8.7508 C   0  0  0  0  0  0  0  0  0  0  0  0
   26.9326  -20.2730   -7.4436 C   0  0  0  0  0  0  0  0  0  0  0  0
   28.2093  -20.7194   -7.1888 C   0  0  0  0  0  0  0  0  0  0  0  0
   29.0384  -21.1372   -8.2160 C   0  0  0  0  0  0  0  0  0  0  0  0
   28.5903  -21.1108   -9.5189 C   0  0  0  0  0  0  0  0  0  0  0  0
   27.3260  -20.6710   -9.7923 C   0  0  0  0  0  0  0  0  0  0  0  0
   24.9286  -21.2701  -13.4293 C   0  0  0  0  0  0  0  0  0  0  0  0
   24.7454  -20.2357  -14.1622 O   0  0  0  0  0  0  0  0  0  0  0  0
   23.7544  -21.8647  -12.9296 N   0  0  0  0  0  0  0  0  0  0  0  0
   22.4725  -21.3241  -13.2427 C   0  0  1  0  0  0  0  0  0  0  0  0
   21.4872  -22.3603  -13.7313 C   0  0  0  0  0  0  0  0  0  0  0  0
   22.3217  -23.2796  -15.0725 S   0  0  0  0  0  0  0  0  0  0  0  0
   21.8796  -20.7280  -12.0161 C   0  0  0  0  0  0  0  0  0  0  0  0
   20.6330  -20.0843  -12.1000 O   0  0  0  0  0  0  0  0  0  0  0  0
   22.4153  -20.7554  -10.8920 O   0  0  0  0  0  0  0  0  0  0  0  0
  2  1  1  6
  2  7  1  0
  3  2  1  0
  3  4  1  0
  4  5  1  0
  5  6  2  0
  7  8  2  0
  9  5  1  0
 10 11  1  0
 10  7  1  0
 12 13  1  0
 11 12  1  1
 13 14  2  0
 15 14  1  0
 16 15  1  0
 17 16  2  0
 18 17  1  0
 19 20  1  0
 19 18  2  0
 20 21  2  0
 21 16  1  0
 21 13  1  0
 22 11  1  0
 22 24  1  0
 23 22  2  0
 25 24  1  0
 25 26  1  1
 27 26  1  0
 28 25  1  0
 29 28  1  0
 30 28  2  0
M  END
$$$$
