EWC.pdb
     RDKit          3D

 30 31  0  0  1  0  0  0  0  0999 V2000
   28.8853  -23.1299  -16.3373 N   0  0  0  0  0  0  0  0  0  0  0  0
   27.9648  -21.9976  -16.2801 C   0  0  1  0  0  0  0  0  0  0  0  0
   27.0569  -22.1527  -17.4980 C   0  0  0  0  0  0  0  0  0  0  0  0
   27.2930  -23.5688  -18.0100 C   0  0  0  0  0  0  0  0  0  0  0  0
   26.1594  -24.4459  -17.6213 C   0  0  0  0  0  0  0  0  0  0  0  0
   26.3289  -25.5392  -17.0245 O   0  0  0  0  0  0  0  0  0  0  0  0
   27.1851  -22.0604  -15.0179 C   0  0  0  0  0  0  0  0  0  0  0  0
   26.9874  -23.1612  -14.4564 O   0  0  0  0  0  0  0  0  0  0  0  0
   24.8710  -24.0496  -17.9243 O   0  0  0  0  0  0  0  0  0  0  0  0
   26.6705  -20.8905  -14.4542 N   0  0  0  0  0  0  0  0  0  0  0  0
   25.9316  -20.8458  -13.1789 C   0  0  1  0  0  0  0  0  0  0  0  0
   26.5524  -19.7891  -12.3433 C   0  0  0  0  0  0  0  0  0  0  0  0
   27.5226  -20.2484  -11.3317 C   0  0  0  0  0  0  0  0  0  0  0  0
   28.8177  -20.7298  -11.5077 C   0  0  0  0  0  0  0  0  0  0  0  0
   29.3612  -21.0574  -10.3230 N   0  0  0  0  0  0  0  0  0  0  0  0
   28.4725  -20.8125   -9.3443 C   0  0  0  0  0  0  0  0  0  0  0  0
   28.5453  -20.9763   -7.9795 C   0  0  0  0  0  0  0  0  0  0  0  0
   27.4476  -20.6284   -7.2255 C   0  0  0  0  0  0  0  0  0  0  0  0
   26.3019  -20.1277   -7.8204 C   0  0  0  0  0  0  0  0  0  0  0  0
   26.2466  -19.9703   -9.1883 C   0  0  0  0  0  0  0  0  0  0  0  0
   27.3259  -20.3100   -9.9541 C   0  0  0  0  0  0  0  0  0  0  0  0
   24.5176  -20.7241  -13.4888 C   0  0  0  0  0  0  0  0  0  0  0  0
   24.1431  -19.7729  -14.2606 O   0  0  0  0  0  0  0  0  0  0  0  0
   23.4840  -21.5594  -13.0241 N   0  0  0  0  0  0  0  0  0  0  0  0
   22.1336  -21.3433  -13.4283 C   0  0  1  0  0  0  0  0  0  0  0  0
   21.2548  -22.5610  -13.2607 C   0  0  0  0  0  0  0  0  0  0  0  0
   22.0790  -23.9244  -14.1564 S   0  0  0  0  0  0  0  0  0  0  0  0
   21.5349  -20.2752  -12.5845 C   0  0  0  0  0  0  0  0  0  0  0  0
   20.2264  -19.8396  -12.8557 O   0  0  0  0  0  0  0  0  0  0  0  0
   22.1174  -19.7227  -11.6323 O   0  0  0  0  0  0  0  0  0  0  0  0
  2  1  1  1
  2  7  1  0
  3  2  1  0
  3  4  1  0
  4  5  1  0
  5  6  2  0
  7  8  2  0
  9  5  1  0
 10 11  1  0
 10  7  1  0
 12 13  1  0
 11 12  1  1
 13 14  2  0
 15 14  1  0
 16 15  1  0
 17 16  2  0
 18 17  1  0
 19 20  1  0
 19 18  2  0
 20 21  2  0
 21 16  1  0
 21 13  1  0
 22 11  1  0
 22 24  1  0
 23 22  2  0
 25 24  1  0
 25 26  1  1
 27 26  1  0
 28 25  1  0
 29 28  1  0
 30 28  2  0
M  END
$$$$
