PYH.pdb
     RDKit          3D

 30 32  0  0  1  0  0  0  0  0999 V2000
    7.3803  -15.3338   19.0105 N   0  0  0  0  0  0  0  0  0  0  0  0
    7.3226  -15.0559   17.5665 C   0  0  0  0  0  0  0  0  0  0  0  0
    7.6486  -13.5768   17.5587 C   0  0  0  0  0  0  0  0  0  0  0  0
    8.6519  -13.4176   18.7042 C   0  0  0  0  0  0  0  0  0  0  0  0
    8.6954  -14.8064   19.3144 C   0  0  1  0  0  0  0  0  0  0  0  0
    8.9656  -14.7322   20.7698 C   0  0  0  0  0  0  0  0  0  0  0  0
   10.1433  -14.6045   21.1945 O   0  0  0  0  0  0  0  0  0  0  0  0
    7.6299  -12.5170   29.1254 O   0  0  0  0  0  0  0  0  0  0  0  0
    7.4153  -12.8728   27.7918 C   0  0  0  0  0  0  0  0  0  0  0  0
    7.8927  -12.0737   26.7596 C   0  0  0  0  0  0  0  0  0  0  0  0
    7.6827  -12.4218   25.4452 C   0  0  0  0  0  0  0  0  0  0  0  0
    6.9983  -13.5641   25.0916 C   0  0  0  0  0  0  0  0  0  0  0  0
    6.7838  -13.9215   23.6652 C   0  0  0  0  0  0  0  0  0  0  0  0
    8.0065  -14.5772   23.0649 C   0  0  2  0  0  0  0  0  0  0  0  0
    7.8632  -14.8094   21.6470 N   0  0  0  0  0  0  0  0  0  0  0  0
    8.2309  -15.8601   23.7769 C   0  0  0  0  0  0  0  0  0  0  0  0
    7.4145  -16.7973   23.6041 O   0  0  0  0  0  0  0  0  0  0  0  0
    6.5244  -14.3573   26.1119 C   0  0  0  0  0  0  0  0  0  0  0  0
    6.7309  -14.0150   27.4511 C   0  0  0  0  0  0  0  0  0  0  0  0
    9.3154  -16.0907   24.6427 N   0  0  0  0  0  0  0  0  0  0  0  0
    9.6404  -17.3608   25.2598 C   0  0  1  0  0  0  0  0  0  0  0  0
   11.0774  -17.7623   24.9378 C   0  0  0  0  0  0  0  0  0  0  0  0
   11.1846  -17.9545   23.4609 C   0  0  0  0  0  0  0  0  0  0  0  0
   11.8876  -17.2125   22.5442 C   0  0  0  0  0  0  0  0  0  0  0  0
   11.7248  -17.7175   21.2951 N   0  0  0  0  0  0  0  0  0  0  0  0
   10.9135  -18.7802   21.4474 C   0  0  0  0  0  0  0  0  0  0  0  0
   10.5790  -18.9376   22.7425 N   0  0  0  0  0  0  0  0  0  0  0  0
    9.5401  -17.1519   26.7413 C   0  0  0  0  0  0  0  0  0  0  0  0
    9.7176  -18.2227   27.6055 O   0  0  0  0  0  0  0  0  0  0  0  0
    9.2979  -16.0302   27.2558 O   0  0  0  0  0  0  0  0  0  0  0  0
  1  5  1  0
  2  3  1  0
  2  1  1  0
  3  4  1  0
  4  5  1  0
  5  6  1  1
  6  7  2  0
  8  9  1  0
  9 10  2  0
  9 19  1  0
 10 11  1  0
 11 12  2  0
 12 13  1  0
 14 13  1  1
 14 16  1  0
 15  6  1  0
 15 14  1  0
 16 17  2  0
 18 12  1  0
 19 18  2  0
 20 21  1  0
 20 16  1  0
 21 28  1  0
 21 22  1  1
 23 24  2  0
 23 22  1  0
 25 24  1  0
 26 27  2  0
 26 25  1  0
 27 23  1  0
 28 30  2  0
 28 29  1  0
M  END
$$$$
