PYH.pdb
     RDKit          3D

 30 32  0  0  1  0  0  0  0  0999 V2000
    7.7780  -15.8490   18.3353 N   0  0  0  0  0  0  0  0  0  0  0  0
    7.6302  -15.7583   16.8740 C   0  0  0  0  0  0  0  0  0  0  0  0
    7.5042  -14.2586   16.7036 C   0  0  0  0  0  0  0  0  0  0  0  0
    8.4238  -13.6891   17.7873 C   0  0  0  0  0  0  0  0  0  0  0  0
    8.8805  -14.9294   18.5329 C   0  0  1  0  0  0  0  0  0  0  0  0
    9.1270  -14.6221   19.9617 C   0  0  0  0  0  0  0  0  0  0  0  0
   10.0510  -13.8354   20.2949 O   0  0  0  0  0  0  0  0  0  0  0  0
    7.2877  -12.1814   28.0471 O   0  0  0  0  0  0  0  0  0  0  0  0
    7.2156  -12.7433   26.7703 C   0  0  0  0  0  0  0  0  0  0  0  0
    6.7456  -14.0392   26.5919 C   0  0  0  0  0  0  0  0  0  0  0  0
    6.6735  -14.5950   25.3355 C   0  0  0  0  0  0  0  0  0  0  0  0
    7.0582  -13.9044   24.2071 C   0  0  0  0  0  0  0  0  0  0  0  0
    6.9711  -14.5240   22.8592 C   0  0  0  0  0  0  0  0  0  0  0  0
    8.3386  -14.8659   22.3134 C   0  0  2  0  0  0  0  0  0  0  0  0
    8.2946  -15.2391   20.9192 N   0  0  0  0  0  0  0  0  0  0  0  0
    8.8886  -15.9786   23.1273 C   0  0  0  0  0  0  0  0  0  0  0  0
    8.1639  -16.9783   23.3512 O   0  0  0  0  0  0  0  0  0  0  0  0
    7.5242  -12.6208   24.3809 C   0  0  0  0  0  0  0  0  0  0  0  0
    7.6024  -12.0446   25.6518 C   0  0  0  0  0  0  0  0  0  0  0  0
   10.1871  -15.9797   23.6683 N   0  0  0  0  0  0  0  0  0  0  0  0
   10.5071  -16.0290   25.0807 C   0  0  1  0  0  0  0  0  0  0  0  0
    9.5192  -15.1882   25.8849 C   0  0  0  0  0  0  0  0  0  0  0  0
   10.0086  -15.1202   27.2940 C   0  0  0  0  0  0  0  0  0  0  0  0
   11.1375  -15.6774   27.8419 C   0  0  0  0  0  0  0  0  0  0  0  0
   11.2229  -15.3819   29.1637 N   0  0  0  0  0  0  0  0  0  0  0  0
   10.1351  -14.6357   29.4292 C   0  0  0  0  0  0  0  0  0  0  0  0
    9.3939  -14.4683   28.3171 N   0  0  0  0  0  0  0  0  0  0  0  0
   10.3478  -17.4589   25.5033 C   0  0  0  0  0  0  0  0  0  0  0  0
   11.4674  -18.2617   25.6673 O   0  0  0  0  0  0  0  0  0  0  0  0
    9.2258  -17.9828   25.7229 O   0  0  0  0  0  0  0  0  0  0  0  0
  1  5  1  0
  2  3  1  0
  2  1  1  0
  3  4  1  0
  4  5  1  0
  5  6  1  1
  6  7  2  0
  8  9  1  0
  9 10  2  0
  9 19  1  0
 10 11  1  0
 11 12  2  0
 12 13  1  0
 14 13  1  1
 14 16  1  0
 15  6  1  0
 15 14  1  0
 16 17  2  0
 18 12  1  0
 19 18  2  0
 20 21  1  0
 20 16  1  0
 21 28  1  0
 21 22  1  1
 23 24  2  0
 23 22  1  0
 25 24  1  0
 26 27  2  0
 26 25  1  0
 27 23  1  0
 28 30  2  0
 28 29  1  0
M  END
$$$$
