PYH.pdb
     RDKit          3D

 30 32  0  0  1  0  0  0  0  0999 V2000
    8.3118  -18.2514   20.8886 N   0  0  0  0  0  0  0  0  0  0  0  0
    8.3648  -19.0598   19.6601 C   0  0  0  0  0  0  0  0  0  0  0  0
    8.9750  -18.0599   18.6999 C   0  0  0  0  0  0  0  0  0  0  0  0
    9.9457  -17.2601   19.5731 C   0  0  0  0  0  0  0  0  0  0  0  0
    9.6924  -17.8168   20.9619 C   0  0  1  0  0  0  0  0  0  0  0  0
    9.9161  -16.7764   21.9934 C   0  0  0  0  0  0  0  0  0  0  0  0
   11.0637  -16.2918   22.1725 O   0  0  0  0  0  0  0  0  0  0  0  0
    7.3542  -12.9413   17.8859 O   0  0  0  0  0  0  0  0  0  0  0  0
    7.4542  -13.2612   19.2420 C   0  0  0  0  0  0  0  0  0  0  0  0
    8.5167  -12.7906   20.0046 C   0  0  0  0  0  0  0  0  0  0  0  0
    8.6175  -13.1041   21.3404 C   0  0  0  0  0  0  0  0  0  0  0  0
    7.6832  -13.8892   21.9798 C   0  0  0  0  0  0  0  0  0  0  0  0
    7.8112  -14.2147   23.4242 C   0  0  0  0  0  0  0  0  0  0  0  0
    8.8911  -15.2435   23.6701 C   0  0  2  0  0  0  0  0  0  0  0  0
    8.8051  -16.3575   22.7554 N   0  0  0  0  0  0  0  0  0  0  0  0
    8.7594  -15.7159   25.0710 C   0  0  0  0  0  0  0  0  0  0  0  0
    8.7184  -14.8660   25.9933 O   0  0  0  0  0  0  0  0  0  0  0  0
    6.6299  -14.3566   21.2269 C   0  0  0  0  0  0  0  0  0  0  0  0
    6.5159  -14.0455   19.8691 C   0  0  0  0  0  0  0  0  0  0  0  0
    8.6767  -17.0734   25.4304 N   0  0  0  0  0  0  0  0  0  0  0  0
    8.6146  -17.5796   26.7867 C   0  0  1  0  0  0  0  0  0  0  0  0
    7.2804  -18.2766   27.0393 C   0  0  0  0  0  0  0  0  0  0  0  0
    6.9642  -19.1176   25.8466 C   0  0  0  0  0  0  0  0  0  0  0  0
    7.6752  -19.2618   24.6810 C   0  0  0  0  0  0  0  0  0  0  0  0
    7.0467  -20.1230   23.8413 N   0  0  0  0  0  0  0  0  0  0  0  0
    5.9387  -20.5110   24.4989 C   0  0  0  0  0  0  0  0  0  0  0  0
    5.8728  -19.9167   25.7057 N   0  0  0  0  0  0  0  0  0  0  0  0
    9.7018  -18.6052   26.9082 C   0  0  0  0  0  0  0  0  0  0  0  0
   10.5269  -18.8717   25.8252 O   0  0  0  0  0  0  0  0  0  0  0  0
    9.9115  -19.2529   27.9656 O   0  0  0  0  0  0  0  0  0  0  0  0
  1  5  1  0
  2  3  1  0
  2  1  1  0
  3  4  1  0
  4  5  1  0
  5  6  1  1
  6  7  2  0
  8  9  1  0
  9 10  2  0
  9 19  1  0
 10 11  1  0
 11 12  2  0
 12 13  1  0
 14 13  1  6
 14 16  1  0
 15  6  1  0
 15 14  1  0
 16 17  2  0
 18 12  1  0
 19 18  2  0
 20 21  1  0
 20 16  1  0
 21 28  1  0
 21 22  1  6
 23 24  2  0
 23 22  1  0
 25 24  1  0
 26 27  2  0
 26 25  1  0
 27 23  1  0
 28 30  2  0
 28 29  1  0
M  END
$$$$
