PYH.pdb
     RDKit          3D

 30 32  0  0  1  0  0  0  0  0999 V2000
    7.5308  -15.1910   18.5963 N   0  0  0  0  0  0  0  0  0  0  0  0
    7.4496  -14.8618   17.1643 C   0  0  0  0  0  0  0  0  0  0  0  0
    7.7097  -13.3705   17.2105 C   0  0  0  0  0  0  0  0  0  0  0  0
    8.7139  -13.2099   18.3552 C   0  0  0  0  0  0  0  0  0  0  0  0
    8.8236  -14.6173   18.9120 C   0  0  1  0  0  0  0  0  0  0  0  0
    9.1014  -14.5858   20.3675 C   0  0  0  0  0  0  0  0  0  0  0  0
   10.2761  -14.4258   20.7895 O   0  0  0  0  0  0  0  0  0  0  0  0
    7.6686  -12.2568   28.6543 O   0  0  0  0  0  0  0  0  0  0  0  0
    7.4645  -12.6868   27.3410 C   0  0  0  0  0  0  0  0  0  0  0  0
    7.8968  -11.9166   26.2679 C   0  0  0  0  0  0  0  0  0  0  0  0
    7.6971  -12.3378   24.9735 C   0  0  0  0  0  0  0  0  0  0  0  0
    7.0674  -13.5277   24.6806 C   0  0  0  0  0  0  0  0  0  0  0  0
    6.8630  -13.9639   23.2748 C   0  0  0  0  0  0  0  0  0  0  0  0
    8.1397  -14.4960   22.6650 C   0  0  2  0  0  0  0  0  0  0  0  0
    8.0098  -14.7403   21.2478 N   0  0  0  0  0  0  0  0  0  0  0  0
    8.4942  -15.7511   23.3737 C   0  0  0  0  0  0  0  0  0  0  0  0
    7.7194  -16.7341   23.2846 O   0  0  0  0  0  0  0  0  0  0  0  0
    6.6382  -14.2925   25.7416 C   0  0  0  0  0  0  0  0  0  0  0  0
    6.8349  -13.8760   27.0611 C   0  0  0  0  0  0  0  0  0  0  0  0
    9.6589  -15.9061   24.1473 N   0  0  0  0  0  0  0  0  0  0  0  0
   10.0524  -17.1183   24.8369 C   0  0  1  0  0  0  0  0  0  0  0  0
   11.5353  -17.4046   24.6158 C   0  0  0  0  0  0  0  0  0  0  0  0
   11.7039  -17.9281   23.2276 C   0  0  0  0  0  0  0  0  0  0  0  0
   10.7434  -18.1824   22.2800 C   0  0  0  0  0  0  0  0  0  0  0  0
   11.3097  -18.6536   21.1402 N   0  0  0  0  0  0  0  0  0  0  0  0
   12.6312  -18.6886   21.3914 C   0  0  0  0  0  0  0  0  0  0  0  0
   12.8863  -18.2561   22.6412 N   0  0  0  0  0  0  0  0  0  0  0  0
    9.8444  -16.8621   26.2996 C   0  0  0  0  0  0  0  0  0  0  0  0
    9.4216  -15.6131   26.7310 O   0  0  0  0  0  0  0  0  0  0  0  0
   10.0372  -17.7406   27.1787 O   0  0  0  0  0  0  0  0  0  0  0  0
  1  5  1  0
  2  3  1  0
  2  1  1  0
  3  4  1  0
  4  5  1  0
  5  6  1  1
  6  7  2  0
  8  9  1  0
  9 10  2  0
  9 19  1  0
 10 11  1  0
 11 12  2  0
 12 13  1  0
 14 13  1  1
 14 16  1  0
 15  6  1  0
 15 14  1  0
 16 17  2  0
 18 12  1  0
 19 18  2  0
 20 21  1  0
 20 16  1  0
 21 28  1  0
 21 22  1  1
 23 24  2  0
 23 22  1  0
 25 24  1  0
 26 27  2  0
 26 25  1  0
 27 23  1  0
 28 30  2  0
 28 29  1  0
M  END
$$$$
