PYH.pdb
     RDKit          3D

 30 32  0  0  1  0  0  0  0  0999 V2000
    8.1327  -18.6743   20.4087 N   0  0  0  0  0  0  0  0  0  0  0  0
    8.1590  -19.6563   19.3131 C   0  0  0  0  0  0  0  0  0  0  0  0
    8.7750  -18.8205   18.2104 C   0  0  0  0  0  0  0  0  0  0  0  0
    9.7682  -17.9179   18.9473 C   0  0  0  0  0  0  0  0  0  0  0  0
    9.5209  -18.2584   20.4053 C   0  0  1  0  0  0  0  0  0  0  0  0
    9.7731  -17.0810   21.2695 C   0  0  0  0  0  0  0  0  0  0  0  0
   10.9054  -16.5323   21.2858 O   0  0  0  0  0  0  0  0  0  0  0  0
    7.5705  -13.0560   17.0390 O   0  0  0  0  0  0  0  0  0  0  0  0
    7.6027  -13.3968   18.3933 C   0  0  0  0  0  0  0  0  0  0  0  0
    8.5079  -12.7893   19.2556 C   0  0  0  0  0  0  0  0  0  0  0  0
    8.5417  -13.1230   20.5898 C   0  0  0  0  0  0  0  0  0  0  0  0
    7.6917  -14.0631   21.1302 C   0  0  0  0  0  0  0  0  0  0  0  0
    7.7448  -14.4077   22.5748 C   0  0  0  0  0  0  0  0  0  0  0  0
    8.8323  -15.4160   22.8677 C   0  0  2  0  0  0  0  0  0  0  0  0
    8.7061  -16.6076   22.0619 N   0  0  0  0  0  0  0  0  0  0  0  0
    8.7585  -15.7593   24.3099 C   0  0  0  0  0  0  0  0  0  0  0  0
    8.0428  -16.7272   24.6642 O   0  0  0  0  0  0  0  0  0  0  0  0
    6.7942  -14.6663   20.2785 C   0  0  0  0  0  0  0  0  0  0  0  0
    6.7497  -14.3363   18.9212 C   0  0  0  0  0  0  0  0  0  0  0  0
    9.4503  -15.0573   25.3136 N   0  0  0  0  0  0  0  0  0  0  0  0
    9.3406  -15.3043   26.7372 C   0  0  1  0  0  0  0  0  0  0  0  0
    7.8873  -15.5598   27.1276 C   0  0  0  0  0  0  0  0  0  0  0  0
    7.1205  -14.2971   26.9098 C   0  0  0  0  0  0  0  0  0  0  0  0
    5.8888  -14.1266   26.3276 C   0  0  0  0  0  0  0  0  0  0  0  0
    5.5411  -12.8147   26.3209 N   0  0  0  0  0  0  0  0  0  0  0  0
    6.5703  -12.1742   26.9050 C   0  0  0  0  0  0  0  0  0  0  0  0
    7.5285  -13.0495   27.2653 N   0  0  0  0  0  0  0  0  0  0  0  0
   10.1198  -16.5554   27.0131 C   0  0  0  0  0  0  0  0  0  0  0  0
   10.8581  -17.1494   25.9997 O   0  0  0  0  0  0  0  0  0  0  0  0
   10.1409  -17.1092   28.1421 O   0  0  0  0  0  0  0  0  0  0  0  0
  1  5  1  0
  2  3  1  0
  2  1  1  0
  3  4  1  0
  4  5  1  0
  5  6  1  1
  6  7  2  0
  8  9  1  0
  9 10  2  0
  9 19  1  0
 10 11  1  0
 11 12  2  0
 12 13  1  0
 14 13  1  6
 14 16  1  0
 15  6  1  0
 15 14  1  0
 16 17  2  0
 18 12  1  0
 19 18  2  0
 20 21  1  0
 20 16  1  0
 21 28  1  0
 21 22  1  6
 23 24  2  0
 23 22  1  0
 25 24  1  0
 26 27  2  0
 26 25  1  0
 27 23  1  0
 28 30  2  0
 28 29  1  0
M  END
$$$$
