PYH.pdb
     RDKit          3D

 30 32  0  0  1  0  0  0  0  0999 V2000
    7.1652  -15.5737   21.1314 N   0  0  0  0  0  0  0  0  0  0  0  0
    6.8495  -15.0616   19.7885 C   0  0  0  0  0  0  0  0  0  0  0  0
    7.1380  -13.5874   19.9823 C   0  0  0  0  0  0  0  0  0  0  0  0
    8.3230  -13.5713   20.9518 C   0  0  0  0  0  0  0  0  0  0  0  0
    8.5019  -15.0385   21.2955 C   0  0  1  0  0  0  0  0  0  0  0  0
    9.0212  -15.1950   22.6748 C   0  0  0  0  0  0  0  0  0  0  0  0
   10.1513  -14.7377   22.9867 O   0  0  0  0  0  0  0  0  0  0  0  0
    6.4544  -10.1422   26.7873 O   0  0  0  0  0  0  0  0  0  0  0  0
    6.6931  -11.5026   26.5781 C   0  0  0  0  0  0  0  0  0  0  0  0
    5.6929  -12.3291   26.0796 C   0  0  0  0  0  0  0  0  0  0  0  0
    5.9254  -13.6691   25.8726 C   0  0  0  0  0  0  0  0  0  0  0  0
    7.1443  -14.2506   26.1452 C   0  0  0  0  0  0  0  0  0  0  0  0
    7.3738  -15.7004   25.9131 C   0  0  0  0  0  0  0  0  0  0  0  0
    8.5611  -15.9390   25.0085 C   0  0  2  0  0  0  0  0  0  0  0  0
    8.2076  -15.8684   23.6103 N   0  0  0  0  0  0  0  0  0  0  0  0
    9.1186  -17.2760   25.3320 C   0  0  0  0  0  0  0  0  0  0  0  0
    8.4506  -18.2962   25.0362 O   0  0  0  0  0  0  0  0  0  0  0  0
    8.1366  -13.4344   26.6390 C   0  0  0  0  0  0  0  0  0  0  0  0
    7.9134  -12.0716   26.8539 C   0  0  0  0  0  0  0  0  0  0  0  0
   10.3640  -17.4699   25.9567 N   0  0  0  0  0  0  0  0  0  0  0  0
   10.9108  -18.7506   26.3573 C   0  0  1  0  0  0  0  0  0  0  0  0
   12.4263  -18.7678   26.1761 C   0  0  0  0  0  0  0  0  0  0  0  0
   12.7191  -18.6713   24.7150 C   0  0  0  0  0  0  0  0  0  0  0  0
   11.9004  -18.9600   23.6513 C   0  0  0  0  0  0  0  0  0  0  0  0
   12.5461  -18.7399   22.4780 N   0  0  0  0  0  0  0  0  0  0  0  0
   13.7734  -18.3119   22.8259 C   0  0  0  0  0  0  0  0  0  0  0  0
   13.8951  -18.2644   24.1664 N   0  0  0  0  0  0  0  0  0  0  0  0
   10.6190  -18.8988   27.8207 C   0  0  0  0  0  0  0  0  0  0  0  0
   10.9906  -20.0574   28.4874 O   0  0  0  0  0  0  0  0  0  0  0  0
   10.0413  -18.0069   28.4933 O   0  0  0  0  0  0  0  0  0  0  0  0
  1  5  1  0
  2  3  1  0
  2  1  1  0
  3  4  1  0
  4  5  1  0
  5  6  1  1
  6  7  2  0
  8  9  1  0
  9 10  2  0
  9 19  1  0
 10 11  1  0
 11 12  2  0
 12 13  1  0
 14 13  1  1
 14 16  1  0
 15  6  1  0
 15 14  1  0
 16 17  2  0
 18 12  1  0
 19 18  2  0
 20 21  1  0
 20 16  1  0
 21 28  1  0
 21 22  1  1
 23 24  2  0
 23 22  1  0
 25 24  1  0
 26 27  2  0
 26 25  1  0
 27 23  1  0
 28 30  2  0
 28 29  1  0
M  END
$$$$
