PYH.pdb
     RDKit          3D

 30 32  0  0  1  0  0  0  0  0999 V2000
    7.2798  -15.2377   19.1610 N   0  0  0  0  0  0  0  0  0  0  0  0
    7.0991  -14.9060   17.7387 C   0  0  0  0  0  0  0  0  0  0  0  0
    7.2619  -13.4010   17.7852 C   0  0  0  0  0  0  0  0  0  0  0  0
    8.3141  -13.1807   18.8755 C   0  0  0  0  0  0  0  0  0  0  0  0
    8.5471  -14.5810   19.4119 C   0  0  1  0  0  0  0  0  0  0  0  0
    8.9011  -14.5400   20.8506 C   0  0  0  0  0  0  0  0  0  0  0  0
   10.0689  -14.2412   21.2119 O   0  0  0  0  0  0  0  0  0  0  0  0
    7.8456  -12.8058   29.3402 O   0  0  0  0  0  0  0  0  0  0  0  0
    7.6033  -13.1312   28.0035 C   0  0  0  0  0  0  0  0  0  0  0  0
    7.0674  -14.3671   27.6610 C   0  0  0  0  0  0  0  0  0  0  0  0
    6.8277  -14.6899   26.3453 C   0  0  0  0  0  0  0  0  0  0  0  0
    7.1030  -13.8165   25.3160 C   0  0  0  0  0  0  0  0  0  0  0  0
    6.8352  -14.1857   23.9017 C   0  0  0  0  0  0  0  0  0  0  0  0
    8.0881  -14.6627   23.2033 C   0  0  2  0  0  0  0  0  0  0  0  0
    7.8890  -14.8453   21.7848 N   0  0  0  0  0  0  0  0  0  0  0  0
    8.5025  -15.9408   23.8340 C   0  0  0  0  0  0  0  0  0  0  0  0
    7.7424  -16.9348   23.7397 O   0  0  0  0  0  0  0  0  0  0  0  0
    7.6338  -12.5918   25.6525 C   0  0  0  0  0  0  0  0  0  0  0  0
    7.8821  -12.2514   26.9851 C   0  0  0  0  0  0  0  0  0  0  0  0
    9.7088  -16.1062   24.5385 N   0  0  0  0  0  0  0  0  0  0  0  0
   10.1691  -17.3444   25.1340 C   0  0  1  0  0  0  0  0  0  0  0  0
   11.6640  -17.5341   24.8908 C   0  0  0  0  0  0  0  0  0  0  0  0
   11.8663  -17.8003   23.4354 C   0  0  0  0  0  0  0  0  0  0  0  0
   10.9405  -18.1649   22.4894 C   0  0  0  0  0  0  0  0  0  0  0  0
   11.5299  -18.3111   21.2756 N   0  0  0  0  0  0  0  0  0  0  0  0
   12.8306  -18.0332   21.4796 C   0  0  0  0  0  0  0  0  0  0  0  0
   13.0509  -17.7241   22.7718 N   0  0  0  0  0  0  0  0  0  0  0  0
    9.9549  -17.2111   26.6121 C   0  0  0  0  0  0  0  0  0  0  0  0
    9.4132  -16.0440   27.1311 O   0  0  0  0  0  0  0  0  0  0  0  0
   10.2469  -18.1231   27.4273 O   0  0  0  0  0  0  0  0  0  0  0  0
  1  5  1  0
  2  3  1  0
  2  1  1  0
  3  4  1  0
  4  5  1  0
  5  6  1  1
  6  7  2  0
  8  9  1  0
  9 10  2  0
  9 19  1  0
 10 11  1  0
 11 12  2  0
 12 13  1  0
 14 13  1  1
 14 16  1  0
 15  6  1  0
 15 14  1  0
 16 17  2  0
 18 12  1  0
 19 18  2  0
 20 21  1  0
 20 16  1  0
 21 28  1  0
 21 22  1  1
 23 24  2  0
 23 22  1  0
 25 24  1  0
 26 27  2  0
 26 25  1  0
 27 23  1  0
 28 30  2  0
 28 29  1  0
M  END
$$$$
