LFM.pdb
     RDKit          3D

 28 28  0  0  1  0  0  0  0  0999 V2000
    9.4786  -15.8164   15.8636 C   0  0  0  0  0  0  0  0  0  0  0  0
    8.6666  -14.8855   16.7181 C   0  0  2  0  0  0  0  0  0  0  0  0
    8.5177  -13.5722   15.9492 C   0  0  0  0  0  0  0  0  0  0  0  0
    9.3207  -14.5459   18.0208 C   0  0  0  0  0  0  0  0  0  0  0  0
    9.4880  -15.7001   18.9576 C   0  0  2  0  0  0  0  0  0  0  0  0
    8.5562  -16.7694   18.7433 N   0  0  0  0  0  0  0  0  0  0  0  0
    9.4234  -15.2314   20.3790 C   0  0  0  0  0  0  0  0  0  0  0  0
   10.2895  -14.3949   20.7644 O   0  0  0  0  0  0  0  0  0  0  0  0
    8.4649  -15.6624   21.3072 N   0  0  0  0  0  0  0  0  0  0  0  0
    8.3728  -15.0425   22.6020 C   0  0  1  0  0  0  0  0  0  0  0  0
    6.9320  -14.9736   23.0610 C   0  0  0  0  0  0  0  0  0  0  0  0
    6.7504  -14.2238   24.3225 C   0  0  0  0  0  0  0  0  0  0  0  0
    7.0983  -12.8839   24.4528 C   0  0  0  0  0  0  0  0  0  0  0  0
    6.9208  -12.2093   25.6620 C   0  0  0  0  0  0  0  0  0  0  0  0
    6.3928  -12.8770   26.7470 C   0  0  0  0  0  0  0  0  0  0  0  0
    6.0391  -14.2026   26.6483 C   0  0  0  0  0  0  0  0  0  0  0  0
    6.2255  -14.8319   25.4527 C   0  0  0  0  0  0  0  0  0  0  0  0
    9.0985  -15.8420   23.6370 C   0  0  0  0  0  0  0  0  0  0  0  0
    9.2728  -17.0660   23.4166 O   0  0  0  0  0  0  0  0  0  0  0  0
   10.8575  -13.5505   29.3304 C   0  0  0  0  0  0  0  0  0  0  0  0
   11.7132  -15.1325   29.5505 S   0  0  0  0  0  0  0  0  0  0  0  0
   11.4529  -16.1055   28.0267 C   0  0  0  0  0  0  0  0  0  0  0  0
   10.5841  -15.3056   27.0790 C   0  0  0  0  0  0  0  0  0  0  0  0
   10.4271  -16.0377   25.7708 C   0  0  2  0  0  0  0  0  0  0  0  0
    9.5948  -15.3038   24.8379 N   0  0  0  0  0  0  0  0  0  0  0  0
    9.7831  -17.3647   25.9703 C   0  0  0  0  0  0  0  0  0  0  0  0
   10.4640  -18.4211   25.9166 O   0  0  0  0  0  0  0  0  0  0  0  0
    8.4244  -17.5139   26.2218 O   0  0  0  0  0  0  0  0  0  0  0  0
  2  1  1  6
  2  3  1  0
  2  4  1  0
  4  5  1  0
  5  6  1  1
  7  8  2  0
  7  5  1  0
  9  7  1  0
 10  9  1  0
 10 11  1  1
 12 11  1  0
 12 13  2  0
 14 13  1  0
 15 14  2  0
 16 17  2  0
 16 15  1  0
 17 12  1  0
 18 10  1  0
 19 18  2  0
 20 21  1  0
 21 22  1  0
 23 22  1  0
 24 23  1  1
 24 25  1  0
 25 18  1  0
 26 28  1  0
 26 24  1  0
 27 26  2  0
M  END
$$$$
