LFM.pdb
     RDKit          3D

 28 28  0  0  1  0  0  0  0  0999 V2000
    9.0150  -15.1710   16.0054 C   0  0  0  0  0  0  0  0  0  0  0  0
    8.2465  -14.4103   17.0479 C   0  0  2  0  0  0  0  0  0  0  0  0
    7.9322  -13.0308   16.4680 C   0  0  0  0  0  0  0  0  0  0  0  0
    9.0186  -14.1778   18.3089 C   0  0  0  0  0  0  0  0  0  0  0  0
    9.2932  -15.4097   19.1117 C   0  0  2  0  0  0  0  0  0  0  0  0
    8.3492  -16.4691   18.9019 N   0  0  0  0  0  0  0  0  0  0  0  0
    9.3816  -15.0734   20.5689 C   0  0  0  0  0  0  0  0  0  0  0  0
   10.2892  -14.2733   20.9357 O   0  0  0  0  0  0  0  0  0  0  0  0
    8.5231  -15.5903   21.5496 N   0  0  0  0  0  0  0  0  0  0  0  0
    8.5043  -15.0269   22.8730 C   0  0  1  0  0  0  0  0  0  0  0  0
    7.0841  -14.7447   23.3143 C   0  0  0  0  0  0  0  0  0  0  0  0
    7.0000  -13.9889   24.5825 C   0  0  0  0  0  0  0  0  0  0  0  0
    6.5586  -14.5649   25.7686 C   0  0  0  0  0  0  0  0  0  0  0  0
    6.4841  -13.8188   26.9460 C   0  0  0  0  0  0  0  0  0  0  0  0
    6.8525  -12.4899   26.9386 C   0  0  0  0  0  0  0  0  0  0  0  0
    7.2932  -11.8926   25.7805 C   0  0  0  0  0  0  0  0  0  0  0  0
    7.3542  -12.6498   24.6478 C   0  0  0  0  0  0  0  0  0  0  0  0
    9.0663  -15.9837   23.8759 C   0  0  0  0  0  0  0  0  0  0  0  0
    8.8915  -17.2114   23.6770 O   0  0  0  0  0  0  0  0  0  0  0  0
   10.1131  -13.5312   30.3009 C   0  0  0  0  0  0  0  0  0  0  0  0
   11.3214  -14.3267   29.2097 S   0  0  0  0  0  0  0  0  0  0  0  0
   10.3855  -15.1517   27.8757 C   0  0  0  0  0  0  0  0  0  0  0  0
   11.3659  -15.7382   26.8820 C   0  0  0  0  0  0  0  0  0  0  0  0
   10.6282  -16.4746   25.7931 C   0  0  2  0  0  0  0  0  0  0  0  0
    9.7762  -15.5891   25.0242 N   0  0  0  0  0  0  0  0  0  0  0  0
    9.7489  -17.5335   26.3595 C   0  0  0  0  0  0  0  0  0  0  0  0
    8.4996  -17.3870   26.3757 O   0  0  0  0  0  0  0  0  0  0  0  0
   10.2419  -18.7189   26.8918 O   0  0  0  0  0  0  0  0  0  0  0  0
  2  1  1  6
  2  3  1  0
  2  4  1  0
  4  5  1  0
  5  6  1  1
  7  8  2  0
  7  5  1  0
  9  7  1  0
 10  9  1  0
 10 11  1  1
 12 11  1  0
 12 13  2  0
 14 13  1  0
 15 14  2  0
 16 17  2  0
 16 15  1  0
 17 12  1  0
 18 10  1  0
 19 18  2  0
 20 21  1  0
 21 22  1  0
 23 22  1  0
 24 23  1  1
 24 25  1  0
 25 18  1  0
 26 28  1  0
 26 24  1  0
 27 26  2  0
M  END
$$$$
