LFM.pdb
     RDKit          3D

 28 28  0  0  1  0  0  0  0  0999 V2000
    8.7023  -14.4112   16.9954 C   0  0  0  0  0  0  0  0  0  0  0  0
    7.7090  -13.8939   17.9962 C   0  0  2  0  0  0  0  0  0  0  0  0
    7.3991  -12.4434   17.6248 C   0  0  0  0  0  0  0  0  0  0  0  0
    8.2292  -13.8737   19.3995 C   0  0  0  0  0  0  0  0  0  0  0  0
    8.5876  -15.2158   19.9544 C   0  0  2  0  0  0  0  0  0  0  0  0
    7.5644  -16.2086   19.7954 N   0  0  0  0  0  0  0  0  0  0  0  0
    8.9769  -15.0969   21.3960 C   0  0  0  0  0  0  0  0  0  0  0  0
    9.9616  -14.3574   21.6821 O   0  0  0  0  0  0  0  0  0  0  0  0
    8.3194  -15.7540   22.4458 N   0  0  0  0  0  0  0  0  0  0  0  0
    8.7374  -15.5533   23.8075 C   0  0  1  0  0  0  0  0  0  0  0  0
    7.5623  -15.6844   24.7527 C   0  0  0  0  0  0  0  0  0  0  0  0
    7.1151  -14.3940   25.3196 C   0  0  0  0  0  0  0  0  0  0  0  0
    5.9999  -14.2852   26.1430 C   0  0  0  0  0  0  0  0  0  0  0  0
    5.6014  -13.0487   26.6539 C   0  0  0  0  0  0  0  0  0  0  0  0
    6.3208  -11.9147   26.3406 C   0  0  0  0  0  0  0  0  0  0  0  0
    7.4286  -11.9911   25.5287 C   0  0  0  0  0  0  0  0  0  0  0  0
    7.7908  -13.2144   25.0464 C   0  0  0  0  0  0  0  0  0  0  0  0
    9.7249  -16.5947   24.2289 C   0  0  0  0  0  0  0  0  0  0  0  0
   10.7286  -16.7812   23.4974 O   0  0  0  0  0  0  0  0  0  0  0  0
   11.2952  -13.0864   27.7560 C   0  0  0  0  0  0  0  0  0  0  0  0
   11.5952  -14.3191   29.0498 S   0  0  0  0  0  0  0  0  0  0  0  0
   11.6236  -15.9567   28.2413 C   0  0  0  0  0  0  0  0  0  0  0  0
   10.5318  -16.0028   27.1931 C   0  0  0  0  0  0  0  0  0  0  0  0
   10.5312  -17.3404   26.4983 C   0  0  2  0  0  0  0  0  0  0  0  0
    9.5944  -17.3739   25.3925 N   0  0  0  0  0  0  0  0  0  0  0  0
   10.1359  -18.4312   27.4306 C   0  0  0  0  0  0  0  0  0  0  0  0
    8.9267  -18.6138   27.7260 O   0  0  0  0  0  0  0  0  0  0  0  0
   11.0552  -19.2930   28.0168 O   0  0  0  0  0  0  0  0  0  0  0  0
  2  1  1  6
  2  3  1  0
  2  4  1  0
  4  5  1  0
  5  6  1  1
  7  8  2  0
  7  5  1  0
  9  7  1  0
 10  9  1  0
 10 11  1  1
 12 11  1  0
 12 13  2  0
 14 13  1  0
 15 14  2  0
 16 17  2  0
 16 15  1  0
 17 12  1  0
 18 10  1  0
 19 18  2  0
 20 21  1  0
 21 22  1  0
 23 22  1  0
 24 23  1  1
 24 25  1  0
 25 18  1  0
 26 28  1  0
 26 24  1  0
 27 26  2  0
M  END
$$$$
