LFM.pdb
     RDKit          3D

 28 28  0  0  1  0  0  0  0  0999 V2000
    8.9500  -16.2027   16.0273 C   0  0  0  0  0  0  0  0  0  0  0  0
    8.4545  -15.0978   16.9159 C   0  0  2  0  0  0  0  0  0  0  0  0
    8.3183  -13.8432   16.0525 C   0  0  0  0  0  0  0  0  0  0  0  0
    9.3992  -14.7529   18.0245 C   0  0  0  0  0  0  0  0  0  0  0  0
    9.5785  -15.8255   19.0515 C   0  0  2  0  0  0  0  0  0  0  0  0
    8.7042  -16.9503   18.8838 N   0  0  0  0  0  0  0  0  0  0  0  0
    9.4351  -15.2568   20.4300 C   0  0  0  0  0  0  0  0  0  0  0  0
   10.2141  -14.3192   20.7653 O   0  0  0  0  0  0  0  0  0  0  0  0
    8.4935  -15.6991   21.3700 N   0  0  0  0  0  0  0  0  0  0  0  0
    8.4208  -15.0906   22.6715 C   0  0  1  0  0  0  0  0  0  0  0  0
    6.9828  -14.8062   23.0495 C   0  0  0  0  0  0  0  0  0  0  0  0
    6.8370  -14.1706   24.3767 C   0  0  0  0  0  0  0  0  0  0  0  0
    6.3690  -14.8610   25.4892 C   0  0  0  0  0  0  0  0  0  0  0  0
    6.2359  -14.2265   26.7255 C   0  0  0  0  0  0  0  0  0  0  0  0
    6.5722  -12.8950   26.8511 C   0  0  0  0  0  0  0  0  0  0  0  0
    7.0381  -12.1860   25.7684 C   0  0  0  0  0  0  0  0  0  0  0  0
    7.1562  -12.8359   24.5751 C   0  0  0  0  0  0  0  0  0  0  0  0
    8.9521  -16.0073   23.7272 C   0  0  0  0  0  0  0  0  0  0  0  0
    9.2494  -17.1799   23.3901 O   0  0  0  0  0  0  0  0  0  0  0  0
   10.5958  -13.4891   29.3578 C   0  0  0  0  0  0  0  0  0  0  0  0
   11.5186  -15.0265   29.6192 S   0  0  0  0  0  0  0  0  0  0  0  0
   11.3785  -16.0095   28.0861 C   0  0  0  0  0  0  0  0  0  0  0  0
   10.3190  -15.3866   27.2017 C   0  0  0  0  0  0  0  0  0  0  0  0
   10.1707  -16.1783   25.9277 C   0  0  2  0  0  0  0  0  0  0  0  0
    9.1369  -15.6328   25.0703 N   0  0  0  0  0  0  0  0  0  0  0  0
    9.7939  -17.5899   26.2118 C   0  0  0  0  0  0  0  0  0  0  0  0
   10.6275  -18.3858   26.7160 O   0  0  0  0  0  0  0  0  0  0  0  0
    8.5300  -18.1021   25.9441 O   0  0  0  0  0  0  0  0  0  0  0  0
  2  1  1  6
  2  3  1  0
  2  4  1  0
  4  5  1  0
  5  6  1  6
  7  8  2  0
  7  5  1  0
  9  7  1  0
 10  9  1  0
 10 11  1  1
 12 11  1  0
 12 13  2  0
 14 13  1  0
 15 14  2  0
 16 17  2  0
 16 15  1  0
 17 12  1  0
 18 10  1  0
 19 18  2  0
 20 21  1  0
 21 22  1  0
 23 22  1  0
 24 23  1  1
 24 25  1  0
 25 18  1  0
 26 28  1  0
 26 24  1  0
 27 26  2  0
M  END
$$$$
