LFM.pdb
     RDKit          3D

 28 28  0  0  1  0  0  0  0  0999 V2000
    9.2654  -14.8178   16.2296 C   0  0  0  0  0  0  0  0  0  0  0  0
    8.3992  -14.1153   17.2356 C   0  0  2  0  0  0  0  0  0  0  0  0
    8.1445  -12.7017   16.7116 C   0  0  0  0  0  0  0  0  0  0  0  0
    9.0442  -13.9635   18.5777 C   0  0  0  0  0  0  0  0  0  0  0  0
    9.2867  -15.2478   19.3053 C   0  0  2  0  0  0  0  0  0  0  0  0
    8.3522  -16.2883   18.9861 N   0  0  0  0  0  0  0  0  0  0  0  0
    9.3163  -15.0116   20.7843 C   0  0  0  0  0  0  0  0  0  0  0  0
   10.2118  -14.2452   21.2415 O   0  0  0  0  0  0  0  0  0  0  0  0
    8.4154  -15.5871   21.6916 N   0  0  0  0  0  0  0  0  0  0  0  0
    8.3890  -15.1585   23.0645 C   0  0  1  0  0  0  0  0  0  0  0  0
    6.9772  -14.8186   23.4918 C   0  0  0  0  0  0  0  0  0  0  0  0
    6.8975  -14.2232   24.8430 C   0  0  0  0  0  0  0  0  0  0  0  0
    6.5758  -14.9693   25.9714 C   0  0  0  0  0  0  0  0  0  0  0  0
    6.5013  -14.3721   27.2309 C   0  0  0  0  0  0  0  0  0  0  0  0
    6.7495  -13.0221   27.3641 C   0  0  0  0  0  0  0  0  0  0  0  0
    7.0703  -12.2582   26.2660 C   0  0  0  0  0  0  0  0  0  0  0  0
    7.1346  -12.8727   25.0502 C   0  0  0  0  0  0  0  0  0  0  0  0
    8.8467  -16.2490   23.9802 C   0  0  0  0  0  0  0  0  0  0  0  0
    8.6306  -17.4362   23.6322 O   0  0  0  0  0  0  0  0  0  0  0  0
   10.0656  -12.6218   28.7102 C   0  0  0  0  0  0  0  0  0  0  0  0
   10.6140  -14.3489   28.7186 S   0  0  0  0  0  0  0  0  0  0  0  0
   10.9366  -14.8230   26.9845 C   0  0  0  0  0  0  0  0  0  0  0  0
   11.2175  -16.3099   26.9290 C   0  0  0  0  0  0  0  0  0  0  0  0
   10.4505  -16.9443   25.7970 C   0  0  2  0  0  0  0  0  0  0  0  0
    9.5025  -16.0220   25.2036 N   0  0  0  0  0  0  0  0  0  0  0  0
    9.6695  -18.1204   26.2683 C   0  0  0  0  0  0  0  0  0  0  0  0
    8.4131  -18.1220   26.2036 O   0  0  0  0  0  0  0  0  0  0  0  0
   10.2654  -19.2599   26.7954 O   0  0  0  0  0  0  0  0  0  0  0  0
  2  1  1  6
  2  3  1  0
  2  4  1  0
  4  5  1  0
  5  6  1  1
  7  8  2  0
  7  5  1  0
  9  7  1  0
 10  9  1  0
 10 11  1  1
 12 11  1  0
 12 13  2  0
 14 13  1  0
 15 14  2  0
 16 17  2  0
 16 15  1  0
 17 12  1  0
 18 10  1  0
 19 18  2  0
 20 21  1  0
 21 22  1  0
 23 22  1  0
 24 23  1  1
 24 25  1  0
 25 18  1  0
 26 28  1  0
 26 24  1  0
 27 26  2  0
M  END
$$$$
