LFM.pdb
     RDKit          3D

 28 28  0  0  1  0  0  0  0  0999 V2000
   11.7117  -18.7336   18.8030 C   0  0  0  0  0  0  0  0  0  0  0  0
   10.6769  -17.7242   18.3955 C   0  0  2  0  0  0  0  0  0  0  0  0
   11.2771  -16.8840   17.2678 C   0  0  0  0  0  0  0  0  0  0  0  0
   10.3084  -16.7707   19.4889 C   0  0  0  0  0  0  0  0  0  0  0  0
    9.7724  -17.4149   20.7279 C   0  0  2  0  0  0  0  0  0  0  0  0
    8.4944  -18.0434   20.5565 N   0  0  0  0  0  0  0  0  0  0  0  0
    9.7176  -16.4231   21.8493 C   0  0  0  0  0  0  0  0  0  0  0  0
   10.7779  -15.7969   22.1354 O   0  0  0  0  0  0  0  0  0  0  0  0
    8.5663  -16.1471   22.6006 N   0  0  0  0  0  0  0  0  0  0  0  0
    8.6130  -15.2067   23.6880 C   0  0  1  0  0  0  0  0  0  0  0  0
    7.2437  -14.6128   23.9409 C   0  0  0  0  0  0  0  0  0  0  0  0
    7.2159  -13.6534   25.0658 C   0  0  0  0  0  0  0  0  0  0  0  0
    7.7905  -12.3897   24.9853 C   0  0  0  0  0  0  0  0  0  0  0  0
    7.7529  -11.5124   26.0705 C   0  0  0  0  0  0  0  0  0  0  0  0
    7.1379  -11.8996   27.2425 C   0  0  0  0  0  0  0  0  0  0  0  0
    6.5606  -13.1433   27.3519 C   0  0  0  0  0  0  0  0  0  0  0  0
    6.6150  -13.9760   26.2731 C   0  0  0  0  0  0  0  0  0  0  0  0
    9.0155  -15.8753   24.9640 C   0  0  0  0  0  0  0  0  0  0  0  0
    8.3392  -16.8613   25.3481 O   0  0  0  0  0  0  0  0  0  0  0  0
   13.8350  -15.7813   23.8727 C   0  0  0  0  0  0  0  0  0  0  0  0
   14.0378  -17.3039   24.8339 S   0  0  0  0  0  0  0  0  0  0  0  0
   12.4608  -17.6095   25.7033 C   0  0  0  0  0  0  0  0  0  0  0  0
   12.1759  -16.4409   26.6231 C   0  0  0  0  0  0  0  0  0  0  0  0
   10.6894  -16.2717   26.8072 C   0  0  2  0  0  0  0  0  0  0  0  0
   10.1036  -15.4646   25.7551 N   0  0  0  0  0  0  0  0  0  0  0  0
   10.3803  -15.5913   28.0944 C   0  0  0  0  0  0  0  0  0  0  0  0
   10.2405  -14.3419   28.1404 O   0  0  0  0  0  0  0  0  0  0  0  0
   10.2310  -16.2773   29.2938 O   0  0  0  0  0  0  0  0  0  0  0  0
  2  1  1  1
  2  3  1  0
  2  4  1  0
  4  5  1  0
  5  6  1  6
  7  8  2  0
  7  5  1  0
  9  7  1  0
 10  9  1  0
 10 11  1  1
 12 11  1  0
 12 13  2  0
 14 13  1  0
 15 14  2  0
 16 17  2  0
 16 15  1  0
 17 12  1  0
 18 10  1  0
 19 18  2  0
 20 21  1  0
 21 22  1  0
 23 22  1  0
 24 23  1  6
 24 25  1  0
 25 18  1  0
 26 28  1  0
 26 24  1  0
 27 26  2  0
M  END
$$$$
