LFM.pdb
     RDKit          3D

 28 28  0  0  1  0  0  0  0  0999 V2000
    7.7560  -12.5488   17.7192 C   0  0  0  0  0  0  0  0  0  0  0  0
    7.3576  -13.5276   18.7865 C   0  0  2  0  0  0  0  0  0  0  0  0
    6.1249  -12.9595   19.4906 C   0  0  0  0  0  0  0  0  0  0  0  0
    8.4016  -13.7195   19.8417 C   0  0  0  0  0  0  0  0  0  0  0  0
    8.2468  -14.9637   20.6575 C   0  0  2  0  0  0  0  0  0  0  0  0
    6.8852  -15.3679   20.8583 N   0  0  0  0  0  0  0  0  0  0  0  0
    8.9440  -14.8136   21.9749 C   0  0  0  0  0  0  0  0  0  0  0  0
   10.1063  -14.3161   21.9739 O   0  0  0  0  0  0  0  0  0  0  0  0
    8.3896  -15.1904   23.2064 N   0  0  0  0  0  0  0  0  0  0  0  0
    9.1590  -15.0804   24.4169 C   0  0  1  0  0  0  0  0  0  0  0  0
    8.2541  -15.1066   25.6302 C   0  0  0  0  0  0  0  0  0  0  0  0
    8.9733  -14.9048   26.9063 C   0  0  0  0  0  0  0  0  0  0  0  0
    9.4089  -15.9639   27.6949 C   0  0  0  0  0  0  0  0  0  0  0  0
   10.0778  -15.7363   28.8988 C   0  0  0  0  0  0  0  0  0  0  0  0
   10.3129  -14.4435   29.3173 C   0  0  0  0  0  0  0  0  0  0  0  0
    9.8939  -13.3754   28.5584 C   0  0  0  0  0  0  0  0  0  0  0  0
    9.2434  -13.6327   27.3876 C   0  0  0  0  0  0  0  0  0  0  0  0
   10.0916  -16.2394   24.5719 C   0  0  0  0  0  0  0  0  0  0  0  0
    9.6185  -17.3949   24.4369 O   0  0  0  0  0  0  0  0  0  0  0  0
   13.4418  -14.6466   20.4112 C   0  0  0  0  0  0  0  0  0  0  0  0
   14.3133  -16.1159   21.0155 S   0  0  0  0  0  0  0  0  0  0  0  0
   13.1810  -16.9872   22.1535 C   0  0  0  0  0  0  0  0  0  0  0  0
   13.4969  -16.5669   23.5735 C   0  0  0  0  0  0  0  0  0  0  0  0
   12.4578  -17.1084   24.5217 C   0  0  2  0  0  0  0  0  0  0  0  0
   11.4624  -16.1100   24.8591 N   0  0  0  0  0  0  0  0  0  0  0  0
   13.0752  -17.5504   25.8018 C   0  0  0  0  0  0  0  0  0  0  0  0
   13.4621  -18.7383   25.9491 O   0  0  0  0  0  0  0  0  0  0  0  0
   13.2574  -16.6992   26.8853 O   0  0  0  0  0  0  0  0  0  0  0  0
  2  1  1  6
  2  3  1  0
  2  4  1  0
  4  5  1  0
  5  6  1  1
  7  8  2  0
  7  5  1  0
  9  7  1  0
 10  9  1  0
 10 11  1  1
 12 11  1  0
 12 13  2  0
 14 13  1  0
 15 14  2  0
 16 17  2  0
 16 15  1  0
 17 12  1  0
 18 10  1  0
 19 18  2  0
 20 21  1  0
 21 22  1  0
 23 22  1  0
 24 23  1  6
 24 25  1  0
 25 18  1  0
 26 28  1  0
 26 24  1  0
 27 26  2  0
M  END
$$$$
