LFM.pdb
     RDKit          3D

 28 28  0  0  1  0  0  0  0  0999 V2000
    4.9014  -21.8668   22.4589 C   0  0  0  0  0  0  0  0  0  0  0  0
    6.3640  -21.8419   22.7995 C   0  0  2  0  0  0  0  0  0  0  0  0
    6.5947  -22.8782   23.9000 C   0  0  0  0  0  0  0  0  0  0  0  0
    6.8285  -20.5281   23.3458 C   0  0  0  0  0  0  0  0  0  0  0  0
    6.6350  -19.3637   22.4270 C   0  0  2  0  0  0  0  0  0  0  0  0
    7.1814  -19.5550   21.1146 N   0  0  0  0  0  0  0  0  0  0  0  0
    7.1882  -18.1155   23.0435 C   0  0  0  0  0  0  0  0  0  0  0  0
    8.4102  -17.8543   22.8515 O   0  0  0  0  0  0  0  0  0  0  0  0
    6.4372  -17.2211   23.8195 N   0  0  0  0  0  0  0  0  0  0  0  0
    7.0621  -16.0719   24.4177 C   0  0  1  0  0  0  0  0  0  0  0  0
    6.0216  -15.1404   25.0017 C   0  0  0  0  0  0  0  0  0  0  0  0
    6.5981  -13.9319   25.6292 C   0  0  0  0  0  0  0  0  0  0  0  0
    7.4749  -13.0867   24.9584 C   0  0  0  0  0  0  0  0  0  0  0  0
    8.0068  -11.9584   25.5850 C   0  0  0  0  0  0  0  0  0  0  0  0
    7.6609  -11.6729   26.8891 C   0  0  0  0  0  0  0  0  0  0  0  0
    6.7957  -12.4905   27.5783 C   0  0  0  0  0  0  0  0  0  0  0  0
    6.2941  -13.5845   26.9368 C   0  0  0  0  0  0  0  0  0  0  0  0
    7.9469  -16.4690   25.5563 C   0  0  0  0  0  0  0  0  0  0  0  0
    7.4663  -17.2252   26.4363 O   0  0  0  0  0  0  0  0  0  0  0  0
   13.3920  -19.8802   26.9748 C   0  0  0  0  0  0  0  0  0  0  0  0
   11.8697  -20.1302   26.0242 S   0  0  0  0  0  0  0  0  0  0  0  0
   10.6505  -18.9092   26.6233 C   0  0  0  0  0  0  0  0  0  0  0  0
   11.1471  -17.5185   26.2885 C   0  0  0  0  0  0  0  0  0  0  0  0
   10.1601  -16.4831   26.7638 C   0  0  2  0  0  0  0  0  0  0  0  0
    9.2808  -16.0459   25.6975 N   0  0  0  0  0  0  0  0  0  0  0  0
   10.8558  -15.2698   27.2729 C   0  0  0  0  0  0  0  0  0  0  0  0
   10.9733  -14.2481   26.5484 O   0  0  0  0  0  0  0  0  0  0  0  0
   11.4041  -15.1933   28.5476 O   0  0  0  0  0  0  0  0  0  0  0  0
  2  1  1  1
  2  3  1  0
  2  4  1  0
  4  5  1  0
  5  6  1  6
  7  8  2  0
  7  5  1  0
  9  7  1  0
 10  9  1  0
 10 11  1  1
 12 11  1  0
 12 13  2  0
 14 13  1  0
 15 14  2  0
 16 17  2  0
 16 15  1  0
 17 12  1  0
 18 10  1  0
 19 18  2  0
 20 21  1  0
 21 22  1  0
 23 22  1  0
 24 23  1  6
 24 25  1  0
 25 18  1  0
 26 28  1  0
 26 24  1  0
 27 26  2  0
M  END
$$$$
