LFM.pdb
     RDKit          3D

 28 28  0  0  1  0  0  0  0  0999 V2000
   10.2341  -19.6546   17.5314 C   0  0  0  0  0  0  0  0  0  0  0  0
    9.3595  -18.4344   17.4856 C   0  0  2  0  0  0  0  0  0  0  0  0
    9.5791  -17.7652   16.1285 C   0  0  0  0  0  0  0  0  0  0  0  0
    9.7020  -17.4138   18.5255 C   0  0  0  0  0  0  0  0  0  0  0  0
    9.5528  -17.8836   19.9378 C   0  0  2  0  0  0  0  0  0  0  0  0
    8.4621  -18.7927   20.1414 N   0  0  0  0  0  0  0  0  0  0  0  0
    9.4349  -16.7141   20.8666 C   0  0  0  0  0  0  0  0  0  0  0  0
   10.2967  -15.7942   20.7692 O   0  0  0  0  0  0  0  0  0  0  0  0
    8.4311  -16.5767   21.8359 N   0  0  0  0  0  0  0  0  0  0  0  0
    8.3954  -15.4199   22.6901 C   0  0  1  0  0  0  0  0  0  0  0  0
    7.1175  -15.3929   23.5011 C   0  0  0  0  0  0  0  0  0  0  0  0
    6.9505  -14.1579   24.2970 C   0  0  0  0  0  0  0  0  0  0  0  0
    7.4506  -12.9282   23.8835 C   0  0  0  0  0  0  0  0  0  0  0  0
    7.2816  -11.7838   24.6648 C   0  0  0  0  0  0  0  0  0  0  0  0
    6.6093  -11.8683   25.8659 C   0  0  0  0  0  0  0  0  0  0  0  0
    6.1032  -13.0710   26.3012 C   0  0  0  0  0  0  0  0  0  0  0  0
    6.2857  -14.1696   25.5139 C   0  0  0  0  0  0  0  0  0  0  0  0
    9.5142  -15.4460   23.6825 C   0  0  0  0  0  0  0  0  0  0  0  0
   10.4086  -14.5703   23.5810 O   0  0  0  0  0  0  0  0  0  0  0  0
   10.3325  -14.2525   30.7631 C   0  0  0  0  0  0  0  0  0  0  0  0
   10.5953  -13.8399   29.0184 S   0  0  0  0  0  0  0  0  0  0  0  0
   10.4276  -15.3886   28.0646 C   0  0  0  0  0  0  0  0  0  0  0  0
   10.4803  -15.0604   26.5873 C   0  0  0  0  0  0  0  0  0  0  0  0
   10.6108  -16.3241   25.7760 C   0  0  2  0  0  0  0  0  0  0  0  0
    9.6216  -16.3913   24.7185 N   0  0  0  0  0  0  0  0  0  0  0  0
   10.4163  -17.5313   26.6247 C   0  0  0  0  0  0  0  0  0  0  0  0
    9.3761  -18.2302   26.5145 O   0  0  0  0  0  0  0  0  0  0  0  0
   11.3484  -17.9496   27.5668 O   0  0  0  0  0  0  0  0  0  0  0  0
  2  1  1  6
  2  3  1  0
  2  4  1  0
  4  5  1  0
  5  6  1  6
  7  8  2  0
  7  5  1  0
  9  7  1  0
 10  9  1  0
 10 11  1  1
 12 11  1  0
 12 13  2  0
 14 13  1  0
 15 14  2  0
 16 17  2  0
 16 15  1  0
 17 12  1  0
 18 10  1  0
 19 18  2  0
 20 21  1  0
 21 22  1  0
 23 22  1  0
 24 23  1  1
 24 25  1  0
 25 18  1  0
 26 28  1  0
 26 24  1  0
 27 26  2  0
M  END
$$$$
