SKQ.pdb
     RDKit          3D

 25 24  0  0  1  0  0  0  0  0999 V2000
   13.9989  -11.6293  -14.0114 O   0  0  0  0  0  0  0  0  0  0  0  0
   15.3227  -11.2250  -14.1385 C   0  0  0  0  0  0  0  0  0  0  0  0
   16.0034  -12.1375  -15.1315 C   0  0  2  0  0  0  0  0  0  0  0  0
   16.1242  -13.4311  -14.6332 N   0  0  0  0  0  0  0  0  0  0  0  0
   17.3382  -11.5421  -15.5221 C   0  0  0  0  0  0  0  0  0  0  0  0
   18.3302  -11.6561  -14.7992 O   0  0  0  0  0  0  0  0  0  0  0  0
   17.4230  -10.8587  -16.7223 N   0  0  0  0  0  0  0  0  0  0  0  0
   18.4865  -10.2432  -17.4062 C   0  0  1  0  0  0  0  0  0  0  0  0
   18.5812  -10.2990  -18.8908 C   0  0  0  0  0  0  0  0  0  0  0  0
   19.8331   -9.6830  -19.4133 C   0  0  0  0  0  0  0  0  0  0  0  0
   19.8881   -9.7497  -20.9516 C   0  0  0  0  0  0  0  0  0  0  0  0
   21.1982  -10.3950  -21.3836 C   0  0  0  0  0  0  0  0  0  0  0  0
   21.3057  -10.4361  -22.8292 N   0  0  0  0  0  0  0  0  0  0  0  0
   18.8504   -8.9895  -16.7620 C   0  0  0  0  0  0  0  0  0  0  0  0
   17.9586   -8.1697  -16.4646 O   0  0  0  0  0  0  0  0  0  0  0  0
   21.5304   -6.4597  -12.4622 N   0  0  0  0  0  0  0  0  0  0  0  0
   22.4211   -5.8459  -13.3648 C   0  0  0  0  0  0  0  0  0  0  0  0
   23.0752   -4.8499  -13.0085 O   0  0  0  0  0  0  0  0  0  0  0  0
   22.5401   -6.4389  -14.7467 C   0  0  0  0  0  0  0  0  0  0  0  0
   21.6879   -7.6582  -14.8462 C   0  0  0  0  0  0  0  0  0  0  0  0
   20.4878   -7.4699  -15.7023 C   0  0  2  0  0  0  0  0  0  0  0  0
   20.1792   -8.6701  -16.4618 N   0  0  0  0  0  0  0  0  0  0  0  0
   20.7095   -6.3809  -16.6724 C   0  0  0  0  0  0  0  0  0  0  0  0
   20.6002   -5.0261  -16.4243 O   0  0  0  0  0  0  0  0  0  0  0  0
   21.0328   -6.7077  -17.8642 O   0  0  0  0  0  0  0  0  0  0  0  0
  2  1  1  0
  3  2  1  0
  3  4  1  1
  5  6  2  0
  5  3  1  0
  7  5  1  0
  8  7  1  0
  8  9  1  6
 10  9  1  0
 11 10  1  0
 12 11  1  0
 12 13  1  0
 14 22  1  0
 14  8  1  0
 15 14  2  0
 17 18  2  0
 17 16  1  0
 19 17  1  0
 21 20  1  6
 20 19  1  0
 21 23  1  0
 21 22  1  0
 23 24  1  0
 25 23  2  0
M  END
$$$$
