SKQ.pdb
     RDKit          3D

 25 24  0  0  1  0  0  0  0  0999 V2000
   27.3085  -10.3799  -15.7152 O   0  0  0  0  0  0  0  0  0  0  0  0
   26.2671  -10.8660  -14.9334 C   0  0  0  0  0  0  0  0  0  0  0  0
   25.2640  -11.5350  -15.8436 C   0  0  2  0  0  0  0  0  0  0  0  0
   25.8869  -12.1295  -16.9368 N   0  0  0  0  0  0  0  0  0  0  0  0
   24.2140  -10.5265  -16.2551 C   0  0  0  0  0  0  0  0  0  0  0  0
   24.3751   -9.7914  -17.2315 O   0  0  0  0  0  0  0  0  0  0  0  0
   23.0551  -10.4458  -15.5034 N   0  0  0  0  0  0  0  0  0  0  0  0
   21.8874   -9.6702  -15.6153 C   0  0  1  0  0  0  0  0  0  0  0  0
   20.5497  -10.2445  -15.3045 C   0  0  0  0  0  0  0  0  0  0  0  0
   19.4325   -9.3110  -15.6211 C   0  0  0  0  0  0  0  0  0  0  0  0
   18.0664   -9.9448  -15.2963 C   0  0  0  0  0  0  0  0  0  0  0  0
   16.9560   -8.9681  -15.6596 C   0  0  0  0  0  0  0  0  0  0  0  0
   15.6543   -9.5991  -15.5576 N   0  0  0  0  0  0  0  0  0  0  0  0
   22.1406   -8.3018  -15.1880 C   0  0  0  0  0  0  0  0  0  0  0  0
   22.6267   -8.0903  -14.0589 O   0  0  0  0  0  0  0  0  0  0  0  0
   24.2414   -3.8955  -18.6835 N   0  0  0  0  0  0  0  0  0  0  0  0
   24.0965   -3.1353  -17.5063 C   0  0  0  0  0  0  0  0  0  0  0  0
   24.5775   -1.9899  -17.4457 O   0  0  0  0  0  0  0  0  0  0  0  0
   23.3502   -3.7604  -16.3541 C   0  0  0  0  0  0  0  0  0  0  0  0
   22.9174   -5.1385  -16.7233 C   0  0  0  0  0  0  0  0  0  0  0  0
   22.2598   -5.8681  -15.6079 C   0  0  2  0  0  0  0  0  0  0  0  0
   21.8549   -7.2052  -16.0090 N   0  0  0  0  0  0  0  0  0  0  0  0
   21.0458   -5.1550  -15.1673 C   0  0  0  0  0  0  0  0  0  0  0  0
   20.9898   -4.1108  -14.2644 O   0  0  0  0  0  0  0  0  0  0  0  0
   19.9284   -5.5308  -15.6591 O   0  0  0  0  0  0  0  0  0  0  0  0
  2  1  1  0
  3  2  1  0
  3  4  1  6
  5  6  2  0
  5  3  1  0
  7  5  1  0
  8  7  1  0
  8  9  1  1
 10  9  1  0
 11 10  1  0
 12 11  1  0
 12 13  1  0
 14 22  1  0
 14  8  1  0
 15 14  2  0
 17 18  2  0
 17 16  1  0
 19 17  1  0
 21 20  1  6
 20 19  1  0
 21 23  1  0
 21 22  1  0
 23 24  1  0
 25 23  2  0
M  END
$$$$
