SKQ.pdb
     RDKit          3D

 25 24  0  0  1  0  0  0  0  0999 V2000
   19.5599  -14.8112  -14.1134 O   0  0  0  0  0  0  0  0  0  0  0  0
   19.8083  -16.1785  -14.1436 C   0  0  0  0  0  0  0  0  0  0  0  0
   20.5640  -16.4947  -15.4129 C   0  0  2  0  0  0  0  0  0  0  0  0
   19.9458  -15.9330  -16.5258 N   0  0  0  0  0  0  0  0  0  0  0  0
   20.7251  -17.9939  -15.5369 C   0  0  0  0  0  0  0  0  0  0  0  0
   19.8471  -18.6960  -16.0426 O   0  0  0  0  0  0  0  0  0  0  0  0
   21.8928  -18.5670  -15.0650 N   0  0  0  0  0  0  0  0  0  0  0  0
   22.3152  -19.8989  -14.9060 C   0  0  1  0  0  0  0  0  0  0  0  0
   23.7612  -20.2523  -14.9055 C   0  0  0  0  0  0  0  0  0  0  0  0
   24.0194  -21.6298  -15.4114 C   0  0  0  0  0  0  0  0  0  0  0  0
   25.5293  -21.8934  -15.5670 C   0  0  0  0  0  0  0  0  0  0  0  0
   25.7408  -23.2432  -16.2395 C   0  0  0  0  0  0  0  0  0  0  0  0
   27.1513  -23.5010  -16.4564 N   0  0  0  0  0  0  0  0  0  0  0  0
   21.4585  -20.5965  -13.9582 C   0  0  0  0  0  0  0  0  0  0  0  0
   21.5055  -20.2941  -12.7489 O   0  0  0  0  0  0  0  0  0  0  0  0
   15.7107  -21.4022  -14.0228 N   0  0  0  0  0  0  0  0  0  0  0  0
   15.9553  -22.2339  -12.9123 C   0  0  0  0  0  0  0  0  0  0  0  0
   15.0050  -22.6313  -12.2151 O   0  0  0  0  0  0  0  0  0  0  0  0
   17.3862  -22.6092  -12.6175 C   0  0  0  0  0  0  0  0  0  0  0  0
   18.2927  -21.9441  -13.5966 C   0  0  0  0  0  0  0  0  0  0  0  0
   19.7278  -22.2664  -13.3837 C   0  0  2  0  0  0  0  0  0  0  0  0
   20.5752  -21.6041  -14.3615 N   0  0  0  0  0  0  0  0  0  0  0  0
   19.9575  -23.7177  -13.5146 C   0  0  0  0  0  0  0  0  0  0  0  0
   20.5102  -24.3662  -14.6021 O   0  0  0  0  0  0  0  0  0  0  0  0
   19.6143  -24.4612  -12.5342 O   0  0  0  0  0  0  0  0  0  0  0  0
  2  1  1  0
  3  2  1  0
  3  4  1  6
  5  6  2  0
  5  3  1  0
  7  5  1  0
  8  7  1  0
  8  9  1  1
 10  9  1  0
 11 10  1  0
 12 11  1  0
 12 13  1  0
 14 22  1  0
 14  8  1  0
 15 14  2  0
 17 18  2  0
 17 16  1  0
 19 17  1  0
 21 20  1  6
 20 19  1  0
 21 23  1  0
 21 22  1  0
 23 24  1  0
 25 23  2  0
M  END
$$$$
