SKQ.pdb
     RDKit          3D

 25 24  0  0  1  0  0  0  0  0999 V2000
   25.0053   -9.5142  -14.9685 O   0  0  0  0  0  0  0  0  0  0  0  0
   24.1509  -10.3881  -14.3064 C   0  0  0  0  0  0  0  0  0  0  0  0
   23.3811  -11.1734  -15.3421 C   0  0  2  0  0  0  0  0  0  0  0  0
   24.2356  -11.7920  -16.2496 N   0  0  0  0  0  0  0  0  0  0  0  0
   22.3824  -10.2606  -16.0192 C   0  0  0  0  0  0  0  0  0  0  0  0
   22.6222   -9.7414  -17.1113 O   0  0  0  0  0  0  0  0  0  0  0  0
   21.1800  -10.0180  -15.3790 N   0  0  0  0  0  0  0  0  0  0  0  0
   20.0144   -9.3247  -15.7509 C   0  0  1  0  0  0  0  0  0  0  0  0
   18.6642   -9.8961  -15.4934 C   0  0  0  0  0  0  0  0  0  0  0  0
   17.5759   -9.1328  -16.1663 C   0  0  0  0  0  0  0  0  0  0  0  0
   16.1895   -9.6929  -15.7951 C   0  0  0  0  0  0  0  0  0  0  0  0
   15.1159   -8.9417  -16.5711 C   0  0  0  0  0  0  0  0  0  0  0  0
   13.8057   -9.5175  -16.3365 N   0  0  0  0  0  0  0  0  0  0  0  0
   20.1831   -7.8938  -15.5428 C   0  0  0  0  0  0  0  0  0  0  0  0
   20.5744   -7.4758  -14.4345 O   0  0  0  0  0  0  0  0  0  0  0  0
   20.8966   -3.5030  -19.8539 N   0  0  0  0  0  0  0  0  0  0  0  0
   20.8645   -2.6842  -18.7078 C   0  0  0  0  0  0  0  0  0  0  0  0
   21.0522   -1.4595  -18.8165 O   0  0  0  0  0  0  0  0  0  0  0  0
   20.5987   -3.3463  -17.3789 C   0  0  0  0  0  0  0  0  0  0  0  0
   20.3985   -4.8103  -17.5772 C   0  0  0  0  0  0  0  0  0  0  0  0
   20.1314   -5.5449  -16.3131 C   0  0  2  0  0  0  0  0  0  0  0  0
   19.9192   -6.9626  -16.5533 N   0  0  0  0  0  0  0  0  0  0  0  0
   18.9167   -5.0237  -15.6581 C   0  0  0  0  0  0  0  0  0  0  0  0
   18.8686   -4.0781  -14.6519 O   0  0  0  0  0  0  0  0  0  0  0  0
   17.7909   -5.4846  -16.0478 O   0  0  0  0  0  0  0  0  0  0  0  0
  2  1  1  0
  3  2  1  0
  3  4  1  6
  5  6  2  0
  5  3  1  0
  7  5  1  0
  8  7  1  0
  8  9  1  1
 10  9  1  0
 11 10  1  0
 12 11  1  0
 12 13  1  0
 14 22  1  0
 14  8  1  0
 15 14  2  0
 17 18  2  0
 17 16  1  0
 19 17  1  0
 21 20  1  6
 20 19  1  0
 21 23  1  0
 21 22  1  0
 23 24  1  0
 25 23  2  0
M  END
$$$$
