SKQ.pdb
     RDKit          3D

 25 24  0  0  1  0  0  0  0  0999 V2000
   24.1995  -11.6086  -18.5511 O   0  0  0  0  0  0  0  0  0  0  0  0
   23.4227  -10.4983  -18.2413 C   0  0  0  0  0  0  0  0  0  0  0  0
   22.0456  -10.9786  -17.8477 C   0  0  2  0  0  0  0  0  0  0  0  0
   21.3596  -11.5041  -18.9384 N   0  0  0  0  0  0  0  0  0  0  0  0
   21.2936   -9.8462  -17.1835 C   0  0  0  0  0  0  0  0  0  0  0  0
   20.9371   -8.8510  -17.8176 O   0  0  0  0  0  0  0  0  0  0  0  0
   21.0111   -9.9527  -15.8331 N   0  0  0  0  0  0  0  0  0  0  0  0
   20.3364   -9.1201  -14.9225 C   0  0  1  0  0  0  0  0  0  0  0  0
   19.5564   -9.6910  -13.7905 C   0  0  0  0  0  0  0  0  0  0  0  0
   18.7110   -8.6759  -13.1014 C   0  0  0  0  0  0  0  0  0  0  0  0
   18.0398   -9.2672  -11.8470 C   0  0  0  0  0  0  0  0  0  0  0  0
   17.0861   -8.2401  -11.2516 C   0  0  0  0  0  0  0  0  0  0  0  0
   16.5688   -8.6901   -9.9737 N   0  0  0  0  0  0  0  0  0  0  0  0
   21.1138   -7.9183  -14.6569 C   0  0  0  0  0  0  0  0  0  0  0  0
   22.2716   -8.0226  -14.2044 O   0  0  0  0  0  0  0  0  0  0  0  0
   20.8485   -2.7223  -17.6133 N   0  0  0  0  0  0  0  0  0  0  0  0
   21.6662   -2.2465  -16.5693 C   0  0  0  0  0  0  0  0  0  0  0  0
   22.2969   -1.1840  -16.7119 O   0  0  0  0  0  0  0  0  0  0  0  0
   21.7379   -3.0655  -15.3046 C   0  0  0  0  0  0  0  0  0  0  0  0
   20.8997   -4.2898  -15.4497 C   0  0  0  0  0  0  0  0  0  0  0  0
   21.4529   -5.4704  -14.7362 C   0  0  2  0  0  0  0  0  0  0  0  0
   20.6018   -6.6379  -14.8947 N   0  0  0  0  0  0  0  0  0  0  0  0
   21.5603   -5.1980  -13.2903 C   0  0  0  0  0  0  0  0  0  0  0  0
   22.6714   -4.7139  -12.6269 O   0  0  0  0  0  0  0  0  0  0  0  0
   20.5332   -5.4301  -12.5672 O   0  0  0  0  0  0  0  0  0  0  0  0
  2  1  1  0
  3  2  1  0
  3  4  1  6
  5  6  2  0
  5  3  1  0
  7  5  1  0
  8  7  1  0
  8  9  1  1
 10  9  1  0
 11 10  1  0
 12 11  1  0
 12 13  1  0
 14 22  1  0
 14  8  1  0
 15 14  2  0
 17 18  2  0
 17 16  1  0
 19 17  1  0
 21 20  1  6
 20 19  1  0
 21 23  1  0
 21 22  1  0
 23 24  1  0
 25 23  2  0
M  END
$$$$
