SKQ.pdb
     RDKit          3D

 25 24  0  0  1  0  0  0  0  0999 V2000
   17.0233  -13.2325  -10.7514 O   0  0  0  0  0  0  0  0  0  0  0  0
   16.9548  -11.9368  -11.2498 C   0  0  0  0  0  0  0  0  0  0  0  0
   15.5186  -11.4748  -11.1722 C   0  0  2  0  0  0  0  0  0  0  0  0
   14.7461  -12.0450  -12.1794 N   0  0  0  0  0  0  0  0  0  0  0  0
   15.4791   -9.9626  -11.2002 C   0  0  0  0  0  0  0  0  0  0  0  0
   15.3805   -9.3407  -12.2601 O   0  0  0  0  0  0  0  0  0  0  0  0
   15.5569   -9.2844   -9.9966 N   0  0  0  0  0  0  0  0  0  0  0  0
   15.5157   -7.9206   -9.6561 C   0  0  1  0  0  0  0  0  0  0  0  0
   14.7782   -7.4504   -8.4516 C   0  0  0  0  0  0  0  0  0  0  0  0
   14.7817   -5.9669   -8.3146 C   0  0  0  0  0  0  0  0  0  0  0  0
   13.9213   -5.5146   -7.1193 C   0  0  0  0  0  0  0  0  0  0  0  0
   13.9080   -3.9933   -7.0521 C   0  0  0  0  0  0  0  0  0  0  0  0
   12.9848   -3.5256   -6.0362 N   0  0  0  0  0  0  0  0  0  0  0  0
   16.7916   -7.2830   -9.9471 C   0  0  0  0  0  0  0  0  0  0  0  0
   17.7828   -7.5374   -9.2338 O   0  0  0  0  0  0  0  0  0  0  0  0
   22.4474   -6.6852  -13.7935 N   0  0  0  0  0  0  0  0  0  0  0  0
   21.2417   -7.1214  -13.2096 C   0  0  0  0  0  0  0  0  0  0  0  0
   20.9103   -8.3173  -13.2933 O   0  0  0  0  0  0  0  0  0  0  0  0
   20.3951   -6.0961  -12.4973 C   0  0  0  0  0  0  0  0  0  0  0  0
   19.1146   -6.7194  -12.0565 C   0  0  0  0  0  0  0  0  0  0  0  0
   18.2446   -5.7946  -11.2839 C   0  0  2  0  0  0  0  0  0  0  0  0
   16.9455   -6.3862  -11.0102 N   0  0  0  0  0  0  0  0  0  0  0  0
   18.0101   -4.5505  -12.0411 C   0  0  0  0  0  0  0  0  0  0  0  0
   18.9164   -3.5263  -12.2376 O   0  0  0  0  0  0  0  0  0  0  0  0
   16.8592   -4.3894  -12.5714 O   0  0  0  0  0  0  0  0  0  0  0  0
  2  1  1  0
  3  2  1  0
  3  4  1  6
  5  6  2  0
  5  3  1  0
  7  5  1  0
  8  7  1  0
  8  9  1  1
 10  9  1  0
 11 10  1  0
 12 11  1  0
 12 13  1  0
 14 22  1  0
 14  8  1  0
 15 14  2  0
 17 18  2  0
 17 16  1  0
 19 17  1  0
 21 20  1  6
 20 19  1  0
 21 23  1  0
 21 22  1  0
 23 24  1  0
 25 23  2  0
M  END
$$$$
