SKQ.pdb
     RDKit          3D

 25 24  0  0  1  0  0  0  0  0999 V2000
   28.0688  -10.0129  -16.3716 O   0  0  0  0  0  0  0  0  0  0  0  0
   27.1206  -10.3180  -15.4020 C   0  0  0  0  0  0  0  0  0  0  0  0
   26.0717  -11.2065  -16.0284 C   0  0  2  0  0  0  0  0  0  0  0  0
   26.5848  -11.9125  -17.1122 N   0  0  0  0  0  0  0  0  0  0  0  0
   24.8679  -10.3697  -16.4019 C   0  0  0  0  0  0  0  0  0  0  0  0
   24.7938   -9.7989  -17.4921 O   0  0  0  0  0  0  0  0  0  0  0  0
   23.8394  -10.2572  -15.4830 N   0  0  0  0  0  0  0  0  0  0  0  0
   22.5809   -9.6310  -15.5191 C   0  0  1  0  0  0  0  0  0  0  0  0
   21.3301  -10.4039  -15.2863 C   0  0  0  0  0  0  0  0  0  0  0  0
   20.1002   -9.5926  -15.5070 C   0  0  0  0  0  0  0  0  0  0  0  0
   18.8300  -10.4124  -15.2102 C   0  0  0  0  0  0  0  0  0  0  0  0
   17.6000   -9.5777  -15.5408 C   0  0  0  0  0  0  0  0  0  0  0  0
   16.3821  -10.2931  -15.2120 N   0  0  0  0  0  0  0  0  0  0  0  0
   22.6574   -8.2973  -14.9405 C   0  0  0  0  0  0  0  0  0  0  0  0
   23.0670   -8.1574  -13.7706 O   0  0  0  0  0  0  0  0  0  0  0  0
   21.6593   -2.8248  -17.8183 N   0  0  0  0  0  0  0  0  0  0  0  0
   21.9776   -2.3617  -16.5264 C   0  0  0  0  0  0  0  0  0  0  0  0
   21.9939   -1.1401  -16.2931 O   0  0  0  0  0  0  0  0  0  0  0  0
   22.2893   -3.3907  -15.4685 C   0  0  0  0  0  0  0  0  0  0  0  0
   22.1049   -4.7600  -16.0286 C   0  0  0  0  0  0  0  0  0  0  0  0
   22.4012   -5.8406  -15.0523 C   0  0  2  0  0  0  0  0  0  0  0  0
   22.2840   -7.1562  -15.6591 N   0  0  0  0  0  0  0  0  0  0  0  0
   21.4538   -5.7919  -13.9225 C   0  0  0  0  0  0  0  0  0  0  0  0
   20.1330   -6.1970  -13.9412 O   0  0  0  0  0  0  0  0  0  0  0  0
   21.8823   -5.3299  -12.8114 O   0  0  0  0  0  0  0  0  0  0  0  0
  2  1  1  0
  3  2  1  0
  3  4  1  6
  5  6  2  0
  5  3  1  0
  7  5  1  0
  8  7  1  0
  8  9  1  1
 10  9  1  0
 11 10  1  0
 12 11  1  0
 12 13  1  0
 14 22  1  0
 14  8  1  0
 15 14  2  0
 17 18  2  0
 17 16  1  0
 19 17  1  0
 21 20  1  6
 20 19  1  0
 21 23  1  0
 21 22  1  0
 23 24  1  0
 25 23  2  0
M  END
$$$$
