NRK.pdb
     RDKit          3D

 29 28  0  0  1  0  0  0  0  0999 V2000
   21.2441  -13.3054  -19.9779 N   0  0  0  0  0  0  0  0  0  0  0  0
   22.5577  -13.8804  -19.7468 C   0  0  0  0  0  0  0  0  0  0  0  0
   23.5147  -13.1360  -20.0437 O   0  0  0  0  0  0  0  0  0  0  0  0
   22.6497  -15.2450  -19.2011 C   0  0  0  0  0  0  0  0  0  0  0  0
   24.0581  -15.7682  -19.1019 C   0  0  2  0  0  0  0  0  0  0  0  0
   24.4367  -16.2840  -20.4329 N   0  0  0  0  0  0  0  0  0  0  0  0
   24.0530  -16.9500  -18.1817 C   0  0  0  0  0  0  0  0  0  0  0  0
   23.6213  -18.0380  -18.6187 O   0  0  0  0  0  0  0  0  0  0  0  0
   28.7455  -20.9303  -12.3546 N   0  0  0  0  0  0  0  0  0  0  0  0
   27.3863  -21.0451  -11.9678 C   0  0  0  0  0  0  0  0  0  0  0  0
   27.0618  -21.3067  -10.7462 N   0  0  0  0  0  0  0  0  0  0  0  0
   26.3360  -20.8725  -12.9277 N   0  0  0  0  0  0  0  0  0  0  0  0
   26.3952  -19.8074  -13.9091 C   0  0  0  0  0  0  0  0  0  0  0  0
   25.2726  -18.8130  -13.7159 C   0  0  0  0  0  0  0  0  0  0  0  0
   25.4049  -17.6923  -14.7221 C   0  0  0  0  0  0  0  0  0  0  0  0
   24.5107  -17.9113  -15.9229 C   0  0  2  0  0  0  0  0  0  0  0  0
   24.5333  -16.8208  -16.8396 N   0  0  0  0  0  0  0  0  0  0  0  0
   23.1266  -18.1463  -15.3699 C   0  0  0  0  0  0  0  0  0  0  0  0
   22.4864  -17.2081  -14.8329 O   0  0  0  0  0  0  0  0  0  0  0  0
   26.0527  -21.3701  -10.5139 N   0  0  0  0  0  0  0  0  0  0  0  0
   22.5062  -19.4154  -15.4345 C   0  0  2  0  0  0  0  0  0  0  0  0
   21.1159  -19.5833  -14.9736 C   0  0  0  0  0  0  0  0  0  0  0  0
   20.3348  -20.4020  -15.9555 C   0  0  0  0  0  0  0  0  0  0  0  0
   18.9183  -20.5672  -15.5418 C   0  0  0  0  0  0  0  0  0  0  0  0
   18.1925  -21.5011  -16.4959 C   0  0  0  0  0  0  0  0  0  0  0  0
   16.7205  -21.4644  -16.0574 N   0  0  0  0  0  0  0  0  0  0  0  0
   15.9343  -21.8664  -17.2004 C   0  0  0  0  0  0  0  0  0  0  0  0
   21.1747  -20.1301  -13.6117 O   0  0  0  0  0  0  0  0  0  0  0  0
   22.3422  -20.6902  -13.1334 O   0  0  0  0  0  0  0  0  0  0  0  0
  2  1  1  0
  3  2  2  0
  4  5  1  0
  4  2  1  0
  5  6  1  6
  7  5  1  0
  7  8  2  0
 10  9  1  0
 11 10  2  0
 12 10  1  0
 13 12  1  0
 14 13  1  0
 15 14  1  0
 16 15  1  1
 16 17  1  0
 17  7  1  0
 18 16  1  0
 19 18  2  0
 20 18  1  0
 21 20  1  0
 21 27  1  0
 21 22  1  6
 23 24  1  0
 23 22  1  0
 24 25  1  0
 25 26  1  0
 27 28  1  0
 29 27  2  0
M  END
$$$$
