NRK.pdb
     RDKit          3D

 29 28  0  0  1  0  0  0  0  0999 V2000
   29.3591  -24.2147  -17.9311 N   0  0  0  0  0  0  0  0  0  0  0  0
   29.9213  -23.1034  -17.1837 C   0  0  0  0  0  0  0  0  0  0  0  0
   31.1685  -23.0516  -17.1815 O   0  0  0  0  0  0  0  0  0  0  0  0
   29.0072  -22.1630  -16.5141 C   0  0  0  0  0  0  0  0  0  0  0  0
   27.5526  -22.5294  -16.6446 C   0  0  2  0  0  0  0  0  0  0  0  0
   27.0971  -22.0789  -17.9752 N   0  0  0  0  0  0  0  0  0  0  0  0
   26.7780  -21.7278  -15.6441 C   0  0  0  0  0  0  0  0  0  0  0  0
   26.9395  -21.9804  -14.4313 O   0  0  0  0  0  0  0  0  0  0  0  0
   25.4324  -13.7261  -17.1216 N   0  0  0  0  0  0  0  0  0  0  0  0
   25.0350  -14.2538  -15.8670 C   0  0  0  0  0  0  0  0  0  0  0  0
   24.4585  -13.5092  -14.9844 N   0  0  0  0  0  0  0  0  0  0  0  0
   25.2646  -15.6321  -15.5479 N   0  0  0  0  0  0  0  0  0  0  0  0
   25.9905  -16.4940  -16.4597 C   0  0  0  0  0  0  0  0  0  0  0  0
   26.2235  -17.8629  -15.8612 C   0  0  0  0  0  0  0  0  0  0  0  0
   24.8960  -18.5205  -15.5592 C   0  0  0  0  0  0  0  0  0  0  0  0
   25.0680  -19.9716  -15.1669 C   0  0  2  0  0  0  0  0  0  0  0  0
   25.8800  -20.7026  -16.0815 N   0  0  0  0  0  0  0  0  0  0  0  0
   23.6745  -20.5436  -15.0781 C   0  0  0  0  0  0  0  0  0  0  0  0
   23.0939  -20.9715  -16.1067 O   0  0  0  0  0  0  0  0  0  0  0  0
   24.1491  -13.9543  -14.0997 N   0  0  0  0  0  0  0  0  0  0  0  0
   22.9789  -20.6182  -13.8492 C   0  0  2  0  0  0  0  0  0  0  0  0
   21.6474  -21.2485  -13.7902 C   0  0  0  0  0  0  0  0  0  0  0  0
   21.3771  -21.7717  -12.4127 C   0  0  0  0  0  0  0  0  0  0  0  0
   20.0550  -22.4412  -12.3199 C   0  0  0  0  0  0  0  0  0  0  0  0
   19.7618  -22.8396  -10.8830 C   0  0  0  0  0  0  0  0  0  0  0  0
   18.3861  -23.5222  -10.9245 N   0  0  0  0  0  0  0  0  0  0  0  0
   18.0399  -23.8471   -9.5604 C   0  0  0  0  0  0  0  0  0  0  0  0
   20.6790  -20.2608  -14.2842 O   0  0  0  0  0  0  0  0  0  0  0  0
   19.5530  -20.6689  -14.9706 O   0  0  0  0  0  0  0  0  0  0  0  0
  2  1  1  0
  3  2  2  0
  4  5  1  0
  4  2  1  0
  5  6  1  6
  7  5  1  0
  7  8  2  0
 10  9  1  0
 11 10  2  0
 12 10  1  0
 13 12  1  0
 14 13  1  0
 15 14  1  0
 16 15  1  6
 16 17  1  0
 17  7  1  0
 18 16  1  0
 19 18  2  0
 20 18  1  0
 21 20  1  0
 21 27  1  0
 21 22  1  1
 23 24  1  0
 23 22  1  0
 24 25  1  0
 25 26  1  0
 27 28  1  0
 29 27  2  0
M  END
$$$$
