NRK.pdb
     RDKit          3D

 29 28  0  0  1  0  0  0  0  0999 V2000
   19.3378  -22.2360  -12.5228 N   0  0  0  0  0  0  0  0  0  0  0  0
   19.8720  -21.1739  -11.6885 C   0  0  0  0  0  0  0  0  0  0  0  0
   19.2542  -20.9863  -10.6201 O   0  0  0  0  0  0  0  0  0  0  0  0
   21.0558  -20.4320  -12.1542 C   0  0  0  0  0  0  0  0  0  0  0  0
   21.5730  -20.8876  -13.4928 C   0  0  2  0  0  0  0  0  0  0  0  0
   21.9932  -22.2964  -13.3523 N   0  0  0  0  0  0  0  0  0  0  0  0
   22.8150  -20.1099  -13.8024 C   0  0  0  0  0  0  0  0  0  0  0  0
   22.6915  -18.9313  -14.1981 O   0  0  0  0  0  0  0  0  0  0  0  0
   29.4579  -21.0266   -9.8398 N   0  0  0  0  0  0  0  0  0  0  0  0
   29.6351  -21.4690  -11.1752 C   0  0  0  0  0  0  0  0  0  0  0  0
   30.1832  -22.6090  -11.4314 N   0  0  0  0  0  0  0  0  0  0  0  0
   29.2078  -20.6576  -12.2768 N   0  0  0  0  0  0  0  0  0  0  0  0
   28.3054  -19.5421  -12.0707 C   0  0  0  0  0  0  0  0  0  0  0  0
   26.8608  -19.9885  -12.0821 C   0  0  0  0  0  0  0  0  0  0  0  0
   26.5400  -20.6451  -13.4057 C   0  0  0  0  0  0  0  0  0  0  0  0
   25.3004  -20.0510  -14.0379 C   0  0  2  0  0  0  0  0  0  0  0  0
   24.1026  -20.7147  -13.6442 N   0  0  0  0  0  0  0  0  0  0  0  0
   25.5180  -20.1313  -15.5289 C   0  0  0  0  0  0  0  0  0  0  0  0
   25.4342  -21.2327  -16.1274 O   0  0  0  0  0  0  0  0  0  0  0  0
   30.3403  -22.8608  -12.4255 N   0  0  0  0  0  0  0  0  0  0  0  0
   25.8207  -18.9842  -16.2985 C   0  0  2  0  0  0  0  0  0  0  0  0
   26.0019  -19.0989  -17.7571 C   0  0  0  0  0  0  0  0  0  0  0  0
   25.2487  -18.0141  -18.4645 C   0  0  0  0  0  0  0  0  0  0  0  0
   25.2951  -18.1740  -19.9400 C   0  0  0  0  0  0  0  0  0  0  0  0
   24.5274  -17.0522  -20.6195 C   0  0  0  0  0  0  0  0  0  0  0  0
   24.6520  -17.3303  -22.1253 N   0  0  0  0  0  0  0  0  0  0  0  0
   23.8449  -16.3410  -22.8006 C   0  0  0  0  0  0  0  0  0  0  0  0
   27.4481  -19.1237  -18.0126 O   0  0  0  0  0  0  0  0  0  0  0  0
   27.9701  -19.9399  -18.9959 O   0  0  0  0  0  0  0  0  0  0  0  0
  2  1  1  0
  3  2  2  0
  4  5  1  0
  4  2  1  0
  5  6  1  1
  7  5  1  0
  7  8  2  0
 10  9  1  0
 11 10  2  0
 12 10  1  0
 13 12  1  0
 14 13  1  0
 15 14  1  0
 16 15  1  1
 16 17  1  0
 17  7  1  0
 18 16  1  0
 19 18  2  0
 20 18  1  0
 21 20  1  0
 21 27  1  0
 21 22  1  1
 23 24  1  0
 23 22  1  0
 24 25  1  0
 25 26  1  0
 27 28  1  0
 29 27  2  0
M  END
$$$$
