NRK.pdb
     RDKit          3D

 29 28  0  0  1  0  0  0  0  0999 V2000
   23.1943  -21.1087   -8.2260 N   0  0  0  0  0  0  0  0  0  0  0  0
   24.4812  -20.5127   -7.9125 C   0  0  0  0  0  0  0  0  0  0  0  0
   24.7193  -20.3921   -6.6931 O   0  0  0  0  0  0  0  0  0  0  0  0
   25.3676  -20.1140   -9.0188 C   0  0  0  0  0  0  0  0  0  0  0  0
   24.8175  -20.4288  -10.3845 C   0  0  2  0  0  0  0  0  0  0  0  0
   24.6470  -21.8933  -10.4696 N   0  0  0  0  0  0  0  0  0  0  0  0
   25.8576  -20.0695  -11.4006 C   0  0  0  0  0  0  0  0  0  0  0  0
   26.1538  -18.8641  -11.5428 O   0  0  0  0  0  0  0  0  0  0  0  0
   32.5777  -23.4945  -12.1191 N   0  0  0  0  0  0  0  0  0  0  0  0
   32.2760  -22.3879  -11.2856 C   0  0  0  0  0  0  0  0  0  0  0  0
   32.5531  -22.4090  -10.0252 N   0  0  0  0  0  0  0  0  0  0  0  0
   31.6540  -21.2146  -11.8250 N   0  0  0  0  0  0  0  0  0  0  0  0
   31.1606  -21.1961  -13.1879 C   0  0  0  0  0  0  0  0  0  0  0  0
   29.8374  -20.4712  -13.2884 C   0  0  0  0  0  0  0  0  0  0  0  0
   28.7020  -21.4613  -13.1597 C   0  0  0  0  0  0  0  0  0  0  0  0
   27.3542  -20.7826  -13.2682 C   0  0  2  0  0  0  0  0  0  0  0  0
   26.4867  -21.0913  -12.1808 N   0  0  0  0  0  0  0  0  0  0  0  0
   26.7732  -21.2262  -14.5882 C   0  0  0  0  0  0  0  0  0  0  0  0
   26.1711  -22.3248  -14.6832 O   0  0  0  0  0  0  0  0  0  0  0  0
   32.3221  -21.5688   -9.4622 N   0  0  0  0  0  0  0  0  0  0  0  0
   26.8835  -20.4321  -15.7530 C   0  0  2  0  0  0  0  0  0  0  0  0
   25.6941  -20.1671  -16.5828 C   0  0  0  0  0  0  0  0  0  0  0  0
   24.5583  -19.6885  -15.7310 C   0  0  0  0  0  0  0  0  0  0  0  0
   23.4051  -20.6234  -15.7626 C   0  0  0  0  0  0  0  0  0  0  0  0
   22.1711  -19.9637  -15.1697 C   0  0  0  0  0  0  0  0  0  0  0  0
   21.0729  -21.0367  -15.2233 N   0  0  0  0  0  0  0  0  0  0  0  0
   19.8701  -20.4293  -14.7031 C   0  0  0  0  0  0  0  0  0  0  0  0
   26.1070  -19.2447  -17.6487 O   0  0  0  0  0  0  0  0  0  0  0  0
   25.9641  -19.6004  -18.9749 O   0  0  0  0  0  0  0  0  0  0  0  0
  2  1  1  0
  3  2  2  0
  4  5  1  0
  4  2  1  0
  5  6  1  1
  7  5  1  0
  7  8  2  0
 10  9  1  0
 11 10  2  0
 12 10  1  0
 13 12  1  0
 14 13  1  0
 15 14  1  0
 16 15  1  1
 16 17  1  0
 17  7  1  0
 18 16  1  0
 19 18  2  0
 20 18  1  0
 21 20  1  0
 21 27  1  0
 21 22  1  6
 23 24  1  0
 23 22  1  0
 24 25  1  0
 25 26  1  0
 27 28  1  0
 29 27  2  0
M  END
$$$$
