NRK.pdb
     RDKit          3D

 29 28  0  0  1  0  0  0  0  0999 V2000
   16.3425  -14.6272  -12.1913 N   0  0  0  0  0  0  0  0  0  0  0  0
   17.1187  -13.5894  -12.8471 C   0  0  0  0  0  0  0  0  0  0  0  0
   18.1490  -13.9926  -13.4253 O   0  0  0  0  0  0  0  0  0  0  0  0
   16.6441  -12.1971  -12.7789 C   0  0  0  0  0  0  0  0  0  0  0  0
   15.3657  -12.0263  -12.0020 C   0  0  2  0  0  0  0  0  0  0  0  0
   14.2587  -12.5046  -12.8546 N   0  0  0  0  0  0  0  0  0  0  0  0
   15.1346  -10.5602  -11.8005 C   0  0  0  0  0  0  0  0  0  0  0  0
   14.8263   -9.8681  -12.7940 O   0  0  0  0  0  0  0  0  0  0  0  0
   11.0589   -6.2772   -5.5504 N   0  0  0  0  0  0  0  0  0  0  0  0
   11.2083   -7.5041   -6.2452 C   0  0  0  0  0  0  0  0  0  0  0  0
   10.4938   -8.5341   -5.9381 N   0  0  0  0  0  0  0  0  0  0  0  0
   12.1601   -7.6302   -7.3095 N   0  0  0  0  0  0  0  0  0  0  0  0
   13.2674   -6.7024   -7.4286 C   0  0  0  0  0  0  0  0  0  0  0  0
   14.0077   -6.8879   -8.7339 C   0  0  0  0  0  0  0  0  0  0  0  0
   14.3784   -8.3434   -8.9080 C   0  0  0  0  0  0  0  0  0  0  0  0
   15.0125   -8.6007  -10.2574 C   0  0  2  0  0  0  0  0  0  0  0  0
   15.2673   -9.9817  -10.4981 N   0  0  0  0  0  0  0  0  0  0  0  0
   16.2833   -7.7873  -10.2786 C   0  0  0  0  0  0  0  0  0  0  0  0
   17.1929   -8.0032   -9.4393 O   0  0  0  0  0  0  0  0  0  0  0  0
   10.6249   -9.4003   -6.4939 N   0  0  0  0  0  0  0  0  0  0  0  0
   16.4951   -6.7646  -11.2319 C   0  0  1  0  0  0  0  0  0  0  0  0
   17.7936   -6.0692  -11.2943 C   0  0  0  0  0  0  0  0  0  0  0  0
   18.6056   -6.5802  -12.4450 C   0  0  0  0  0  0  0  0  0  0  0  0
   19.9262   -5.9076  -12.5377 C   0  0  0  0  0  0  0  0  0  0  0  0
   20.7450   -6.5007  -13.6723 C   0  0  0  0  0  0  0  0  0  0  0  0
   22.0900   -5.7592  -13.6319 N   0  0  0  0  0  0  0  0  0  0  0  0
   22.9018   -6.3091  -14.6924 C   0  0  0  0  0  0  0  0  0  0  0  0
   17.5115   -4.6279  -11.3204 O   0  0  0  0  0  0  0  0  0  0  0  0
   16.2113   -4.1717  -11.4050 O   0  0  0  0  0  0  0  0  0  0  0  0
  2  1  1  0
  3  2  2  0
  4  5  1  0
  4  2  1  0
  5  6  1  6
  7  5  1  0
  7  8  2  0
 10  9  1  0
 11 10  2  0
 12 10  1  0
 13 12  1  0
 14 13  1  0
 15 14  1  0
 16 15  1  1
 16 17  1  0
 17  7  1  0
 18 16  1  0
 19 18  2  0
 20 18  1  0
 21 20  1  0
 21 27  1  0
 21 22  1  1
 23 24  1  0
 23 22  1  0
 24 25  1  0
 25 26  1  0
 27 28  1  0
 29 27  2  0
M  END
$$$$
