NRK.pdb
     RDKit          3D

 29 28  0  0  1  0  0  0  0  0999 V2000
   17.1282  -17.0989  -15.5615 N   0  0  0  0  0  0  0  0  0  0  0  0
   16.7672  -18.2782  -16.3285 C   0  0  0  0  0  0  0  0  0  0  0  0
   16.1893  -18.0430  -17.4096 O   0  0  0  0  0  0  0  0  0  0  0  0
   17.1003  -19.6067  -15.7876 C   0  0  0  0  0  0  0  0  0  0  0  0
   17.7483  -19.5668  -14.4291 C   0  0  2  0  0  0  0  0  0  0  0  0
   19.1033  -19.0043  -14.5979 N   0  0  0  0  0  0  0  0  0  0  0  0
   17.9366  -20.9769  -13.9604 C   0  0  0  0  0  0  0  0  0  0  0  0
   16.9194  -21.6723  -13.7538 O   0  0  0  0  0  0  0  0  0  0  0  0
   24.8388  -25.8884  -15.4360 N   0  0  0  0  0  0  0  0  0  0  0  0
   23.8774  -25.0278  -16.0234 C   0  0  0  0  0  0  0  0  0  0  0  0
   24.0449  -24.5563  -17.2132 N   0  0  0  0  0  0  0  0  0  0  0  0
   22.6916  -24.6595  -15.3074 N   0  0  0  0  0  0  0  0  0  0  0  0
   22.3344  -25.3258  -14.0706 C   0  0  0  0  0  0  0  0  0  0  0  0
   20.9998  -24.8446  -13.5474 C   0  0  0  0  0  0  0  0  0  0  0  0
   20.8181  -23.3814  -13.8819 C   0  0  0  0  0  0  0  0  0  0  0  0
   19.4779  -22.8626  -13.4085 C   0  0  2  0  0  0  0  0  0  0  0  0
   19.2537  -21.4998  -13.7589 N   0  0  0  0  0  0  0  0  0  0  0  0
   19.4617  -23.0638  -11.9131 C   0  0  0  0  0  0  0  0  0  0  0  0
   20.3152  -22.4993  -11.1843 O   0  0  0  0  0  0  0  0  0  0  0  0
   23.2948  -23.9595  -17.6100 N   0  0  0  0  0  0  0  0  0  0  0  0
   18.4975  -23.8850  -11.2843 C   0  0  2  0  0  0  0  0  0  0  0  0
   18.3728  -23.8871   -9.8152 C   0  0  0  0  0  0  0  0  0  0  0  0
   16.9748  -24.2416   -9.4097 C   0  0  0  0  0  0  0  0  0  0  0  0
   16.8046  -24.2392   -7.9346 C   0  0  0  0  0  0  0  0  0  0  0  0
   15.4339  -24.7765   -7.5579 C   0  0  0  0  0  0  0  0  0  0  0  0
   15.4006  -24.7607   -6.0220 N   0  0  0  0  0  0  0  0  0  0  0  0
   14.0934  -25.2322   -5.6280 C   0  0  0  0  0  0  0  0  0  0  0  0
   19.4189  -24.7765   -9.2936 O   0  0  0  0  0  0  0  0  0  0  0  0
   19.9595  -24.5605   -8.0419 O   0  0  0  0  0  0  0  0  0  0  0  0
  2  1  1  0
  3  2  2  0
  4  5  1  0
  4  2  1  0
  5  6  1  6
  7  5  1  0
  7  8  2  0
 10  9  1  0
 11 10  2  0
 12 10  1  0
 13 12  1  0
 14 13  1  0
 15 14  1  0
 16 15  1  1
 16 17  1  0
 17  7  1  0
 18 16  1  0
 19 18  2  0
 20 18  1  0
 21 20  1  0
 21 27  1  0
 21 22  1  6
 23 24  1  0
 23 22  1  0
 24 25  1  0
 25 26  1  0
 27 28  1  0
 29 27  2  0
M  END
$$$$
