NRK.pdb
     RDKit          3D

 29 28  0  0  1  0  0  0  0  0999 V2000
   16.9078  -25.2416   -9.8268 N   0  0  0  0  0  0  0  0  0  0  0  0
   16.3174  -24.6436  -11.0114 C   0  0  0  0  0  0  0  0  0  0  0  0
   15.2733  -25.1977  -11.4126 O   0  0  0  0  0  0  0  0  0  0  0  0
   16.9750  -23.4752  -11.6202 C   0  0  0  0  0  0  0  0  0  0  0  0
   18.2619  -23.0799  -10.9459 C   0  0  2  0  0  0  0  0  0  0  0  0
   17.9489  -22.7660   -9.5372 N   0  0  0  0  0  0  0  0  0  0  0  0
   18.7384  -21.8011  -11.5632 C   0  0  0  0  0  0  0  0  0  0  0  0
   19.0910  -20.8735  -10.8041 O   0  0  0  0  0  0  0  0  0  0  0  0
   24.3633  -24.4788  -15.5445 N   0  0  0  0  0  0  0  0  0  0  0  0
   25.2089  -23.4376  -15.0852 C   0  0  0  0  0  0  0  0  0  0  0  0
   26.3582  -23.2234  -15.6323 N   0  0  0  0  0  0  0  0  0  0  0  0
   24.8061  -22.5945  -13.9983 N   0  0  0  0  0  0  0  0  0  0  0  0
   23.5549  -22.8258  -13.3040 C   0  0  0  0  0  0  0  0  0  0  0  0
   22.4175  -22.0604  -13.9419 C   0  0  0  0  0  0  0  0  0  0  0  0
   21.1487  -22.2766  -13.1486 C   0  0  0  0  0  0  0  0  0  0  0  0
   20.0059  -21.4424  -13.6846 C   0  0  2  0  0  0  0  0  0  0  0  0
   18.7829  -21.6604  -12.9869 N   0  0  0  0  0  0  0  0  0  0  0  0
   19.8850  -21.7977  -15.1461 C   0  0  0  0  0  0  0  0  0  0  0  0
   20.2695  -22.9183  -15.5641 O   0  0  0  0  0  0  0  0  0  0  0  0
   26.9554  -22.4752  -15.2324 N   0  0  0  0  0  0  0  0  0  0  0  0
   19.3413  -20.8939  -16.0881 C   0  0  2  0  0  0  0  0  0  0  0  0
   19.7557  -20.9605  -17.5014 C   0  0  0  0  0  0  0  0  0  0  0  0
   21.1030  -20.3304  -17.6815 C   0  0  0  0  0  0  0  0  0  0  0  0
   21.5452  -20.3553  -19.0988 C   0  0  0  0  0  0  0  0  0  0  0  0
   22.9042  -19.6904  -19.2421 C   0  0  0  0  0  0  0  0  0  0  0  0
   23.2513  -19.7959  -20.7350 N   0  0  0  0  0  0  0  0  0  0  0  0
   24.4415  -19.0047  -20.9437 C   0  0  0  0  0  0  0  0  0  0  0  0
   19.6644  -22.3675  -17.9131 O   0  0  0  0  0  0  0  0  0  0  0  0
   18.9796  -22.7170  -19.0596 O   0  0  0  0  0  0  0  0  0  0  0  0
  2  1  1  0
  3  2  2  0
  4  5  1  0
  4  2  1  0
  5  6  1  1
  7  5  1  0
  7  8  2  0
 10  9  1  0
 11 10  2  0
 12 10  1  0
 13 12  1  0
 14 13  1  0
 15 14  1  0
 16 15  1  1
 16 17  1  0
 17  7  1  0
 18 16  1  0
 19 18  2  0
 20 18  1  0
 21 20  1  0
 21 27  1  0
 21 22  1  1
 23 24  1  0
 23 22  1  0
 24 25  1  0
 25 26  1  0
 27 28  1  0
 29 27  2  0
M  END
$$$$
