PSD.pdb
     RDKit          3D

 22 22  0  0  1  0  0  0  0  0999 V2000
    7.5564  -15.0394   18.9321 N   0  0  0  0  0  0  0  0  0  0  0  0
    6.9603  -14.5123   17.7315 C   0  0  0  0  0  0  0  0  0  0  0  0
    7.4707  -13.1245   17.5265 C   0  0  0  0  0  0  0  0  0  0  0  0
    8.1371  -12.8199   18.8704 C   0  0  0  0  0  0  0  0  0  0  0  0
    8.6936  -14.2127   19.1958 C   0  0  1  0  0  0  0  0  0  0  0  0
    9.1849  -14.2985   20.5783 C   0  0  0  0  0  0  0  0  0  0  0  0
   10.2680  -13.7207   20.8525 O   0  0  0  0  0  0  0  0  0  0  0  0
    7.0967  -16.2289   23.6089 O   0  0  0  0  0  0  0  0  0  0  0  0
    7.7396  -15.0317   23.8695 C   0  0  0  0  0  0  0  0  0  0  0  0
    8.9786  -14.9586   23.0021 C   0  0  2  0  0  0  0  0  0  0  0  0
    8.5263  -14.9861   21.6279 N   0  0  0  0  0  0  0  0  0  0  0  0
    9.8747  -16.1148   23.2176 C   0  0  0  0  0  0  0  0  0  0  0  0
    9.6636  -17.1740   22.5839 O   0  0  0  0  0  0  0  0  0  0  0  0
   10.9615  -16.0226   24.1332 N   0  0  0  0  0  0  0  0  0  0  0  0
   11.8447  -17.1506   24.3972 C   0  0  1  0  0  0  0  0  0  0  0  0
   13.2459  -16.6834   24.7216 C   0  0  0  0  0  0  0  0  0  0  0  0
   13.9990  -16.2989   23.5231 C   0  0  0  0  0  0  0  0  0  0  0  0
   13.5191  -16.6420   22.4043 O   0  0  0  0  0  0  0  0  0  0  0  0
   11.3768  -17.9936   25.4885 C   0  0  0  0  0  0  0  0  0  0  0  0
   11.9364  -19.0828   25.7351 O   0  0  0  0  0  0  0  0  0  0  0  0
   15.1824  -15.5978   23.5020 O   0  0  0  0  0  0  0  0  0  0  0  0
   10.3083  -17.6035   26.2678 O   0  0  0  0  0  0  0  0  0  0  0  0
  1  2  1  0
  3  2  1  0
  4  5  1  0
  4  3  1  0
  5  1  1  0
  5  6  1  1
  7  6  2  0
 10  9  1  1
  9  8  1  0
 10 12  1  0
 10 11  1  0
 11  6  1  0
 12 14  1  0
 13 12  2  0
 14 15  1  0
 15 19  1  0
 15 16  1  1
 17 21  1  0
 17 16  1  0
 18 17  2  0
 19 20  2  0
 19 22  1  0
M  END
$$$$
