PSD.pdb
     RDKit          3D

 22 22  0  0  1  0  0  0  0  0999 V2000
    7.5859  -15.3267   19.2030 N   0  0  0  0  0  0  0  0  0  0  0  0
    6.9243  -14.8917   17.9998 C   0  0  0  0  0  0  0  0  0  0  0  0
    7.3542  -13.4918   17.7099 C   0  0  0  0  0  0  0  0  0  0  0  0
    8.0470  -13.0866   19.0132 C   0  0  0  0  0  0  0  0  0  0  0  0
    8.6861  -14.4311   19.3862 C   0  0  1  0  0  0  0  0  0  0  0  0
    9.2257  -14.4220   20.7533 C   0  0  0  0  0  0  0  0  0  0  0  0
   10.3848  -13.9638   20.9230 O   0  0  0  0  0  0  0  0  0  0  0  0
    7.1584  -15.9432   24.0071 O   0  0  0  0  0  0  0  0  0  0  0  0
    7.8978  -14.7871   24.1839 C   0  0  0  0  0  0  0  0  0  0  0  0
    9.0783  -14.8280   23.2366 C   0  0  2  0  0  0  0  0  0  0  0  0
    8.5344  -14.8930   21.8972 N   0  0  0  0  0  0  0  0  0  0  0  0
    9.9208  -16.0238   23.4525 C   0  0  0  0  0  0  0  0  0  0  0  0
    9.6501  -17.0780   22.8333 O   0  0  0  0  0  0  0  0  0  0  0  0
   11.0235  -15.9746   24.3521 N   0  0  0  0  0  0  0  0  0  0  0  0
   11.8172  -17.1558   24.6637 C   0  0  1  0  0  0  0  0  0  0  0  0
   13.2472  -16.7839   24.9858 C   0  0  0  0  0  0  0  0  0  0  0  0
   14.0156  -16.4263   23.7888 C   0  0  0  0  0  0  0  0  0  0  0  0
   15.2217  -16.0846   23.9571 O   0  0  0  0  0  0  0  0  0  0  0  0
   11.2791  -17.9224   25.7786 C   0  0  0  0  0  0  0  0  0  0  0  0
   11.7558  -19.0395   26.0706 O   0  0  0  0  0  0  0  0  0  0  0  0
   13.5457  -16.4277   22.4958 O   0  0  0  0  0  0  0  0  0  0  0  0
   10.2344  -17.4281   26.5306 O   0  0  0  0  0  0  0  0  0  0  0  0
  1  2  1  0
  3  2  1  0
  4  5  1  0
  4  3  1  0
  5  1  1  0
  5  6  1  1
  7  6  2  0
 10  9  1  1
  9  8  1  0
 10 12  1  0
 10 11  1  0
 11  6  1  0
 12 14  1  0
 13 12  2  0
 14 15  1  0
 15 19  1  0
 15 16  1  1
 17 21  1  0
 17 16  1  0
 18 17  2  0
 19 20  2  0
 19 22  1  0
M  END
$$$$
