PSD.pdb
     RDKit          3D

 22 22  0  0  1  0  0  0  0  0999 V2000
    7.6443  -18.4195   18.1703 N   0  0  0  0  0  0  0  0  0  0  0  0
    7.0245  -18.7357   16.9091 C   0  0  0  0  0  0  0  0  0  0  0  0
    7.2205  -17.5771   15.9884 C   0  0  0  0  0  0  0  0  0  0  0  0
    7.7113  -16.4833   16.9399 C   0  0  0  0  0  0  0  0  0  0  0  0
    8.5455  -17.3420   17.9002 C   0  0  1  0  0  0  0  0  0  0  0  0
    8.9518  -16.5909   19.0964 C   0  0  0  0  0  0  0  0  0  0  0  0
   10.1755  -16.3399   19.2436 O   0  0  0  0  0  0  0  0  0  0  0  0
    7.6143  -14.1518   23.0589 O   0  0  0  0  0  0  0  0  0  0  0  0
    7.2507  -14.7889   21.8857 C   0  0  0  0  0  0  0  0  0  0  0  0
    8.4966  -15.3785   21.2589 C   0  0  2  0  0  0  0  0  0  0  0  0
    8.0637  -16.1276   20.0989 N   0  0  0  0  0  0  0  0  0  0  0  0
    9.1920  -16.3067   22.1761 C   0  0  0  0  0  0  0  0  0  0  0  0
    8.7551  -17.4729   22.3072 O   0  0  0  0  0  0  0  0  0  0  0  0
   10.3417  -15.8781   22.8986 N   0  0  0  0  0  0  0  0  0  0  0  0
   10.9531  -16.7015   23.9332 C   0  0  1  0  0  0  0  0  0  0  0  0
   12.4356  -16.4254   24.0466 C   0  0  0  0  0  0  0  0  0  0  0  0
   13.1589  -16.7357   22.8089 C   0  0  0  0  0  0  0  0  0  0  0  0
   13.0162  -17.8985   22.3323 O   0  0  0  0  0  0  0  0  0  0  0  0
   10.3477  -16.5079   25.2433 C   0  0  0  0  0  0  0  0  0  0  0  0
    9.4875  -15.6197   25.4210 O   0  0  0  0  0  0  0  0  0  0  0  0
   13.9807  -15.8775   22.1156 O   0  0  0  0  0  0  0  0  0  0  0  0
   10.7139  -17.3017   26.3095 O   0  0  0  0  0  0  0  0  0  0  0  0
  1  2  1  0
  3  2  1  0
  4  5  1  0
  4  3  1  0
  5  1  1  0
  5  6  1  1
  7  6  2  0
 10  9  1  1
  9  8  1  0
 10 12  1  0
 10 11  1  0
 11  6  1  0
 12 14  1  0
 13 12  2  0
 14 15  1  0
 15 19  1  0
 15 16  1  1
 17 21  1  0
 17 16  1  0
 18 17  2  0
 19 20  2  0
 19 22  1  0
M  END
$$$$
