PSD.pdb
     RDKit          3D

 22 22  0  0  1  0  0  0  0  0999 V2000
    7.4463  -15.1413   19.2251 N   0  0  0  0  0  0  0  0  0  0  0  0
    6.8151  -14.6949   18.0098 C   0  0  0  0  0  0  0  0  0  0  0  0
    7.2577  -13.2949   17.7401 C   0  0  0  0  0  0  0  0  0  0  0  0
    7.9213  -12.9020   19.0622 C   0  0  0  0  0  0  0  0  0  0  0  0
    8.5457  -14.2519   19.4405 C   0  0  1  0  0  0  0  0  0  0  0  0
    9.0532  -14.2549   20.8198 C   0  0  0  0  0  0  0  0  0  0  0  0
   10.1093  -13.6143   21.0574 O   0  0  0  0  0  0  0  0  0  0  0  0
    7.0063  -15.9744   24.0190 O   0  0  0  0  0  0  0  0  0  0  0  0
    7.7248  -14.8013   24.1675 C   0  0  0  0  0  0  0  0  0  0  0  0
    8.9365  -14.8679   23.2620 C   0  0  2  0  0  0  0  0  0  0  0  0
    8.4384  -14.9282   21.9047 N   0  0  0  0  0  0  0  0  0  0  0  0
    9.7485  -16.0783   23.5111 C   0  0  0  0  0  0  0  0  0  0  0  0
    9.4367  -17.1478   22.9394 O   0  0  0  0  0  0  0  0  0  0  0  0
   10.8684  -16.0257   24.3891 N   0  0  0  0  0  0  0  0  0  0  0  0
   11.6181  -17.2202   24.7543 C   0  0  1  0  0  0  0  0  0  0  0  0
   13.0870  -16.9095   24.9349 C   0  0  0  0  0  0  0  0  0  0  0  0
   13.7243  -16.4736   23.6878 C   0  0  0  0  0  0  0  0  0  0  0  0
   13.2237  -16.8947   22.6053 O   0  0  0  0  0  0  0  0  0  0  0  0
   11.1273  -17.8469   25.9736 C   0  0  0  0  0  0  0  0  0  0  0  0
   10.2310  -17.3019   26.6520 O   0  0  0  0  0  0  0  0  0  0  0  0
   14.8191  -15.6470   23.5851 O   0  0  0  0  0  0  0  0  0  0  0  0
   11.6436  -19.0523   26.3997 O   0  0  0  0  0  0  0  0  0  0  0  0
  1  2  1  0
  3  2  1  0
  4  5  1  0
  4  3  1  0
  5  1  1  0
  5  6  1  1
  7  6  2  0
 10  9  1  1
  9  8  1  0
 10 12  1  0
 10 11  1  0
 11  6  1  0
 12 14  1  0
 13 12  2  0
 14 15  1  0
 15 19  1  0
 15 16  1  1
 17 21  1  0
 17 16  1  0
 18 17  2  0
 19 20  2  0
 19 22  1  0
M  END
$$$$
