PSD.pdb
     RDKit          3D

 22 22  0  0  1  0  0  0  0  0999 V2000
    8.0944  -15.3385   18.8185 N   0  0  0  0  0  0  0  0  0  0  0  0
    7.5529  -14.7832   17.6048 C   0  0  0  0  0  0  0  0  0  0  0  0
    7.6776  -13.2972   17.6743 C   0  0  0  0  0  0  0  0  0  0  0  0
    8.0321  -13.0678   19.1455 C   0  0  0  0  0  0  0  0  0  0  0  0
    8.9042  -14.3069   19.3896 C   0  0  1  0  0  0  0  0  0  0  0  0
    9.1963  -14.5002   20.8169 C   0  0  0  0  0  0  0  0  0  0  0  0
   10.3988  -14.4451   21.1820 O   0  0  0  0  0  0  0  0  0  0  0  0
    7.4782  -15.0982   25.3079 O   0  0  0  0  0  0  0  0  0  0  0  0
    7.2148  -14.9390   23.9589 C   0  0  0  0  0  0  0  0  0  0  0  0
    8.5355  -14.8628   23.2222 C   0  0  2  0  0  0  0  0  0  0  0  0
    8.2202  -14.7446   21.8148 N   0  0  0  0  0  0  0  0  0  0  0  0
    9.3478  -16.0834   23.4136 C   0  0  0  0  0  0  0  0  0  0  0  0
    9.0047  -17.1391   22.8340 O   0  0  0  0  0  0  0  0  0  0  0  0
   10.5032  -16.0562   24.2455 N   0  0  0  0  0  0  0  0  0  0  0  0
   11.2113  -17.2726   24.6211 C   0  0  1  0  0  0  0  0  0  0  0  0
   12.7035  -17.0369   24.6908 C   0  0  0  0  0  0  0  0  0  0  0  0
   13.2775  -16.6941   23.3853 C   0  0  0  0  0  0  0  0  0  0  0  0
   12.8182  -17.3007   22.3749 O   0  0  0  0  0  0  0  0  0  0  0  0
   10.7709  -17.8132   25.8994 C   0  0  0  0  0  0  0  0  0  0  0  0
    9.9262  -17.2046   26.5897 O   0  0  0  0  0  0  0  0  0  0  0  0
   14.2720  -15.7717   23.1562 O   0  0  0  0  0  0  0  0  0  0  0  0
   11.2789  -19.0058   26.3692 O   0  0  0  0  0  0  0  0  0  0  0  0
  1  2  1  0
  3  2  1  0
  4  5  1  0
  4  3  1  0
  5  1  1  0
  5  6  1  1
  7  6  2  0
 10  9  1  1
  9  8  1  0
 10 12  1  0
 10 11  1  0
 11  6  1  0
 12 14  1  0
 13 12  2  0
 14 15  1  0
 15 19  1  0
 15 16  1  1
 17 21  1  0
 17 16  1  0
 18 17  2  0
 19 20  2  0
 19 22  1  0
M  END
$$$$
