PSD.pdb
     RDKit          3D

 22 22  0  0  1  0  0  0  0  0999 V2000
    7.3291  -15.1029   19.2609 N   0  0  0  0  0  0  0  0  0  0  0  0
    6.7607  -14.6528   18.0164 C   0  0  0  0  0  0  0  0  0  0  0  0
    7.4514  -13.3914   17.6161 C   0  0  0  0  0  0  0  0  0  0  0  0
    8.2124  -13.0174   18.8903 C   0  0  0  0  0  0  0  0  0  0  0  0
    8.5816  -14.4229   19.3837 C   0  0  1  0  0  0  0  0  0  0  0  0
    9.1163  -14.4015   20.7526 C   0  0  0  0  0  0  0  0  0  0  0  0
   10.3165  -14.0586   20.9079 O   0  0  0  0  0  0  0  0  0  0  0  0
    6.8488  -15.3584   24.1140 O   0  0  0  0  0  0  0  0  0  0  0  0
    7.7757  -14.3330   24.1759 C   0  0  0  0  0  0  0  0  0  0  0  0
    8.9251  -14.6744   23.2510 C   0  0  2  0  0  0  0  0  0  0  0  0
    8.3770  -14.7396   21.9134 N   0  0  0  0  0  0  0  0  0  0  0  0
    9.5221  -15.9887   23.5712 C   0  0  0  0  0  0  0  0  0  0  0  0
    9.0726  -17.0136   23.0094 O   0  0  0  0  0  0  0  0  0  0  0  0
   10.5926  -16.0848   24.5052 N   0  0  0  0  0  0  0  0  0  0  0  0
   11.1754  -17.3662   24.8805 C   0  0  1  0  0  0  0  0  0  0  0  0
   12.6860  -17.3135   24.8360 C   0  0  0  0  0  0  0  0  0  0  0  0
   13.1931  -16.8987   23.5237 C   0  0  0  0  0  0  0  0  0  0  0  0
   12.9079  -17.6343   22.5351 O   0  0  0  0  0  0  0  0  0  0  0  0
   10.7694  -17.8067   26.2077 C   0  0  0  0  0  0  0  0  0  0  0  0
   10.0917  -17.0604   26.9454 O   0  0  0  0  0  0  0  0  0  0  0  0
   13.9524  -15.7807   23.2666 O   0  0  0  0  0  0  0  0  0  0  0  0
   11.1264  -19.0548   26.6723 O   0  0  0  0  0  0  0  0  0  0  0  0
  1  2  1  0
  3  2  1  0
  4  5  1  0
  4  3  1  0
  5  1  1  0
  5  6  1  1
  7  6  2  0
 10  9  1  1
  9  8  1  0
 10 12  1  0
 10 11  1  0
 11  6  1  0
 12 14  1  0
 13 12  2  0
 14 15  1  0
 15 19  1  0
 15 16  1  1
 17 21  1  0
 17 16  1  0
 18 17  2  0
 19 20  2  0
 19 22  1  0
M  END
$$$$
