PSD.pdb
     RDKit          3D

 22 22  0  0  1  0  0  0  0  0999 V2000
    8.3013  -14.3230   20.2003 N   0  0  0  0  0  0  0  0  0  0  0  0
    7.2632  -13.3268   20.2684 C   0  0  0  0  0  0  0  0  0  0  0  0
    7.4235  -12.4043   19.1058 C   0  0  0  0  0  0  0  0  0  0  0  0
    8.8113  -12.7794   18.5804 C   0  0  0  0  0  0  0  0  0  0  0  0
    8.7835  -14.2892   18.8540 C   0  0  1  0  0  0  0  0  0  0  0  0
   10.1074  -14.9033   18.6796 C   0  0  0  0  0  0  0  0  0  0  0  0
   10.2877  -15.6312   17.6697 O   0  0  0  0  0  0  0  0  0  0  0  0
   14.6113  -14.7400   18.4579 O   0  0  0  0  0  0  0  0  0  0  0  0
   13.3444  -14.2305   18.6811 C   0  0  0  0  0  0  0  0  0  0  0  0
   12.5069  -15.3084   19.3365 C   0  0  2  0  0  0  0  0  0  0  0  0
   11.1986  -14.7352   19.5680 N   0  0  0  0  0  0  0  0  0  0  0  0
   13.0654  -15.7282   20.6397 C   0  0  0  0  0  0  0  0  0  0  0  0
   12.8839  -14.9998   21.6419 O   0  0  0  0  0  0  0  0  0  0  0  0
   13.7987  -16.9438   20.7506 N   0  0  0  0  0  0  0  0  0  0  0  0
   14.3559  -17.3949   22.0188 C   0  0  1  0  0  0  0  0  0  0  0  0
   14.4823  -18.9014   22.0553 C   0  0  0  0  0  0  0  0  0  0  0  0
   13.2265  -19.5594   22.4313 C   0  0  0  0  0  0  0  0  0  0  0  0
   12.6346  -19.1284   23.4626 O   0  0  0  0  0  0  0  0  0  0  0  0
   15.6620  -16.8167   22.3018 C   0  0  0  0  0  0  0  0  0  0  0  0
   16.3095  -16.2390   21.4033 O   0  0  0  0  0  0  0  0  0  0  0  0
   12.6304  -20.6050   21.7650 O   0  0  0  0  0  0  0  0  0  0  0  0
   16.2058  -16.8974   23.5663 O   0  0  0  0  0  0  0  0  0  0  0  0
  1  2  1  0
  3  2  1  0
  4  5  1  0
  4  3  1  0
  5  1  1  0
  5  6  1  1
  7  6  2  0
 10  9  1  1
  9  8  1  0
 10 12  1  0
 10 11  1  0
 11  6  1  0
 12 14  1  0
 13 12  2  0
 14 15  1  0
 15 19  1  0
 15 16  1  6
 17 21  1  0
 17 16  1  0
 18 17  2  0
 19 20  2  0
 19 22  1  0
M  END
$$$$
