PSD.pdb
     RDKit          3D

 22 22  0  0  1  0  0  0  0  0999 V2000
    7.6216  -15.0199   19.1295 N   0  0  0  0  0  0  0  0  0  0  0  0
    6.9944  -14.4987   17.9423 C   0  0  0  0  0  0  0  0  0  0  0  0
    7.3810  -13.0638   17.8008 C   0  0  0  0  0  0  0  0  0  0  0  0
    8.0023  -12.7570   19.1656 C   0  0  0  0  0  0  0  0  0  0  0  0
    8.6773  -14.1071   19.4431 C   0  0  1  0  0  0  0  0  0  0  0  0
    9.1587  -14.2059   20.8282 C   0  0  0  0  0  0  0  0  0  0  0  0
   10.2336  -13.6207   21.1186 O   0  0  0  0  0  0  0  0  0  0  0  0
    7.4494  -16.6706   23.7700 O   0  0  0  0  0  0  0  0  0  0  0  0
    7.8378  -15.3835   24.0969 C   0  0  0  0  0  0  0  0  0  0  0  0
    9.0080  -15.0015   23.2153 C   0  0  2  0  0  0  0  0  0  0  0  0
    8.4990  -14.9140   21.8635 N   0  0  0  0  0  0  0  0  0  0  0  0
   10.0779  -16.0218   23.2418 C   0  0  0  0  0  0  0  0  0  0  0  0
   10.0625  -16.9410   22.3916 O   0  0  0  0  0  0  0  0  0  0  0  0
   11.1097  -15.9577   24.2210 N   0  0  0  0  0  0  0  0  0  0  0  0
   12.2155  -16.9059   24.2387 C   0  0  1  0  0  0  0  0  0  0  0  0
   13.5391  -16.2061   24.0258 C   0  0  0  0  0  0  0  0  0  0  0  0
   14.6642  -17.1447   23.9600 C   0  0  0  0  0  0  0  0  0  0  0  0
   14.5678  -18.1058   23.1434 O   0  0  0  0  0  0  0  0  0  0  0  0
   12.2912  -17.6655   25.4787 C   0  0  0  0  0  0  0  0  0  0  0  0
   11.6574  -17.2964   26.4899 O   0  0  0  0  0  0  0  0  0  0  0  0
   15.8183  -17.0774   24.7057 O   0  0  0  0  0  0  0  0  0  0  0  0
   13.0636  -18.8050   25.5574 O   0  0  0  0  0  0  0  0  0  0  0  0
  1  2  1  0
  3  2  1  0
  4  5  1  0
  4  3  1  0
  5  1  1  0
  5  6  1  1
  7  6  2  0
 10  9  1  1
  9  8  1  0
 10 12  1  0
 10 11  1  0
 11  6  1  0
 12 14  1  0
 13 12  2  0
 14 15  1  0
 15 19  1  0
 15 16  1  1
 17 21  1  0
 17 16  1  0
 18 17  2  0
 19 20  2  0
 19 22  1  0
M  END
$$$$
