PSD.pdb
     RDKit          3D

 22 22  0  0  1  0  0  0  0  0999 V2000
    7.3351  -15.0714   19.7391 N   0  0  0  0  0  0  0  0  0  0  0  0
    6.7618  -14.5048   18.5454 C   0  0  0  0  0  0  0  0  0  0  0  0
    7.4825  -13.2340   18.2384 C   0  0  0  0  0  0  0  0  0  0  0  0
    8.2722  -12.9873   19.5262 C   0  0  0  0  0  0  0  0  0  0  0  0
    8.6082  -14.4384   19.8963 C   0  0  1  0  0  0  0  0  0  0  0  0
    9.1630  -14.5446   21.2531 C   0  0  0  0  0  0  0  0  0  0  0  0
   10.3538  -14.1799   21.4298 O   0  0  0  0  0  0  0  0  0  0  0  0
    6.9263  -15.8619   24.4664 O   0  0  0  0  0  0  0  0  0  0  0  0
    7.7977  -14.8033   24.6526 C   0  0  0  0  0  0  0  0  0  0  0  0
    8.9808  -14.9927   23.7268 C   0  0  2  0  0  0  0  0  0  0  0  0
    8.4531  -15.0289   22.3799 N   0  0  0  0  0  0  0  0  0  0  0  0
    9.6856  -16.2672   23.9822 C   0  0  0  0  0  0  0  0  0  0  0  0
    9.2852  -17.3080   23.4126 O   0  0  0  0  0  0  0  0  0  0  0  0
   10.8033  -16.3077   24.8635 N   0  0  0  0  0  0  0  0  0  0  0  0
   11.4700  -17.5569   25.2059 C   0  0  1  0  0  0  0  0  0  0  0  0
   12.9720  -17.4245   25.0899 C   0  0  0  0  0  0  0  0  0  0  0  0
   13.3885  -16.9021   23.7842 C   0  0  0  0  0  0  0  0  0  0  0  0
   12.9965  -17.5302   22.7588 O   0  0  0  0  0  0  0  0  0  0  0  0
   11.1515  -18.0198   26.5493 C   0  0  0  0  0  0  0  0  0  0  0  0
   11.5557  -19.1314   26.9510 O   0  0  0  0  0  0  0  0  0  0  0  0
   14.1683  -15.7892   23.5699 O   0  0  0  0  0  0  0  0  0  0  0  0
   10.3985  -17.2389   27.4003 O   0  0  0  0  0  0  0  0  0  0  0  0
  1  2  1  0
  3  2  1  0
  4  5  1  0
  4  3  1  0
  5  1  1  0
  5  6  1  1
  7  6  2  0
 10  9  1  1
  9  8  1  0
 10 12  1  0
 10 11  1  0
 11  6  1  0
 12 14  1  0
 13 12  2  0
 14 15  1  0
 15 19  1  0
 15 16  1  1
 17 21  1  0
 17 16  1  0
 18 17  2  0
 19 20  2  0
 19 22  1  0
M  END
$$$$
