PSD.pdb
     RDKit          3D

 22 22  0  0  1  0  0  0  0  0999 V2000
    7.3655  -15.1121   19.4117 N   0  0  0  0  0  0  0  0  0  0  0  0
    6.8188  -14.6297   18.1695 C   0  0  0  0  0  0  0  0  0  0  0  0
    7.4184  -13.2931   17.8825 C   0  0  0  0  0  0  0  0  0  0  0  0
    8.0862  -12.9422   19.2143 C   0  0  0  0  0  0  0  0  0  0  0  0
    8.5494  -14.3422   19.6393 C   0  0  1  0  0  0  0  0  0  0  0  0
    9.0173  -14.3665   21.0324 C   0  0  0  0  0  0  0  0  0  0  0  0
   10.1660  -13.9141   21.2731 O   0  0  0  0  0  0  0  0  0  0  0  0
    7.0002  -16.1827   24.3145 O   0  0  0  0  0  0  0  0  0  0  0  0
    7.5195  -14.9019   24.3823 C   0  0  0  0  0  0  0  0  0  0  0  0
    8.7436  -14.8374   23.4934 C   0  0  2  0  0  0  0  0  0  0  0  0
    8.2673  -14.8635   22.1273 N   0  0  0  0  0  0  0  0  0  0  0  0
    9.6361  -15.9990   23.6946 C   0  0  0  0  0  0  0  0  0  0  0  0
    9.3650  -17.0801   23.1237 O   0  0  0  0  0  0  0  0  0  0  0  0
   10.7868  -15.8873   24.5260 N   0  0  0  0  0  0  0  0  0  0  0  0
   11.7366  -16.9813   24.6786 C   0  0  1  0  0  0  0  0  0  0  0  0
   13.1608  -16.4917   24.5420 C   0  0  0  0  0  0  0  0  0  0  0  0
   14.1339  -17.5890   24.5599 C   0  0  0  0  0  0  0  0  0  0  0  0
   13.8282  -18.6428   23.9307 O   0  0  0  0  0  0  0  0  0  0  0  0
   11.6075  -17.6702   25.9549 C   0  0  0  0  0  0  0  0  0  0  0  0
   10.9371  -17.1695   26.8825 O   0  0  0  0  0  0  0  0  0  0  0  0
   15.3520  -17.5793   25.1993 O   0  0  0  0  0  0  0  0  0  0  0  0
   12.2231  -18.8866   26.1610 O   0  0  0  0  0  0  0  0  0  0  0  0
  1  2  1  0
  3  2  1  0
  4  5  1  0
  4  3  1  0
  5  1  1  0
  5  6  1  1
  7  6  2  0
 10  9  1  1
  9  8  1  0
 10 12  1  0
 10 11  1  0
 11  6  1  0
 12 14  1  0
 13 12  2  0
 14 15  1  0
 15 19  1  0
 15 16  1  1
 17 21  1  0
 17 16  1  0
 18 17  2  0
 19 20  2  0
 19 22  1  0
M  END
$$$$
