AIE.pdb
     RDKit          3D

 23 22  0  0  1  0  0  0  0  0999 V2000
   26.6233  -10.6530  -15.0939 C   0  0  0  0  0  0  0  0  0  0  0  0
   25.5593  -11.5286  -15.6958 C   0  0  2  0  0  0  0  0  0  0  0  0
   26.1074  -12.3684  -16.7420 N   0  0  0  0  0  0  0  0  0  0  0  0
   24.3889  -10.7728  -16.1768 C   0  0  0  0  0  0  0  0  0  0  0  0
   24.4397  -10.2568  -17.3137 O   0  0  0  0  0  0  0  0  0  0  0  0
   20.4585  -13.0834  -16.1757 C   0  0  0  0  0  0  0  0  0  0  0  0
   20.6865  -11.7442  -16.8553 C   0  0  0  0  0  0  0  0  0  0  0  0
   20.7785  -10.7024  -15.7704 C   0  0  2  0  0  0  0  0  0  0  0  0
   19.5518   -9.8203  -15.8613 C   0  0  0  0  0  0  0  0  0  0  0  0
   22.0512   -9.8839  -15.8756 C   0  0  2  0  0  0  0  0  0  0  0  0
   23.2016  -10.5994  -15.4131 N   0  0  0  0  0  0  0  0  0  0  0  0
   21.8188   -8.6260  -15.1007 C   0  0  0  0  0  0  0  0  0  0  0  0
   21.8055   -8.6783  -13.8440 O   0  0  0  0  0  0  0  0  0  0  0  0
   21.6128   -7.3762  -15.7201 N   0  0  0  0  0  0  0  0  0  0  0  0
   21.3037   -6.1510  -14.9622 C   0  0  1  0  0  0  0  0  0  0  0  0
   21.6117   -4.9351  -15.7648 C   0  0  0  0  0  0  0  0  0  0  0  0
   21.1978   -3.6974  -15.0401 C   0  0  0  0  0  0  0  0  0  0  0  0
   21.3789   -2.4918  -15.9289 C   0  0  0  0  0  0  0  0  0  0  0  0
   21.8363   -2.6521  -17.0715 O   0  0  0  0  0  0  0  0  0  0  0  0
   19.8902   -6.2775  -14.5333 C   0  0  0  0  0  0  0  0  0  0  0  0
   19.4301   -5.9902  -13.2506 O   0  0  0  0  0  0  0  0  0  0  0  0
   21.0362   -1.2535  -15.4568 O   0  0  0  0  0  0  0  0  0  0  0  0
   18.9803   -6.6715  -15.3401 O   0  0  0  0  0  0  0  0  0  0  0  0
  2  1  1  6
  2  3  1  0
  4  5  2  0
  4  2  1  0
  6  7  1  0
  7  8  1  0
  8  9  1  6
  8 10  1  0
 10 11  1  1
 11  4  1  0
 12 14  1  0
 12 10  1  0
 13 12  2  0
 15 14  1  0
 15 20  1  0
 15 16  1  6
 16 17  1  0
 18 17  1  0
 18 22  1  0
 19 18  2  0
 20 21  1  0
 23 20  2  0
M  END
$$$$
