AIE.pdb
     RDKit          3D

 23 22  0  0  1  0  0  0  0  0999 V2000
   16.6514  -14.0359  -15.1154 C   0  0  0  0  0  0  0  0  0  0  0  0
   15.3188  -13.9781  -14.4214 C   0  0  2  0  0  0  0  0  0  0  0  0
   14.3630  -14.8633  -15.0562 N   0  0  0  0  0  0  0  0  0  0  0  0
   14.7833  -12.6097  -14.3056 C   0  0  0  0  0  0  0  0  0  0  0  0
   14.3135  -12.0659  -15.3277 O   0  0  0  0  0  0  0  0  0  0  0  0
   11.3599  -11.0222  -10.5397 C   0  0  0  0  0  0  0  0  0  0  0  0
   12.1146  -11.1923  -11.8469 C   0  0  0  0  0  0  0  0  0  0  0  0
   13.3755  -10.3735  -11.7449 C   0  0  2  0  0  0  0  0  0  0  0  0
   12.9806   -8.9251  -11.5523 C   0  0  0  0  0  0  0  0  0  0  0  0
   14.2623  -10.5423  -12.9639 C   0  0  2  0  0  0  0  0  0  0  0  0
   14.7733  -11.8737  -13.0885 N   0  0  0  0  0  0  0  0  0  0  0  0
   15.3540   -9.5269  -12.8455 C   0  0  0  0  0  0  0  0  0  0  0  0
   16.3946   -9.8231  -12.2040 O   0  0  0  0  0  0  0  0  0  0  0  0
   15.2679   -8.2442  -13.4248 N   0  0  0  0  0  0  0  0  0  0  0  0
   16.4291   -7.3460  -13.5513 C   0  0  1  0  0  0  0  0  0  0  0  0
   17.5758   -8.0439  -14.1960 C   0  0  0  0  0  0  0  0  0  0  0  0
   18.7488   -7.1307  -14.3325 C   0  0  0  0  0  0  0  0  0  0  0  0
   19.9062   -7.8652  -14.9627 C   0  0  0  0  0  0  0  0  0  0  0  0
   20.6945   -8.4836  -14.2302 O   0  0  0  0  0  0  0  0  0  0  0  0
   15.9434   -6.1433  -14.2693 C   0  0  0  0  0  0  0  0  0  0  0  0
   16.4437   -4.8580  -14.0761 O   0  0  0  0  0  0  0  0  0  0  0  0
   20.0600   -7.8329  -16.3225 O   0  0  0  0  0  0  0  0  0  0  0  0
   15.0058   -6.2157  -15.1351 O   0  0  0  0  0  0  0  0  0  0  0  0
  2  1  1  6
  2  3  1  0
  4  5  2  0
  4  2  1  0
  6  7  1  0
  7  8  1  0
  8  9  1  6
  8 10  1  0
 10 11  1  1
 11  4  1  0
 12 14  1  0
 12 10  1  0
 13 12  2  0
 15 14  1  0
 15 20  1  0
 15 16  1  6
 16 17  1  0
 18 17  1  0
 18 22  1  0
 19 18  2  0
 20 21  1  0
 23 20  2  0
M  END
$$$$
