AIE.pdb
     RDKit          3D

 23 22  0  0  1  0  0  0  0  0999 V2000
   22.1001  -14.0709  -19.4839 C   0  0  0  0  0  0  0  0  0  0  0  0
   23.1761  -14.5553  -18.5519 C   0  0  2  0  0  0  0  0  0  0  0  0
   22.8871  -15.8926  -18.0743 N   0  0  0  0  0  0  0  0  0  0  0  0
   23.4323  -13.6325  -17.4315 C   0  0  0  0  0  0  0  0  0  0  0  0
   22.6840  -13.6871  -16.4323 O   0  0  0  0  0  0  0  0  0  0  0  0
   28.4502  -12.5976  -15.8698 C   0  0  0  0  0  0  0  0  0  0  0  0
   26.9605  -12.8940  -15.8698 C   0  0  0  0  0  0  0  0  0  0  0  0
   26.2452  -11.5896  -16.1101 C   0  0  2  0  0  0  0  0  0  0  0  0
   26.4979  -10.6892  -14.9199 C   0  0  0  0  0  0  0  0  0  0  0  0
   24.7594  -11.7907  -16.3395 C   0  0  2  0  0  0  0  0  0  0  0  0
   24.4894  -12.6808  -17.4276 N   0  0  0  0  0  0  0  0  0  0  0  0
   24.1707  -10.4337  -16.5601 C   0  0  0  0  0  0  0  0  0  0  0  0
   24.3008   -9.8889  -17.6864 O   0  0  0  0  0  0  0  0  0  0  0  0
   23.4720   -9.7333  -15.5553 N   0  0  0  0  0  0  0  0  0  0  0  0
   22.6972   -8.5097  -15.8268 C   0  0  1  0  0  0  0  0  0  0  0  0
   21.6549   -8.7567  -16.8613 C   0  0  0  0  0  0  0  0  0  0  0  0
   20.5922   -9.6676  -16.3423 C   0  0  0  0  0  0  0  0  0  0  0  0
   19.5322   -9.8793  -17.3948 C   0  0  0  0  0  0  0  0  0  0  0  0
   19.1036   -8.8969  -18.0207 O   0  0  0  0  0  0  0  0  0  0  0  0
   22.1819   -8.0490  -14.5153 C   0  0  0  0  0  0  0  0  0  0  0  0
   21.6338   -6.7894  -14.2856 O   0  0  0  0  0  0  0  0  0  0  0  0
   19.0692  -11.1449  -17.6346 O   0  0  0  0  0  0  0  0  0  0  0  0
   22.2118   -8.8032  -13.4837 O   0  0  0  0  0  0  0  0  0  0  0  0
  2  1  1  1
  2  3  1  0
  4  5  2  0
  4  2  1  0
  6  7  1  0
  7  8  1  0
  8  9  1  1
  8 10  1  0
 10 11  1  6
 11  4  1  0
 12 14  1  0
 12 10  1  0
 13 12  2  0
 15 14  1  0
 15 20  1  0
 15 16  1  6
 16 17  1  0
 18 17  1  0
 18 22  1  0
 19 18  2  0
 20 21  1  0
 23 20  2  0
M  END
$$$$
