AIE.pdb
     RDKit          3D

 23 22  0  0  1  0  0  0  0  0999 V2000
   18.1778   -9.3564  -19.3100 C   0  0  0  0  0  0  0  0  0  0  0  0
   18.9003  -10.5222  -18.6937 C   0  0  2  0  0  0  0  0  0  0  0  0
   18.0185  -11.6631  -18.5494 N   0  0  0  0  0  0  0  0  0  0  0  0
   19.5555  -10.1895  -17.4160 C   0  0  0  0  0  0  0  0  0  0  0  0
   18.8419  -10.0488  -16.4000 O   0  0  0  0  0  0  0  0  0  0  0  0
   24.0981  -12.5262  -15.7642 C   0  0  0  0  0  0  0  0  0  0  0  0
   22.7189  -11.8926  -15.8221 C   0  0  0  0  0  0  0  0  0  0  0  0
   22.9138  -10.3986  -15.8456 C   0  0  2  0  0  0  0  0  0  0  0  0
   23.5735   -9.9906  -14.5458 C   0  0  0  0  0  0  0  0  0  0  0  0
   21.6060   -9.6585  -16.0524 C   0  0  2  0  0  0  0  0  0  0  0  0
   20.9610  -10.0197  -17.2783 N   0  0  0  0  0  0  0  0  0  0  0  0
   21.9236   -8.1984  -15.9898 C   0  0  0  0  0  0  0  0  0  0  0  0
   22.6196   -7.6866  -16.9040 O   0  0  0  0  0  0  0  0  0  0  0  0
   21.4746   -7.3648  -14.9449 N   0  0  0  0  0  0  0  0  0  0  0  0
   21.6717   -5.9046  -14.9480 C   0  0  1  0  0  0  0  0  0  0  0  0
   20.4041   -5.1958  -15.2770 C   0  0  0  0  0  0  0  0  0  0  0  0
   20.5799   -3.7162  -15.1854 C   0  0  0  0  0  0  0  0  0  0  0  0
   19.2629   -3.0221  -15.4301 C   0  0  0  0  0  0  0  0  0  0  0  0
   18.2446   -3.7107  -15.6013 O   0  0  0  0  0  0  0  0  0  0  0  0
   22.2555   -5.5649  -13.6283 C   0  0  0  0  0  0  0  0  0  0  0  0
   23.0118   -4.4233  -13.3746 O   0  0  0  0  0  0  0  0  0  0  0  0
   19.2212   -1.6542  -15.4575 O   0  0  0  0  0  0  0  0  0  0  0  0
   22.0959   -6.3239  -12.6122 O   0  0  0  0  0  0  0  0  0  0  0  0
  2  1  1  1
  2  3  1  0
  4  5  2  0
  4  2  1  0
  6  7  1  0
  7  8  1  0
  8  9  1  1
  8 10  1  0
 10 11  1  6
 11  4  1  0
 12 14  1  0
 12 10  1  0
 13 12  2  0
 15 14  1  0
 15 20  1  0
 15 16  1  1
 16 17  1  0
 18 17  1  0
 18 22  1  0
 19 18  2  0
 20 21  1  0
 23 20  2  0
M  END
$$$$
