AIE.pdb
     RDKit          3D

 23 22  0  0  1  0  0  0  0  0999 V2000
   21.7319  -13.0138  -19.7200 C   0  0  0  0  0  0  0  0  0  0  0  0
   22.1105  -11.5592  -19.7603 C   0  0  2  0  0  0  0  0  0  0  0  0
   23.2375  -11.3394  -20.6444 N   0  0  0  0  0  0  0  0  0  0  0  0
   22.3608  -10.9873  -18.4250 C   0  0  0  0  0  0  0  0  0  0  0  0
   21.4339  -11.0034  -17.5873 O   0  0  0  0  0  0  0  0  0  0  0  0
   27.2715  -11.4714  -16.1122 C   0  0  0  0  0  0  0  0  0  0  0  0
   25.7703  -11.4641  -16.3437 C   0  0  0  0  0  0  0  0  0  0  0  0
   25.3237  -10.0249  -16.3352 C   0  0  2  0  0  0  0  0  0  0  0  0
   25.5658   -9.4662  -14.9495 C   0  0  0  0  0  0  0  0  0  0  0  0
   23.8688   -9.8795  -16.7384 C   0  0  2  0  0  0  0  0  0  0  0  0
   23.6051  -10.4165  -18.0389 N   0  0  0  0  0  0  0  0  0  0  0  0
   23.5420   -8.4226  -16.6519 C   0  0  0  0  0  0  0  0  0  0  0  0
   24.1269   -7.6201  -17.4241 O   0  0  0  0  0  0  0  0  0  0  0  0
   22.6016   -7.9053  -15.7373 N   0  0  0  0  0  0  0  0  0  0  0  0
   22.2205   -6.4824  -15.7034 C   0  0  1  0  0  0  0  0  0  0  0  0
   20.8488   -6.2843  -16.2481 C   0  0  0  0  0  0  0  0  0  0  0  0
   20.3851   -4.8820  -16.0314 C   0  0  0  0  0  0  0  0  0  0  0  0
   18.9283   -4.7551  -16.4026 C   0  0  0  0  0  0  0  0  0  0  0  0
   18.3332   -5.7501  -16.8455 O   0  0  0  0  0  0  0  0  0  0  0  0
   22.4082   -6.0389  -14.3013 C   0  0  0  0  0  0  0  0  0  0  0  0
   22.7736   -4.7478  -13.9283 O   0  0  0  0  0  0  0  0  0  0  0  0
   18.2985   -3.5503  -16.2430 O   0  0  0  0  0  0  0  0  0  0  0  0
   22.2421   -6.8405  -13.3195 O   0  0  0  0  0  0  0  0  0  0  0  0
  2  1  1  1
  2  3  1  0
  4  5  2  0
  4  2  1  0
  6  7  1  0
  7  8  1  0
  8  9  1  1
  8 10  1  0
 10 11  1  6
 11  4  1  0
 12 14  1  0
 12 10  1  0
 13 12  2  0
 15 14  1  0
 15 20  1  0
 15 16  1  1
 16 17  1  0
 18 17  1  0
 18 22  1  0
 19 18  2  0
 20 21  1  0
 23 20  2  0
M  END
$$$$
