AIE.pdb
     RDKit          3D

 23 22  0  0  1  0  0  0  0  0999 V2000
   18.1167  -10.4183  -19.1822 C   0  0  0  0  0  0  0  0  0  0  0  0
   18.7443  -11.4020  -18.2339 C   0  0  2  0  0  0  0  0  0  0  0  0
   17.7868  -12.4074  -17.8186 N   0  0  0  0  0  0  0  0  0  0  0  0
   19.3826  -10.7605  -17.0704 C   0  0  0  0  0  0  0  0  0  0  0  0
   18.6514  -10.3209  -16.1575 O   0  0  0  0  0  0  0  0  0  0  0  0
   24.0739  -12.7036  -15.1377 C   0  0  0  0  0  0  0  0  0  0  0  0
   22.6612  -12.1588  -15.2594 C   0  0  0  0  0  0  0  0  0  0  0  0
   22.7730  -10.6740  -15.4907 C   0  0  2  0  0  0  0  0  0  0  0  0
   23.4129  -10.0549  -14.2666 C   0  0  0  0  0  0  0  0  0  0  0  0
   21.4257  -10.0419  -15.7839 C   0  0  2  0  0  0  0  0  0  0  0  0
   20.7907  -10.6151  -16.9317 N   0  0  0  0  0  0  0  0  0  0  0  0
   21.6649   -8.5744  -15.9443 C   0  0  0  0  0  0  0  0  0  0  0  0
   22.3511   -8.1719  -16.9187 O   0  0  0  0  0  0  0  0  0  0  0  0
   21.1522   -7.6159  -15.0462 N   0  0  0  0  0  0  0  0  0  0  0  0
   21.3383   -6.1663  -15.2339 C   0  0  1  0  0  0  0  0  0  0  0  0
   20.0771   -5.5217  -15.6939 C   0  0  0  0  0  0  0  0  0  0  0  0
   20.2402   -4.0414  -15.7966 C   0  0  0  0  0  0  0  0  0  0  0  0
   18.9399   -3.4054  -16.2218 C   0  0  0  0  0  0  0  0  0  0  0  0
   18.1933   -4.0258  -16.9952 O   0  0  0  0  0  0  0  0  0  0  0  0
   21.8744   -5.6503  -13.9516 C   0  0  0  0  0  0  0  0  0  0  0  0
   22.6387   -4.4924  -13.8293 O   0  0  0  0  0  0  0  0  0  0  0  0
   18.6144   -2.1635  -15.7470 O   0  0  0  0  0  0  0  0  0  0  0  0
   21.6619   -6.2568  -12.8467 O   0  0  0  0  0  0  0  0  0  0  0  0
  2  1  1  1
  2  3  1  0
  4  5  2  0
  4  2  1  0
  6  7  1  0
  7  8  1  0
  8  9  1  1
  8 10  1  0
 10 11  1  6
 11  4  1  0
 12 14  1  0
 12 10  1  0
 13 12  2  0
 15 14  1  0
 15 20  1  0
 15 16  1  1
 16 17  1  0
 18 17  1  0
 18 22  1  0
 19 18  2  0
 20 21  1  0
 23 20  2  0
M  END
$$$$
