AIE.pdb
     RDKit          3D

 23 22  0  0  1  0  0  0  0  0999 V2000
   28.9160   -9.6422  -17.4100 C   0  0  0  0  0  0  0  0  0  0  0  0
   27.8473  -10.6471  -17.7401 C   0  0  2  0  0  0  0  0  0  0  0  0
   28.1105  -11.2867  -19.0136 N   0  0  0  0  0  0  0  0  0  0  0  0
   26.4865  -10.0825  -17.6979 C   0  0  0  0  0  0  0  0  0  0  0  0
   26.0877   -9.4165  -18.6771 O   0  0  0  0  0  0  0  0  0  0  0  0
   22.6467  -13.1104  -15.7330 C   0  0  0  0  0  0  0  0  0  0  0  0
   23.1505  -12.0453  -16.6915 C   0  0  0  0  0  0  0  0  0  0  0  0
   23.3077  -10.7715  -15.9018 C   0  0  2  0  0  0  0  0  0  0  0  0
   21.9339  -10.1665  -15.7082 C   0  0  0  0  0  0  0  0  0  0  0  0
   24.2463   -9.7936  -16.5826 C   0  0  2  0  0  0  0  0  0  0  0  0
   25.6009  -10.2562  -16.5985 N   0  0  0  0  0  0  0  0  0  0  0  0
   24.1031   -8.4894  -15.8647 C   0  0  0  0  0  0  0  0  0  0  0  0
   24.6042   -8.3671  -14.7175 O   0  0  0  0  0  0  0  0  0  0  0  0
   23.4270   -7.3837  -16.4204 N   0  0  0  0  0  0  0  0  0  0  0  0
   23.3794   -6.0652  -15.7644 C   0  0  1  0  0  0  0  0  0  0  0  0
   23.0388   -4.9948  -16.7420 C   0  0  0  0  0  0  0  0  0  0  0  0
   22.9185   -3.6703  -16.0640 C   0  0  0  0  0  0  0  0  0  0  0  0
   22.5404   -2.6079  -17.0662 C   0  0  0  0  0  0  0  0  0  0  0  0
   22.4562   -1.4289  -16.6877 O   0  0  0  0  0  0  0  0  0  0  0  0
   22.4337   -6.2029  -14.6310 C   0  0  0  0  0  0  0  0  0  0  0  0
   22.5918   -5.5784  -13.3962 O   0  0  0  0  0  0  0  0  0  0  0  0
   22.2999   -2.9670  -18.3650 O   0  0  0  0  0  0  0  0  0  0  0  0
   21.3841   -6.9268  -14.7212 O   0  0  0  0  0  0  0  0  0  0  0  0
  2  1  1  6
  2  3  1  0
  4  5  2  0
  4  2  1  0
  6  7  1  0
  7  8  1  0
  8  9  1  6
  8 10  1  0
 10 11  1  1
 11  4  1  0
 12 14  1  0
 12 10  1  0
 13 12  2  0
 15 14  1  0
 15 20  1  0
 15 16  1  6
 16 17  1  0
 18 17  1  0
 18 22  1  0
 19 18  2  0
 20 21  1  0
 23 20  2  0
M  END
$$$$
