AIE.pdb
     RDKit          3D

 23 22  0  0  1  0  0  0  0  0999 V2000
   18.0877  -12.5844  -17.5167 C   0  0  0  0  0  0  0  0  0  0  0  0
   18.8621  -11.3722  -17.9548 C   0  0  2  0  0  0  0  0  0  0  0  0
   19.6717  -11.6656  -19.1204 N   0  0  0  0  0  0  0  0  0  0  0  0
   19.6744  -10.7811  -16.8762 C   0  0  0  0  0  0  0  0  0  0  0  0
   19.0956  -10.3950  -15.8384 O   0  0  0  0  0  0  0  0  0  0  0  0
   24.5551  -12.7623  -15.6297 C   0  0  0  0  0  0  0  0  0  0  0  0
   23.1521  -12.1886  -15.5312 C   0  0  0  0  0  0  0  0  0  0  0  0
   23.2526  -10.7112  -15.8105 C   0  0  2  0  0  0  0  0  0  0  0  0
   24.0790  -10.0804  -14.7104 C   0  0  0  0  0  0  0  0  0  0  0  0
   21.8872  -10.0586  -15.9132 C   0  0  2  0  0  0  0  0  0  0  0  0
   21.0862  -10.6268  -16.9548 N   0  0  0  0  0  0  0  0  0  0  0  0
   22.1239   -8.5959  -16.1166 C   0  0  0  0  0  0  0  0  0  0  0  0
   22.7908   -8.2196  -17.1145 O   0  0  0  0  0  0  0  0  0  0  0  0
   21.6295   -7.6138  -15.2337 N   0  0  0  0  0  0  0  0  0  0  0  0
   21.7944   -6.1693  -15.4734 C   0  0  1  0  0  0  0  0  0  0  0  0
   20.5686   -5.5868  -16.0863 C   0  0  0  0  0  0  0  0  0  0  0  0
   20.6604   -4.0983  -16.1534 C   0  0  0  0  0  0  0  0  0  0  0  0
   19.3876   -3.5264  -16.7270 C   0  0  0  0  0  0  0  0  0  0  0  0
   18.5559   -4.2986  -17.2293 O   0  0  0  0  0  0  0  0  0  0  0  0
   22.1862   -5.5778  -14.1716 C   0  0  0  0  0  0  0  0  0  0  0  0
   22.9400   -4.4151  -14.0326 O   0  0  0  0  0  0  0  0  0  0  0  0
   19.1799   -2.1742  -16.6805 O   0  0  0  0  0  0  0  0  0  0  0  0
   21.8460   -6.1171  -13.0637 O   0  0  0  0  0  0  0  0  0  0  0  0
  2  1  1  1
  2  3  1  0
  4  5  2  0
  4  2  1  0
  6  7  1  0
  7  8  1  0
  8  9  1  1
  8 10  1  0
 10 11  1  6
 11  4  1  0
 12 14  1  0
 12 10  1  0
 13 12  2  0
 15 14  1  0
 15 20  1  0
 15 16  1  1
 16 17  1  0
 18 17  1  0
 18 22  1  0
 19 18  2  0
 20 21  1  0
 23 20  2  0
M  END
$$$$
