WNW.pdb
     RDKit          3D

 37 40  0  0  1  0  0  0  0  0999 V2000
   25.3542  -17.5501  -18.2442 N   0  0  0  0  0  0  0  0  0  0  0  0
   25.7732  -18.5102  -17.2196 C   0  0  1  0  0  0  0  0  0  0  0  0
   25.8860  -17.7513  -15.9514 C   0  0  0  0  0  0  0  0  0  0  0  0
   26.8565  -16.6682  -15.9009 C   0  0  0  0  0  0  0  0  0  0  0  0
   26.6765  -15.4196  -15.3538 C   0  0  0  0  0  0  0  0  0  0  0  0
   27.8196  -14.7097  -15.5279 N   0  0  0  0  0  0  0  0  0  0  0  0
   28.7061  -15.5091  -16.1786 C   0  0  0  0  0  0  0  0  0  0  0  0
   30.0041  -15.2407  -16.5743 C   0  0  0  0  0  0  0  0  0  0  0  0
   30.6836  -16.2597  -17.2215 C   0  0  0  0  0  0  0  0  0  0  0  0
   30.1212  -17.4822  -17.4699 C   0  0  0  0  0  0  0  0  0  0  0  0
   28.8392  -17.7514  -17.0802 C   0  0  0  0  0  0  0  0  0  0  0  0
   28.1308  -16.7412  -16.4255 C   0  0  0  0  0  0  0  0  0  0  0  0
   24.8096  -19.6323  -17.2293 C   0  0  0  0  0  0  0  0  0  0  0  0
   23.6489  -19.3826  -17.6286 O   0  0  0  0  0  0  0  0  0  0  0  0
   24.9662  -24.0001  -14.3009 N   0  0  0  0  0  0  0  0  0  0  0  0
   25.2832  -24.1378  -15.6565 C   0  0  0  0  0  0  0  0  0  0  0  0
   25.9693  -25.2207  -15.9184 O   0  0  0  0  0  0  0  0  0  0  0  0
   24.9962  -23.3179  -16.8075 C   0  0  0  0  0  0  0  0  0  0  0  0
   24.1919  -22.0639  -16.6703 C   0  0  2  0  0  0  0  0  0  0  0  0
   25.1432  -20.9304  -16.8191 N   0  0  0  0  0  0  0  0  0  0  0  0
   23.4767  -21.9079  -15.4056 C   0  0  0  0  0  0  0  0  0  0  0  0
   24.0416  -21.1869  -14.4956 O   0  0  0  0  0  0  0  0  0  0  0  0
   22.2244  -22.4374  -15.0403 N   0  0  0  0  0  0  0  0  0  0  0  0
   21.5792  -22.1068  -13.7706 C   0  0  1  0  0  0  0  0  0  0  0  0
   21.5219  -20.5989  -13.6080 C   0  0  0  0  0  0  0  0  0  0  0  0
   20.5525  -19.9196  -14.4537 C   0  0  0  0  0  0  0  0  0  0  0  0
   19.1682  -20.0817  -14.2948 C   0  0  0  0  0  0  0  0  0  0  0  0
   18.5282  -19.3101  -15.1854 N   0  0  0  0  0  0  0  0  0  0  0  0
   19.4228  -18.6306  -15.9440 C   0  0  0  0  0  0  0  0  0  0  0  0
   19.2382  -17.7387  -16.9778 C   0  0  0  0  0  0  0  0  0  0  0  0
   20.3482  -17.2057  -17.5815 C   0  0  0  0  0  0  0  0  0  0  0  0
   21.6059  -17.5772  -17.1377 C   0  0  0  0  0  0  0  0  0  0  0  0
   21.7599  -18.4723  -16.1003 C   0  0  0  0  0  0  0  0  0  0  0  0
   20.6718  -19.0213  -15.4768 C   0  0  0  0  0  0  0  0  0  0  0  0
   20.3434  -22.8254  -13.5652 C   0  0  0  0  0  0  0  0  0  0  0  0
   19.7114  -22.8843  -12.3128 O   0  0  0  0  0  0  0  0  0  0  0  0
   19.7243  -23.4612  -14.4779 O   0  0  0  0  0  0  0  0  0  0  0  0
  2  3  1  0
  2  1  1  6
  3  4  1  0
  4  5  2  0
  5  6  1  0
  7  6  1  0
  8  7  2  0
  9  8  1  0
 10 11  1  0
 10  9  2  0
 11 12  2  0
 12  4  1  0
 12  7  1  0
 13 14  2  0
 13  2  1  0
 16 15  1  0
 16 18  1  0
 17 16  2  0
 19 18  1  1
 19 20  1  0
 20 13  1  0
 21 19  1  0
 21 22  2  0
 23 21  1  0
 24 23  1  0
 24 25  1  6
 25 26  1  0
 26 34  1  0
 26 27  2  0
 27 28  1  0
 29 28  1  0
 29 30  2  0
 31 30  1  0
 32 31  2  0
 33 34  2  0
 33 32  1  0
 34 29  1  0
 35 24  1  0
 36 35  1  0
 37 35  2  0
M  END
$$$$
