WNW.pdb
     RDKit          3D

 37 40  0  0  1  0  0  0  0  0999 V2000
   24.5665  -16.2548  -18.3713 N   0  0  0  0  0  0  0  0  0  0  0  0
   25.4321  -16.6835  -17.2694 C   0  0  1  0  0  0  0  0  0  0  0  0
   26.5697  -15.7340  -17.2326 C   0  0  0  0  0  0  0  0  0  0  0  0
   27.4463  -15.6910  -18.3933 C   0  0  0  0  0  0  0  0  0  0  0  0
   27.7148  -14.6019  -19.1887 C   0  0  0  0  0  0  0  0  0  0  0  0
   28.5693  -14.9905  -20.1684 N   0  0  0  0  0  0  0  0  0  0  0  0
   28.8321  -16.3118  -19.9859 C   0  0  0  0  0  0  0  0  0  0  0  0
   29.6474  -17.1544  -20.7198 C   0  0  0  0  0  0  0  0  0  0  0  0
   29.7325  -18.4695  -20.2935 C   0  0  0  0  0  0  0  0  0  0  0  0
   29.0532  -18.9386  -19.2020 C   0  0  0  0  0  0  0  0  0  0  0  0
   28.2468  -18.1092  -18.4741 C   0  0  0  0  0  0  0  0  0  0  0  0
   28.1426  -16.7776  -18.8823 C   0  0  0  0  0  0  0  0  0  0  0  0
   24.6034  -16.7622  -16.0468 C   0  0  0  0  0  0  0  0  0  0  0  0
   24.1989  -15.6802  -15.5625 O   0  0  0  0  0  0  0  0  0  0  0  0
   20.3255  -19.2426  -15.1495 N   0  0  0  0  0  0  0  0  0  0  0  0
   21.1587  -18.1362  -15.3458 C   0  0  0  0  0  0  0  0  0  0  0  0
   21.0332  -17.6001  -16.5327 O   0  0  0  0  0  0  0  0  0  0  0  0
   22.1191  -17.4820  -14.4919 C   0  0  0  0  0  0  0  0  0  0  0  0
   23.4404  -18.1198  -14.1999 C   0  0  2  0  0  0  0  0  0  0  0  0
   24.2638  -17.9740  -15.4297 N   0  0  0  0  0  0  0  0  0  0  0  0
   23.3921  -19.5346  -13.8374 C   0  0  0  0  0  0  0  0  0  0  0  0
   23.1178  -20.3739  -14.7794 O   0  0  0  0  0  0  0  0  0  0  0  0
   23.6201  -20.1210  -12.5780 N   0  0  0  0  0  0  0  0  0  0  0  0
   23.5016  -21.5613  -12.3563 C   0  0  1  0  0  0  0  0  0  0  0  0
   24.6770  -22.0455  -11.5274 C   0  0  0  0  0  0  0  0  0  0  0  0
   24.7603  -21.4912  -10.1848 C   0  0  0  0  0  0  0  0  0  0  0  0
   24.0228  -22.0070   -9.1087 C   0  0  0  0  0  0  0  0  0  0  0  0
   24.3286  -21.3237   -7.9962 N   0  0  0  0  0  0  0  0  0  0  0  0
   25.2440  -20.3633   -8.2737 C   0  0  0  0  0  0  0  0  0  0  0  0
   25.8419  -19.4233   -7.4631 C   0  0  0  0  0  0  0  0  0  0  0  0
   26.7391  -18.5542   -8.0289 C   0  0  0  0  0  0  0  0  0  0  0  0
   27.0125  -18.6479   -9.3829 C   0  0  0  0  0  0  0  0  0  0  0  0
   26.3988  -19.5994  -10.1697 C   0  0  0  0  0  0  0  0  0  0  0  0
   25.4991  -20.4818   -9.6346 C   0  0  0  0  0  0  0  0  0  0  0  0
   22.1874  -21.9531  -11.9033 C   0  0  0  0  0  0  0  0  0  0  0  0
   21.7475  -23.2858  -11.9471 O   0  0  0  0  0  0  0  0  0  0  0  0
   21.3216  -21.1467  -11.4339 O   0  0  0  0  0  0  0  0  0  0  0  0
  2  3  1  0
  2  1  1  6
  3  4  1  0
  4  5  2  0
  5  6  1  0
  7  6  1  0
  8  7  2  0
  9  8  1  0
 10 11  1  0
 10  9  2  0
 11 12  2  0
 12  4  1  0
 12  7  1  0
 13 14  2  0
 13  2  1  0
 16 15  1  0
 16 18  1  0
 17 16  2  0
 19 18  1  6
 19 20  1  0
 20 13  1  0
 21 19  1  0
 21 22  2  0
 23 21  1  0
 24 23  1  0
 24 25  1  1
 25 26  1  0
 26 34  1  0
 26 27  2  0
 27 28  1  0
 29 28  1  0
 29 30  2  0
 31 30  1  0
 32 31  2  0
 33 34  2  0
 33 32  1  0
 34 29  1  0
 35 24  1  0
 36 35  1  0
 37 35  2  0
M  END
$$$$
