WNW.pdb
     RDKit          3D

 37 40  0  0  1  0  0  0  0  0999 V2000
   26.5887  -22.4651  -10.5676 N   0  0  0  0  0  0  0  0  0  0  0  0
   26.1116  -21.1126  -10.8682 C   0  0  1  0  0  0  0  0  0  0  0  0
   27.1770  -20.1815  -10.4269 C   0  0  0  0  0  0  0  0  0  0  0  0
   27.2524  -19.8718   -9.0070 C   0  0  0  0  0  0  0  0  0  0  0  0
   26.2294  -19.4338   -8.1993 C   0  0  0  0  0  0  0  0  0  0  0  0
   26.7229  -19.2507   -6.9488 N   0  0  0  0  0  0  0  0  0  0  0  0
   28.0437  -19.5719   -6.9758 C   0  0  0  0  0  0  0  0  0  0  0  0
   28.9728  -19.5538   -5.9512 C   0  0  0  0  0  0  0  0  0  0  0  0
   30.2629  -19.9441   -6.2704 C   0  0  0  0  0  0  0  0  0  0  0  0
   30.6273  -20.3336   -7.5307 C   0  0  0  0  0  0  0  0  0  0  0  0
   29.7122  -20.3531   -8.5456 C   0  0  0  0  0  0  0  0  0  0  0  0
   28.4035  -19.9640   -8.2514 C   0  0  0  0  0  0  0  0  0  0  0  0
   25.7533  -21.0672  -12.3026 C   0  0  0  0  0  0  0  0  0  0  0  0
   26.6616  -21.3279  -13.1248 O   0  0  0  0  0  0  0  0  0  0  0  0
   24.3620  -24.3463  -13.6507 N   0  0  0  0  0  0  0  0  0  0  0  0
   23.7617  -23.2039  -14.1907 C   0  0  0  0  0  0  0  0  0  0  0  0
   22.4547  -23.2337  -14.1371 O   0  0  0  0  0  0  0  0  0  0  0  0
   24.3094  -22.0110  -14.7878 C   0  0  0  0  0  0  0  0  0  0  0  0
   24.0494  -20.6667  -14.1848 C   0  0  2  0  0  0  0  0  0  0  0  0
   24.4664  -20.7522  -12.7598 N   0  0  0  0  0  0  0  0  0  0  0  0
   22.6627  -20.2090  -14.2371 C   0  0  0  0  0  0  0  0  0  0  0  0
   21.8292  -20.7635  -13.4217 O   0  0  0  0  0  0  0  0  0  0  0  0
   22.1017  -19.2171  -15.0639 N   0  0  0  0  0  0  0  0  0  0  0  0
   20.6774  -18.8888  -15.0303 C   0  0  1  0  0  0  0  0  0  0  0  0
   20.4052  -17.7154  -15.9535 C   0  0  0  0  0  0  0  0  0  0  0  0
   20.5932  -17.9839  -17.3709 C   0  0  0  0  0  0  0  0  0  0  0  0
   19.8068  -18.9085  -18.0744 C   0  0  0  0  0  0  0  0  0  0  0  0
   20.1819  -18.9178  -19.3617 N   0  0  0  0  0  0  0  0  0  0  0  0
   21.1926  -18.0369  -19.5611 C   0  0  0  0  0  0  0  0  0  0  0  0
   21.8975  -17.7124  -20.6996 C   0  0  0  0  0  0  0  0  0  0  0  0
   22.8946  -16.7761  -20.6012 C   0  0  0  0  0  0  0  0  0  0  0  0
   23.1588  -16.1930  -19.3736 C   0  0  0  0  0  0  0  0  0  0  0  0
   22.4365  -16.5375  -18.2508 C   0  0  0  0  0  0  0  0  0  0  0  0
   21.4344  -17.4681  -18.3164 C   0  0  0  0  0  0  0  0  0  0  0  0
   19.8305  -20.0474  -15.1923 C   0  0  0  0  0  0  0  0  0  0  0  0
   18.5621  -20.1361  -14.5966 O   0  0  0  0  0  0  0  0  0  0  0  0
   20.1461  -21.0759  -15.8727 O   0  0  0  0  0  0  0  0  0  0  0  0
  2  3  1  0
  2  1  1  6
  3  4  1  0
  4  5  2  0
  5  6  1  0
  7  6  1  0
  8  7  2  0
  9  8  1  0
 10 11  1  0
 10  9  2  0
 11 12  2  0
 12  4  1  0
 12  7  1  0
 13 14  2  0
 13  2  1  0
 16 15  1  0
 16 18  1  0
 17 16  2  0
 19 18  1  1
 19 20  1  0
 20 13  1  0
 21 19  1  0
 21 22  2  0
 23 21  1  0
 24 23  1  0
 24 25  1  6
 25 26  1  0
 26 34  1  0
 26 27  2  0
 27 28  1  0
 29 28  1  0
 29 30  2  0
 31 30  1  0
 32 31  2  0
 33 34  2  0
 33 32  1  0
 34 29  1  0
 35 24  1  0
 36 35  1  0
 37 35  2  0
M  END
$$$$
