WNW.pdb
     RDKit          3D

 37 40  0  0  1  0  0  0  0  0999 V2000
   28.2938  -20.9117  -15.7064 N   0  0  0  0  0  0  0  0  0  0  0  0
   27.2213  -20.1988  -15.0073 C   0  0  1  0  0  0  0  0  0  0  0  0
   26.5130  -19.3937  -16.0305 C   0  0  0  0  0  0  0  0  0  0  0  0
   27.2827  -18.3841  -16.7417 C   0  0  0  0  0  0  0  0  0  0  0  0
   27.9084  -18.5241  -17.9580 C   0  0  0  0  0  0  0  0  0  0  0  0
   28.5253  -17.3530  -18.2567 N   0  0  0  0  0  0  0  0  0  0  0  0
   28.2865  -16.4890  -17.2347 C   0  0  0  0  0  0  0  0  0  0  0  0
   28.6966  -15.1770  -17.0802 C   0  0  0  0  0  0  0  0  0  0  0  0
   28.2933  -14.5281  -15.9247 C   0  0  0  0  0  0  0  0  0  0  0  0
   27.5260  -15.1326  -14.9664 C   0  0  0  0  0  0  0  0  0  0  0  0
   27.1186  -16.4286  -15.1155 C   0  0  0  0  0  0  0  0  0  0  0  0
   27.5113  -17.1069  -16.2715 C   0  0  0  0  0  0  0  0  0  0  0  0
   26.4091  -21.2004  -14.2827 C   0  0  0  0  0  0  0  0  0  0  0  0
   26.8890  -22.3524  -14.1750 O   0  0  0  0  0  0  0  0  0  0  0  0
   25.8259  -22.0219   -9.4689 N   0  0  0  0  0  0  0  0  0  0  0  0
   26.2528  -20.9262  -10.2267 C   0  0  0  0  0  0  0  0  0  0  0  0
   27.2497  -20.2782   -9.6805 O   0  0  0  0  0  0  0  0  0  0  0  0
   25.8045  -20.3842  -11.4856 C   0  0  0  0  0  0  0  0  0  0  0  0
   24.7747  -21.0996  -12.3015 C   0  0  2  0  0  0  0  0  0  0  0  0
   25.1554  -20.9110  -13.7268 N   0  0  0  0  0  0  0  0  0  0  0  0
   23.3985  -20.6419  -12.1232 C   0  0  0  0  0  0  0  0  0  0  0  0
   23.2180  -19.3755  -11.9479 O   0  0  0  0  0  0  0  0  0  0  0  0
   22.2168  -21.4071  -12.1284 N   0  0  0  0  0  0  0  0  0  0  0  0
   21.0183  -20.9849  -12.8516 C   0  0  1  0  0  0  0  0  0  0  0  0
   21.3911  -20.6038  -14.2726 C   0  0  0  0  0  0  0  0  0  0  0  0
   20.2790  -20.1999  -15.1191 C   0  0  0  0  0  0  0  0  0  0  0  0
   19.8806  -18.8615  -15.2534 C   0  0  0  0  0  0  0  0  0  0  0  0
   18.8601  -18.7896  -16.1203 N   0  0  0  0  0  0  0  0  0  0  0  0
   18.5484  -20.0262  -16.5798 C   0  0  0  0  0  0  0  0  0  0  0  0
   17.5794  -20.4435  -17.4659 C   0  0  0  0  0  0  0  0  0  0  0  0
   17.4848  -21.7836  -17.7410 C   0  0  0  0  0  0  0  0  0  0  0  0
   18.3569  -22.6655  -17.1257 C   0  0  0  0  0  0  0  0  0  0  0  0
   19.3173  -22.2187  -16.2430 C   0  0  0  0  0  0  0  0  0  0  0  0
   19.4376  -20.8872  -15.9482 C   0  0  0  0  0  0  0  0  0  0  0  0
   19.9166  -21.9061  -12.6983 C   0  0  0  0  0  0  0  0  0  0  0  0
   20.0910  -23.2979  -12.7604 O   0  0  0  0  0  0  0  0  0  0  0  0
   18.7100  -21.5528  -12.4992 O   0  0  0  0  0  0  0  0  0  0  0  0
  2  3  1  0
  2  1  1  6
  3  4  1  0
  4  5  2  0
  5  6  1  0
  7  6  1  0
  8  7  2  0
  9  8  1  0
 10 11  1  0
 10  9  2  0
 11 12  2  0
 12  4  1  0
 12  7  1  0
 13 14  2  0
 13  2  1  0
 16 15  1  0
 16 18  1  0
 17 16  2  0
 19 18  1  1
 19 20  1  0
 20 13  1  0
 21 19  1  0
 21 22  2  0
 23 21  1  0
 24 23  1  0
 24 25  1  6
 25 26  1  0
 26 34  1  0
 26 27  2  0
 27 28  1  0
 29 28  1  0
 29 30  2  0
 31 30  1  0
 32 31  2  0
 33 34  2  0
 33 32  1  0
 34 29  1  0
 35 24  1  0
 36 35  1  0
 37 35  2  0
M  END
$$$$
