LMM.pdb
     RDKit          3D

 25 24  0  0  1  0  0  0  0  0999 V2000
    7.1090  -20.7183   19.4722 C   0  0  0  0  0  0  0  0  0  0  0  0
    6.6262  -19.3400   19.1670 C   0  0  2  0  0  0  0  0  0  0  0  0
    6.2615  -19.2254   17.7256 C   0  0  0  0  0  0  0  0  0  0  0  0
    7.5601  -18.2510   19.6311 C   0  0  0  0  0  0  0  0  0  0  0  0
    7.8610  -18.3297   21.1089 C   0  0  2  0  0  0  0  0  0  0  0  0
    6.7126  -18.7222   21.8759 N   0  0  0  0  0  0  0  0  0  0  0  0
    8.3879  -16.9987   21.5113 C   0  0  0  0  0  0  0  0  0  0  0  0
    9.3566  -16.5326   20.8541 O   0  0  0  0  0  0  0  0  0  0  0  0
    5.3708  -12.9577   26.0199 C   0  0  0  0  0  0  0  0  0  0  0  0
    7.1559  -12.5911   25.9510 S   0  0  0  0  0  0  0  0  0  0  0  0
    7.8104  -12.8928   24.2845 C   0  0  0  0  0  0  0  0  0  0  0  0
    7.4076  -14.2941   23.8940 C   0  0  0  0  0  0  0  0  0  0  0  0
    8.4080  -14.9099   22.9174 C   0  0  2  0  0  0  0  0  0  0  0  0
    7.8879  -16.2184   22.5700 N   0  0  0  0  0  0  0  0  0  0  0  0
    9.7543  -15.0064   23.5469 C   0  0  0  0  0  0  0  0  0  0  0  0
   10.5064  -13.9928   23.6123 O   0  0  0  0  0  0  0  0  0  0  0  0
   10.6049  -12.8429   28.3349 C   0  0  0  0  0  0  0  0  0  0  0  0
   10.2550  -14.5033   28.9620 S   0  0  0  0  0  0  0  0  0  0  0  0
   10.7468  -15.8069   27.8451 C   0  0  0  0  0  0  0  0  0  0  0  0
   10.1068  -15.7962   26.5033 C   0  0  0  0  0  0  0  0  0  0  0  0
   10.9638  -16.2844   25.3755 C   0  0  2  0  0  0  0  0  0  0  0  0
   10.2585  -16.2090   24.0957 N   0  0  0  0  0  0  0  0  0  0  0  0
   11.3842  -17.6893   25.5579 C   0  0  0  0  0  0  0  0  0  0  0  0
   11.0082  -18.6973   24.6766 O   0  0  0  0  0  0  0  0  0  0  0  0
   12.1071  -18.0490   26.5237 O   0  0  0  0  0  0  0  0  0  0  0  0
  2  1  1  6
  3  2  1  0
  4  2  1  0
  4  5  1  0
  5  6  1  1
  7  5  1  0
  7  8  2  0
  9 10  1  0
 11 10  1  0
 11 12  1  0
 13 12  1  1
 13 14  1  0
 14  7  1  0
 15 13  1  0
 16 15  2  0
 18 17  1  0
 19 18  1  0
 20 19  1  0
 21 20  1  1
 21 22  1  0
 22 15  1  0
 23 21  1  0
 24 23  1  0
 25 23  2  0
M  END
$$$$
