LMM.pdb
     RDKit          3D

 25 24  0  0  1  0  0  0  0  0999 V2000
    8.6542  -19.6992   18.5200 C   0  0  0  0  0  0  0  0  0  0  0  0
    7.8036  -18.4755   18.4483 C   0  0  2  0  0  0  0  0  0  0  0  0
    7.5730  -18.0866   17.0273 C   0  0  0  0  0  0  0  0  0  0  0  0
    8.3019  -17.3368   19.3017 C   0  0  0  0  0  0  0  0  0  0  0  0
    8.5114  -17.7350   20.7433 C   0  0  2  0  0  0  0  0  0  0  0  0
    7.3712  -18.4156   21.2889 N   0  0  0  0  0  0  0  0  0  0  0  0
    8.8439  -16.4918   21.4882 C   0  0  0  0  0  0  0  0  0  0  0  0
    9.7948  -15.7888   21.0535 O   0  0  0  0  0  0  0  0  0  0  0  0
    5.2711  -11.3986   25.6186 C   0  0  0  0  0  0  0  0  0  0  0  0
    6.1197  -12.9487   26.0692 S   0  0  0  0  0  0  0  0  0  0  0  0
    7.5777  -13.2121   25.0198 C   0  0  0  0  0  0  0  0  0  0  0  0
    7.3111  -14.4421   24.1864 C   0  0  0  0  0  0  0  0  0  0  0  0
    8.5282  -14.8188   23.3435 C   0  0  2  0  0  0  0  0  0  0  0  0
    8.1782  -16.0390   22.6422 N   0  0  0  0  0  0  0  0  0  0  0  0
    9.7215  -15.0118   24.2137 C   0  0  0  0  0  0  0  0  0  0  0  0
   10.3562  -14.0154   24.6627 O   0  0  0  0  0  0  0  0  0  0  0  0
   11.5783  -15.0413   30.8716 C   0  0  0  0  0  0  0  0  0  0  0  0
   10.8182  -14.7987   29.2480 S   0  0  0  0  0  0  0  0  0  0  0  0
   10.5129  -16.3219   28.3674 C   0  0  0  0  0  0  0  0  0  0  0  0
    9.9233  -16.1868   27.0095 C   0  0  0  0  0  0  0  0  0  0  0  0
   10.8169  -16.5865   25.8751 C   0  0  2  0  0  0  0  0  0  0  0  0
   10.2030  -16.2906   24.5803 N   0  0  0  0  0  0  0  0  0  0  0  0
   11.1284  -18.0309   25.8885 C   0  0  0  0  0  0  0  0  0  0  0  0
   11.9531  -18.6037   26.8507 O   0  0  0  0  0  0  0  0  0  0  0  0
   10.6623  -18.8217   25.0270 O   0  0  0  0  0  0  0  0  0  0  0  0
  2  1  1  6
  3  2  1  0
  4  2  1  0
  4  5  1  0
  5  6  1  1
  7  5  1  0
  7  8  2  0
  9 10  1  0
 11 10  1  0
 11 12  1  0
 13 12  1  1
 13 14  1  0
 14  7  1  0
 15 13  1  0
 16 15  2  0
 18 17  1  0
 19 18  1  0
 20 19  1  0
 21 20  1  1
 21 22  1  0
 22 15  1  0
 23 21  1  0
 24 23  1  0
 25 23  2  0
M  END
$$$$
