LMM.pdb
     RDKit          3D

 25 24  0  0  1  0  0  0  0  0999 V2000
    9.1800  -14.9616   17.4173 C   0  0  0  0  0  0  0  0  0  0  0  0
    8.1153  -14.1587   18.0864 C   0  0  2  0  0  0  0  0  0  0  0  0
    7.7817  -12.9564   17.2697 C   0  0  0  0  0  0  0  0  0  0  0  0
    8.4139  -13.8326   19.5279 C   0  0  0  0  0  0  0  0  0  0  0  0
    8.6902  -15.0620   20.3601 C   0  0  2  0  0  0  0  0  0  0  0  0
    7.6762  -16.0653   20.1984 N   0  0  0  0  0  0  0  0  0  0  0  0
    8.8217  -14.6059   21.7693 C   0  0  0  0  0  0  0  0  0  0  0  0
    9.7530  -13.8004   22.0364 O   0  0  0  0  0  0  0  0  0  0  0  0
    7.0141  -11.7768   27.6501 C   0  0  0  0  0  0  0  0  0  0  0  0
    6.3549  -12.7513   26.2567 S   0  0  0  0  0  0  0  0  0  0  0  0
    6.8978  -14.4803   26.3675 C   0  0  0  0  0  0  0  0  0  0  0  0
    6.9215  -15.0313   24.9625 C   0  0  0  0  0  0  0  0  0  0  0  0
    8.1531  -14.5519   24.1964 C   0  0  2  0  0  0  0  0  0  0  0  0
    7.9859  -15.0045   22.8287 N   0  0  0  0  0  0  0  0  0  0  0  0
    9.3924  -15.1072   24.8081 C   0  0  0  0  0  0  0  0  0  0  0  0
   10.3495  -14.3446   25.1240 O   0  0  0  0  0  0  0  0  0  0  0  0
    9.5972  -13.4849   28.3502 C   0  0  0  0  0  0  0  0  0  0  0  0
   10.8851  -14.4888   29.1288 S   0  0  0  0  0  0  0  0  0  0  0  0
   11.2610  -15.9877   28.2339 C   0  0  0  0  0  0  0  0  0  0  0  0
   10.1484  -16.5742   27.4414 C   0  0  0  0  0  0  0  0  0  0  0  0
   10.5062  -17.0161   26.0552 C   0  0  2  0  0  0  0  0  0  0  0  0
    9.5670  -16.4873   25.0656 N   0  0  0  0  0  0  0  0  0  0  0  0
   10.5011  -18.4873   25.9166 C   0  0  0  0  0  0  0  0  0  0  0  0
   11.4825  -19.2903   26.4877 O   0  0  0  0  0  0  0  0  0  0  0  0
    9.6054  -19.0933   25.2723 O   0  0  0  0  0  0  0  0  0  0  0  0
  2  1  1  6
  3  2  1  0
  4  2  1  0
  4  5  1  0
  5  6  1  1
  7  5  1  0
  7  8  2  0
  9 10  1  0
 11 10  1  0
 11 12  1  0
 13 12  1  1
 13 14  1  0
 14  7  1  0
 15 13  1  0
 16 15  2  0
 18 17  1  0
 19 18  1  0
 20 19  1  0
 21 20  1  1
 21 22  1  0
 22 15  1  0
 23 21  1  0
 24 23  1  0
 25 23  2  0
M  END
$$$$
