LMM.pdb
     RDKit          3D

 25 24  0  0  1  0  0  0  0  0999 V2000
    8.8161  -14.2352   17.6725 C   0  0  0  0  0  0  0  0  0  0  0  0
    7.8414  -13.6547   18.6415 C   0  0  2  0  0  0  0  0  0  0  0  0
    7.3792  -12.3163   18.1737 C   0  0  0  0  0  0  0  0  0  0  0  0
    8.3310  -13.6482   20.0676 C   0  0  0  0  0  0  0  0  0  0  0  0
    8.6953  -15.0261   20.5667 C   0  0  2  0  0  0  0  0  0  0  0  0
    7.6536  -15.9837   20.3240 N   0  0  0  0  0  0  0  0  0  0  0  0
    9.0177  -14.8880   22.0117 C   0  0  0  0  0  0  0  0  0  0  0  0
    9.9887  -14.1484   22.3240 O   0  0  0  0  0  0  0  0  0  0  0  0
    6.4778  -11.7084   25.8271 C   0  0  0  0  0  0  0  0  0  0  0  0
    7.0501  -13.3542   26.3655 S   0  0  0  0  0  0  0  0  0  0  0  0
    6.5219  -14.6344   25.1914 C   0  0  0  0  0  0  0  0  0  0  0  0
    7.5153  -15.7666   25.2893 C   0  0  0  0  0  0  0  0  0  0  0  0
    8.7568  -15.4937   24.4419 C   0  0  2  0  0  0  0  0  0  0  0  0
    8.3216  -15.5199   23.0587 N   0  0  0  0  0  0  0  0  0  0  0  0
    9.8006  -16.5228   24.7059 C   0  0  0  0  0  0  0  0  0  0  0  0
   10.8162  -16.6130   23.9591 O   0  0  0  0  0  0  0  0  0  0  0  0
   10.1535  -13.4726   29.2867 C   0  0  0  0  0  0  0  0  0  0  0  0
   11.4178  -14.6366   29.8518 S   0  0  0  0  0  0  0  0  0  0  0  0
   11.5107  -16.1236   28.8676 C   0  0  0  0  0  0  0  0  0  0  0  0
   10.6086  -16.1858   27.6876 C   0  0  0  0  0  0  0  0  0  0  0  0
   10.6608  -17.4603   26.9016 C   0  0  2  0  0  0  0  0  0  0  0  0
    9.7190  -17.4377   25.7820 N   0  0  0  0  0  0  0  0  0  0  0  0
   10.3286  -18.6414   27.7252 C   0  0  0  0  0  0  0  0  0  0  0  0
   11.3054  -19.4104   28.3486 O   0  0  0  0  0  0  0  0  0  0  0  0
    9.1402  -19.0150   27.9066 O   0  0  0  0  0  0  0  0  0  0  0  0
  2  1  1  6
  3  2  1  0
  4  2  1  0
  4  5  1  0
  5  6  1  1
  7  5  1  0
  7  8  2  0
  9 10  1  0
 11 10  1  0
 11 12  1  0
 13 12  1  1
 13 14  1  0
 14  7  1  0
 15 13  1  0
 16 15  2  0
 18 17  1  0
 19 18  1  0
 20 19  1  0
 21 20  1  1
 21 22  1  0
 22 15  1  0
 23 21  1  0
 24 23  1  0
 25 23  2  0
M  END
$$$$
