LMM.pdb
     RDKit          3D

 25 24  0  0  1  0  0  0  0  0999 V2000
    4.8374  -20.4638   24.2473 C   0  0  0  0  0  0  0  0  0  0  0  0
    6.2332  -20.8526   24.6030 C   0  0  2  0  0  0  0  0  0  0  0  0
    6.3885  -20.9306   26.0841 C   0  0  0  0  0  0  0  0  0  0  0  0
    7.2892  -20.0052   23.9395 C   0  0  0  0  0  0  0  0  0  0  0  0
    7.0294  -19.7946   22.4669 C   0  0  2  0  0  0  0  0  0  0  0  0
    7.2326  -20.9934   21.7036 N   0  0  0  0  0  0  0  0  0  0  0  0
    7.9147  -18.6829   22.0294 C   0  0  0  0  0  0  0  0  0  0  0  0
    9.1301  -18.9495   21.8316 O   0  0  0  0  0  0  0  0  0  0  0  0
    6.5967  -11.7264   20.8004 C   0  0  0  0  0  0  0  0  0  0  0  0
    7.3444  -12.8341   19.5595 S   0  0  0  0  0  0  0  0  0  0  0  0
    8.4417  -14.0426   20.3544 C   0  0  0  0  0  0  0  0  0  0  0  0
    7.5819  -15.2006   20.7996 C   0  0  0  0  0  0  0  0  0  0  0  0
    8.4108  -16.2695   21.5097 C   0  0  2  0  0  0  0  0  0  0  0  0
    7.4999  -17.3550   21.8187 N   0  0  0  0  0  0  0  0  0  0  0  0
    9.0318  -15.7096   22.7422 C   0  0  0  0  0  0  0  0  0  0  0  0
    9.9779  -14.8755   22.6620 O   0  0  0  0  0  0  0  0  0  0  0  0
    6.5991  -11.0663   26.1441 C   0  0  0  0  0  0  0  0  0  0  0  0
    7.7274  -12.4073   26.5927 S   0  0  0  0  0  0  0  0  0  0  0  0
    7.2896  -13.9807   25.8707 C   0  0  0  0  0  0  0  0  0  0  0  0
    8.1386  -15.1381   26.2574 C   0  0  0  0  0  0  0  0  0  0  0  0
    9.1958  -15.5224   25.2676 C   0  0  2  0  0  0  0  0  0  0  0  0
    8.6095  -16.0694   24.0437 N   0  0  0  0  0  0  0  0  0  0  0  0
   10.1192  -16.5450   25.8019 C   0  0  0  0  0  0  0  0  0  0  0  0
   11.3564  -16.2166   26.3455 O   0  0  0  0  0  0  0  0  0  0  0  0
    9.8339  -17.7710   25.7930 O   0  0  0  0  0  0  0  0  0  0  0  0
  2  1  1  1
  3  2  1  0
  4  2  1  0
  4  5  1  0
  5  6  1  6
  7  5  1  0
  7  8  2  0
  9 10  1  0
 11 10  1  0
 11 12  1  0
 13 12  1  1
 13 14  1  0
 14  7  1  0
 15 13  1  0
 16 15  2  0
 18 17  1  0
 19 18  1  0
 20 19  1  0
 21 20  1  1
 21 22  1  0
 22 15  1  0
 23 21  1  0
 24 23  1  0
 25 23  2  0
M  END
$$$$
