LMM.pdb
     RDKit          3D

 25 24  0  0  1  0  0  0  0  0999 V2000
    8.3235  -12.8723   18.3465 C   0  0  0  0  0  0  0  0  0  0  0  0
    8.1338  -13.6596   19.5997 C   0  0  2  0  0  0  0  0  0  0  0  0
    7.8046  -12.7530   20.7370 C   0  0  0  0  0  0  0  0  0  0  0  0
    9.2694  -14.6039   19.9032 C   0  0  0  0  0  0  0  0  0  0  0  0
    8.8443  -15.7729   20.7595 C   0  0  2  0  0  0  0  0  0  0  0  0
    7.4617  -16.1096   20.5697 N   0  0  0  0  0  0  0  0  0  0  0  0
    9.1547  -15.4092   22.1674 C   0  0  0  0  0  0  0  0  0  0  0  0
   10.3555  -15.1555   22.4525 O   0  0  0  0  0  0  0  0  0  0  0  0
    5.2925  -12.1869   26.3557 C   0  0  0  0  0  0  0  0  0  0  0  0
    7.0313  -12.0779   26.8947 S   0  0  0  0  0  0  0  0  0  0  0  0
    7.9169  -13.6191   26.5249 C   0  0  0  0  0  0  0  0  0  0  0  0
    7.6799  -13.9311   25.0672 C   0  0  0  0  0  0  0  0  0  0  0  0
    8.5625  -15.0844   24.5933 C   0  0  2  0  0  0  0  0  0  0  0  0
    8.2103  -15.3260   23.2073 N   0  0  0  0  0  0  0  0  0  0  0  0
    8.3325  -16.2921   25.4341 C   0  0  0  0  0  0  0  0  0  0  0  0
    7.4560  -17.1427   25.1092 O   0  0  0  0  0  0  0  0  0  0  0  0
   12.3629  -19.2348   22.8172 C   0  0  0  0  0  0  0  0  0  0  0  0
   13.1742  -18.8924   24.3974 S   0  0  0  0  0  0  0  0  0  0  0  0
   12.0390  -18.7624   25.7697 C   0  0  0  0  0  0  0  0  0  0  0  0
   11.0148  -17.6893   25.6734 C   0  0  0  0  0  0  0  0  0  0  0  0
    9.9917  -17.6733   26.7678 C   0  0  2  0  0  0  0  0  0  0  0  0
    9.0638  -16.5521   26.6169 N   0  0  0  0  0  0  0  0  0  0  0  0
   10.6047  -17.5530   28.1070 C   0  0  0  0  0  0  0  0  0  0  0  0
   10.7502  -18.6435   28.9577 O   0  0  0  0  0  0  0  0  0  0  0  0
   11.0288  -16.4536   28.5500 O   0  0  0  0  0  0  0  0  0  0  0  0
  2  1  1  6
  3  2  1  0
  4  2  1  0
  4  5  1  0
  5  6  1  1
  7  5  1  0
  7  8  2  0
  9 10  1  0
 11 10  1  0
 11 12  1  0
 13 12  1  1
 13 14  1  0
 14  7  1  0
 15 13  1  0
 16 15  2  0
 18 17  1  0
 19 18  1  0
 20 19  1  0
 21 20  1  6
 21 22  1  0
 22 15  1  0
 23 21  1  0
 24 23  1  0
 25 23  2  0
M  END
$$$$
