LMM.pdb
     RDKit          3D

 25 24  0  0  1  0  0  0  0  0999 V2000
    8.8203  -18.1024   16.8027 C   0  0  0  0  0  0  0  0  0  0  0  0
    8.4752  -18.4459   18.2130 C   0  0  2  0  0  0  0  0  0  0  0  0
    7.0568  -18.8969   18.3049 C   0  0  0  0  0  0  0  0  0  0  0  0
    8.8192  -17.3636   19.2049 C   0  0  0  0  0  0  0  0  0  0  0  0
    8.6328  -17.8032   20.6375 C   0  0  2  0  0  0  0  0  0  0  0  0
    7.3154  -18.3202   20.8790 N   0  0  0  0  0  0  0  0  0  0  0  0
    8.9497  -16.6282   21.4919 C   0  0  0  0  0  0  0  0  0  0  0  0
   10.0788  -16.0886   21.3449 O   0  0  0  0  0  0  0  0  0  0  0  0
    7.4915  -12.6153   26.7545 C   0  0  0  0  0  0  0  0  0  0  0  0
    6.1911  -12.5005   25.4811 S   0  0  0  0  0  0  0  0  0  0  0  0
    6.8147  -13.0657   23.8724 C   0  0  0  0  0  0  0  0  0  0  0  0
    7.1438  -14.5322   24.0117 C   0  0  0  0  0  0  0  0  0  0  0  0
    8.4096  -14.8955   23.2374 C   0  0  2  0  0  0  0  0  0  0  0  0
    8.0857  -16.0714   22.4528 N   0  0  0  0  0  0  0  0  0  0  0  0
    9.5344  -15.1587   24.1776 C   0  0  0  0  0  0  0  0  0  0  0  0
   10.4108  -14.2740   24.3933 O   0  0  0  0  0  0  0  0  0  0  0  0
   10.8045  -14.2164   30.0815 C   0  0  0  0  0  0  0  0  0  0  0  0
    9.6508  -13.8717   28.7313 S   0  0  0  0  0  0  0  0  0  0  0  0
   10.1452  -14.5835   27.1701 C   0  0  0  0  0  0  0  0  0  0  0  0
   10.4259  -16.0434   27.1752 C   0  0  0  0  0  0  0  0  0  0  0  0
   10.7465  -16.6438   25.8404 C   0  0  2  0  0  0  0  0  0  0  0  0
    9.6845  -16.3845   24.8678 N   0  0  0  0  0  0  0  0  0  0  0  0
   10.9218  -18.1093   25.9121 C   0  0  0  0  0  0  0  0  0  0  0  0
   12.0024  -18.6970   26.5610 O   0  0  0  0  0  0  0  0  0  0  0  0
   10.0998  -18.9057   25.3879 O   0  0  0  0  0  0  0  0  0  0  0  0
  2  1  1  6
  3  2  1  0
  4  2  1  0
  4  5  1  0
  5  6  1  6
  7  5  1  0
  7  8  2  0
  9 10  1  0
 11 10  1  0
 11 12  1  0
 13 12  1  1
 13 14  1  0
 14  7  1  0
 15 13  1  0
 16 15  2  0
 18 17  1  0
 19 18  1  0
 20 19  1  0
 21 20  1  1
 21 22  1  0
 22 15  1  0
 23 21  1  0
 24 23  1  0
 25 23  2  0
M  END
$$$$
