LMM.pdb
     RDKit          3D

 25 24  0  0  1  0  0  0  0  0999 V2000
    8.7744  -14.5872   17.0639 C   0  0  0  0  0  0  0  0  0  0  0  0
    8.1052  -15.3287   18.1722 C   0  0  2  0  0  0  0  0  0  0  0  0
    6.6467  -15.4697   17.8957 C   0  0  0  0  0  0  0  0  0  0  0  0
    8.3981  -14.7706   19.5420 C   0  0  0  0  0  0  0  0  0  0  0  0
    8.4835  -15.8414   20.6034 C   0  0  2  0  0  0  0  0  0  0  0  0
    7.2229  -16.4942   20.8175 N   0  0  0  0  0  0  0  0  0  0  0  0
    9.0028  -15.1866   21.8332 C   0  0  0  0  0  0  0  0  0  0  0  0
   10.1497  -14.6680   21.7772 O   0  0  0  0  0  0  0  0  0  0  0  0
    5.4386  -11.4422   26.0864 C   0  0  0  0  0  0  0  0  0  0  0  0
    6.3320  -12.7107   27.0448 S   0  0  0  0  0  0  0  0  0  0  0  0
    7.8900  -13.1564   26.2261 C   0  0  0  0  0  0  0  0  0  0  0  0
    7.5369  -13.9922   25.0198 C   0  0  0  0  0  0  0  0  0  0  0  0
    8.7746  -14.3177   24.1856 C   0  0  2  0  0  0  0  0  0  0  0  0
    8.3120  -15.1010   23.0560 N   0  0  0  0  0  0  0  0  0  0  0  0
    9.7669  -15.0701   25.0026 C   0  0  0  0  0  0  0  0  0  0  0  0
   10.6057  -14.4547   25.7204 O   0  0  0  0  0  0  0  0  0  0  0  0
    9.3863  -14.0226   28.5427 C   0  0  0  0  0  0  0  0  0  0  0  0
   11.0114  -14.6752   28.9967 S   0  0  0  0  0  0  0  0  0  0  0  0
   11.5113  -16.0868   28.0241 C   0  0  0  0  0  0  0  0  0  0  0  0
   10.4177  -16.8520   27.3696 C   0  0  0  0  0  0  0  0  0  0  0  0
   10.6683  -17.2466   25.9461 C   0  0  2  0  0  0  0  0  0  0  0  0
    9.8276  -16.4834   25.0231 N   0  0  0  0  0  0  0  0  0  0  0  0
   10.3916  -18.6778   25.7037 C   0  0  0  0  0  0  0  0  0  0  0  0
   11.1565  -19.6891   26.2750 O   0  0  0  0  0  0  0  0  0  0  0  0
    9.4460  -19.0585   24.9649 O   0  0  0  0  0  0  0  0  0  0  0  0
  2  1  1  6
  3  2  1  0
  4  2  1  0
  4  5  1  0
  5  6  1  1
  7  5  1  0
  7  8  2  0
  9 10  1  0
 11 10  1  0
 11 12  1  0
 13 12  1  1
 13 14  1  0
 14  7  1  0
 15 13  1  0
 16 15  2  0
 18 17  1  0
 19 18  1  0
 20 19  1  0
 21 20  1  1
 21 22  1  0
 22 15  1  0
 23 21  1  0
 24 23  1  0
 25 23  2  0
M  END
$$$$
