QRP.pdb
     RDKit          3D

 28 28  0  0  1  0  0  0  0  0999 V2000
   12.7315  -12.9971   20.1439 N   0  0  0  0  0  0  0  0  0  0  0  0
   12.3823  -14.3604   20.2794 C   0  0  0  0  0  0  0  0  0  0  0  0
   13.2653  -15.2047   20.5446 O   0  0  0  0  0  0  0  0  0  0  0  0
   10.9908  -14.7886   20.1108 C   0  0  0  0  0  0  0  0  0  0  0  0
   10.0884  -13.6166   19.7743 C   0  0  0  0  0  0  0  0  0  0  0  0
    8.6675  -14.1312   19.7493 C   0  0  2  0  0  0  0  0  0  0  0  0
    7.9080  -13.3561   18.8172 N   0  0  0  0  0  0  0  0  0  0  0  0
    8.0533  -14.2054   21.0934 C   0  0  0  0  0  0  0  0  0  0  0  0
    7.5126  -13.1775   21.5396 O   0  0  0  0  0  0  0  0  0  0  0  0
    6.2448  -20.3061   28.4780 N   0  0  0  0  0  0  0  0  0  0  0  0
    6.8630  -20.1199   27.2144 C   0  0  0  0  0  0  0  0  0  0  0  0
    7.4307  -21.0961   26.5984 N   0  0  0  0  0  0  0  0  0  0  0  0
    6.8391  -18.8258   26.6443 N   0  0  0  0  0  0  0  0  0  0  0  0
    7.3169  -18.6753   25.2645 C   0  0  0  0  0  0  0  0  0  0  0  0
    7.0895  -17.2353   24.8936 C   0  0  0  0  0  0  0  0  0  0  0  0
    7.5665  -17.0054   23.4850 C   0  0  0  0  0  0  0  0  0  0  0  0
    7.4541  -15.5063   23.1928 C   0  0  2  0  0  0  0  0  0  0  0  0
    8.0664  -15.3795   21.8578 N   0  0  0  0  0  0  0  0  0  0  0  0
    8.4016  -14.8571   24.1478 C   0  0  0  0  0  0  0  0  0  0  0  0
    9.6157  -15.2201   24.0644 O   0  0  0  0  0  0  0  0  0  0  0  0
    7.9300  -20.9247   25.6966 N   0  0  0  0  0  0  0  0  0  0  0  0
    8.0089  -13.8848   25.1068 C   0  0  0  0  0  0  0  0  0  0  0  0
    6.6424  -13.3592   25.1499 C   0  0  0  0  0  0  0  0  0  0  0  0
    6.5605  -12.6183   26.4664 C   0  0  0  0  0  0  0  0  0  0  0  0
    7.9819  -12.0559   26.5427 C   0  0  2  0  0  0  0  0  0  0  0  0
    8.7786  -13.2964   26.1479 C   0  0  0  0  0  0  0  0  0  0  0  0
    8.7515  -14.1856   27.3498 O   0  0  0  0  0  0  0  0  0  0  0  0
    9.4741  -13.8560   28.3204 O   0  0  0  0  0  0  0  0  0  0  0  0
  2  1  1  0
  3  2  2  0
  4  2  1  0
  5  4  1  0
  6  5  1  0
  6  7  1  6
  8 18  1  0
  8  6  1  0
  9  8  2  0
 10 11  1  0
 11 12  2  0
 11 13  1  0
 13 14  1  0
 15 14  1  0
 17 16  1  1
 16 15  1  0
 17 18  1  0
 19 17  1  0
 20 19  2  0
 21 22  1  0
 21 19  1  0
 23 22  1  0
 24 25  1  0
 24 23  1  0
 25 21  1  0
 26 28  1  0
 25 26  1  1
 27 26  2  0
M  END
$$$$
