QRP.pdb
     RDKit          3D

 28 28  0  0  1  0  0  0  0  0999 V2000
    7.8835  -12.1124   18.0041 N   0  0  0  0  0  0  0  0  0  0  0  0
    8.2563  -13.2346   17.2292 C   0  0  0  0  0  0  0  0  0  0  0  0
    8.9031  -13.0725   16.1718 O   0  0  0  0  0  0  0  0  0  0  0  0
    7.8886  -14.5865   17.6594 C   0  0  0  0  0  0  0  0  0  0  0  0
    7.1041  -14.5598   18.9575 C   0  0  0  0  0  0  0  0  0  0  0  0
    8.0898  -14.7523   20.0868 C   0  0  2  0  0  0  0  0  0  0  0  0
    8.8868  -15.9091   19.8171 N   0  0  0  0  0  0  0  0  0  0  0  0
    7.4479  -14.7759   21.4198 C   0  0  0  0  0  0  0  0  0  0  0  0
    6.6224  -13.8822   21.6800 O   0  0  0  0  0  0  0  0  0  0  0  0
    7.4949  -21.3020   27.4155 N   0  0  0  0  0  0  0  0  0  0  0  0
    7.3673  -20.0163   28.0023 C   0  0  0  0  0  0  0  0  0  0  0  0
    7.8889  -19.7503   29.1477 N   0  0  0  0  0  0  0  0  0  0  0  0
    6.6483  -19.0271   27.2918 N   0  0  0  0  0  0  0  0  0  0  0  0
    6.8501  -18.9426   25.8402 C   0  0  0  0  0  0  0  0  0  0  0  0
    6.8933  -17.4769   25.5046 C   0  0  0  0  0  0  0  0  0  0  0  0
    7.1096  -17.3139   24.0243 C   0  0  0  0  0  0  0  0  0  0  0  0
    7.1421  -15.8135   23.7196 C   0  0  2  0  0  0  0  0  0  0  0  0
    7.7418  -15.7589   22.3740 N   0  0  0  0  0  0  0  0  0  0  0  0
    8.1652  -15.2543   24.6534 C   0  0  0  0  0  0  0  0  0  0  0  0
    9.3564  -15.6615   24.4862 O   0  0  0  0  0  0  0  0  0  0  0  0
    7.9086  -18.7654   29.4964 N   0  0  0  0  0  0  0  0  0  0  0  0
    7.8654  -14.3185   25.6799 C   0  0  0  0  0  0  0  0  0  0  0  0
    6.4892  -13.9027   25.9597 C   0  0  0  0  0  0  0  0  0  0  0  0
    6.5728  -13.1740   27.2828 C   0  0  0  0  0  0  0  0  0  0  0  0
    7.9389  -12.5012   27.1288 C   0  0  2  0  0  0  0  0  0  0  0  0
    8.7514  -13.6739   26.5864 C   0  0  0  0  0  0  0  0  0  0  0  0
    8.9960  -14.5655   27.7617 O   0  0  0  0  0  0  0  0  0  0  0  0
    8.2649  -15.5786   27.8719 O   0  0  0  0  0  0  0  0  0  0  0  0
  2  1  1  0
  3  2  2  0
  4  2  1  0
  5  4  1  0
  6  5  1  0
  6  7  1  6
  8 18  1  0
  8  6  1  0
  9  8  2  0
 10 11  1  0
 11 12  2  0
 11 13  1  0
 13 14  1  0
 15 14  1  0
 17 16  1  1
 16 15  1  0
 17 18  1  0
 19 17  1  0
 20 19  2  0
 21 22  1  0
 21 19  1  0
 23 22  1  0
 24 25  1  0
 24 23  1  0
 25 21  1  0
 26 28  1  0
 25 26  1  1
 27 26  2  0
M  END
$$$$
