QRP.pdb
     RDKit          3D

 28 28  0  0  1  0  0  0  0  0999 V2000
   13.5265  -19.1706   24.0245 N   0  0  0  0  0  0  0  0  0  0  0  0
   13.9625  -17.9165   23.5386 C   0  0  0  0  0  0  0  0  0  0  0  0
   15.1069  -17.5030   23.8247 O   0  0  0  0  0  0  0  0  0  0  0  0
   13.0797  -17.0994   22.7014 C   0  0  0  0  0  0  0  0  0  0  0  0
   11.8298  -17.8628   22.3060 C   0  0  0  0  0  0  0  0  0  0  0  0
   10.9801  -16.9372   21.4660 C   0  0  2  0  0  0  0  0  0  0  0  0
   11.7269  -16.5376   20.3132 N   0  0  0  0  0  0  0  0  0  0  0  0
   10.4273  -15.7997   22.2342 C   0  0  0  0  0  0  0  0  0  0  0  0
   11.2143  -15.1386   22.9353 O   0  0  0  0  0  0  0  0  0  0  0  0
    9.8947  -14.3443   18.8115 N   0  0  0  0  0  0  0  0  0  0  0  0
    8.7718  -13.8781   18.0798 C   0  0  0  0  0  0  0  0  0  0  0  0
    8.7018  -14.0184   16.8030 N   0  0  0  0  0  0  0  0  0  0  0  0
    7.7238  -13.2518   18.7936 N   0  0  0  0  0  0  0  0  0  0  0  0
    7.8607  -13.1345   20.2504 C   0  0  0  0  0  0  0  0  0  0  0  0
    7.2426  -14.3757   20.8338 C   0  0  0  0  0  0  0  0  0  0  0  0
    7.0846  -14.1987   22.3198 C   0  0  0  0  0  0  0  0  0  0  0  0
    8.4683  -14.3516   22.9580 C   0  0  2  0  0  0  0  0  0  0  0  0
    9.0691  -15.4581   22.1914 N   0  0  0  0  0  0  0  0  0  0  0  0
    8.2026  -14.8900   24.3258 C   0  0  0  0  0  0  0  0  0  0  0  0
    8.4377  -16.1264   24.4953 O   0  0  0  0  0  0  0  0  0  0  0  0
    7.8903  -13.6212   16.2779 N   0  0  0  0  0  0  0  0  0  0  0  0
    7.7176  -14.0990   25.4021 C   0  0  0  0  0  0  0  0  0  0  0  0
    7.1776  -12.7552   25.1830 C   0  0  0  0  0  0  0  0  0  0  0  0
    6.5014  -12.3987   26.4884 C   0  0  0  0  0  0  0  0  0  0  0  0
    7.4547  -13.0778   27.4747 C   0  0  1  0  0  0  0  0  0  0  0  0
    7.6332  -14.4267   26.7833 C   0  0  0  0  0  0  0  0  0  0  0  0
    6.3650  -15.1762   27.0401 O   0  0  0  0  0  0  0  0  0  0  0  0
    5.5055  -15.1743   26.1268 O   0  0  0  0  0  0  0  0  0  0  0  0
  2  1  1  0
  3  2  2  0
  4  2  1  0
  5  4  1  0
  6  5  1  0
  6  7  1  6
  8 18  1  0
  8  6  1  0
  9  8  2  0
 10 11  1  0
 11 12  2  0
 11 13  1  0
 13 14  1  0
 15 14  1  0
 17 16  1  6
 16 15  1  0
 17 18  1  0
 19 17  1  0
 20 19  2  0
 21 22  1  0
 21 19  1  0
 23 22  1  0
 24 25  1  0
 24 23  1  0
 25 21  1  0
 26 28  1  0
 25 26  1  1
 27 26  2  0
M  END
$$$$
