QRP.pdb
     RDKit          3D

 28 28  0  0  1  0  0  0  0  0999 V2000
    8.7217  -12.6547   17.4392 N   0  0  0  0  0  0  0  0  0  0  0  0
    8.6168  -14.0535   17.2628 C   0  0  0  0  0  0  0  0  0  0  0  0
    8.9689  -14.5715   16.1809 O   0  0  0  0  0  0  0  0  0  0  0  0
    8.0975  -14.8989   18.3415 C   0  0  0  0  0  0  0  0  0  0  0  0
    7.6771  -14.0699   19.5403 C   0  0  0  0  0  0  0  0  0  0  0  0
    8.5015  -14.5292   20.7207 C   0  0  2  0  0  0  0  0  0  0  0  0
    9.1177  -15.7797   20.3999 N   0  0  0  0  0  0  0  0  0  0  0  0
    7.7371  -14.5561   21.9874 C   0  0  0  0  0  0  0  0  0  0  0  0
    7.0259  -13.5708   22.2545 O   0  0  0  0  0  0  0  0  0  0  0  0
    7.6995  -19.8962   21.4534 N   0  0  0  0  0  0  0  0  0  0  0  0
    6.3594  -20.3027   21.6827 C   0  0  0  0  0  0  0  0  0  0  0  0
    5.6518  -20.8291   20.7463 N   0  0  0  0  0  0  0  0  0  0  0  0
    5.8171  -20.1143   22.9753 N   0  0  0  0  0  0  0  0  0  0  0  0
    6.6296  -19.3912   23.9611 C   0  0  0  0  0  0  0  0  0  0  0  0
    6.5113  -17.9316   23.6166 C   0  0  0  0  0  0  0  0  0  0  0  0
    7.2756  -17.1206   24.6280 C   0  0  0  0  0  0  0  0  0  0  0  0
    7.1821  -15.6493   24.2135 C   0  0  2  0  0  0  0  0  0  0  0  0
    7.7947  -15.6405   22.8727 N   0  0  0  0  0  0  0  0  0  0  0  0
    8.1387  -14.9360   25.1121 C   0  0  0  0  0  0  0  0  0  0  0  0
    9.3687  -15.2046   24.9451 O   0  0  0  0  0  0  0  0  0  0  0  0
    4.6603  -21.1020   20.9318 N   0  0  0  0  0  0  0  0  0  0  0  0
    7.7378  -14.0030   26.1060 C   0  0  0  0  0  0  0  0  0  0  0  0
    6.3251  -13.7043   26.3514 C   0  0  0  0  0  0  0  0  0  0  0  0
    6.3188  -12.9351   27.6540 C   0  0  0  0  0  0  0  0  0  0  0  0
    7.6224  -12.1473   27.5026 C   0  0  1  0  0  0  0  0  0  0  0  0
    8.5459  -13.2571   27.0077 C   0  0  0  0  0  0  0  0  0  0  0  0
    8.8468  -14.0907   28.2121 O   0  0  0  0  0  0  0  0  0  0  0  0
    8.2203  -15.1707   28.3301 O   0  0  0  0  0  0  0  0  0  0  0  0
  2  1  1  0
  3  2  2  0
  4  2  1  0
  5  4  1  0
  6  5  1  0
  6  7  1  6
  8 18  1  0
  8  6  1  0
  9  8  2  0
 10 11  1  0
 11 12  2  0
 11 13  1  0
 13 14  1  0
 15 14  1  0
 17 16  1  1
 16 15  1  0
 17 18  1  0
 19 17  1  0
 20 19  2  0
 21 22  1  0
 21 19  1  0
 23 22  1  0
 24 25  1  0
 24 23  1  0
 25 21  1  0
 26 28  1  0
 25 26  1  1
 27 26  2  0
M  END
$$$$
