QRP.pdb
     RDKit          3D

 28 28  0  0  1  0  0  0  0  0999 V2000
    8.0215  -12.0854   16.9708 N   0  0  0  0  0  0  0  0  0  0  0  0
    8.3036  -13.4484   16.7230 C   0  0  0  0  0  0  0  0  0  0  0  0
    8.5729  -13.8262   15.5622 O   0  0  0  0  0  0  0  0  0  0  0  0
    8.2818  -14.4203   17.8198 C   0  0  0  0  0  0  0  0  0  0  0  0
    7.8654  -13.7710   19.1260 C   0  0  0  0  0  0  0  0  0  0  0  0
    8.6602  -14.4266   20.2317 C   0  0  2  0  0  0  0  0  0  0  0  0
    9.0979  -15.7148   19.7897 N   0  0  0  0  0  0  0  0  0  0  0  0
    7.9394  -14.4598   21.5236 C   0  0  0  0  0  0  0  0  0  0  0  0
    7.5897  -13.3733   22.0186 O   0  0  0  0  0  0  0  0  0  0  0  0
    6.9938  -21.4131   26.7919 N   0  0  0  0  0  0  0  0  0  0  0  0
    6.8108  -20.3024   27.6559 C   0  0  0  0  0  0  0  0  0  0  0  0
    6.7076  -20.4566   28.9288 N   0  0  0  0  0  0  0  0  0  0  0  0
    6.7450  -19.0126   27.0794 N   0  0  0  0  0  0  0  0  0  0  0  0
    6.8240  -18.9101   25.6172 C   0  0  0  0  0  0  0  0  0  0  0  0
    6.7800  -17.4416   25.2939 C   0  0  0  0  0  0  0  0  0  0  0  0
    7.0964  -17.2459   23.8358 C   0  0  0  0  0  0  0  0  0  0  0  0
    7.1229  -15.7394   23.5619 C   0  0  2  0  0  0  0  0  0  0  0  0
    7.6485  -15.6591   22.1870 N   0  0  0  0  0  0  0  0  0  0  0  0
    8.1995  -15.2068   24.4500 C   0  0  0  0  0  0  0  0  0  0  0  0
    9.3482  -15.7303   24.3116 O   0  0  0  0  0  0  0  0  0  0  0  0
    6.5712  -19.6245   29.5461 N   0  0  0  0  0  0  0  0  0  0  0  0
    7.9929  -14.1748   25.4047 C   0  0  0  0  0  0  0  0  0  0  0  0
    6.7072  -13.4826   25.5189 C   0  0  0  0  0  0  0  0  0  0  0  0
    6.8032  -12.7119   26.8171 C   0  0  0  0  0  0  0  0  0  0  0  0
    8.2850  -12.3292   26.7889 C   0  0  2  0  0  0  0  0  0  0  0  0
    8.8955  -13.6666   26.3791 C   0  0  0  0  0  0  0  0  0  0  0  0
    8.8382  -14.5221   27.6043 O   0  0  0  0  0  0  0  0  0  0  0  0
    7.9336  -15.3894   27.6534 O   0  0  0  0  0  0  0  0  0  0  0  0
  2  1  1  0
  3  2  2  0
  4  2  1  0
  5  4  1  0
  6  5  1  0
  6  7  1  6
  8 18  1  0
  8  6  1  0
  9  8  2  0
 10 11  1  0
 11 12  2  0
 11 13  1  0
 13 14  1  0
 15 14  1  0
 17 16  1  1
 16 15  1  0
 17 18  1  0
 19 17  1  0
 20 19  2  0
 21 22  1  0
 21 19  1  0
 23 22  1  0
 24 25  1  0
 24 23  1  0
 25 21  1  0
 26 28  1  0
 25 26  1  1
 27 26  2  0
M  END
$$$$
