QRP.pdb
     RDKit          3D

 28 28  0  0  1  0  0  0  0  0999 V2000
   10.7367  -20.1321   29.6358 N   0  0  0  0  0  0  0  0  0  0  0  0
   11.5227  -20.2842   28.4705 C   0  0  0  0  0  0  0  0  0  0  0  0
   12.7537  -20.4770   28.5720 O   0  0  0  0  0  0  0  0  0  0  0  0
   10.9018  -20.2170   27.1447 C   0  0  0  0  0  0  0  0  0  0  0  0
    9.4015  -20.0170   27.2460 C   0  0  0  0  0  0  0  0  0  0  0  0
    8.9630  -19.2479   26.0211 C   0  0  2  0  0  0  0  0  0  0  0  0
    9.5401  -19.8527   24.8603 N   0  0  0  0  0  0  0  0  0  0  0  0
    9.2267  -17.7954   26.1224 C   0  0  0  0  0  0  0  0  0  0  0  0
    9.7368  -17.3725   27.1755 O   0  0  0  0  0  0  0  0  0  0  0  0
    8.7944  -14.1506   18.4000 N   0  0  0  0  0  0  0  0  0  0  0  0
    8.1256  -13.4622   19.4451 C   0  0  0  0  0  0  0  0  0  0  0  0
    7.6934  -12.2614   19.2841 N   0  0  0  0  0  0  0  0  0  0  0  0
    7.9438  -14.1335   20.6766 N   0  0  0  0  0  0  0  0  0  0  0  0
    9.1181  -14.3147   21.5387 C   0  0  0  0  0  0  0  0  0  0  0  0
    8.6245  -14.9931   22.7873 C   0  0  0  0  0  0  0  0  0  0  0  0
    9.7737  -15.1686   23.7429 C   0  0  0  0  0  0  0  0  0  0  0  0
    9.1889  -15.4567   25.1286 C   0  0  2  0  0  0  0  0  0  0  0  0
    8.9221  -16.9058   25.0837 N   0  0  0  0  0  0  0  0  0  0  0  0
    7.8531  -14.7881   25.1279 C   0  0  0  0  0  0  0  0  0  0  0  0
    6.9253  -15.3935   24.5071 O   0  0  0  0  0  0  0  0  0  0  0  0
    7.2112  -11.7702   20.0704 N   0  0  0  0  0  0  0  0  0  0  0  0
    7.5933  -13.5491   25.7734 C   0  0  0  0  0  0  0  0  0  0  0  0
    8.6762  -12.7263   26.3171 C   0  0  0  0  0  0  0  0  0  0  0  0
    8.0272  -11.3936   26.6195 C   0  0  0  0  0  0  0  0  0  0  0  0
    6.6440  -11.8689   27.0708 C   0  0  2  0  0  0  0  0  0  0  0  0
    6.3479  -12.8942   25.9798 C   0  0  0  0  0  0  0  0  0  0  0  0
    5.9997  -12.0937   24.7657 O   0  0  0  0  0  0  0  0  0  0  0  0
    6.8717  -12.0084   23.8684 O   0  0  0  0  0  0  0  0  0  0  0  0
  2  1  1  0
  3  2  2  0
  4  2  1  0
  5  4  1  0
  6  5  1  0
  6  7  1  6
  8 18  1  0
  8  6  1  0
  9  8  2  0
 10 11  1  0
 11 12  2  0
 11 13  1  0
 13 14  1  0
 15 14  1  0
 17 16  1  6
 16 15  1  0
 17 18  1  0
 19 17  1  0
 20 19  2  0
 21 22  1  0
 21 19  1  0
 23 22  1  0
 24 25  1  0
 24 23  1  0
 25 21  1  0
 26 28  1  0
 25 26  1  6
 27 26  2  0
M  END
$$$$
