QRP.pdb
     RDKit          3D

 28 28  0  0  1  0  0  0  0  0999 V2000
   10.5874  -13.2839   19.7237 N   0  0  0  0  0  0  0  0  0  0  0  0
    9.8094  -13.1180   18.5549 C   0  0  0  0  0  0  0  0  0  0  0  0
   10.3712  -13.0313   17.4415 O   0  0  0  0  0  0  0  0  0  0  0  0
    8.3481  -13.0472   18.6421 C   0  0  0  0  0  0  0  0  0  0  0  0
    7.8717  -13.1935   20.0749 C   0  0  0  0  0  0  0  0  0  0  0  0
    7.7403  -14.6719   20.3602 C   0  0  2  0  0  0  0  0  0  0  0  0
    6.9756  -15.2814   19.3161 N   0  0  0  0  0  0  0  0  0  0  0  0
    7.2205  -14.9575   21.7158 C   0  0  0  0  0  0  0  0  0  0  0  0
    6.0323  -14.6734   21.9511 O   0  0  0  0  0  0  0  0  0  0  0  0
    7.3391  -19.6544   28.5774 N   0  0  0  0  0  0  0  0  0  0  0  0
    6.7228  -20.1986   27.4208 C   0  0  0  0  0  0  0  0  0  0  0  0
    5.7382  -21.0212   27.5133 N   0  0  0  0  0  0  0  0  0  0  0  0
    7.2206  -19.8114   26.1549 N   0  0  0  0  0  0  0  0  0  0  0  0
    8.3468  -18.8705   26.1194 C   0  0  0  0  0  0  0  0  0  0  0  0
    7.7603  -17.5218   25.8034 C   0  0  0  0  0  0  0  0  0  0  0  0
    7.9438  -17.2330   24.3379 C   0  0  0  0  0  0  0  0  0  0  0  0
    7.5647  -15.7685   24.0996 C   0  0  2  0  0  0  0  0  0  0  0  0
    8.0174  -15.5271   22.7176 N   0  0  0  0  0  0  0  0  0  0  0  0
    8.4832  -14.9862   24.9803 C   0  0  0  0  0  0  0  0  0  0  0  0
    9.7201  -15.2550   24.8771 O   0  0  0  0  0  0  0  0  0  0  0  0
    5.3263  -21.4417   26.6499 N   0  0  0  0  0  0  0  0  0  0  0  0
    8.0403  -13.9899   25.8916 C   0  0  0  0  0  0  0  0  0  0  0  0
    6.6459  -13.5425   25.9196 C   0  0  0  0  0  0  0  0  0  0  0  0
    6.5286  -12.7406   27.1970 C   0  0  0  0  0  0  0  0  0  0  0  0
    7.9154  -12.0939   27.2321 C   0  0  2  0  0  0  0  0  0  0  0  0
    8.7804  -13.3051   26.8944 C   0  0  0  0  0  0  0  0  0  0  0  0
    8.8120  -14.1311   28.1405 O   0  0  0  0  0  0  0  0  0  0  0  0
    8.0335  -15.1129   28.1947 O   0  0  0  0  0  0  0  0  0  0  0  0
  2  1  1  0
  3  2  2  0
  4  2  1  0
  5  4  1  0
  6  5  1  0
  6  7  1  6
  8 18  1  0
  8  6  1  0
  9  8  2  0
 10 11  1  0
 11 12  2  0
 11 13  1  0
 13 14  1  0
 15 14  1  0
 17 16  1  1
 16 15  1  0
 17 18  1  0
 19 17  1  0
 20 19  2  0
 21 22  1  0
 21 19  1  0
 23 22  1  0
 24 25  1  0
 24 23  1  0
 25 21  1  0
 26 28  1  0
 25 26  1  1
 27 26  2  0
M  END
$$$$
