QRP.pdb
     RDKit          3D

 28 28  0  0  1  0  0  0  0  0999 V2000
    8.6876  -13.7466   17.1787 N   0  0  0  0  0  0  0  0  0  0  0  0
    9.3739  -14.9684   16.9911 C   0  0  0  0  0  0  0  0  0  0  0  0
    9.4309  -15.4806   15.8522 O   0  0  0  0  0  0  0  0  0  0  0  0
   10.0186  -15.6370   18.1248 C   0  0  0  0  0  0  0  0  0  0  0  0
    9.9203  -14.8027   19.3879 C   0  0  0  0  0  0  0  0  0  0  0  0
   10.6273  -15.5606   20.4879 C   0  0  2  0  0  0  0  0  0  0  0  0
   10.3000  -16.9491   20.3813 N   0  0  0  0  0  0  0  0  0  0  0  0
   10.3784  -14.9974   21.8334 C   0  0  0  0  0  0  0  0  0  0  0  0
   10.7231  -13.8200   22.0402 O   0  0  0  0  0  0  0  0  0  0  0  0
    5.2507  -13.1681   27.6171 N   0  0  0  0  0  0  0  0  0  0  0  0
    5.7766  -12.3553   26.5796 C   0  0  0  0  0  0  0  0  0  0  0  0
    5.9244  -11.0869   26.7351 N   0  0  0  0  0  0  0  0  0  0  0  0
    6.1376  -12.9780   25.3622 N   0  0  0  0  0  0  0  0  0  0  0  0
    5.9594  -14.4313   25.2562 C   0  0  0  0  0  0  0  0  0  0  0  0
    7.3101  -15.0420   25.5125 C   0  0  0  0  0  0  0  0  0  0  0  0
    7.8657  -15.5756   24.2197 C   0  0  0  0  0  0  0  0  0  0  0  0
    9.3430  -15.1785   24.1473 C   0  0  2  0  0  0  0  0  0  0  0  0
    9.7774  -15.7426   22.8564 N   0  0  0  0  0  0  0  0  0  0  0  0
   10.0121  -15.9953   25.2039 C   0  0  0  0  0  0  0  0  0  0  0  0
   10.3760  -17.1627   24.8612 O   0  0  0  0  0  0  0  0  0  0  0  0
    6.3635  -10.5158   25.9781 N   0  0  0  0  0  0  0  0  0  0  0  0
   10.2487  -15.5302   26.5256 C   0  0  0  0  0  0  0  0  0  0  0  0
    9.6284  -14.3024   27.0286 C   0  0  0  0  0  0  0  0  0  0  0  0
    9.8722  -14.3360   28.5212 C   0  0  0  0  0  0  0  0  0  0  0  0
   11.2578  -14.9858   28.5487 C   0  0  1  0  0  0  0  0  0  0  0  0
   11.0376  -16.1200   27.5514 C   0  0  0  0  0  0  0  0  0  0  0  0
   10.2228  -17.1391   28.2818 O   0  0  0  0  0  0  0  0  0  0  0  0
    9.0099  -17.2272   27.9750 O   0  0  0  0  0  0  0  0  0  0  0  0
  2  1  1  0
  3  2  2  0
  4  2  1  0
  5  4  1  0
  6  5  1  0
  6  7  1  1
  8 18  1  0
  8  6  1  0
  9  8  2  0
 10 11  1  0
 11 12  2  0
 11 13  1  0
 13 14  1  0
 15 14  1  0
 17 16  1  1
 16 15  1  0
 17 18  1  0
 19 17  1  0
 20 19  2  0
 21 22  1  0
 21 19  1  0
 23 22  1  0
 24 25  1  0
 24 23  1  0
 25 21  1  0
 26 28  1  0
 25 26  1  6
 27 26  2  0
M  END
$$$$
