QRP.pdb
     RDKit          3D

 28 28  0  0  1  0  0  0  0  0999 V2000
    8.9361  -20.6987   28.1643 N   0  0  0  0  0  0  0  0  0  0  0  0
    7.9902  -19.6775   27.9165 C   0  0  0  0  0  0  0  0  0  0  0  0
    7.2758  -19.2523   28.8500 O   0  0  0  0  0  0  0  0  0  0  0  0
    7.8434  -19.1150   26.5711 C   0  0  0  0  0  0  0  0  0  0  0  0
    8.7982  -19.7694   25.5907 C   0  0  0  0  0  0  0  0  0  0  0  0
    8.5551  -19.1452   24.2359 C   0  0  2  0  0  0  0  0  0  0  0  0
    9.3480  -19.8273   23.2600 N   0  0  0  0  0  0  0  0  0  0  0  0
    8.7461  -17.6779   24.2302 C   0  0  0  0  0  0  0  0  0  0  0  0
    9.8379  -17.2354   24.6300 O   0  0  0  0  0  0  0  0  0  0  0  0
    9.1032  -14.2597   16.7595 N   0  0  0  0  0  0  0  0  0  0  0  0
    8.4436  -13.7999   17.9287 C   0  0  0  0  0  0  0  0  0  0  0  0
    7.7846  -12.6951   17.9327 N   0  0  0  0  0  0  0  0  0  0  0  0
    8.5283  -14.5916   19.0975 N   0  0  0  0  0  0  0  0  0  0  0  0
    7.7317  -14.1840   20.2611 C   0  0  0  0  0  0  0  0  0  0  0  0
    8.0157  -15.1918   21.3412 C   0  0  0  0  0  0  0  0  0  0  0  0
    7.1257  -14.9155   22.5228 C   0  0  0  0  0  0  0  0  0  0  0  0
    7.8860  -15.3279   23.7866 C   0  0  2  0  0  0  0  0  0  0  0  0
    7.7484  -16.7956   23.7951 N   0  0  0  0  0  0  0  0  0  0  0  0
    7.0502  -14.8257   24.9182 C   0  0  0  0  0  0  0  0  0  0  0  0
    6.0015  -15.4933   25.1778 O   0  0  0  0  0  0  0  0  0  0  0  0
    7.3130  -12.3717   18.8074 N   0  0  0  0  0  0  0  0  0  0  0  0
    7.3750  -13.6747   25.6856 C   0  0  0  0  0  0  0  0  0  0  0  0
    8.5956  -12.9052   25.4340 C   0  0  0  0  0  0  0  0  0  0  0  0
    8.4092  -11.6267   26.2210 C   0  0  0  0  0  0  0  0  0  0  0  0
    7.6572  -12.1719   27.4376 C   0  0  2  0  0  0  0  0  0  0  0  0
    6.6374  -13.0669   26.7387 C   0  0  0  0  0  0  0  0  0  0  0  0
    5.6207  -12.1351   26.1606 O   0  0  0  0  0  0  0  0  0  0  0  0
    4.7699  -11.6579   26.9488 O   0  0  0  0  0  0  0  0  0  0  0  0
  2  1  1  0
  3  2  2  0
  4  2  1  0
  5  4  1  0
  6  5  1  0
  6  7  1  6
  8 18  1  0
  8  6  1  0
  9  8  2  0
 10 11  1  0
 11 12  2  0
 11 13  1  0
 13 14  1  0
 15 14  1  0
 17 16  1  6
 16 15  1  0
 17 18  1  0
 19 17  1  0
 20 19  2  0
 21 22  1  0
 21 19  1  0
 23 22  1  0
 24 25  1  0
 24 23  1  0
 25 21  1  0
 26 28  1  0
 25 26  1  1
 27 26  2  0
M  END
$$$$
