QRP.pdb
     RDKit          3D

 28 28  0  0  1  0  0  0  0  0999 V2000
   12.3915  -20.6389   25.2100 N   0  0  0  0  0  0  0  0  0  0  0  0
   13.2701  -20.1763   24.2035 C   0  0  0  0  0  0  0  0  0  0  0  0
   14.2278  -20.8916   23.8379 O   0  0  0  0  0  0  0  0  0  0  0  0
   13.0635  -18.8628   23.5870 C   0  0  0  0  0  0  0  0  0  0  0  0
   12.0107  -18.9230   22.4965 C   0  0  0  0  0  0  0  0  0  0  0  0
   11.8800  -17.5340   21.9155 C   0  0  2  0  0  0  0  0  0  0  0  0
   13.1147  -17.1730   21.2897 N   0  0  0  0  0  0  0  0  0  0  0  0
   11.4030  -16.5361   22.8985 C   0  0  0  0  0  0  0  0  0  0  0  0
   12.2516  -15.8003   23.4336 O   0  0  0  0  0  0  0  0  0  0  0  0
    8.7087  -14.4934   18.9884 N   0  0  0  0  0  0  0  0  0  0  0  0
    8.1347  -13.5686   19.8988 C   0  0  0  0  0  0  0  0  0  0  0  0
    8.3828  -12.3091   19.8164 N   0  0  0  0  0  0  0  0  0  0  0  0
    7.2768  -14.0687   20.9057 N   0  0  0  0  0  0  0  0  0  0  0  0
    7.8009  -15.1092   21.7988 C   0  0  0  0  0  0  0  0  0  0  0  0
    7.4846  -14.6618   23.1997 C   0  0  0  0  0  0  0  0  0  0  0  0
    8.0188  -15.6751   24.1757 C   0  0  0  0  0  0  0  0  0  0  0  0
    9.5357  -15.4838   24.2640 C   0  0  2  0  0  0  0  0  0  0  0  0
   10.0488  -16.4040   23.2329 N   0  0  0  0  0  0  0  0  0  0  0  0
    9.9213  -16.0772   25.5795 C   0  0  0  0  0  0  0  0  0  0  0  0
   10.1843  -17.3197   25.5766 O   0  0  0  0  0  0  0  0  0  0  0  0
    7.9641  -11.6481   20.5091 N   0  0  0  0  0  0  0  0  0  0  0  0
   10.0034  -15.3304   26.7856 C   0  0  0  0  0  0  0  0  0  0  0  0
    9.4105  -13.9962   26.9027 C   0  0  0  0  0  0  0  0  0  0  0  0
    9.4391  -13.6952   28.3849 C   0  0  0  0  0  0  0  0  0  0  0  0
   10.7556  -14.3756   28.7680 C   0  0  1  0  0  0  0  0  0  0  0  0
   10.5949  -15.6991   28.0251 C   0  0  0  0  0  0  0  0  0  0  0  0
    9.6129  -16.4898   28.8292 O   0  0  0  0  0  0  0  0  0  0  0  0
    8.4363  -16.5462   28.3989 O   0  0  0  0  0  0  0  0  0  0  0  0
  2  1  1  0
  3  2  2  0
  4  2  1  0
  5  4  1  0
  6  5  1  0
  6  7  1  1
  8 18  1  0
  8  6  1  0
  9  8  2  0
 10 11  1  0
 11 12  2  0
 11 13  1  0
 13 14  1  0
 15 14  1  0
 17 16  1  1
 16 15  1  0
 17 18  1  0
 19 17  1  0
 20 19  2  0
 21 22  1  0
 21 19  1  0
 23 22  1  0
 24 25  1  0
 24 23  1  0
 25 21  1  0
 26 28  1  0
 25 26  1  6
 27 26  2  0
M  END
$$$$
