EGN.pdb
     RDKit          3D

 22 21  0  0  1  0  0  0  0  0999 V2000
   18.0556  -15.2366  -16.6166 N   0  0  0  0  0  0  0  0  0  0  0  0
   17.2835  -15.3847  -15.3912 C   0  0  1  0  0  0  0  0  0  0  0  0
   17.9609  -16.4329  -14.5807 C   0  0  0  0  0  0  0  0  0  0  0  0
   17.7652  -17.8313  -15.0743 C   0  0  0  0  0  0  0  0  0  0  0  0
   18.4918  -18.7860  -14.1751 C   0  0  0  0  0  0  0  0  0  0  0  0
   19.4778  -19.4379  -14.6229 O   0  0  0  0  0  0  0  0  0  0  0  0
   17.0678  -14.0950  -14.7184 C   0  0  0  0  0  0  0  0  0  0  0  0
   16.5813  -13.9811  -13.5657 O   0  0  0  0  0  0  0  0  0  0  0  0
   18.0601  -18.9294  -12.8673 O   0  0  0  0  0  0  0  0  0  0  0  0
   17.4060  -12.8374  -15.3451 N   0  0  0  0  0  0  0  0  0  0  0  0
   17.2035  -11.5798  -14.6984 C   0  0  0  0  0  0  0  0  0  0  0  0
   17.7252  -10.4295  -15.4454 C   0  0  0  0  0  0  0  0  0  0  0  0
   18.4643  -10.5251  -16.4579 O   0  0  0  0  0  0  0  0  0  0  0  0
   17.0188   -4.1803  -15.5326 N   0  0  0  0  0  0  0  0  0  0  0  0
   17.5026   -5.4535  -15.8689 C   0  0  0  0  0  0  0  0  0  0  0  0
   18.3200   -5.5145  -16.8368 O   0  0  0  0  0  0  0  0  0  0  0  0
   17.1346   -6.6874  -15.1916 C   0  0  0  0  0  0  0  0  0  0  0  0
   17.8414   -7.9248  -15.6414 C   0  0  2  0  0  0  0  0  0  0  0  0
   17.3807   -9.1214  -15.0069 N   0  0  0  0  0  0  0  0  0  0  0  0
   19.3005   -7.7215  -15.4832 C   0  0  0  0  0  0  0  0  0  0  0  0
   20.0903   -7.1761  -16.4763 O   0  0  0  0  0  0  0  0  0  0  0  0
   19.8307   -8.0618  -14.4000 O   0  0  0  0  0  0  0  0  0  0  0  0
  2  1  1  6
  3  4  1  0
  3  2  1  0
  5  6  2  0
  5  4  1  0
  7  2  1  0
  7  8  2  0
  9  5  1  0
 10  7  1  0
 11 10  1  0
 11 12  1  0
 12 19  1  0
 13 12  2  0
 15 14  1  0
 16 15  2  0
 17 15  1  0
 18 20  1  0
 18 17  1  1
 19 18  1  0
 20 21  1  0
 22 20  2  0
M  END
$$$$
