EGN.pdb
     RDKit          3D

 22 21  0  0  1  0  0  0  0  0999 V2000
   26.8111  -18.6019  -15.2426 N   0  0  0  0  0  0  0  0  0  0  0  0
   26.6553  -19.9803  -15.6849 C   0  0  1  0  0  0  0  0  0  0  0  0
   27.8779  -20.3232  -16.4610 C   0  0  0  0  0  0  0  0  0  0  0  0
   28.2026  -19.3744  -17.5709 C   0  0  0  0  0  0  0  0  0  0  0  0
   29.4284  -19.8486  -18.2924 C   0  0  0  0  0  0  0  0  0  0  0  0
   29.9860  -20.9253  -17.9349 O   0  0  0  0  0  0  0  0  0  0  0  0
   26.3314  -20.8820  -14.5693 C   0  0  0  0  0  0  0  0  0  0  0  0
   26.2217  -22.1280  -14.6874 O   0  0  0  0  0  0  0  0  0  0  0  0
   29.9212  -19.0886  -19.3397 O   0  0  0  0  0  0  0  0  0  0  0  0
   26.1106  -20.3928  -13.2274 N   0  0  0  0  0  0  0  0  0  0  0  0
   25.7195  -21.2500  -12.1536 C   0  0  0  0  0  0  0  0  0  0  0  0
   24.3586  -21.7846  -12.2773 C   0  0  0  0  0  0  0  0  0  0  0  0
   24.0679  -23.0022  -12.1603 O   0  0  0  0  0  0  0  0  0  0  0  0
   18.9931  -22.1099  -11.2609 N   0  0  0  0  0  0  0  0  0  0  0  0
   19.5867  -20.9940  -11.8696 C   0  0  0  0  0  0  0  0  0  0  0  0
   18.8302  -20.2614  -12.5765 O   0  0  0  0  0  0  0  0  0  0  0  0
   20.9894  -20.6281  -11.7451 C   0  0  0  0  0  0  0  0  0  0  0  0
   21.9310  -21.2830  -12.7029 C   0  0  2  0  0  0  0  0  0  0  0  0
   23.2947  -20.8800  -12.5457 N   0  0  0  0  0  0  0  0  0  0  0  0
   21.4295  -21.0709  -14.0809 C   0  0  0  0  0  0  0  0  0  0  0  0
   22.0921  -20.2858  -15.0040 O   0  0  0  0  0  0  0  0  0  0  0  0
   20.3590  -21.6312  -14.4131 O   0  0  0  0  0  0  0  0  0  0  0  0
  2  1  1  1
  3  4  1  0
  3  2  1  0
  5  6  2  0
  5  4  1  0
  7  2  1  0
  7  8  2  0
  9  5  1  0
 10  7  1  0
 11 10  1  0
 11 12  1  0
 12 19  1  0
 13 12  2  0
 15 14  1  0
 16 15  2  0
 17 15  1  0
 18 20  1  0
 18 17  1  1
 19 18  1  0
 20 21  1  0
 22 20  2  0
M  END
$$$$
