EGN.pdb
     RDKit          3D

 22 21  0  0  1  0  0  0  0  0999 V2000
   17.7053  -12.0789  -14.6059 N   0  0  0  0  0  0  0  0  0  0  0  0
   18.4316  -12.1013  -15.8675 C   0  0  1  0  0  0  0  0  0  0  0  0
   17.7667  -13.1172  -16.7279 C   0  0  0  0  0  0  0  0  0  0  0  0
   17.2648  -14.3237  -16.0000 C   0  0  0  0  0  0  0  0  0  0  0  0
   16.5916  -15.2490  -16.9689 C   0  0  0  0  0  0  0  0  0  0  0  0
   15.3455  -15.4432  -16.8838 O   0  0  0  0  0  0  0  0  0  0  0  0
   18.5637  -10.7572  -16.4493 C   0  0  0  0  0  0  0  0  0  0  0  0
   19.4202  -10.4524  -17.3165 O   0  0  0  0  0  0  0  0  0  0  0  0
   17.3589  -15.8712  -17.9391 O   0  0  0  0  0  0  0  0  0  0  0  0
   17.7013   -9.6649  -16.0595 N   0  0  0  0  0  0  0  0  0  0  0  0
   17.7517   -8.3851  -16.6922 C   0  0  0  0  0  0  0  0  0  0  0  0
   18.2432   -7.3065  -15.8273 C   0  0  0  0  0  0  0  0  0  0  0  0
   17.5958   -6.8299  -14.8607 O   0  0  0  0  0  0  0  0  0  0  0  0
   21.6339   -3.7192  -13.7838 N   0  0  0  0  0  0  0  0  0  0  0  0
   22.2468   -4.8851  -14.2667 C   0  0  0  0  0  0  0  0  0  0  0  0
   23.4520   -5.0792  -13.9223 O   0  0  0  0  0  0  0  0  0  0  0  0
   21.6015   -5.8694  -15.1220 C   0  0  0  0  0  0  0  0  0  0  0  0
   20.1252   -5.7233  -15.3011 C   0  0  2  0  0  0  0  0  0  0  0  0
   19.5292   -6.7586  -16.0883 N   0  0  0  0  0  0  0  0  0  0  0  0
   19.8438   -4.3694  -15.8332 C   0  0  0  0  0  0  0  0  0  0  0  0
   19.4125   -3.3282  -15.0349 O   0  0  0  0  0  0  0  0  0  0  0  0
   20.0067   -4.1707  -17.0597 O   0  0  0  0  0  0  0  0  0  0  0  0
  2  1  1  1
  3  4  1  0
  3  2  1  0
  5  6  2  0
  5  4  1  0
  7  2  1  0
  7  8  2  0
  9  5  1  0
 10  7  1  0
 11 10  1  0
 11 12  1  0
 12 19  1  0
 13 12  2  0
 15 14  1  0
 16 15  2  0
 17 15  1  0
 18 20  1  0
 18 17  1  6
 19 18  1  0
 20 21  1  0
 22 20  2  0
M  END
$$$$
