EGN.pdb
     RDKit          3D

 22 21  0  0  1  0  0  0  0  0999 V2000
   22.5750  -20.7898  -16.2361 N   0  0  0  0  0  0  0  0  0  0  0  0
   22.6184  -19.6439  -15.3390 C   0  0  1  0  0  0  0  0  0  0  0  0
   21.5379  -19.8429  -14.3353 C   0  0  0  0  0  0  0  0  0  0  0  0
   20.8001  -21.1384  -14.4567 C   0  0  0  0  0  0  0  0  0  0  0  0
   20.5020  -21.6749  -13.0888 C   0  0  0  0  0  0  0  0  0  0  0  0
   20.8801  -21.0303  -12.0692 O   0  0  0  0  0  0  0  0  0  0  0  0
   23.9662  -19.4239  -14.7936 C   0  0  0  0  0  0  0  0  0  0  0  0
   24.2384  -18.5467  -13.9363 O   0  0  0  0  0  0  0  0  0  0  0  0
   19.8149  -22.8719  -12.9775 O   0  0  0  0  0  0  0  0  0  0  0  0
   25.1009  -20.2159  -15.2110 N   0  0  0  0  0  0  0  0  0  0  0  0
   26.3973  -20.0633  -14.6306 C   0  0  0  0  0  0  0  0  0  0  0  0
   27.4149  -20.9604  -15.1897 C   0  0  0  0  0  0  0  0  0  0  0  0
   28.1389  -21.7206  -14.4979 O   0  0  0  0  0  0  0  0  0  0  0  0
   27.3678  -24.9594  -16.0455 N   0  0  0  0  0  0  0  0  0  0  0  0
   26.8831  -23.8691  -16.7834 C   0  0  0  0  0  0  0  0  0  0  0  0
   25.6873  -23.5136  -16.5549 O   0  0  0  0  0  0  0  0  0  0  0  0
   27.6494  -23.1321  -17.7766 C   0  0  0  0  0  0  0  0  0  0  0  0
   28.4104  -21.9466  -17.2783 C   0  0  2  0  0  0  0  0  0  0  0  0
   27.6032  -20.9803  -16.5991 N   0  0  0  0  0  0  0  0  0  0  0  0
   29.1700  -21.3615  -18.4079 C   0  0  0  0  0  0  0  0  0  0  0  0
   28.9434  -20.0824  -18.8771 O   0  0  0  0  0  0  0  0  0  0  0  0
   30.0524  -22.0642  -18.9538 O   0  0  0  0  0  0  0  0  0  0  0  0
  2  1  1  6
  3  4  1  0
  3  2  1  0
  5  6  2  0
  5  4  1  0
  7  2  1  0
  7  8  2  0
  9  5  1  0
 10  7  1  0
 11 10  1  0
 11 12  1  0
 12 19  1  0
 13 12  2  0
 15 14  1  0
 16 15  2  0
 17 15  1  0
 18 20  1  0
 18 17  1  6
 19 18  1  0
 20 21  1  0
 22 20  2  0
M  END
$$$$
