EGN.pdb
     RDKit          3D

 22 21  0  0  1  0  0  0  0  0999 V2000
   25.4941  -20.8011  -13.3384 N   0  0  0  0  0  0  0  0  0  0  0  0
   26.9086  -20.4569  -13.3589 C   0  0  1  0  0  0  0  0  0  0  0  0
   27.5924  -21.4985  -14.1725 C   0  0  0  0  0  0  0  0  0  0  0  0
   26.9934  -21.7327  -15.5230 C   0  0  0  0  0  0  0  0  0  0  0  0
   27.8293  -22.7234  -16.2765 C   0  0  0  0  0  0  0  0  0  0  0  0
   27.5786  -23.9581  -16.1736 O   0  0  0  0  0  0  0  0  0  0  0  0
   27.1296  -19.0662  -13.7826 C   0  0  0  0  0  0  0  0  0  0  0  0
   28.2578  -18.5140  -13.8063 O   0  0  0  0  0  0  0  0  0  0  0  0
   28.8620  -22.2560  -17.0716 O   0  0  0  0  0  0  0  0  0  0  0  0
   26.0442  -18.2138  -14.2118 N   0  0  0  0  0  0  0  0  0  0  0  0
   26.2643  -16.9411  -14.8222 C   0  0  0  0  0  0  0  0  0  0  0  0
   25.0417  -16.2833  -15.2969 C   0  0  0  0  0  0  0  0  0  0  0  0
   23.8960  -16.7968  -15.2316 O   0  0  0  0  0  0  0  0  0  0  0  0
   23.4141  -11.2221  -18.5763 N   0  0  0  0  0  0  0  0  0  0  0  0
   23.2953  -12.1605  -17.5402 C   0  0  0  0  0  0  0  0  0  0  0  0
   22.1353  -12.3306  -17.0564 O   0  0  0  0  0  0  0  0  0  0  0  0
   24.3969  -12.9382  -16.9939 C   0  0  0  0  0  0  0  0  0  0  0  0
   24.0625  -14.3148  -16.5184 C   0  0  2  0  0  0  0  0  0  0  0  0
   25.1461  -14.9850  -15.8678 N   0  0  0  0  0  0  0  0  0  0  0  0
   23.5145  -15.0895  -17.6564 C   0  0  0  0  0  0  0  0  0  0  0  0
   22.1734  -15.3987  -17.7721 O   0  0  0  0  0  0  0  0  0  0  0  0
   24.3085  -15.4757  -18.5455 O   0  0  0  0  0  0  0  0  0  0  0  0
  2  1  1  6
  3  4  1  0
  3  2  1  0
  5  6  2  0
  5  4  1  0
  7  2  1  0
  7  8  2  0
  9  5  1  0
 10  7  1  0
 11 10  1  0
 11 12  1  0
 12 19  1  0
 13 12  2  0
 15 14  1  0
 16 15  2  0
 17 15  1  0
 18 20  1  0
 18 17  1  6
 19 18  1  0
 20 21  1  0
 22 20  2  0
M  END
$$$$
