EGN.pdb
     RDKit          3D

 22 21  0  0  1  0  0  0  0  0999 V2000
   26.9534  -22.4074  -15.5564 N   0  0  0  0  0  0  0  0  0  0  0  0
   27.2247  -21.0317  -15.1644 C   0  0  1  0  0  0  0  0  0  0  0  0
   27.8422  -20.3633  -16.3418 C   0  0  0  0  0  0  0  0  0  0  0  0
   27.6652  -21.0878  -17.6384 C   0  0  0  0  0  0  0  0  0  0  0  0
   28.3694  -20.3395  -18.7303 C   0  0  0  0  0  0  0  0  0  0  0  0
   29.0173  -19.2906  -18.4510 O   0  0  0  0  0  0  0  0  0  0  0  0
   26.0333  -20.3742  -14.6068 C   0  0  0  0  0  0  0  0  0  0  0  0
   26.0244  -19.1946  -14.1743 O   0  0  0  0  0  0  0  0  0  0  0  0
   28.2908  -20.8209  -20.0262 O   0  0  0  0  0  0  0  0  0  0  0  0
   24.7586  -21.0488  -14.5129 N   0  0  0  0  0  0  0  0  0  0  0  0
   23.5738  -20.3896  -14.0630 C   0  0  0  0  0  0  0  0  0  0  0  0
   22.3797  -21.2422  -14.0517 C   0  0  0  0  0  0  0  0  0  0  0  0
   22.1323  -22.1176  -14.9195 O   0  0  0  0  0  0  0  0  0  0  0  0
   17.8717  -23.4472  -12.2565 N   0  0  0  0  0  0  0  0  0  0  0  0
   18.2815  -22.3998  -11.4179 C   0  0  0  0  0  0  0  0  0  0  0  0
   17.5654  -22.1757  -10.3954 O   0  0  0  0  0  0  0  0  0  0  0  0
   19.4544  -21.5681  -11.6405 C   0  0  0  0  0  0  0  0  0  0  0  0
   20.2356  -21.8458  -12.8837 C   0  0  2  0  0  0  0  0  0  0  0  0
   21.4369  -21.0778  -12.9998 N   0  0  0  0  0  0  0  0  0  0  0  0
   19.3401  -21.6831  -14.0529 C   0  0  0  0  0  0  0  0  0  0  0  0
   18.6939  -22.7465  -14.6522 O   0  0  0  0  0  0  0  0  0  0  0  0
   19.1682  -20.5289  -14.5096 O   0  0  0  0  0  0  0  0  0  0  0  0
  2  1  1  6
  3  4  1  0
  3  2  1  0
  5  6  2  0
  5  4  1  0
  7  2  1  0
  7  8  2  0
  9  5  1  0
 10  7  1  0
 11 10  1  0
 11 12  1  0
 12 19  1  0
 13 12  2  0
 15 14  1  0
 16 15  2  0
 17 15  1  0
 18 20  1  0
 18 17  1  1
 19 18  1  0
 20 21  1  0
 22 20  2  0
M  END
$$$$
