DGV.pdb
     RDKit          3D

 20 19  0  0  1  0  0  0  0  0999 V2000
   23.6194  -20.5180  -18.8925 N   0  0  0  0  0  0  0  0  0  0  0  0
   23.6528  -19.1985  -18.3518 C   0  0  1  0  0  0  0  0  0  0  0  0
   22.2789  -18.5650  -18.2691 C   0  0  0  0  0  0  0  0  0  0  0  0
   21.2597  -19.5524  -17.8501 C   0  0  0  0  0  0  0  0  0  0  0  0
   20.4821  -19.2368  -16.9156 O   0  0  0  0  0  0  0  0  0  0  0  0
   24.3757  -19.1012  -17.0593 C   0  0  0  0  0  0  0  0  0  0  0  0
   24.3416  -18.0120  -16.4340 O   0  0  0  0  0  0  0  0  0  0  0  0
   21.1345  -20.7946  -18.4433 O   0  0  0  0  0  0  0  0  0  0  0  0
   25.1093  -20.1961  -16.4965 N   0  0  0  0  0  0  0  0  0  0  0  0
   25.7301  -20.1917  -15.2195 C   0  0  0  0  0  0  0  0  0  0  0  0
   24.9211  -20.7286  -14.1076 C   0  0  0  0  0  0  0  0  0  0  0  0
   23.8133  -21.3330  -14.3254 O   0  0  0  0  0  0  0  0  0  0  0  0
   25.5298  -19.5816   -9.8862 C   0  0  0  0  0  0  0  0  0  0  0  0
   25.3097  -21.0009  -10.3594 C   0  0  2  0  0  0  0  0  0  0  0  0
   26.6853  -21.6084  -10.5451 C   0  0  0  0  0  0  0  0  0  0  0  0
   24.5688  -21.0882  -11.6440 C   0  0  2  0  0  0  0  0  0  0  0  0
   25.3308  -20.5949  -12.7779 N   0  0  0  0  0  0  0  0  0  0  0  0
   23.2771  -20.3675  -11.5109 C   0  0  0  0  0  0  0  0  0  0  0  0
   22.2206  -20.9638  -10.8447 O   0  0  0  0  0  0  0  0  0  0  0  0
   23.0949  -19.2244  -11.9814 O   0  0  0  0  0  0  0  0  0  0  0  0
  2  1  1  1
  2  3  1  0
  3  4  1  0
  4  5  2  0
  6  9  1  0
  6  2  1  0
  7  6  2  0
  8  4  1  0
 10  9  1  0
 11 12  2  0
 11 10  1  0
 14 13  1  6
 15 14  1  0
 16 14  1  0
 16 17  1  6
 17 11  1  0
 18 16  1  0
 19 18  1  0
 20 18  2  0
M  END
$$$$
