DGV.pdb
     RDKit          3D

 20 19  0  0  1  0  0  0  0  0999 V2000
   22.9066  -20.0715  -16.9290 N   0  0  0  0  0  0  0  0  0  0  0  0
   23.9539  -19.1160  -16.7715 C   0  0  1  0  0  0  0  0  0  0  0  0
   23.4618  -17.6865  -16.8713 C   0  0  0  0  0  0  0  0  0  0  0  0
   23.2004  -17.3083  -18.2777 C   0  0  0  0  0  0  0  0  0  0  0  0
   23.7213  -18.0064  -19.1826 O   0  0  0  0  0  0  0  0  0  0  0  0
   24.7747  -19.3253  -15.5528 C   0  0  0  0  0  0  0  0  0  0  0  0
   24.5496  -18.6058  -14.5478 O   0  0  0  0  0  0  0  0  0  0  0  0
   22.4131  -16.2272  -18.6268 O   0  0  0  0  0  0  0  0  0  0  0  0
   25.8109  -20.3122  -15.4756 N   0  0  0  0  0  0  0  0  0  0  0  0
   26.6046  -20.5739  -14.3276 C   0  0  0  0  0  0  0  0  0  0  0  0
   25.8960  -21.1635  -13.1748 C   0  0  0  0  0  0  0  0  0  0  0  0
   25.1731  -22.2123  -13.3068 O   0  0  0  0  0  0  0  0  0  0  0  0
   25.0492  -21.1205   -8.2472 C   0  0  0  0  0  0  0  0  0  0  0  0
   25.8247  -20.6373   -9.4521 C   0  0  2  0  0  0  0  0  0  0  0  0
   25.7901  -19.1233   -9.4045 C   0  0  0  0  0  0  0  0  0  0  0  0
   25.2511  -21.0903  -10.7455 C   0  0  2  0  0  0  0  0  0  0  0  0
   25.9842  -20.5989  -11.8991 N   0  0  0  0  0  0  0  0  0  0  0  0
   23.8213  -20.6938  -10.8093 C   0  0  0  0  0  0  0  0  0  0  0  0
   22.8858  -21.3617  -10.0383 O   0  0  0  0  0  0  0  0  0  0  0  0
   23.4141  -19.7666  -11.5411 O   0  0  0  0  0  0  0  0  0  0  0  0
  2  1  1  1
  2  3  1  0
  3  4  1  0
  4  5  2  0
  6  9  1  0
  6  2  1  0
  7  6  2  0
  8  4  1  0
 10  9  1  0
 11 12  2  0
 11 10  1  0
 14 13  1  1
 15 14  1  0
 16 14  1  0
 16 17  1  6
 17 11  1  0
 18 16  1  0
 19 18  1  0
 20 18  2  0
M  END
$$$$
