DGV.pdb
     RDKit          3D

 20 19  0  0  1  0  0  0  0  0999 V2000
   18.2172  -12.0330  -16.8536 N   0  0  0  0  0  0  0  0  0  0  0  0
   19.2913  -11.9791  -15.9165 C   0  0  1  0  0  0  0  0  0  0  0  0
   20.5926  -12.5055  -16.4869 C   0  0  0  0  0  0  0  0  0  0  0  0
   20.4320  -13.8840  -17.0001 C   0  0  0  0  0  0  0  0  0  0  0  0
   20.7574  -14.1114  -18.1917 O   0  0  0  0  0  0  0  0  0  0  0  0
   19.4713  -10.6453  -15.2910 C   0  0  0  0  0  0  0  0  0  0  0  0
   20.3629  -10.5089  -14.4164 O   0  0  0  0  0  0  0  0  0  0  0  0
   19.9425  -14.9179  -16.2241 O   0  0  0  0  0  0  0  0  0  0  0  0
   18.6718   -9.5093  -15.6430 N   0  0  0  0  0  0  0  0  0  0  0  0
   18.7779   -8.2224  -15.0524 C   0  0  0  0  0  0  0  0  0  0  0  0
   17.9545   -7.1618  -15.6655 C   0  0  0  0  0  0  0  0  0  0  0  0
   17.6546   -7.1916  -16.9102 O   0  0  0  0  0  0  0  0  0  0  0  0
   14.9249   -5.2758  -13.7035 C   0  0  0  0  0  0  0  0  0  0  0  0
   15.2326   -5.1273  -15.1767 C   0  0  2  0  0  0  0  0  0  0  0  0
   14.7043   -6.3764  -15.8523 C   0  0  0  0  0  0  0  0  0  0  0  0
   16.6838   -5.0010  -15.4682 C   0  0  2  0  0  0  0  0  0  0  0  0
   17.4747   -6.0856  -14.9135 N   0  0  0  0  0  0  0  0  0  0  0  0
   17.1649   -3.6827  -14.9822 C   0  0  0  0  0  0  0  0  0  0  0  0
   18.0188   -3.6186  -13.8949 O   0  0  0  0  0  0  0  0  0  0  0  0
   16.8284   -2.6059  -15.5195 O   0  0  0  0  0  0  0  0  0  0  0  0
  2  1  1  6
  2  3  1  0
  3  4  1  0
  4  5  2  0
  6  9  1  0
  6  2  1  0
  7  6  2  0
  8  4  1  0
 10  9  1  0
 11 12  2  0
 11 10  1  0
 14 13  1  1
 15 14  1  0
 16 14  1  0
 16 17  1  1
 17 11  1  0
 18 16  1  0
 19 18  1  0
 20 18  2  0
M  END
$$$$
