DGV.pdb
     RDKit          3D

 20 19  0  0  1  0  0  0  0  0999 V2000
   16.9249  -11.4785  -13.8854 N   0  0  0  0  0  0  0  0  0  0  0  0
   17.2421  -10.9307  -15.1637 C   0  0  1  0  0  0  0  0  0  0  0  0
   16.1078  -11.0713  -16.1584 C   0  0  0  0  0  0  0  0  0  0  0  0
   15.7993  -12.4948  -16.4191 C   0  0  0  0  0  0  0  0  0  0  0  0
   16.5141  -13.1110  -17.2478 O   0  0  0  0  0  0  0  0  0  0  0  0
   17.7465   -9.5361  -15.1070 C   0  0  0  0  0  0  0  0  0  0  0  0
   18.4784   -9.1250  -16.0418 O   0  0  0  0  0  0  0  0  0  0  0  0
   14.7648  -13.1623  -15.7908 O   0  0  0  0  0  0  0  0  0  0  0  0
   17.4338   -8.6412  -14.0322 N   0  0  0  0  0  0  0  0  0  0  0  0
   17.7933   -7.2685  -13.9826 C   0  0  0  0  0  0  0  0  0  0  0  0
   19.1422   -6.9739  -13.4605 C   0  0  0  0  0  0  0  0  0  0  0  0
   19.6458   -7.6574  -12.5016 O   0  0  0  0  0  0  0  0  0  0  0  0
   21.9819   -5.5075  -16.0374 C   0  0  0  0  0  0  0  0  0  0  0  0
   22.2609   -6.1293  -14.6875 C   0  0  2  0  0  0  0  0  0  0  0  0
   22.1483   -7.6287  -14.8753 C   0  0  0  0  0  0  0  0  0  0  0  0
   21.3060   -5.7046  -13.6316 C   0  0  2  0  0  0  0  0  0  0  0  0
   19.9177   -5.9381  -13.9891 N   0  0  0  0  0  0  0  0  0  0  0  0
   21.5437   -4.2750  -13.3070 C   0  0  0  0  0  0  0  0  0  0  0  0
   22.6722   -3.9084  -12.5944 O   0  0  0  0  0  0  0  0  0  0  0  0
   20.7570   -3.3684  -13.6538 O   0  0  0  0  0  0  0  0  0  0  0  0
  2  1  1  1
  2  3  1  0
  3  4  1  0
  4  5  2  0
  6  9  1  0
  6  2  1  0
  7  6  2  0
  8  4  1  0
 10  9  1  0
 11 12  2  0
 11 10  1  0
 14 13  1  6
 15 14  1  0
 16 14  1  0
 16 17  1  6
 17 11  1  0
 18 16  1  0
 19 18  1  0
 20 18  2  0
M  END
$$$$
