DGV.pdb
     RDKit          3D

 20 19  0  0  1  0  0  0  0  0999 V2000
   15.7275  -13.1432  -16.5953 N   0  0  0  0  0  0  0  0  0  0  0  0
   16.9555  -13.7827  -16.2523 C   0  0  1  0  0  0  0  0  0  0  0  0
   17.1203  -15.1313  -16.9231 C   0  0  0  0  0  0  0  0  0  0  0  0
   16.4308  -16.1952  -16.1601 C   0  0  0  0  0  0  0  0  0  0  0  0
   15.8612  -15.8766  -15.0870 O   0  0  0  0  0  0  0  0  0  0  0  0
   18.1508  -12.9259  -16.4520 C   0  0  0  0  0  0  0  0  0  0  0  0
   19.2471  -13.3045  -15.9689 O   0  0  0  0  0  0  0  0  0  0  0  0
   16.3919  -17.5111  -16.5812 O   0  0  0  0  0  0  0  0  0  0  0  0
   18.1059  -11.6873  -17.1714 N   0  0  0  0  0  0  0  0  0  0  0  0
   19.1843  -10.7708  -17.2861 C   0  0  0  0  0  0  0  0  0  0  0  0
   19.6127  -10.1192  -16.0328 C   0  0  0  0  0  0  0  0  0  0  0  0
   18.8628  -10.1213  -14.9947 O   0  0  0  0  0  0  0  0  0  0  0  0
   23.7360   -8.9831  -15.5328 C   0  0  0  0  0  0  0  0  0  0  0  0
   22.7738   -9.3337  -14.4201 C   0  0  2  0  0  0  0  0  0  0  0  0
   22.8201  -10.8411  -14.2732 C   0  0  0  0  0  0  0  0  0  0  0  0
   21.3738   -8.9210  -14.6966 C   0  0  2  0  0  0  0  0  0  0  0  0
   20.8485   -9.4738  -15.9328 N   0  0  0  0  0  0  0  0  0  0  0  0
   21.2942   -7.4380  -14.6951 C   0  0  0  0  0  0  0  0  0  0  0  0
   21.3794   -6.7443  -13.5005 O   0  0  0  0  0  0  0  0  0  0  0  0
   21.1511   -6.7727  -15.7430 O   0  0  0  0  0  0  0  0  0  0  0  0
  2  1  1  6
  2  3  1  0
  3  4  1  0
  4  5  2  0
  6  9  1  0
  6  2  1  0
  7  6  2  0
  8  4  1  0
 10  9  1  0
 11 12  2  0
 11 10  1  0
 14 13  1  6
 15 14  1  0
 16 14  1  0
 16 17  1  6
 17 11  1  0
 18 16  1  0
 19 18  1  0
 20 18  2  0
M  END
$$$$
