DGV.pdb
     RDKit          3D

 20 19  0  0  1  0  0  0  0  0999 V2000
   27.0248  -18.0469  -18.4299 N   0  0  0  0  0  0  0  0  0  0  0  0
   25.7835  -17.6176  -17.8734 C   0  0  1  0  0  0  0  0  0  0  0  0
   24.5870  -18.2524  -18.5525 C   0  0  0  0  0  0  0  0  0  0  0  0
   24.7814  -18.3268  -20.0174 C   0  0  0  0  0  0  0  0  0  0  0  0
   24.9370  -17.2513  -20.6470 O   0  0  0  0  0  0  0  0  0  0  0  0
   25.7103  -17.7589  -16.3978 C   0  0  0  0  0  0  0  0  0  0  0  0
   24.6268  -17.4869  -15.8227 O   0  0  0  0  0  0  0  0  0  0  0  0
   24.7977  -19.5234  -20.7091 O   0  0  0  0  0  0  0  0  0  0  0  0
   26.8220  -18.1919  -15.6039 N   0  0  0  0  0  0  0  0  0  0  0  0
   26.8020  -18.3589  -14.1940 C   0  0  0  0  0  0  0  0  0  0  0  0
   25.9220  -19.4286  -13.6840 C   0  0  0  0  0  0  0  0  0  0  0  0
   25.2682  -20.1864  -14.4829 O   0  0  0  0  0  0  0  0  0  0  0  0
   25.5635  -20.2283   -9.3662 C   0  0  0  0  0  0  0  0  0  0  0  0
   25.6152  -21.2620  -10.4688 C   0  0  2  0  0  0  0  0  0  0  0  0
   27.0788  -21.5959  -10.6742 C   0  0  0  0  0  0  0  0  0  0  0  0
   25.0466  -20.7838  -11.7553 C   0  0  2  0  0  0  0  0  0  0  0  0
   25.7667  -19.6524  -12.3130 N   0  0  0  0  0  0  0  0  0  0  0  0
   23.6093  -20.4634  -11.5630 C   0  0  0  0  0  0  0  0  0  0  0  0
   22.6933  -21.4854  -11.3835 O   0  0  0  0  0  0  0  0  0  0  0  0
   23.1784  -19.2906  -11.5553 O   0  0  0  0  0  0  0  0  0  0  0  0
  2  1  1  6
  2  3  1  0
  3  4  1  0
  4  5  2  0
  6  9  1  0
  6  2  1  0
  7  6  2  0
  8  4  1  0
 10  9  1  0
 11 12  2  0
 11 10  1  0
 14 13  1  1
 15 14  1  0
 16 14  1  0
 16 17  1  1
 17 11  1  0
 18 16  1  0
 19 18  1  0
 20 18  2  0
M  END
$$$$
