DGV.pdb
     RDKit          3D

 20 19  0  0  1  0  0  0  0  0999 V2000
   16.6206  -12.0658  -15.2495 N   0  0  0  0  0  0  0  0  0  0  0  0
   15.9259  -11.2732  -16.2107 C   0  0  1  0  0  0  0  0  0  0  0  0
   14.4203  -11.3665  -16.0679 C   0  0  0  0  0  0  0  0  0  0  0  0
   13.9758  -12.7764  -16.0072 C   0  0  0  0  0  0  0  0  0  0  0  0
   14.3569  -13.5546  -16.9165 O   0  0  0  0  0  0  0  0  0  0  0  0
   16.3814   -9.8616  -16.2617 C   0  0  0  0  0  0  0  0  0  0  0  0
   15.8735   -9.0986  -17.1212 O   0  0  0  0  0  0  0  0  0  0  0  0
   13.1660  -13.2618  -14.9976 O   0  0  0  0  0  0  0  0  0  0  0  0
   17.3743   -9.3343  -15.3730 N   0  0  0  0  0  0  0  0  0  0  0  0
   17.7788   -7.9744  -15.3161 C   0  0  0  0  0  0  0  0  0  0  0  0
   18.7194   -7.6264  -14.2330 C   0  0  0  0  0  0  0  0  0  0  0  0
   18.5416   -8.0523  -13.0384 O   0  0  0  0  0  0  0  0  0  0  0  0
   23.0083   -8.4802  -13.2055 C   0  0  0  0  0  0  0  0  0  0  0  0
   21.8219   -8.2088  -14.1030 C   0  0  2  0  0  0  0  0  0  0  0  0
   22.3684   -8.0917  -15.5114 C   0  0  0  0  0  0  0  0  0  0  0  0
   21.0972   -6.9571  -13.7635 C   0  0  2  0  0  0  0  0  0  0  0  0
   19.8351   -6.8182  -14.4689 N   0  0  0  0  0  0  0  0  0  0  0  0
   21.9862   -5.7954  -14.0198 C   0  0  0  0  0  0  0  0  0  0  0  0
   22.9864   -5.4804  -13.1165 O   0  0  0  0  0  0  0  0  0  0  0  0
   21.8717   -5.0735  -15.0332 O   0  0  0  0  0  0  0  0  0  0  0  0
  2  1  1  1
  2  3  1  0
  3  4  1  0
  4  5  2  0
  6  9  1  0
  6  2  1  0
  7  6  2  0
  8  4  1  0
 10  9  1  0
 11 12  2  0
 11 10  1  0
 14 13  1  1
 15 14  1  0
 16 14  1  0
 16 17  1  6
 17 11  1  0
 18 16  1  0
 19 18  1  0
 20 18  2  0
M  END
$$$$
