DGV.pdb
     RDKit          3D

 20 19  0  0  1  0  0  0  0  0999 V2000
   18.1933  -11.4590  -17.3999 N   0  0  0  0  0  0  0  0  0  0  0  0
   18.2639  -11.2475  -15.9910 C   0  0  1  0  0  0  0  0  0  0  0  0
   17.9531  -12.4987  -15.1950 C   0  0  0  0  0  0  0  0  0  0  0  0
   16.6561  -13.0827  -15.6026 C   0  0  0  0  0  0  0  0  0  0  0  0
   16.5661  -14.3340  -15.6640 O   0  0  0  0  0  0  0  0  0  0  0  0
   19.5323  -10.6194  -15.5446 C   0  0  0  0  0  0  0  0  0  0  0  0
   20.5998  -10.9514  -16.1179 O   0  0  0  0  0  0  0  0  0  0  0  0
   15.5535  -12.3097  -15.9143 O   0  0  0  0  0  0  0  0  0  0  0  0
   19.5893   -9.6520  -14.4888 N   0  0  0  0  0  0  0  0  0  0  0  0
   20.7806   -9.0788  -13.9707 C   0  0  0  0  0  0  0  0  0  0  0  0
   21.2880   -7.8909  -14.6850 C   0  0  0  0  0  0  0  0  0  0  0  0
   22.2900   -7.2283  -14.2410 O   0  0  0  0  0  0  0  0  0  0  0  0
   21.9287   -7.8380  -18.5687 C   0  0  0  0  0  0  0  0  0  0  0  0
   21.1415   -6.6219  -18.1352 C   0  0  2  0  0  0  0  0  0  0  0  0
   21.7321   -5.4418  -18.8798 C   0  0  0  0  0  0  0  0  0  0  0  0
   21.2191   -6.3562  -16.6756 C   0  0  2  0  0  0  0  0  0  0  0  0
   20.6935   -7.4432  -15.8681 N   0  0  0  0  0  0  0  0  0  0  0  0
   20.5227   -5.0792  -16.3756 C   0  0  0  0  0  0  0  0  0  0  0  0
   21.2348   -3.8926  -16.3615 O   0  0  0  0  0  0  0  0  0  0  0  0
   19.2988   -5.0239  -16.1303 O   0  0  0  0  0  0  0  0  0  0  0  0
  2  1  1  6
  2  3  1  0
  3  4  1  0
  4  5  2  0
  6  9  1  0
  6  2  1  0
  7  6  2  0
  8  4  1  0
 10  9  1  0
 11 12  2  0
 11 10  1  0
 14 13  1  1
 15 14  1  0
 16 14  1  0
 16 17  1  1
 17 11  1  0
 18 16  1  0
 19 18  1  0
 20 18  2  0
M  END
$$$$
