HKL.pdb
     RDKit          3D

 28 28  0  0  1  0  0  0  0  0999 V2000
   29.7143  -29.9375  -17.6977 N   0  0  0  0  0  0  0  0  0  0  0  0
   28.5787  -29.8295  -16.7451 C   0  0  1  0  0  0  0  0  0  0  0  0
   27.5890  -28.8618  -17.2947 C   0  0  0  0  0  0  0  0  0  0  0  0
   27.9787  -27.4466  -17.2411 C   0  0  0  0  0  0  0  0  0  0  0  0
   27.6468  -26.5181  -16.2653 C   0  0  0  0  0  0  0  0  0  0  0  0
   28.2042  -25.3450  -16.5957 N   0  0  0  0  0  0  0  0  0  0  0  0
   28.8780  -25.4845  -17.7409 C   0  0  0  0  0  0  0  0  0  0  0  0
   28.7226  -26.7829  -18.1140 N   0  0  0  0  0  0  0  0  0  0  0  0
   28.0202  -31.2157  -16.5555 C   0  0  0  0  0  0  0  0  0  0  0  0
   27.8339  -32.0238  -17.4894 O   0  0  0  0  0  0  0  0  0  0  0  0
   27.6672  -31.6826  -15.2546 N   0  0  0  0  0  0  0  0  0  0  0  0
   27.1006  -33.0322  -15.0487 C   0  0  1  0  0  0  0  0  0  0  0  0
   27.6005  -33.6241  -13.7818 C   0  0  0  0  0  0  0  0  0  0  0  0
   27.0466  -34.9998  -13.5523 C   0  0  0  0  0  0  0  0  0  0  0  0
   27.6960  -36.0557  -14.4232 C   0  0  0  0  0  0  0  0  0  0  0  0
   27.0428  -37.3934  -14.1263 C   0  0  0  0  0  0  0  0  0  0  0  0
   27.6670  -38.4490  -14.8896 N   0  0  0  0  0  0  0  0  0  0  0  0
   25.6283  -32.8272  -15.0898 C   0  0  0  0  0  0  0  0  0  0  0  0
   25.0255  -32.0951  -14.2351 O   0  0  0  0  0  0  0  0  0  0  0  0
   22.6170  -31.2780  -19.3328 C   0  0  0  0  0  0  0  0  0  0  0  0
   22.7102  -31.5099  -17.8351 C   0  0  2  0  0  0  0  0  0  0  0  0
   23.5227  -30.4768  -17.1643 C   0  0  0  0  0  0  0  0  0  0  0  0
   22.8678  -32.9211  -17.4448 C   0  0  0  0  0  0  0  0  0  0  0  0
   23.3462  -33.2098  -16.0606 C   0  0  2  0  0  0  0  0  0  0  0  0
   24.7961  -33.4192  -16.0649 N   0  0  0  0  0  0  0  0  0  0  0  0
   22.6610  -34.2920  -15.3616 C   0  0  0  0  0  0  0  0  0  0  0  0
   21.5254  -34.2696  -14.8399 O   0  0  0  0  0  0  0  0  0  0  0  0
   23.3342  -35.5383  -15.2385 O   0  0  0  0  0  0  0  0  0  0  0  0
  2  1  1  6
  3  2  1  0
  4  5  2  0
  4  3  1  0
  6  5  1  0
  7  8  2  0
  7  6  1  0
  8  4  1  0
  9 11  1  0
  9  2  1  0
 10  9  2  0
 12 11  1  0
 12 13  1  1
 13 14  1  0
 14 15  1  0
 15 16  1  0
 17 16  1  0
 18 12  1  0
 19 18  2  0
 21 23  1  0
 21 20  1  6
 22 21  1  0
 24 23  1  6
 24 26  1  0
 24 25  1  0
 25 18  1  0
 26 28  1  0
 27 26  2  0
M  END
$$$$
