HKL.pdb
     RDKit          3D

 28 28  0  0  1  0  0  0  0  0999 V2000
   23.0777  -12.9419  -17.9248 N   0  0  0  0  0  0  0  0  0  0  0  0
   23.2190  -12.2710  -16.6063 C   0  0  1  0  0  0  0  0  0  0  0  0
   24.6691  -12.0917  -16.3182 C   0  0  0  0  0  0  0  0  0  0  0  0
   25.4352  -13.3248  -16.0940 C   0  0  0  0  0  0  0  0  0  0  0  0
   26.4833  -13.8158  -16.8589 C   0  0  0  0  0  0  0  0  0  0  0  0
   26.9011  -14.9645  -16.3096 N   0  0  0  0  0  0  0  0  0  0  0  0
   26.1647  -15.2283  -15.2265 C   0  0  0  0  0  0  0  0  0  0  0  0
   25.2739  -14.2066  -15.1183 N   0  0  0  0  0  0  0  0  0  0  0  0
   22.4576  -10.9733  -16.6806 C   0  0  0  0  0  0  0  0  0  0  0  0
   22.6282  -10.1174  -17.5741 O   0  0  0  0  0  0  0  0  0  0  0  0
   21.4732  -10.6538  -15.6989 N   0  0  0  0  0  0  0  0  0  0  0  0
   20.6475   -9.4324  -15.8058 C   0  0  1  0  0  0  0  0  0  0  0  0
   19.3770   -9.5898  -15.0533 C   0  0  0  0  0  0  0  0  0  0  0  0
   18.3213  -10.2674  -15.8768 C   0  0  0  0  0  0  0  0  0  0  0  0
   17.6041  -11.3742  -15.1312 C   0  0  0  0  0  0  0  0  0  0  0  0
   16.7129  -12.1160  -16.1108 C   0  0  0  0  0  0  0  0  0  0  0  0
   15.9996  -13.1828  -15.4478 N   0  0  0  0  0  0  0  0  0  0  0  0
   21.5270   -8.3443  -15.3019 C   0  0  0  0  0  0  0  0  0  0  0  0
   22.3283   -8.5233  -14.3243 O   0  0  0  0  0  0  0  0  0  0  0  0
   23.6618   -3.2467  -15.5113 C   0  0  0  0  0  0  0  0  0  0  0  0
   24.2850   -4.4540  -16.1891 C   0  0  2  0  0  0  0  0  0  0  0  0
   25.2791   -4.0654  -17.2079 C   0  0  0  0  0  0  0  0  0  0  0  0
   23.3406   -5.5462  -16.4789 C   0  0  0  0  0  0  0  0  0  0  0  0
   22.4596   -6.0156  -15.3691 C   0  0  2  0  0  0  0  0  0  0  0  0
   21.5421   -7.0470  -15.8595 N   0  0  0  0  0  0  0  0  0  0  0  0
   21.7400   -4.9749  -14.6422 C   0  0  0  0  0  0  0  0  0  0  0  0
   20.6055   -4.5120  -14.8890 O   0  0  0  0  0  0  0  0  0  0  0  0
   22.3733   -4.3924  -13.5101 O   0  0  0  0  0  0  0  0  0  0  0  0
  2  1  1  6
  3  2  1  0
  4  5  2  0
  4  3  1  0
  6  5  1  0
  7  8  2  0
  7  6  1  0
  8  4  1  0
  9 11  1  0
  9  2  1  0
 10  9  2  0
 12 11  1  0
 12 13  1  1
 13 14  1  0
 14 15  1  0
 15 16  1  0
 17 16  1  0
 18 12  1  0
 19 18  2  0
 21 23  1  0
 21 20  1  6
 22 21  1  0
 24 23  1  6
 24 26  1  0
 24 25  1  0
 25 18  1  0
 26 28  1  0
 27 26  2  0
M  END
$$$$
