HKL.pdb
     RDKit          3D

 28 28  0  0  1  0  0  0  0  0999 V2000
   18.1919  -13.9248  -18.4834 N   0  0  0  0  0  0  0  0  0  0  0  0
   18.0195  -13.0298  -17.3096 C   0  0  1  0  0  0  0  0  0  0  0  0
   18.4930  -13.7465  -16.0930 C   0  0  0  0  0  0  0  0  0  0  0  0
   17.7459  -14.9585  -15.7317 C   0  0  0  0  0  0  0  0  0  0  0  0
   16.5056  -15.0305  -15.1144 C   0  0  0  0  0  0  0  0  0  0  0  0
   16.1851  -16.3233  -14.9667 N   0  0  0  0  0  0  0  0  0  0  0  0
   17.1677  -17.0802  -15.4632 C   0  0  0  0  0  0  0  0  0  0  0  0
   18.1115  -16.2172  -15.9255 N   0  0  0  0  0  0  0  0  0  0  0  0
   18.7846  -11.7641  -17.5957 C   0  0  0  0  0  0  0  0  0  0  0  0
   19.9508  -11.7427  -18.0424 O   0  0  0  0  0  0  0  0  0  0  0  0
   18.1895  -10.4891  -17.3606 N   0  0  0  0  0  0  0  0  0  0  0  0
   18.8854   -9.2363  -17.7227 C   0  0  1  0  0  0  0  0  0  0  0  0
   17.9329   -8.2547  -18.3010 C   0  0  0  0  0  0  0  0  0  0  0  0
   18.6241   -6.9945  -18.7325 C   0  0  0  0  0  0  0  0  0  0  0  0
   17.6768   -5.9655  -19.3145 C   0  0  0  0  0  0  0  0  0  0  0  0
   18.4847   -4.7523  -19.7382 C   0  0  0  0  0  0  0  0  0  0  0  0
   17.6778   -3.8489  -20.5253 N   0  0  0  0  0  0  0  0  0  0  0  0
   19.5313   -8.7916  -16.4592 C   0  0  0  0  0  0  0  0  0  0  0  0
   18.9188   -8.8285  -15.3397 O   0  0  0  0  0  0  0  0  0  0  0  0
   22.1020  -10.3566  -13.6273 C   0  0  0  0  0  0  0  0  0  0  0  0
   22.9931   -9.8285  -14.7375 C   0  0  2  0  0  0  0  0  0  0  0  0
   24.3463  -10.4147  -14.6876 C   0  0  0  0  0  0  0  0  0  0  0  0
   22.8370   -8.3903  -15.0131 C   0  0  0  0  0  0  0  0  0  0  0  0
   21.4499   -7.8540  -15.1413 C   0  0  2  0  0  0  0  0  0  0  0  0
   20.8542   -8.3011  -16.4028 N   0  0  0  0  0  0  0  0  0  0  0  0
   21.3056   -6.4116  -14.9742 C   0  0  0  0  0  0  0  0  0  0  0  0
   21.1088   -5.5530  -15.8609 O   0  0  0  0  0  0  0  0  0  0  0  0
   21.3937   -5.8803  -13.6582 O   0  0  0  0  0  0  0  0  0  0  0  0
  2  1  1  6
  3  2  1  0
  4  5  2  0
  4  3  1  0
  6  5  1  0
  7  8  2  0
  7  6  1  0
  8  4  1  0
  9 11  1  0
  9  2  1  0
 10  9  2  0
 12 11  1  0
 12 13  1  1
 13 14  1  0
 14 15  1  0
 15 16  1  0
 17 16  1  0
 18 12  1  0
 19 18  2  0
 21 23  1  0
 21 20  1  1
 22 21  1  0
 24 23  1  6
 24 26  1  0
 24 25  1  0
 25 18  1  0
 26 28  1  0
 27 26  2  0
M  END
$$$$
