HKL.pdb
     RDKit          3D

 28 28  0  0  1  0  0  0  0  0999 V2000
   18.8831  -14.0432  -19.8638 N   0  0  0  0  0  0  0  0  0  0  0  0
   18.5458  -13.8468  -18.4299 C   0  0  1  0  0  0  0  0  0  0  0  0
   19.5458  -14.5777  -17.6029 C   0  0  0  0  0  0  0  0  0  0  0  0
   19.5437  -16.0403  -17.7389 C   0  0  0  0  0  0  0  0  0  0  0  0
   20.5341  -16.8356  -18.2967 C   0  0  0  0  0  0  0  0  0  0  0  0
   20.1373  -18.1134  -18.2225 N   0  0  0  0  0  0  0  0  0  0  0  0
   18.9356  -18.1685  -17.6410 C   0  0  0  0  0  0  0  0  0  0  0  0
   18.5960  -16.8831  -17.3551 N   0  0  0  0  0  0  0  0  0  0  0  0
   18.5262  -12.3625  -18.1739 C   0  0  0  0  0  0  0  0  0  0  0  0
   19.4436  -11.5862  -18.5142 O   0  0  0  0  0  0  0  0  0  0  0  0
   17.4195  -11.7569  -17.5080 N   0  0  0  0  0  0  0  0  0  0  0  0
   17.3600  -10.2967  -17.2859 C   0  0  1  0  0  0  0  0  0  0  0  0
   15.9625   -9.8596  -17.0387 C   0  0  0  0  0  0  0  0  0  0  0  0
   15.8698   -8.3753  -16.8375 C   0  0  0  0  0  0  0  0  0  0  0  0
   14.4455   -7.8841  -16.6787 C   0  0  0  0  0  0  0  0  0  0  0  0
   14.4742   -6.3795  -16.4800 C   0  0  0  0  0  0  0  0  0  0  0  0
   13.1369   -5.8339  -16.5044 N   0  0  0  0  0  0  0  0  0  0  0  0
   18.2871  -10.0560  -16.1484 C   0  0  0  0  0  0  0  0  0  0  0  0
   18.4144  -10.8937  -15.1934 O   0  0  0  0  0  0  0  0  0  0  0  0
   22.4277  -10.2927  -13.3394 C   0  0  0  0  0  0  0  0  0  0  0  0
   22.5481   -9.7256  -14.7427 C   0  0  2  0  0  0  0  0  0  0  0  0
   23.4086   -8.5277  -14.7841 C   0  0  0  0  0  0  0  0  0  0  0  0
   21.2960   -9.7445  -15.5179 C   0  0  0  0  0  0  0  0  0  0  0  0
   20.2009   -8.8243  -15.0913 C   0  0  2  0  0  0  0  0  0  0  0  0
   19.0869   -8.8973  -16.0397 N   0  0  0  0  0  0  0  0  0  0  0  0
   20.5908   -7.4400  -14.8443 C   0  0  0  0  0  0  0  0  0  0  0  0
   20.5192   -6.4714  -15.6309 O   0  0  0  0  0  0  0  0  0  0  0  0
   21.1207   -7.1142  -13.5656 O   0  0  0  0  0  0  0  0  0  0  0  0
  2  1  1  6
  3  2  1  0
  4  5  2  0
  4  3  1  0
  6  5  1  0
  7  8  2  0
  7  6  1  0
  8  4  1  0
  9 11  1  0
  9  2  1  0
 10  9  2  0
 12 11  1  0
 12 13  1  1
 13 14  1  0
 14 15  1  0
 15 16  1  0
 17 16  1  0
 18 12  1  0
 19 18  2  0
 21 23  1  0
 21 20  1  1
 22 21  1  0
 24 23  1  6
 24 26  1  0
 24 25  1  0
 25 18  1  0
 26 28  1  0
 27 26  2  0
M  END
$$$$
