HKL.pdb
     RDKit          3D

 28 28  0  0  1  0  0  0  0  0999 V2000
   18.6686  -21.2474  -13.5411 N   0  0  0  0  0  0  0  0  0  0  0  0
   19.6202  -21.5070  -14.6526 C   0  0  1  0  0  0  0  0  0  0  0  0
   18.8907  -21.3692  -15.9437 C   0  0  0  0  0  0  0  0  0  0  0  0
   17.8275  -22.3531  -16.1872 C   0  0  0  0  0  0  0  0  0  0  0  0
   16.4612  -22.1732  -16.0281 C   0  0  0  0  0  0  0  0  0  0  0  0
   15.8464  -23.3176  -16.3573 N   0  0  0  0  0  0  0  0  0  0  0  0
   16.7617  -24.2208  -16.7199 C   0  0  0  0  0  0  0  0  0  0  0  0
   17.9674  -23.6023  -16.6061 N   0  0  0  0  0  0  0  0  0  0  0  0
   20.7607  -20.5344  -14.5017 C   0  0  0  0  0  0  0  0  0  0  0  0
   20.6189  -19.2936  -14.4875 O   0  0  0  0  0  0  0  0  0  0  0  0
   22.1003  -21.0049  -14.3633 N   0  0  0  0  0  0  0  0  0  0  0  0
   23.2392  -20.0676  -14.2675 C   0  0  1  0  0  0  0  0  0  0  0  0
   24.1747  -20.4858  -13.1928 C   0  0  0  0  0  0  0  0  0  0  0  0
   23.5879  -20.2717  -11.8282 C   0  0  0  0  0  0  0  0  0  0  0  0
   24.4780  -20.7777  -10.7116 C   0  0  0  0  0  0  0  0  0  0  0  0
   23.7851  -20.5152   -9.3868 C   0  0  0  0  0  0  0  0  0  0  0  0
   24.5646  -21.0375   -8.2885 N   0  0  0  0  0  0  0  0  0  0  0  0
   23.8340  -20.0654  -15.6305 C   0  0  0  0  0  0  0  0  0  0  0  0
   23.8968  -21.1246  -16.3404 O   0  0  0  0  0  0  0  0  0  0  0  0
   23.7665  -19.5461  -20.5030 C   0  0  0  0  0  0  0  0  0  0  0  0
   22.6830  -18.9397  -19.6292 C   0  0  2  0  0  0  0  0  0  0  0  0
   22.1717  -17.6706  -20.1816 C   0  0  0  0  0  0  0  0  0  0  0  0
   22.9329  -19.0507  -18.1821 C   0  0  0  0  0  0  0  0  0  0  0  0
   24.2946  -18.6974  -17.6831 C   0  0  2  0  0  0  0  0  0  0  0  0
   24.3677  -18.9062  -16.2350 N   0  0  0  0  0  0  0  0  0  0  0  0
   24.7838  -17.3720  -18.0482 C   0  0  0  0  0  0  0  0  0  0  0  0
   25.6769  -17.0852  -18.8743 O   0  0  0  0  0  0  0  0  0  0  0  0
   24.1983  -16.2451  -17.4085 O   0  0  0  0  0  0  0  0  0  0  0  0
  2  1  1  1
  3  2  1  0
  4  5  2  0
  4  3  1  0
  6  5  1  0
  7  8  2  0
  7  6  1  0
  8  4  1  0
  9 11  1  0
  9  2  1  0
 10  9  2  0
 12 11  1  0
 12 13  1  1
 13 14  1  0
 14 15  1  0
 15 16  1  0
 17 16  1  0
 18 12  1  0
 19 18  2  0
 21 23  1  0
 21 20  1  6
 22 21  1  0
 24 23  1  1
 24 26  1  0
 24 25  1  0
 25 18  1  0
 26 28  1  0
 27 26  2  0
M  END
$$$$
