FWG.pdb
     RDKit          3D

 30 32  0  0  1  0  0  0  0  0999 V2000
   27.8992  -31.6115  -21.6147 N   0  0  0  0  0  0  0  0  0  0  0  0
   27.1843  -31.2863  -20.4211 C   0  0  1  0  0  0  0  0  0  0  0  0
   25.7436  -31.6708  -20.5027 C   0  0  0  0  0  0  0  0  0  0  0  0
   25.0663  -30.8367  -21.5145 C   0  0  0  0  0  0  0  0  0  0  0  0
   24.8147  -29.5232  -21.2397 C   0  0  0  0  0  0  0  0  0  0  0  0
   24.1794  -28.7732  -22.2050 C   0  0  0  0  0  0  0  0  0  0  0  0
   23.8129  -29.3415  -23.4090 C   0  0  0  0  0  0  0  0  0  0  0  0
   24.0693  -30.6788  -23.6880 C   0  0  0  0  0  0  0  0  0  0  0  0
   24.7045  -31.4073  -22.7090 C   0  0  0  0  0  0  0  0  0  0  0  0
   27.8473  -31.8442  -19.2061 C   0  0  0  0  0  0  0  0  0  0  0  0
   28.4752  -32.9537  -19.2862 O   0  0  0  0  0  0  0  0  0  0  0  0
   27.8409  -31.2329  -17.9355 N   0  0  0  0  0  0  0  0  0  0  0  0
   28.5168  -31.7624  -16.7791 C   0  0  1  0  0  0  0  0  0  0  0  0
   29.4887  -30.8021  -16.1959 C   0  0  0  0  0  0  0  0  0  0  0  0
   30.7399  -30.6380  -16.9578 C   0  0  0  0  0  0  0  0  0  0  0  0
   30.9660  -29.6737  -17.9316 C   0  0  0  0  0  0  0  0  0  0  0  0
   32.1978  -29.8231  -18.4362 N   0  0  0  0  0  0  0  0  0  0  0  0
   32.8069  -30.8594  -17.8298 C   0  0  0  0  0  0  0  0  0  0  0  0
   34.0727  -31.3790  -18.0114 C   0  0  0  0  0  0  0  0  0  0  0  0
   34.4338  -32.4520  -17.2308 C   0  0  0  0  0  0  0  0  0  0  0  0
   33.5563  -32.9923  -16.2942 C   0  0  0  0  0  0  0  0  0  0  0  0
   32.3044  -32.4348  -16.1545 C   0  0  0  0  0  0  0  0  0  0  0  0
   31.9049  -31.3681  -16.9106 C   0  0  0  0  0  0  0  0  0  0  0  0
   27.5397  -32.2972  -15.7889 C   0  0  0  0  0  0  0  0  0  0  0  0
   26.5103  -31.6316  -15.5408 O   0  0  0  0  0  0  0  0  0  0  0  0
   27.7351  -33.5334  -15.1187 N   0  0  0  0  0  0  0  0  0  0  0  0
   26.9280  -33.9684  -13.9990 C   0  0  0  0  0  0  0  0  0  0  0  0
   25.7107  -34.6825  -14.4099 C   0  0  0  0  0  0  0  0  0  0  0  0
   25.4592  -34.7852  -15.6359 O   0  0  0  0  0  0  0  0  0  0  0  0
   24.8374  -35.2416  -13.5049 O   0  0  0  0  0  0  0  0  0  0  0  0
  2  1  1  6
  2  3  1  0
  2 10  1  0
  3  4  1  0
  4  5  2  0
  4  9  1  0
  5  6  1  0
  6  7  2  0
  8  7  1  0
  9  8  2  0
 10 11  2  0
 12 10  1  0
 12 13  1  0
 13 14  1  1
 14 15  1  0
 15 16  2  0
 16 17  1  0
 18 17  1  0
 19 18  2  0
 20 19  1  0
 21 22  1  0
 21 20  2  0
 22 23  2  0
 23 15  1  0
 23 18  1  0
 24 13  1  0
 24 25  2  0
 26 24  1  0
 27 26  1  0
 27 28  1  0
 28 29  2  0
 28 30  1  0
M  END
$$$$
