FWG.pdb
     RDKit          3D

 30 32  0  0  1  0  0  0  0  0999 V2000
   27.7438  -21.1344  -15.1269 N   0  0  0  0  0  0  0  0  0  0  0  0
   27.4409  -20.0993  -14.1898 C   0  0  1  0  0  0  0  0  0  0  0  0
   26.5423  -19.0569  -14.7698 C   0  0  0  0  0  0  0  0  0  0  0  0
   27.2919  -18.2494  -15.7518 C   0  0  0  0  0  0  0  0  0  0  0  0
   27.0900  -18.4603  -17.0855 C   0  0  0  0  0  0  0  0  0  0  0  0
   27.8069  -17.6909  -17.9753 C   0  0  0  0  0  0  0  0  0  0  0  0
   28.6991  -16.7391  -17.5222 C   0  0  0  0  0  0  0  0  0  0  0  0
   28.9042  -16.5250  -16.1643 C   0  0  0  0  0  0  0  0  0  0  0  0
   28.1771  -17.3053  -15.2953 C   0  0  0  0  0  0  0  0  0  0  0  0
   26.9112  -20.6478  -12.9070 C   0  0  0  0  0  0  0  0  0  0  0  0
   26.0085  -21.5510  -12.9348 O   0  0  0  0  0  0  0  0  0  0  0  0
   27.3347  -20.2426  -11.6245 N   0  0  0  0  0  0  0  0  0  0  0  0
   26.7293  -20.6850  -10.3948 C   0  0  1  0  0  0  0  0  0  0  0  0
   27.5256  -20.3093   -9.1984 C   0  0  0  0  0  0  0  0  0  0  0  0
   26.8816  -20.5947   -7.9034 C   0  0  0  0  0  0  0  0  0  0  0  0
   25.6657  -21.2453   -7.7379 C   0  0  0  0  0  0  0  0  0  0  0  0
   25.3670  -21.3172   -6.4341 N   0  0  0  0  0  0  0  0  0  0  0  0
   26.3469  -20.7344   -5.7179 C   0  0  0  0  0  0  0  0  0  0  0  0
   26.4795  -20.5764   -4.3531 C   0  0  0  0  0  0  0  0  0  0  0  0
   27.6100  -19.9402   -3.8970 C   0  0  0  0  0  0  0  0  0  0  0  0
   28.5823  -19.4740   -4.7782 C   0  0  0  0  0  0  0  0  0  0  0  0
   28.3990  -19.6579   -6.1311 C   0  0  0  0  0  0  0  0  0  0  0  0
   27.2897  -20.2846   -6.6268 C   0  0  0  0  0  0  0  0  0  0  0  0
   25.3030  -20.2593  -10.3194 C   0  0  0  0  0  0  0  0  0  0  0  0
   25.0450  -19.0415  -10.1983 O   0  0  0  0  0  0  0  0  0  0  0  0
   24.2284  -21.1851  -10.3807 N   0  0  0  0  0  0  0  0  0  0  0  0
   22.8668  -20.8053  -10.6905 C   0  0  0  0  0  0  0  0  0  0  0  0
   21.9919  -20.7848   -9.5095 C   0  0  0  0  0  0  0  0  0  0  0  0
   21.4294  -19.7065   -9.1971 O   0  0  0  0  0  0  0  0  0  0  0  0
   21.7660  -21.8993   -8.7342 O   0  0  0  0  0  0  0  0  0  0  0  0
  2  1  1  6
  2  3  1  0
  2 10  1  0
  3  4  1  0
  4  5  2  0
  4  9  1  0
  5  6  1  0
  6  7  2  0
  8  7  1  0
  9  8  2  0
 10 11  2  0
 12 10  1  0
 12 13  1  0
 13 14  1  1
 14 15  1  0
 15 16  2  0
 16 17  1  0
 18 17  1  0
 19 18  2  0
 20 19  1  0
 21 22  1  0
 21 20  2  0
 22 23  2  0
 23 15  1  0
 23 18  1  0
 24 13  1  0
 24 25  2  0
 26 24  1  0
 27 26  1  0
 27 28  1  0
 28 29  2  0
 28 30  1  0
M  END
$$$$
