FWG.pdb
     RDKit          3D

 30 32  0  0  1  0  0  0  0  0999 V2000
   28.7121  -20.8473   -8.6405 N   0  0  0  0  0  0  0  0  0  0  0  0
   27.3087  -20.5871   -8.5758 C   0  0  1  0  0  0  0  0  0  0  0  0
   26.9948  -19.3817   -7.7519 C   0  0  0  0  0  0  0  0  0  0  0  0
   27.4560  -19.5967   -6.3664 C   0  0  0  0  0  0  0  0  0  0  0  0
   28.5367  -18.9015   -5.9051 C   0  0  0  0  0  0  0  0  0  0  0  0
   28.9421  -19.1270   -4.6080 C   0  0  0  0  0  0  0  0  0  0  0  0
   28.2698  -20.0298   -3.8080 C   0  0  0  0  0  0  0  0  0  0  0  0
   27.1697  -20.7372   -4.2783 C   0  0  0  0  0  0  0  0  0  0  0  0
   26.7838  -20.4952   -5.5764 C   0  0  0  0  0  0  0  0  0  0  0  0
   26.6930  -20.5162   -9.9333 C   0  0  0  0  0  0  0  0  0  0  0  0
   27.1165  -19.6501  -10.7712 O   0  0  0  0  0  0  0  0  0  0  0  0
   25.6498  -21.3497  -10.3866 N   0  0  0  0  0  0  0  0  0  0  0  0
   25.1045  -21.3120  -11.7191 C   0  0  1  0  0  0  0  0  0  0  0  0
   25.4948  -22.4940  -12.5298 C   0  0  0  0  0  0  0  0  0  0  0  0
   24.9412  -22.5261  -13.8957 C   0  0  0  0  0  0  0  0  0  0  0  0
   24.7880  -21.4231  -14.7257 C   0  0  0  0  0  0  0  0  0  0  0  0
   24.2355  -21.8047  -15.8848 N   0  0  0  0  0  0  0  0  0  0  0  0
   24.0132  -23.1323  -15.8587 C   0  0  0  0  0  0  0  0  0  0  0  0
   23.4737  -23.9643  -16.8188 C   0  0  0  0  0  0  0  0  0  0  0  0
   23.3763  -25.3017  -16.5144 C   0  0  0  0  0  0  0  0  0  0  0  0
   23.8055  -25.7963  -15.2854 C   0  0  0  0  0  0  0  0  0  0  0  0
   24.3360  -24.9213  -14.3632 C   0  0  0  0  0  0  0  0  0  0  0  0
   24.4505  -23.5842  -14.6250 C   0  0  0  0  0  0  0  0  0  0  0  0
   23.6341  -21.0703  -11.6868 C   0  0  0  0  0  0  0  0  0  0  0  0
   22.9470  -21.6612  -10.8248 O   0  0  0  0  0  0  0  0  0  0  0  0
   22.9869  -20.1946  -12.5975 N   0  0  0  0  0  0  0  0  0  0  0  0
   21.5811  -19.8600  -12.5180 C   0  0  0  0  0  0  0  0  0  0  0  0
   20.7029  -20.9575  -12.9478 C   0  0  0  0  0  0  0  0  0  0  0  0
   21.1146  -21.7437  -13.8362 O   0  0  0  0  0  0  0  0  0  0  0  0
   19.4494  -21.1565  -12.4155 O   0  0  0  0  0  0  0  0  0  0  0  0
  2  1  1  6
  2  3  1  0
  2 10  1  0
  3  4  1  0
  4  5  2  0
  4  9  1  0
  5  6  1  0
  6  7  2  0
  8  7  1  0
  9  8  2  0
 10 11  2  0
 12 10  1  0
 12 13  1  0
 13 14  1  1
 14 15  1  0
 15 16  2  0
 16 17  1  0
 18 17  1  0
 19 18  2  0
 20 19  1  0
 21 22  1  0
 21 20  2  0
 22 23  2  0
 23 15  1  0
 23 18  1  0
 24 13  1  0
 24 25  2  0
 26 24  1  0
 27 26  1  0
 27 28  1  0
 28 29  2  0
 28 30  1  0
M  END
$$$$
