FWG.pdb
     RDKit          3D

 30 32  0  0  1  0  0  0  0  0999 V2000
   26.9768  -21.9345   -8.8724 N   0  0  0  0  0  0  0  0  0  0  0  0
   26.4109  -20.6266   -8.9753 C   0  0  1  0  0  0  0  0  0  0  0  0
   27.3803  -19.5591   -8.5866 C   0  0  0  0  0  0  0  0  0  0  0  0
   27.7545  -19.7243   -7.1686 C   0  0  0  0  0  0  0  0  0  0  0  0
   28.9828  -20.2313   -6.8550 C   0  0  0  0  0  0  0  0  0  0  0  0
   29.2997  -20.3741   -5.5220 C   0  0  0  0  0  0  0  0  0  0  0  0
   28.3966  -20.0129   -4.5417 C   0  0  0  0  0  0  0  0  0  0  0  0
   27.1463  -19.4968   -4.8617 C   0  0  0  0  0  0  0  0  0  0  0  0
   26.8526  -19.3635   -6.1991 C   0  0  0  0  0  0  0  0  0  0  0  0
   25.8156  -20.3825  -10.3218 C   0  0  0  0  0  0  0  0  0  0  0  0
   25.3715  -19.2204  -10.6115 O   0  0  0  0  0  0  0  0  0  0  0  0
   25.6970  -21.3552  -11.3358 N   0  0  0  0  0  0  0  0  0  0  0  0
   24.9968  -21.1489  -12.5774 C   0  0  1  0  0  0  0  0  0  0  0  0
   25.8210  -21.4982  -13.7629 C   0  0  0  0  0  0  0  0  0  0  0  0
   26.9432  -20.5823  -14.0365 C   0  0  0  0  0  0  0  0  0  0  0  0
   28.2890  -20.9037  -13.9160 C   0  0  0  0  0  0  0  0  0  0  0  0
   29.0365  -19.8343  -14.2193 N   0  0  0  0  0  0  0  0  0  0  0  0
   28.2325  -18.8032  -14.5409 C   0  0  0  0  0  0  0  0  0  0  0  0
   28.5462  -17.5153  -14.9256 C   0  0  0  0  0  0  0  0  0  0  0  0
   27.5011  -16.6671  -15.2070 C   0  0  0  0  0  0  0  0  0  0  0  0
   26.1786  -17.0918  -15.1074 C   0  0  0  0  0  0  0  0  0  0  0  0
   25.9224  -18.3881  -14.7184 C   0  0  0  0  0  0  0  0  0  0  0  0
   26.9316  -19.2639  -14.4288 C   0  0  0  0  0  0  0  0  0  0  0  0
   23.6665  -21.8206  -12.5573 C   0  0  0  0  0  0  0  0  0  0  0  0
   23.5936  -22.9968  -12.1385 O   0  0  0  0  0  0  0  0  0  0  0  0
   22.4810  -21.1738  -12.9952 N   0  0  0  0  0  0  0  0  0  0  0  0
   21.2087  -21.8500  -13.1310 C   0  0  0  0  0  0  0  0  0  0  0  0
   20.1313  -20.9624  -13.5914 C   0  0  0  0  0  0  0  0  0  0  0  0
   20.3917  -19.7483  -13.7787 O   0  0  0  0  0  0  0  0  0  0  0  0
   18.8506  -21.4093  -13.8244 O   0  0  0  0  0  0  0  0  0  0  0  0
  2  1  1  6
  2  3  1  0
  2 10  1  0
  3  4  1  0
  4  5  2  0
  4  9  1  0
  5  6  1  0
  6  7  2  0
  8  7  1  0
  9  8  2  0
 10 11  2  0
 12 10  1  0
 12 13  1  0
 13 14  1  6
 14 15  1  0
 15 16  2  0
 16 17  1  0
 18 17  1  0
 19 18  2  0
 20 19  1  0
 21 22  1  0
 21 20  2  0
 22 23  2  0
 23 15  1  0
 23 18  1  0
 24 13  1  0
 24 25  2  0
 26 24  1  0
 27 26  1  0
 27 28  1  0
 28 29  2  0
 28 30  1  0
M  END
$$$$
