FWG.pdb
     RDKit          3D

 30 32  0  0  1  0  0  0  0  0999 V2000
   25.6304  -18.2357  -17.6073 N   0  0  0  0  0  0  0  0  0  0  0  0
   25.1690  -17.9436  -16.2869 C   0  0  1  0  0  0  0  0  0  0  0  0
   24.5204  -16.6013  -16.1989 C   0  0  0  0  0  0  0  0  0  0  0  0
   25.5375  -15.5481  -16.3853 C   0  0  0  0  0  0  0  0  0  0  0  0
   26.3656  -15.2262  -15.3487 C   0  0  0  0  0  0  0  0  0  0  0  0
   27.3025  -14.2376  -15.5555 C   0  0  0  0  0  0  0  0  0  0  0  0
   27.3930  -13.5988  -16.7764 C   0  0  0  0  0  0  0  0  0  0  0  0
   26.5496  -13.9271  -17.8313 C   0  0  0  0  0  0  0  0  0  0  0  0
   25.6224  -14.9169  -17.6009 C   0  0  0  0  0  0  0  0  0  0  0  0
   24.2938  -19.0272  -15.7511 C   0  0  0  0  0  0  0  0  0  0  0  0
   23.3897  -19.5323  -16.4986 O   0  0  0  0  0  0  0  0  0  0  0  0
   24.3813  -19.5596  -14.4483 N   0  0  0  0  0  0  0  0  0  0  0  0
   23.5959  -20.6694  -13.9731 C   0  0  1  0  0  0  0  0  0  0  0  0
   24.4303  -21.7532  -13.3936 C   0  0  0  0  0  0  0  0  0  0  0  0
   25.4009  -22.3601  -14.3224 C   0  0  0  0  0  0  0  0  0  0  0  0
   26.4257  -21.6811  -14.9688 C   0  0  0  0  0  0  0  0  0  0  0  0
   27.1028  -22.5291  -15.7542 N   0  0  0  0  0  0  0  0  0  0  0  0
   26.5635  -23.7587  -15.6544 C   0  0  0  0  0  0  0  0  0  0  0  0
   26.9253  -24.9423  -16.2653 C   0  0  0  0  0  0  0  0  0  0  0  0
   26.1874  -26.0622  -15.9614 C   0  0  0  0  0  0  0  0  0  0  0  0
   25.1174  -26.0032  -15.0721 C   0  0  0  0  0  0  0  0  0  0  0  0
   24.7993  -24.7955  -14.4911 C   0  0  0  0  0  0  0  0  0  0  0  0
   25.5064  -23.6580  -14.7659 C   0  0  0  0  0  0  0  0  0  0  0  0
   22.5092  -20.2037  -13.0656 C   0  0  0  0  0  0  0  0  0  0  0  0
   22.8189  -19.7388  -11.9466 O   0  0  0  0  0  0  0  0  0  0  0  0
   21.1375  -20.2683  -13.4256 N   0  0  0  0  0  0  0  0  0  0  0  0
   20.5072  -21.4607  -13.9502 C   0  0  0  0  0  0  0  0  0  0  0  0
   19.8675  -22.2789  -12.9101 C   0  0  0  0  0  0  0  0  0  0  0  0
   20.5952  -22.8368  -12.0523 O   0  0  0  0  0  0  0  0  0  0  0  0
   18.5045  -22.4570  -12.8402 O   0  0  0  0  0  0  0  0  0  0  0  0
  2  1  1  6
  2  3  1  0
  2 10  1  0
  3  4  1  0
  4  5  2  0
  4  9  1  0
  5  6  1  0
  6  7  2  0
  8  7  1  0
  9  8  2  0
 10 11  2  0
 12 10  1  0
 12 13  1  0
 13 14  1  1
 14 15  1  0
 15 16  2  0
 16 17  1  0
 18 17  1  0
 19 18  2  0
 20 19  1  0
 21 22  1  0
 21 20  2  0
 22 23  2  0
 23 15  1  0
 23 18  1  0
 24 13  1  0
 24 25  2  0
 26 24  1  0
 27 26  1  0
 27 28  1  0
 28 29  2  0
 28 30  1  0
M  END
$$$$
