FWG.pdb
     RDKit          3D

 30 32  0  0  1  0  0  0  0  0999 V2000
   21.5939  -20.4315  -12.5544 N   0  0  0  0  0  0  0  0  0  0  0  0
   22.6264  -20.2289  -13.5210 C   0  0  1  0  0  0  0  0  0  0  0  0
   22.2801  -19.1572  -14.5018 C   0  0  0  0  0  0  0  0  0  0  0  0
   21.5997  -19.7552  -15.6671 C   0  0  0  0  0  0  0  0  0  0  0  0
   22.3470  -20.2904  -16.6766 C   0  0  0  0  0  0  0  0  0  0  0  0
   21.6807  -20.8389  -17.7504 C   0  0  0  0  0  0  0  0  0  0  0  0
   20.3004  -20.8422  -17.7945 C   0  0  0  0  0  0  0  0  0  0  0  0
   19.5404  -20.2972  -16.7663 C   0  0  0  0  0  0  0  0  0  0  0  0
   20.2279  -19.7554  -15.7050 C   0  0  0  0  0  0  0  0  0  0  0  0
   23.9525  -19.9952  -12.8777 C   0  0  0  0  0  0  0  0  0  0  0  0
   24.1449  -18.9270  -12.2043 O   0  0  0  0  0  0  0  0  0  0  0  0
   25.0477  -20.8804  -12.9507 N   0  0  0  0  0  0  0  0  0  0  0  0
   26.3466  -20.6089  -12.3908 C   0  0  1  0  0  0  0  0  0  0  0  0
   26.6754  -21.5024  -11.2506 C   0  0  0  0  0  0  0  0  0  0  0  0
   26.4774  -20.9109   -9.9149 C   0  0  0  0  0  0  0  0  0  0  0  0
   25.2778  -20.4052   -9.4309 C   0  0  0  0  0  0  0  0  0  0  0  0
   25.4577  -19.9255   -8.1932 N   0  0  0  0  0  0  0  0  0  0  0  0
   26.7432  -20.0943   -7.8306 C   0  0  0  0  0  0  0  0  0  0  0  0
   27.3876  -19.7662   -6.6548 C   0  0  0  0  0  0  0  0  0  0  0  0
   28.7249  -20.0719   -6.5601 C   0  0  0  0  0  0  0  0  0  0  0  0
   29.4016  -20.6882   -7.6096 C   0  0  0  0  0  0  0  0  0  0  0  0
   28.7097  -20.9933   -8.7610 C   0  0  0  0  0  0  0  0  0  0  0  0
   27.3799  -20.7063   -8.8971 C   0  0  0  0  0  0  0  0  0  0  0  0
   27.3916  -20.5891  -13.4533 C   0  0  0  0  0  0  0  0  0  0  0  0
   27.7394  -21.6716  -13.9742 O   0  0  0  0  0  0  0  0  0  0  0  0
   28.0050  -19.3873  -13.8949 N   0  0  0  0  0  0  0  0  0  0  0  0
   28.9930  -19.3389  -14.9512 C   0  0  0  0  0  0  0  0  0  0  0  0
   28.4024  -19.4073  -16.2954 C   0  0  0  0  0  0  0  0  0  0  0  0
   27.2583  -18.9218  -16.4745 O   0  0  0  0  0  0  0  0  0  0  0  0
   29.0533  -19.9819  -17.3633 O   0  0  0  0  0  0  0  0  0  0  0  0
  2  1  1  1
  2  3  1  0
  2 10  1  0
  3  4  1  0
  4  5  2  0
  4  9  1  0
  5  6  1  0
  6  7  2  0
  8  7  1  0
  9  8  2  0
 10 11  2  0
 12 10  1  0
 12 13  1  0
 13 14  1  1
 14 15  1  0
 15 16  2  0
 16 17  1  0
 18 17  1  0
 19 18  2  0
 20 19  1  0
 21 22  1  0
 21 20  2  0
 22 23  2  0
 23 15  1  0
 23 18  1  0
 24 13  1  0
 24 25  2  0
 26 24  1  0
 27 26  1  0
 27 28  1  0
 28 29  2  0
 28 30  1  0
M  END
$$$$
