FWG.pdb
     RDKit          3D

 30 32  0  0  1  0  0  0  0  0999 V2000
   24.8249  -20.1362   -7.5696 N   0  0  0  0  0  0  0  0  0  0  0  0
   26.0680  -20.1151   -8.2738 C   0  0  1  0  0  0  0  0  0  0  0  0
   27.0377  -21.1170   -7.7389 C   0  0  0  0  0  0  0  0  0  0  0  0
   27.7500  -20.5449   -6.5797 C   0  0  0  0  0  0  0  0  0  0  0  0
   28.8973  -19.8334   -6.7835 C   0  0  0  0  0  0  0  0  0  0  0  0
   29.5383  -19.3145   -5.6799 C   0  0  0  0  0  0  0  0  0  0  0  0
   29.0282  -19.5135   -4.4122 C   0  0  0  0  0  0  0  0  0  0  0  0
   27.8601  -20.2380   -4.2055 C   0  0  0  0  0  0  0  0  0  0  0  0
   27.2380  -20.7461   -5.3224 C   0  0  0  0  0  0  0  0  0  0  0  0
   25.8748  -20.2507   -9.7474 C   0  0  0  0  0  0  0  0  0  0  0  0
   24.7507  -20.6549  -10.1994 O   0  0  0  0  0  0  0  0  0  0  0  0
   26.8578  -19.9616  -10.7162 N   0  0  0  0  0  0  0  0  0  0  0  0
   26.5689  -19.6127  -12.0834 C   0  0  1  0  0  0  0  0  0  0  0  0
   27.6483  -18.8050  -12.7072 C   0  0  0  0  0  0  0  0  0  0  0  0
   27.3798  -18.3617  -14.0872 C   0  0  0  0  0  0  0  0  0  0  0  0
   26.6264  -17.2498  -14.4408 C   0  0  0  0  0  0  0  0  0  0  0  0
   26.5661  -17.1522  -15.7754 N   0  0  0  0  0  0  0  0  0  0  0  0
   27.2575  -18.1658  -16.3297 C   0  0  0  0  0  0  0  0  0  0  0  0
   27.4805  -18.4710  -17.6572 C   0  0  0  0  0  0  0  0  0  0  0  0
   28.2465  -19.5797  -17.9312 C   0  0  0  0  0  0  0  0  0  0  0  0
   28.7758  -20.3630  -16.9088 C   0  0  0  0  0  0  0  0  0  0  0  0
   28.5216  -20.0129  -15.6010 C   0  0  0  0  0  0  0  0  0  0  0  0
   27.7648  -18.9191  -15.2845 C   0  0  0  0  0  0  0  0  0  0  0  0
   26.1946  -20.8195  -12.8738 C   0  0  0  0  0  0  0  0  0  0  0  0
   26.8695  -21.8631  -12.7331 O   0  0  0  0  0  0  0  0  0  0  0  0
   25.1009  -20.8270  -13.7790 N   0  0  0  0  0  0  0  0  0  0  0  0
   24.6386  -22.0176  -14.4595 C   0  0  0  0  0  0  0  0  0  0  0  0
   25.1161  -22.1099  -15.8466 C   0  0  0  0  0  0  0  0  0  0  0  0
   24.4892  -21.4893  -16.7404 O   0  0  0  0  0  0  0  0  0  0  0  0
   26.2211  -22.8488  -16.2032 O   0  0  0  0  0  0  0  0  0  0  0  0
  2  1  1  1
  2  3  1  0
  2 10  1  0
  3  4  1  0
  4  5  2  0
  4  9  1  0
  5  6  1  0
  6  7  2  0
  8  7  1  0
  9  8  2  0
 10 11  2  0
 12 10  1  0
 12 13  1  0
 13 14  1  6
 14 15  1  0
 15 16  2  0
 16 17  1  0
 18 17  1  0
 19 18  2  0
 20 19  1  0
 21 22  1  0
 21 20  2  0
 22 23  2  0
 23 15  1  0
 23 18  1  0
 24 13  1  0
 24 25  2  0
 26 24  1  0
 27 26  1  0
 27 28  1  0
 28 29  2  0
 28 30  1  0
M  END
$$$$
