FWG.pdb
     RDKit          3D

 30 32  0  0  1  0  0  0  0  0999 V2000
   26.3507  -17.5327  -14.2488 N   0  0  0  0  0  0  0  0  0  0  0  0
   25.4724  -18.4888  -13.6522 C   0  0  1  0  0  0  0  0  0  0  0  0
   24.5132  -19.0682  -14.6395 C   0  0  0  0  0  0  0  0  0  0  0  0
   23.3509  -18.1703  -14.7844 C   0  0  0  0  0  0  0  0  0  0  0  0
   22.4466  -18.0762  -13.7659 C   0  0  0  0  0  0  0  0  0  0  0  0
   21.3723  -17.2303  -13.9342 C   0  0  0  0  0  0  0  0  0  0  0  0
   21.2241  -16.5051  -15.1000 C   0  0  0  0  0  0  0  0  0  0  0  0
   22.1452  -16.6016  -16.1365 C   0  0  0  0  0  0  0  0  0  0  0  0
   23.2092  -17.4524  -15.9453 C   0  0  0  0  0  0  0  0  0  0  0  0
   26.2212  -19.5445  -12.9095 C   0  0  0  0  0  0  0  0  0  0  0  0
   27.4171  -19.8289  -13.2565 O   0  0  0  0  0  0  0  0  0  0  0  0
   25.7065  -20.2796  -11.8218 N   0  0  0  0  0  0  0  0  0  0  0  0
   26.4402  -21.2956  -11.1119 C   0  0  1  0  0  0  0  0  0  0  0  0
   26.0018  -21.4352   -9.6994 C   0  0  0  0  0  0  0  0  0  0  0  0
   26.4452  -20.3569   -8.7973 C   0  0  0  0  0  0  0  0  0  0  0  0
   25.8554  -19.1037   -8.6940 C   0  0  0  0  0  0  0  0  0  0  0  0
   26.5221  -18.3645   -7.7976 N   0  0  0  0  0  0  0  0  0  0  0  0
   27.5427  -19.0843   -7.2946 C   0  0  0  0  0  0  0  0  0  0  0  0
   28.4880  -18.7480   -6.3468 C   0  0  0  0  0  0  0  0  0  0  0  0
   29.4194  -19.7039   -6.0156 C   0  0  0  0  0  0  0  0  0  0  0  0
   29.4084  -20.9615   -6.6135 C   0  0  0  0  0  0  0  0  0  0  0  0
   28.4423  -21.2440   -7.5540 C   0  0  0  0  0  0  0  0  0  0  0  0
   27.4982  -20.3225   -7.9128 C   0  0  0  0  0  0  0  0  0  0  0  0
   26.4376  -22.5807  -11.8667 C   0  0  0  0  0  0  0  0  0  0  0  0
   27.1154  -23.5362  -11.4288 O   0  0  0  0  0  0  0  0  0  0  0  0
   25.6939  -22.7589  -13.0629 N   0  0  0  0  0  0  0  0  0  0  0  0
   25.5752  -24.0298  -13.7449 C   0  0  0  0  0  0  0  0  0  0  0  0
   26.3501  -24.0882  -14.9925 C   0  0  0  0  0  0  0  0  0  0  0  0
   26.3734  -25.1666  -15.6355 O   0  0  0  0  0  0  0  0  0  0  0  0
   27.0499  -23.0091  -15.4824 O   0  0  0  0  0  0  0  0  0  0  0  0
  2  1  1  6
  2  3  1  0
  2 10  1  0
  3  4  1  0
  4  5  2  0
  4  9  1  0
  5  6  1  0
  6  7  2  0
  8  7  1  0
  9  8  2  0
 10 11  2  0
 12 10  1  0
 12 13  1  0
 13 14  1  1
 14 15  1  0
 15 16  2  0
 16 17  1  0
 18 17  1  0
 19 18  2  0
 20 19  1  0
 21 22  1  0
 21 20  2  0
 22 23  2  0
 23 15  1  0
 23 18  1  0
 24 13  1  0
 24 25  2  0
 26 24  1  0
 27 26  1  0
 27 28  1  0
 28 29  2  0
 28 30  1  0
M  END
$$$$
