ATR.pdb
     RDKit          3D

 24 23  0  0  1  0  0  0  0  0999 V2000
   19.4813  -12.3191    9.1566 C   0  0  0  0  0  0  0  0  0  0  0  0
   18.7706  -11.3421    8.2411 C   0  0  2  0  0  0  0  0  0  0  0  0
   17.8480  -10.5454    9.0025 N   0  0  0  0  0  0  0  0  0  0  0  0
   18.0358  -12.0355    7.1598 C   0  0  0  0  0  0  0  0  0  0  0  0
   16.7913  -12.2754    7.2815 O   0  0  0  0  0  0  0  0  0  0  0  0
   18.0791  -13.6171    2.5262 C   0  0  0  0  0  0  0  0  0  0  0  0
   18.7886  -12.8485    3.6479 C   0  0  1  0  0  0  0  0  0  0  0  0
   18.8059  -11.5286    3.2689 O   0  0  0  0  0  0  0  0  0  0  0  0
   18.0252  -13.1032    4.9122 C   0  0  2  0  0  0  0  0  0  0  0  0
   18.7278  -12.4298    5.9895 N   0  0  0  0  0  0  0  0  0  0  0  0
   17.9798  -14.5466    5.2421 C   0  0  0  0  0  0  0  0  0  0  0  0
   18.8590  -15.0916    5.9890 O   0  0  0  0  0  0  0  0  0  0  0  0
   14.7522  -22.1905    1.8547 N   0  0  0  0  0  0  0  0  0  0  0  0
   15.4464  -22.2918    3.0843 C   0  0  0  0  0  0  0  0  0  0  0  0
   15.9638  -23.4243    3.4963 N   0  0  0  0  0  0  0  0  0  0  0  0
   15.6414  -21.1958    3.9667 N   0  0  0  0  0  0  0  0  0  0  0  0
   15.6059  -19.8181    3.5256 C   0  0  0  0  0  0  0  0  0  0  0  0
   15.7540  -18.9728    4.7932 C   0  0  0  0  0  0  0  0  0  0  0  0
   15.7441  -17.5100    4.4792 C   0  0  0  0  0  0  0  0  0  0  0  0
   16.9682  -16.8619    5.0656 C   0  0  2  0  0  0  0  0  0  0  0  0
   16.9746  -15.4280    4.7650 N   0  0  0  0  0  0  0  0  0  0  0  0
   18.1702  -17.4098    4.4296 C   0  0  0  0  0  0  0  0  0  0  0  0
   18.9620  -18.3213    5.0954 O   0  0  0  0  0  0  0  0  0  0  0  0
   18.5199  -17.0790    3.2820 O   0  0  0  0  0  0  0  0  0  0  0  0
  2  1  1  1
  2  3  1  0
  4  5  2  0
  4  2  1  0
  7  6  1  6
  7  8  1  0
  7  9  1  0
  9 10  1  1
 10  4  1  0
 11 21  1  0
 11  9  1  0
 12 11  2  0
 14 13  1  0
 15 14  2  0
 16 14  1  0
 17 16  1  0
 18 17  1  0
 19 18  1  0
 20 19  1  6
 20 21  1  0
 22 20  1  0
 23 22  1  0
 24 22  2  0
M  END
$$$$
