ATR.pdb
     RDKit          3D

 24 23  0  0  1  0  0  0  0  0999 V2000
   14.0696  -12.9888  -16.5680 C   0  0  0  0  0  0  0  0  0  0  0  0
   15.3687  -12.8591  -15.7978 C   0  0  2  0  0  0  0  0  0  0  0  0
   15.0966  -12.8290  -14.3869 N   0  0  0  0  0  0  0  0  0  0  0  0
   16.1128  -11.6368  -16.1749 C   0  0  0  0  0  0  0  0  0  0  0  0
   16.5333  -11.4838  -17.3669 O   0  0  0  0  0  0  0  0  0  0  0  0
   16.9579   -6.9760  -15.2444 C   0  0  0  0  0  0  0  0  0  0  0  0
   16.1663   -8.2730  -15.0360 C   0  0  1  0  0  0  0  0  0  0  0  0
   14.9732   -8.1149  -15.6976 O   0  0  0  0  0  0  0  0  0  0  0  0
   17.0059   -9.3955  -15.5660 C   0  0  2  0  0  0  0  0  0  0  0  0
   16.3534  -10.6395  -15.1995 N   0  0  0  0  0  0  0  0  0  0  0  0
   18.3563   -9.4030  -14.9570 C   0  0  0  0  0  0  0  0  0  0  0  0
   18.5268   -9.5936  -13.7070 O   0  0  0  0  0  0  0  0  0  0  0  0
   26.8774   -9.9258  -17.3310 N   0  0  0  0  0  0  0  0  0  0  0  0
   26.6178  -10.7830  -16.2346 C   0  0  0  0  0  0  0  0  0  0  0  0
   27.5843  -11.2843  -15.5034 N   0  0  0  0  0  0  0  0  0  0  0  0
   25.3109  -11.1704  -15.8351 N   0  0  0  0  0  0  0  0  0  0  0  0
   24.1243  -10.8138  -16.5827 C   0  0  0  0  0  0  0  0  0  0  0  0
   23.1585  -10.2058  -15.5626 C   0  0  0  0  0  0  0  0  0  0  0  0
   21.8385   -9.8791  -16.1866 C   0  0  0  0  0  0  0  0  0  0  0  0
   20.8836   -9.4077  -15.1245 C   0  0  2  0  0  0  0  0  0  0  0  0
   19.5508   -9.2028  -15.6973 N   0  0  0  0  0  0  0  0  0  0  0  0
   21.3096   -8.0976  -14.6231 C   0  0  0  0  0  0  0  0  0  0  0  0
   21.9674   -7.9888  -13.4162 O   0  0  0  0  0  0  0  0  0  0  0  0
   21.0972   -7.0469  -15.2554 O   0  0  0  0  0  0  0  0  0  0  0  0
  2  1  1  6
  2  3  1  0
  4  5  2  0
  4  2  1  0
  7  6  1  6
  7  8  1  0
  7  9  1  0
  9 10  1  1
 10  4  1  0
 11 21  1  0
 11  9  1  0
 12 11  2  0
 14 13  1  0
 15 14  2  0
 16 14  1  0
 17 16  1  0
 18 17  1  0
 19 18  1  0
 20 19  1  6
 20 21  1  0
 22 20  1  0
 23 22  1  0
 24 22  2  0
M  END
$$$$
