ATR.pdb
     RDKit          3D

 24 23  0  0  1  0  0  0  0  0999 V2000
   29.1124  -19.9503  -19.4899 C   0  0  0  0  0  0  0  0  0  0  0  0
   28.7056  -20.7310  -18.2560 C   0  0  2  0  0  0  0  0  0  0  0  0
   27.9516  -21.8921  -18.6419 N   0  0  0  0  0  0  0  0  0  0  0  0
   27.8944  -19.9115  -17.3285 C   0  0  0  0  0  0  0  0  0  0  0  0
   28.3657  -18.8311  -16.8472 O   0  0  0  0  0  0  0  0  0  0  0  0
   25.0725  -17.9202  -17.6347 C   0  0  0  0  0  0  0  0  0  0  0  0
   24.5988  -19.0617  -16.7264 C   0  0  1  0  0  0  0  0  0  0  0  0
   23.9882  -19.9835  -17.5410 O   0  0  0  0  0  0  0  0  0  0  0  0
   25.8059  -19.5922  -16.0139 C   0  0  2  0  0  0  0  0  0  0  0  0
   26.5903  -20.3389  -16.9807 N   0  0  0  0  0  0  0  0  0  0  0  0
   25.4323  -20.5251  -14.9256 C   0  0  0  0  0  0  0  0  0  0  0  0
   25.4312  -21.7894  -15.0974 O   0  0  0  0  0  0  0  0  0  0  0  0
   21.0432  -21.1527   -9.3544 N   0  0  0  0  0  0  0  0  0  0  0  0
   21.7544  -21.6909   -8.2549 C   0  0  0  0  0  0  0  0  0  0  0  0
   21.1773  -22.4686   -7.3705 N   0  0  0  0  0  0  0  0  0  0  0  0
   23.1320  -21.4412   -8.0147 N   0  0  0  0  0  0  0  0  0  0  0  0
   23.9294  -20.5726   -8.8537 C   0  0  0  0  0  0  0  0  0  0  0  0
   23.9405  -21.2281  -10.2369 C   0  0  0  0  0  0  0  0  0  0  0  0
   24.6561  -20.3781  -11.2390 C   0  0  0  0  0  0  0  0  0  0  0  0
   24.5813  -21.0275  -12.5935 C   0  0  2  0  0  0  0  0  0  0  0  0
   25.0516  -20.1003  -13.6258 N   0  0  0  0  0  0  0  0  0  0  0  0
   23.1835  -21.3202  -12.9249 C   0  0  0  0  0  0  0  0  0  0  0  0
   22.6632  -22.5803  -12.7191 O   0  0  0  0  0  0  0  0  0  0  0  0
   22.4221  -20.4574  -13.3990 O   0  0  0  0  0  0  0  0  0  0  0  0
  2  1  1  6
  2  3  1  0
  4  5  2  0
  4  2  1  0
  7  6  1  6
  7  8  1  0
  7  9  1  0
  9 10  1  6
 10  4  1  0
 11 21  1  0
 11  9  1  0
 12 11  2  0
 14 13  1  0
 15 14  2  0
 16 14  1  0
 17 16  1  0
 18 17  1  0
 19 18  1  0
 20 19  1  1
 20 21  1  0
 22 20  1  0
 23 22  1  0
 24 22  2  0
M  END
$$$$
