ATR.pdb
     RDKit          3D

 24 23  0  0  1  0  0  0  0  0999 V2000
   20.2408  -32.1321   -5.5950 C   0  0  0  0  0  0  0  0  0  0  0  0
   19.9436  -32.4682   -4.1472 C   0  0  2  0  0  0  0  0  0  0  0  0
   19.9176  -33.8948   -3.9747 N   0  0  0  0  0  0  0  0  0  0  0  0
   18.6499  -31.9021   -3.7048 C   0  0  0  0  0  0  0  0  0  0  0  0
   17.5649  -32.5296   -3.9289 O   0  0  0  0  0  0  0  0  0  0  0  0
   17.4306  -31.5977   -0.5742 C   0  0  0  0  0  0  0  0  0  0  0  0
   17.4677  -30.1311   -1.0215 C   0  0  1  0  0  0  0  0  0  0  0  0
   18.6363  -29.6012   -0.5319 O   0  0  0  0  0  0  0  0  0  0  0  0
   17.3810  -30.1210   -2.5176 C   0  0  2  0  0  0  0  0  0  0  0  0
   18.6286  -30.6574   -3.0308 N   0  0  0  0  0  0  0  0  0  0  0  0
   17.2347  -28.7454   -3.0475 C   0  0  0  0  0  0  0  0  0  0  0  0
   18.2486  -28.0285   -3.3404 O   0  0  0  0  0  0  0  0  0  0  0  0
   14.9861  -23.2742   -8.7481 N   0  0  0  0  0  0  0  0  0  0  0  0
   14.4336  -22.6776   -7.5892 C   0  0  0  0  0  0  0  0  0  0  0  0
   13.9537  -21.4572   -7.6002 N   0  0  0  0  0  0  0  0  0  0  0  0
   14.3510  -23.3353   -6.3329 N   0  0  0  0  0  0  0  0  0  0  0  0
   14.5138  -24.7655   -6.1842 C   0  0  0  0  0  0  0  0  0  0  0  0
   14.3738  -25.0453   -4.6858 C   0  0  0  0  0  0  0  0  0  0  0  0
   14.5421  -26.5009   -4.3833 C   0  0  0  0  0  0  0  0  0  0  0  0
   15.8511  -26.7189   -3.6753 C   0  0  2  0  0  0  0  0  0  0  0  0
   15.9795  -28.1209   -3.2698 N   0  0  0  0  0  0  0  0  0  0  0  0
   15.8776  -25.9390   -2.4342 C   0  0  0  0  0  0  0  0  0  0  0  0
   16.4417  -24.6812   -2.4085 O   0  0  0  0  0  0  0  0  0  0  0  0
   15.4008  -26.3739   -1.3700 O   0  0  0  0  0  0  0  0  0  0  0  0
  2  1  1  6
  2  3  1  0
  4  5  2  0
  4  2  1  0
  7  6  1  6
  7  8  1  0
  7  9  1  0
  9 10  1  6
 10  4  1  0
 11 21  1  0
 11  9  1  0
 12 11  2  0
 14 13  1  0
 15 14  2  0
 16 14  1  0
 17 16  1  0
 18 17  1  0
 19 18  1  0
 20 19  1  1
 20 21  1  0
 22 20  1  0
 23 22  1  0
 24 22  2  0
M  END
$$$$
