ATR.pdb
     RDKit          3D

 24 23  0  0  1  0  0  0  0  0999 V2000
   22.5788  -21.4067  -15.8748 C   0  0  0  0  0  0  0  0  0  0  0  0
   23.8906  -21.0113  -15.2266 C   0  0  2  0  0  0  0  0  0  0  0  0
   24.0874  -21.7727  -14.0236 N   0  0  0  0  0  0  0  0  0  0  0  0
   23.9305  -19.5685  -14.8998 C   0  0  0  0  0  0  0  0  0  0  0  0
   23.2116  -19.1041  -13.9572 O   0  0  0  0  0  0  0  0  0  0  0  0
   26.7210  -17.4871  -13.8281 C   0  0  0  0  0  0  0  0  0  0  0  0
   26.2610  -16.9119  -15.1734 C   0  0  1  0  0  0  0  0  0  0  0  0
   27.0912  -17.4414  -16.1308 O   0  0  0  0  0  0  0  0  0  0  0  0
   24.8211  -17.2887  -15.3483 C   0  0  2  0  0  0  0  0  0  0  0  0
   24.7744  -18.7093  -15.6439 N   0  0  0  0  0  0  0  0  0  0  0  0
   24.2038  -16.5743  -16.4897 C   0  0  0  0  0  0  0  0  0  0  0  0
   24.0715  -17.1253  -17.6329 O   0  0  0  0  0  0  0  0  0  0  0  0
   19.6882   -8.6766  -17.9304 N   0  0  0  0  0  0  0  0  0  0  0  0
   19.5899   -9.6417  -18.9614 C   0  0  0  0  0  0  0  0  0  0  0  0
   18.8773   -9.4307  -20.0420 N   0  0  0  0  0  0  0  0  0  0  0  0
   20.2422  -10.9029  -18.9190 N   0  0  0  0  0  0  0  0  0  0  0  0
   20.9942  -11.3585  -17.7697 C   0  0  0  0  0  0  0  0  0  0  0  0
   21.6078  -12.6993  -18.1806 C   0  0  0  0  0  0  0  0  0  0  0  0
   22.3324  -13.3415  -17.0399 C   0  0  0  0  0  0  0  0  0  0  0  0
   23.0366  -14.5789  -17.5248 C   0  0  2  0  0  0  0  0  0  0  0  0
   23.7170  -15.2433  -16.4102 N   0  0  0  0  0  0  0  0  0  0  0  0
   24.0909  -14.2079  -18.4735 C   0  0  0  0  0  0  0  0  0  0  0  0
   23.8176  -14.1072  -19.8212 O   0  0  0  0  0  0  0  0  0  0  0  0
   25.2571  -13.9735  -18.1073 O   0  0  0  0  0  0  0  0  0  0  0  0
  2  1  1  1
  2  3  1  0
  4  5  2  0
  4  2  1  0
  7  6  1  1
  7  8  1  0
  7  9  1  0
  9 10  1  6
 10  4  1  0
 11 21  1  0
 11  9  1  0
 12 11  2  0
 14 13  1  0
 15 14  2  0
 16 14  1  0
 17 16  1  0
 18 17  1  0
 19 18  1  0
 20 19  1  1
 20 21  1  0
 22 20  1  0
 23 22  1  0
 24 22  2  0
M  END
$$$$
