ATR.pdb
     RDKit          3D

 24 23  0  0  1  0  0  0  0  0999 V2000
   18.6270  -23.6280   -7.7895 C   0  0  0  0  0  0  0  0  0  0  0  0
   17.7144  -24.4383   -8.6884 C   0  0  2  0  0  0  0  0  0  0  0  0
   17.6780  -25.8035   -8.2407 N   0  0  0  0  0  0  0  0  0  0  0  0
   18.1577  -24.4020  -10.0999 C   0  0  0  0  0  0  0  0  0  0  0  0
   18.9201  -25.3137  -10.5565 O   0  0  0  0  0  0  0  0  0  0  0  0
   17.2096  -23.2890  -14.6180 C   0  0  0  0  0  0  0  0  0  0  0  0
   16.8280  -23.4295  -13.1392 C   0  0  1  0  0  0  0  0  0  0  0  0
   16.1920  -24.6400  -13.0115 O   0  0  0  0  0  0  0  0  0  0  0  0
   18.0932  -23.3258  -12.3425 C   0  0  2  0  0  0  0  0  0  0  0  0
   17.7274  -23.3452  -10.9378 N   0  0  0  0  0  0  0  0  0  0  0  0
   18.8000  -22.0503  -12.6026 C   0  0  0  0  0  0  0  0  0  0  0  0
   18.3076  -20.9271  -12.2504 O   0  0  0  0  0  0  0  0  0  0  0  0
   26.5983  -22.7747  -15.5894 N   0  0  0  0  0  0  0  0  0  0  0  0
   25.3798  -23.4207  -15.2696 C   0  0  0  0  0  0  0  0  0  0  0  0
   25.1409  -24.6616  -15.6203 N   0  0  0  0  0  0  0  0  0  0  0  0
   24.3251  -22.7941  -14.5535 N   0  0  0  0  0  0  0  0  0  0  0  0
   24.4352  -21.4604  -14.0028 C   0  0  0  0  0  0  0  0  0  0  0  0
   23.1007  -21.1888  -13.3038 C   0  0  0  0  0  0  0  0  0  0  0  0
   22.0058  -20.9414  -14.2930 C   0  0  0  0  0  0  0  0  0  0  0  0
   20.7141  -20.6972  -13.5621 C   0  0  2  0  0  0  0  0  0  0  0  0
   20.0596  -21.9708  -13.2524 N   0  0  0  0  0  0  0  0  0  0  0  0
   19.7841  -19.9700  -14.4315 C   0  0  0  0  0  0  0  0  0  0  0  0
   19.5581  -18.6227  -14.2450 O   0  0  0  0  0  0  0  0  0  0  0  0
   19.1698  -20.5303  -15.3575 O   0  0  0  0  0  0  0  0  0  0  0  0
  2  1  1  1
  2  3  1  0
  4  5  2  0
  4  2  1  0
  7  6  1  6
  7  8  1  0
  7  9  1  0
  9 10  1  1
 10  4  1  0
 11 21  1  0
 11  9  1  0
 12 11  2  0
 14 13  1  0
 15 14  2  0
 16 14  1  0
 17 16  1  0
 18 17  1  0
 19 18  1  0
 20 19  1  6
 20 21  1  0
 22 20  1  0
 23 22  1  0
 24 22  2  0
M  END
$$$$
