AYM.pdb
     RDKit          3D

 26 26  0  0  1  0  0  0  0  0999 V2000
    8.3094  -16.0698   19.6119 C   0  0  0  0  0  0  0  0  0  0  0  0
    7.9274  -17.4406   20.1925 C   0  0  2  0  0  0  0  0  0  0  0  0
    6.6383  -17.7481   19.6537 N   0  0  0  0  0  0  0  0  0  0  0  0
    7.9051  -17.2809   21.6685 C   0  0  0  0  0  0  0  0  0  0  0  0
    6.9108  -16.7226   22.2071 O   0  0  0  0  0  0  0  0  0  0  0  0
    6.1291  -22.7901   26.5871 O   0  0  0  0  0  0  0  0  0  0  0  0
    6.9568  -21.7878   26.0968 C   0  0  0  0  0  0  0  0  0  0  0  0
    7.0336  -21.5260   24.7536 C   0  0  0  0  0  0  0  0  0  0  0  0
    7.8627  -20.5245   24.2858 C   0  0  0  0  0  0  0  0  0  0  0  0
    8.6367  -19.7551   25.1251 C   0  0  0  0  0  0  0  0  0  0  0  0
    9.5294  -18.6837   24.6994 C   0  0  0  0  0  0  0  0  0  0  0  0
    8.8585  -17.5814   23.9277 C   0  0  2  0  0  0  0  0  0  0  0  0
    8.9499  -17.7258   22.5138 N   0  0  0  0  0  0  0  0  0  0  0  0
    9.5077  -16.3142   24.3374 C   0  0  0  0  0  0  0  0  0  0  0  0
    9.9165  -15.5294   23.4527 O   0  0  0  0  0  0  0  0  0  0  0  0
    8.5448  -20.0346   26.4726 C   0  0  0  0  0  0  0  0  0  0  0  0
    7.7230  -21.0317   26.9678 C   0  0  0  0  0  0  0  0  0  0  0  0
    6.2662  -10.3196   26.9492 C   0  0  0  0  0  0  0  0  0  0  0  0
    6.3333  -12.0149   26.2570 S   0  0  0  0  0  0  0  0  0  0  0  0
    7.9851  -12.7104   26.5632 C   0  0  0  0  0  0  0  0  0  0  0  0
    8.0766  -14.0968   25.9701 C   0  0  0  0  0  0  0  0  0  0  0  0
    9.4801  -14.6171   26.2278 C   0  0  2  0  0  0  0  0  0  0  0  0
    9.6905  -15.9433   25.6941 N   0  0  0  0  0  0  0  0  0  0  0  0
    9.7773  -14.6548   27.6810 C   0  0  0  0  0  0  0  0  0  0  0  0
    9.8184  -13.5676   28.2974 O   0  0  0  0  0  0  0  0  0  0  0  0
   10.0115  -15.8162   28.3960 O   0  0  0  0  0  0  0  0  0  0  0  0
  2  1  1  6
  3  2  1  0
  4  2  1  0
  4 13  1  0
  5  4  2  0
  7  8  2  0
  7  6  1  0
  9  8  1  0
 10  9  2  0
 11 10  1  0
 12 11  1  1
 12 13  1  0
 14 12  1  0
 15 14  2  0
 16 10  1  0
 16 17  2  0
 17  7  1  0
 19 20  1  0
 19 18  1  0
 20 21  1  0
 22 21  1  1
 22 23  1  0
 22 24  1  0
 23 14  1  0
 24 26  1  0
 25 24  2  0
M  END
$$$$
