AYM.pdb
     RDKit          3D

 26 26  0  0  1  0  0  0  0  0999 V2000
    8.3671  -20.4321   21.4690 C   0  0  0  0  0  0  0  0  0  0  0  0
    8.3263  -19.3530   20.3754 C   0  0  2  0  0  0  0  0  0  0  0  0
    9.0542  -19.8911   19.2676 N   0  0  0  0  0  0  0  0  0  0  0  0
    8.9731  -18.1465   20.9505 C   0  0  0  0  0  0  0  0  0  0  0  0
   10.2313  -18.1049   21.0242 O   0  0  0  0  0  0  0  0  0  0  0  0
    7.6329  -13.1049   16.2206 O   0  0  0  0  0  0  0  0  0  0  0  0
    7.7947  -13.4877   17.5463 C   0  0  0  0  0  0  0  0  0  0  0  0
    8.6789  -14.4748   17.8961 C   0  0  0  0  0  0  0  0  0  0  0  0
    8.8256  -14.8409   19.2204 C   0  0  0  0  0  0  0  0  0  0  0  0
    8.1079  -14.2469   20.2340 C   0  0  0  0  0  0  0  0  0  0  0  0
    8.2148  -14.5826   21.6488 C   0  0  0  0  0  0  0  0  0  0  0  0
    8.9210  -15.8797   21.9312 C   0  0  2  0  0  0  0  0  0  0  0  0
    8.2471  -17.0279   21.4258 N   0  0  0  0  0  0  0  0  0  0  0  0
    9.0454  -15.9887   23.4036 C   0  0  0  0  0  0  0  0  0  0  0  0
    8.1468  -16.5770   24.0455 O   0  0  0  0  0  0  0  0  0  0  0  0
    7.2238  -13.2561   19.8609 C   0  0  0  0  0  0  0  0  0  0  0  0
    7.0572  -12.8703   18.5425 C   0  0  0  0  0  0  0  0  0  0  0  0
   11.2549  -13.1333   29.3340 C   0  0  0  0  0  0  0  0  0  0  0  0
    9.7030  -13.1728   28.3605 S   0  0  0  0  0  0  0  0  0  0  0  0
    9.4235  -14.8687   27.7676 C   0  0  0  0  0  0  0  0  0  0  0  0
    9.1143  -14.8514   26.2890 C   0  0  0  0  0  0  0  0  0  0  0  0
   10.2851  -15.4933   25.5651 C   0  0  2  0  0  0  0  0  0  0  0  0
   10.1418  -15.4548   24.1279 N   0  0  0  0  0  0  0  0  0  0  0  0
   10.4524  -16.9104   25.9718 C   0  0  0  0  0  0  0  0  0  0  0  0
    9.7922  -17.7765   25.3573 O   0  0  0  0  0  0  0  0  0  0  0  0
   11.2920  -17.3331   26.9874 O   0  0  0  0  0  0  0  0  0  0  0  0
  2  1  1  1
  3  2  1  0
  4  2  1  0
  4 13  1  0
  5  4  2  0
  7  8  2  0
  7  6  1  0
  9  8  1  0
 10  9  2  0
 11 10  1  0
 12 11  1  1
 12 13  1  0
 14 12  1  0
 15 14  2  0
 16 10  1  0
 16 17  2  0
 17  7  1  0
 19 20  1  0
 19 18  1  0
 20 21  1  0
 22 21  1  1
 22 23  1  0
 22 24  1  0
 23 14  1  0
 24 26  1  0
 25 24  2  0
M  END
$$$$
