AYM.pdb
     RDKit          3D

 26 26  0  0  1  0  0  0  0  0999 V2000
   11.5161  -18.8490   20.5195 C   0  0  0  0  0  0  0  0  0  0  0  0
   11.0278  -17.5384   19.8825 C   0  0  2  0  0  0  0  0  0  0  0  0
   12.1390  -17.0257   19.1416 N   0  0  0  0  0  0  0  0  0  0  0  0
   10.6302  -16.6486   21.0028 C   0  0  0  0  0  0  0  0  0  0  0  0
   11.4953  -15.8862   21.5132 O   0  0  0  0  0  0  0  0  0  0  0  0
    6.1521  -11.6249   26.6488 O   0  0  0  0  0  0  0  0  0  0  0  0
    6.4745  -12.5845   25.6973 C   0  0  0  0  0  0  0  0  0  0  0  0
    6.2649  -13.9177   25.9362 C   0  0  0  0  0  0  0  0  0  0  0  0
    6.5919  -14.8567   24.9767 C   0  0  0  0  0  0  0  0  0  0  0  0
    7.1325  -14.5101   23.7590 C   0  0  0  0  0  0  0  0  0  0  0  0
    7.4979  -15.4472   22.7035 C   0  0  0  0  0  0  0  0  0  0  0  0
    8.9758  -15.6867   22.5650 C   0  0  2  0  0  0  0  0  0  0  0  0
    9.3191  -16.6085   21.5352 N   0  0  0  0  0  0  0  0  0  0  0  0
    9.4505  -16.2047   23.8694 C   0  0  0  0  0  0  0  0  0  0  0  0
    9.5766  -17.4404   24.0208 O   0  0  0  0  0  0  0  0  0  0  0  0
    7.3354  -13.1637   23.5386 C   0  0  0  0  0  0  0  0  0  0  0  0
    7.0171  -12.2027   24.4820 C   0  0  0  0  0  0  0  0  0  0  0  0
   11.1741  -14.9246   31.4984 C   0  0  0  0  0  0  0  0  0  0  0  0
   10.6510  -14.1274   29.9336 S   0  0  0  0  0  0  0  0  0  0  0  0
   10.7657  -15.3437   28.5869 C   0  0  0  0  0  0  0  0  0  0  0  0
   10.2641  -14.7331   27.2993 C   0  0  0  0  0  0  0  0  0  0  0  0
   10.2977  -15.8136   26.2324 C   0  0  2  0  0  0  0  0  0  0  0  0
    9.7719  -15.3626   24.9644 N   0  0  0  0  0  0  0  0  0  0  0  0
    9.5199  -17.0047   26.6541 C   0  0  0  0  0  0  0  0  0  0  0  0
    8.2818  -16.9859   26.4799 O   0  0  0  0  0  0  0  0  0  0  0  0
   10.0781  -18.1337   27.2275 O   0  0  0  0  0  0  0  0  0  0  0  0
  2  1  1  1
  3  2  1  0
  4  2  1  0
  4 13  1  0
  5  4  2  0
  7  8  2  0
  7  6  1  0
  9  8  1  0
 10  9  2  0
 11 10  1  0
 12 11  1  1
 12 13  1  0
 14 12  1  0
 15 14  2  0
 16 10  1  0
 16 17  2  0
 17  7  1  0
 19 20  1  0
 19 18  1  0
 20 21  1  0
 22 21  1  1
 22 23  1  0
 22 24  1  0
 23 14  1  0
 24 26  1  0
 25 24  2  0
M  END
$$$$
