AYM.pdb
     RDKit          3D

 26 26  0  0  1  0  0  0  0  0999 V2000
    7.9462  -20.1160   22.3595 C   0  0  0  0  0  0  0  0  0  0  0  0
    7.8861  -19.0685   21.2366 C   0  0  2  0  0  0  0  0  0  0  0  0
    8.5042  -19.6781   20.0995 N   0  0  0  0  0  0  0  0  0  0  0  0
    8.6353  -17.8836   21.7260 C   0  0  0  0  0  0  0  0  0  0  0  0
    9.8928  -17.8752   21.6322 O   0  0  0  0  0  0  0  0  0  0  0  0
    7.4037  -12.6171   17.2372 O   0  0  0  0  0  0  0  0  0  0  0  0
    7.5415  -13.0439   18.5521 C   0  0  0  0  0  0  0  0  0  0  0  0
    6.5263  -13.7055   19.1925 C   0  0  0  0  0  0  0  0  0  0  0  0
    6.6832  -14.1222   20.5006 C   0  0  0  0  0  0  0  0  0  0  0  0
    7.8405  -13.8997   21.2122 C   0  0  0  0  0  0  0  0  0  0  0  0
    8.0728  -14.3131   22.5910 C   0  0  0  0  0  0  0  0  0  0  0  0
    8.7764  -15.6339   22.7368 C   0  0  2  0  0  0  0  0  0  0  0  0
    8.0088  -16.7504   22.2982 N   0  0  0  0  0  0  0  0  0  0  0  0
    9.0998  -15.7913   24.1741 C   0  0  0  0  0  0  0  0  0  0  0  0
    8.1806  -16.0748   24.9743 O   0  0  0  0  0  0  0  0  0  0  0  0
    8.8496  -13.2324   20.5496 C   0  0  0  0  0  0  0  0  0  0  0  0
    8.7189  -12.8042   19.2403 C   0  0  0  0  0  0  0  0  0  0  0  0
   11.1084  -19.1347   30.3395 C   0  0  0  0  0  0  0  0  0  0  0  0
   11.0853  -19.1007   28.5075 S   0  0  0  0  0  0  0  0  0  0  0  0
   11.1081  -17.3699   27.9509 C   0  0  0  0  0  0  0  0  0  0  0  0
   10.7586  -17.2978   26.4830 C   0  0  0  0  0  0  0  0  0  0  0  0
   10.7868  -15.8356   26.0732 C   0  0  2  0  0  0  0  0  0  0  0  0
   10.4107  -15.6355   24.6925 N   0  0  0  0  0  0  0  0  0  0  0  0
   12.1364  -15.2516   26.2705 C   0  0  0  0  0  0  0  0  0  0  0  0
   12.3934  -14.7358   27.3803 O   0  0  0  0  0  0  0  0  0  0  0  0
   13.1274  -15.2420   25.3047 O   0  0  0  0  0  0  0  0  0  0  0  0
  2  1  1  1
  3  2  1  0
  4  2  1  0
  4 13  1  0
  5  4  2  0
  7  8  2  0
  7  6  1  0
  9  8  1  0
 10  9  2  0
 11 10  1  0
 12 11  1  1
 12 13  1  0
 14 12  1  0
 15 14  2  0
 16 10  1  0
 16 17  2  0
 17  7  1  0
 19 20  1  0
 19 18  1  0
 20 21  1  0
 22 21  1  6
 22 23  1  0
 22 24  1  0
 23 14  1  0
 24 26  1  0
 25 24  2  0
M  END
$$$$
