AYM.pdb
     RDKit          3D

 26 26  0  0  1  0  0  0  0  0999 V2000
   12.2929  -19.4433   20.3733 C   0  0  0  0  0  0  0  0  0  0  0  0
   11.4894  -18.2958   19.7412 C   0  0  2  0  0  0  0  0  0  0  0  0
   12.3006  -17.7900   18.6771 N   0  0  0  0  0  0  0  0  0  0  0  0
   11.2691  -17.2948   20.8156 C   0  0  0  0  0  0  0  0  0  0  0  0
   12.1618  -16.4325   21.0387 O   0  0  0  0  0  0  0  0  0  0  0  0
    7.0801  -12.5662   18.1401 O   0  0  0  0  0  0  0  0  0  0  0  0
    7.4573  -13.3067   19.2535 C   0  0  0  0  0  0  0  0  0  0  0  0
    8.3946  -12.8340   20.1346 C   0  0  0  0  0  0  0  0  0  0  0  0
    8.7559  -13.5856   21.2363 C   0  0  0  0  0  0  0  0  0  0  0  0
    8.2059  -14.8197   21.5003 C   0  0  0  0  0  0  0  0  0  0  0  0
    8.5394  -15.6624   22.6424 C   0  0  0  0  0  0  0  0  0  0  0  0
    9.9239  -16.2477   22.6036 C   0  0  2  0  0  0  0  0  0  0  0  0
   10.0993  -17.2546   21.6118 N   0  0  0  0  0  0  0  0  0  0  0  0
   10.1838  -16.8241   23.9435 C   0  0  0  0  0  0  0  0  0  0  0  0
   10.0903  -18.0622   24.0988 O   0  0  0  0  0  0  0  0  0  0  0  0
    7.2648  -15.2771   20.6015 C   0  0  0  0  0  0  0  0  0  0  0  0
    6.8849  -14.5451   19.4904 C   0  0  0  0  0  0  0  0  0  0  0  0
   10.5420  -13.7560   30.3893 C   0  0  0  0  0  0  0  0  0  0  0  0
   10.3517  -13.2155   28.6488 S   0  0  0  0  0  0  0  0  0  0  0  0
    9.9686  -14.6657   27.6211 C   0  0  0  0  0  0  0  0  0  0  0  0
   11.2270  -15.4622   27.3673 C   0  0  0  0  0  0  0  0  0  0  0  0
   10.8874  -16.5562   26.3699 C   0  0  2  0  0  0  0  0  0  0  0  0
   10.5363  -16.0357   25.0685 N   0  0  0  0  0  0  0  0  0  0  0  0
    9.7563  -17.3864   26.8526 C   0  0  0  0  0  0  0  0  0  0  0  0
    8.6459  -17.2415   26.2962 O   0  0  0  0  0  0  0  0  0  0  0  0
    9.8532  -18.3099   27.8786 O   0  0  0  0  0  0  0  0  0  0  0  0
  2  1  1  1
  3  2  1  0
  4  2  1  0
  4 13  1  0
  5  4  2  0
  7  8  2  0
  7  6  1  0
  9  8  1  0
 10  9  2  0
 11 10  1  0
 12 11  1  1
 12 13  1  0
 14 12  1  0
 15 14  2  0
 16 10  1  0
 16 17  2  0
 17  7  1  0
 19 20  1  0
 19 18  1  0
 20 21  1  0
 22 21  1  1
 22 23  1  0
 22 24  1  0
 23 14  1  0
 24 26  1  0
 25 24  2  0
M  END
$$$$
