AYM.pdb
     RDKit          3D

 26 26  0  0  1  0  0  0  0  0999 V2000
    7.2154  -19.2524   20.2309 C   0  0  0  0  0  0  0  0  0  0  0  0
    6.5676  -19.0126   21.6038 C   0  0  2  0  0  0  0  0  0  0  0  0
    5.2366  -18.5622   21.3349 N   0  0  0  0  0  0  0  0  0  0  0  0
    7.3920  -17.9816   22.2836 C   0  0  0  0  0  0  0  0  0  0  0  0
    8.5899  -18.2503   22.5715 O   0  0  0  0  0  0  0  0  0  0  0  0
    8.2074  -12.8401   17.5980 O   0  0  0  0  0  0  0  0  0  0  0  0
    7.9789  -13.2056   18.9188 C   0  0  0  0  0  0  0  0  0  0  0  0
    6.7158  -13.4934   19.3661 C   0  0  0  0  0  0  0  0  0  0  0  0
    6.5094  -13.8554   20.6835 C   0  0  0  0  0  0  0  0  0  0  0  0
    7.5379  -13.9439   21.5943 C   0  0  0  0  0  0  0  0  0  0  0  0
    7.3910  -14.3209   22.9951 C   0  0  0  0  0  0  0  0  0  0  0  0
    7.7333  -15.7538   23.2954 C   0  0  2  0  0  0  0  0  0  0  0  0
    6.9018  -16.6995   22.6302 N   0  0  0  0  0  0  0  0  0  0  0  0
    7.6039  -15.9277   24.7610 C   0  0  0  0  0  0  0  0  0  0  0  0
    6.5162  -15.6444   25.3110 O   0  0  0  0  0  0  0  0  0  0  0  0
    8.8010  -13.6503   21.1240 C   0  0  0  0  0  0  0  0  0  0  0  0
    9.0356  -13.2852   19.8101 C   0  0  0  0  0  0  0  0  0  0  0  0
    7.1887  -21.8621   26.4806 C   0  0  0  0  0  0  0  0  0  0  0  0
    6.7719  -20.2971   27.3378 S   0  0  0  0  0  0  0  0  0  0  0  0
    7.8911  -18.9894   26.7520 C   0  0  0  0  0  0  0  0  0  0  0  0
    7.4852  -17.6614   27.3469 C   0  0  0  0  0  0  0  0  0  0  0  0
    8.5644  -16.6508   26.9991 C   0  0  2  0  0  0  0  0  0  0  0  0
    8.6606  -16.4035   25.5788 N   0  0  0  0  0  0  0  0  0  0  0  0
    9.8940  -17.1036   27.4772 C   0  0  0  0  0  0  0  0  0  0  0  0
   10.0383  -17.2998   28.7037 O   0  0  0  0  0  0  0  0  0  0  0  0
   10.9831  -17.3221   26.6519 O   0  0  0  0  0  0  0  0  0  0  0  0
  2  1  1  6
  3  2  1  0
  4  2  1  0
  4 13  1  0
  5  4  2  0
  7  8  2  0
  7  6  1  0
  9  8  1  0
 10  9  2  0
 11 10  1  0
 12 11  1  1
 12 13  1  0
 14 12  1  0
 15 14  2  0
 16 10  1  0
 16 17  2  0
 17  7  1  0
 19 20  1  0
 19 18  1  0
 20 21  1  0
 22 21  1  6
 22 23  1  0
 22 24  1  0
 23 14  1  0
 24 26  1  0
 25 24  2  0
M  END
$$$$
