AYM.pdb
     RDKit          3D

 26 26  0  0  1  0  0  0  0  0999 V2000
   10.5713  -19.6998   20.8706 C   0  0  0  0  0  0  0  0  0  0  0  0
   10.1000  -18.5520   19.9638 C   0  0  2  0  0  0  0  0  0  0  0  0
   11.0576  -18.4721   18.9041 N   0  0  0  0  0  0  0  0  0  0  0  0
   10.0801  -17.3303   20.8075 C   0  0  0  0  0  0  0  0  0  0  0  0
   11.1559  -16.6991   20.9930 O   0  0  0  0  0  0  0  0  0  0  0  0
    7.5953  -12.7735   16.5455 O   0  0  0  0  0  0  0  0  0  0  0  0
    7.6585  -13.2241   17.8582 C   0  0  0  0  0  0  0  0  0  0  0  0
    8.4059  -12.5643   18.7986 C   0  0  0  0  0  0  0  0  0  0  0  0
    8.4556  -13.0282   20.0993 C   0  0  0  0  0  0  0  0  0  0  0  0
    7.7726  -14.1512   20.5087 C   0  0  0  0  0  0  0  0  0  0  0  0
    7.7795  -14.6931   21.8623 C   0  0  0  0  0  0  0  0  0  0  0  0
    8.9311  -15.6126   22.1610 C   0  0  2  0  0  0  0  0  0  0  0  0
    8.9071  -16.8296   21.4219 N   0  0  0  0  0  0  0  0  0  0  0  0
    8.8744  -15.9142   23.6105 C   0  0  0  0  0  0  0  0  0  0  0  0
    8.1509  -16.8557   24.0054 O   0  0  0  0  0  0  0  0  0  0  0  0
    7.0266  -14.8004   19.5472 C   0  0  0  0  0  0  0  0  0  0  0  0
    6.9595  -14.3575   18.2379 C   0  0  0  0  0  0  0  0  0  0  0  0
    6.5496  -10.6492   27.8447 C   0  0  0  0  0  0  0  0  0  0  0  0
    6.3461  -12.3576   27.2139 S   0  0  0  0  0  0  0  0  0  0  0  0
    7.9688  -12.9884   26.6898 C   0  0  0  0  0  0  0  0  0  0  0  0
    7.8100  -14.3500   26.0551 C   0  0  0  0  0  0  0  0  0  0  0  0
    9.1908  -14.9737   25.9492 C   0  0  2  0  0  0  0  0  0  0  0  0
    9.6055  -15.1827   24.5810 N   0  0  0  0  0  0  0  0  0  0  0  0
    9.2412  -16.2812   26.6489 C   0  0  0  0  0  0  0  0  0  0  0  0
    9.5246  -16.2817   27.8668 O   0  0  0  0  0  0  0  0  0  0  0  0
    8.9945  -17.4986   26.0389 O   0  0  0  0  0  0  0  0  0  0  0  0
  2  1  1  1
  3  2  1  0
  4  2  1  0
  4 13  1  0
  5  4  2  0
  7  8  2  0
  7  6  1  0
  9  8  1  0
 10  9  2  0
 11 10  1  0
 12 11  1  6
 12 13  1  0
 14 12  1  0
 15 14  2  0
 16 10  1  0
 16 17  2  0
 17  7  1  0
 19 20  1  0
 19 18  1  0
 20 21  1  0
 22 21  1  6
 22 23  1  0
 22 24  1  0
 23 14  1  0
 24 26  1  0
 25 24  2  0
M  END
$$$$
