AYM.pdb
     RDKit          3D

 26 26  0  0  1  0  0  0  0  0999 V2000
    8.6747  -19.6578   21.9072 C   0  0  0  0  0  0  0  0  0  0  0  0
    8.6890  -18.6422   20.7538 C   0  0  2  0  0  0  0  0  0  0  0  0
    9.5640  -19.1883   19.7625 N   0  0  0  0  0  0  0  0  0  0  0  0
    9.1960  -17.3675   21.3218 C   0  0  0  0  0  0  0  0  0  0  0  0
   10.4401  -17.1633   21.3484 O   0  0  0  0  0  0  0  0  0  0  0  0
    7.6002  -13.4871   16.1668 O   0  0  0  0  0  0  0  0  0  0  0  0
    7.7461  -13.5798   17.5453 C   0  0  0  0  0  0  0  0  0  0  0  0
    8.8502  -13.0693   18.1769 C   0  0  0  0  0  0  0  0  0  0  0  0
    8.9765  -13.1712   19.5491 C   0  0  0  0  0  0  0  0  0  0  0  0
    8.0221  -13.7767   20.3351 C   0  0  0  0  0  0  0  0  0  0  0  0
    8.0913  -13.9163   21.7848 C   0  0  0  0  0  0  0  0  0  0  0  0
    8.8805  -15.1043   22.2607 C   0  0  2  0  0  0  0  0  0  0  0  0
    8.3504  -16.3576   21.8408 N   0  0  0  0  0  0  0  0  0  0  0  0
    8.8940  -15.0452   23.7411 C   0  0  0  0  0  0  0  0  0  0  0  0
    9.2085  -13.9716   24.3016 O   0  0  0  0  0  0  0  0  0  0  0  0
    6.9192  -14.2837   19.6801 C   0  0  0  0  0  0  0  0  0  0  0  0
    6.7676  -14.1953   18.3075 C   0  0  0  0  0  0  0  0  0  0  0  0
    7.0015  -11.1926   27.9593 C   0  0  0  0  0  0  0  0  0  0  0  0
    6.2857  -12.6787   27.1612 S   0  0  0  0  0  0  0  0  0  0  0  0
    7.6016  -13.9111   26.9255 C   0  0  0  0  0  0  0  0  0  0  0  0
    7.0486  -15.1229   26.2126 C   0  0  0  0  0  0  0  0  0  0  0  0
    8.2038  -16.0757   25.9583 C   0  0  2  0  0  0  0  0  0  0  0  0
    8.5653  -16.1544   24.5616 N   0  0  0  0  0  0  0  0  0  0  0  0
    7.8787  -17.4458   26.4261 C   0  0  0  0  0  0  0  0  0  0  0  0
    7.3796  -18.2419   25.6011 O   0  0  0  0  0  0  0  0  0  0  0  0
    8.0931  -17.8972   27.7166 O   0  0  0  0  0  0  0  0  0  0  0  0
  2  1  1  1
  3  2  1  0
  4  2  1  0
  4 13  1  0
  5  4  2  0
  7  8  2  0
  7  6  1  0
  9  8  1  0
 10  9  2  0
 11 10  1  0
 12 11  1  6
 12 13  1  0
 14 12  1  0
 15 14  2  0
 16 10  1  0
 16 17  2  0
 17  7  1  0
 19 20  1  0
 19 18  1  0
 20 21  1  0
 22 21  1  6
 22 23  1  0
 22 24  1  0
 23 14  1  0
 24 26  1  0
 25 24  2  0
M  END
$$$$
