AYM.pdb
     RDKit          3D

 26 26  0  0  1  0  0  0  0  0999 V2000
    6.6115  -14.5153   20.0142 C   0  0  0  0  0  0  0  0  0  0  0  0
    6.6621  -16.0513   20.0097 C   0  0  2  0  0  0  0  0  0  0  0  0
    5.5016  -16.4789   19.2908 N   0  0  0  0  0  0  0  0  0  0  0  0
    6.6407  -16.4771   21.4320 C   0  0  0  0  0  0  0  0  0  0  0  0
    5.5394  -16.4997   22.0458 O   0  0  0  0  0  0  0  0  0  0  0  0
    4.8344  -22.9191   23.3020 O   0  0  0  0  0  0  0  0  0  0  0  0
    5.7073  -21.8443   23.4158 C   0  0  0  0  0  0  0  0  0  0  0  0
    6.5434  -21.4983   22.3864 C   0  0  0  0  0  0  0  0  0  0  0  0
    7.4041  -20.4255   22.5191 C   0  0  0  0  0  0  0  0  0  0  0  0
    7.4652  -19.6659   23.6656 C   0  0  0  0  0  0  0  0  0  0  0  0
    8.3463  -18.5225   23.8711 C   0  0  0  0  0  0  0  0  0  0  0  0
    7.7339  -17.1927   23.5287 C   0  0  2  0  0  0  0  0  0  0  0  0
    7.8013  -16.8634   22.1448 N   0  0  0  0  0  0  0  0  0  0  0  0
    8.4619  -16.1698   24.3154 C   0  0  0  0  0  0  0  0  0  0  0  0
    9.5228  -15.6928   23.8543 O   0  0  0  0  0  0  0  0  0  0  0  0
    6.6158  -20.0306   24.6894 C   0  0  0  0  0  0  0  0  0  0  0  0
    5.7443  -21.1002   24.5830 C   0  0  0  0  0  0  0  0  0  0  0  0
    6.5807  -10.4715   27.6873 C   0  0  0  0  0  0  0  0  0  0  0  0
    5.9284  -11.5045   26.3216 S   0  0  0  0  0  0  0  0  0  0  0  0
    7.2375  -12.6358   25.7627 C   0  0  0  0  0  0  0  0  0  0  0  0
    7.5487  -13.6379   26.8495 C   0  0  0  0  0  0  0  0  0  0  0  0
    8.5934  -14.5977   26.3068 C   0  0  2  0  0  0  0  0  0  0  0  0
    8.0122  -15.7003   25.5760 N   0  0  0  0  0  0  0  0  0  0  0  0
    9.4228  -15.1590   27.4015 C   0  0  0  0  0  0  0  0  0  0  0  0
   10.1275  -14.3676   28.0654 O   0  0  0  0  0  0  0  0  0  0  0  0
    9.4653  -16.5017   27.7335 O   0  0  0  0  0  0  0  0  0  0  0  0
  2  1  1  1
  3  2  1  0
  4  2  1  0
  4 13  1  0
  5  4  2  0
  7  8  2  0
  7  6  1  0
  9  8  1  0
 10  9  2  0
 11 10  1  0
 12 11  1  6
 12 13  1  0
 14 12  1  0
 15 14  2  0
 16 10  1  0
 16 17  2  0
 17  7  1  0
 19 20  1  0
 19 18  1  0
 20 21  1  0
 22 21  1  1
 22 23  1  0
 22 24  1  0
 23 14  1  0
 24 26  1  0
 25 24  2  0
M  END
$$$$
