QMS.pdb
     RDKit          3D

 24 23  0  0  1  0  0  0  0  0999 V2000
    8.4184  -18.8434   18.5892 N   0  0  0  0  0  0  0  0  0  0  0  0
    7.6184  -17.7008   18.3567 C   0  0  0  0  0  0  0  0  0  0  0  0
    7.7430  -17.1471   17.2219 O   0  0  0  0  0  0  0  0  0  0  0  0
    6.6735  -17.1631   19.3816 C   0  0  0  0  0  0  0  0  0  0  0  0
    7.4131  -16.8734   20.6695 C   0  0  0  0  0  0  0  0  0  0  0  0
    7.4127  -15.4155   21.0127 C   0  0  2  0  0  0  0  0  0  0  0  0
    7.8398  -14.6113   19.9122 N   0  0  0  0  0  0  0  0  0  0  0  0
    8.1478  -15.1011   22.2421 C   0  0  0  0  0  0  0  0  0  0  0  0
    9.3778  -14.8590   22.2910 O   0  0  0  0  0  0  0  0  0  0  0  0
    7.8782  -11.2546   27.5220 C   0  0  0  0  0  0  0  0  0  0  0  0
    6.3526  -11.7489   26.6743 S   0  0  0  0  0  0  0  0  0  0  0  0
    6.8419  -12.6694   25.1663 C   0  0  0  0  0  0  0  0  0  0  0  0
    7.0949  -14.0761   25.5925 C   0  0  0  0  0  0  0  0  0  0  0  0
    8.0987  -14.8186   24.7353 C   0  0  2  0  0  0  0  0  0  0  0  0
    7.4265  -15.0656   23.4673 N   0  0  0  0  0  0  0  0  0  0  0  0
    8.4321  -16.1321   25.3348 C   0  0  0  0  0  0  0  0  0  0  0  0
    7.5651  -17.0467   25.4685 O   0  0  0  0  0  0  0  0  0  0  0  0
   12.1545  -17.2415   25.2621 O   0  0  0  0  0  0  0  0  0  0  0  0
   11.2496  -18.2742   25.5263 C   0  0  0  0  0  0  0  0  0  0  0  0
   10.1068  -17.6855   26.2926 C   0  0  2  0  0  0  0  0  0  0  0  0
    9.7514  -16.3823   25.7737 N   0  0  0  0  0  0  0  0  0  0  0  0
   10.5702  -17.4838   27.7088 C   0  0  0  0  0  0  0  0  0  0  0  0
   10.5476  -16.3214   28.1978 O   0  0  0  0  0  0  0  0  0  0  0  0
   11.0211  -18.5435   28.4889 O   0  0  0  0  0  0  0  0  0  0  0  0
  1  2  1  0
  2  3  2  0
  4  5  1  0
  4  2  1  0
  6  5  1  0
  6  8  1  0
  6  7  1  6
  8 15  1  0
  9  8  2  0
 11 12  1  0
 11 10  1  0
 12 13  1  0
 14 13  1  1
 15 14  1  0
 16 17  2  0
 16 14  1  0
 18 19  1  0
 20 19  1  6
 20 22  1  0
 20 21  1  0
 21 16  1  0
 22 24  1  0
 23 22  2  0
M  END
$$$$
