QMS.pdb
     RDKit          3D

 24 23  0  0  1  0  0  0  0  0999 V2000
    9.2971  -15.2161   16.0665 N   0  0  0  0  0  0  0  0  0  0  0  0
    8.4153  -14.2093   16.5230 C   0  0  0  0  0  0  0  0  0  0  0  0
    7.7725  -13.5761   15.6309 O   0  0  0  0  0  0  0  0  0  0  0  0
    8.2394  -13.8966   17.9735 C   0  0  0  0  0  0  0  0  0  0  0  0
    9.1020  -14.8147   18.8117 C   0  0  0  0  0  0  0  0  0  0  0  0
    8.3326  -15.4693   19.9175 C   0  0  2  0  0  0  0  0  0  0  0  0
    6.9320  -15.2073   19.8165 N   0  0  0  0  0  0  0  0  0  0  0  0
    8.8539  -15.1675   21.2546 C   0  0  0  0  0  0  0  0  0  0  0  0
   10.0729  -15.1248   21.5478 O   0  0  0  0  0  0  0  0  0  0  0  0
    6.6728  -11.2504   27.6077 C   0  0  0  0  0  0  0  0  0  0  0  0
    6.2146  -12.0676   26.0544 S   0  0  0  0  0  0  0  0  0  0  0  0
    7.5926  -13.1890   25.6026 C   0  0  0  0  0  0  0  0  0  0  0  0
    7.2866  -13.7072   24.2380 C   0  0  0  0  0  0  0  0  0  0  0  0
    8.3657  -14.5909   23.6479 C   0  0  2  0  0  0  0  0  0  0  0  0
    7.9224  -14.9039   22.2965 N   0  0  0  0  0  0  0  0  0  0  0  0
    8.4697  -15.8651   24.3971 C   0  0  0  0  0  0  0  0  0  0  0  0
    7.4908  -16.6633   24.5001 O   0  0  0  0  0  0  0  0  0  0  0  0
   11.9414  -17.5151   24.6556 O   0  0  0  0  0  0  0  0  0  0  0  0
   10.8530  -18.3381   24.9610 C   0  0  0  0  0  0  0  0  0  0  0  0
    9.8363  -17.4958   25.6655 C   0  0  2  0  0  0  0  0  0  0  0  0
    9.6907  -16.2095   25.0188 N   0  0  0  0  0  0  0  0  0  0  0  0
   10.3514  -17.2345   27.0538 C   0  0  0  0  0  0  0  0  0  0  0  0
   10.5820  -16.0450   27.4045 O   0  0  0  0  0  0  0  0  0  0  0  0
   10.5787  -18.2682   27.9563 O   0  0  0  0  0  0  0  0  0  0  0  0
  1  2  1  0
  2  3  2  0
  4  5  1  0
  4  2  1  0
  6  5  1  0
  6  8  1  0
  6  7  1  1
  8 15  1  0
  9  8  2  0
 11 12  1  0
 11 10  1  0
 12 13  1  0
 14 13  1  1
 15 14  1  0
 16 17  2  0
 16 14  1  0
 18 19  1  0
 20 19  1  6
 20 22  1  0
 20 21  1  0
 21 16  1  0
 22 24  1  0
 23 22  2  0
M  END
$$$$
