QMS.pdb
     RDKit          3D

 24 23  0  0  1  0  0  0  0  0999 V2000
    8.1653  -12.2124   17.7928 N   0  0  0  0  0  0  0  0  0  0  0  0
    8.2076  -13.5162   17.2469 C   0  0  0  0  0  0  0  0  0  0  0  0
    8.2425  -13.5963   15.9811 O   0  0  0  0  0  0  0  0  0  0  0  0
    8.2113  -14.7420   18.1013 C   0  0  0  0  0  0  0  0  0  0  0  0
    8.0325  -14.3630   19.5552 C   0  0  0  0  0  0  0  0  0  0  0  0
    8.1424  -15.5434   20.4707 C   0  0  2  0  0  0  0  0  0  0  0  0
    6.9299  -16.2974   20.5120 N   0  0  0  0  0  0  0  0  0  0  0  0
    8.6248  -15.2029   21.8131 C   0  0  0  0  0  0  0  0  0  0  0  0
    9.7533  -14.7131   22.0584 O   0  0  0  0  0  0  0  0  0  0  0  0
    6.3983  -11.3550   26.0619 C   0  0  0  0  0  0  0  0  0  0  0  0
    7.7334  -12.4920   26.5260 S   0  0  0  0  0  0  0  0  0  0  0  0
    7.0744  -14.1959   26.3735 C   0  0  0  0  0  0  0  0  0  0  0  0
    6.9374  -14.4676   24.9135 C   0  0  0  0  0  0  0  0  0  0  0  0
    8.1592  -15.0967   24.2769 C   0  0  2  0  0  0  0  0  0  0  0  0
    7.7621  -15.4403   22.9186 N   0  0  0  0  0  0  0  0  0  0  0  0
    8.5268  -16.3523   24.9728 C   0  0  0  0  0  0  0  0  0  0  0  0
    7.6959  -17.2950   25.1368 O   0  0  0  0  0  0  0  0  0  0  0  0
   12.3465  -17.2579   25.0974 O   0  0  0  0  0  0  0  0  0  0  0  0
   11.4462  -18.3165   25.2519 C   0  0  0  0  0  0  0  0  0  0  0  0
   10.2604  -17.7928   25.9997 C   0  0  2  0  0  0  0  0  0  0  0  0
    9.8386  -16.5132   25.4720 N   0  0  0  0  0  0  0  0  0  0  0  0
   10.6905  -17.5620   27.4219 C   0  0  0  0  0  0  0  0  0  0  0  0
   11.1860  -18.5224   28.0723 O   0  0  0  0  0  0  0  0  0  0  0  0
   10.5555  -16.3206   28.0347 O   0  0  0  0  0  0  0  0  0  0  0  0
  1  2  1  0
  2  3  2  0
  4  5  1  0
  4  2  1  0
  6  5  1  0
  6  8  1  0
  6  7  1  1
  8 15  1  0
  9  8  2  0
 11 12  1  0
 11 10  1  0
 12 13  1  0
 14 13  1  1
 15 14  1  0
 16 17  2  0
 16 14  1  0
 18 19  1  0
 20 19  1  6
 20 22  1  0
 20 21  1  0
 21 16  1  0
 22 24  1  0
 23 22  2  0
M  END
$$$$
