QMS.pdb
     RDKit          3D

 24 23  0  0  1  0  0  0  0  0999 V2000
    8.6465  -12.2838   18.2894 N   0  0  0  0  0  0  0  0  0  0  0  0
    8.2050  -13.5595   17.8684 C   0  0  0  0  0  0  0  0  0  0  0  0
    7.7969  -13.6476   16.6702 O   0  0  0  0  0  0  0  0  0  0  0  0
    8.2126  -14.7482   18.7736 C   0  0  0  0  0  0  0  0  0  0  0  0
    8.7417  -14.3601   20.1371 C   0  0  0  0  0  0  0  0  0  0  0  0
    8.7728  -15.5169   21.0880 C   0  0  2  0  0  0  0  0  0  0  0  0
    7.5758  -16.2933   21.0183 N   0  0  0  0  0  0  0  0  0  0  0  0
    9.1027  -15.1366   22.4654 C   0  0  0  0  0  0  0  0  0  0  0  0
   10.1477  -14.5301   22.8030 O   0  0  0  0  0  0  0  0  0  0  0  0
    7.3772  -11.6228   27.5577 C   0  0  0  0  0  0  0  0  0  0  0  0
    6.2108  -12.1923   26.2906 S   0  0  0  0  0  0  0  0  0  0  0  0
    7.1852  -13.0689   25.0089 C   0  0  0  0  0  0  0  0  0  0  0  0
    7.2948  -14.4872   25.4568 C   0  0  0  0  0  0  0  0  0  0  0  0
    8.4908  -15.2292   24.8976 C   0  0  2  0  0  0  0  0  0  0  0  0
    8.1819  -15.4735   23.4956 N   0  0  0  0  0  0  0  0  0  0  0  0
    8.6513  -16.5441   25.5619 C   0  0  0  0  0  0  0  0  0  0  0  0
    7.7303  -17.4145   25.5553 O   0  0  0  0  0  0  0  0  0  0  0  0
   12.1559  -18.0135   25.7556 O   0  0  0  0  0  0  0  0  0  0  0  0
   11.1209  -18.9109   26.0361 C   0  0  0  0  0  0  0  0  0  0  0  0
   10.0684  -18.1614   26.7912 C   0  0  2  0  0  0  0  0  0  0  0  0
    9.8618  -16.8460   26.2249 N   0  0  0  0  0  0  0  0  0  0  0  0
   10.5749  -17.9624   28.1929 C   0  0  0  0  0  0  0  0  0  0  0  0
   10.7608  -16.7877   28.6127 O   0  0  0  0  0  0  0  0  0  0  0  0
   10.8421  -19.0378   29.0337 O   0  0  0  0  0  0  0  0  0  0  0  0
  1  2  1  0
  2  3  2  0
  4  5  1  0
  4  2  1  0
  6  5  1  0
  6  8  1  0
  6  7  1  1
  8 15  1  0
  9  8  2  0
 11 12  1  0
 11 10  1  0
 12 13  1  0
 14 13  1  1
 15 14  1  0
 16 17  2  0
 16 14  1  0
 18 19  1  0
 20 19  1  6
 20 22  1  0
 20 21  1  0
 21 16  1  0
 22 24  1  0
 23 22  2  0
M  END
$$$$
