QMS.pdb
     RDKit          3D

 24 23  0  0  1  0  0  0  0  0999 V2000
    5.5821  -18.8369   17.9454 N   0  0  0  0  0  0  0  0  0  0  0  0
    6.9885  -18.6900   17.9320 C   0  0  0  0  0  0  0  0  0  0  0  0
    7.6644  -19.7505   17.7634 O   0  0  0  0  0  0  0  0  0  0  0  0
    7.6567  -17.3649   18.1057 C   0  0  0  0  0  0  0  0  0  0  0  0
    7.8899  -17.0887   19.5750 C   0  0  0  0  0  0  0  0  0  0  0  0
    7.7021  -15.6436   19.9213 C   0  0  2  0  0  0  0  0  0  0  0  0
    7.9936  -14.7904   18.8133 N   0  0  0  0  0  0  0  0  0  0  0  0
    8.4155  -15.2328   21.1349 C   0  0  0  0  0  0  0  0  0  0  0  0
    9.6646  -15.1955   21.2453 O   0  0  0  0  0  0  0  0  0  0  0  0
    6.8969  -11.3985   27.8242 C   0  0  0  0  0  0  0  0  0  0  0  0
    6.3577  -12.0406   26.2156 S   0  0  0  0  0  0  0  0  0  0  0  0
    7.6960  -13.1238   25.5860 C   0  0  0  0  0  0  0  0  0  0  0  0
    7.2744  -13.5711   24.2272 C   0  0  0  0  0  0  0  0  0  0  0  0
    8.2867  -14.4426   23.5135 C   0  0  2  0  0  0  0  0  0  0  0  0
    7.6483  -14.8487   22.2692 N   0  0  0  0  0  0  0  0  0  0  0  0
    8.5714  -15.6675   24.2974 C   0  0  0  0  0  0  0  0  0  0  0  0
    7.6958  -16.5656   24.4780 O   0  0  0  0  0  0  0  0  0  0  0  0
   12.3712  -16.5770   24.8438 O   0  0  0  0  0  0  0  0  0  0  0  0
   11.4784  -17.6472   24.9565 C   0  0  0  0  0  0  0  0  0  0  0  0
   10.1927  -17.1050   25.4975 C   0  0  2  0  0  0  0  0  0  0  0  0
    9.8526  -15.8491   24.8644 N   0  0  0  0  0  0  0  0  0  0  0  0
   10.4037  -16.8184   26.9584 C   0  0  0  0  0  0  0  0  0  0  0  0
   10.1826  -15.6538   27.3891 O   0  0  0  0  0  0  0  0  0  0  0  0
   10.8349  -17.8023   27.8420 O   0  0  0  0  0  0  0  0  0  0  0  0
  1  2  1  0
  2  3  2  0
  4  5  1  0
  4  2  1  0
  6  5  1  0
  6  8  1  0
  6  7  1  6
  8 15  1  0
  9  8  2  0
 11 12  1  0
 11 10  1  0
 12 13  1  0
 14 13  1  1
 15 14  1  0
 16 17  2  0
 16 14  1  0
 18 19  1  0
 20 19  1  6
 20 22  1  0
 20 21  1  0
 21 16  1  0
 22 24  1  0
 23 22  2  0
M  END
$$$$
