QMS.pdb
     RDKit          3D

 24 23  0  0  1  0  0  0  0  0999 V2000
    8.1765  -12.4384   18.2177 N   0  0  0  0  0  0  0  0  0  0  0  0
    8.2607  -13.7349   17.6595 C   0  0  0  0  0  0  0  0  0  0  0  0
    8.0065  -13.8326   16.4202 O   0  0  0  0  0  0  0  0  0  0  0  0
    8.6277  -14.9340   18.4719 C   0  0  0  0  0  0  0  0  0  0  0  0
    8.8727  -14.5326   19.9101 C   0  0  0  0  0  0  0  0  0  0  0  0
    8.7115  -15.6804   20.8587 C   0  0  2  0  0  0  0  0  0  0  0  0
    7.4001  -16.2429   20.7928 N   0  0  0  0  0  0  0  0  0  0  0  0
    9.1064  -15.3648   22.2353 C   0  0  0  0  0  0  0  0  0  0  0  0
   10.2512  -14.9798   22.5744 O   0  0  0  0  0  0  0  0  0  0  0  0
    6.4226  -10.6998   26.5270 C   0  0  0  0  0  0  0  0  0  0  0  0
    6.4085  -12.5097   26.6470 S   0  0  0  0  0  0  0  0  0  0  0  0
    7.2657  -13.1599   25.1627 C   0  0  0  0  0  0  0  0  0  0  0  0
    7.2817  -14.6449   25.2997 C   0  0  0  0  0  0  0  0  0  0  0  0
    8.4805  -15.3188   24.6653 C   0  0  2  0  0  0  0  0  0  0  0  0
    8.1327  -15.5013   23.2630 N   0  0  0  0  0  0  0  0  0  0  0  0
    8.7029  -16.6599   25.2551 C   0  0  0  0  0  0  0  0  0  0  0  0
    7.9164  -17.6283   25.0323 O   0  0  0  0  0  0  0  0  0  0  0  0
   11.4853  -20.0857   26.3300 O   0  0  0  0  0  0  0  0  0  0  0  0
   11.2114  -18.8363   25.7651 C   0  0  0  0  0  0  0  0  0  0  0  0
   10.1189  -18.2079   26.5719 C   0  0  2  0  0  0  0  0  0  0  0  0
    9.8206  -16.8758   26.0918 N   0  0  0  0  0  0  0  0  0  0  0  0
   10.6243  -18.0649   27.9808 C   0  0  0  0  0  0  0  0  0  0  0  0
   10.8173  -16.9079   28.4446 O   0  0  0  0  0  0  0  0  0  0  0  0
   10.8830  -19.1727   28.7812 O   0  0  0  0  0  0  0  0  0  0  0  0
  1  2  1  0
  2  3  2  0
  4  5  1  0
  4  2  1  0
  6  5  1  0
  6  8  1  0
  6  7  1  1
  8 15  1  0
  9  8  2  0
 11 12  1  0
 11 10  1  0
 12 13  1  0
 14 13  1  1
 15 14  1  0
 16 17  2  0
 16 14  1  0
 18 19  1  0
 20 19  1  6
 20 22  1  0
 20 21  1  0
 21 16  1  0
 22 24  1  0
 23 22  2  0
M  END
$$$$
