QMS.pdb
     RDKit          3D

 24 23  0  0  1  0  0  0  0  0999 V2000
    6.1786  -18.0849   18.5906 N   0  0  0  0  0  0  0  0  0  0  0  0
    7.3871  -18.6819   18.1634 C   0  0  0  0  0  0  0  0  0  0  0  0
    7.3554  -19.2807   17.0451 O   0  0  0  0  0  0  0  0  0  0  0  0
    8.6410  -18.6196   18.9735 C   0  0  0  0  0  0  0  0  0  0  0  0
    8.3570  -17.9995   20.3243 C   0  0  0  0  0  0  0  0  0  0  0  0
    8.5541  -16.5147   20.3238 C   0  0  2  0  0  0  0  0  0  0  0  0
    9.3280  -16.0827   19.2036 N   0  0  0  0  0  0  0  0  0  0  0  0
    9.0781  -15.9911   21.5894 C   0  0  0  0  0  0  0  0  0  0  0  0
   10.2971  -15.9180   21.8766 O   0  0  0  0  0  0  0  0  0  0  0  0
    6.9238  -11.3556   27.4359 C   0  0  0  0  0  0  0  0  0  0  0  0
    6.4855  -12.2259   25.9058 S   0  0  0  0  0  0  0  0  0  0  0  0
    7.6102  -13.6660   25.7578 C   0  0  0  0  0  0  0  0  0  0  0  0
    7.4000  -14.2286   24.3928 C   0  0  0  0  0  0  0  0  0  0  0  0
    8.5963  -14.9669   23.8294 C   0  0  2  0  0  0  0  0  0  0  0  0
    8.1494  -15.5326   22.5641 N   0  0  0  0  0  0  0  0  0  0  0  0
    8.9861  -16.0893   24.7149 C   0  0  0  0  0  0  0  0  0  0  0  0
    8.2277  -17.0866   24.9054 O   0  0  0  0  0  0  0  0  0  0  0  0
   12.6349  -18.4379   26.6762 O   0  0  0  0  0  0  0  0  0  0  0  0
   12.2239  -17.3342   25.9225 C   0  0  0  0  0  0  0  0  0  0  0  0
   10.7350  -17.2393   26.0395 C   0  0  2  0  0  0  0  0  0  0  0  0
   10.2369  -16.0565   25.3710 N   0  0  0  0  0  0  0  0  0  0  0  0
   10.4061  -17.0911   27.4992 C   0  0  0  0  0  0  0  0  0  0  0  0
    9.8734  -16.0197   27.8982 O   0  0  0  0  0  0  0  0  0  0  0  0
   10.6740  -18.1025   28.4157 O   0  0  0  0  0  0  0  0  0  0  0  0
  1  2  1  0
  2  3  2  0
  4  5  1  0
  4  2  1  0
  6  5  1  0
  6  8  1  0
  6  7  1  6
  8 15  1  0
  9  8  2  0
 11 12  1  0
 11 10  1  0
 12 13  1  0
 14 13  1  1
 15 14  1  0
 16 17  2  0
 16 14  1  0
 18 19  1  0
 20 19  1  1
 20 22  1  0
 20 21  1  0
 21 16  1  0
 22 24  1  0
 23 22  2  0
M  END
$$$$
