QMS.pdb
     RDKit          3D

 24 23  0  0  1  0  0  0  0  0999 V2000
    8.0946  -12.3009   18.0731 N   0  0  0  0  0  0  0  0  0  0  0  0
    8.2420  -13.5743   17.4761 C   0  0  0  0  0  0  0  0  0  0  0  0
    8.5074  -13.5878   16.2354 O   0  0  0  0  0  0  0  0  0  0  0  0
    8.0960  -14.8435   18.2510 C   0  0  0  0  0  0  0  0  0  0  0  0
    7.6783  -14.5393   19.6732 C   0  0  0  0  0  0  0  0  0  0  0  0
    7.9828  -15.6665   20.6113 C   0  0  2  0  0  0  0  0  0  0  0  0
    6.8486  -16.5117   20.8108 N   0  0  0  0  0  0  0  0  0  0  0  0
    8.5748  -15.2311   21.8804 C   0  0  0  0  0  0  0  0  0  0  0  0
    9.7429  -14.7908   22.0043 O   0  0  0  0  0  0  0  0  0  0  0  0
    6.7015  -10.9750   26.0892 C   0  0  0  0  0  0  0  0  0  0  0  0
    6.3002  -12.5205   26.9500 S   0  0  0  0  0  0  0  0  0  0  0  0
    7.5536  -13.7620   26.4516 C   0  0  0  0  0  0  0  0  0  0  0  0
    7.2492  -14.1268   25.0380 C   0  0  0  0  0  0  0  0  0  0  0  0
    8.3195  -14.9583   24.3621 C   0  0  2  0  0  0  0  0  0  0  0  0
    7.7787  -15.3094   23.0563 N   0  0  0  0  0  0  0  0  0  0  0  0
    8.5564  -16.2168   25.1077 C   0  0  0  0  0  0  0  0  0  0  0  0
    7.6200  -17.0331   25.3584 O   0  0  0  0  0  0  0  0  0  0  0  0
   12.3539  -17.4347   25.6064 O   0  0  0  0  0  0  0  0  0  0  0  0
   11.3667  -18.4240   25.6477 C   0  0  0  0  0  0  0  0  0  0  0  0
   10.1237  -17.7962   26.1959 C   0  0  2  0  0  0  0  0  0  0  0  0
    9.8599  -16.5250   25.5569 N   0  0  0  0  0  0  0  0  0  0  0  0
   10.3660  -17.5145   27.6528 C   0  0  0  0  0  0  0  0  0  0  0  0
   10.6104  -18.4792   28.4277 O   0  0  0  0  0  0  0  0  0  0  0  0
   10.3271  -16.2215   28.1642 O   0  0  0  0  0  0  0  0  0  0  0  0
  1  2  1  0
  2  3  2  0
  4  5  1  0
  4  2  1  0
  6  5  1  0
  6  8  1  0
  6  7  1  1
  8 15  1  0
  9  8  2  0
 11 12  1  0
 11 10  1  0
 12 13  1  0
 14 13  1  1
 15 14  1  0
 16 17  2  0
 16 14  1  0
 18 19  1  0
 20 19  1  6
 20 22  1  0
 20 21  1  0
 21 16  1  0
 22 24  1  0
 23 22  2  0
M  END
$$$$
