HIV.pdb
     RDKit          3D

 26 26  0  0  1  0  0  0  0  0999 V2000
    8.8282  -15.0923   20.2629 N   0  0  0  0  0  0  0  0  0  0  0  0
    7.9993  -15.6003   21.3086 C   0  0  1  0  0  0  0  0  0  0  0  0
    7.8453  -17.1135   21.1610 C   0  0  0  0  0  0  0  0  0  0  0  0
    7.1237  -17.4320   19.8926 C   0  0  0  0  0  0  0  0  0  0  0  0
    6.7276  -16.5604   18.9139 C   0  0  0  0  0  0  0  0  0  0  0  0
    6.1117  -17.2867   17.9536 N   0  0  0  0  0  0  0  0  0  0  0  0
    6.1103  -18.5737   18.2981 C   0  0  0  0  0  0  0  0  0  0  0  0
    6.7341  -18.6464   19.4889 N   0  0  0  0  0  0  0  0  0  0  0  0
    8.4504  -15.2449   22.6569 C   0  0  0  0  0  0  0  0  0  0  0  0
    9.7007  -15.2945   22.8926 O   0  0  0  0  0  0  0  0  0  0  0  0
    5.9050  -11.6013   25.7744 C   0  0  0  0  0  0  0  0  0  0  0  0
    6.9965  -12.4112   25.1210 C   0  0  0  0  0  0  0  0  0  0  0  0
    7.2878  -13.6859   25.8381 C   0  0  2  0  0  0  0  0  0  0  0  0
    7.9630  -13.3490   27.1502 C   0  0  0  0  0  0  0  0  0  0  0  0
    8.1597  -14.6437   25.0512 C   0  0  2  0  0  0  0  0  0  0  0  0
    7.6217  -14.8527   23.7162 N   0  0  0  0  0  0  0  0  0  0  0  0
    8.3647  -15.9413   25.7476 C   0  0  0  0  0  0  0  0  0  0  0  0
    7.4542  -16.7615   26.0083 O   0  0  0  0  0  0  0  0  0  0  0  0
   10.6466  -18.6637   24.6237 C   0  0  0  0  0  0  0  0  0  0  0  0
   11.0315  -18.3734   26.0561 C   0  0  1  0  0  0  0  0  0  0  0  0
   12.3216  -17.6089   26.0502 C   0  0  0  0  0  0  0  0  0  0  0  0
    9.9251  -17.6205   26.7691 C   0  0  2  0  0  0  0  0  0  0  0  0
    9.6869  -16.3270   26.1724 N   0  0  0  0  0  0  0  0  0  0  0  0
   10.3641  -17.4183   28.1588 C   0  0  0  0  0  0  0  0  0  0  0  0
   10.4240  -18.4809   29.0341 O   0  0  0  0  0  0  0  0  0  0  0  0
   10.6848  -16.2831   28.5531 O   0  0  0  0  0  0  0  0  0  0  0  0
  2  1  1  6
  2  3  1  0
  2  9  1  0
  3  4  1  0
  4  5  2  0
  6  5  1  0
  7  6  1  0
  8  7  2  0
  8  4  1  0
  9 10  2  0
 12 11  1  0
 13 12  1  0
 13 14  1  1
 15 13  1  0
 16  9  1  0
 15 16  1  6
 17 18  2  0
 17 15  1  0
 20 19  1  6
 20 21  1  0
 20 22  1  0
 22 23  1  6
 23 17  1  0
 24 22  1  0
 24 25  1  0
 26 24  2  0
M  END
$$$$
