HIV.pdb
     RDKit          3D

 26 26  0  0  1  0  0  0  0  0999 V2000
    8.4722  -16.4434   20.4541 N   0  0  0  0  0  0  0  0  0  0  0  0
    8.3100  -16.8538   21.8120 C   0  0  1  0  0  0  0  0  0  0  0  0
    8.9524  -18.2244   22.0210 C   0  0  0  0  0  0  0  0  0  0  0  0
    8.3358  -19.2236   21.0977 C   0  0  0  0  0  0  0  0  0  0  0  0
    7.0795  -19.7634   21.1675 C   0  0  0  0  0  0  0  0  0  0  0  0
    6.9514  -20.6200   20.1288 N   0  0  0  0  0  0  0  0  0  0  0  0
    8.0782  -20.6326   19.4180 C   0  0  0  0  0  0  0  0  0  0  0  0
    8.9169  -19.7716   20.0246 N   0  0  0  0  0  0  0  0  0  0  0  0
    8.8037  -15.8843   22.7938 C   0  0  0  0  0  0  0  0  0  0  0  0
   10.0060  -15.4830   22.6730 O   0  0  0  0  0  0  0  0  0  0  0  0
    5.2633  -12.6159   25.5697 C   0  0  0  0  0  0  0  0  0  0  0  0
    6.3970  -13.1494   24.7304 C   0  0  0  0  0  0  0  0  0  0  0  0
    7.5344  -13.6662   25.5447 C   0  0  2  0  0  0  0  0  0  0  0  0
    8.1222  -12.5110   26.3265 C   0  0  0  0  0  0  0  0  0  0  0  0
    8.6228  -14.3273   24.7230 C   0  0  2  0  0  0  0  0  0  0  0  0
    8.0645  -15.3568   23.8606 N   0  0  0  0  0  0  0  0  0  0  0  0
    9.7226  -14.8772   25.5590 C   0  0  0  0  0  0  0  0  0  0  0  0
   10.9424  -14.7616   25.2975 O   0  0  0  0  0  0  0  0  0  0  0  0
   11.0786  -15.2635   30.1346 C   0  0  0  0  0  0  0  0  0  0  0  0
   10.1635  -14.8952   28.9897 C   0  0  1  0  0  0  0  0  0  0  0  0
   10.3774  -13.4470   28.6644 C   0  0  0  0  0  0  0  0  0  0  0  0
   10.4114  -15.7919   27.7922 C   0  0  2  0  0  0  0  0  0  0  0  0
    9.4133  -15.6024   26.7656 N   0  0  0  0  0  0  0  0  0  0  0  0
   10.3319  -17.1821   28.2677 C   0  0  0  0  0  0  0  0  0  0  0  0
   11.4481  -17.8122   28.7736 O   0  0  0  0  0  0  0  0  0  0  0  0
    9.2530  -17.7988   28.2156 O   0  0  0  0  0  0  0  0  0  0  0  0
  2  1  1  6
  2  3  1  0
  2  9  1  0
  3  4  1  0
  4  5  2  0
  6  5  1  0
  7  6  1  0
  8  7  2  0
  8  4  1  0
  9 10  2  0
 12 11  1  0
 13 12  1  0
 13 14  1  6
 15 13  1  0
 16  9  1  0
 15 16  1  1
 17 18  2  0
 17 15  1  0
 20 19  1  1
 20 21  1  0
 20 22  1  0
 22 23  1  6
 23 17  1  0
 24 22  1  0
 24 25  1  0
 26 24  2  0
M  END
$$$$
