HIV.pdb
     RDKit          3D

 26 26  0  0  1  0  0  0  0  0999 V2000
    9.5207  -15.5327   20.1726 N   0  0  0  0  0  0  0  0  0  0  0  0
    8.5341  -15.7908   21.1718 C   0  0  1  0  0  0  0  0  0  0  0  0
    8.1221  -17.2617   21.1277 C   0  0  0  0  0  0  0  0  0  0  0  0
    7.4070  -17.5536   19.8492 C   0  0  0  0  0  0  0  0  0  0  0  0
    7.2087  -16.7091   18.7899 C   0  0  0  0  0  0  0  0  0  0  0  0
    6.5140  -17.3945   17.8536 N   0  0  0  0  0  0  0  0  0  0  0  0
    6.2738  -18.6301   18.2904 C   0  0  0  0  0  0  0  0  0  0  0  0
    6.8274  -18.7120   19.5149 N   0  0  0  0  0  0  0  0  0  0  0  0
    8.9341  -15.3953   22.5250 C   0  0  0  0  0  0  0  0  0  0  0  0
   10.1532  -15.5624   22.8520 O   0  0  0  0  0  0  0  0  0  0  0  0
    7.3519  -11.9524   27.4391 C   0  0  0  0  0  0  0  0  0  0  0  0
    8.2122  -13.0214   26.8136 C   0  0  0  0  0  0  0  0  0  0  0  0
    7.7145  -13.4664   25.4801 C   0  0  2  0  0  0  0  0  0  0  0  0
    6.3094  -14.0023   25.6523 C   0  0  0  0  0  0  0  0  0  0  0  0
    8.5825  -14.5225   24.8258 C   0  0  2  0  0  0  0  0  0  0  0  0
    8.0877  -14.8458   23.4968 N   0  0  0  0  0  0  0  0  0  0  0  0
    8.7178  -15.7508   25.6527 C   0  0  0  0  0  0  0  0  0  0  0  0
    7.7779  -16.5330   25.9256 O   0  0  0  0  0  0  0  0  0  0  0  0
   11.8121  -19.3131   27.0486 C   0  0  0  0  0  0  0  0  0  0  0  0
   11.5271  -18.0246   26.3120 C   0  0  1  0  0  0  0  0  0  0  0  0
   11.5173  -18.3166   24.8411 C   0  0  0  0  0  0  0  0  0  0  0  0
   10.2212  -17.4133   26.7814 C   0  0  2  0  0  0  0  0  0  0  0  0
   10.0015  -16.1090   26.2015 N   0  0  0  0  0  0  0  0  0  0  0  0
   10.3128  -17.2637   28.2422 C   0  0  0  0  0  0  0  0  0  0  0  0
   10.1414  -18.3534   29.0681 O   0  0  0  0  0  0  0  0  0  0  0  0
   10.5464  -16.1490   28.7421 O   0  0  0  0  0  0  0  0  0  0  0  0
  2  1  1  6
  2  3  1  0
  2  9  1  0
  3  4  1  0
  4  5  2  0
  6  5  1  0
  7  6  1  0
  8  7  2  0
  8  4  1  0
  9 10  2  0
 12 11  1  0
 13 12  1  0
 13 14  1  1
 15 13  1  0
 16  9  1  0
 15 16  1  6
 17 18  2  0
 17 15  1  0
 20 19  1  1
 20 21  1  0
 20 22  1  0
 22 23  1  6
 23 17  1  0
 24 22  1  0
 24 25  1  0
 26 24  2  0
M  END
$$$$
