HIV.pdb
     RDKit          3D

 26 26  0  0  1  0  0  0  0  0999 V2000
    8.8407  -17.6938   20.8423 N   0  0  0  0  0  0  0  0  0  0  0  0
    8.5868  -17.7433   22.2465 C   0  0  1  0  0  0  0  0  0  0  0  0
    9.3934  -18.8755   22.8810 C   0  0  0  0  0  0  0  0  0  0  0  0
    9.0213  -20.1801   22.2560 C   0  0  0  0  0  0  0  0  0  0  0  0
    7.8248  -20.8396   22.3457 C   0  0  0  0  0  0  0  0  0  0  0  0
    7.9378  -21.9778   21.6241 N   0  0  0  0  0  0  0  0  0  0  0  0
    9.1566  -22.0500   21.0907 C   0  0  0  0  0  0  0  0  0  0  0  0
    9.8085  -20.9408   21.4873 N   0  0  0  0  0  0  0  0  0  0  0  0
    8.8201  -16.4749   22.9425 C   0  0  0  0  0  0  0  0  0  0  0  0
    9.9010  -15.8522   22.6871 O   0  0  0  0  0  0  0  0  0  0  0  0
    6.0650  -12.0707   26.3882 C   0  0  0  0  0  0  0  0  0  0  0  0
    7.2242  -12.5773   25.5674 C   0  0  0  0  0  0  0  0  0  0  0  0
    7.0085  -13.9548   25.0385 C   0  0  2  0  0  0  0  0  0  0  0  0
    6.4736  -14.8165   26.1622 C   0  0  0  0  0  0  0  0  0  0  0  0
    8.2582  -14.5909   24.4636 C   0  0  2  0  0  0  0  0  0  0  0  0
    7.9529  -15.8831   23.8702 N   0  0  0  0  0  0  0  0  0  0  0  0
    9.3540  -14.7130   25.4612 C   0  0  0  0  0  0  0  0  0  0  0  0
   10.1997  -13.8208   25.7032 O   0  0  0  0  0  0  0  0  0  0  0  0
   10.5780  -15.1528   29.7666 C   0  0  0  0  0  0  0  0  0  0  0  0
    9.7233  -15.0886   28.5219 C   0  0  1  0  0  0  0  0  0  0  0  0
    9.6059  -13.6526   28.1060 C   0  0  0  0  0  0  0  0  0  0  0  0
   10.3065  -15.9553   27.4228 C   0  0  2  0  0  0  0  0  0  0  0  0
    9.4942  -15.9248   26.2289 N   0  0  0  0  0  0  0  0  0  0  0  0
   10.3370  -17.3362   27.9297 C   0  0  0  0  0  0  0  0  0  0  0  0
   11.2038  -17.6902   28.9408 O   0  0  0  0  0  0  0  0  0  0  0  0
    9.5780  -18.1953   27.4469 O   0  0  0  0  0  0  0  0  0  0  0  0
  2  1  1  6
  2  3  1  0
  2  9  1  0
  3  4  1  0
  4  5  2  0
  6  5  1  0
  7  6  1  0
  8  7  2  0
  8  4  1  0
  9 10  2  0
 12 11  1  0
 13 12  1  0
 13 14  1  1
 15 13  1  0
 16  9  1  0
 15 16  1  1
 17 18  2  0
 17 15  1  0
 20 19  1  1
 20 21  1  0
 20 22  1  0
 22 23  1  6
 23 17  1  0
 24 22  1  0
 24 25  1  0
 26 24  2  0
M  END
$$$$
