HIV.pdb
     RDKit          3D

 26 26  0  0  1  0  0  0  0  0999 V2000
    8.6790  -15.1306   20.0111 N   0  0  0  0  0  0  0  0  0  0  0  0
    7.9799  -15.6385   21.1477 C   0  0  1  0  0  0  0  0  0  0  0  0
    7.8254  -17.1541   21.0284 C   0  0  0  0  0  0  0  0  0  0  0  0
    7.1427  -17.4984   19.7453 C   0  0  0  0  0  0  0  0  0  0  0  0
    5.9613  -16.9992   19.2661 C   0  0  0  0  0  0  0  0  0  0  0  0
    5.7288  -17.5918   18.0728 N   0  0  0  0  0  0  0  0  0  0  0  0
    6.7190  -18.4382   17.7934 C   0  0  0  0  0  0  0  0  0  0  0  0
    7.5777  -18.3696   18.8280 N   0  0  0  0  0  0  0  0  0  0  0  0
    8.5780  -15.2686   22.4334 C   0  0  0  0  0  0  0  0  0  0  0  0
    9.8300  -15.4513   22.5756 O   0  0  0  0  0  0  0  0  0  0  0  0
    5.8121  -12.6297   26.7711 C   0  0  0  0  0  0  0  0  0  0  0  0
    6.4412  -13.6606   25.8680 C   0  0  0  0  0  0  0  0  0  0  0  0
    7.8727  -13.3750   25.5627 C   0  0  2  0  0  0  0  0  0  0  0  0
    7.9415  -12.0863   24.7716 C   0  0  0  0  0  0  0  0  0  0  0  0
    8.5649  -14.4804   24.7909 C   0  0  2  0  0  0  0  0  0  0  0  0
    7.8890  -14.7282   23.5271 N   0  0  0  0  0  0  0  0  0  0  0  0
    8.6957  -15.7366   25.5755 C   0  0  0  0  0  0  0  0  0  0  0  0
    7.8185  -16.6286   25.6436 O   0  0  0  0  0  0  0  0  0  0  0  0
   11.6999  -19.1896   27.2204 C   0  0  0  0  0  0  0  0  0  0  0  0
   11.4213  -17.9069   26.4714 C   0  0  1  0  0  0  0  0  0  0  0  0
   11.3931  -18.2161   25.0042 C   0  0  0  0  0  0  0  0  0  0  0  0
   10.1269  -17.2761   26.9467 C   0  0  2  0  0  0  0  0  0  0  0  0
    9.8985  -15.9913   26.3277 N   0  0  0  0  0  0  0  0  0  0  0  0
   10.2491  -17.0776   28.3995 C   0  0  0  0  0  0  0  0  0  0  0  0
   10.1236  -18.1440   29.2632 O   0  0  0  0  0  0  0  0  0  0  0  0
   10.4672  -15.9422   28.8582 O   0  0  0  0  0  0  0  0  0  0  0  0
  2  1  1  6
  2  3  1  0
  2  9  1  0
  3  4  1  0
  4  5  2  0
  6  5  1  0
  7  6  1  0
  8  7  2  0
  8  4  1  0
  9 10  2  0
 12 11  1  0
 13 12  1  0
 13 14  1  6
 15 13  1  0
 16  9  1  0
 15 16  1  6
 17 18  2  0
 17 15  1  0
 20 19  1  1
 20 21  1  0
 20 22  1  0
 22 23  1  6
 23 17  1  0
 24 22  1  0
 24 25  1  0
 26 24  2  0
M  END
$$$$
