HIV.pdb
     RDKit          3D

 26 26  0  0  1  0  0  0  0  0999 V2000
    9.4574  -15.9599   20.5347 N   0  0  0  0  0  0  0  0  0  0  0  0
    8.7052  -16.4170   21.6589 C   0  0  1  0  0  0  0  0  0  0  0  0
    8.8736  -17.9275   21.8176 C   0  0  0  0  0  0  0  0  0  0  0  0
    8.3070  -18.6322   20.6287 C   0  0  0  0  0  0  0  0  0  0  0  0
    6.9916  -18.9089   20.3686 C   0  0  0  0  0  0  0  0  0  0  0  0
    6.9439  -19.5582   19.1832 N   0  0  0  0  0  0  0  0  0  0  0  0
    8.1773  -19.6948   18.6982 C   0  0  0  0  0  0  0  0  0  0  0  0
    9.0015  -19.1222   19.5957 N   0  0  0  0  0  0  0  0  0  0  0  0
    9.0123  -15.7176   22.9096 C   0  0  0  0  0  0  0  0  0  0  0  0
   10.2357  -15.6312   23.2519 O   0  0  0  0  0  0  0  0  0  0  0  0
    6.7162  -11.6481   27.0067 C   0  0  0  0  0  0  0  0  0  0  0  0
    7.7865  -12.6279   26.5961 C   0  0  0  0  0  0  0  0  0  0  0  0
    7.4235  -13.4162   25.3834 C   0  0  2  0  0  0  0  0  0  0  0  0
    6.1359  -14.1593   25.6680 C   0  0  0  0  0  0  0  0  0  0  0  0
    8.4919  -14.4011   24.9529 C   0  0  2  0  0  0  0  0  0  0  0  0
    8.0722  -15.1318   23.7674 N   0  0  0  0  0  0  0  0  0  0  0  0
    8.8844  -15.3372   26.0394 C   0  0  0  0  0  0  0  0  0  0  0  0
    8.1315  -16.2058   26.5379 O   0  0  0  0  0  0  0  0  0  0  0  0
   12.6455  -17.5253   28.4161 C   0  0  0  0  0  0  0  0  0  0  0  0
   12.1742  -16.5109   27.3998 C   0  0  1  0  0  0  0  0  0  0  0  0
   12.5717  -16.9922   26.0363 C   0  0  0  0  0  0  0  0  0  0  0  0
   10.6784  -16.2896   27.5134 C   0  0  2  0  0  0  0  0  0  0  0  0
   10.2149  -15.2798   26.5908 N   0  0  0  0  0  0  0  0  0  0  0  0
   10.4116  -15.8255   28.8839 C   0  0  0  0  0  0  0  0  0  0  0  0
   10.2533  -16.7317   29.9099 O   0  0  0  0  0  0  0  0  0  0  0  0
   10.3271  -14.6083   29.1254 O   0  0  0  0  0  0  0  0  0  0  0  0
  2  1  1  6
  2  3  1  0
  2  9  1  0
  3  4  1  0
  4  5  2  0
  6  5  1  0
  7  6  1  0
  8  7  2  0
  8  4  1  0
  9 10  2  0
 12 11  1  0
 13 12  1  0
 13 14  1  1
 15 13  1  0
 16  9  1  0
 15 16  1  6
 17 18  2  0
 17 15  1  0
 20 19  1  1
 20 21  1  0
 20 22  1  0
 22 23  1  6
 23 17  1  0
 24 22  1  0
 24 25  1  0
 26 24  2  0
M  END
$$$$
