HIV.pdb
     RDKit          3D

 26 26  0  0  1  0  0  0  0  0999 V2000
    8.9364  -15.2754   20.4005 N   0  0  0  0  0  0  0  0  0  0  0  0
    8.1590  -15.7867   21.4835 C   0  0  1  0  0  0  0  0  0  0  0  0
    8.0748  -17.3095   21.3894 C   0  0  0  0  0  0  0  0  0  0  0  0
    7.2965  -17.7040   20.1770 C   0  0  0  0  0  0  0  0  0  0  0  0
    6.7893  -16.8838   19.2050 C   0  0  0  0  0  0  0  0  0  0  0  0
    6.1598  -17.6706   18.3030 N   0  0  0  0  0  0  0  0  0  0  0  0
    6.2566  -18.9456   18.6771 C   0  0  0  0  0  0  0  0  0  0  0  0
    6.9561  -18.9495   19.8274 N   0  0  0  0  0  0  0  0  0  0  0  0
    8.6254  -15.3648   22.8072 C   0  0  0  0  0  0  0  0  0  0  0  0
    9.8774  -15.4122   23.0340 O   0  0  0  0  0  0  0  0  0  0  0  0
    5.9713  -11.7141   25.8226 C   0  0  0  0  0  0  0  0  0  0  0  0
    7.0997  -12.4866   25.1869 C   0  0  0  0  0  0  0  0  0  0  0  0
    7.4767  -13.7087   25.9540 C   0  0  2  0  0  0  0  0  0  0  0  0
    8.1920  -13.2755   27.2157 C   0  0  0  0  0  0  0  0  0  0  0  0
    8.3551  -14.6697   25.1784 C   0  0  2  0  0  0  0  0  0  0  0  0
    7.8097  -14.9110   23.8519 N   0  0  0  0  0  0  0  0  0  0  0  0
    8.5827  -15.9510   25.8975 C   0  0  0  0  0  0  0  0  0  0  0  0
    7.6738  -16.7194   26.2890 O   0  0  0  0  0  0  0  0  0  0  0  0
   11.2904  -18.5779   24.7664 C   0  0  0  0  0  0  0  0  0  0  0  0
   11.4291  -18.3187   26.2488 C   0  0  1  0  0  0  0  0  0  0  0  0
   12.6487  -17.4735   26.4659 C   0  0  0  0  0  0  0  0  0  0  0  0
   10.1767  -17.6660   26.8010 C   0  0  2  0  0  0  0  0  0  0  0  0
    9.9270  -16.3824   26.1879 N   0  0  0  0  0  0  0  0  0  0  0  0
   10.3945  -17.4593   28.2414 C   0  0  0  0  0  0  0  0  0  0  0  0
   10.4148  -18.5323   29.1058 O   0  0  0  0  0  0  0  0  0  0  0  0
   10.5621  -16.3110   28.6888 O   0  0  0  0  0  0  0  0  0  0  0  0
  2  1  1  6
  2  3  1  0
  2  9  1  0
  3  4  1  0
  4  5  2  0
  6  5  1  0
  7  6  1  0
  8  7  2  0
  8  4  1  0
  9 10  2  0
 12 11  1  0
 13 12  1  0
 13 14  1  1
 15 13  1  0
 16  9  1  0
 15 16  1  6
 17 18  2  0
 17 15  1  0
 20 19  1  6
 20 21  1  0
 20 22  1  0
 22 23  1  6
 23 17  1  0
 24 22  1  0
 24 25  1  0
 26 24  2  0
M  END
$$$$
