HIV.pdb
     RDKit          3D

 26 26  0  0  1  0  0  0  0  0999 V2000
    9.5127  -18.0188   16.6582 N   0  0  0  0  0  0  0  0  0  0  0  0
    8.6414  -18.0472   17.7889 C   0  0  1  0  0  0  0  0  0  0  0  0
    8.4673  -19.4855   18.2749 C   0  0  0  0  0  0  0  0  0  0  0  0
    7.7958  -20.3031   17.2205 C   0  0  0  0  0  0  0  0  0  0  0  0
    6.6253  -20.0264   16.5663 C   0  0  0  0  0  0  0  0  0  0  0  0
    6.4003  -21.0392   15.6988 N   0  0  0  0  0  0  0  0  0  0  0  0
    7.3846  -21.9325   15.7892 C   0  0  0  0  0  0  0  0  0  0  0  0
    8.2320  -21.4670   16.7261 N   0  0  0  0  0  0  0  0  0  0  0  0
    9.0535  -17.1661   18.8851 C   0  0  0  0  0  0  0  0  0  0  0  0
   10.2955  -17.1078   19.1596 O   0  0  0  0  0  0  0  0  0  0  0  0
    6.8082  -12.2870   19.7854 C   0  0  0  0  0  0  0  0  0  0  0  0
    7.7798  -13.4328   19.6538 C   0  0  0  0  0  0  0  0  0  0  0  0
    7.8492  -14.2840   20.8764 C   0  0  2  0  0  0  0  0  0  0  0  0
    8.3811  -13.4387   22.0139 C   0  0  0  0  0  0  0  0  0  0  0  0
    8.7154  -15.5169   20.7138 C   0  0  2  0  0  0  0  0  0  0  0  0
    8.1957  -16.3772   19.6625 N   0  0  0  0  0  0  0  0  0  0  0  0
    8.8835  -16.2745   21.9821 C   0  0  0  0  0  0  0  0  0  0  0  0
    7.9436  -16.7714   22.6450 O   0  0  0  0  0  0  0  0  0  0  0  0
   10.7089  -19.4314   22.5757 C   0  0  0  0  0  0  0  0  0  0  0  0
   11.3294  -18.4197   23.5114 C   0  0  1  0  0  0  0  0  0  0  0  0
   12.6447  -17.9899   22.9334 C   0  0  0  0  0  0  0  0  0  0  0  0
   10.3936  -17.2476   23.7345 C   0  0  2  0  0  0  0  0  0  0  0  0
   10.2021  -16.4781   22.5274 N   0  0  0  0  0  0  0  0  0  0  0  0
   11.0187  -16.3800   24.7452 C   0  0  0  0  0  0  0  0  0  0  0  0
   11.5479  -15.1592   24.3869 O   0  0  0  0  0  0  0  0  0  0  0  0
   11.0731  -16.7447   25.9331 O   0  0  0  0  0  0  0  0  0  0  0  0
  2  1  1  6
  2  3  1  0
  2  9  1  0
  3  4  1  0
  4  5  2  0
  6  5  1  0
  7  6  1  0
  8  7  2  0
  8  4  1  0
  9 10  2  0
 12 11  1  0
 13 12  1  0
 13 14  1  1
 15 13  1  0
 16  9  1  0
 15 16  1  6
 17 18  2  0
 17 15  1  0
 20 19  1  6
 20 21  1  0
 20 22  1  0
 22 23  1  6
 23 17  1  0
 24 22  1  0
 24 25  1  0
 26 24  2  0
M  END
$$$$
