HIV.pdb
     RDKit          3D

 26 26  0  0  1  0  0  0  0  0999 V2000
   10.3624  -18.0837   17.1841 N   0  0  0  0  0  0  0  0  0  0  0  0
    9.3607  -18.1243   18.2006 C   0  0  1  0  0  0  0  0  0  0  0  0
    9.2301  -19.5461   18.7451 C   0  0  0  0  0  0  0  0  0  0  0  0
    8.6333  -20.4380   17.7061 C   0  0  0  0  0  0  0  0  0  0  0  0
    7.4338  -20.2877   17.0634 C   0  0  0  0  0  0  0  0  0  0  0  0
    7.3030  -21.3269   16.2077 N   0  0  0  0  0  0  0  0  0  0  0  0
    8.3736  -22.1152   16.2946 C   0  0  0  0  0  0  0  0  0  0  0  0
    9.1796  -21.5569   17.2171 N   0  0  0  0  0  0  0  0  0  0  0  0
    9.5684  -17.1609   19.2853 C   0  0  0  0  0  0  0  0  0  0  0  0
   10.7545  -17.0142   19.7244 O   0  0  0  0  0  0  0  0  0  0  0  0
    7.0449  -12.2964   19.7917 C   0  0  0  0  0  0  0  0  0  0  0  0
    8.0474  -13.4229   19.7989 C   0  0  0  0  0  0  0  0  0  0  0  0
    7.9310  -14.3017   20.9981 C   0  0  2  0  0  0  0  0  0  0  0  0
    8.1870  -13.4602   22.2300 C   0  0  0  0  0  0  0  0  0  0  0  0
    8.8814  -15.4820   20.9847 C   0  0  2  0  0  0  0  0  0  0  0  0
    8.5704  -16.3821   19.8854 N   0  0  0  0  0  0  0  0  0  0  0  0
    8.9073  -16.2158   22.2776 C   0  0  0  0  0  0  0  0  0  0  0  0
    7.9237  -16.8058   22.7818 O   0  0  0  0  0  0  0  0  0  0  0  0
   11.6671  -18.5878   25.6087 C   0  0  0  0  0  0  0  0  0  0  0  0
   11.5658  -17.7949   24.3261 C   0  0  1  0  0  0  0  0  0  0  0  0
   11.8132  -18.7263   23.1771 C   0  0  0  0  0  0  0  0  0  0  0  0
   10.2185  -17.1068   24.2233 C   0  0  2  0  0  0  0  0  0  0  0  0
   10.1277  -16.2811   23.0418 N   0  0  0  0  0  0  0  0  0  0  0  0
   10.0814  -16.2429   25.4064 C   0  0  0  0  0  0  0  0  0  0  0  0
    9.6305  -16.7609   26.6011 O   0  0  0  0  0  0  0  0  0  0  0  0
   10.3726  -15.0358   25.3350 O   0  0  0  0  0  0  0  0  0  0  0  0
  2  1  1  6
  2  3  1  0
  2  9  1  0
  3  4  1  0
  4  5  2  0
  6  5  1  0
  7  6  1  0
  8  7  2  0
  8  4  1  0
  9 10  2  0
 12 11  1  0
 13 12  1  0
 13 14  1  1
 15 13  1  0
 16  9  1  0
 15 16  1  6
 17 18  2  0
 17 15  1  0
 20 19  1  1
 20 21  1  0
 20 22  1  0
 22 23  1  6
 23 17  1  0
 24 22  1  0
 24 25  1  0
 26 24  2  0
M  END
$$$$
