HIV.pdb
     RDKit          3D

 26 26  0  0  1  0  0  0  0  0999 V2000
    8.9407  -19.8144   19.9139 N   0  0  0  0  0  0  0  0  0  0  0  0
    8.6796  -19.1848   21.1686 C   0  0  1  0  0  0  0  0  0  0  0  0
    9.2772  -20.0173   22.3021 C   0  0  0  0  0  0  0  0  0  0  0  0
    8.7475  -21.4128   22.2450 C   0  0  0  0  0  0  0  0  0  0  0  0
    7.5014  -21.8500   22.6066 C   0  0  0  0  0  0  0  0  0  0  0  0
    7.4638  -23.1840   22.3871 N   0  0  0  0  0  0  0  0  0  0  0  0
    8.6368  -23.5909   21.9038 C   0  0  0  0  0  0  0  0  0  0  0  0
    9.4128  -22.4937   21.8226 N   0  0  0  0  0  0  0  0  0  0  0  0
    9.1275  -17.7915   21.2444 C   0  0  0  0  0  0  0  0  0  0  0  0
   10.3690  -17.5615   21.0802 O   0  0  0  0  0  0  0  0  0  0  0  0
    7.4332  -12.0827   19.8883 C   0  0  0  0  0  0  0  0  0  0  0  0
    8.4193  -13.0151   20.5459 C   0  0  0  0  0  0  0  0  0  0  0  0
    7.9002  -14.4052   20.6941 C   0  0  2  0  0  0  0  0  0  0  0  0
    6.5706  -14.3413   21.4148 C   0  0  0  0  0  0  0  0  0  0  0  0
    8.8380  -15.3307   21.4429 C   0  0  2  0  0  0  0  0  0  0  0  0
    8.3045  -16.6832   21.4832 N   0  0  0  0  0  0  0  0  0  0  0  0
    9.1540  -14.8461   22.8126 C   0  0  0  0  0  0  0  0  0  0  0  0
    9.8943  -13.8683   23.0692 O   0  0  0  0  0  0  0  0  0  0  0  0
    7.5179  -12.9144   25.1694 C   0  0  0  0  0  0  0  0  0  0  0  0
    7.6433  -14.2632   25.8396 C   0  0  1  0  0  0  0  0  0  0  0  0
    6.3572  -15.0083   25.6402 C   0  0  0  0  0  0  0  0  0  0  0  0
    8.8353  -15.0262   25.2954 C   0  0  2  0  0  0  0  0  0  0  0  0
    8.5926  -15.5161   23.9586 N   0  0  0  0  0  0  0  0  0  0  0  0
    9.0527  -16.1804   26.1817 C   0  0  0  0  0  0  0  0  0  0  0  0
    9.5472  -15.9999   27.4552 O   0  0  0  0  0  0  0  0  0  0  0  0
    8.7904  -17.3299   25.7853 O   0  0  0  0  0  0  0  0  0  0  0  0
  2  1  1  6
  2  3  1  0
  2  9  1  0
  3  4  1  0
  4  5  2  0
  6  5  1  0
  7  6  1  0
  8  7  2  0
  8  4  1  0
  9 10  2  0
 12 11  1  0
 13 12  1  0
 13 14  1  1
 15 13  1  0
 16  9  1  0
 15 16  1  1
 17 18  2  0
 17 15  1  0
 20 19  1  6
 20 21  1  0
 20 22  1  0
 22 23  1  6
 23 17  1  0
 24 22  1  0
 24 25  1  0
 26 24  2  0
M  END
$$$$
