TRW.pdb
     RDKit          3D

 33 34  0  0  1  0  0  0  0  0999 V2000
   10.5593  -12.9051   20.2789 C   0  0  0  0  0  0  0  0  0  0  0  0
    9.3238  -12.6028   19.4774 C   0  0  1  0  0  0  0  0  0  0  0  0
    9.6042  -11.6879   18.4896 O   0  0  0  0  0  0  0  0  0  0  0  0
    8.6667  -13.8436   18.9144 C   0  0  2  0  0  0  0  0  0  0  0  0
    7.4436  -13.4679   18.2336 N   0  0  0  0  0  0  0  0  0  0  0  0
    8.3478  -14.7399   20.0605 C   0  0  0  0  0  0  0  0  0  0  0  0
    7.2853  -14.5650   20.7493 O   0  0  0  0  0  0  0  0  0  0  0  0
   10.2458  -20.2385   16.9735 N   0  0  0  0  0  0  0  0  0  0  0  0
    8.8875  -20.5581   17.1962 C   0  0  0  0  0  0  0  0  0  0  0  0
    8.1938  -21.1126   16.2566 N   0  0  0  0  0  0  0  0  0  0  0  0
    8.2692  -20.2843   18.4302 N   0  0  0  0  0  0  0  0  0  0  0  0
    9.0776  -20.0026   19.6090 C   0  0  0  0  0  0  0  0  0  0  0  0
    9.1757  -18.5279   19.8709 C   0  0  0  0  0  0  0  0  0  0  0  0
    8.7671  -18.1296   21.2364 C   0  0  0  0  0  0  0  0  0  0  0  0
    8.8841  -16.6865   21.5950 C   0  0  2  0  0  0  0  0  0  0  0  0
    9.1885  -15.8274   20.4554 N   0  0  0  0  0  0  0  0  0  0  0  0
    9.7010  -16.3728   22.7782 C   0  0  0  0  0  0  0  0  0  0  0  0
   10.9479  -16.1116   22.6734 O   0  0  0  0  0  0  0  0  0  0  0  0
    7.1970  -21.3489   16.3810 N   0  0  0  0  0  0  0  0  0  0  0  0
    9.1747  -16.3355   24.0918 C   0  0  2  0  0  0  0  0  0  0  0  0
   10.0780  -16.1605   25.2554 C   0  0  0  0  0  0  0  0  0  0  0  0
    9.6815  -14.8414   25.8327 C   0  0  0  0  0  0  0  0  0  0  0  0
    8.2411  -14.5581   25.8995 C   0  0  0  0  0  0  0  0  0  0  0  0
    7.1958  -15.4899   25.7748 N   0  0  0  0  0  0  0  0  0  0  0  0
    6.0131  -14.8643   25.8595 C   0  0  0  0  0  0  0  0  0  0  0  0
    6.2116  -13.5417   26.0383 C   0  0  0  0  0  0  0  0  0  0  0  0
    5.3057  -12.5132   26.1925 C   0  0  0  0  0  0  0  0  0  0  0  0
    5.8206  -11.2523   26.3793 C   0  0  0  0  0  0  0  0  0  0  0  0
    7.1743  -11.0143   26.4126 C   0  0  0  0  0  0  0  0  0  0  0  0
    8.0435  -12.0582   26.2555 C   0  0  0  0  0  0  0  0  0  0  0  0
    7.5949  -13.3486   26.0638 C   0  0  0  0  0  0  0  0  0  0  0  0
    9.8857  -17.3090   26.1264 O   0  0  0  0  0  0  0  0  0  0  0  0
    9.0236  -18.1732   25.8678 O   0  0  0  0  0  0  0  0  0  0  0  0
  2  3  1  0
  2  1  1  6
  4  2  1  0
  4  5  1  1
  6  7  2  0
  6  4  1  0
  8  9  1  0
  9 11  1  0
 10  9  2  0
 11 12  1  0
 13 12  1  0
 13 14  1  0
 15 14  1  6
 15 16  1  0
 16  6  1  0
 17 15  1  0
 18 17  2  0
 19 17  1  0
 20 31  1  0
 20 19  1  0
 20 21  1  6
 21 22  1  0
 22 30  1  0
 22 23  2  0
 23 24  1  0
 25 24  1  0
 25 26  2  0
 27 26  1  0
 28 27  2  0
 29 30  2  0
 29 28  1  0
 30 25  1  0
 31 33  1  0
 32 31  2  0
M  END
$$$$
