TRW.pdb
     RDKit          3D

 33 34  0  0  1  0  0  0  0  0999 V2000
    9.1041  -12.0473   18.0551 C   0  0  0  0  0  0  0  0  0  0  0  0
    9.1050  -13.2044   19.0149 C   0  0  1  0  0  0  0  0  0  0  0  0
    9.0500  -12.7520   20.3126 O   0  0  0  0  0  0  0  0  0  0  0  0
    8.0102  -14.2089   18.7304 C   0  0  2  0  0  0  0  0  0  0  0  0
    6.7213  -13.5594   18.8632 N   0  0  0  0  0  0  0  0  0  0  0  0
    8.1293  -15.2979   19.7395 C   0  0  0  0  0  0  0  0  0  0  0  0
    7.4079  -15.2910   20.7947 O   0  0  0  0  0  0  0  0  0  0  0  0
    9.5048  -20.7928   16.0361 N   0  0  0  0  0  0  0  0  0  0  0  0
   10.4067  -21.4568   16.8977 C   0  0  0  0  0  0  0  0  0  0  0  0
   10.5209  -22.7435   16.8430 N   0  0  0  0  0  0  0  0  0  0  0  0
   11.1911  -20.7407   17.8208 N   0  0  0  0  0  0  0  0  0  0  0  0
   10.9997  -19.3063   17.9884 C   0  0  0  0  0  0  0  0  0  0  0  0
    9.7163  -19.0010   18.7044 C   0  0  0  0  0  0  0  0  0  0  0  0
    9.8910  -18.6469   20.1307 C   0  0  0  0  0  0  0  0  0  0  0  0
    9.2017  -17.4193   20.6232 C   0  0  2  0  0  0  0  0  0  0  0  0
    9.0359  -16.3948   19.5974 N   0  0  0  0  0  0  0  0  0  0  0  0
    9.6806  -16.8714   21.9023 C   0  0  0  0  0  0  0  0  0  0  0  0
   10.7857  -16.2334   21.9787 O   0  0  0  0  0  0  0  0  0  0  0  0
   11.1668  -23.2609   17.4596 N   0  0  0  0  0  0  0  0  0  0  0  0
    8.9649  -17.0062   23.1162 C   0  0  1  0  0  0  0  0  0  0  0  0
    9.3889  -16.2542   24.3226 C   0  0  0  0  0  0  0  0  0  0  0  0
    8.2649  -15.3040   24.5765 C   0  0  0  0  0  0  0  0  0  0  0  0
    8.2905  -14.5806   25.8554 C   0  0  0  0  0  0  0  0  0  0  0  0
    8.9954  -14.9496   27.0145 N   0  0  0  0  0  0  0  0  0  0  0  0
    8.7585  -14.0659   27.9944 C   0  0  0  0  0  0  0  0  0  0  0  0
    7.9199  -13.1077   27.5479 C   0  0  0  0  0  0  0  0  0  0  0  0
    7.4109  -11.9955   28.1852 C   0  0  0  0  0  0  0  0  0  0  0  0
    6.5822  -11.1813   27.4503 C   0  0  0  0  0  0  0  0  0  0  0  0
    6.2673  -11.4524   26.1397 C   0  0  0  0  0  0  0  0  0  0  0  0
    6.7897  -12.5648   25.5401 C   0  0  0  0  0  0  0  0  0  0  0  0
    7.6277  -13.4248   26.2192 C   0  0  0  0  0  0  0  0  0  0  0  0
    9.6348  -17.2291   25.3733 O   0  0  0  0  0  0  0  0  0  0  0  0
    9.0820  -18.3475   25.3530 O   0  0  0  0  0  0  0  0  0  0  0  0
  2  3  1  0
  2  1  1  6
  4  2  1  0
  4  5  1  1
  6  7  2  0
  6  4  1  0
  8  9  1  0
  9 11  1  0
 10  9  2  0
 11 12  1  0
 13 12  1  0
 13 14  1  0
 15 14  1  6
 15 16  1  0
 16  6  1  0
 17 15  1  0
 18 17  2  0
 19 17  1  0
 20 31  1  0
 20 19  1  0
 20 21  1  6
 21 22  1  0
 22 30  1  0
 22 23  2  0
 23 24  1  0
 25 24  1  0
 25 26  2  0
 27 26  1  0
 28 27  2  0
 29 30  2  0
 29 28  1  0
 30 25  1  0
 31 33  1  0
 32 31  2  0
M  END
$$$$
