TRW.pdb
     RDKit          3D

 33 34  0  0  1  0  0  0  0  0999 V2000
    6.4987  -21.4622   26.1661 C   0  0  0  0  0  0  0  0  0  0  0  0
    7.1231  -20.3623   25.3535 C   0  0  1  0  0  0  0  0  0  0  0  0
    8.3543  -20.0262   25.8661 O   0  0  0  0  0  0  0  0  0  0  0  0
    7.2066  -20.6913   23.8794 C   0  0  2  0  0  0  0  0  0  0  0  0
    8.0294  -21.8710   23.7003 N   0  0  0  0  0  0  0  0  0  0  0  0
    7.8410  -19.5292   23.1970 C   0  0  0  0  0  0  0  0  0  0  0  0
    9.0346  -19.6091   22.7469 O   0  0  0  0  0  0  0  0  0  0  0  0
    8.8848  -11.9044   18.1931 N   0  0  0  0  0  0  0  0  0  0  0  0
    7.9741  -12.7060   18.9174 C   0  0  0  0  0  0  0  0  0  0  0  0
    7.1052  -12.1500   19.6969 N   0  0  0  0  0  0  0  0  0  0  0  0
    7.9921  -14.1087   18.8060 N   0  0  0  0  0  0  0  0  0  0  0  0
    7.0511  -14.9171   19.5698 C   0  0  0  0  0  0  0  0  0  0  0  0
    7.4645  -15.0332   21.0081 C   0  0  0  0  0  0  0  0  0  0  0  0
    6.8841  -16.1996   21.7100 C   0  0  0  0  0  0  0  0  0  0  0  0
    7.8268  -17.1177   22.4123 C   0  0  2  0  0  0  0  0  0  0  0  0
    7.1728  -18.2792   23.0061 N   0  0  0  0  0  0  0  0  0  0  0  0
    8.7977  -16.4856   23.3199 C   0  0  0  0  0  0  0  0  0  0  0  0
    9.5807  -15.5603   22.9140 O   0  0  0  0  0  0  0  0  0  0  0  0
    6.3936  -12.7010   20.2021 N   0  0  0  0  0  0  0  0  0  0  0  0
    8.9300  -16.8476   24.6821 C   0  0  1  0  0  0  0  0  0  0  0  0
    9.8804  -16.1224   25.5603 C   0  0  0  0  0  0  0  0  0  0  0  0
    9.0496  -15.6930   26.7248 C   0  0  0  0  0  0  0  0  0  0  0  0
    7.8611  -14.8832   26.4228 C   0  0  0  0  0  0  0  0  0  0  0  0
    6.5518  -15.3555   26.2251 N   0  0  0  0  0  0  0  0  0  0  0  0
    5.7344  -14.3316   25.9409 C   0  0  0  0  0  0  0  0  0  0  0  0
    6.4358  -13.1788   25.9383 C   0  0  0  0  0  0  0  0  0  0  0  0
    6.0247  -11.8813   25.7156 C   0  0  0  0  0  0  0  0  0  0  0  0
    6.9842  -10.9006   25.8011 C   0  0  0  0  0  0  0  0  0  0  0  0
    8.2966  -11.1870   26.0939 C   0  0  0  0  0  0  0  0  0  0  0  0
    8.6687  -12.4853   26.3081 C   0  0  0  0  0  0  0  0  0  0  0  0
    7.7573  -13.5185   26.2375 C   0  0  0  0  0  0  0  0  0  0  0  0
   10.9663  -17.0390   25.8694 O   0  0  0  0  0  0  0  0  0  0  0  0
   10.9237  -18.2309   25.5029 O   0  0  0  0  0  0  0  0  0  0  0  0
  2  3  1  0
  2  1  1  1
  4  2  1  0
  4  5  1  1
  6  7  2  0
  6  4  1  0
  8  9  1  0
  9 11  1  0
 10  9  2  0
 11 12  1  0
 13 12  1  0
 13 14  1  0
 15 14  1  1
 15 16  1  0
 16  6  1  0
 17 15  1  0
 18 17  2  0
 19 17  1  0
 20 31  1  0
 20 19  1  0
 20 21  1  6
 21 22  1  0
 22 30  1  0
 22 23  2  0
 23 24  1  0
 25 24  1  0
 25 26  2  0
 27 26  1  0
 28 27  2  0
 29 30  2  0
 29 28  1  0
 30 25  1  0
 31 33  1  0
 32 31  2  0
M  END
$$$$
