TRW.pdb
     RDKit          3D

 33 34  0  0  1  0  0  0  0  0999 V2000
   10.4157  -20.5550   18.6742 C   0  0  0  0  0  0  0  0  0  0  0  0
   10.6079  -19.1764   19.2421 C   0  0  1  0  0  0  0  0  0  0  0  0
    9.9517  -18.2442   18.4725 O   0  0  0  0  0  0  0  0  0  0  0  0
   10.2074  -19.0757   20.6974 C   0  0  2  0  0  0  0  0  0  0  0  0
    8.7800  -19.2975   20.8153 N   0  0  0  0  0  0  0  0  0  0  0  0
   10.5409  -17.6994   21.1588 C   0  0  0  0  0  0  0  0  0  0  0  0
   11.7481  -17.2796   21.1394 O   0  0  0  0  0  0  0  0  0  0  0  0
    7.9878  -12.2466   18.4318 N   0  0  0  0  0  0  0  0  0  0  0  0
    8.2643  -13.6095   18.1815 C   0  0  0  0  0  0  0  0  0  0  0  0
    8.9393  -13.9477   17.1319 N   0  0  0  0  0  0  0  0  0  0  0  0
    7.8177  -14.6150   19.0590 N   0  0  0  0  0  0  0  0  0  0  0  0
    6.9372  -14.2803   20.1703 C   0  0  0  0  0  0  0  0  0  0  0  0
    7.6152  -14.4884   21.4932 C   0  0  0  0  0  0  0  0  0  0  0  0
    9.0892  -14.3665   21.4410 C   0  0  0  0  0  0  0  0  0  0  0  0
    9.8909  -15.4367   22.1018 C   0  0  2  0  0  0  0  0  0  0  0  0
    9.5569  -16.7807   21.6418 N   0  0  0  0  0  0  0  0  0  0  0  0
   10.0124  -15.3503   23.5659 C   0  0  0  0  0  0  0  0  0  0  0  0
   10.3653  -14.2638   24.1395 O   0  0  0  0  0  0  0  0  0  0  0  0
    9.0426  -14.9332   16.8435 N   0  0  0  0  0  0  0  0  0  0  0  0
    9.7497  -16.4419   24.4280 C   0  0  1  0  0  0  0  0  0  0  0  0
   10.0833  -16.3534   25.8708 C   0  0  0  0  0  0  0  0  0  0  0  0
    8.7868  -16.6162   26.5641 C   0  0  0  0  0  0  0  0  0  0  0  0
    7.7044  -15.6518   26.3238 C   0  0  0  0  0  0  0  0  0  0  0  0
    6.4562  -15.9204   25.7352 N   0  0  0  0  0  0  0  0  0  0  0  0
    5.7372  -14.7919   25.6529 C   0  0  0  0  0  0  0  0  0  0  0  0
    6.4466  -13.7640   26.1637 C   0  0  0  0  0  0  0  0  0  0  0  0
    6.1173  -12.4323   26.3060 C   0  0  0  0  0  0  0  0  0  0  0  0
    7.0572  -11.6174   26.8911 C   0  0  0  0  0  0  0  0  0  0  0  0
    8.2732  -12.0956   27.3186 C   0  0  0  0  0  0  0  0  0  0  0  0
    8.5661  -13.4220   27.1609 C   0  0  0  0  0  0  0  0  0  0  0  0
    7.6691  -14.2954   26.5815 C   0  0  0  0  0  0  0  0  0  0  0  0
   11.1390  -17.3198   26.1287 O   0  0  0  0  0  0  0  0  0  0  0  0
   11.5689  -18.0583   25.2195 O   0  0  0  0  0  0  0  0  0  0  0  0
  2  3  1  0
  2  1  1  6
  4  2  1  0
  4  5  1  6
  6  7  2  0
  6  4  1  0
  8  9  1  0
  9 11  1  0
 10  9  2  0
 11 12  1  0
 13 12  1  0
 13 14  1  0
 15 14  1  1
 15 16  1  0
 16  6  1  0
 17 15  1  0
 18 17  2  0
 19 17  1  0
 20 31  1  0
 20 19  1  0
 20 21  1  1
 21 22  1  0
 22 30  1  0
 22 23  2  0
 23 24  1  0
 25 24  1  0
 25 26  2  0
 27 26  1  0
 28 27  2  0
 29 30  2  0
 29 28  1  0
 30 25  1  0
 31 33  1  0
 32 31  2  0
M  END
$$$$
