TCK.pdb
     RDKit          3D

 23 22  0  0  1  0  0  0  0  0999 V2000
    7.5546  -17.5389   20.5560 C   0  0  0  0  0  0  0  0  0  0  0  0
    7.9042  -16.7936   21.8064 C   0  0  1  0  0  0  0  0  0  0  0  0
    8.9616  -17.4057   22.4741 O   0  0  0  0  0  0  0  0  0  0  0  0
    8.1967  -15.3282   21.5396 C   0  0  2  0  0  0  0  0  0  0  0  0
    9.4434  -15.2912   20.7839 N   0  0  0  0  0  0  0  0  0  0  0  0
    8.4444  -14.6815   22.8564 C   0  0  0  0  0  0  0  0  0  0  0  0
    9.6501  -14.7244   23.2794 O   0  0  0  0  0  0  0  0  0  0  0  0
    7.4221  -14.0490   23.6164 N   0  0  0  0  0  0  0  0  0  0  0  0
    7.6638  -13.5192   24.9177 C   0  0  1  0  0  0  0  0  0  0  0  0
    6.4571  -12.7486   25.4310 C   0  0  0  0  0  0  0  0  0  0  0  0
    6.6532  -12.2700   27.1550 S   0  0  0  0  0  0  0  0  0  0  0  0
    7.9104  -14.6113   25.9280 C   0  0  0  0  0  0  0  0  0  0  0  0
    7.2948  -15.7079   25.8807 O   0  0  0  0  0  0  0  0  0  0  0  0
    8.8517  -14.4429   26.9768 N   0  0  0  0  0  0  0  0  0  0  0  0
    9.5516  -15.5460   27.6123 C   0  0  1  0  0  0  0  0  0  0  0  0
   10.2406  -16.4413   26.6648 C   0  0  0  0  0  0  0  0  0  0  0  0
   11.0061  -17.5913   27.1676 C   0  0  0  0  0  0  0  0  0  0  0  0
   11.6113  -18.4478   26.0860 C   0  0  0  0  0  0  0  0  0  0  0  0
   12.4706  -19.5099   26.7499 C   0  0  0  0  0  0  0  0  0  0  0  0
   13.0435  -20.3219   25.6903 N   0  0  0  0  0  0  0  0  0  0  0  0
   10.3425  -15.0047   28.7272 C   0  0  0  0  0  0  0  0  0  0  0  0
   10.9933  -15.7569   29.4844 O   0  0  0  0  0  0  0  0  0  0  0  0
   10.3994  -13.6478   28.9841 O   0  0  0  0  0  0  0  0  0  0  0  0
  2  1  1  6
  2  3  1  0
  4  5  1  6
  4  2  1  0
  6  4  1  0
  6  7  2  0
  8  6  1  0
  9  8  1  0
  9 12  1  0
  9 10  1  1
 11 10  1  0
 12 14  1  0
 13 12  2  0
 14 15  1  0
 15 21  1  0
 16 17  1  0
 15 16  1  6
 18 17  1  0
 18 19  1  0
 20 19  1  0
 21 22  2  0
 21 23  1  0
M  END
$$$$
