TCK.pdb
     RDKit          3D

 23 22  0  0  1  0  0  0  0  0999 V2000
    6.3167  -14.2500   18.7872 C   0  0  0  0  0  0  0  0  0  0  0  0
    7.0792  -14.3697   20.0699 C   0  0  1  0  0  0  0  0  0  0  0  0
    8.2561  -15.0907   19.8864 O   0  0  0  0  0  0  0  0  0  0  0  0
    7.3552  -13.0180   20.7030 C   0  0  2  0  0  0  0  0  0  0  0  0
    8.2541  -12.3167   19.7939 N   0  0  0  0  0  0  0  0  0  0  0  0
    8.0944  -13.2676   21.9699 C   0  0  0  0  0  0  0  0  0  0  0  0
    9.3523  -13.4621   21.8511 O   0  0  0  0  0  0  0  0  0  0  0  0
    7.4650  -13.2932   23.2450 N   0  0  0  0  0  0  0  0  0  0  0  0
    8.1749  -13.6352   24.4331 C   0  0  1  0  0  0  0  0  0  0  0  0
    7.3574  -13.3129   25.6747 C   0  0  0  0  0  0  0  0  0  0  0  0
    5.6684  -13.9201   25.5394 S   0  0  0  0  0  0  0  0  0  0  0  0
    8.4616  -15.1139   24.5059 C   0  0  0  0  0  0  0  0  0  0  0  0
    7.6712  -15.9659   24.0233 O   0  0  0  0  0  0  0  0  0  0  0  0
    9.6410  -15.6039   25.1252 N   0  0  0  0  0  0  0  0  0  0  0  0
    9.9694  -17.0157   25.2229 C   0  0  1  0  0  0  0  0  0  0  0  0
   11.1005  -17.4262   24.3709 C   0  0  0  0  0  0  0  0  0  0  0  0
   11.6188  -18.7995   24.4525 C   0  0  0  0  0  0  0  0  0  0  0  0
   12.7783  -19.0752   23.5309 C   0  0  0  0  0  0  0  0  0  0  0  0
   13.1987  -20.5225   23.7206 C   0  0  0  0  0  0  0  0  0  0  0  0
   14.3650  -20.7434   22.8832 N   0  0  0  0  0  0  0  0  0  0  0  0
   10.0319  -17.3734   26.6476 C   0  0  0  0  0  0  0  0  0  0  0  0
    9.9227  -18.5610   27.0222 O   0  0  0  0  0  0  0  0  0  0  0  0
   10.2133  -16.4164   27.6282 O   0  0  0  0  0  0  0  0  0  0  0  0
  2  1  1  6
  2  3  1  0
  4  5  1  6
  4  2  1  0
  6  4  1  0
  6  7  2  0
  8  6  1  0
  9  8  1  0
  9 12  1  0
  9 10  1  1
 11 10  1  0
 12 14  1  0
 13 12  2  0
 14 15  1  0
 15 21  1  0
 16 17  1  0
 15 16  1  1
 18 17  1  0
 18 19  1  0
 20 19  1  0
 21 22  2  0
 21 23  1  0
M  END
$$$$
