TCK.pdb
     RDKit          3D

 23 22  0  0  1  0  0  0  0  0999 V2000
    2.6873  -18.9499   21.9519 C   0  0  0  0  0  0  0  0  0  0  0  0
    4.0442  -18.3260   21.8482 C   0  0  1  0  0  0  0  0  0  0  0  0
    5.0253  -19.1768   22.3502 O   0  0  0  0  0  0  0  0  0  0  0  0
    4.3686  -17.8877   20.4315 C   0  0  2  0  0  0  0  0  0  0  0  0
    4.5361  -19.1097   19.6537 N   0  0  0  0  0  0  0  0  0  0  0  0
    5.6837  -17.1934   20.4755 C   0  0  0  0  0  0  0  0  0  0  0  0
    6.7134  -17.9512   20.4746 O   0  0  0  0  0  0  0  0  0  0  0  0
    5.8145  -15.7778   20.5165 N   0  0  0  0  0  0  0  0  0  0  0  0
    7.0808  -15.1381   20.6568 C   0  0  1  0  0  0  0  0  0  0  0  0
    6.9359  -13.6240   20.6532 C   0  0  0  0  0  0  0  0  0  0  0  0
    8.5160  -12.8004   20.9077 S   0  0  0  0  0  0  0  0  0  0  0  0
    7.7374  -15.4820   21.9701 C   0  0  0  0  0  0  0  0  0  0  0  0
    7.1338  -15.3501   23.0664 O   0  0  0  0  0  0  0  0  0  0  0  0
    9.0692  -15.9703   22.0199 N   0  0  0  0  0  0  0  0  0  0  0  0
    9.7596  -16.2947   23.2563 C   0  0  1  0  0  0  0  0  0  0  0  0
    9.5328  -17.6749   23.7227 C   0  0  0  0  0  0  0  0  0  0  0  0
   10.2279  -18.1672   24.9209 C   0  0  0  0  0  0  0  0  0  0  0  0
   10.0121  -19.6321   25.1990 C   0  0  0  0  0  0  0  0  0  0  0  0
   10.8523  -20.0125   26.4059 C   0  0  0  0  0  0  0  0  0  0  0  0
   10.7119  -21.4464   26.5912 N   0  0  0  0  0  0  0  0  0  0  0  0
   11.1536  -15.8434   23.1340 C   0  0  0  0  0  0  0  0  0  0  0  0
   11.9262  -15.8548   24.1166 O   0  0  0  0  0  0  0  0  0  0  0  0
   11.6660  -15.3897   21.9333 O   0  0  0  0  0  0  0  0  0  0  0  0
  2  1  1  6
  2  3  1  0
  4  5  1  6
  4  2  1  0
  6  4  1  0
  6  7  2  0
  8  6  1  0
  9  8  1  0
  9 12  1  0
  9 10  1  1
 11 10  1  0
 12 14  1  0
 13 12  2  0
 14 15  1  0
 15 21  1  0
 16 17  1  0
 15 16  1  6
 18 17  1  0
 18 19  1  0
 20 19  1  0
 21 22  2  0
 21 23  1  0
M  END
$$$$
