TCK.pdb
     RDKit          3D

 23 22  0  0  1  0  0  0  0  0999 V2000
    6.5731  -14.4937   18.5690 C   0  0  0  0  0  0  0  0  0  0  0  0
    7.2605  -14.5876   19.8956 C   0  0  1  0  0  0  0  0  0  0  0  0
    8.3896  -15.3984   19.8173 O   0  0  0  0  0  0  0  0  0  0  0  0
    7.6021  -13.2222   20.4641 C   0  0  2  0  0  0  0  0  0  0  0  0
    8.6877  -12.6978   19.6437 N   0  0  0  0  0  0  0  0  0  0  0  0
    8.1334  -13.4370   21.8371 C   0  0  0  0  0  0  0  0  0  0  0  0
    9.3905  -13.6542   21.9197 O   0  0  0  0  0  0  0  0  0  0  0  0
    7.3158  -13.4075   23.0004 N   0  0  0  0  0  0  0  0  0  0  0  0
    7.8521  -13.5955   24.3079 C   0  0  1  0  0  0  0  0  0  0  0  0
    6.8567  -13.1719   25.3772 C   0  0  0  0  0  0  0  0  0  0  0  0
    7.6687  -12.8194   26.9445 S   0  0  0  0  0  0  0  0  0  0  0  0
    8.1543  -15.0470   24.5838 C   0  0  0  0  0  0  0  0  0  0  0  0
    7.2637  -15.9333   24.5139 O   0  0  0  0  0  0  0  0  0  0  0  0
    9.4625  -15.4711   24.9350 N   0  0  0  0  0  0  0  0  0  0  0  0
    9.8177  -16.8580   25.1816 C   0  0  1  0  0  0  0  0  0  0  0  0
   11.1058  -17.2595   24.5870 C   0  0  0  0  0  0  0  0  0  0  0  0
   11.3410  -18.6658   24.2290 C   0  0  0  0  0  0  0  0  0  0  0  0
   12.6552  -18.9123   23.5347 C   0  0  0  0  0  0  0  0  0  0  0  0
   12.7288  -20.3855   23.1720 C   0  0  0  0  0  0  0  0  0  0  0  0
   13.9850  -20.5925   22.4725 N   0  0  0  0  0  0  0  0  0  0  0  0
    9.6186  -17.1340   26.6119 C   0  0  0  0  0  0  0  0  0  0  0  0
    9.5938  -16.2090   27.4524 O   0  0  0  0  0  0  0  0  0  0  0  0
    9.4513  -18.4217   27.0854 O   0  0  0  0  0  0  0  0  0  0  0  0
  2  1  1  6
  2  3  1  0
  4  5  1  6
  4  2  1  0
  6  4  1  0
  6  7  2  0
  8  6  1  0
  9  8  1  0
  9 12  1  0
  9 10  1  1
 11 10  1  0
 12 14  1  0
 13 12  2  0
 14 15  1  0
 15 21  1  0
 16 17  1  0
 15 16  1  1
 18 17  1  0
 18 19  1  0
 20 19  1  0
 21 22  2  0
 21 23  1  0
M  END
$$$$
