TCK.pdb
     RDKit          3D

 23 22  0  0  1  0  0  0  0  0999 V2000
    6.7955  -15.8529   20.6251 C   0  0  0  0  0  0  0  0  0  0  0  0
    7.6395  -14.8525   19.8985 C   0  0  1  0  0  0  0  0  0  0  0  0
    7.4313  -14.9271   18.5239 O   0  0  0  0  0  0  0  0  0  0  0  0
    7.4263  -13.4398   20.4113 C   0  0  2  0  0  0  0  0  0  0  0  0
    8.2171  -12.5685   19.5499 N   0  0  0  0  0  0  0  0  0  0  0  0
    8.0077  -13.3752   21.7793 C   0  0  0  0  0  0  0  0  0  0  0  0
    9.2802  -13.4776   21.8485 O   0  0  0  0  0  0  0  0  0  0  0  0
    7.2199  -13.2106   22.9519 N   0  0  0  0  0  0  0  0  0  0  0  0
    7.7738  -13.3336   24.2597 C   0  0  1  0  0  0  0  0  0  0  0  0
    6.8105  -12.8150   25.3164 C   0  0  0  0  0  0  0  0  0  0  0  0
    7.4652  -13.0265   26.9797 S   0  0  0  0  0  0  0  0  0  0  0  0
    8.0385  -14.7737   24.6206 C   0  0  0  0  0  0  0  0  0  0  0  0
    7.1490  -15.6573   24.5128 O   0  0  0  0  0  0  0  0  0  0  0  0
    9.3086  -15.1898   25.0983 N   0  0  0  0  0  0  0  0  0  0  0  0
    9.6315  -16.5681   25.4248 C   0  0  1  0  0  0  0  0  0  0  0  0
   10.6342  -17.1747   24.5300 C   0  0  0  0  0  0  0  0  0  0  0  0
   10.2451  -17.6082   23.1802 C   0  0  0  0  0  0  0  0  0  0  0  0
   11.3843  -18.1479   22.3552 C   0  0  0  0  0  0  0  0  0  0  0  0
   10.8780  -18.3732   20.9409 C   0  0  0  0  0  0  0  0  0  0  0  0
   12.0328  -18.6857   20.1168 N   0  0  0  0  0  0  0  0  0  0  0  0
    9.8798  -16.6496   26.8716 C   0  0  0  0  0  0  0  0  0  0  0  0
   10.0027  -15.6178   27.5665 O   0  0  0  0  0  0  0  0  0  0  0  0
    9.9873  -17.8648   27.5214 O   0  0  0  0  0  0  0  0  0  0  0  0
  2  1  1  1
  2  3  1  0
  4  5  1  6
  4  2  1  0
  6  4  1  0
  6  7  2  0
  8  6  1  0
  9  8  1  0
  9 12  1  0
  9 10  1  1
 11 10  1  0
 12 14  1  0
 13 12  2  0
 14 15  1  0
 15 21  1  0
 16 17  1  0
 15 16  1  6
 18 17  1  0
 18 19  1  0
 20 19  1  0
 21 22  2  0
 21 23  1  0
M  END
$$$$
