TCK.pdb
     RDKit          3D

 23 22  0  0  1  0  0  0  0  0999 V2000
    6.2957  -14.3435   18.9585 C   0  0  0  0  0  0  0  0  0  0  0  0
    7.0894  -14.5379   20.2128 C   0  0  1  0  0  0  0  0  0  0  0  0
    8.1585  -15.4037   19.9988 O   0  0  0  0  0  0  0  0  0  0  0  0
    7.5578  -13.2218   20.8066 C   0  0  2  0  0  0  0  0  0  0  0  0
    8.4979  -12.6524   19.8482 N   0  0  0  0  0  0  0  0  0  0  0  0
    8.3129  -13.5424   22.0479 C   0  0  0  0  0  0  0  0  0  0  0  0
    9.5527  -13.8118   21.8910 O   0  0  0  0  0  0  0  0  0  0  0  0
    7.7167  -13.5554   23.3390 N   0  0  0  0  0  0  0  0  0  0  0  0
    8.4509  -13.9098   24.5086 C   0  0  1  0  0  0  0  0  0  0  0  0
    7.7231  -13.4698   25.7696 C   0  0  0  0  0  0  0  0  0  0  0  0
    5.9442  -13.7081   25.6326 S   0  0  0  0  0  0  0  0  0  0  0  0
    8.6156  -15.4037   24.6327 C   0  0  0  0  0  0  0  0  0  0  0  0
    7.6837  -16.1986   24.3442 O   0  0  0  0  0  0  0  0  0  0  0  0
    9.8353  -15.9734   25.0825 N   0  0  0  0  0  0  0  0  0  0  0  0
   10.0452  -17.4026   25.2368 C   0  0  1  0  0  0  0  0  0  0  0  0
   11.0993  -17.9493   24.3628 C   0  0  0  0  0  0  0  0  0  0  0  0
   11.0350  -17.7285   22.9108 C   0  0  0  0  0  0  0  0  0  0  0  0
   12.1934  -18.3161   22.1473 C   0  0  0  0  0  0  0  0  0  0  0  0
   12.0874  -17.8590   20.7027 C   0  0  0  0  0  0  0  0  0  0  0  0
   13.2744  -18.3355   20.0141 N   0  0  0  0  0  0  0  0  0  0  0  0
   10.1379  -17.6990   26.6738 C   0  0  0  0  0  0  0  0  0  0  0  0
   10.1399  -18.8767   27.0931 O   0  0  0  0  0  0  0  0  0  0  0  0
   10.2263  -16.6930   27.6174 O   0  0  0  0  0  0  0  0  0  0  0  0
  2  1  1  6
  2  3  1  0
  4  5  1  6
  4  2  1  0
  6  4  1  0
  6  7  2  0
  8  6  1  0
  9  8  1  0
  9 12  1  0
  9 10  1  1
 11 10  1  0
 12 14  1  0
 13 12  2  0
 14 15  1  0
 15 21  1  0
 16 17  1  0
 15 16  1  6
 18 17  1  0
 18 19  1  0
 20 19  1  0
 21 22  2  0
 21 23  1  0
M  END
$$$$
