TCK.pdb
     RDKit          3D

 23 22  0  0  1  0  0  0  0  0999 V2000
    6.9889  -15.8341   20.6106 C   0  0  0  0  0  0  0  0  0  0  0  0
    7.7227  -14.7246   19.9238 C   0  0  1  0  0  0  0  0  0  0  0  0
    7.5013  -14.7543   18.5496 O   0  0  0  0  0  0  0  0  0  0  0  0
    7.3841  -13.3644   20.5063 C   0  0  2  0  0  0  0  0  0  0  0  0
    8.1415  -12.3881   19.7319 N   0  0  0  0  0  0  0  0  0  0  0  0
    7.9038  -13.3403   21.9002 C   0  0  0  0  0  0  0  0  0  0  0  0
    9.1753  -13.3966   22.0211 O   0  0  0  0  0  0  0  0  0  0  0  0
    7.0608  -13.2603   23.0429 N   0  0  0  0  0  0  0  0  0  0  0  0
    7.5604  -13.4368   24.3664 C   0  0  1  0  0  0  0  0  0  0  0  0
    6.4992  -13.1047   25.4041 C   0  0  0  0  0  0  0  0  0  0  0  0
    7.0989  -13.3657   27.0811 S   0  0  0  0  0  0  0  0  0  0  0  0
    7.9531  -14.8691   24.6283 C   0  0  0  0  0  0  0  0  0  0  0  0
    7.1803  -15.8263   24.3633 O   0  0  0  0  0  0  0  0  0  0  0  0
    9.2168  -15.1939   25.1870 N   0  0  0  0  0  0  0  0  0  0  0  0
    9.6649  -16.5558   25.4213 C   0  0  1  0  0  0  0  0  0  0  0  0
   10.5605  -17.0786   24.3731 C   0  0  0  0  0  0  0  0  0  0  0  0
   11.0968  -18.4431   24.4810 C   0  0  0  0  0  0  0  0  0  0  0  0
   12.0583  -18.8148   23.3823 C   0  0  0  0  0  0  0  0  0  0  0  0
   12.5600  -20.2233   23.6502 C   0  0  0  0  0  0  0  0  0  0  0  0
   13.3661  -20.6159   22.5072 N   0  0  0  0  0  0  0  0  0  0  0  0
   10.1260  -16.6528   26.8140 C   0  0  0  0  0  0  0  0  0  0  0  0
   10.2687  -15.6320   27.5212 O   0  0  0  0  0  0  0  0  0  0  0  0
   10.4197  -17.8709   27.3973 O   0  0  0  0  0  0  0  0  0  0  0  0
  2  1  1  1
  2  3  1  0
  4  5  1  6
  4  2  1  0
  6  4  1  0
  6  7  2  0
  8  6  1  0
  9  8  1  0
  9 12  1  0
  9 10  1  1
 11 10  1  0
 12 14  1  0
 13 12  2  0
 14 15  1  0
 15 21  1  0
 16 17  1  0
 15 16  1  6
 18 17  1  0
 18 19  1  0
 20 19  1  0
 21 22  2  0
 21 23  1  0
M  END
$$$$
