TCK.pdb
     RDKit          3D

 23 22  0  0  1  0  0  0  0  0999 V2000
    6.4526  -14.1628   18.6490 C   0  0  0  0  0  0  0  0  0  0  0  0
    7.0140  -14.3301   20.0267 C   0  0  1  0  0  0  0  0  0  0  0  0
    7.8960  -15.4061   20.0798 O   0  0  0  0  0  0  0  0  0  0  0  0
    7.6654  -13.0589   20.5404 C   0  0  2  0  0  0  0  0  0  0  0  0
    8.8809  -12.8765   19.7556 N   0  0  0  0  0  0  0  0  0  0  0  0
    8.0686  -13.3093   21.9506 C   0  0  0  0  0  0  0  0  0  0  0  0
    9.2108  -13.8600   22.1133 O   0  0  0  0  0  0  0  0  0  0  0  0
    7.2534  -12.9673   23.0646 N   0  0  0  0  0  0  0  0  0  0  0  0
    7.6542  -13.2340   24.4065 C   0  0  1  0  0  0  0  0  0  0  0  0
    6.6186  -12.7309   25.4004 C   0  0  0  0  0  0  0  0  0  0  0  0
    7.1165  -13.0452   27.1014 S   0  0  0  0  0  0  0  0  0  0  0  0
    7.7843  -14.7137   24.6665 C   0  0  0  0  0  0  0  0  0  0  0  0
    7.0583  -15.5557   24.0769 O   0  0  0  0  0  0  0  0  0  0  0  0
    8.7362  -15.2160   25.5918 N   0  0  0  0  0  0  0  0  0  0  0  0
    9.2131  -16.5883   25.5877 C   0  0  1  0  0  0  0  0  0  0  0  0
    9.7649  -17.0250   24.2920 C   0  0  0  0  0  0  0  0  0  0  0  0
   10.3802  -18.3544   24.1681 C   0  0  0  0  0  0  0  0  0  0  0  0
   10.8780  -18.6752   22.7828 C   0  0  0  0  0  0  0  0  0  0  0  0
   11.3880  -20.1059   22.7837 C   0  0  0  0  0  0  0  0  0  0  0  0
   11.6670  -20.4624   21.4033 N   0  0  0  0  0  0  0  0  0  0  0  0
   10.0510  -16.7851   26.7797 C   0  0  0  0  0  0  0  0  0  0  0  0
   10.1204  -17.8976   27.3457 O   0  0  0  0  0  0  0  0  0  0  0  0
   10.7938  -15.7535   27.3222 O   0  0  0  0  0  0  0  0  0  0  0  0
  2  1  1  6
  2  3  1  0
  4  5  1  6
  4  2  1  0
  6  4  1  0
  6  7  2  0
  8  6  1  0
  9  8  1  0
  9 12  1  0
  9 10  1  1
 11 10  1  0
 12 14  1  0
 13 12  2  0
 14 15  1  0
 15 21  1  0
 16 17  1  0
 15 16  1  6
 18 17  1  0
 18 19  1  0
 20 19  1  0
 21 22  2  0
 21 23  1  0
M  END
$$$$
