TCK.pdb
     RDKit          3D

 23 22  0  0  1  0  0  0  0  0999 V2000
    7.5630  -15.7295   20.4936 C   0  0  0  0  0  0  0  0  0  0  0  0
    7.8078  -14.4216   19.8075 C   0  0  1  0  0  0  0  0  0  0  0  0
    7.5399  -14.5142   18.4444 O   0  0  0  0  0  0  0  0  0  0  0  0
    7.0310  -13.2838   20.4448 C   0  0  2  0  0  0  0  0  0  0  0  0
    7.3165  -12.0968   19.6474 N   0  0  0  0  0  0  0  0  0  0  0  0
    7.6009  -13.0671   21.8020 C   0  0  0  0  0  0  0  0  0  0  0  0
    7.9013  -11.8590   22.0930 O   0  0  0  0  0  0  0  0  0  0  0  0
    7.8085  -14.1200   22.7352 N   0  0  0  0  0  0  0  0  0  0  0  0
    8.0656  -13.8694   24.1149 C   0  0  1  0  0  0  0  0  0  0  0  0
    6.9523  -13.0435   24.7410 C   0  0  0  0  0  0  0  0  0  0  0  0
    7.1637  -12.8764   26.5207 S   0  0  0  0  0  0  0  0  0  0  0  0
    8.1235  -15.1477   24.9130 C   0  0  0  0  0  0  0  0  0  0  0  0
    7.0874  -15.8123   25.1744 O   0  0  0  0  0  0  0  0  0  0  0  0
    9.3564  -15.6527   25.4025 N   0  0  0  0  0  0  0  0  0  0  0  0
    9.7209  -17.0584   25.3619 C   0  0  1  0  0  0  0  0  0  0  0  0
   10.8288  -17.3617   24.4375 C   0  0  0  0  0  0  0  0  0  0  0  0
   10.5830  -18.1836   23.2436 C   0  0  0  0  0  0  0  0  0  0  0  0
   11.7868  -18.3506   22.3532 C   0  0  0  0  0  0  0  0  0  0  0  0
   11.4121  -19.2959   21.2248 C   0  0  0  0  0  0  0  0  0  0  0  0
   12.5955  -19.4698   20.4005 N   0  0  0  0  0  0  0  0  0  0  0  0
    9.8449  -17.5393   26.7458 C   0  0  0  0  0  0  0  0  0  0  0  0
   10.0114  -18.7524   26.9971 O   0  0  0  0  0  0  0  0  0  0  0  0
    9.7828  -16.6744   27.8221 O   0  0  0  0  0  0  0  0  0  0  0  0
  2  1  1  1
  2  3  1  0
  4  5  1  6
  4  2  1  0
  6  4  1  0
  6  7  2  0
  8  6  1  0
  9  8  1  0
  9 12  1  0
  9 10  1  1
 11 10  1  0
 12 14  1  0
 13 12  2  0
 14 15  1  0
 15 21  1  0
 16 17  1  0
 15 16  1  1
 18 17  1  0
 18 19  1  0
 20 19  1  0
 21 22  2  0
 21 23  1  0
M  END
$$$$
