CLK.pdb
     RDKit          3D

 24 23  0  0  1  0  0  0  0  0999 V2000
   28.6181  -21.5842  -15.5927 N   0  0  0  0  0  0  0  0  0  0  0  0
   28.0872  -20.4451  -14.8738 C   0  0  1  0  0  0  0  0  0  0  0  0
   27.7912  -19.3613  -15.8718 C   0  0  0  0  0  0  0  0  0  0  0  0
   27.2438  -17.8964  -14.9671 S   0  0  0  0  0  0  0  0  0  0  0  0
   26.8278  -20.8199  -14.1449 C   0  0  0  0  0  0  0  0  0  0  0  0
   26.0488  -21.6332  -14.6905 O   0  0  0  0  0  0  0  0  0  0  0  0
   26.2729  -20.3246   -8.4794 C   0  0  0  0  0  0  0  0  0  0  0  0
   26.3705  -20.9244   -9.8830 C   0  0  1  0  0  0  0  0  0  0  0  0
   26.0971  -22.3942   -9.7483 C   0  0  0  0  0  0  0  0  0  0  0  0
   25.3741  -20.2106  -10.7363 C   0  0  0  0  0  0  0  0  0  0  0  0
   25.3579  -20.6686  -12.1637 C   0  0  2  0  0  0  0  0  0  0  0  0
   26.5415  -20.2665  -12.8848 N   0  0  0  0  0  0  0  0  0  0  0  0
   24.1717  -20.0301  -12.8162 C   0  0  0  0  0  0  0  0  0  0  0  0
   24.1255  -18.7868  -12.9987 O   0  0  0  0  0  0  0  0  0  0  0  0
   23.0563  -20.8159  -13.2513 N   0  0  0  0  0  0  0  0  0  0  0  0
   21.9310  -20.1772  -13.8865 C   0  0  1  0  0  0  0  0  0  0  0  0
   21.7915  -20.7499  -15.3064 C   0  0  0  0  0  0  0  0  0  0  0  0
   20.6466  -20.0979  -16.0058 C   0  0  0  0  0  0  0  0  0  0  0  0
   20.3883  -20.5380  -17.4047 C   0  0  0  0  0  0  0  0  0  0  0  0
   19.3301  -19.7709  -18.1405 C   0  0  0  0  0  0  0  0  0  0  0  0
   19.1419  -20.2280  -19.4849 N   0  0  0  0  0  0  0  0  0  0  0  0
   20.6883  -20.4128  -13.1083 C   0  0  0  0  0  0  0  0  0  0  0  0
   20.7064  -21.2661  -12.0128 O   0  0  0  0  0  0  0  0  0  0  0  0
   19.6092  -19.8669  -13.4022 O   0  0  0  0  0  0  0  0  0  0  0  0
  2  3  1  0
  2  1  1  6
  4  3  1  0
  5  6  2  0
  5  2  1  0
  8  7  1  1
  8  9  1  0
  8 10  1  0
 11 10  1  1
 11 12  1  0
 12  5  1  0
 13 14  2  0
 13 11  1  0
 15 13  1  0
 16 15  1  0
 16 17  1  6
 18 17  1  0
 19 18  1  0
 20 21  1  0
 20 19  1  0
 22 16  1  0
 23 22  1  0
 24 22  2  0
M  END
$$$$
