CLK.pdb
     RDKit          3D

 24 23  0  0  1  0  0  0  0  0999 V2000
   14.1769  -20.3866    1.4498 N   0  0  0  0  0  0  0  0  0  0  0  0
   13.9846  -19.1389    2.1584 C   0  0  1  0  0  0  0  0  0  0  0  0
   12.7918  -19.2939    3.0592 C   0  0  0  0  0  0  0  0  0  0  0  0
   11.3095  -19.3463    2.0275 S   0  0  0  0  0  0  0  0  0  0  0  0
   15.1982  -18.8039    2.9786 C   0  0  0  0  0  0  0  0  0  0  0  0
   15.8546  -19.7466    3.4751 O   0  0  0  0  0  0  0  0  0  0  0  0
   19.0067  -15.0269    1.7486 C   0  0  0  0  0  0  0  0  0  0  0  0
   18.3356  -16.3211    2.2111 C   0  0  1  0  0  0  0  0  0  0  0  0
   19.4344  -17.3024    2.4993 C   0  0  0  0  0  0  0  0  0  0  0  0
   17.5105  -15.9844    3.4096 C   0  0  0  0  0  0  0  0  0  0  0  0
   16.7438  -17.1467    3.9652 C   0  0  2  0  0  0  0  0  0  0  0  0
   15.5777  -17.4650    3.1769 N   0  0  0  0  0  0  0  0  0  0  0  0
   16.2902  -16.7577    5.3376 C   0  0  0  0  0  0  0  0  0  0  0  0
   15.3366  -15.9542    5.4999 O   0  0  0  0  0  0  0  0  0  0  0  0
   16.9284  -17.2888    6.5045 N   0  0  0  0  0  0  0  0  0  0  0  0
   16.4640  -16.9070    7.8146 C   0  0  1  0  0  0  0  0  0  0  0  0
   16.3345  -18.1790    8.6683 C   0  0  0  0  0  0  0  0  0  0  0  0
   15.7202  -17.8448    9.9860 C   0  0  0  0  0  0  0  0  0  0  0  0
   15.5617  -18.9711   10.9470 C   0  0  0  0  0  0  0  0  0  0  0  0
   14.8761  -18.6309   12.2369 C   0  0  0  0  0  0  0  0  0  0  0  0
   14.7082  -19.7645   13.0962 N   0  0  0  0  0  0  0  0  0  0  0  0
   17.4099  -15.9526    8.4470 C   0  0  0  0  0  0  0  0  0  0  0  0
   16.9497  -15.0378    9.3851 O   0  0  0  0  0  0  0  0  0  0  0  0
   18.6222  -15.9374    8.1662 O   0  0  0  0  0  0  0  0  0  0  0  0
  2  3  1  0
  2  1  1  1
  4  3  1  0
  5  6  2  0
  5  2  1  0
  8  7  1  1
  8  9  1  0
  8 10  1  0
 11 10  1  6
 11 12  1  0
 12  5  1  0
 13 14  2  0
 13 11  1  0
 15 13  1  0
 16 15  1  0
 16 17  1  1
 18 17  1  0
 19 18  1  0
 20 21  1  0
 20 19  1  0
 22 16  1  0
 23 22  1  0
 24 22  2  0
M  END
$$$$
