CLK.pdb
     RDKit          3D

 24 23  0  0  1  0  0  0  0  0999 V2000
   28.0877  -22.0606  -16.6894 N   0  0  0  0  0  0  0  0  0  0  0  0
   27.7357  -20.8929  -15.9093 C   0  0  1  0  0  0  0  0  0  0  0  0
   27.1033  -19.8896  -16.8322 C   0  0  0  0  0  0  0  0  0  0  0  0
   28.3909  -19.2288  -17.9137 S   0  0  0  0  0  0  0  0  0  0  0  0
   26.7686  -21.2574  -14.8186 C   0  0  0  0  0  0  0  0  0  0  0  0
   25.8676  -22.0856  -15.0799 O   0  0  0  0  0  0  0  0  0  0  0  0
   25.3438  -22.1771   -9.7622 C   0  0  0  0  0  0  0  0  0  0  0  0
   25.3272  -20.6839  -10.0926 C   0  0  1  0  0  0  0  0  0  0  0  0
   25.6374  -19.9527   -8.8188 C   0  0  0  0  0  0  0  0  0  0  0  0
   26.3396  -20.4602  -11.1675 C   0  0  0  0  0  0  0  0  0  0  0  0
   25.9464  -21.0249  -12.4994 C   0  0  2  0  0  0  0  0  0  0  0  0
   26.8813  -20.6783  -13.5426 N   0  0  0  0  0  0  0  0  0  0  0  0
   24.6146  -20.4379  -12.8492 C   0  0  0  0  0  0  0  0  0  0  0  0
   24.4933  -19.2105  -13.0941 O   0  0  0  0  0  0  0  0  0  0  0  0
   23.4413  -21.2564  -12.9152 N   0  0  0  0  0  0  0  0  0  0  0  0
   22.1843  -20.6796  -13.3216 C   0  0  1  0  0  0  0  0  0  0  0  0
   21.6774  -21.4494  -14.5520 C   0  0  0  0  0  0  0  0  0  0  0  0
   20.4027  -20.8460  -15.0378 C   0  0  0  0  0  0  0  0  0  0  0  0
   19.7178  -21.5552  -16.1537 C   0  0  0  0  0  0  0  0  0  0  0  0
   18.4824  -20.8896  -16.6834 C   0  0  0  0  0  0  0  0  0  0  0  0
   17.8772  -21.6124  -17.7618 N   0  0  0  0  0  0  0  0  0  0  0  0
   21.1932  -20.7556  -12.2182 C   0  0  0  0  0  0  0  0  0  0  0  0
   20.2355  -19.7601  -12.0754 O   0  0  0  0  0  0  0  0  0  0  0  0
   21.1841  -21.6927  -11.3994 O   0  0  0  0  0  0  0  0  0  0  0  0
  2  3  1  0
  2  1  1  6
  4  3  1  0
  5  6  2  0
  5  2  1  0
  8  7  1  1
  8  9  1  0
  8 10  1  0
 11 10  1  1
 11 12  1  0
 12  5  1  0
 13 14  2  0
 13 11  1  0
 15 13  1  0
 16 15  1  0
 16 17  1  6
 18 17  1  0
 19 18  1  0
 20 21  1  0
 20 19  1  0
 22 16  1  0
 23 22  1  0
 24 22  2  0
M  END
$$$$
