CLK.pdb
     RDKit          3D

 24 23  0  0  1  0  0  0  0  0999 V2000
   22.9750  -14.1747  -19.3314 N   0  0  0  0  0  0  0  0  0  0  0  0
   23.3858  -12.8278  -19.6677 C   0  0  1  0  0  0  0  0  0  0  0  0
   22.4097  -12.2797  -20.6701 C   0  0  0  0  0  0  0  0  0  0  0  0
   22.7198  -13.0851  -22.2573 S   0  0  0  0  0  0  0  0  0  0  0  0
   23.3967  -11.9570  -18.4432 C   0  0  0  0  0  0  0  0  0  0  0  0
   22.4326  -12.0408  -17.6497 O   0  0  0  0  0  0  0  0  0  0  0  0
   28.2062  -10.1955  -16.2702 C   0  0  0  0  0  0  0  0  0  0  0  0
   26.8413  -10.8554  -16.4728 C   0  0  1  0  0  0  0  0  0  0  0  0
   26.5727  -11.6841  -15.2503 C   0  0  0  0  0  0  0  0  0  0  0  0
   25.8486   -9.7584  -16.6766 C   0  0  0  0  0  0  0  0  0  0  0  0
   24.4732  -10.2411  -17.0269 C   0  0  2  0  0  0  0  0  0  0  0  0
   24.4653  -11.0754  -18.2044 N   0  0  0  0  0  0  0  0  0  0  0  0
   23.6401   -9.0291  -17.3053 C   0  0  0  0  0  0  0  0  0  0  0  0
   23.8730   -8.2998  -18.3028 O   0  0  0  0  0  0  0  0  0  0  0  0
   22.5548   -8.6655  -16.4445 N   0  0  0  0  0  0  0  0  0  0  0  0
   21.7135   -7.5449  -16.7826 C   0  0  1  0  0  0  0  0  0  0  0  0
   20.2505   -8.0163  -16.7546 C   0  0  0  0  0  0  0  0  0  0  0  0
   19.3404   -6.8596  -16.9973 C   0  0  0  0  0  0  0  0  0  0  0  0
   17.8808   -7.1301  -16.8805 C   0  0  0  0  0  0  0  0  0  0  0  0
   16.9827   -5.9515  -17.1128 C   0  0  0  0  0  0  0  0  0  0  0  0
   15.5967   -6.2594  -16.9228 N   0  0  0  0  0  0  0  0  0  0  0  0
   21.9172   -6.4300  -15.8229 C   0  0  0  0  0  0  0  0  0  0  0  0
   22.5487   -6.6657  -14.6087 O   0  0  0  0  0  0  0  0  0  0  0  0
   21.5382   -5.2697  -16.0655 O   0  0  0  0  0  0  0  0  0  0  0  0
  2  3  1  0
  2  1  1  1
  4  3  1  0
  5  6  2  0
  5  2  1  0
  8  7  1  1
  8  9  1  0
  8 10  1  0
 11 10  1  6
 11 12  1  0
 12  5  1  0
 13 14  2  0
 13 11  1  0
 15 13  1  0
 16 15  1  0
 16 17  1  1
 18 17  1  0
 19 18  1  0
 20 21  1  0
 20 19  1  0
 22 16  1  0
 23 22  1  0
 24 22  2  0
M  END
$$$$
