CLK.pdb
     RDKit          3D

 24 23  0  0  1  0  0  0  0  0999 V2000
   26.5830  -15.8925  -16.8969 N   0  0  0  0  0  0  0  0  0  0  0  0
   26.3410  -16.1038  -15.4852 C   0  0  1  0  0  0  0  0  0  0  0  0
   25.1707  -15.2523  -15.0808 C   0  0  0  0  0  0  0  0  0  0  0  0
   23.7958  -15.6188  -16.1941 S   0  0  0  0  0  0  0  0  0  0  0  0
   26.0341  -17.5490  -15.2117 C   0  0  0  0  0  0  0  0  0  0  0  0
   25.7913  -18.2964  -16.1857 O   0  0  0  0  0  0  0  0  0  0  0  0
   27.8523  -21.4208  -12.9008 C   0  0  0  0  0  0  0  0  0  0  0  0
   26.5365  -21.2739  -12.1351 C   0  0  1  0  0  0  0  0  0  0  0  0
   26.8032  -21.7096  -10.7236 C   0  0  0  0  0  0  0  0  0  0  0  0
   26.1202  -19.8439  -12.2467 C   0  0  0  0  0  0  0  0  0  0  0  0
   25.7369  -19.4295  -13.6355 C   0  0  2  0  0  0  0  0  0  0  0  0
   26.0225  -18.0387  -13.8940 N   0  0  0  0  0  0  0  0  0  0  0  0
   24.2600  -19.6366  -13.7637 C   0  0  0  0  0  0  0  0  0  0  0  0
   23.4479  -18.8979  -13.1506 O   0  0  0  0  0  0  0  0  0  0  0  0
   23.7297  -20.6812  -14.5875 N   0  0  0  0  0  0  0  0  0  0  0  0
   22.3030  -20.8533  -14.7006 C   0  0  1  0  0  0  0  0  0  0  0  0
   21.9796  -21.2452  -16.1515 C   0  0  0  0  0  0  0  0  0  0  0  0
   20.5019  -21.3332  -16.3355 C   0  0  0  0  0  0  0  0  0  0  0  0
   20.0248  -21.6847  -17.7016 C   0  0  0  0  0  0  0  0  0  0  0  0
   18.5411  -21.6107  -17.9089 C   0  0  0  0  0  0  0  0  0  0  0  0
   18.1518  -21.8818  -19.2604 N   0  0  0  0  0  0  0  0  0  0  0  0
   21.8268  -21.9012  -13.7623 C   0  0  0  0  0  0  0  0  0  0  0  0
   20.5397  -21.8368  -13.2446 O   0  0  0  0  0  0  0  0  0  0  0  0
   22.5468  -22.8542  -13.4129 O   0  0  0  0  0  0  0  0  0  0  0  0
  2  3  1  0
  2  1  1  6
  4  3  1  0
  5  6  2  0
  5  2  1  0
  8  7  1  6
  8  9  1  0
  8 10  1  0
 11 10  1  1
 11 12  1  0
 12  5  1  0
 13 14  2  0
 13 11  1  0
 15 13  1  0
 16 15  1  0
 16 17  1  6
 18 17  1  0
 19 18  1  0
 20 21  1  0
 20 19  1  0
 22 16  1  0
 23 22  1  0
 24 22  2  0
M  END
$$$$
