CLK.pdb
     RDKit          3D

 24 23  0  0  1  0  0  0  0  0999 V2000
   27.2251  -22.4695  -15.1613 N   0  0  0  0  0  0  0  0  0  0  0  0
   27.1211  -21.3016  -14.3120 C   0  0  1  0  0  0  0  0  0  0  0  0
   26.8962  -20.1044  -15.1919 C   0  0  0  0  0  0  0  0  0  0  0  0
   28.3678  -19.8715  -16.2137 S   0  0  0  0  0  0  0  0  0  0  0  0
   25.9747  -21.4466  -13.3515 C   0  0  0  0  0  0  0  0  0  0  0  0
   25.0691  -22.2639  -13.6310 O   0  0  0  0  0  0  0  0  0  0  0  0
   26.4450  -19.7284   -8.0142 C   0  0  0  0  0  0  0  0  0  0  0  0
   26.2094  -20.6514   -9.2108 C   0  0  1  0  0  0  0  0  0  0  0  0
   25.9663  -22.0261   -8.6589 C   0  0  0  0  0  0  0  0  0  0  0  0
   25.0458  -20.1010   -9.9681 C   0  0  0  0  0  0  0  0  0  0  0  0
   24.7998  -20.7802  -11.2816 C   0  0  2  0  0  0  0  0  0  0  0  0
   25.9297  -20.6804  -12.1738 N   0  0  0  0  0  0  0  0  0  0  0  0
   23.6351  -20.0909  -11.9211 C   0  0  0  0  0  0  0  0  0  0  0  0
   23.8087  -19.1414  -12.7270 O   0  0  0  0  0  0  0  0  0  0  0  0
   22.2908  -20.4924  -11.6338 N   0  0  0  0  0  0  0  0  0  0  0  0
   21.2455  -20.2445  -12.5949 C   0  0  1  0  0  0  0  0  0  0  0  0
   21.5008  -21.1335  -13.8229 C   0  0  0  0  0  0  0  0  0  0  0  0
   20.4143  -20.9369  -14.8259 C   0  0  0  0  0  0  0  0  0  0  0  0
   20.4682  -21.8003  -16.0378 C   0  0  0  0  0  0  0  0  0  0  0  0
   19.3767  -21.5766  -17.0420 C   0  0  0  0  0  0  0  0  0  0  0  0
   19.5814  -22.3016  -18.2603 N   0  0  0  0  0  0  0  0  0  0  0  0
   19.9142  -20.5418  -12.0078 C   0  0  0  0  0  0  0  0  0  0  0  0
   18.8116  -19.7763  -12.3642 O   0  0  0  0  0  0  0  0  0  0  0  0
   19.7410  -21.4666  -11.1933 O   0  0  0  0  0  0  0  0  0  0  0  0
  2  3  1  0
  2  1  1  6
  4  3  1  0
  5  6  2  0
  5  2  1  0
  8  7  1  1
  8  9  1  0
  8 10  1  0
 11 10  1  1
 11 12  1  0
 12  5  1  0
 13 14  2  0
 13 11  1  0
 15 13  1  0
 16 15  1  0
 16 17  1  6
 18 17  1  0
 19 18  1  0
 20 21  1  0
 20 19  1  0
 22 16  1  0
 23 22  1  0
 24 22  2  0
M  END
$$$$
