CLK.pdb
     RDKit          3D

 24 23  0  0  1  0  0  0  0  0999 V2000
   22.6227  -14.2813  -19.0677 N   0  0  0  0  0  0  0  0  0  0  0  0
   22.6590  -12.8522  -19.2969 C   0  0  1  0  0  0  0  0  0  0  0  0
   21.3805  -12.4575  -19.9808 C   0  0  0  0  0  0  0  0  0  0  0  0
   21.4211  -10.6739  -20.2656 S   0  0  0  0  0  0  0  0  0  0  0  0
   22.7870  -12.1111  -17.9961 C   0  0  0  0  0  0  0  0  0  0  0  0
   22.0325  -12.4380  -17.0528 O   0  0  0  0  0  0  0  0  0  0  0  0
   27.5415   -9.9275  -16.2270 C   0  0  0  0  0  0  0  0  0  0  0  0
   26.2250  -10.7025  -16.3000 C   0  0  1  0  0  0  0  0  0  0  0  0
   26.1498  -11.5503  -15.0635 C   0  0  0  0  0  0  0  0  0  0  0  0
   25.1267   -9.6951  -16.3972 C   0  0  0  0  0  0  0  0  0  0  0  0
   23.7742  -10.2929  -16.6438 C   0  0  2  0  0  0  0  0  0  0  0  0
   23.7317  -11.0800  -17.8526 N   0  0  0  0  0  0  0  0  0  0  0  0
   22.8117   -9.1559  -16.7905 C   0  0  0  0  0  0  0  0  0  0  0  0
   22.8528   -8.3996  -17.7942 O   0  0  0  0  0  0  0  0  0  0  0  0
   21.8173   -8.8969  -15.7931 N   0  0  0  0  0  0  0  0  0  0  0  0
   20.9048   -7.7932  -15.9572 C   0  0  1  0  0  0  0  0  0  0  0  0
   19.4727   -8.3226  -15.7771 C   0  0  0  0  0  0  0  0  0  0  0  0
   18.4917   -7.2294  -16.0375 C   0  0  0  0  0  0  0  0  0  0  0  0
   17.0544   -7.5722  -15.8532 C   0  0  0  0  0  0  0  0  0  0  0  0
   16.0763   -6.5247  -16.2955 C   0  0  0  0  0  0  0  0  0  0  0  0
   14.7149   -6.8870  -16.0373 N   0  0  0  0  0  0  0  0  0  0  0  0
   21.1913   -6.7259  -14.9651 C   0  0  0  0  0  0  0  0  0  0  0  0
   21.8437   -7.0373  -13.7793 O   0  0  0  0  0  0  0  0  0  0  0  0
   20.8651   -5.5401  -15.1551 O   0  0  0  0  0  0  0  0  0  0  0  0
  2  3  1  0
  2  1  1  1
  4  3  1  0
  5  6  2  0
  5  2  1  0
  8  7  1  1
  8  9  1  0
  8 10  1  0
 11 10  1  6
 11 12  1  0
 12  5  1  0
 13 14  2  0
 13 11  1  0
 15 13  1  0
 16 15  1  0
 16 17  1  1
 18 17  1  0
 19 18  1  0
 20 21  1  0
 20 19  1  0
 22 16  1  0
 23 22  1  0
 24 22  2  0
M  END
$$$$
