CLK.pdb
     RDKit          3D

 24 23  0  0  1  0  0  0  0  0999 V2000
   24.2336  -20.3305   -9.9518 N   0  0  0  0  0  0  0  0  0  0  0  0
   24.4657  -21.0769  -11.1705 C   0  0  1  0  0  0  0  0  0  0  0  0
   23.2507  -20.9333  -12.0431 C   0  0  0  0  0  0  0  0  0  0  0  0
   21.8458  -21.6702  -11.1787 S   0  0  0  0  0  0  0  0  0  0  0  0
   25.6729  -20.5486  -11.8925 C   0  0  0  0  0  0  0  0  0  0  0  0
   25.8203  -19.3082  -11.9685 O   0  0  0  0  0  0  0  0  0  0  0  0
   30.6328  -21.9106  -10.9581 C   0  0  0  0  0  0  0  0  0  0  0  0
   29.3840  -21.1136  -11.3381 C   0  0  1  0  0  0  0  0  0  0  0  0
   29.7275  -19.6616  -11.1740 C   0  0  0  0  0  0  0  0  0  0  0  0
   29.0348  -21.4864  -12.7416 C   0  0  0  0  0  0  0  0  0  0  0  0
   27.7285  -20.9219  -13.2130 C   0  0  2  0  0  0  0  0  0  0  0  0
   26.6055  -21.4318  -12.4638 N   0  0  0  0  0  0  0  0  0  0  0  0
   27.5634  -21.3322  -14.6430 C   0  0  0  0  0  0  0  0  0  0  0  0
   27.6757  -22.5364  -14.9872 O   0  0  0  0  0  0  0  0  0  0  0  0
   27.2730  -20.3662  -15.6595 N   0  0  0  0  0  0  0  0  0  0  0  0
   26.3840  -20.7067  -16.7420 C   0  0  1  0  0  0  0  0  0  0  0  0
   24.9922  -20.9854  -16.1515 C   0  0  0  0  0  0  0  0  0  0  0  0
   24.5434  -22.3551  -16.5360 C   0  0  0  0  0  0  0  0  0  0  0  0
   25.3435  -23.4893  -15.9970 C   0  0  0  0  0  0  0  0  0  0  0  0
   24.8790  -24.8581  -16.3974 C   0  0  0  0  0  0  0  0  0  0  0  0
   25.7247  -25.9023  -15.9014 N   0  0  0  0  0  0  0  0  0  0  0  0
   26.3156  -19.6002  -17.7301 C   0  0  0  0  0  0  0  0  0  0  0  0
   26.3969  -19.8766  -19.0887 O   0  0  0  0  0  0  0  0  0  0  0  0
   26.1859  -18.4115  -17.3855 O   0  0  0  0  0  0  0  0  0  0  0  0
  2  3  1  0
  2  1  1  1
  4  3  1  0
  5  6  2  0
  5  2  1  0
  8  7  1  6
  8  9  1  0
  8 10  1  0
 11 10  1  1
 11 12  1  0
 12  5  1  0
 13 14  2  0
 13 11  1  0
 15 13  1  0
 16 15  1  0
 16 17  1  1
 18 17  1  0
 19 18  1  0
 20 21  1  0
 20 19  1  0
 22 16  1  0
 23 22  1  0
 24 22  2  0
M  END
$$$$
