CLK.pdb
     RDKit          3D

 24 23  0  0  1  0  0  0  0  0999 V2000
   20.1909  -14.0302  -18.9824 N   0  0  0  0  0  0  0  0  0  0  0  0
   20.9083  -12.8521  -19.4222 C   0  0  1  0  0  0  0  0  0  0  0  0
   19.9522  -11.9846  -20.1912 C   0  0  0  0  0  0  0  0  0  0  0  0
   19.5184  -12.8425  -21.7209 S   0  0  0  0  0  0  0  0  0  0  0  0
   21.4475  -12.0907  -18.2443 C   0  0  0  0  0  0  0  0  0  0  0  0
   20.7445  -12.0249  -17.2111 O   0  0  0  0  0  0  0  0  0  0  0  0
   24.9761  -10.9355  -14.7124 C   0  0  0  0  0  0  0  0  0  0  0  0
   25.3601  -10.1391  -15.9604 C   0  0  1  0  0  0  0  0  0  0  0  0
   26.8599  -10.0907  -16.0015 C   0  0  0  0  0  0  0  0  0  0  0  0
   24.7561  -10.8406  -17.1326 C   0  0  0  0  0  0  0  0  0  0  0  0
   23.2575  -10.8095  -17.1530 C   0  0  2  0  0  0  0  0  0  0  0  0
   22.7083  -11.4727  -18.3110 N   0  0  0  0  0  0  0  0  0  0  0  0
   22.8487   -9.3703  -17.1990 C   0  0  0  0  0  0  0  0  0  0  0  0
   23.1903   -8.6315  -18.1576 O   0  0  0  0  0  0  0  0  0  0  0  0
   22.0576   -8.7935  -16.1538 N   0  0  0  0  0  0  0  0  0  0  0  0
   21.5862   -7.4366  -16.2744 C   0  0  1  0  0  0  0  0  0  0  0  0
   20.0516   -7.4510  -16.1828 C   0  0  0  0  0  0  0  0  0  0  0  0
   19.4614   -7.0971  -17.5063 C   0  0  0  0  0  0  0  0  0  0  0  0
   17.9786   -6.9710  -17.5574 C   0  0  0  0  0  0  0  0  0  0  0  0
   17.4006   -6.6602  -18.9060 C   0  0  0  0  0  0  0  0  0  0  0  0
   15.9975   -6.3761  -18.8604 N   0  0  0  0  0  0  0  0  0  0  0  0
   22.1614   -6.5860  -15.2015 C   0  0  0  0  0  0  0  0  0  0  0  0
   22.2716   -5.2142  -15.3872 O   0  0  0  0  0  0  0  0  0  0  0  0
   22.5570   -7.0600  -14.1210 O   0  0  0  0  0  0  0  0  0  0  0  0
  2  3  1  0
  2  1  1  1
  4  3  1  0
  5  6  2  0
  5  2  1  0
  8  7  1  1
  8  9  1  0
  8 10  1  0
 11 10  1  6
 11 12  1  0
 12  5  1  0
 13 14  2  0
 13 11  1  0
 15 13  1  0
 16 15  1  0
 16 17  1  1
 18 17  1  0
 19 18  1  0
 20 21  1  0
 20 19  1  0
 22 16  1  0
 23 22  1  0
 24 22  2  0
M  END
$$$$
