CLK.pdb
     RDKit          3D

 24 23  0  0  1  0  0  0  0  0999 V2000
   28.4434  -20.4918  -16.0489 N   0  0  0  0  0  0  0  0  0  0  0  0
   27.9224  -19.7658  -14.9098 C   0  0  1  0  0  0  0  0  0  0  0  0
   27.5440  -18.3863  -15.3702 C   0  0  0  0  0  0  0  0  0  0  0  0
   26.3453  -18.5490  -16.7121 S   0  0  0  0  0  0  0  0  0  0  0  0
   26.7149  -20.4607  -14.3470 C   0  0  0  0  0  0  0  0  0  0  0  0
   26.3155  -21.5031  -14.9128 O   0  0  0  0  0  0  0  0  0  0  0  0
   25.7321  -20.3199   -8.8567 C   0  0  0  0  0  0  0  0  0  0  0  0
   26.0233  -20.7735  -10.2880 C   0  0  1  0  0  0  0  0  0  0  0  0
   26.2282  -22.2598  -10.2405 C   0  0  0  0  0  0  0  0  0  0  0  0
   24.8576  -20.3610  -11.1256 C   0  0  0  0  0  0  0  0  0  0  0  0
   25.0042  -20.6982  -12.5789 C   0  0  2  0  0  0  0  0  0  0  0  0
   26.0586  -19.9460  -13.2154 N   0  0  0  0  0  0  0  0  0  0  0  0
   23.7102  -20.3467  -13.2440 C   0  0  0  0  0  0  0  0  0  0  0  0
   23.3124  -19.1549  -13.2952 O   0  0  0  0  0  0  0  0  0  0  0  0
   22.8884  -21.3565  -13.8406 N   0  0  0  0  0  0  0  0  0  0  0  0
   21.6392  -20.9929  -14.4612 C   0  0  1  0  0  0  0  0  0  0  0  0
   21.2377  -22.1180  -15.4289 C   0  0  0  0  0  0  0  0  0  0  0  0
   19.9344  -21.7892  -16.0758 C   0  0  0  0  0  0  0  0  0  0  0  0
   19.3785  -22.8136  -17.0025 C   0  0  0  0  0  0  0  0  0  0  0  0
   18.1444  -22.4078  -17.7522 C   0  0  0  0  0  0  0  0  0  0  0  0
   17.7074  -23.4004  -18.6878 N   0  0  0  0  0  0  0  0  0  0  0  0
   20.5848  -20.7911  -13.4350 C   0  0  0  0  0  0  0  0  0  0  0  0
   19.5173  -19.9416  -13.6942 O   0  0  0  0  0  0  0  0  0  0  0  0
   20.6180  -21.3627  -12.3301 O   0  0  0  0  0  0  0  0  0  0  0  0
  2  3  1  0
  2  1  1  6
  4  3  1  0
  5  6  2  0
  5  2  1  0
  8  7  1  1
  8  9  1  0
  8 10  1  0
 11 10  1  1
 11 12  1  0
 12  5  1  0
 13 14  2  0
 13 11  1  0
 15 13  1  0
 16 15  1  0
 16 17  1  6
 18 17  1  0
 19 18  1  0
 20 21  1  0
 20 19  1  0
 22 16  1  0
 23 22  1  0
 24 22  2  0
M  END
$$$$
