KFL.pdb
     RDKit          3D

 29 29  0  0  1  0  0  0  0  0999 V2000
   27.5236  -19.2234  -12.7867 N   0  0  0  0  0  0  0  0  0  0  0  0
   27.1588  -20.5906  -12.4856 C   0  0  1  0  0  0  0  0  0  0  0  0
   27.7921  -21.5034  -13.4747 C   0  0  0  0  0  0  0  0  0  0  0  0
   27.6000  -20.9815  -14.8674 C   0  0  0  0  0  0  0  0  0  0  0  0
   26.1496  -20.7970  -15.2578 C   0  0  0  0  0  0  0  0  0  0  0  0
   26.0355  -20.3416  -16.7075 C   0  0  0  0  0  0  0  0  0  0  0  0
   24.6719  -20.1146  -17.1065 N   0  0  0  0  0  0  0  0  0  0  0  0
   27.4824  -20.9521  -11.0808 C   0  0  0  0  0  0  0  0  0  0  0  0
   27.3233  -22.1470  -10.7035 O   0  0  0  0  0  0  0  0  0  0  0  0
   27.9674  -20.0477  -10.1018 N   0  0  0  0  0  0  0  0  0  0  0  0
   27.8147  -20.2764   -8.6791 C   0  0  1  0  0  0  0  0  0  0  0  0
   28.7179  -19.3749   -7.8648 C   0  0  0  0  0  0  0  0  0  0  0  0
   28.5703  -19.6316   -6.4228 C   0  0  0  0  0  0  0  0  0  0  0  0
   27.8250  -18.7733   -5.6362 C   0  0  0  0  0  0  0  0  0  0  0  0
   27.6974  -19.0300   -4.2848 C   0  0  0  0  0  0  0  0  0  0  0  0
   28.2880  -20.1203   -3.6725 C   0  0  0  0  0  0  0  0  0  0  0  0
   29.0277  -20.9653   -4.4743 C   0  0  0  0  0  0  0  0  0  0  0  0
   29.1670  -20.7228   -5.8356 C   0  0  0  0  0  0  0  0  0  0  0  0
   26.4263  -19.9676   -8.3015 C   0  0  0  0  0  0  0  0  0  0  0  0
   25.9849  -18.8097   -8.4221 O   0  0  0  0  0  0  0  0  0  0  0  0
   24.8202  -21.3902  -10.2355 C   0  0  0  0  0  0  0  0  0  0  0  0
   23.3920  -21.0880   -9.7589 C   0  0  2  0  0  0  0  0  0  0  0  0
   22.6153  -20.5207  -10.9035 C   0  0  0  0  0  0  0  0  0  0  0  0
   23.5270  -20.1549   -8.6056 C   0  0  0  0  0  0  0  0  0  0  0  0
   24.2193  -20.7376   -7.3980 C   0  0  2  0  0  0  0  0  0  0  0  0
   25.5899  -20.9855   -7.8006 N   0  0  0  0  0  0  0  0  0  0  0  0
   23.6371  -21.9930   -6.9135 C   0  0  0  0  0  0  0  0  0  0  0  0
   24.4113  -23.1420   -6.9253 O   0  0  0  0  0  0  0  0  0  0  0  0
   22.4552  -22.0740   -6.4836 O   0  0  0  0  0  0  0  0  0  0  0  0
  2  3  1  0
  2  1  1  6
  4  3  1  0
  4  5  1  0
  6  5  1  0
  6  7  1  0
  8  2  1  0
  9  8  2  0
 10  8  1  0
 11 10  1  0
 11 12  1  1
 12 13  1  0
 13 14  2  0
 14 15  1  0
 16 15  2  0
 17 16  1  0
 18 13  1  0
 18 17  2  0
 19 11  1  0
 19 20  2  0
 22 21  1  6
 22 24  1  0
 23 22  1  0
 25 24  1  6
 25 26  1  0
 26 19  1  0
 27 25  1  0
 28 27  1  0
 29 27  2  0
M  END
$$$$
