KFL.pdb
     RDKit          3D

 29 29  0  0  1  0  0  0  0  0999 V2000
   22.9947  -18.2788  -13.7567 N   0  0  0  0  0  0  0  0  0  0  0  0
   23.0268  -19.6551  -14.2011 C   0  0  1  0  0  0  0  0  0  0  0  0
   22.7818  -19.7100  -15.6672 C   0  0  0  0  0  0  0  0  0  0  0  0
   21.6122  -18.8468  -16.0358 C   0  0  0  0  0  0  0  0  0  0  0  0
   21.8136  -18.0534  -17.3086 C   0  0  0  0  0  0  0  0  0  0  0  0
   20.5961  -17.1848  -17.6005 C   0  0  0  0  0  0  0  0  0  0  0  0
   19.3964  -17.9602  -17.7724 N   0  0  0  0  0  0  0  0  0  0  0  0
   24.2872  -20.3348  -13.8034 C   0  0  0  0  0  0  0  0  0  0  0  0
   24.4991  -21.5146  -14.2015 O   0  0  0  0  0  0  0  0  0  0  0  0
   25.2995  -19.7577  -12.9945 N   0  0  0  0  0  0  0  0  0  0  0  0
   26.5805  -20.3958  -12.7676 C   0  0  1  0  0  0  0  0  0  0  0  0
   27.7236  -19.4068  -12.8507 C   0  0  0  0  0  0  0  0  0  0  0  0
   27.7995  -18.7882  -14.1843 C   0  0  0  0  0  0  0  0  0  0  0  0
   27.1455  -17.5967  -14.4366 C   0  0  0  0  0  0  0  0  0  0  0  0
   27.2279  -17.0306  -15.6940 C   0  0  0  0  0  0  0  0  0  0  0  0
   27.9437  -17.6073  -16.7274 C   0  0  0  0  0  0  0  0  0  0  0  0
   28.5895  -18.7961  -16.4560 C   0  0  0  0  0  0  0  0  0  0  0  0
   28.5177  -19.3801  -15.1969 C   0  0  0  0  0  0  0  0  0  0  0  0
   26.5866  -20.9644  -11.4103 C   0  0  0  0  0  0  0  0  0  0  0  0
   27.2298  -22.0021  -11.1665 O   0  0  0  0  0  0  0  0  0  0  0  0
   28.2088  -21.0406   -7.6316 C   0  0  0  0  0  0  0  0  0  0  0  0
   27.5506  -19.7106   -8.0267 C   0  0  2  0  0  0  0  0  0  0  0  0
   27.9613  -18.6624   -7.0428 C   0  0  0  0  0  0  0  0  0  0  0  0
   26.0830  -19.9644   -8.0538 C   0  0  0  0  0  0  0  0  0  0  0  0
   25.6326  -20.9616   -9.0929 C   0  0  2  0  0  0  0  0  0  0  0  0
   25.8617  -20.3333  -10.3794 N   0  0  0  0  0  0  0  0  0  0  0  0
   24.2186  -21.3376   -8.9984 C   0  0  0  0  0  0  0  0  0  0  0  0
   23.3934  -21.1321  -10.0923 O   0  0  0  0  0  0  0  0  0  0  0  0
   23.7168  -21.8431   -7.9587 O   0  0  0  0  0  0  0  0  0  0  0  0
  2  3  1  0
  2  1  1  6
  4  3  1  0
  4  5  1  0
  6  5  1  0
  6  7  1  0
  8  2  1  0
  9  8  2  0
 10  8  1  0
 11 10  1  0
 11 12  1  1
 12 13  1  0
 13 14  2  0
 14 15  1  0
 16 15  2  0
 17 16  1  0
 18 13  1  0
 18 17  2  0
 19 11  1  0
 19 20  2  0
 22 21  1  1
 22 24  1  0
 23 22  1  0
 25 24  1  1
 25 26  1  0
 26 19  1  0
 27 25  1  0
 28 27  1  0
 29 27  2  0
M  END
$$$$
