KFL.pdb
     RDKit          3D

 29 29  0  0  1  0  0  0  0  0999 V2000
   24.7638  -19.5904  -13.2285 N   0  0  0  0  0  0  0  0  0  0  0  0
   24.4821  -19.9092  -11.8458 C   0  0  1  0  0  0  0  0  0  0  0  0
   23.3879  -20.9147  -11.7804 C   0  0  0  0  0  0  0  0  0  0  0  0
   22.4762  -20.7748  -12.9628 C   0  0  0  0  0  0  0  0  0  0  0  0
   22.5091  -21.9584  -13.9051 C   0  0  0  0  0  0  0  0  0  0  0  0
   21.5048  -21.7747  -15.0363 C   0  0  0  0  0  0  0  0  0  0  0  0
   20.2397  -22.3993  -14.7548 N   0  0  0  0  0  0  0  0  0  0  0  0
   25.7040  -20.3415  -11.1186 C   0  0  0  0  0  0  0  0  0  0  0  0
   26.2584  -21.4286  -11.4444 O   0  0  0  0  0  0  0  0  0  0  0  0
   26.3175  -19.6197  -10.0629 N   0  0  0  0  0  0  0  0  0  0  0  0
   27.5237  -20.0734   -9.4004 C   0  0  1  0  0  0  0  0  0  0  0  0
   28.3025  -18.9221   -8.8007 C   0  0  0  0  0  0  0  0  0  0  0  0
   29.4566  -19.4042   -8.0243 C   0  0  0  0  0  0  0  0  0  0  0  0
   30.2524  -20.4203   -8.5193 C   0  0  0  0  0  0  0  0  0  0  0  0
   31.3313  -20.8599   -7.7769 C   0  0  0  0  0  0  0  0  0  0  0  0
   31.6579  -20.3243   -6.5444 C   0  0  0  0  0  0  0  0  0  0  0  0
   30.8517  -19.3112   -6.0673 C   0  0  0  0  0  0  0  0  0  0  0  0
   29.7622  -18.8562   -6.8004 C   0  0  0  0  0  0  0  0  0  0  0  0
   27.1431  -20.9706   -8.2978 C   0  0  0  0  0  0  0  0  0  0  0  0
   27.7677  -22.0304   -8.1057 O   0  0  0  0  0  0  0  0  0  0  0  0
   27.9048  -22.0191   -4.5406 C   0  0  0  0  0  0  0  0  0  0  0  0
   27.4405  -20.5695   -4.7430 C   0  0  2  0  0  0  0  0  0  0  0  0
   27.7223  -19.7977   -3.4938 C   0  0  0  0  0  0  0  0  0  0  0  0
   25.9935  -20.6405   -5.0895 C   0  0  0  0  0  0  0  0  0  0  0  0
   25.6773  -21.4508   -6.3226 C   0  0  2  0  0  0  0  0  0  0  0  0
   26.0668  -20.6312   -7.4535 N   0  0  0  0  0  0  0  0  0  0  0  0
   24.2627  -21.8082   -6.4659 C   0  0  0  0  0  0  0  0  0  0  0  0
   23.4787  -21.1035   -7.3652 O   0  0  0  0  0  0  0  0  0  0  0  0
   23.7240  -22.7346   -5.8027 O   0  0  0  0  0  0  0  0  0  0  0  0
  2  3  1  0
  2  1  1  6
  4  3  1  0
  4  5  1  0
  6  5  1  0
  6  7  1  0
  8  2  1  0
  9  8  2  0
 10  8  1  0
 11 10  1  0
 11 12  1  1
 12 13  1  0
 13 14  2  0
 14 15  1  0
 16 15  2  0
 17 16  1  0
 18 13  1  0
 18 17  2  0
 19 11  1  0
 19 20  2  0
 22 21  1  1
 22 24  1  0
 23 22  1  0
 25 24  1  1
 25 26  1  0
 26 19  1  0
 27 25  1  0
 28 27  1  0
 29 27  2  0
M  END
$$$$
