KFL.pdb
     RDKit          3D

 29 29  0  0  1  0  0  0  0  0999 V2000
   24.5494  -22.4713  -15.6931 N   0  0  0  0  0  0  0  0  0  0  0  0
   25.0819  -23.2735  -14.6134 C   0  0  1  0  0  0  0  0  0  0  0  0
   25.7364  -24.4869  -15.1717 C   0  0  0  0  0  0  0  0  0  0  0  0
   24.7750  -25.2527  -16.0308 C   0  0  0  0  0  0  0  0  0  0  0  0
   24.9400  -26.7546  -15.9460 C   0  0  0  0  0  0  0  0  0  0  0  0
   23.8342  -27.4628  -16.7190 C   0  0  0  0  0  0  0  0  0  0  0  0
   22.5568  -27.3654  -16.0641 N   0  0  0  0  0  0  0  0  0  0  0  0
   25.9852  -22.4865  -13.7340 C   0  0  0  0  0  0  0  0  0  0  0  0
   27.2309  -22.5311  -13.9382 O   0  0  0  0  0  0  0  0  0  0  0  0
   25.5582  -21.6679  -12.6572 N   0  0  0  0  0  0  0  0  0  0  0  0
   26.4726  -20.8586  -11.8771 C   0  0  1  0  0  0  0  0  0  0  0  0
   26.2454  -19.3790  -12.1019 C   0  0  0  0  0  0  0  0  0  0  0  0
   26.8147  -18.9397  -13.3864 C   0  0  0  0  0  0  0  0  0  0  0  0
   25.9945  -18.4153  -14.3678 C   0  0  0  0  0  0  0  0  0  0  0  0
   26.5463  -18.0081  -15.5670 C   0  0  0  0  0  0  0  0  0  0  0  0
   27.8996  -18.1014  -15.8365 C   0  0  0  0  0  0  0  0  0  0  0  0
   28.7017  -18.6274  -14.8446 C   0  0  0  0  0  0  0  0  0  0  0  0
   28.1641  -19.0421  -13.6320 C   0  0  0  0  0  0  0  0  0  0  0  0
   26.2368  -21.1295  -10.4500 C   0  0  0  0  0  0  0  0  0  0  0  0
   25.1830  -21.6800  -10.0805 O   0  0  0  0  0  0  0  0  0  0  0  0
   28.6154  -18.5582   -5.5113 C   0  0  0  0  0  0  0  0  0  0  0  0
   27.8643  -19.8279   -5.9377 C   0  0  2  0  0  0  0  0  0  0  0  0
   28.5168  -21.0090   -5.2938 C   0  0  0  0  0  0  0  0  0  0  0  0
   27.9080  -19.8571   -7.4264 C   0  0  0  0  0  0  0  0  0  0  0  0
   26.9594  -20.8399   -8.0679 C   0  0  2  0  0  0  0  0  0  0  0  0
   27.2068  -20.7651   -9.4946 N   0  0  0  0  0  0  0  0  0  0  0  0
   25.5412  -20.5617   -7.8214 C   0  0  0  0  0  0  0  0  0  0  0  0
   24.8729  -21.2866   -6.8479 O   0  0  0  0  0  0  0  0  0  0  0  0
   24.8983  -19.6859   -8.4602 O   0  0  0  0  0  0  0  0  0  0  0  0
  2  3  1  0
  2  1  1  6
  4  3  1  0
  4  5  1  0
  6  5  1  0
  6  7  1  0
  8  2  1  0
  9  8  2  0
 10  8  1  0
 11 10  1  0
 11 12  1  1
 12 13  1  0
 13 14  2  0
 14 15  1  0
 16 15  2  0
 17 16  1  0
 18 13  1  0
 18 17  2  0
 19 11  1  0
 19 20  2  0
 22 21  1  1
 22 24  1  0
 23 22  1  0
 25 24  1  1
 25 26  1  0
 26 19  1  0
 27 25  1  0
 28 27  1  0
 29 27  2  0
M  END
$$$$
