ARK.pdb
     RDKit          3D

 26 25  0  0  1  0  0  0  0  0999 V2000
    8.5647  -21.0379   21.5633 C   0  0  0  0  0  0  0  0  0  0  0  0
    8.4575  -19.8371   20.6311 C   0  0  2  0  0  0  0  0  0  0  0  0
    8.8822  -20.2567   19.3332 N   0  0  0  0  0  0  0  0  0  0  0  0
    9.3159  -18.7715   21.2053 C   0  0  0  0  0  0  0  0  0  0  0  0
   10.5296  -18.7628   20.8859 O   0  0  0  0  0  0  0  0  0  0  0  0
    7.9802  -13.9894   17.9820 N   0  0  0  0  0  0  0  0  0  0  0  0
    7.8199  -12.9585   18.9417 C   0  0  0  0  0  0  0  0  0  0  0  0
    8.3811  -11.7928   18.7904 N   0  0  0  0  0  0  0  0  0  0  0  0
    7.0365  -13.1379   20.1195 N   0  0  0  0  0  0  0  0  0  0  0  0
    7.5873  -13.6723   21.3151 C   0  0  0  0  0  0  0  0  0  0  0  0
    8.4002  -14.9349   21.1402 C   0  0  0  0  0  0  0  0  0  0  0  0
    8.8482  -15.3429   22.5245 C   0  0  0  0  0  0  0  0  0  0  0  0
    9.5973  -16.6429   22.5385 C   0  0  2  0  0  0  0  0  0  0  0  0
    8.8457  -17.7715   22.0869 N   0  0  0  0  0  0  0  0  0  0  0  0
   10.1332  -16.9064   23.9026 C   0  0  0  0  0  0  0  0  0  0  0  0
   10.3522  -15.9574   24.7028 O   0  0  0  0  0  0  0  0  0  0  0  0
    8.2896  -11.1265   19.5803 N   0  0  0  0  0  0  0  0  0  0  0  0
   10.4184  -18.2065   24.3624 C   0  0  2  0  0  0  0  0  0  0  0  0
   11.6676  -18.5961   25.0029 C   0  0  0  0  0  0  0  0  0  0  0  0
   12.4902  -19.4709   24.1185 C   0  0  0  0  0  0  0  0  0  0  0  0
   11.7945  -20.7013   23.6280 C   0  0  0  0  0  0  0  0  0  0  0  0
   12.6872  -21.5170   22.6936 C   0  0  0  0  0  0  0  0  0  0  0  0
   11.8963  -22.7353   22.2067 N   0  0  0  0  0  0  0  0  0  0  0  0
   12.6612  -23.5233   21.2900 C   0  0  0  0  0  0  0  0  0  0  0  0
   12.4088  -17.3554   25.3170 O   0  0  0  0  0  0  0  0  0  0  0  0
   12.6574  -16.3466   24.4042 O   0  0  0  0  0  0  0  0  0  0  0  0
  2  1  1  1
  2  3  1  0
  4  2  1  0
  4  5  2  0
  6  7  1  0
  7  8  2  0
  7  9  1  0
  9 10  1  0
 11 10  1  0
 12 11  1  0
 13 14  1  0
 13 12  1  1
 14  4  1  0
 15 13  1  0
 16 15  2  0
 17 15  1  0
 18 19  1  6
 18 17  1  0
 19 20  1  0
 20 21  1  0
 21 22  1  0
 23 22  1  0
 24 18  1  0
 25 24  1  0
 26 24  2  0
M  END
$$$$
