ARK.pdb
     RDKit          3D

 26 25  0  0  1  0  0  0  0  0999 V2000
    5.9046  -21.5431   24.0748 C   0  0  0  0  0  0  0  0  0  0  0  0
    5.1705  -20.3592   23.4566 C   0  0  2  0  0  0  0  0  0  0  0  0
    4.3484  -20.8618   22.4018 N   0  0  0  0  0  0  0  0  0  0  0  0
    6.2095  -19.4127   22.9806 C   0  0  0  0  0  0  0  0  0  0  0  0
    7.3895  -19.8323   22.8992 O   0  0  0  0  0  0  0  0  0  0  0  0
    7.2204  -12.4273   18.9215 N   0  0  0  0  0  0  0  0  0  0  0  0
    8.5013  -13.0298   18.8457 C   0  0  0  0  0  0  0  0  0  0  0  0
    9.5424  -12.3680   18.4275 N   0  0  0  0  0  0  0  0  0  0  0  0
    8.7215  -14.3869   19.2240 N   0  0  0  0  0  0  0  0  0  0  0  0
    7.7101  -15.1683   19.8443 C   0  0  0  0  0  0  0  0  0  0  0  0
    7.4383  -14.8350   21.2937 C   0  0  0  0  0  0  0  0  0  0  0  0
    6.3700  -15.7992   21.7547 C   0  0  0  0  0  0  0  0  0  0  0  0
    6.9277  -17.1104   22.2250 C   0  0  2  0  0  0  0  0  0  0  0  0
    5.9459  -18.0726   22.6158 N   0  0  0  0  0  0  0  0  0  0  0  0
    7.8854  -16.8839   23.3426 C   0  0  0  0  0  0  0  0  0  0  0  0
    7.5019  -16.3604   24.4233 O   0  0  0  0  0  0  0  0  0  0  0  0
   10.4462  -12.8774   18.4227 N   0  0  0  0  0  0  0  0  0  0  0  0
    9.2458  -17.2365   23.2527 C   0  0  2  0  0  0  0  0  0  0  0  0
   10.2225  -17.0205   24.3120 C   0  0  0  0  0  0  0  0  0  0  0  0
   10.5305  -18.2836   25.0427 C   0  0  0  0  0  0  0  0  0  0  0  0
   11.2589  -18.1000   26.3366 C   0  0  0  0  0  0  0  0  0  0  0  0
   11.6537  -19.4408   26.9545 C   0  0  0  0  0  0  0  0  0  0  0  0
   12.2697  -19.1783   28.3323 N   0  0  0  0  0  0  0  0  0  0  0  0
   12.6839  -20.3950   28.9605 C   0  0  0  0  0  0  0  0  0  0  0  0
   11.4499  -16.4904   23.6798 O   0  0  0  0  0  0  0  0  0  0  0  0
   12.4063  -15.7445   24.3444 O   0  0  0  0  0  0  0  0  0  0  0  0
  2  1  1  6
  2  3  1  0
  4  2  1  0
  4  5  2  0
  6  7  1  0
  7  8  2  0
  7  9  1  0
  9 10  1  0
 11 10  1  0
 12 11  1  0
 13 14  1  0
 13 12  1  1
 14  4  1  0
 15 13  1  0
 16 15  2  0
 17 15  1  0
 18 19  1  6
 18 17  1  0
 19 20  1  0
 20 21  1  0
 21 22  1  0
 23 22  1  0
 24 18  1  0
 25 24  1  0
 26 24  2  0
M  END
$$$$
