ARK.pdb
     RDKit          3D

 26 25  0  0  1  0  0  0  0  0999 V2000
   11.1284  -21.6465   18.6308 C   0  0  0  0  0  0  0  0  0  0  0  0
   10.4673  -20.4374   17.9799 C   0  0  2  0  0  0  0  0  0  0  0  0
   11.0517  -20.2672   16.6875 N   0  0  0  0  0  0  0  0  0  0  0  0
   10.7063  -19.2825   18.8806 C   0  0  0  0  0  0  0  0  0  0  0  0
   11.8606  -18.7905   18.9067 O   0  0  0  0  0  0  0  0  0  0  0  0
    8.6082  -12.5787   20.3767 N   0  0  0  0  0  0  0  0  0  0  0  0
    7.3951  -13.1817   19.9594 C   0  0  0  0  0  0  0  0  0  0  0  0
    6.7131  -12.7154   18.9523 N   0  0  0  0  0  0  0  0  0  0  0  0
    6.8575  -14.3290   20.6135 N   0  0  0  0  0  0  0  0  0  0  0  0
    7.4678  -14.8928   21.7659 C   0  0  0  0  0  0  0  0  0  0  0  0
    8.8347  -15.4977   21.5386 C   0  0  0  0  0  0  0  0  0  0  0  0
    8.6029  -16.8013   20.8105 C   0  0  0  0  0  0  0  0  0  0  0  0
    9.8747  -17.5385   20.5098 C   0  0  2  0  0  0  0  0  0  0  0  0
    9.7123  -18.7090   19.7060 N   0  0  0  0  0  0  0  0  0  0  0  0
   10.5709  -17.8899   21.7784 C   0  0  0  0  0  0  0  0  0  0  0  0
   10.1169  -18.7911   22.5338 O   0  0  0  0  0  0  0  0  0  0  0  0
    5.8394  -13.2193   18.7091 N   0  0  0  0  0  0  0  0  0  0  0  0
   11.7521  -17.2455   22.1935 C   0  0  2  0  0  0  0  0  0  0  0  0
   12.4884  -17.5799   23.4055 C   0  0  0  0  0  0  0  0  0  0  0  0
   13.8086  -16.8881   23.4561 C   0  0  0  0  0  0  0  0  0  0  0  0
   14.8111  -17.5127   24.3744 C   0  0  0  0  0  0  0  0  0  0  0  0
   16.1631  -16.8046   24.2956 C   0  0  0  0  0  0  0  0  0  0  0  0
   17.1347  -17.5047   25.2511 N   0  0  0  0  0  0  0  0  0  0  0  0
   18.4352  -16.9109   25.2026 C   0  0  0  0  0  0  0  0  0  0  0  0
   11.6566  -17.1659   24.5561 O   0  0  0  0  0  0  0  0  0  0  0  0
   10.7033  -16.1652   24.5057 O   0  0  0  0  0  0  0  0  0  0  0  0
  2  1  1  1
  2  3  1  0
  4  2  1  0
  4  5  2  0
  6  7  1  0
  7  8  2  0
  7  9  1  0
  9 10  1  0
 11 10  1  0
 12 11  1  0
 13 14  1  0
 13 12  1  1
 14  4  1  0
 15 13  1  0
 16 15  2  0
 17 15  1  0
 18 19  1  6
 18 17  1  0
 19 20  1  0
 20 21  1  0
 21 22  1  0
 23 22  1  0
 24 18  1  0
 25 24  1  0
 26 24  2  0
M  END
$$$$
