ARK.pdb
     RDKit          3D

 26 25  0  0  1  0  0  0  0  0999 V2000
    8.8377  -12.1650   19.5098 C   0  0  0  0  0  0  0  0  0  0  0  0
    8.2494  -13.4585   18.9591 C   0  0  2  0  0  0  0  0  0  0  0  0
    7.1075  -13.1149   18.1724 N   0  0  0  0  0  0  0  0  0  0  0  0
    7.9130  -14.3077   20.1286 C   0  0  0  0  0  0  0  0  0  0  0  0
    6.8310  -14.0821   20.7231 O   0  0  0  0  0  0  0  0  0  0  0  0
    7.4179  -20.4713   25.4368 N   0  0  0  0  0  0  0  0  0  0  0  0
    6.9705  -20.7755   24.1266 C   0  0  0  0  0  0  0  0  0  0  0  0
    5.7032  -20.8945   23.8493 N   0  0  0  0  0  0  0  0  0  0  0  0
    7.8780  -20.9646   23.0432 N   0  0  0  0  0  0  0  0  0  0  0  0
    8.0862  -19.9668   22.0536 C   0  0  0  0  0  0  0  0  0  0  0  0
    8.1141  -18.5458   22.5692 C   0  0  0  0  0  0  0  0  0  0  0  0
    8.3164  -17.6626   21.3598 C   0  0  0  0  0  0  0  0  0  0  0  0
    8.4363  -16.2085   21.7100 C   0  0  2  0  0  0  0  0  0  0  0  0
    8.7385  -15.3505   20.6077 N   0  0  0  0  0  0  0  0  0  0  0  0
    9.4509  -16.0262   22.7846 C   0  0  0  0  0  0  0  0  0  0  0  0
   10.6827  -16.0912   22.5249 O   0  0  0  0  0  0  0  0  0  0  0  0
    5.4578  -21.0509   22.8535 N   0  0  0  0  0  0  0  0  0  0  0  0
    9.0941  -15.7760   24.1236 C   0  0  2  0  0  0  0  0  0  0  0  0
   10.0437  -15.6938   25.2255 C   0  0  0  0  0  0  0  0  0  0  0  0
    9.3974  -15.1935   26.4730 C   0  0  0  0  0  0  0  0  0  0  0  0
   10.2812  -15.1869   27.6801 C   0  0  0  0  0  0  0  0  0  0  0  0
    9.5290  -14.7176   28.9249 C   0  0  0  0  0  0  0  0  0  0  0  0
   10.4834  -14.7797   30.1216 N   0  0  0  0  0  0  0  0  0  0  0  0
    9.8968  -14.1975   31.2893 C   0  0  0  0  0  0  0  0  0  0  0  0
   10.5833  -17.0530   25.4462 O   0  0  0  0  0  0  0  0  0  0  0  0
   11.9218  -17.3338   25.6512 O   0  0  0  0  0  0  0  0  0  0  0  0
  2  1  1  1
  2  3  1  0
  4  2  1  0
  4  5  2  0
  6  7  1  0
  7  8  2  0
  7  9  1  0
  9 10  1  0
 11 10  1  0
 12 11  1  0
 13 14  1  0
 13 12  1  6
 14  4  1  0
 15 13  1  0
 16 15  2  0
 17 15  1  0
 18 19  1  6
 18 17  1  0
 19 20  1  0
 20 21  1  0
 21 22  1  0
 23 22  1  0
 24 18  1  0
 25 24  1  0
 26 24  2  0
M  END
$$$$
