ARK.pdb
     RDKit          3D

 26 25  0  0  1  0  0  0  0  0999 V2000
    6.2177  -19.7352   23.7274 C   0  0  0  0  0  0  0  0  0  0  0  0
    5.9536  -19.0635   22.3852 C   0  0  2  0  0  0  0  0  0  0  0  0
    5.9388  -20.0837   21.3853 N   0  0  0  0  0  0  0  0  0  0  0  0
    7.0371  -18.0699   22.1834 C   0  0  0  0  0  0  0  0  0  0  0  0
    8.1857  -18.5025   21.9213 O   0  0  0  0  0  0  0  0  0  0  0  0
    8.9222  -15.1537   17.4111 N   0  0  0  0  0  0  0  0  0  0  0  0
    8.2457  -13.9193   17.5787 C   0  0  0  0  0  0  0  0  0  0  0  0
    7.2820  -13.5561   16.7810 N   0  0  0  0  0  0  0  0  0  0  0  0
    8.5786  -13.0114   18.6266 N   0  0  0  0  0  0  0  0  0  0  0  0
    8.5372  -13.3936   19.9943 C   0  0  0  0  0  0  0  0  0  0  0  0
    7.2215  -13.9749   20.4599 C   0  0  0  0  0  0  0  0  0  0  0  0
    7.3956  -14.2894   21.9276 C   0  0  0  0  0  0  0  0  0  0  0  0
    7.8812  -15.6877   22.1735 C   0  0  2  0  0  0  0  0  0  0  0  0
    6.8489  -16.6715   22.2693 N   0  0  0  0  0  0  0  0  0  0  0  0
    8.7283  -15.7239   23.3977 C   0  0  0  0  0  0  0  0  0  0  0  0
    8.2294  -15.4974   24.5329 O   0  0  0  0  0  0  0  0  0  0  0  0
    6.9328  -12.5848   16.8855 N   0  0  0  0  0  0  0  0  0  0  0  0
   10.1067  -16.0081   23.3524 C   0  0  2  0  0  0  0  0  0  0  0  0
   10.9463  -16.1953   24.5283 C   0  0  0  0  0  0  0  0  0  0  0  0
   10.7417  -17.5389   25.1424 C   0  0  0  0  0  0  0  0  0  0  0  0
   11.6510  -17.8514   26.2888 C   0  0  0  0  0  0  0  0  0  0  0  0
   11.5263  -19.3113   26.7231 C   0  0  0  0  0  0  0  0  0  0  0  0
   12.5063  -19.5613   27.8738 N   0  0  0  0  0  0  0  0  0  0  0  0
   12.4817  -20.9284   28.2944 C   0  0  0  0  0  0  0  0  0  0  0  0
   12.3526  -16.0466   24.0953 O   0  0  0  0  0  0  0  0  0  0  0  0
   13.4164  -15.8633   24.9598 O   0  0  0  0  0  0  0  0  0  0  0  0
  2  1  1  1
  2  3  1  0
  4  2  1  0
  4  5  2  0
  6  7  1  0
  7  8  2  0
  7  9  1  0
  9 10  1  0
 11 10  1  0
 12 11  1  0
 13 14  1  0
 13 12  1  1
 14  4  1  0
 15 13  1  0
 16 15  2  0
 17 15  1  0
 18 19  1  1
 18 17  1  0
 19 20  1  0
 20 21  1  0
 21 22  1  0
 23 22  1  0
 24 18  1  0
 25 24  1  0
 26 24  2  0
M  END
$$$$
