ARK.pdb
     RDKit          3D

 26 25  0  0  1  0  0  0  0  0999 V2000
    7.8254  -22.0639   16.9726 C   0  0  0  0  0  0  0  0  0  0  0  0
    7.8332  -20.8322   17.8700 C   0  0  2  0  0  0  0  0  0  0  0  0
    7.5405  -19.6981   17.0520 N   0  0  0  0  0  0  0  0  0  0  0  0
    9.1781  -20.7654   18.4934 C   0  0  0  0  0  0  0  0  0  0  0  0
    9.5427  -21.7346   19.2025 O   0  0  0  0  0  0  0  0  0  0  0  0
   17.1019  -18.7970   17.5638 N   0  0  0  0  0  0  0  0  0  0  0  0
   17.0488  -20.0199   18.2789 C   0  0  0  0  0  0  0  0  0  0  0  0
   18.0892  -20.7974   18.3781 N   0  0  0  0  0  0  0  0  0  0  0  0
   15.8600  -20.4639   18.9291 N   0  0  0  0  0  0  0  0  0  0  0  0
   14.5807  -20.3405   18.3238 C   0  0  0  0  0  0  0  0  0  0  0  0
   13.8067  -19.0986   18.7037 C   0  0  0  0  0  0  0  0  0  0  0  0
   12.4677  -19.2084   18.0119 C   0  0  0  0  0  0  0  0  0  0  0  0
   11.3502  -19.5570   18.9506 C   0  0  2  0  0  0  0  0  0  0  0  0
   10.0664  -19.6773   18.3342 N   0  0  0  0  0  0  0  0  0  0  0  0
   11.2874  -18.5630   20.0577 C   0  0  0  0  0  0  0  0  0  0  0  0
   12.1279  -17.6265   20.1307 O   0  0  0  0  0  0  0  0  0  0  0  0
   17.9689  -21.6670   18.9309 N   0  0  0  0  0  0  0  0  0  0  0  0
   10.3032  -18.6160   21.0633 C   0  0  2  0  0  0  0  0  0  0  0  0
   10.5891  -18.6879   22.4901 C   0  0  0  0  0  0  0  0  0  0  0  0
   10.7114  -20.0991   22.9566 C   0  0  0  0  0  0  0  0  0  0  0  0
   11.0859  -20.2553   24.3966 C   0  0  0  0  0  0  0  0  0  0  0  0
   11.2917  -21.7235   24.7678 C   0  0  0  0  0  0  0  0  0  0  0  0
   11.5415  -21.8128   26.2766 N   0  0  0  0  0  0  0  0  0  0  0  0
   11.5949  -23.1723   26.7185 C   0  0  0  0  0  0  0  0  0  0  0  0
   11.8592  -17.9669   22.7231 O   0  0  0  0  0  0  0  0  0  0  0  0
   12.8622  -17.8352   21.7801 O   0  0  0  0  0  0  0  0  0  0  0  0
  2  1  1  6
  2  3  1  0
  4  2  1  0
  4  5  2  0
  6  7  1  0
  7  8  2  0
  7  9  1  0
  9 10  1  0
 11 10  1  0
 12 11  1  0
 13 14  1  0
 13 12  1  6
 14  4  1  0
 15 13  1  0
 16 15  2  0
 17 15  1  0
 18 19  1  6
 18 17  1  0
 19 20  1  0
 20 21  1  0
 21 22  1  0
 23 22  1  0
 24 18  1  0
 25 24  1  0
 26 24  2  0
M  END
$$$$
