ARK.pdb
     RDKit          3D

 26 25  0  0  1  0  0  0  0  0999 V2000
   17.9323  -21.0304   15.1793 C   0  0  0  0  0  0  0  0  0  0  0  0
   16.8247  -19.9847   15.1321 C   0  0  2  0  0  0  0  0  0  0  0  0
   17.4414  -18.7075   14.9612 N   0  0  0  0  0  0  0  0  0  0  0  0
   16.0733  -20.0995   16.4066 C   0  0  0  0  0  0  0  0  0  0  0  0
   16.0943  -19.1178   17.1881 O   0  0  0  0  0  0  0  0  0  0  0  0
    8.5612  -20.3285   15.0813 N   0  0  0  0  0  0  0  0  0  0  0  0
    9.0215  -20.8229   16.3275 C   0  0  0  0  0  0  0  0  0  0  0  0
    8.3815  -20.5802   17.4358 N   0  0  0  0  0  0  0  0  0  0  0  0
   10.2039  -21.6124   16.4370 N   0  0  0  0  0  0  0  0  0  0  0  0
   10.8053  -21.8961   17.6923 C   0  0  0  0  0  0  0  0  0  0  0  0
   12.0523  -21.0995   18.0026 C   0  0  0  0  0  0  0  0  0  0  0  0
   13.2175  -22.0334   17.7710 C   0  0  0  0  0  0  0  0  0  0  0  0
   14.5485  -21.3701   17.9711 C   0  0  2  0  0  0  0  0  0  0  0  0
   15.3394  -21.2461   16.7872 N   0  0  0  0  0  0  0  0  0  0  0  0
   15.3217  -22.0884   19.0217 C   0  0  0  0  0  0  0  0  0  0  0  0
   15.8555  -23.2042   18.7788 O   0  0  0  0  0  0  0  0  0  0  0  0
    8.7984  -20.9603   18.3064 N   0  0  0  0  0  0  0  0  0  0  0  0
   15.4942  -21.5683   20.3189 C   0  0  2  0  0  0  0  0  0  0  0  0
   16.2353  -22.2365   21.3804 C   0  0  0  0  0  0  0  0  0  0  0  0
   17.2327  -21.3258   22.0128 C   0  0  0  0  0  0  0  0  0  0  0  0
   18.6339  -21.4829   21.5123 C   0  0  0  0  0  0  0  0  0  0  0  0
   19.1309  -20.2119   20.8245 C   0  0  0  0  0  0  0  0  0  0  0  0
   20.5578  -20.4567   20.3236 N   0  0  0  0  0  0  0  0  0  0  0  0
   21.0537  -19.3347   19.5877 C   0  0  0  0  0  0  0  0  0  0  0  0
   15.2523  -22.6876   22.3891 O   0  0  0  0  0  0  0  0  0  0  0  0
   14.0218  -22.0912   22.5958 O   0  0  0  0  0  0  0  0  0  0  0  0
  2  1  1  1
  2  3  1  0
  4  2  1  0
  4  5  2  0
  6  7  1  0
  7  8  2  0
  7  9  1  0
  9 10  1  0
 11 10  1  0
 12 11  1  0
 13 14  1  0
 13 12  1  6
 14  4  1  0
 15 13  1  0
 16 15  2  0
 17 15  1  0
 18 19  1  6
 18 17  1  0
 19 20  1  0
 20 21  1  0
 21 22  1  0
 23 22  1  0
 24 18  1  0
 25 24  1  0
 26 24  2  0
M  END
$$$$
