ARK.pdb
     RDKit          3D

 26 25  0  0  1  0  0  0  0  0999 V2000
    8.1932  -12.4044   20.2999 C   0  0  0  0  0  0  0  0  0  0  0  0
    8.2822  -13.3147   19.0808 C   0  0  2  0  0  0  0  0  0  0  0  0
    6.9600  -13.4793   18.5654 N   0  0  0  0  0  0  0  0  0  0  0  0
    8.8873  -14.5889   19.5415 C   0  0  0  0  0  0  0  0  0  0  0  0
    8.1228  -15.4567   20.0290 O   0  0  0  0  0  0  0  0  0  0  0  0
    9.6129  -17.1085   15.4323 N   0  0  0  0  0  0  0  0  0  0  0  0
   10.4299  -18.1428   14.9106 C   0  0  0  0  0  0  0  0  0  0  0  0
   10.0318  -18.8938   13.9234 N   0  0  0  0  0  0  0  0  0  0  0  0
   11.7284  -18.4160   15.4325 N   0  0  0  0  0  0  0  0  0  0  0  0
   12.1886  -17.8368   16.6454 C   0  0  0  0  0  0  0  0  0  0  0  0
   11.1051  -17.3045   17.5555 C   0  0  0  0  0  0  0  0  0  0  0  0
   11.8148  -16.6523   18.7192 C   0  0  0  0  0  0  0  0  0  0  0  0
   10.8717  -16.1377   19.7667 C   0  0  2  0  0  0  0  0  0  0  0  0
   10.2687  -14.8782   19.4623 N   0  0  0  0  0  0  0  0  0  0  0  0
   11.5657  -16.0605   21.0820 C   0  0  0  0  0  0  0  0  0  0  0  0
   12.4708  -15.2066   21.2834 O   0  0  0  0  0  0  0  0  0  0  0  0
   10.6980  -19.6159   13.5903 N   0  0  0  0  0  0  0  0  0  0  0  0
   11.2528  -16.9218   22.1511 C   0  0  2  0  0  0  0  0  0  0  0  0
   11.9036  -16.8844   23.4541 C   0  0  0  0  0  0  0  0  0  0  0  0
   11.2755  -17.8407   24.4107 C   0  0  0  0  0  0  0  0  0  0  0  0
   11.9201  -17.8954   25.7598 C   0  0  0  0  0  0  0  0  0  0  0  0
   11.3374  -19.0192   26.6160 C   0  0  0  0  0  0  0  0  0  0  0  0
   12.0877  -19.0517   27.9512 N   0  0  0  0  0  0  0  0  0  0  0  0
   11.4843  -19.9691   28.8682 C   0  0  0  0  0  0  0  0  0  0  0  0
   13.3252  -17.2363   23.2483 O   0  0  0  0  0  0  0  0  0  0  0  0
   14.3843  -16.5640   23.8307 O   0  0  0  0  0  0  0  0  0  0  0  0
  2  1  1  1
  2  3  1  0
  4  2  1  0
  4  5  2  0
  6  7  1  0
  7  8  2  0
  7  9  1  0
  9 10  1  0
 11 10  1  0
 12 11  1  0
 13 14  1  0
 13 12  1  6
 14  4  1  0
 15 13  1  0
 16 15  2  0
 17 15  1  0
 18 19  1  1
 18 17  1  0
 19 20  1  0
 20 21  1  0
 21 22  1  0
 23 22  1  0
 24 18  1  0
 25 24  1  0
 26 24  2  0
M  END
$$$$
