ERG.pdb
     RDKit          3D

 25 24  0  0  1  0  0  0  0  0999 V2000
   13.4148  -18.0257   14.9516 N   0  0  0  0  0  0  0  0  0  0  0  0
   12.5550  -18.4036   16.0562 C   0  0  1  0  0  0  0  0  0  0  0  0
   13.1872  -19.5317   16.7897 C   0  0  0  0  0  0  0  0  0  0  0  0
   13.6610  -20.5938   15.8505 C   0  0  0  0  0  0  0  0  0  0  0  0
   14.3372  -21.7435   16.4739 C   0  0  0  0  0  0  0  0  0  0  0  0
   14.5223  -21.8008   17.6937 O   0  0  0  0  0  0  0  0  0  0  0  0
   12.2799  -17.2345   16.9438 C   0  0  0  0  0  0  0  0  0  0  0  0
   13.1426  -16.3394   17.1175 O   0  0  0  0  0  0  0  0  0  0  0  0
   14.8011  -22.8248   15.7108 O   0  0  0  0  0  0  0  0  0  0  0  0
    8.0242  -13.4383   22.2174 N   0  0  0  0  0  0  0  0  0  0  0  0
    7.6912  -12.4445   21.2267 C   0  0  0  0  0  0  0  0  0  0  0  0
    7.6940  -11.1872   21.4990 N   0  0  0  0  0  0  0  0  0  0  0  0
    7.3446  -12.8226   19.9046 N   0  0  0  0  0  0  0  0  0  0  0  0
    7.4612  -14.2305   19.4700 C   0  0  0  0  0  0  0  0  0  0  0  0
    8.9126  -14.4816   19.2872 C   0  0  0  0  0  0  0  0  0  0  0  0
    9.2873  -15.8628   18.8529 C   0  0  0  0  0  0  0  0  0  0  0  0
   10.7199  -16.1210   18.5864 C   0  0  2  0  0  0  0  0  0  0  0  0
   11.0038  -17.1460   17.6020 N   0  0  0  0  0  0  0  0  0  0  0  0
   11.3679  -16.4719   19.8886 C   0  0  0  0  0  0  0  0  0  0  0  0
   10.9811  -17.5513   20.4230 O   0  0  0  0  0  0  0  0  0  0  0  0
    7.5450  -10.4297   20.8059 N   0  0  0  0  0  0  0  0  0  0  0  0
   12.3491  -15.6881   20.5250 C   0  0  0  0  0  0  0  0  0  0  0  0
   12.2712  -15.3750   21.9604 C   0  0  0  0  0  0  0  0  0  0  0  0
   12.7136  -16.5304   22.7559 O   0  0  0  0  0  0  0  0  0  0  0  0
   13.9752  -16.5291   23.3199 O   0  0  0  0  0  0  0  0  0  0  0  0
  2  1  1  6
  2  7  1  0
  2  3  1  0
  4  5  1  0
  4  3  1  0
  5  9  1  0
  6  5  2  0
  7  8  2  0
 10 11  1  0
 11 12  2  0
 11 13  1  0
 13 14  1  0
 14 15  1  0
 15 16  1  0
 17 16  1  1
 17 19  1  0
 18 17  1  0
 18  7  1  0
 19 20  2  0
 21 22  1  0
 21 19  1  0
 23 22  1  0
 24 23  1  0
 25 23  2  0
M  END
$$$$
