ERG.pdb
     RDKit          3D

 25 24  0  0  1  0  0  0  0  0999 V2000
   13.0390  -18.1968   17.6400 N   0  0  0  0  0  0  0  0  0  0  0  0
   12.1693  -18.5823   18.7342 C   0  0  1  0  0  0  0  0  0  0  0  0
   12.5578  -19.9404   19.1980 C   0  0  0  0  0  0  0  0  0  0  0  0
   13.9796  -19.9719   19.6584 C   0  0  0  0  0  0  0  0  0  0  0  0
   14.4692  -21.2766   20.1333 C   0  0  0  0  0  0  0  0  0  0  0  0
   13.7492  -22.2800   20.1224 O   0  0  0  0  0  0  0  0  0  0  0  0
   12.2152  -17.5736   19.8345 C   0  0  0  0  0  0  0  0  0  0  0  0
   13.2289  -16.8540   20.0080 O   0  0  0  0  0  0  0  0  0  0  0  0
   15.7748  -21.4384   20.6192 O   0  0  0  0  0  0  0  0  0  0  0  0
    7.8048  -12.1102   21.1628 N   0  0  0  0  0  0  0  0  0  0  0  0
    7.2351  -13.0381   20.2171 C   0  0  0  0  0  0  0  0  0  0  0  0
    7.0925  -12.7385   18.9741 N   0  0  0  0  0  0  0  0  0  0  0  0
    6.8069  -14.3258   20.6287 N   0  0  0  0  0  0  0  0  0  0  0  0
    7.4680  -15.0127   21.7583 C   0  0  0  0  0  0  0  0  0  0  0  0
    8.8600  -15.2769   21.3161 C   0  0  0  0  0  0  0  0  0  0  0  0
    9.7048  -16.0741   22.2582 C   0  0  0  0  0  0  0  0  0  0  0  0
   11.0483  -16.4754   21.7849 C   0  0  2  0  0  0  0  0  0  0  0  0
   11.0742  -17.4356   20.6997 N   0  0  0  0  0  0  0  0  0  0  0  0
   11.8013  -17.0146   22.9601 C   0  0  0  0  0  0  0  0  0  0  0  0
   11.1834  -17.8610   23.6689 O   0  0  0  0  0  0  0  0  0  0  0  0
    6.7354  -13.3848   18.2453 N   0  0  0  0  0  0  0  0  0  0  0  0
   13.1139  -16.6389   23.3037 C   0  0  0  0  0  0  0  0  0  0  0  0
   13.7026  -17.0018   24.6022 C   0  0  0  0  0  0  0  0  0  0  0  0
   15.0809  -16.4961   24.6929 O   0  0  0  0  0  0  0  0  0  0  0  0
   15.8245  -16.7394   25.8319 O   0  0  0  0  0  0  0  0  0  0  0  0
  2  1  1  6
  2  7  1  0
  2  3  1  0
  4  5  1  0
  4  3  1  0
  5  9  1  0
  6  5  2  0
  7  8  2  0
 10 11  1  0
 11 12  2  0
 11 13  1  0
 13 14  1  0
 14 15  1  0
 15 16  1  0
 17 16  1  1
 17 19  1  0
 18 17  1  0
 18  7  1  0
 19 20  2  0
 21 22  1  0
 21 19  1  0
 23 22  1  0
 24 23  1  0
 25 23  2  0
M  END
$$$$
