ERG.pdb
     RDKit          3D

 25 24  0  0  1  0  0  0  0  0999 V2000
   10.5812  -19.5605   20.1552 N   0  0  0  0  0  0  0  0  0  0  0  0
   11.7749  -18.7467   20.2777 C   0  0  1  0  0  0  0  0  0  0  0  0
   12.2435  -18.3776   18.9158 C   0  0  0  0  0  0  0  0  0  0  0  0
   11.0944  -18.0802   18.0072 C   0  0  0  0  0  0  0  0  0  0  0  0
   11.4503  -17.6887   16.6332 C   0  0  0  0  0  0  0  0  0  0  0  0
   12.1853  -18.3904   15.9312 O   0  0  0  0  0  0  0  0  0  0  0  0
   11.5201  -17.5491   21.1327 C   0  0  0  0  0  0  0  0  0  0  0  0
   12.4291  -16.7141   21.3608 O   0  0  0  0  0  0  0  0  0  0  0  0
   10.9707  -16.5019   16.0603 O   0  0  0  0  0  0  0  0  0  0  0  0
    8.6044  -14.2166   18.2706 N   0  0  0  0  0  0  0  0  0  0  0  0
    8.0664  -13.0766   18.9714 C   0  0  0  0  0  0  0  0  0  0  0  0
    8.4195  -11.8738   18.6825 N   0  0  0  0  0  0  0  0  0  0  0  0
    7.1207  -13.2437   20.0148 N   0  0  0  0  0  0  0  0  0  0  0  0
    7.0784  -14.4966   20.7980 C   0  0  0  0  0  0  0  0  0  0  0  0
    8.3146  -14.5054   21.6194 C   0  0  0  0  0  0  0  0  0  0  0  0
    8.5236  -15.7159   22.4727 C   0  0  0  0  0  0  0  0  0  0  0  0
    9.9023  -16.2454   22.5663 C   0  0  2  0  0  0  0  0  0  0  0  0
   10.2095  -17.3627   21.6959 N   0  0  0  0  0  0  0  0  0  0  0  0
   10.1456  -16.6285   23.9920 C   0  0  0  0  0  0  0  0  0  0  0  0
    9.1798  -17.1926   24.5833 O   0  0  0  0  0  0  0  0  0  0  0  0
    8.0641  -11.0214   19.1554 N   0  0  0  0  0  0  0  0  0  0  0  0
   11.3511  -16.3990   24.6823 C   0  0  0  0  0  0  0  0  0  0  0  0
   11.5074  -16.7637   26.0989 C   0  0  0  0  0  0  0  0  0  0  0  0
   12.1873  -18.0627   26.2160 O   0  0  0  0  0  0  0  0  0  0  0  0
   12.4098  -18.8222   25.0831 O   0  0  0  0  0  0  0  0  0  0  0  0
  2  1  1  6
  2  7  1  0
  2  3  1  0
  4  5  1  0
  4  3  1  0
  5  9  1  0
  6  5  2  0
  7  8  2  0
 10 11  1  0
 11 12  2  0
 11 13  1  0
 13 14  1  0
 14 15  1  0
 15 16  1  0
 17 16  1  1
 17 19  1  0
 18 17  1  0
 18  7  1  0
 19 20  2  0
 21 22  1  0
 21 19  1  0
 23 22  1  0
 24 23  1  0
 25 23  2  0
M  END
$$$$
