ERG.pdb
     RDKit          3D

 25 24  0  0  1  0  0  0  0  0999 V2000
    8.9438  -19.2330   20.2413 N   0  0  0  0  0  0  0  0  0  0  0  0
   10.2760  -18.8635   19.8042 C   0  0  1  0  0  0  0  0  0  0  0  0
   10.1868  -18.2813   18.4391 C   0  0  0  0  0  0  0  0  0  0  0  0
   11.5440  -18.0293   17.8655 C   0  0  0  0  0  0  0  0  0  0  0  0
   11.5693  -17.4935   16.4944 C   0  0  0  0  0  0  0  0  0  0  0  0
   10.6136  -17.6395   15.7258 O   0  0  0  0  0  0  0  0  0  0  0  0
   10.9181  -17.9300   20.7771 C   0  0  0  0  0  0  0  0  0  0  0  0
   12.0768  -17.4894   20.5798 O   0  0  0  0  0  0  0  0  0  0  0  0
   12.6794  -16.7936   15.9998 O   0  0  0  0  0  0  0  0  0  0  0  0
   10.4061  -14.5967   29.8907 N   0  0  0  0  0  0  0  0  0  0  0  0
    9.8817  -14.1607   28.6199 C   0  0  0  0  0  0  0  0  0  0  0  0
    8.8864  -13.3496   28.5386 N   0  0  0  0  0  0  0  0  0  0  0  0
   10.4500  -14.6163   27.4032 N   0  0  0  0  0  0  0  0  0  0  0  0
    9.6100  -15.2756   26.3812 C   0  0  0  0  0  0  0  0  0  0  0  0
   10.5371  -15.6960   25.3011 C   0  0  0  0  0  0  0  0  0  0  0  0
    9.9095  -16.3902   24.1344 C   0  0  0  0  0  0  0  0  0  0  0  0
   10.8010  -16.7697   23.0158 C   0  0  2  0  0  0  0  0  0  0  0  0
   10.1863  -17.5386   21.9522 N   0  0  0  0  0  0  0  0  0  0  0  0
   11.9545  -17.5287   23.5920 C   0  0  0  0  0  0  0  0  0  0  0  0
   11.6945  -18.6959   24.0050 O   0  0  0  0  0  0  0  0  0  0  0  0
    8.4429  -13.0415   27.6528 N   0  0  0  0  0  0  0  0  0  0  0  0
   13.2654  -17.0257   23.6945 C   0  0  0  0  0  0  0  0  0  0  0  0
   14.3494  -17.8206   24.2925 C   0  0  0  0  0  0  0  0  0  0  0  0
   15.6037  -17.0523   24.2872 O   0  0  0  0  0  0  0  0  0  0  0  0
   16.7401  -17.5952   24.8560 O   0  0  0  0  0  0  0  0  0  0  0  0
  2  1  1  1
  2  7  1  0
  2  3  1  0
  4  5  1  0
  4  3  1  0
  5  9  1  0
  6  5  2  0
  7  8  2  0
 10 11  1  0
 11 12  2  0
 11 13  1  0
 13 14  1  0
 14 15  1  0
 15 16  1  0
 17 16  1  1
 17 19  1  0
 18 17  1  0
 18  7  1  0
 19 20  2  0
 21 22  1  0
 21 19  1  0
 23 22  1  0
 24 23  1  0
 25 23  2  0
M  END
$$$$
