ERG.pdb
     RDKit          3D

 25 24  0  0  1  0  0  0  0  0999 V2000
   13.4933  -17.7890   20.2243 N   0  0  0  0  0  0  0  0  0  0  0  0
   14.2077  -16.8982   21.1179 C   0  0  1  0  0  0  0  0  0  0  0  0
   14.7320  -15.7511   20.3308 C   0  0  0  0  0  0  0  0  0  0  0  0
   14.0511  -15.6451   19.0042 C   0  0  0  0  0  0  0  0  0  0  0  0
   14.5569  -14.5921   18.1081 C   0  0  0  0  0  0  0  0  0  0  0  0
   15.3888  -13.7630   18.4902 O   0  0  0  0  0  0  0  0  0  0  0  0
   13.3333  -16.4584   22.2459 C   0  0  0  0  0  0  0  0  0  0  0  0
   13.7346  -15.6114   23.0807 O   0  0  0  0  0  0  0  0  0  0  0  0
   14.1169  -14.4835   16.7809 O   0  0  0  0  0  0  0  0  0  0  0  0
    7.7882  -13.9049   18.4666 N   0  0  0  0  0  0  0  0  0  0  0  0
    8.6075  -12.9720   19.2003 C   0  0  0  0  0  0  0  0  0  0  0  0
    8.7964  -11.7670   18.7914 N   0  0  0  0  0  0  0  0  0  0  0  0
    9.2409  -13.3547   20.4101 N   0  0  0  0  0  0  0  0  0  0  0  0
    9.1208  -14.7379   20.9170 C   0  0  0  0  0  0  0  0  0  0  0  0
    9.8491  -14.7627   22.2100 C   0  0  0  0  0  0  0  0  0  0  0  0
    9.8074  -16.0566   22.9589 C   0  0  0  0  0  0  0  0  0  0  0  0
   11.1004  -16.6154   23.4127 C   0  0  2  0  0  0  0  0  0  0  0  0
   12.0149  -17.0217   22.3644 N   0  0  0  0  0  0  0  0  0  0  0  0
   10.8038  -17.7768   24.3083 C   0  0  0  0  0  0  0  0  0  0  0  0
    9.9094  -18.5728   23.8998 O   0  0  0  0  0  0  0  0  0  0  0  0
    9.4409  -11.0846   19.2333 N   0  0  0  0  0  0  0  0  0  0  0  0
   11.4461  -18.0170   25.5378 C   0  0  0  0  0  0  0  0  0  0  0  0
   10.8450  -18.8844   26.5629 C   0  0  0  0  0  0  0  0  0  0  0  0
   11.7388  -18.9886   27.7263 O   0  0  0  0  0  0  0  0  0  0  0  0
   11.3526  -19.7405   28.8196 O   0  0  0  0  0  0  0  0  0  0  0  0
  2  1  1  6
  2  7  1  0
  2  3  1  0
  4  5  1  0
  4  3  1  0
  5  9  1  0
  6  5  2  0
  7  8  2  0
 10 11  1  0
 11 12  2  0
 11 13  1  0
 13 14  1  0
 14 15  1  0
 15 16  1  0
 17 16  1  6
 17 19  1  0
 18 17  1  0
 18  7  1  0
 19 20  2  0
 21 22  1  0
 21 19  1  0
 23 22  1  0
 24 23  1  0
 25 23  2  0
M  END
$$$$
