ERG.pdb
     RDKit          3D

 25 24  0  0  1  0  0  0  0  0999 V2000
   11.7456  -19.2328   18.2082 N   0  0  0  0  0  0  0  0  0  0  0  0
   13.0085  -18.5720   18.4745 C   0  0  1  0  0  0  0  0  0  0  0  0
   13.4882  -17.9345   17.2199 C   0  0  0  0  0  0  0  0  0  0  0  0
   12.7607  -18.4658   16.0271 C   0  0  0  0  0  0  0  0  0  0  0  0
   13.2203  -17.9636   14.7216 C   0  0  0  0  0  0  0  0  0  0  0  0
   12.5425  -18.1066   13.6991 O   0  0  0  0  0  0  0  0  0  0  0  0
   12.8733  -17.5910   19.5923 C   0  0  0  0  0  0  0  0  0  0  0  0
   13.8418  -16.8728   19.9410 O   0  0  0  0  0  0  0  0  0  0  0  0
   14.4479  -17.3003   14.5809 O   0  0  0  0  0  0  0  0  0  0  0  0
    7.5141  -12.3607   17.9903 N   0  0  0  0  0  0  0  0  0  0  0  0
    7.7559  -12.9910   19.2648 C   0  0  0  0  0  0  0  0  0  0  0  0
    8.2946  -12.3552   20.2450 N   0  0  0  0  0  0  0  0  0  0  0  0
    7.4058  -14.3476   19.4839 N   0  0  0  0  0  0  0  0  0  0  0  0
    7.8645  -15.0562   20.6972 C   0  0  0  0  0  0  0  0  0  0  0  0
    9.3019  -15.3533   20.4766 C   0  0  0  0  0  0  0  0  0  0  0  0
    9.9852  -16.1199   21.5640 C   0  0  0  0  0  0  0  0  0  0  0  0
   11.3922  -16.5143   21.3298 C   0  0  2  0  0  0  0  0  0  0  0  0
   11.6091  -17.4783   20.2696 N   0  0  0  0  0  0  0  0  0  0  0  0
   11.9357  -17.0442   22.6192 C   0  0  0  0  0  0  0  0  0  0  0  0
   11.2693  -17.9758   23.1563 O   0  0  0  0  0  0  0  0  0  0  0  0
    8.5876  -12.7861   21.1421 N   0  0  0  0  0  0  0  0  0  0  0  0
   13.1077  -16.5734   23.2412 C   0  0  0  0  0  0  0  0  0  0  0  0
   13.5403  -17.0826   24.5519 C   0  0  0  0  0  0  0  0  0  0  0  0
   14.8901  -16.5900   24.8667 O   0  0  0  0  0  0  0  0  0  0  0  0
   15.5812  -15.8448   23.9305 O   0  0  0  0  0  0  0  0  0  0  0  0
  2  1  1  6
  2  7  1  0
  2  3  1  0
  4  5  1  0
  4  3  1  0
  5  9  1  0
  6  5  2  0
  7  8  2  0
 10 11  1  0
 11 12  2  0
 11 13  1  0
 13 14  1  0
 14 15  1  0
 15 16  1  0
 17 16  1  1
 17 19  1  0
 18 17  1  0
 18  7  1  0
 19 20  2  0
 21 22  1  0
 21 19  1  0
 23 22  1  0
 24 23  1  0
 25 23  2  0
M  END
$$$$
