QTL.pdb
     RDKit          3D

 25 24  0  0  1  0  0  0  0  0999 V2000
    5.7152  -23.9986   24.5720 N   0  0  0  0  0  0  0  0  0  0  0  0
    5.4524  -22.6264   24.3823 C   0  0  0  0  0  0  0  0  0  0  0  0
    4.6654  -22.0251   25.1504 O   0  0  0  0  0  0  0  0  0  0  0  0
    6.1240  -21.9323   23.2668 C   0  0  0  0  0  0  0  0  0  0  0  0
    7.0521  -20.8374   23.7521 C   0  0  0  0  0  0  0  0  0  0  0  0
    6.3228  -19.5222   23.5253 C   0  0  2  0  0  0  0  0  0  0  0  0
    5.2512  -19.6745   22.5843 N   0  0  0  0  0  0  0  0  0  0  0  0
    7.3183  -18.5515   23.0220 C   0  0  0  0  0  0  0  0  0  0  0  0
    8.4774  -18.9087   22.7131 O   0  0  0  0  0  0  0  0  0  0  0  0
    7.0240  -15.9833   20.1003 C   0  0  0  0  0  0  0  0  0  0  0  0
    7.3698  -15.3003   21.3880 C   0  0  1  0  0  0  0  0  0  0  0  0
    6.2059  -14.7208   21.8899 O   0  0  0  0  0  0  0  0  0  0  0  0
    7.9474  -16.2515   22.4168 C   0  0  2  0  0  0  0  0  0  0  0  0
    6.9529  -17.1913   22.8867 N   0  0  0  0  0  0  0  0  0  0  0  0
    8.5017  -15.5419   23.5793 C   0  0  0  0  0  0  0  0  0  0  0  0
    9.4110  -14.7083   23.4318 O   0  0  0  0  0  0  0  0  0  0  0  0
    8.8102  -12.2340   26.3876 C   0  0  0  0  0  0  0  0  0  0  0  0
    7.4892  -12.8575   25.9358 C   0  0  2  0  0  0  0  0  0  0  0  0
    6.3100  -12.0320   26.3619 C   0  0  0  0  0  0  0  0  0  0  0  0
    7.4288  -14.2335   26.5308 C   0  0  0  0  0  0  0  0  0  0  0  0
    8.5644  -15.0721   26.0203 C   0  0  2  0  0  0  0  0  0  0  0  0
    8.0102  -15.7980   24.8681 N   0  0  0  0  0  0  0  0  0  0  0  0
    8.9963  -16.0322   27.0559 C   0  0  0  0  0  0  0  0  0  0  0  0
    8.5922  -17.2081   27.1837 O   0  0  0  0  0  0  0  0  0  0  0  0
    9.9545  -15.6481   28.0244 O   0  0  0  0  0  0  0  0  0  0  0  0
  2  3  2  0
  2  1  1  0
  4  2  1  0
  5  4  1  0
  6  7  1  6
  6  5  1  0
  8  6  1  0
  9  8  2  0
 11 10  1  6
 11 12  1  0
 11 13  1  0
 13 15  1  0
 13 14  1  1
 14  8  1  0
 15 16  2  0
 18 17  1  1
 18 19  1  0
 18 20  1  0
 21 20  1  1
 22 21  1  0
 22 15  1  0
 23 25  1  0
 23 21  1  0
 24 23  2  0
M  END
$$$$
