QTL.pdb
     RDKit          3D

 25 24  0  0  1  0  0  0  0  0999 V2000
    6.1143  -19.3458   16.2160 N   0  0  0  0  0  0  0  0  0  0  0  0
    7.4843  -19.0957   15.9959 C   0  0  0  0  0  0  0  0  0  0  0  0
    8.0347  -19.4944   14.9429 O   0  0  0  0  0  0  0  0  0  0  0  0
    8.2371  -18.3606   17.0303 C   0  0  0  0  0  0  0  0  0  0  0  0
    7.3335  -17.8292   18.1242 C   0  0  0  0  0  0  0  0  0  0  0  0
    8.2238  -17.0441   19.0752 C   0  0  2  0  0  0  0  0  0  0  0  0
    9.4934  -17.6872   19.2532 N   0  0  0  0  0  0  0  0  0  0  0  0
    7.5077  -16.9482   20.3654 C   0  0  0  0  0  0  0  0  0  0  0  0
    6.2979  -16.6321   20.4166 O   0  0  0  0  0  0  0  0  0  0  0  0
    6.7753  -19.5454   22.8593 C   0  0  0  0  0  0  0  0  0  0  0  0
    7.5227  -18.4566   23.5667 C   0  0  1  0  0  0  0  0  0  0  0  0
    8.8453  -18.8714   23.7117 O   0  0  0  0  0  0  0  0  0  0  0  0
    7.4833  -17.1395   22.8179 C   0  0  2  0  0  0  0  0  0  0  0  0
    8.2048  -17.2196   21.5665 N   0  0  0  0  0  0  0  0  0  0  0  0
    8.0458  -16.0347   23.6084 C   0  0  0  0  0  0  0  0  0  0  0  0
    9.2274  -15.6856   23.4488 O   0  0  0  0  0  0  0  0  0  0  0  0
    5.8653  -11.6919   27.2868 C   0  0  0  0  0  0  0  0  0  0  0  0
    7.0964  -12.2634   26.5829 C   0  0  2  0  0  0  0  0  0  0  0  0
    7.7298  -11.2578   25.6658 C   0  0  0  0  0  0  0  0  0  0  0  0
    6.6433  -13.4762   25.8246 C   0  0  0  0  0  0  0  0  0  0  0  0
    7.8280  -14.2550   25.3314 C   0  0  2  0  0  0  0  0  0  0  0  0
    7.2548  -15.3619   24.5518 N   0  0  0  0  0  0  0  0  0  0  0  0
    8.5972  -14.7920   26.4720 C   0  0  0  0  0  0  0  0  0  0  0  0
    8.3772  -15.8697   27.0658 O   0  0  0  0  0  0  0  0  0  0  0  0
    9.6981  -14.0681   26.9893 O   0  0  0  0  0  0  0  0  0  0  0  0
  2  3  2  0
  2  1  1  0
  4  2  1  0
  5  4  1  0
  6  7  1  1
  6  5  1  0
  8  6  1  0
  9  8  2  0
 11 10  1  6
 11 12  1  0
 11 13  1  0
 13 15  1  0
 13 14  1  6
 14  8  1  0
 15 16  2  0
 18 17  1  6
 18 19  1  0
 18 20  1  0
 21 20  1  1
 22 21  1  0
 22 15  1  0
 23 25  1  0
 23 21  1  0
 24 23  2  0
M  END
$$$$
