QTL.pdb
     RDKit          3D

 25 24  0  0  1  0  0  0  0  0999 V2000
   11.7483  -14.5689   17.8833 N   0  0  0  0  0  0  0  0  0  0  0  0
   11.7517  -14.0742   19.2036 C   0  0  0  0  0  0  0  0  0  0  0  0
   12.7715  -14.2037   19.9206 O   0  0  0  0  0  0  0  0  0  0  0  0
   10.5339  -13.4093   19.7056 C   0  0  0  0  0  0  0  0  0  0  0  0
    9.3219  -13.7171   18.8502 C   0  0  0  0  0  0  0  0  0  0  0  0
    9.0706  -15.2114   18.9804 C   0  0  2  0  0  0  0  0  0  0  0  0
    8.3501  -15.7206   17.8497 N   0  0  0  0  0  0  0  0  0  0  0  0
    8.2954  -15.4177   20.2226 C   0  0  0  0  0  0  0  0  0  0  0  0
    7.0709  -15.1643   20.2754 O   0  0  0  0  0  0  0  0  0  0  0  0
    7.4672  -18.4873   21.4648 C   0  0  0  0  0  0  0  0  0  0  0  0
    8.0960  -17.8196   22.6493 C   0  0  1  0  0  0  0  0  0  0  0  0
    9.3894  -18.3207   22.7851 O   0  0  0  0  0  0  0  0  0  0  0  0
    8.1484  -16.3113   22.5100 C   0  0  2  0  0  0  0  0  0  0  0  0
    8.9514  -15.9117   21.3749 N   0  0  0  0  0  0  0  0  0  0  0  0
    8.6886  -15.6612   23.7130 C   0  0  0  0  0  0  0  0  0  0  0  0
    9.8999  -15.3973   23.7945 O   0  0  0  0  0  0  0  0  0  0  0  0
    5.8183  -12.2508   27.2115 C   0  0  0  0  0  0  0  0  0  0  0  0
    7.1726  -12.6923   26.6560 C   0  0  2  0  0  0  0  0  0  0  0  0
    7.3717  -12.2290   25.2421 C   0  0  0  0  0  0  0  0  0  0  0  0
    7.2151  -14.1894   26.7452 C   0  0  0  0  0  0  0  0  0  0  0  0
    8.4029  -14.7223   25.9978 C   0  0  2  0  0  0  0  0  0  0  0  0
    7.8427  -15.3314   24.7825 N   0  0  0  0  0  0  0  0  0  0  0  0
    9.0923  -15.7518   26.8013 C   0  0  0  0  0  0  0  0  0  0  0  0
    8.8746  -16.9821   26.7643 O   0  0  0  0  0  0  0  0  0  0  0  0
   10.1039  -15.3771   27.7177 O   0  0  0  0  0  0  0  0  0  0  0  0
  2  3  2  0
  2  1  1  0
  4  2  1  0
  5  4  1  0
  6  7  1  6
  6  5  1  0
  8  6  1  0
  9  8  2  0
 11 10  1  6
 11 12  1  0
 11 13  1  0
 13 15  1  0
 13 14  1  6
 14  8  1  0
 15 16  2  0
 18 17  1  6
 18 19  1  0
 18 20  1  0
 21 20  1  1
 22 21  1  0
 22 15  1  0
 23 25  1  0
 23 21  1  0
 24 23  2  0
M  END
$$$$
