QTL.pdb
     RDKit          3D

 25 24  0  0  1  0  0  0  0  0999 V2000
   11.7909  -14.0509   20.2235 N   0  0  0  0  0  0  0  0  0  0  0  0
   11.6807  -13.7872   18.8429 C   0  0  0  0  0  0  0  0  0  0  0  0
   12.5797  -14.1675   18.0568 O   0  0  0  0  0  0  0  0  0  0  0  0
   10.4905  -13.0601   18.3614 C   0  0  0  0  0  0  0  0  0  0  0  0
    9.2571  -13.3779   19.1818 C   0  0  0  0  0  0  0  0  0  0  0  0
    8.9274  -14.8387   18.9164 C   0  0  2  0  0  0  0  0  0  0  0  0
    8.1003  -14.9848   17.7539 N   0  0  0  0  0  0  0  0  0  0  0  0
    8.2305  -15.3542   20.1145 C   0  0  0  0  0  0  0  0  0  0  0  0
    7.0168  -15.1212   20.3122 O   0  0  0  0  0  0  0  0  0  0  0  0
    8.1550  -18.9638   21.5706 C   0  0  0  0  0  0  0  0  0  0  0  0
    8.6178  -17.9895   22.6103 C   0  0  1  0  0  0  0  0  0  0  0  0
    9.9998  -18.1209   22.7335 O   0  0  0  0  0  0  0  0  0  0  0  0
    8.2738  -16.5554   22.2609 C   0  0  2  0  0  0  0  0  0  0  0  0
    8.9505  -16.1266   21.0563 N   0  0  0  0  0  0  0  0  0  0  0  0
    8.6178  -15.6224   23.3440 C   0  0  0  0  0  0  0  0  0  0  0  0
    9.7364  -15.0828   23.3771 O   0  0  0  0  0  0  0  0  0  0  0  0
    5.5448  -12.2573   27.3079 C   0  0  0  0  0  0  0  0  0  0  0  0
    6.9309  -12.7825   26.9328 C   0  0  2  0  0  0  0  0  0  0  0  0
    7.8909  -11.6643   26.6468 C   0  0  0  0  0  0  0  0  0  0  0  0
    6.7545  -13.6638   25.7315 C   0  0  0  0  0  0  0  0  0  0  0  0
    8.0361  -14.3798   25.4178 C   0  0  2  0  0  0  0  0  0  0  0  0
    7.6870  -15.3308   24.3523 N   0  0  0  0  0  0  0  0  0  0  0  0
    8.5154  -15.1137   26.6063 C   0  0  0  0  0  0  0  0  0  0  0  0
    9.2468  -14.6539   27.5097 O   0  0  0  0  0  0  0  0  0  0  0  0
    8.1488  -16.4670   26.8003 O   0  0  0  0  0  0  0  0  0  0  0  0
  2  3  2  0
  2  1  1  0
  4  2  1  0
  5  4  1  0
  6  7  1  6
  6  5  1  0
  8  6  1  0
  9  8  2  0
 11 10  1  6
 11 12  1  0
 11 13  1  0
 13 15  1  0
 13 14  1  6
 14  8  1  0
 15 16  2  0
 18 17  1  6
 18 19  1  0
 18 20  1  0
 21 20  1  1
 22 21  1  0
 22 15  1  0
 23 25  1  0
 23 21  1  0
 24 23  2  0
M  END
$$$$
