QTL.pdb
     RDKit          3D

 25 24  0  0  1  0  0  0  0  0999 V2000
    7.7516  -12.5342   18.1181 N   0  0  0  0  0  0  0  0  0  0  0  0
    8.4485  -13.4343   17.2861 C   0  0  0  0  0  0  0  0  0  0  0  0
    8.6318  -13.1592   16.0772 O   0  0  0  0  0  0  0  0  0  0  0  0
    8.9471  -14.6912   17.8765 C   0  0  0  0  0  0  0  0  0  0  0  0
    8.5455  -14.8377   19.3300 C   0  0  0  0  0  0  0  0  0  0  0  0
    8.9907  -16.2262   19.7624 C   0  0  2  0  0  0  0  0  0  0  0  0
    8.5477  -17.2286   18.8372 N   0  0  0  0  0  0  0  0  0  0  0  0
    8.4175  -16.4712   21.1033 C   0  0  0  0  0  0  0  0  0  0  0  0
    7.1926  -16.6744   21.2604 O   0  0  0  0  0  0  0  0  0  0  0  0
    8.5700  -19.2259   23.1445 C   0  0  0  0  0  0  0  0  0  0  0  0
    9.0843  -18.1301   24.0273 C   0  0  1  0  0  0  0  0  0  0  0  0
   10.4730  -18.2371   24.0755 O   0  0  0  0  0  0  0  0  0  0  0  0
    8.6985  -16.7510   23.5312 C   0  0  2  0  0  0  0  0  0  0  0  0
    9.2714  -16.4760   22.2315 N   0  0  0  0  0  0  0  0  0  0  0  0
    9.1193  -15.6900   24.4581 C   0  0  0  0  0  0  0  0  0  0  0  0
   10.2416  -15.1685   24.3487 O   0  0  0  0  0  0  0  0  0  0  0  0
    8.2282  -11.7891   25.2642 C   0  0  0  0  0  0  0  0  0  0  0  0
    7.0566  -12.6748   25.6895 C   0  0  2  0  0  0  0  0  0  0  0  0
    5.8470  -11.8620   26.0498 C   0  0  0  0  0  0  0  0  0  0  0  0
    7.5266  -13.4912   26.8572 C   0  0  0  0  0  0  0  0  0  0  0  0
    8.7386  -14.2919   26.4790 C   0  0  2  0  0  0  0  0  0  0  0  0
    8.2584  -15.2542   25.4765 N   0  0  0  0  0  0  0  0  0  0  0  0
    9.2614  -15.0144   27.6561 C   0  0  0  0  0  0  0  0  0  0  0  0
    9.9042  -14.5113   28.6027 O   0  0  0  0  0  0  0  0  0  0  0  0
    9.0491  -16.4079   27.7854 O   0  0  0  0  0  0  0  0  0  0  0  0
  2  3  2  0
  2  1  1  0
  4  2  1  0
  5  4  1  0
  6  7  1  6
  6  5  1  0
  8  6  1  0
  9  8  2  0
 11 10  1  6
 11 12  1  0
 11 13  1  0
 13 15  1  0
 13 14  1  6
 14  8  1  0
 15 16  2  0
 18 17  1  1
 18 19  1  0
 18 20  1  0
 21 20  1  1
 22 21  1  0
 22 15  1  0
 23 25  1  0
 23 21  1  0
 24 23  2  0
M  END
$$$$
