QTL.pdb
     RDKit          3D

 25 24  0  0  1  0  0  0  0  0999 V2000
   10.5652  -12.2140   19.5225 N   0  0  0  0  0  0  0  0  0  0  0  0
   10.0576  -13.0004   18.4681 C   0  0  0  0  0  0  0  0  0  0  0  0
   10.8413  -13.6344   17.7234 O   0  0  0  0  0  0  0  0  0  0  0  0
    8.5959  -13.0517   18.2733 C   0  0  0  0  0  0  0  0  0  0  0  0
    7.8752  -13.5784   19.4975 C   0  0  0  0  0  0  0  0  0  0  0  0
    8.1903  -15.0642   19.5772 C   0  0  2  0  0  0  0  0  0  0  0  0
    7.4967  -15.8006   18.5605 N   0  0  0  0  0  0  0  0  0  0  0  0
    7.7803  -15.5265   20.9207 C   0  0  0  0  0  0  0  0  0  0  0  0
    6.5852  -15.7916   21.1812 O   0  0  0  0  0  0  0  0  0  0  0  0
    8.2188  -18.5802   22.2217 C   0  0  0  0  0  0  0  0  0  0  0  0
    8.8259  -17.7138   23.2824 C   0  0  1  0  0  0  0  0  0  0  0  0
   10.2112  -17.7750   23.1424 O   0  0  0  0  0  0  0  0  0  0  0  0
    8.3700  -16.2714   23.1899 C   0  0  2  0  0  0  0  0  0  0  0  0
    8.7592  -15.6722   21.9319 N   0  0  0  0  0  0  0  0  0  0  0  0
    8.9082  -15.4480   24.2827 C   0  0  0  0  0  0  0  0  0  0  0  0
   10.0630  -14.9944   24.2177 O   0  0  0  0  0  0  0  0  0  0  0  0
    7.5950  -11.7655   25.7585 C   0  0  0  0  0  0  0  0  0  0  0  0
    6.6836  -12.9090   26.2053 C   0  0  2  0  0  0  0  0  0  0  0  0
    5.4196  -12.3995   26.8348 C   0  0  0  0  0  0  0  0  0  0  0  0
    7.4707  -13.7434   27.1724 C   0  0  0  0  0  0  0  0  0  0  0  0
    8.6720  -14.3342   26.4934 C   0  0  2  0  0  0  0  0  0  0  0  0
    8.1242  -15.1650   25.4111 N   0  0  0  0  0  0  0  0  0  0  0  0
    9.4292  -15.1792   27.4386 C   0  0  0  0  0  0  0  0  0  0  0  0
   10.1527  -14.7719   28.3730 O   0  0  0  0  0  0  0  0  0  0  0  0
    9.3734  -16.5895   27.3312 O   0  0  0  0  0  0  0  0  0  0  0  0
  2  3  2  0
  2  1  1  0
  4  2  1  0
  5  4  1  0
  6  7  1  6
  6  5  1  0
  8  6  1  0
  9  8  2  0
 11 10  1  6
 11 12  1  0
 11 13  1  0
 13 15  1  0
 13 14  1  6
 14  8  1  0
 15 16  2  0
 18 17  1  1
 18 19  1  0
 18 20  1  0
 21 20  1  1
 22 21  1  0
 22 15  1  0
 23 25  1  0
 23 21  1  0
 24 23  2  0
M  END
$$$$
