QTL.pdb
     RDKit          3D

 25 24  0  0  1  0  0  0  0  0999 V2000
    7.6895  -12.6470   17.1101 N   0  0  0  0  0  0  0  0  0  0  0  0
    8.1966  -13.8744   16.6366 C   0  0  0  0  0  0  0  0  0  0  0  0
    8.4302  -14.0285   15.4149 O   0  0  0  0  0  0  0  0  0  0  0  0
    8.4393  -14.9549   17.6116 C   0  0  0  0  0  0  0  0  0  0  0  0
    8.0079  -14.5678   19.0114 C   0  0  0  0  0  0  0  0  0  0  0  0
    8.7956  -15.4525   19.9654 C   0  0  2  0  0  0  0  0  0  0  0  0
    8.9143  -16.7896   19.4604 N   0  0  0  0  0  0  0  0  0  0  0  0
    8.0771  -15.4501   21.2578 C   0  0  0  0  0  0  0  0  0  0  0  0
    7.4592  -14.4377   21.6572 O   0  0  0  0  0  0  0  0  0  0  0  0
    6.1149  -18.7221   22.7959 C   0  0  0  0  0  0  0  0  0  0  0  0
    7.0113  -18.0086   23.7612 C   0  0  1  0  0  0  0  0  0  0  0  0
    8.1790  -18.7579   23.8932 O   0  0  0  0  0  0  0  0  0  0  0  0
    7.3580  -16.6046   23.3077 C   0  0  2  0  0  0  0  0  0  0  0  0
    8.0885  -16.6164   22.0590 N   0  0  0  0  0  0  0  0  0  0  0  0
    8.1575  -15.8802   24.3067 C   0  0  0  0  0  0  0  0  0  0  0  0
    9.3717  -15.6916   24.1231 O   0  0  0  0  0  0  0  0  0  0  0  0
    8.0415  -11.9710   25.6759 C   0  0  0  0  0  0  0  0  0  0  0  0
    6.8634  -12.7804   26.2186 C   0  0  2  0  0  0  0  0  0  0  0  0
    5.8422  -11.9011   26.8803 C   0  0  0  0  0  0  0  0  0  0  0  0
    7.4270  -13.7777   27.1875 C   0  0  0  0  0  0  0  0  0  0  0  0
    8.3771  -14.7050   26.4870 C   0  0  2  0  0  0  0  0  0  0  0  0
    7.5586  -15.3937   25.4783 N   0  0  0  0  0  0  0  0  0  0  0  0
    8.9277  -15.6885   27.4411 C   0  0  0  0  0  0  0  0  0  0  0  0
    8.5487  -16.8716   27.5794 O   0  0  0  0  0  0  0  0  0  0  0  0
    9.9844  -15.3213   28.3084 O   0  0  0  0  0  0  0  0  0  0  0  0
  2  3  2  0
  2  1  1  0
  4  2  1  0
  5  4  1  0
  6  7  1  6
  6  5  1  0
  8  6  1  0
  9  8  2  0
 11 10  1  6
 11 12  1  0
 11 13  1  0
 13 15  1  0
 13 14  1  6
 14  8  1  0
 15 16  2  0
 18 17  1  1
 18 19  1  0
 18 20  1  0
 21 20  1  1
 22 21  1  0
 22 15  1  0
 23 25  1  0
 23 21  1  0
 24 23  2  0
M  END
$$$$
