PRR.pdb
     RDKit          3D

 30 30  0  0  1  0  0  0  0  0999 V2000
    7.3272  -19.3072   18.1335 N   0  0  0  0  0  0  0  0  0  0  0  0
    6.7742  -19.4006   16.7849 C   0  0  0  0  0  0  0  0  0  0  0  0
    7.1160  -18.0001   16.2598 C   0  0  0  0  0  0  0  0  0  0  0  0
    8.5614  -17.8760   16.7066 C   0  0  0  0  0  0  0  0  0  0  0  0
    8.6802  -18.8447   17.8706 C   0  0  1  0  0  0  0  0  0  0  0  0
    9.1793  -18.1244   19.0955 C   0  0  0  0  0  0  0  0  0  0  0  0
   10.3753  -17.7960   19.2321 O   0  0  0  0  0  0  0  0  0  0  0  0
    8.2929  -12.5601   18.5258 N   0  0  0  0  0  0  0  0  0  0  0  0
    8.4162  -12.0803   19.8632 C   0  0  0  0  0  0  0  0  0  0  0  0
    8.7755  -10.8331   19.9865 N   0  0  0  0  0  0  0  0  0  0  0  0
    8.1654  -12.9024   20.9920 N   0  0  0  0  0  0  0  0  0  0  0  0
    7.8807  -14.3065   20.7996 C   0  0  0  0  0  0  0  0  0  0  0  0
    7.6709  -15.0039   22.1485 C   0  0  0  0  0  0  0  0  0  0  0  0
    7.4412  -16.4735   21.9682 C   0  0  0  0  0  0  0  0  0  0  0  0
    8.6196  -17.1288   21.3659 C   0  0  2  0  0  0  0  0  0  0  0  0
    8.2745  -17.8133   20.1129 N   0  0  0  0  0  0  0  0  0  0  0  0
    9.2370  -18.0969   22.3046 C   0  0  0  0  0  0  0  0  0  0  0  0
    8.6982  -19.1742   22.6455 O   0  0  0  0  0  0  0  0  0  0  0  0
    8.9950  -10.3967   20.9092 N   0  0  0  0  0  0  0  0  0  0  0  0
   17.4105  -20.0519   23.1991 C   0  0  0  0  0  0  0  0  0  0  0  0
   16.3718  -19.9369   22.2479 N   0  0  0  0  0  0  0  0  0  0  0  0
   16.6869  -19.9738   20.9974 N   0  0  0  0  0  0  0  0  0  0  0  0
   15.0366  -19.7848   22.6988 C   0  0  0  0  0  0  0  0  0  0  0  0
   14.8103  -19.6912   24.1282 C   0  0  0  0  0  0  0  0  0  0  0  0
   13.3123  -19.6974   24.4486 C   0  0  0  0  0  0  0  0  0  0  0  0
   12.6021  -18.7508   23.5509 C   0  0  2  0  0  0  0  0  0  0  0  0
   11.1241  -18.7545   23.7943 N   0  0  0  0  0  0  0  0  0  0  0  0
   10.5243  -17.7968   22.8624 C   0  0  0  0  0  0  0  0  0  0  0  0
   10.8176  -18.3609   25.1848 O   0  0  0  0  0  0  0  0  0  0  0  0
   10.5032  -17.1930   25.4714 O   0  0  0  0  0  0  0  0  0  0  0  0
  1  2  1  0
  3  2  1  0
  4  5  1  0
  4  3  1  0
  5  1  1  0
  5  6  1  1
  6 16  1  0
  7  6  2  0
  8  9  1  0
  9 10  2  0
 11  9  1  0
 12 11  1  0
 13 12  1  0
 14 13  1  0
 15 14  1  1
 15 16  1  0
 17 15  1  0
 17 27  1  0
 18 17  2  0
 20 22  1  0
 20 19  1  0
 21 20  2  0
 22 23  1  0
 23 24  1  0
 25 24  1  0
 26 25  1  6
 26 27  1  0
 26 28  1  0
 28 29  2  0
 28 30  1  0
M  END
$$$$
