PRR.pdb
     RDKit          3D

 30 30  0  0  1  0  0  0  0  0999 V2000
    8.7630  -13.7118   18.8378 N   0  0  0  0  0  0  0  0  0  0  0  0
    7.4854  -13.0553   18.5734 C   0  0  0  0  0  0  0  0  0  0  0  0
    6.5304  -14.0531   19.2414 C   0  0  0  0  0  0  0  0  0  0  0  0
    7.2436  -14.2865   20.5609 C   0  0  0  0  0  0  0  0  0  0  0  0
    8.6930  -13.9352   20.2728 C   0  0  1  0  0  0  0  0  0  0  0  0
    9.5860  -15.0992   20.6135 C   0  0  0  0  0  0  0  0  0  0  0  0
    9.5439  -15.6661   21.7241 O   0  0  0  0  0  0  0  0  0  0  0  0
   11.7271  -21.3985   17.9006 N   0  0  0  0  0  0  0  0  0  0  0  0
   13.1453  -21.4004   17.7498 C   0  0  0  0  0  0  0  0  0  0  0  0
   13.7276  -22.5591   17.8849 N   0  0  0  0  0  0  0  0  0  0  0  0
   13.8819  -20.2204   17.4706 N   0  0  0  0  0  0  0  0  0  0  0  0
   13.1818  -18.9649   17.3179 C   0  0  0  0  0  0  0  0  0  0  0  0
   12.6495  -18.4766   18.6700 C   0  0  0  0  0  0  0  0  0  0  0  0
   11.9319  -17.1688   18.5288 C   0  0  0  0  0  0  0  0  0  0  0  0
   11.3729  -16.7235   19.8211 C   0  0  2  0  0  0  0  0  0  0  0  0
   10.4915  -15.5601   19.6553 N   0  0  0  0  0  0  0  0  0  0  0  0
   12.4473  -16.3962   20.7895 C   0  0  0  0  0  0  0  0  0  0  0  0
   13.1541  -15.3652   20.7207 O   0  0  0  0  0  0  0  0  0  0  0  0
   14.7641  -22.6783   17.8503 N   0  0  0  0  0  0  0  0  0  0  0  0
   10.1196  -21.0244   26.1881 C   0  0  0  0  0  0  0  0  0  0  0  0
   11.5243  -21.1759   26.2104 N   0  0  0  0  0  0  0  0  0  0  0  0
   12.0161  -22.1863   26.8442 N   0  0  0  0  0  0  0  0  0  0  0  0
   12.3324  -20.2206   25.5441 C   0  0  0  0  0  0  0  0  0  0  0  0
   11.6768  -19.2782   24.6582 C   0  0  0  0  0  0  0  0  0  0  0  0
   12.3573  -17.9069   24.7144 C   0  0  0  0  0  0  0  0  0  0  0  0
   13.6417  -17.9520   23.9697 C   0  0  2  0  0  0  0  0  0  0  0  0
   13.6927  -16.9215   22.8837 N   0  0  0  0  0  0  0  0  0  0  0  0
   12.7040  -17.3018   21.8722 C   0  0  0  0  0  0  0  0  0  0  0  0
   15.0372  -16.8637   22.2744 O   0  0  0  0  0  0  0  0  0  0  0  0
   15.2332  -17.2364   21.1049 O   0  0  0  0  0  0  0  0  0  0  0  0
  1  2  1  0
  3  2  1  0
  4  5  1  0
  4  3  1  0
  5  1  1  0
  5  6  1  6
  6 16  1  0
  7  6  2  0
  8  9  1  0
  9 10  2  0
 11  9  1  0
 12 11  1  0
 13 12  1  0
 14 13  1  0
 15 14  1  6
 15 16  1  0
 17 15  1  0
 17 27  1  0
 18 17  2  0
 20 22  1  0
 20 19  1  0
 21 20  2  0
 22 23  1  0
 23 24  1  0
 25 24  1  0
 26 25  1  1
 26 27  1  0
 26 28  1  0
 28 29  2  0
 28 30  1  0
M  END
$$$$
