PRR.pdb
     RDKit          3D

 30 30  0  0  1  0  0  0  0  0999 V2000
    3.2061  -18.4837   22.6142 N   0  0  0  0  0  0  0  0  0  0  0  0
    1.9732  -19.0802   22.1068 C   0  0  0  0  0  0  0  0  0  0  0  0
    2.4620  -19.5797   20.7409 C   0  0  0  0  0  0  0  0  0  0  0  0
    3.7684  -20.2451   21.1346 C   0  0  0  0  0  0  0  0  0  0  0  0
    4.1579  -19.5684   22.4375 C   0  0  1  0  0  0  0  0  0  0  0  0
    5.5362  -18.9727   22.3204 C   0  0  0  0  0  0  0  0  0  0  0  0
    6.5572  -19.6793   22.1977 O   0  0  0  0  0  0  0  0  0  0  0  0
    7.5747  -12.2797   17.5878 N   0  0  0  0  0  0  0  0  0  0  0  0
    8.4317  -13.3607   17.9499 C   0  0  0  0  0  0  0  0  0  0  0  0
    8.8046  -14.1395   16.9730 N   0  0  0  0  0  0  0  0  0  0  0  0
    8.8552  -13.5805   19.2861 N   0  0  0  0  0  0  0  0  0  0  0  0
    7.8699  -13.6524   20.3414 C   0  0  0  0  0  0  0  0  0  0  0  0
    8.0653  -14.9234   21.1758 C   0  0  0  0  0  0  0  0  0  0  0  0
    6.7528  -15.5805   21.4766 C   0  0  0  0  0  0  0  0  0  0  0  0
    6.9464  -16.8628   22.1830 C   0  0  2  0  0  0  0  0  0  0  0  0
    5.6774  -17.5836   22.3500 N   0  0  0  0  0  0  0  0  0  0  0  0
    7.5773  -16.6580   23.5095 C   0  0  0  0  0  0  0  0  0  0  0  0
    7.0499  -16.0012   24.4356 O   0  0  0  0  0  0  0  0  0  0  0  0
    9.4823  -14.9230   17.1020 N   0  0  0  0  0  0  0  0  0  0  0  0
   10.1598  -21.4493   29.7500 C   0  0  0  0  0  0  0  0  0  0  0  0
   10.7396  -20.2140   30.1168 N   0  0  0  0  0  0  0  0  0  0  0  0
   11.0199  -20.0206   31.3612 N   0  0  0  0  0  0  0  0  0  0  0  0
   10.9869  -19.2427   29.1145 C   0  0  0  0  0  0  0  0  0  0  0  0
   10.2056  -19.3133   27.8947 C   0  0  0  0  0  0  0  0  0  0  0  0
   10.5677  -18.1683   26.9437 C   0  0  0  0  0  0  0  0  0  0  0  0
    9.8117  -18.3117   25.6732 C   0  0  1  0  0  0  0  0  0  0  0  0
    9.5075  -16.9827   25.0526 N   0  0  0  0  0  0  0  0  0  0  0  0
    8.8647  -17.2388   23.7617 C   0  0  0  0  0  0  0  0  0  0  0  0
   10.7438  -16.1994   24.8510 O   0  0  0  0  0  0  0  0  0  0  0  0
   11.3631  -15.7110   25.8117 O   0  0  0  0  0  0  0  0  0  0  0  0
  1  2  1  0
  3  2  1  0
  4  5  1  0
  4  3  1  0
  5  1  1  0
  5  6  1  6
  6 16  1  0
  7  6  2  0
  8  9  1  0
  9 10  2  0
 11  9  1  0
 12 11  1  0
 13 12  1  0
 14 13  1  0
 15 14  1  1
 15 16  1  0
 17 15  1  0
 17 27  1  0
 18 17  2  0
 20 22  1  0
 20 19  1  0
 21 20  2  0
 22 23  1  0
 23 24  1  0
 25 24  1  0
 26 25  1  1
 26 27  1  0
 26 28  1  0
 28 29  2  0
 28 30  1  0
M  END
$$$$
