PRR.pdb
     RDKit          3D

 30 30  0  0  1  0  0  0  0  0999 V2000
    4.9453  -19.6438   23.0215 N   0  0  0  0  0  0  0  0  0  0  0  0
    3.9381  -20.6405   22.6675 C   0  0  0  0  0  0  0  0  0  0  0  0
    4.6884  -21.3961   21.5629 C   0  0  0  0  0  0  0  0  0  0  0  0
    6.0447  -21.5816   22.2189 C   0  0  0  0  0  0  0  0  0  0  0  0
    6.1171  -20.4724   23.2541 C   0  0  1  0  0  0  0  0  0  0  0  0
    7.3442  -19.6295   23.0257 C   0  0  0  0  0  0  0  0  0  0  0  0
    8.4952  -20.1105   23.0529 O   0  0  0  0  0  0  0  0  0  0  0  0
    7.3439  -14.0060   16.8746 N   0  0  0  0  0  0  0  0  0  0  0  0
    7.6901  -13.6157   18.2020 C   0  0  0  0  0  0  0  0  0  0  0  0
    7.6076  -12.3397   18.4568 N   0  0  0  0  0  0  0  0  0  0  0  0
    8.0989  -14.5511   19.1874 N   0  0  0  0  0  0  0  0  0  0  0  0
    8.4411  -14.0842   20.5121 C   0  0  0  0  0  0  0  0  0  0  0  0
    8.9409  -15.2445   21.3802 C   0  0  0  0  0  0  0  0  0  0  0  0
    7.8019  -16.0925   21.8584 C   0  0  0  0  0  0  0  0  0  0  0  0
    8.2894  -17.3294   22.5013 C   0  0  2  0  0  0  0  0  0  0  0  0
    7.1900  -18.2643   22.7751 N   0  0  0  0  0  0  0  0  0  0  0  0
    9.0124  -17.0331   23.7619 C   0  0  0  0  0  0  0  0  0  0  0  0
    8.4467  -16.8841   24.8687 O   0  0  0  0  0  0  0  0  0  0  0  0
    7.9219  -11.9223   19.3606 N   0  0  0  0  0  0  0  0  0  0  0  0
   11.2061  -21.5297   29.3588 C   0  0  0  0  0  0  0  0  0  0  0  0
   11.3645  -20.2639   29.9664 N   0  0  0  0  0  0  0  0  0  0  0  0
   11.1886  -20.1762   31.2416 N   0  0  0  0  0  0  0  0  0  0  0  0
   11.7051  -19.1489   29.1602 C   0  0  0  0  0  0  0  0  0  0  0  0
   11.7395  -19.3370   27.7227 C   0  0  0  0  0  0  0  0  0  0  0  0
   11.8644  -17.9943   26.9959 C   0  0  0  0  0  0  0  0  0  0  0  0
   11.0622  -18.0224   25.7462 C   0  0  1  0  0  0  0  0  0  0  0  0
   11.1586  -16.7312   24.9929 N   0  0  0  0  0  0  0  0  0  0  0  0
   10.4412  -16.9072   23.7282 C   0  0  0  0  0  0  0  0  0  0  0  0
   12.5685  -16.3807   24.7255 O   0  0  0  0  0  0  0  0  0  0  0  0
   13.3969  -16.2863   25.6475 O   0  0  0  0  0  0  0  0  0  0  0  0
  1  2  1  0
  3  2  1  0
  4  5  1  0
  4  3  1  0
  5  1  1  0
  5  6  1  6
  6 16  1  0
  7  6  2  0
  8  9  1  0
  9 10  2  0
 11  9  1  0
 12 11  1  0
 13 12  1  0
 14 13  1  0
 15 14  1  1
 15 16  1  0
 17 15  1  0
 17 27  1  0
 18 17  2  0
 20 22  1  0
 20 19  1  0
 21 20  2  0
 22 23  1  0
 23 24  1  0
 25 24  1  0
 26 25  1  1
 26 27  1  0
 26 28  1  0
 28 29  2  0
 28 30  1  0
M  END
$$$$
