PRR.pdb
     RDKit          3D

 30 30  0  0  1  0  0  0  0  0999 V2000
    8.4606  -14.7368   17.6553 N   0  0  0  0  0  0  0  0  0  0  0  0
    8.2824  -13.9717   16.4240 C   0  0  0  0  0  0  0  0  0  0  0  0
    7.2380  -12.9508   16.8940 C   0  0  0  0  0  0  0  0  0  0  0  0
    7.8386  -12.5229   18.2208 C   0  0  0  0  0  0  0  0  0  0  0  0
    8.7282  -13.6862   18.6240 C   0  0  1  0  0  0  0  0  0  0  0  0
    8.3357  -14.1904   19.9879 C   0  0  0  0  0  0  0  0  0  0  0  0
    8.4283  -13.4814   21.0104 O   0  0  0  0  0  0  0  0  0  0  0  0
    6.3024  -22.2603   19.0475 N   0  0  0  0  0  0  0  0  0  0  0  0
    7.6794  -21.8945   19.1125 C   0  0  0  0  0  0  0  0  0  0  0  0
    8.5249  -22.7949   18.6952 N   0  0  0  0  0  0  0  0  0  0  0  0
    8.1087  -20.6329   19.5993 N   0  0  0  0  0  0  0  0  0  0  0  0
    7.1382  -19.7190   20.1584 C   0  0  0  0  0  0  0  0  0  0  0  0
    7.7951  -18.3760   20.4973 C   0  0  0  0  0  0  0  0  0  0  0  0
    6.8173  -17.4432   21.1446 C   0  0  0  0  0  0  0  0  0  0  0  0
    7.4176  -16.1134   21.3728 C   0  0  2  0  0  0  0  0  0  0  0  0
    7.8521  -15.4945   20.1135 N   0  0  0  0  0  0  0  0  0  0  0  0
    8.5666  -16.1934   22.3071 C   0  0  0  0  0  0  0  0  0  0  0  0
    9.7596  -16.2714   21.9359 O   0  0  0  0  0  0  0  0  0  0  0  0
    9.5590  -22.6533   18.7187 N   0  0  0  0  0  0  0  0  0  0  0  0
    9.8660  -16.5146   30.2207 C   0  0  0  0  0  0  0  0  0  0  0  0
   10.4600  -15.2354   30.3087 N   0  0  0  0  0  0  0  0  0  0  0  0
   10.8781  -14.8383   31.4628 N   0  0  0  0  0  0  0  0  0  0  0  0
   10.5711  -14.4439   29.1381 C   0  0  0  0  0  0  0  0  0  0  0  0
    9.5338  -14.5711   28.1327 C   0  0  0  0  0  0  0  0  0  0  0  0
   10.0437  -15.3443   26.9125 C   0  0  0  0  0  0  0  0  0  0  0  0
    8.9853  -15.3958   25.8716 C   0  0  1  0  0  0  0  0  0  0  0  0
    9.4543  -16.0977   24.6341 N   0  0  0  0  0  0  0  0  0  0  0  0
    8.3137  -16.1819   23.7192 C   0  0  0  0  0  0  0  0  0  0  0  0
    9.9446  -17.4547   24.9513 O   0  0  0  0  0  0  0  0  0  0  0  0
    9.2010  -18.4470   24.8645 O   0  0  0  0  0  0  0  0  0  0  0  0
  1  2  1  0
  3  2  1  0
  4  5  1  0
  4  3  1  0
  5  1  1  0
  5  6  1  1
  6 16  1  0
  7  6  2  0
  8  9  1  0
  9 10  2  0
 11  9  1  0
 12 11  1  0
 13 12  1  0
 14 13  1  0
 15 14  1  6
 15 16  1  0
 17 15  1  0
 17 27  1  0
 18 17  2  0
 20 22  1  0
 20 19  1  0
 21 20  2  0
 22 23  1  0
 23 24  1  0
 25 24  1  0
 26 25  1  6
 26 27  1  0
 26 28  1  0
 28 29  2  0
 28 30  1  0
M  END
$$$$
