PRR.pdb
     RDKit          3D

 30 30  0  0  1  0  0  0  0  0999 V2000
   11.4368  -19.3988   23.5409 N   0  0  0  0  0  0  0  0  0  0  0  0
   11.0339  -18.9093   22.2251 C   0  0  0  0  0  0  0  0  0  0  0  0
    9.5092  -19.0195   22.3559 C   0  0  0  0  0  0  0  0  0  0  0  0
    9.2977  -18.3997   23.7253 C   0  0  0  0  0  0  0  0  0  0  0  0
   10.6342  -18.5709   24.4265 C   0  0  1  0  0  0  0  0  0  0  0  0
   10.4474  -19.3116   25.7246 C   0  0  0  0  0  0  0  0  0  0  0  0
    9.6645  -18.9127   26.6104 O   0  0  0  0  0  0  0  0  0  0  0  0
   10.1648  -27.6403   25.5196 N   0  0  0  0  0  0  0  0  0  0  0  0
    8.9754  -26.8621   25.6368 C   0  0  0  0  0  0  0  0  0  0  0  0
    7.8633  -27.4816   25.3551 N   0  0  0  0  0  0  0  0  0  0  0  0
    8.9939  -25.5002   26.0340 N   0  0  0  0  0  0  0  0  0  0  0  0
   10.2553  -24.8693   26.3510 C   0  0  0  0  0  0  0  0  0  0  0  0
   10.0471  -23.3896   26.6932 C   0  0  0  0  0  0  0  0  0  0  0  0
   11.3555  -22.7010   26.9362 C   0  0  0  0  0  0  0  0  0  0  0  0
   11.1615  -21.2595   27.1923 C   0  0  2  0  0  0  0  0  0  0  0  0
   11.1740  -20.4837   25.9451 N   0  0  0  0  0  0  0  0  0  0  0  0
   12.1965  -20.7314   28.1139 C   0  0  0  0  0  0  0  0  0  0  0  0
   13.1777  -20.0500   27.7394 O   0  0  0  0  0  0  0  0  0  0  0  0
    6.9281  -27.0221   25.4203 N   0  0  0  0  0  0  0  0  0  0  0  0
    9.9496  -19.1621   36.6773 C   0  0  0  0  0  0  0  0  0  0  0  0
    9.7646  -19.2128   35.2773 N   0  0  0  0  0  0  0  0  0  0  0  0
    8.5583  -19.2940   34.8269 N   0  0  0  0  0  0  0  0  0  0  0  0
   10.8996  -19.1751   34.4291 C   0  0  0  0  0  0  0  0  0  0  0  0
   10.6801  -19.2666   32.9985 C   0  0  0  0  0  0  0  0  0  0  0  0
   11.9975  -19.1210   32.2304 C   0  0  0  0  0  0  0  0  0  0  0  0
   12.4827  -20.4591   31.8059 C   0  0  2  0  0  0  0  0  0  0  0  0
   13.0703  -20.4277   30.4284 N   0  0  0  0  0  0  0  0  0  0  0  0
   12.0815  -21.0081   29.5169 C   0  0  0  0  0  0  0  0  0  0  0  0
   14.3236  -21.2076   30.3718 O   0  0  0  0  0  0  0  0  0  0  0  0
   14.3394  -22.3752   29.9458 O   0  0  0  0  0  0  0  0  0  0  0  0
  1  2  1  0
  3  2  1  0
  4  5  1  0
  4  3  1  0
  5  1  1  0
  5  6  1  1
  6 16  1  0
  7  6  2  0
  8  9  1  0
  9 10  2  0
 11  9  1  0
 12 11  1  0
 13 12  1  0
 14 13  1  0
 15 14  1  6
 15 16  1  0
 17 15  1  0
 17 27  1  0
 18 17  2  0
 20 22  1  0
 20 19  1  0
 21 20  2  0
 22 23  1  0
 23 24  1  0
 25 24  1  0
 26 25  1  6
 26 27  1  0
 26 28  1  0
 28 29  2  0
 28 30  1  0
M  END
$$$$
