PRR.pdb
     RDKit          3D

 30 30  0  0  1  0  0  0  0  0999 V2000
   10.9562  -19.8390   17.9009 N   0  0  0  0  0  0  0  0  0  0  0  0
   11.4674  -20.3005   16.6129 C   0  0  0  0  0  0  0  0  0  0  0  0
   12.2444  -19.0529   16.1727 C   0  0  0  0  0  0  0  0  0  0  0  0
   12.9955  -18.7228   17.4498 C   0  0  0  0  0  0  0  0  0  0  0  0
   12.1671  -19.3634   18.5501 C   0  0  1  0  0  0  0  0  0  0  0  0
   11.7787  -18.3302   19.5748 C   0  0  0  0  0  0  0  0  0  0  0  0
   12.6277  -17.6809   20.2186 O   0  0  0  0  0  0  0  0  0  0  0  0
    6.3844  -12.3833   18.0081 N   0  0  0  0  0  0  0  0  0  0  0  0
    7.3592  -12.1449   19.0216 C   0  0  0  0  0  0  0  0  0  0  0  0
    7.6000  -10.8925   19.2924 N   0  0  0  0  0  0  0  0  0  0  0  0
    8.0280  -13.1988   19.6962 N   0  0  0  0  0  0  0  0  0  0  0  0
    7.2976  -14.3972   20.0429 C   0  0  0  0  0  0  0  0  0  0  0  0
    8.1509  -15.3108   20.9303 C   0  0  0  0  0  0  0  0  0  0  0  0
    8.5858  -16.5361   20.1856 C   0  0  0  0  0  0  0  0  0  0  0  0
    9.8965  -17.0171   20.6667 C   0  0  2  0  0  0  0  0  0  0  0  0
   10.4237  -18.0901   19.8133 N   0  0  0  0  0  0  0  0  0  0  0  0
    9.8145  -17.4948   22.0683 C   0  0  0  0  0  0  0  0  0  0  0  0
    9.2431  -18.5555   22.4084 O   0  0  0  0  0  0  0  0  0  0  0  0
    8.3015  -10.5931   20.0052 N   0  0  0  0  0  0  0  0  0  0  0  0
   10.2447  -14.5052   29.8128 C   0  0  0  0  0  0  0  0  0  0  0  0
   10.9889  -15.6760   30.0811 N   0  0  0  0  0  0  0  0  0  0  0  0
   11.3414  -15.9051   31.3009 N   0  0  0  0  0  0  0  0  0  0  0  0
   11.3188  -16.5448   29.0108 C   0  0  0  0  0  0  0  0  0  0  0  0
   11.0860  -16.0738   27.6591 C   0  0  0  0  0  0  0  0  0  0  0  0
   11.5478  -17.1098   26.6295 C   0  0  0  0  0  0  0  0  0  0  0  0
   11.4326  -16.5445   25.2608 C   0  0  2  0  0  0  0  0  0  0  0  0
   10.3147  -17.1758   24.4892 N   0  0  0  0  0  0  0  0  0  0  0  0
   10.4191  -16.7086   23.1050 C   0  0  0  0  0  0  0  0  0  0  0  0
    9.0034  -16.7917   25.0509 O   0  0  0  0  0  0  0  0  0  0  0  0
    8.4488  -15.7273   24.7278 O   0  0  0  0  0  0  0  0  0  0  0  0
  1  2  1  0
  3  2  1  0
  4  5  1  0
  4  3  1  0
  5  1  1  0
  5  6  1  1
  6 16  1  0
  7  6  2  0
  8  9  1  0
  9 10  2  0
 11  9  1  0
 12 11  1  0
 13 12  1  0
 14 13  1  0
 15 14  1  6
 15 16  1  0
 17 15  1  0
 17 27  1  0
 18 17  2  0
 20 22  1  0
 20 19  1  0
 21 20  2  0
 22 23  1  0
 23 24  1  0
 25 24  1  0
 26 25  1  6
 26 27  1  0
 26 28  1  0
 28 29  2  0
 28 30  1  0
M  END
$$$$
