PRR.pdb
     RDKit          3D

 30 30  0  0  1  0  0  0  0  0999 V2000
    5.3985  -12.8650   26.7100 N   0  0  0  0  0  0  0  0  0  0  0  0
    5.4322  -11.6314   27.4913 C   0  0  0  0  0  0  0  0  0  0  0  0
    6.9248  -11.5796   27.8424 C   0  0  0  0  0  0  0  0  0  0  0  0
    7.5437  -11.8861   26.4906 C   0  0  0  0  0  0  0  0  0  0  0  0
    6.4553  -12.6327   25.7388 C   0  0  1  0  0  0  0  0  0  0  0  0
    6.9704  -13.9692   25.2730 C   0  0  0  0  0  0  0  0  0  0  0  0
    6.9019  -14.9922   25.9840 O   0  0  0  0  0  0  0  0  0  0  0  0
    9.1185  -11.8394   18.5269 N   0  0  0  0  0  0  0  0  0  0  0  0
    8.7634  -13.2197   18.4738 C   0  0  0  0  0  0  0  0  0  0  0  0
    8.6920  -13.7406   17.2808 N   0  0  0  0  0  0  0  0  0  0  0  0
    8.5030  -13.9833   19.6410 N   0  0  0  0  0  0  0  0  0  0  0  0
    7.1405  -14.3377   19.9693 C   0  0  0  0  0  0  0  0  0  0  0  0
    7.1024  -15.2474   21.2026 C   0  0  0  0  0  0  0  0  0  0  0  0
    8.3756  -15.1502   21.9865 C   0  0  0  0  0  0  0  0  0  0  0  0
    8.1240  -15.2917   23.4347 C   0  0  2  0  0  0  0  0  0  0  0  0
    7.5440  -14.0678   24.0035 N   0  0  0  0  0  0  0  0  0  0  0  0
    9.3666  -15.6369   24.1669 C   0  0  0  0  0  0  0  0  0  0  0  0
   10.1132  -14.7892   24.7066 O   0  0  0  0  0  0  0  0  0  0  0  0
    8.4842  -14.7504   17.1164 N   0  0  0  0  0  0  0  0  0  0  0  0
   11.1116  -19.1756   31.7853 C   0  0  0  0  0  0  0  0  0  0  0  0
   11.0635  -19.7525   30.4963 N   0  0  0  0  0  0  0  0  0  0  0  0
   10.7031  -20.9874   30.3969 N   0  0  0  0  0  0  0  0  0  0  0  0
   11.4114  -18.9617   29.3726 C   0  0  0  0  0  0  0  0  0  0  0  0
   11.3492  -19.5808   28.0626 C   0  0  0  0  0  0  0  0  0  0  0  0
   11.7788  -18.5974   26.9695 C   0  0  0  0  0  0  0  0  0  0  0  0
   10.5924  -18.1654   26.1872 C   0  0  1  0  0  0  0  0  0  0  0  0
   10.9796  -17.3482   24.9930 N   0  0  0  0  0  0  0  0  0  0  0  0
    9.7488  -17.0157   24.2718 C   0  0  0  0  0  0  0  0  0  0  0  0
   11.8903  -18.1045   24.1093 O   0  0  0  0  0  0  0  0  0  0  0  0
   11.4977  -18.5766   23.0285 O   0  0  0  0  0  0  0  0  0  0  0  0
  1  2  1  0
  3  2  1  0
  4  5  1  0
  4  3  1  0
  5  1  1  0
  5  6  1  1
  6 16  1  0
  7  6  2  0
  8  9  1  0
  9 10  2  0
 11  9  1  0
 12 11  1  0
 13 12  1  0
 14 13  1  0
 15 14  1  6
 15 16  1  0
 17 15  1  0
 17 27  1  0
 18 17  2  0
 20 22  1  0
 20 19  1  0
 21 20  2  0
 22 23  1  0
 23 24  1  0
 25 24  1  0
 26 25  1  1
 26 27  1  0
 26 28  1  0
 28 29  2  0
 28 30  1  0
M  END
$$$$
