KGH.pdb
     RDKit          3D

 24 24  0  0  1  0  0  0  0  0999 V2000
   24.7641  -20.0004  -15.4520 N   0  0  0  0  0  0  0  0  0  0  0  0
   23.7708  -19.0306  -15.7977 C   0  0  1  0  0  0  0  0  0  0  0  0
   23.7277  -18.8222  -17.2757 C   0  0  0  0  0  0  0  0  0  0  0  0
   25.0449  -18.6536  -17.9254 C   0  0  0  0  0  0  0  0  0  0  0  0
   25.3841  -17.2561  -18.2904 C   0  0  0  0  0  0  0  0  0  0  0  0
   26.7336  -17.1266  -18.9820 C   0  0  0  0  0  0  0  0  0  0  0  0
   27.0488  -15.7288  -19.1459 N   0  0  0  0  0  0  0  0  0  0  0  0
   22.4198  -19.3840  -15.2833 C   0  0  0  0  0  0  0  0  0  0  0  0
   21.9438  -20.4819  -15.6714 O   0  0  0  0  0  0  0  0  0  0  0  0
   21.6770  -18.5421  -14.3946 N   0  0  0  0  0  0  0  0  0  0  0  0
   20.5228  -17.9052  -14.9383 C   0  0  0  0  0  0  0  0  0  0  0  0
   19.2907  -18.6817  -14.9370 C   0  0  0  0  0  0  0  0  0  0  0  0
   18.2250  -18.0294  -15.2162 O   0  0  0  0  0  0  0  0  0  0  0  0
   19.1545  -20.0647  -14.6621 N   0  0  0  0  0  0  0  0  0  0  0  0
   17.8395  -20.6830  -14.6525 C   0  0  1  0  0  0  0  0  0  0  0  0
   17.9472  -22.1918  -14.6317 C   0  0  0  0  0  0  0  0  0  0  0  0
   16.6220  -22.8291  -14.6914 C   0  0  0  0  0  0  0  0  0  0  0  0
   15.5092  -22.6218  -13.9119 C   0  0  0  0  0  0  0  0  0  0  0  0
   14.5103  -23.4297  -14.3055 N   0  0  0  0  0  0  0  0  0  0  0  0
   14.9761  -24.1555  -15.3346 C   0  0  0  0  0  0  0  0  0  0  0  0
   16.2619  -23.7845  -15.5637 N   0  0  0  0  0  0  0  0  0  0  0  0
   17.0059  -20.1458  -13.5502 C   0  0  0  0  0  0  0  0  0  0  0  0
   15.6366  -19.9000  -13.7793 O   0  0  0  0  0  0  0  0  0  0  0  0
   17.4331  -19.8859  -12.4003 O   0  0  0  0  0  0  0  0  0  0  0  0
  2  1  1  6
  3  2  1  0
  4  3  1  0
  5  6  1  0
  5  4  1  0
  7  6  1  0
  8  2  1  0
  8 10  1  0
  9  8  2  0
 11 10  1  0
 12 11  1  0
 13 12  2  0
 14 12  1  0
 15 14  1  0
 15 16  1  1
 17 18  2  0
 17 16  1  0
 19 18  1  0
 20 21  2  0
 20 19  1  0
 21 17  1  0
 22 15  1  0
 23 22  1  0
 24 22  2  0
M  END
$$$$
