KGH.pdb
     RDKit          3D

 24 24  0  0  1  0  0  0  0  0999 V2000
   26.8008  -19.1530  -14.3200 N   0  0  0  0  0  0  0  0  0  0  0  0
   27.4032  -20.4420  -14.1717 C   0  0  1  0  0  0  0  0  0  0  0  0
   27.1746  -20.9770  -12.7965 C   0  0  0  0  0  0  0  0  0  0  0  0
   26.0300  -20.3833  -12.0734 C   0  0  0  0  0  0  0  0  0  0  0  0
   25.8572  -20.8640  -10.6804 C   0  0  0  0  0  0  0  0  0  0  0  0
   24.6984  -20.1964   -9.9540 C   0  0  0  0  0  0  0  0  0  0  0  0
   24.6060  -20.7321   -8.6181 N   0  0  0  0  0  0  0  0  0  0  0  0
   26.9325  -21.4166  -15.1932 C   0  0  0  0  0  0  0  0  0  0  0  0
   27.5431  -22.5156  -15.2399 O   0  0  0  0  0  0  0  0  0  0  0  0
   25.8475  -21.1482  -16.0882 N   0  0  0  0  0  0  0  0  0  0  0  0
   24.6635  -21.9206  -15.9016 C   0  0  0  0  0  0  0  0  0  0  0  0
   23.4003  -21.1981  -15.9589 C   0  0  0  0  0  0  0  0  0  0  0  0
   23.2083  -20.3438  -15.0249 O   0  0  0  0  0  0  0  0  0  0  0  0
   22.3782  -21.3430  -16.9291 N   0  0  0  0  0  0  0  0  0  0  0  0
   21.1009  -20.6732  -16.7522 C   0  0  1  0  0  0  0  0  0  0  0  0
   20.3095  -20.6600  -18.0414 C   0  0  0  0  0  0  0  0  0  0  0  0
   19.3232  -19.5679  -18.0591 C   0  0  0  0  0  0  0  0  0  0  0  0
   19.2353  -18.4742  -18.8868 C   0  0  0  0  0  0  0  0  0  0  0  0
   18.1785  -17.7180  -18.5451 N   0  0  0  0  0  0  0  0  0  0  0  0
   17.5867  -18.3207  -17.5014 C   0  0  0  0  0  0  0  0  0  0  0  0
   18.2890  -19.4459  -17.2113 N   0  0  0  0  0  0  0  0  0  0  0  0
   20.3473  -21.2541  -15.6150 C   0  0  0  0  0  0  0  0  0  0  0  0
   19.2853  -20.5213  -15.0466 O   0  0  0  0  0  0  0  0  0  0  0  0
   20.5856  -22.3747  -15.1054 O   0  0  0  0  0  0  0  0  0  0  0  0
  2  1  1  1
  3  2  1  0
  4  3  1  0
  5  6  1  0
  5  4  1  0
  7  6  1  0
  8  2  1  0
  8 10  1  0
  9  8  2  0
 11 10  1  0
 12 11  1  0
 13 12  2  0
 14 12  1  0
 15 14  1  0
 15 16  1  6
 17 18  2  0
 17 16  1  0
 19 18  1  0
 20 21  2  0
 20 19  1  0
 21 17  1  0
 22 15  1  0
 23 22  1  0
 24 22  2  0
M  END
$$$$
