KGH.pdb
     RDKit          3D

 24 24  0  0  1  0  0  0  0  0999 V2000
   27.2679  -13.0332  -17.4711 N   0  0  0  0  0  0  0  0  0  0  0  0
   25.9751  -13.3509  -16.9473 C   0  0  1  0  0  0  0  0  0  0  0  0
   26.0023  -14.6612  -16.2318 C   0  0  0  0  0  0  0  0  0  0  0  0
   26.3157  -15.8327  -17.0775 C   0  0  0  0  0  0  0  0  0  0  0  0
   26.3817  -17.1246  -16.3509 C   0  0  0  0  0  0  0  0  0  0  0  0
   26.7572  -18.2978  -17.2445 C   0  0  0  0  0  0  0  0  0  0  0  0
   26.9349  -19.4748  -16.4301 N   0  0  0  0  0  0  0  0  0  0  0  0
   25.4378  -12.2849  -16.0587 C   0  0  0  0  0  0  0  0  0  0  0  0
   25.9738  -12.1795  -14.9254 O   0  0  0  0  0  0  0  0  0  0  0  0
   24.3703  -11.4113  -16.4430 N   0  0  0  0  0  0  0  0  0  0  0  0
   23.9193  -10.4861  -15.4561 C   0  0  0  0  0  0  0  0  0  0  0  0
   22.8389   -9.5921  -15.8488 C   0  0  0  0  0  0  0  0  0  0  0  0
   22.5311   -9.6081  -17.0913 O   0  0  0  0  0  0  0  0  0  0  0  0
   22.1054   -8.7198  -15.0074 N   0  0  0  0  0  0  0  0  0  0  0  0
   21.0010   -7.9425  -15.5437 C   0  0  1  0  0  0  0  0  0  0  0  0
   19.6856   -8.3706  -14.9312 C   0  0  0  0  0  0  0  0  0  0  0  0
   19.4046   -9.7914  -15.1924 C   0  0  0  0  0  0  0  0  0  0  0  0
   19.9257  -10.9158  -14.5982 C   0  0  0  0  0  0  0  0  0  0  0  0
   19.3969  -12.0200  -15.1518 N   0  0  0  0  0  0  0  0  0  0  0  0
   18.5383  -11.6104  -16.0993 C   0  0  0  0  0  0  0  0  0  0  0  0
   18.5483  -10.2529  -16.1182 N   0  0  0  0  0  0  0  0  0  0  0  0
   21.2574   -6.4884  -15.4091 C   0  0  0  0  0  0  0  0  0  0  0  0
   20.3200   -5.5728  -15.9295 O   0  0  0  0  0  0  0  0  0  0  0  0
   22.2682   -5.9953  -14.8546 O   0  0  0  0  0  0  0  0  0  0  0  0
  2  1  1  1
  3  2  1  0
  4  3  1  0
  5  6  1  0
  5  4  1  0
  7  6  1  0
  8  2  1  0
  8 10  1  0
  9  8  2  0
 11 10  1  0
 12 11  1  0
 13 12  2  0
 14 12  1  0
 15 14  1  0
 15 16  1  1
 17 18  2  0
 17 16  1  0
 19 18  1  0
 20 21  2  0
 20 19  1  0
 21 17  1  0
 22 15  1  0
 23 22  1  0
 24 22  2  0
M  END
$$$$
