KGH.pdb
     RDKit          3D

 24 24  0  0  1  0  0  0  0  0999 V2000
   28.5164  -29.9931  -17.8224 N   0  0  0  0  0  0  0  0  0  0  0  0
   28.1404  -31.3625  -17.6490 C   0  0  1  0  0  0  0  0  0  0  0  0
   28.6599  -31.8930  -16.3535 C   0  0  0  0  0  0  0  0  0  0  0  0
   30.1323  -31.8954  -16.2206 C   0  0  0  0  0  0  0  0  0  0  0  0
   30.8006  -33.1199  -16.7260 C   0  0  0  0  0  0  0  0  0  0  0  0
   32.3005  -33.1354  -16.4687 C   0  0  0  0  0  0  0  0  0  0  0  0
   32.8626  -34.3434  -17.0207 N   0  0  0  0  0  0  0  0  0  0  0  0
   26.6698  -31.5704  -17.7432 C   0  0  0  0  0  0  0  0  0  0  0  0
   26.2697  -32.7621  -17.6922 O   0  0  0  0  0  0  0  0  0  0  0  0
   25.7357  -30.4944  -17.8848 N   0  0  0  0  0  0  0  0  0  0  0  0
   24.3731  -30.8589  -18.0949 C   0  0  0  0  0  0  0  0  0  0  0  0
   23.5180  -30.8845  -16.9163 C   0  0  0  0  0  0  0  0  0  0  0  0
   23.1130  -29.7431  -16.5013 O   0  0  0  0  0  0  0  0  0  0  0  0
   23.0956  -32.0275  -16.1938 N   0  0  0  0  0  0  0  0  0  0  0  0
   22.1013  -31.9020  -15.1416 C   0  0  1  0  0  0  0  0  0  0  0  0
   20.7018  -32.0664  -15.6922 C   0  0  0  0  0  0  0  0  0  0  0  0
   19.6875  -31.9591  -14.6313 C   0  0  0  0  0  0  0  0  0  0  0  0
   19.4746  -30.9574  -13.7147 C   0  0  0  0  0  0  0  0  0  0  0  0
   18.4406  -31.2717  -12.9163 N   0  0  0  0  0  0  0  0  0  0  0  0
   17.9880  -32.4711  -13.3155 C   0  0  0  0  0  0  0  0  0  0  0  0
   18.7518  -32.8831  -14.3597 N   0  0  0  0  0  0  0  0  0  0  0  0
   22.3946  -32.8243  -14.0182 C   0  0  0  0  0  0  0  0  0  0  0  0
   23.5432  -33.6397  -14.0788 O   0  0  0  0  0  0  0  0  0  0  0  0
   21.6837  -32.9396  -12.9918 O   0  0  0  0  0  0  0  0  0  0  0  0
  2  1  1  1
  3  2  1  0
  4  3  1  0
  5  6  1  0
  5  4  1  0
  7  6  1  0
  8  2  1  0
  8 10  1  0
  9  8  2  0
 11 10  1  0
 12 11  1  0
 13 12  2  0
 14 12  1  0
 15 14  1  0
 15 16  1  6
 17 18  2  0
 17 16  1  0
 19 18  1  0
 20 21  2  0
 20 19  1  0
 21 17  1  0
 22 15  1  0
 23 22  1  0
 24 22  2  0
M  END
$$$$
