GQA.pdb
     RDKit          3D

 19 18  0  0  1  0  0  0  0  0999 V2000
   27.2029  -12.2534  -16.8937 N   0  0  0  0  0  0  0  0  0  0  0  0
   26.6685  -11.7528  -15.6576 C   0  0  0  0  0  0  0  0  0  0  0  0
   25.4376  -10.9800  -15.9804 C   0  0  0  0  0  0  0  0  0  0  0  0
   25.0766  -10.9398  -17.1916 O   0  0  0  0  0  0  0  0  0  0  0  0
   19.4486  -10.2036  -17.2873 N   0  0  0  0  0  0  0  0  0  0  0  0
   20.3498  -10.7220  -16.3226 C   0  0  0  0  0  0  0  0  0  0  0  0
   20.6729  -11.9314  -16.3362 O   0  0  0  0  0  0  0  0  0  0  0  0
   20.9506   -9.8428  -15.2492 C   0  0  0  0  0  0  0  0  0  0  0  0
   22.2598  -10.4063  -14.8067 C   0  0  0  0  0  0  0  0  0  0  0  0
   23.4229   -9.6729  -15.4192 C   0  0  2  0  0  0  0  0  0  0  0  0
   24.6789  -10.3055  -14.9924 N   0  0  0  0  0  0  0  0  0  0  0  0
   23.4441   -8.2382  -15.1288 C   0  0  0  0  0  0  0  0  0  0  0  0
   23.9227   -7.8144  -14.0531 O   0  0  0  0  0  0  0  0  0  0  0  0
   22.4055   -4.9842  -16.7809 C   0  0  0  0  0  0  0  0  0  0  0  0
   23.0130   -5.8539  -15.6779 C   0  0  2  0  0  0  0  0  0  0  0  0
   22.9351   -7.2542  -16.0267 N   0  0  0  0  0  0  0  0  0  0  0  0
   22.2495   -5.5705  -14.4494 C   0  0  0  0  0  0  0  0  0  0  0  0
   21.2298   -6.2558  -14.1822 O   0  0  0  0  0  0  0  0  0  0  0  0
   22.6726   -4.5546  -13.6156 O   0  0  0  0  0  0  0  0  0  0  0  0
  1  2  1  0
  2  3  1  0
  3 11  1  0
  3  4  2  0
  5  6  1  0
  6  7  2  0
  8  9  1  0
  8  6  1  0
 10  9  1  1
 11 10  1  0
 12 10  1  0
 12 16  1  0
 13 12  2  0
 15 16  1  0
 15 17  1  0
 15 14  1  6
 17 19  1  0
 18 17  2  0
M  END
$$$$
