GQA.pdb
     RDKit          3D

 19 18  0  0  1  0  0  0  0  0999 V2000
   26.7009  -11.4045  -16.1631 N   0  0  0  0  0  0  0  0  0  0  0  0
   25.6792  -11.2699  -15.1620 C   0  0  0  0  0  0  0  0  0  0  0  0
   24.5813  -10.4522  -15.7473 C   0  0  0  0  0  0  0  0  0  0  0  0
   24.7478  -10.0083  -16.9195 O   0  0  0  0  0  0  0  0  0  0  0  0
   18.0337  -10.7356  -15.7963 N   0  0  0  0  0  0  0  0  0  0  0  0
   18.8722  -10.0872  -16.7387 C   0  0  0  0  0  0  0  0  0  0  0  0
   18.7124  -10.2697  -17.9669 O   0  0  0  0  0  0  0  0  0  0  0  0
   19.9824   -9.1583  -16.3016 C   0  0  0  0  0  0  0  0  0  0  0  0
   21.0245   -9.9277  -15.5604 C   0  0  0  0  0  0  0  0  0  0  0  0
   22.3916   -9.3179  -15.7183 C   0  0  2  0  0  0  0  0  0  0  0  0
   23.3854  -10.1653  -15.0444 N   0  0  0  0  0  0  0  0  0  0  0  0
   22.4873   -7.9359  -15.2451 C   0  0  0  0  0  0  0  0  0  0  0  0
   22.6318   -7.6897  -14.0268 O   0  0  0  0  0  0  0  0  0  0  0  0
   22.5628   -4.4273  -16.6761 C   0  0  0  0  0  0  0  0  0  0  0  0
   22.4425   -5.4726  -15.5647 C   0  0  2  0  0  0  0  0  0  0  0  0
   22.4242   -6.8083  -16.1159 N   0  0  0  0  0  0  0  0  0  0  0  0
   21.1904   -5.1793  -14.8443 C   0  0  0  0  0  0  0  0  0  0  0  0
   20.1507   -5.8301  -15.1199 O   0  0  0  0  0  0  0  0  0  0  0  0
   21.1870   -4.1924  -13.8787 O   0  0  0  0  0  0  0  0  0  0  0  0
  1  2  1  0
  2  3  1  0
  3 11  1  0
  3  4  2  0
  5  6  1  0
  6  7  2  0
  8  9  1  0
  8  6  1  0
 10  9  1  1
 11 10  1  0
 12 10  1  0
 12 16  1  0
 13 12  2  0
 15 16  1  0
 15 17  1  0
 15 14  1  6
 17 19  1  0
 18 17  2  0
M  END
$$$$
