GQA.pdb
     RDKit          3D

 19 18  0  0  1  0  0  0  0  0999 V2000
   15.9120  -13.1404  -16.0837 N   0  0  0  0  0  0  0  0  0  0  0  0
   16.1755  -12.0233  -16.9479 C   0  0  0  0  0  0  0  0  0  0  0  0
   16.6567  -10.9005  -16.0968 C   0  0  0  0  0  0  0  0  0  0  0  0
   15.9231  -10.5480  -15.1291 O   0  0  0  0  0  0  0  0  0  0  0  0
   22.4785   -9.1715  -14.7207 N   0  0  0  0  0  0  0  0  0  0  0  0
   21.6808   -8.2736  -13.9663 C   0  0  0  0  0  0  0  0  0  0  0  0
   22.2055   -7.4964  -13.1369 O   0  0  0  0  0  0  0  0  0  0  0  0
   20.1788   -8.2197  -14.1323 C   0  0  0  0  0  0  0  0  0  0  0  0
   19.7421   -9.2425  -15.1275 C   0  0  0  0  0  0  0  0  0  0  0  0
   18.2641   -9.1638  -15.4023 C   0  0  2  0  0  0  0  0  0  0  0  0
   17.8831  -10.2331  -16.3357 N   0  0  0  0  0  0  0  0  0  0  0  0
   17.8179   -7.8617  -15.9006 C   0  0  0  0  0  0  0  0  0  0  0  0
   18.0035   -7.5409  -17.0958 O   0  0  0  0  0  0  0  0  0  0  0  0
   15.3345   -5.2644  -15.1167 C   0  0  0  0  0  0  0  0  0  0  0  0
   16.7138   -5.6496  -15.6565 C   0  0  2  0  0  0  0  0  0  0  0  0
   17.1602   -6.8977  -15.0810 N   0  0  0  0  0  0  0  0  0  0  0  0
   17.6268   -4.5472  -15.3046 C   0  0  0  0  0  0  0  0  0  0  0  0
   18.6192   -4.7767  -14.5677 O   0  0  0  0  0  0  0  0  0  0  0  0
   17.3711   -3.2818  -15.7940 O   0  0  0  0  0  0  0  0  0  0  0  0
  1  2  1  0
  2  3  1  0
  3 11  1  0
  3  4  2  0
  5  6  1  0
  6  7  2  0
  8  9  1  0
  8  6  1  0
 10  9  1  6
 11 10  1  0
 12 10  1  0
 12 16  1  0
 13 12  2  0
 15 16  1  0
 15 17  1  0
 15 14  1  1
 17 19  1  0
 18 17  2  0
M  END
$$$$
