GQA.pdb
     RDKit          3D

 19 18  0  0  1  0  0  0  0  0999 V2000
   24.6017  -11.6965  -16.9355 N   0  0  0  0  0  0  0  0  0  0  0  0
   23.9316  -11.3207  -15.7214 C   0  0  0  0  0  0  0  0  0  0  0  0
   23.1589  -10.0790  -16.0005 C   0  0  0  0  0  0  0  0  0  0  0  0
   23.2534   -9.5830  -17.1598 O   0  0  0  0  0  0  0  0  0  0  0  0
   18.3507  -10.2026  -13.8934 N   0  0  0  0  0  0  0  0  0  0  0  0
   18.7031  -10.5407  -15.2249 C   0  0  0  0  0  0  0  0  0  0  0  0
   18.2761  -11.5938  -15.7502 O   0  0  0  0  0  0  0  0  0  0  0  0
   19.6003   -9.6510  -16.0555 C   0  0  0  0  0  0  0  0  0  0  0  0
   20.1072   -8.5222  -15.2211 C   0  0  0  0  0  0  0  0  0  0  0  0
   21.5745   -8.2722  -15.4459 C   0  0  2  0  0  0  0  0  0  0  0  0
   22.3413   -9.4540  -15.0271 N   0  0  0  0  0  0  0  0  0  0  0  0
   22.0829   -7.0680  -14.7868 C   0  0  0  0  0  0  0  0  0  0  0  0
   22.4140   -7.0955  -13.5803 O   0  0  0  0  0  0  0  0  0  0  0  0
   23.0308   -3.5136  -15.6903 C   0  0  0  0  0  0  0  0  0  0  0  0
   22.7351   -4.6714  -14.7341 C   0  0  2  0  0  0  0  0  0  0  0  0
   22.2312   -5.8175  -15.4559 N   0  0  0  0  0  0  0  0  0  0  0  0
   21.7401   -4.1750  -13.7665 C   0  0  0  0  0  0  0  0  0  0  0  0
   22.0824   -3.3212  -12.9095 O   0  0  0  0  0  0  0  0  0  0  0  0
   20.4489   -4.6606  -13.8229 O   0  0  0  0  0  0  0  0  0  0  0  0
  1  2  1  0
  2  3  1  0
  3 11  1  0
  3  4  2  0
  5  6  1  0
  6  7  2  0
  8  9  1  0
  8  6  1  0
 10  9  1  1
 11 10  1  0
 12 10  1  0
 12 16  1  0
 13 12  2  0
 15 16  1  0
 15 17  1  0
 15 14  1  6
 17 19  1  0
 18 17  2  0
M  END
$$$$
