GQA.pdb
     RDKit          3D

 19 18  0  0  1  0  0  0  0  0999 V2000
   14.4693  -12.3973  -11.1942 N   0  0  0  0  0  0  0  0  0  0  0  0
   15.8261  -12.1045  -10.8233 C   0  0  0  0  0  0  0  0  0  0  0  0
   16.0684  -10.6630  -11.1067 C   0  0  0  0  0  0  0  0  0  0  0  0
   15.6857  -10.2179  -12.2267 O   0  0  0  0  0  0  0  0  0  0  0  0
   15.5824   -5.7256   -7.5135 N   0  0  0  0  0  0  0  0  0  0  0  0
   15.8496   -5.1915   -8.7999 C   0  0  0  0  0  0  0  0  0  0  0  0
   15.6665   -3.9759   -9.0368 O   0  0  0  0  0  0  0  0  0  0  0  0
   16.3617   -6.0609   -9.9260 C   0  0  0  0  0  0  0  0  0  0  0  0
   16.3663   -7.4912   -9.5000 C   0  0  0  0  0  0  0  0  0  0  0  0
   16.8901   -8.3979  -10.5814 C   0  0  2  0  0  0  0  0  0  0  0  0
   16.7001   -9.7986  -10.1792 N   0  0  0  0  0  0  0  0  0  0  0  0
   18.2869   -8.1507  -10.9432 C   0  0  0  0  0  0  0  0  0  0  0  0
   19.2089   -8.4253  -10.1429 O   0  0  0  0  0  0  0  0  0  0  0  0
   20.3532   -8.1844  -13.8870 C   0  0  0  0  0  0  0  0  0  0  0  0
   20.0824   -7.5144  -12.5380 C   0  0  2  0  0  0  0  0  0  0  0  0
   18.6806   -7.5960  -12.1965 N   0  0  0  0  0  0  0  0  0  0  0  0
   20.5149   -6.1115  -12.6701 C   0  0  0  0  0  0  0  0  0  0  0  0
   19.6522   -5.1972  -12.6921 O   0  0  0  0  0  0  0  0  0  0  0  0
   21.8633   -5.8312  -12.7671 O   0  0  0  0  0  0  0  0  0  0  0  0
  1  2  1  0
  2  3  1  0
  3 11  1  0
  3  4  2  0
  5  6  1  0
  6  7  2  0
  8  9  1  0
  8  6  1  0
 10  9  1  1
 11 10  1  0
 12 10  1  0
 12 16  1  0
 13 12  2  0
 15 16  1  0
 15 17  1  0
 15 14  1  6
 17 19  1  0
 18 17  2  0
M  END
$$$$
