GQA.pdb
     RDKit          3D

 19 18  0  0  1  0  0  0  0  0999 V2000
   21.7851  -12.2978  -19.6301 N   0  0  0  0  0  0  0  0  0  0  0  0
   21.6153  -10.8746  -19.5307 C   0  0  0  0  0  0  0  0  0  0  0  0
   22.0801  -10.4598  -18.1785 C   0  0  0  0  0  0  0  0  0  0  0  0
   21.3832  -10.8216  -17.1873 O   0  0  0  0  0  0  0  0  0  0  0  0
   27.5295  -10.6252  -15.7342 N   0  0  0  0  0  0  0  0  0  0  0  0
   26.5176  -11.6019  -15.9175 C   0  0  0  0  0  0  0  0  0  0  0  0
   26.7840  -12.8217  -15.8261 O   0  0  0  0  0  0  0  0  0  0  0  0
   25.0899  -11.2124  -16.2279 C   0  0  0  0  0  0  0  0  0  0  0  0
   24.9651   -9.7255  -16.2563 C   0  0  0  0  0  0  0  0  0  0  0  0
   23.5672   -9.2855  -16.6000 C   0  0  2  0  0  0  0  0  0  0  0  0
   23.2522   -9.6903  -17.9772 N   0  0  0  0  0  0  0  0  0  0  0  0
   23.3303   -7.8525  -16.4172 C   0  0  0  0  0  0  0  0  0  0  0  0
   24.0494   -7.0100  -16.9995 O   0  0  0  0  0  0  0  0  0  0  0  0
   20.8455   -5.3738  -15.8377 C   0  0  0  0  0  0  0  0  0  0  0  0
   22.1975   -5.9098  -15.3613 C   0  0  2  0  0  0  0  0  0  0  0  0
   22.2934   -7.3340  -15.5867 N   0  0  0  0  0  0  0  0  0  0  0  0
   22.2939   -5.5929  -13.9250 C   0  0  0  0  0  0  0  0  0  0  0  0
   22.1999   -6.5184  -13.0792 O   0  0  0  0  0  0  0  0  0  0  0  0
   22.4861   -4.2814  -13.5385 O   0  0  0  0  0  0  0  0  0  0  0  0
  1  2  1  0
  2  3  1  0
  3 11  1  0
  3  4  2  0
  5  6  1  0
  6  7  2  0
  8  9  1  0
  8  6  1  0
 10  9  1  6
 11 10  1  0
 12 10  1  0
 12 16  1  0
 13 12  2  0
 15 16  1  0
 15 17  1  0
 15 14  1  1
 17 19  1  0
 18 17  2  0
M  END
$$$$
