GQA.pdb
     RDKit          3D

 19 18  0  0  1  0  0  0  0  0999 V2000
   20.8026   -9.9157  -20.3079 N   0  0  0  0  0  0  0  0  0  0  0  0
   21.4979   -9.9992  -19.0534 C   0  0  0  0  0  0  0  0  0  0  0  0
   20.8310   -9.0633  -18.1068 C   0  0  0  0  0  0  0  0  0  0  0  0
   19.9256   -8.3128  -18.5715 O   0  0  0  0  0  0  0  0  0  0  0  0
   18.2834  -10.1979  -12.8576 N   0  0  0  0  0  0  0  0  0  0  0  0
   18.1838   -8.7832  -12.8767 C   0  0  0  0  0  0  0  0  0  0  0  0
   17.4632   -8.1831  -12.0473 O   0  0  0  0  0  0  0  0  0  0  0  0
   18.9369   -7.9513  -13.8900 C   0  0  0  0  0  0  0  0  0  0  0  0
   19.7139   -8.8427  -14.8005 C   0  0  0  0  0  0  0  0  0  0  0  0
   20.4039   -8.0680  -15.8911 C   0  0  2  0  0  0  0  0  0  0  0  0
   21.1747   -8.9923  -16.7344 N   0  0  0  0  0  0  0  0  0  0  0  0
   21.2564   -6.9820  -15.4045 C   0  0  0  0  0  0  0  0  0  0  0  0
   22.3634   -7.2307  -14.8766 O   0  0  0  0  0  0  0  0  0  0  0  0
   21.2489   -3.1931  -15.2636 C   0  0  0  0  0  0  0  0  0  0  0  0
   21.7475   -4.5968  -14.9125 C   0  0  2  0  0  0  0  0  0  0  0  0
   20.8935   -5.6059  -15.4963 N   0  0  0  0  0  0  0  0  0  0  0  0
   21.7469   -4.6884  -13.4414 C   0  0  0  0  0  0  0  0  0  0  0  0
   20.8443   -5.3447  -12.8624 O   0  0  0  0  0  0  0  0  0  0  0  0
   22.7415   -4.0488  -12.7287 O   0  0  0  0  0  0  0  0  0  0  0  0
  1  2  1  0
  2  3  1  0
  3 11  1  0
  3  4  2  0
  5  6  1  0
  6  7  2  0
  8  9  1  0
  8  6  1  0
 10  9  1  1
 11 10  1  0
 12 10  1  0
 12 16  1  0
 13 12  2  0
 15 16  1  0
 15 17  1  0
 15 14  1  1
 17 19  1  0
 18 17  2  0
M  END
$$$$
