YKK.pdb
     RDKit          3D

 31 31  0  0  1  0  0  0  0  0999 V2000
    9.1284  -12.3981   17.1258 O   0  0  0  0  0  0  0  0  0  0  0  0
    8.6623  -13.0231   18.2878 C   0  0  0  0  0  0  0  0  0  0  0  0
    7.4580  -12.6295   18.8218 C   0  0  0  0  0  0  0  0  0  0  0  0
    6.9753  -13.2295   19.9667 C   0  0  0  0  0  0  0  0  0  0  0  0
    7.6572  -14.2310   20.6206 C   0  0  0  0  0  0  0  0  0  0  0  0
    7.1347  -14.8390   21.8439 C   0  0  0  0  0  0  0  0  0  0  0  0
    6.5827  -16.2425   21.5984 C   0  0  2  0  0  0  0  0  0  0  0  0
    5.3357  -16.1937   20.8978 N   0  0  0  0  0  0  0  0  0  0  0  0
    6.4159  -16.9491   22.9126 C   0  0  0  0  0  0  0  0  0  0  0  0
    5.4603  -16.7416   23.6784 O   0  0  0  0  0  0  0  0  0  0  0  0
    8.8590  -14.6162   20.0792 C   0  0  0  0  0  0  0  0  0  0  0  0
    9.3659  -14.0220   18.9206 C   0  0  0  0  0  0  0  0  0  0  0  0
    7.3979  -17.8963   23.2875 N   0  0  0  0  0  0  0  0  0  0  0  0
    7.2826  -18.6476   24.5875 C   0  0  1  0  0  0  0  0  0  0  0  0
    7.3252  -20.0904   24.2631 C   0  0  0  0  0  0  0  0  0  0  0  0
    7.3417  -21.1602   25.2337 C   0  0  0  0  0  0  0  0  0  0  0  0
    7.3759  -22.5903   24.8851 C   0  0  0  0  0  0  0  0  0  0  0  0
    7.4337  -23.5220   26.0852 C   0  0  0  0  0  0  0  0  0  0  0  0
    7.4561  -24.9067   25.6757 N   0  0  0  0  0  0  0  0  0  0  0  0
    8.4464  -18.2069   25.3835 C   0  0  0  0  0  0  0  0  0  0  0  0
    9.6389  -18.1875   24.9193 O   0  0  0  0  0  0  0  0  0  0  0  0
    8.3850  -17.7543   26.7455 N   0  0  0  0  0  0  0  0  0  0  0  0
    9.5962  -17.4358   27.5155 C   0  0  1  0  0  0  0  0  0  0  0  0
    9.2784  -16.3904   28.5652 C   0  0  0  0  0  0  0  0  0  0  0  0
   10.5370  -16.0983   29.3389 C   0  0  0  0  0  0  0  0  0  0  0  0
   10.3828  -15.0648   30.4117 C   0  0  0  0  0  0  0  0  0  0  0  0
   11.7089  -14.8550   31.1110 C   0  0  0  0  0  0  0  0  0  0  0  0
   11.5118  -13.7925   32.0996 N   0  0  0  0  0  0  0  0  0  0  0  0
   10.1751  -18.6537   28.1021 C   0  0  0  0  0  0  0  0  0  0  0  0
    9.3886  -19.4966   28.6474 O   0  0  0  0  0  0  0  0  0  0  0  0
   11.5121  -18.9949   28.1264 O   0  0  0  0  0  0  0  0  0  0  0  0
  2 12  2  0
  2  1  1  0
  3  2  1  0
  4  5  1  0
  4  3  2  0
  5 11  2  0
  6  5  1  0
  7  8  1  1
  7  6  1  0
  9  7  1  0
 10  9  2  0
 11 12  1  0
 13  9  1  0
 14 20  1  0
 14 13  1  0
 14 15  1  6
 16 15  1  0
 17 16  1  0
 18 17  1  0
 19 18  1  0
 20 21  2  0
 22 23  1  0
 22 20  1  0
 23 24  1  1
 24 25  1  0
 25 26  1  0
 26 27  1  0
 28 27  1  0
 29 31  1  0
 29 23  1  0
 30 29  2  0
M  END
$$$$
