YKK.pdb
     RDKit          3D

 31 31  0  0  1  0  0  0  0  0999 V2000
    5.1245  -10.8609   28.4233 O   0  0  0  0  0  0  0  0  0  0  0  0
    5.8190  -11.8507   27.7190 C   0  0  0  0  0  0  0  0  0  0  0  0
    5.4329  -12.1532   26.4345 C   0  0  0  0  0  0  0  0  0  0  0  0
    6.1009  -13.1248   25.7179 C   0  0  0  0  0  0  0  0  0  0  0  0
    7.1648  -13.8272   26.2378 C   0  0  0  0  0  0  0  0  0  0  0  0
    7.8453  -14.8665   25.4659 C   0  0  0  0  0  0  0  0  0  0  0  0
    6.8691  -15.6982   24.6351 C   0  0  2  0  0  0  0  0  0  0  0  0
    6.5561  -16.9336   25.2863 N   0  0  0  0  0  0  0  0  0  0  0  0
    7.4631  -15.9577   23.2808 C   0  0  0  0  0  0  0  0  0  0  0  0
    7.8284  -17.0835   22.9042 O   0  0  0  0  0  0  0  0  0  0  0  0
    7.5418  -13.5176   27.5215 C   0  0  0  0  0  0  0  0  0  0  0  0
    6.8794  -12.5372   28.2646 C   0  0  0  0  0  0  0  0  0  0  0  0
    7.6083  -14.8620   22.3974 N   0  0  0  0  0  0  0  0  0  0  0  0
    8.1489  -15.0641   21.0065 C   0  0  1  0  0  0  0  0  0  0  0  0
    8.0249  -13.7713   20.2979 C   0  0  0  0  0  0  0  0  0  0  0  0
    8.5103  -13.5052   18.9635 C   0  0  0  0  0  0  0  0  0  0  0  0
    8.1205  -14.2799   17.7737 C   0  0  0  0  0  0  0  0  0  0  0  0
    8.8139  -13.8440   16.4929 C   0  0  0  0  0  0  0  0  0  0  0  0
    8.3562  -14.6125   15.3590 N   0  0  0  0  0  0  0  0  0  0  0  0
    9.5542  -15.4749   21.2029 C   0  0  0  0  0  0  0  0  0  0  0  0
   10.2856  -15.0200   22.1494 O   0  0  0  0  0  0  0  0  0  0  0  0
   10.2574  -16.4156   20.3757 N   0  0  0  0  0  0  0  0  0  0  0  0
   11.5650  -16.9661   20.7610 C   0  0  1  0  0  0  0  0  0  0  0  0
   11.4808  -18.4762   20.8518 C   0  0  0  0  0  0  0  0  0  0  0  0
   12.8506  -19.0078   21.1820 C   0  0  0  0  0  0  0  0  0  0  0  0
   12.9331  -20.5001   21.2777 C   0  0  0  0  0  0  0  0  0  0  0  0
   14.3245  -20.9063   21.7139 C   0  0  0  0  0  0  0  0  0  0  0  0
   14.2275  -22.2630   22.2569 N   0  0  0  0  0  0  0  0  0  0  0  0
   12.6114  -16.5233   19.8277 C   0  0  0  0  0  0  0  0  0  0  0  0
   12.3000  -16.3581   18.6020 O   0  0  0  0  0  0  0  0  0  0  0  0
   13.9290  -16.2579   20.1411 O   0  0  0  0  0  0  0  0  0  0  0  0
  2 12  2  0
  2  1  1  0
  3  2  1  0
  4  5  1  0
  4  3  2  0
  5 11  2  0
  6  5  1  0
  7  8  1  1
  7  6  1  0
  9  7  1  0
 10  9  2  0
 11 12  1  0
 13  9  1  0
 14 20  1  0
 14 13  1  0
 14 15  1  6
 16 15  1  0
 17 16  1  0
 18 17  1  0
 19 18  1  0
 20 21  2  0
 22 23  1  0
 22 20  1  0
 23 24  1  6
 24 25  1  0
 25 26  1  0
 26 27  1  0
 28 27  1  0
 29 31  1  0
 29 23  1  0
 30 29  2  0
M  END
$$$$
