YKK.pdb
     RDKit          3D

 31 31  0  0  1  0  0  0  0  0999 V2000
    8.5806  -12.9984   16.9922 O   0  0  0  0  0  0  0  0  0  0  0  0
    8.2728  -13.5639   18.2345 C   0  0  0  0  0  0  0  0  0  0  0  0
    7.2097  -13.0666   18.9508 C   0  0  0  0  0  0  0  0  0  0  0  0
    6.8845  -13.6062   20.1784 C   0  0  0  0  0  0  0  0  0  0  0  0
    7.5901  -14.6471   20.7390 C   0  0  0  0  0  0  0  0  0  0  0  0
    7.2386  -15.1901   22.0507 C   0  0  0  0  0  0  0  0  0  0  0  0
    6.8102  -16.6547   21.9710 C   0  0  2  0  0  0  0  0  0  0  0  0
    5.4944  -16.7808   21.4223 N   0  0  0  0  0  0  0  0  0  0  0  0
    6.8649  -17.2650   23.3417 C   0  0  0  0  0  0  0  0  0  0  0  0
    5.9749  -17.1033   24.1928 O   0  0  0  0  0  0  0  0  0  0  0  0
    8.6501  -15.1359   20.0157 C   0  0  0  0  0  0  0  0  0  0  0  0
    8.9963  -14.6043   18.7707 C   0  0  0  0  0  0  0  0  0  0  0  0
    7.9867  -18.0624   23.6702 N   0  0  0  0  0  0  0  0  0  0  0  0
    8.1400  -18.6388   25.0529 C   0  0  1  0  0  0  0  0  0  0  0  0
    8.6335  -20.0246   24.8959 C   0  0  0  0  0  0  0  0  0  0  0  0
    7.8021  -21.2059   24.8796 C   0  0  0  0  0  0  0  0  0  0  0  0
    6.5631  -21.3540   25.6612 C   0  0  0  0  0  0  0  0  0  0  0  0
    5.9161  -22.7251   25.5477 C   0  0  0  0  0  0  0  0  0  0  0  0
    4.7281  -22.8154   26.3639 N   0  0  0  0  0  0  0  0  0  0  0  0
    9.1176  -17.7574   25.7238 C   0  0  0  0  0  0  0  0  0  0  0  0
   10.2966  -17.5543   25.2696 O   0  0  0  0  0  0  0  0  0  0  0  0
    8.8708  -17.0344   26.9403 N   0  0  0  0  0  0  0  0  0  0  0  0
    9.8244  -16.0466   27.4661 C   0  0  1  0  0  0  0  0  0  0  0  0
    9.0739  -14.9076   28.1257 C   0  0  0  0  0  0  0  0  0  0  0  0
    8.4125  -14.0895   27.0480 C   0  0  0  0  0  0  0  0  0  0  0  0
    7.5556  -12.9701   27.5534 C   0  0  0  0  0  0  0  0  0  0  0  0
    6.8766  -12.2825   26.3882 C   0  0  0  0  0  0  0  0  0  0  0  0
    6.0410  -11.2159   26.9442 N   0  0  0  0  0  0  0  0  0  0  0  0
   10.7822  -16.6844   28.3816 C   0  0  0  0  0  0  0  0  0  0  0  0
   10.4267  -17.7506   28.9844 O   0  0  0  0  0  0  0  0  0  0  0  0
   12.0591  -16.2451   28.6665 O   0  0  0  0  0  0  0  0  0  0  0  0
  2 12  2  0
  2  1  1  0
  3  2  1  0
  4  5  1  0
  4  3  2  0
  5 11  2  0
  6  5  1  0
  7  8  1  1
  7  6  1  0
  9  7  1  0
 10  9  2  0
 11 12  1  0
 13  9  1  0
 14 20  1  0
 14 13  1  0
 14 15  1  6
 16 15  1  0
 17 16  1  0
 18 17  1  0
 19 18  1  0
 20 21  2  0
 22 23  1  0
 22 20  1  0
 23 24  1  1
 24 25  1  0
 25 26  1  0
 26 27  1  0
 28 27  1  0
 29 31  1  0
 29 23  1  0
 30 29  2  0
M  END
$$$$
