YKK.pdb
     RDKit          3D

 31 31  0  0  1  0  0  0  0  0999 V2000
    5.4843  -10.2024   28.2454 O   0  0  0  0  0  0  0  0  0  0  0  0
    6.0680  -11.2475   27.5207 C   0  0  0  0  0  0  0  0  0  0  0  0
    6.9645  -12.0786   28.1499 C   0  0  0  0  0  0  0  0  0  0  0  0
    7.5542  -13.1169   27.4585 C   0  0  0  0  0  0  0  0  0  0  0  0
    7.2833  -13.3707   26.1327 C   0  0  0  0  0  0  0  0  0  0  0  0
    7.9354  -14.4656   25.4151 C   0  0  0  0  0  0  0  0  0  0  0  0
    6.9249  -15.4357   24.8044 C   0  0  2  0  0  0  0  0  0  0  0  0
    6.5627  -16.4608   25.7352 N   0  0  0  0  0  0  0  0  0  0  0  0
    7.5059  -16.0421   23.5598 C   0  0  0  0  0  0  0  0  0  0  0  0
    7.8408  -17.2354   23.4787 O   0  0  0  0  0  0  0  0  0  0  0  0
    6.3869  -12.5345   25.5138 C   0  0  0  0  0  0  0  0  0  0  0  0
    5.7782  -11.4775   26.1954 C   0  0  0  0  0  0  0  0  0  0  0  0
    7.6748  -15.2073   22.4299 N   0  0  0  0  0  0  0  0  0  0  0  0
    8.2203  -15.7622   21.1406 C   0  0  1  0  0  0  0  0  0  0  0  0
    8.0248  -14.7265   20.1024 C   0  0  0  0  0  0  0  0  0  0  0  0
    8.3364  -14.8856   18.7008 C   0  0  0  0  0  0  0  0  0  0  0  0
    7.9981  -13.8977   17.6629 C   0  0  0  0  0  0  0  0  0  0  0  0
    8.3415  -14.3386   16.2489 C   0  0  0  0  0  0  0  0  0  0  0  0
    8.1994  -13.2509   15.3095 N   0  0  0  0  0  0  0  0  0  0  0  0
    9.6463  -16.0305   21.4177 C   0  0  0  0  0  0  0  0  0  0  0  0
   10.3382  -15.3334   22.2382 O   0  0  0  0  0  0  0  0  0  0  0  0
   10.4151  -17.0841   20.8155 N   0  0  0  0  0  0  0  0  0  0  0  0
   11.7638  -17.4311   21.2869 C   0  0  1  0  0  0  0  0  0  0  0  0
   11.7588  -18.8260   21.8782 C   0  0  0  0  0  0  0  0  0  0  0  0
   13.1707  -19.1824   22.2624 C   0  0  0  0  0  0  0  0  0  0  0  0
   13.3175  -20.5167   22.9265 C   0  0  0  0  0  0  0  0  0  0  0  0
   14.7514  -20.7089   23.3718 C   0  0  0  0  0  0  0  0  0  0  0  0
   14.8488  -22.0536   23.9439 N   0  0  0  0  0  0  0  0  0  0  0  0
   12.7461  -17.2914   20.2017 C   0  0  0  0  0  0  0  0  0  0  0  0
   13.9841  -17.2527   20.5060 O   0  0  0  0  0  0  0  0  0  0  0  0
   12.4684  -17.1968   18.8531 O   0  0  0  0  0  0  0  0  0  0  0  0
  2 12  2  0
  2  1  1  0
  3  2  1  0
  4  5  1  0
  4  3  2  0
  5 11  2  0
  6  5  1  0
  7  8  1  1
  7  6  1  0
  9  7  1  0
 10  9  2  0
 11 12  1  0
 13  9  1  0
 14 20  1  0
 14 13  1  0
 14 15  1  6
 16 15  1  0
 17 16  1  0
 18 17  1  0
 19 18  1  0
 20 21  2  0
 22 23  1  0
 22 20  1  0
 23 24  1  6
 24 25  1  0
 25 26  1  0
 26 27  1  0
 28 27  1  0
 29 31  1  0
 29 23  1  0
 30 29  2  0
M  END
$$$$
