YKK.pdb
     RDKit          3D

 31 31  0  0  1  0  0  0  0  0999 V2000
    5.0517  -10.3598   27.7300 O   0  0  0  0  0  0  0  0  0  0  0  0
    5.7993  -11.4338   27.2345 C   0  0  0  0  0  0  0  0  0  0  0  0
    5.5348  -11.9061   25.9706 C   0  0  0  0  0  0  0  0  0  0  0  0
    6.2574  -12.9639   25.4579 C   0  0  0  0  0  0  0  0  0  0  0  0
    7.2584  -13.5887   26.1673 C   0  0  0  0  0  0  0  0  0  0  0  0
    7.9979  -14.7209   25.6103 C   0  0  0  0  0  0  0  0  0  0  0  0
    7.0759  -15.7311   24.9289 C   0  0  2  0  0  0  0  0  0  0  0  0
    6.7782  -16.8291   25.7973 N   0  0  0  0  0  0  0  0  0  0  0  0
    7.7231  -16.2241   23.6670 C   0  0  0  0  0  0  0  0  0  0  0  0
    8.2596  -17.3401   23.5705 O   0  0  0  0  0  0  0  0  0  0  0  0
    7.5140  -13.1095   27.4285 C   0  0  0  0  0  0  0  0  0  0  0  0
    6.7945  -12.0395   27.9667 C   0  0  0  0  0  0  0  0  0  0  0  0
    7.7152  -15.3706   22.5385 N   0  0  0  0  0  0  0  0  0  0  0  0
    8.3801  -15.7905   21.2542 C   0  0  1  0  0  0  0  0  0  0  0  0
    8.0222  -14.7859   20.2287 C   0  0  0  0  0  0  0  0  0  0  0  0
    8.4387  -14.8252   18.8460 C   0  0  0  0  0  0  0  0  0  0  0  0
    8.0210  -13.8448   17.8301 C   0  0  0  0  0  0  0  0  0  0  0  0
    8.4809  -14.1763   16.4194 C   0  0  0  0  0  0  0  0  0  0  0  0
    7.9453  -13.2411   15.4580 N   0  0  0  0  0  0  0  0  0  0  0  0
    9.8248  -15.8017   21.5624 C   0  0  0  0  0  0  0  0  0  0  0  0
   10.3079  -15.3249   22.6474 O   0  0  0  0  0  0  0  0  0  0  0  0
   10.8430  -16.3385   20.7028 N   0  0  0  0  0  0  0  0  0  0  0  0
   12.0310  -17.0216   21.2353 C   0  0  1  0  0  0  0  0  0  0  0  0
   11.6070  -18.1832   22.1109 C   0  0  0  0  0  0  0  0  0  0  0  0
   12.8463  -18.8933   22.5883 C   0  0  0  0  0  0  0  0  0  0  0  0
   12.5890  -20.0350   23.5228 C   0  0  0  0  0  0  0  0  0  0  0  0
   13.9058  -20.6086   24.0007 C   0  0  0  0  0  0  0  0  0  0  0  0
   13.5915  -21.6637   24.9666 N   0  0  0  0  0  0  0  0  0  0  0  0
   12.9208  -17.4448   20.1438 C   0  0  0  0  0  0  0  0  0  0  0  0
   12.3949  -17.9046   19.0768 O   0  0  0  0  0  0  0  0  0  0  0  0
   14.3000  -17.3960   20.1464 O   0  0  0  0  0  0  0  0  0  0  0  0
  2 12  2  0
  2  1  1  0
  3  2  1  0
  4  5  1  0
  4  3  2  0
  5 11  2  0
  6  5  1  0
  7  8  1  1
  7  6  1  0
  9  7  1  0
 10  9  2  0
 11 12  1  0
 13  9  1  0
 14 20  1  0
 14 13  1  0
 14 15  1  6
 16 15  1  0
 17 16  1  0
 18 17  1  0
 19 18  1  0
 20 21  2  0
 22 23  1  0
 22 20  1  0
 23 24  1  6
 24 25  1  0
 25 26  1  0
 26 27  1  0
 28 27  1  0
 29 31  1  0
 29 23  1  0
 30 29  2  0
M  END
$$$$
