YKK.pdb
     RDKit          3D

 31 31  0  0  1  0  0  0  0  0999 V2000
    5.3231  -10.1715   27.8719 O   0  0  0  0  0  0  0  0  0  0  0  0
    5.9624  -11.3051   27.3578 C   0  0  0  0  0  0  0  0  0  0  0  0
    6.2195  -11.3739   26.0088 C   0  0  0  0  0  0  0  0  0  0  0  0
    6.8487  -12.4803   25.4761 C   0  0  0  0  0  0  0  0  0  0  0  0
    7.2438  -13.5497   26.2481 C   0  0  0  0  0  0  0  0  0  0  0  0
    7.8921  -14.7204   25.6581 C   0  0  0  0  0  0  0  0  0  0  0  0
    6.9122  -15.5795   24.8601 C   0  0  2  0  0  0  0  0  0  0  0  0
    6.4253  -16.6738   25.6436 N   0  0  0  0  0  0  0  0  0  0  0  0
    7.5897  -16.0862   23.6197 C   0  0  0  0  0  0  0  0  0  0  0  0
    8.1582  -17.1889   23.5590 O   0  0  0  0  0  0  0  0  0  0  0  0
    6.9819  -13.4710   27.5938 C   0  0  0  0  0  0  0  0  0  0  0  0
    6.3460  -12.3599   28.1538 C   0  0  0  0  0  0  0  0  0  0  0  0
    7.5734  -15.2624   22.4695 N   0  0  0  0  0  0  0  0  0  0  0  0
    8.3008  -15.6775   21.2179 C   0  0  1  0  0  0  0  0  0  0  0  0
    7.9932  -14.6694   20.1796 C   0  0  0  0  0  0  0  0  0  0  0  0
    8.4340  -14.7308   18.8053 C   0  0  0  0  0  0  0  0  0  0  0  0
    8.0079  -13.7867   17.7590 C   0  0  0  0  0  0  0  0  0  0  0  0
    8.4546  -14.1688   16.3569 C   0  0  0  0  0  0  0  0  0  0  0  0
    7.8271  -13.3344   15.3590 N   0  0  0  0  0  0  0  0  0  0  0  0
    9.7286  -15.6893   21.5967 C   0  0  0  0  0  0  0  0  0  0  0  0
   10.1719  -15.1217   22.6545 O   0  0  0  0  0  0  0  0  0  0  0  0
   10.7723  -16.3264   20.8426 N   0  0  0  0  0  0  0  0  0  0  0  0
   11.8635  -17.0655   21.4940 C   0  0  1  0  0  0  0  0  0  0  0  0
   11.2909  -18.1532   22.3798 C   0  0  0  0  0  0  0  0  0  0  0  0
   12.4347  -18.9445   22.9574 C   0  0  0  0  0  0  0  0  0  0  0  0
   12.0217  -20.1060   23.8079 C   0  0  0  0  0  0  0  0  0  0  0  0
   13.2506  -20.8480   24.2880 C   0  0  0  0  0  0  0  0  0  0  0  0
   12.7858  -21.9544   25.1276 N   0  0  0  0  0  0  0  0  0  0  0  0
   12.7999  -17.5994   20.4938 C   0  0  0  0  0  0  0  0  0  0  0  0
   12.3223  -18.0947   19.4200 O   0  0  0  0  0  0  0  0  0  0  0  0
   14.1764  -17.6224   20.5911 O   0  0  0  0  0  0  0  0  0  0  0  0
  2 12  2  0
  2  1  1  0
  3  2  1  0
  4  5  1  0
  4  3  2  0
  5 11  2  0
  6  5  1  0
  7  8  1  1
  7  6  1  0
  9  7  1  0
 10  9  2  0
 11 12  1  0
 13  9  1  0
 14 20  1  0
 14 13  1  0
 14 15  1  6
 16 15  1  0
 17 16  1  0
 18 17  1  0
 19 18  1  0
 20 21  2  0
 22 23  1  0
 22 20  1  0
 23 24  1  6
 24 25  1  0
 25 26  1  0
 26 27  1  0
 28 27  1  0
 29 31  1  0
 29 23  1  0
 30 29  2  0
M  END
$$$$
