YKK.pdb
     RDKit          3D

 31 31  0  0  1  0  0  0  0  0999 V2000
    5.5132  -10.7752   28.1912 O   0  0  0  0  0  0  0  0  0  0  0  0
    6.0630  -11.9194   27.6024 C   0  0  0  0  0  0  0  0  0  0  0  0
    5.3794  -12.5421   26.5848 C   0  0  0  0  0  0  0  0  0  0  0  0
    5.8993  -13.6717   25.9869 C   0  0  0  0  0  0  0  0  0  0  0  0
    7.1020  -14.2232   26.3678 C   0  0  0  0  0  0  0  0  0  0  0  0
    7.6239  -15.4326   25.7322 C   0  0  0  0  0  0  0  0  0  0  0  0
    6.6604  -15.9955   24.6883 C   0  0  2  0  0  0  0  0  0  0  0  0
    6.1262  -17.2569   25.1028 N   0  0  0  0  0  0  0  0  0  0  0  0
    7.3755  -16.1374   23.3757 C   0  0  0  0  0  0  0  0  0  0  0  0
    7.7300  -17.2333   22.9108 O   0  0  0  0  0  0  0  0  0  0  0  0
    7.7762  -13.5938   27.3851 C   0  0  0  0  0  0  0  0  0  0  0  0
    7.2678  -12.4488   28.0041 C   0  0  0  0  0  0  0  0  0  0  0  0
    7.6531  -14.9616   22.6392 N   0  0  0  0  0  0  0  0  0  0  0  0
    8.3671  -15.0358   21.3155 C   0  0  1  0  0  0  0  0  0  0  0  0
    8.2859  -13.6930   20.6998 C   0  0  0  0  0  0  0  0  0  0  0  0
    7.8369  -13.4217   19.3538 C   0  0  0  0  0  0  0  0  0  0  0  0
    8.3453  -14.1152   18.1587 C   0  0  0  0  0  0  0  0  0  0  0  0
    7.7937  -13.5798   16.8470 C   0  0  0  0  0  0  0  0  0  0  0  0
    8.3829  -14.2543   15.7141 N   0  0  0  0  0  0  0  0  0  0  0  0
    9.7512  -15.4259   21.6537 C   0  0  0  0  0  0  0  0  0  0  0  0
   10.4712  -14.7782   22.4903 O   0  0  0  0  0  0  0  0  0  0  0  0
   10.4440  -16.5557   21.0993 N   0  0  0  0  0  0  0  0  0  0  0  0
   11.8586  -16.8240   21.3963 C   0  0  1  0  0  0  0  0  0  0  0  0
   12.0060  -18.2119   21.9861 C   0  0  0  0  0  0  0  0  0  0  0  0
   10.6292  -18.7731   22.2258 C   0  0  0  0  0  0  0  0  0  0  0  0
   10.6114  -20.1701   22.7652 C   0  0  0  0  0  0  0  0  0  0  0  0
    9.1828  -20.5969   23.0267 C   0  0  0  0  0  0  0  0  0  0  0  0
    9.2218  -21.9989   23.4485 N   0  0  0  0  0  0  0  0  0  0  0  0
   12.6864  -16.6403   20.1950 C   0  0  0  0  0  0  0  0  0  0  0  0
   12.1003  -16.4640   19.0761 O   0  0  0  0  0  0  0  0  0  0  0  0
   14.0656  -16.6358   20.1440 O   0  0  0  0  0  0  0  0  0  0  0  0
  2 12  2  0
  2  1  1  0
  3  2  1  0
  4  5  1  0
  4  3  2  0
  5 11  2  0
  6  5  1  0
  7  8  1  1
  7  6  1  0
  9  7  1  0
 10  9  2  0
 11 12  1  0
 13  9  1  0
 14 20  1  0
 14 13  1  0
 14 15  1  1
 16 15  1  0
 17 16  1  0
 18 17  1  0
 19 18  1  0
 20 21  2  0
 22 23  1  0
 22 20  1  0
 23 24  1  6
 24 25  1  0
 25 26  1  0
 26 27  1  0
 28 27  1  0
 29 31  1  0
 29 23  1  0
 30 29  2  0
M  END
$$$$
