YKK.pdb
     RDKit          3D

 31 31  0  0  1  0  0  0  0  0999 V2000
    5.9488  -10.5957   28.6381 O   0  0  0  0  0  0  0  0  0  0  0  0
    6.4629  -11.6614   27.8910 C   0  0  0  0  0  0  0  0  0  0  0  0
    6.2620  -11.6830   26.5310 C   0  0  0  0  0  0  0  0  0  0  0  0
    6.7585  -12.7220   25.7708 C   0  0  0  0  0  0  0  0  0  0  0  0
    7.4651  -13.7683   26.3200 C   0  0  0  0  0  0  0  0  0  0  0  0
    7.9652  -14.8687   25.4966 C   0  0  0  0  0  0  0  0  0  0  0  0
    6.8533  -15.5301   24.6834 C   0  0  2  0  0  0  0  0  0  0  0  0
    6.3733  -16.7139   25.3287 N   0  0  0  0  0  0  0  0  0  0  0  0
    7.3664  -15.8554   23.3104 C   0  0  0  0  0  0  0  0  0  0  0  0
    7.7485  -16.9900   22.9797 O   0  0  0  0  0  0  0  0  0  0  0  0
    7.6596  -13.7371   27.6790 C   0  0  0  0  0  0  0  0  0  0  0  0
    7.1656  -12.6945   28.4673 C   0  0  0  0  0  0  0  0  0  0  0  0
    7.4117  -14.8141   22.3535 N   0  0  0  0  0  0  0  0  0  0  0  0
    7.9883  -15.0554   20.9835 C   0  0  1  0  0  0  0  0  0  0  0  0
    7.7956  -13.8129   20.2038 C   0  0  0  0  0  0  0  0  0  0  0  0
    8.1767  -13.6313   18.8223 C   0  0  0  0  0  0  0  0  0  0  0  0
    7.6281  -14.4173   17.7046 C   0  0  0  0  0  0  0  0  0  0  0  0
    8.2031  -14.0514   16.3455 C   0  0  0  0  0  0  0  0  0  0  0  0
    7.5674  -14.7998   15.2866 N   0  0  0  0  0  0  0  0  0  0  0  0
    9.4130  -15.3646   21.2218 C   0  0  0  0  0  0  0  0  0  0  0  0
   10.0776  -14.8711   22.1977 O   0  0  0  0  0  0  0  0  0  0  0  0
   10.2103  -16.2389   20.4071 N   0  0  0  0  0  0  0  0  0  0  0  0
   11.4838  -16.7994   20.8819 C   0  0  1  0  0  0  0  0  0  0  0  0
   11.2307  -18.0976   21.6208 C   0  0  0  0  0  0  0  0  0  0  0  0
   12.5594  -18.6766   22.0298 C   0  0  0  0  0  0  0  0  0  0  0  0
   12.4757  -20.0076   22.7111 C   0  0  0  0  0  0  0  0  0  0  0  0
   13.8664  -20.4822   23.0743 C   0  0  0  0  0  0  0  0  0  0  0  0
   13.7194  -21.7763   23.7440 N   0  0  0  0  0  0  0  0  0  0  0  0
   12.4255  -16.9702   19.7656 C   0  0  0  0  0  0  0  0  0  0  0  0
   11.9575  -17.2757   18.6192 O   0  0  0  0  0  0  0  0  0  0  0  0
   13.7973  -16.8307   19.8231 O   0  0  0  0  0  0  0  0  0  0  0  0
  2 12  2  0
  2  1  1  0
  3  2  1  0
  4  5  1  0
  4  3  2  0
  5 11  2  0
  6  5  1  0
  7  8  1  1
  7  6  1  0
  9  7  1  0
 10  9  2  0
 11 12  1  0
 13  9  1  0
 14 20  1  0
 14 13  1  0
 14 15  1  6
 16 15  1  0
 17 16  1  0
 18 17  1  0
 19 18  1  0
 20 21  2  0
 22 23  1  0
 22 20  1  0
 23 24  1  6
 24 25  1  0
 25 26  1  0
 26 27  1  0
 28 27  1  0
 29 31  1  0
 29 23  1  0
 30 29  2  0
M  END
$$$$
