YKK.pdb
     RDKit          3D

 31 31  0  0  1  0  0  0  0  0999 V2000
   10.2730  -13.8541   31.1861 O   0  0  0  0  0  0  0  0  0  0  0  0
   10.0845  -14.3263   29.8824 C   0  0  0  0  0  0  0  0  0  0  0  0
   10.4907  -15.6017   29.5677 C   0  0  0  0  0  0  0  0  0  0  0  0
   10.3163  -16.0919   28.2898 C   0  0  0  0  0  0  0  0  0  0  0  0
    9.7398  -15.3483   27.2847 C   0  0  0  0  0  0  0  0  0  0  0  0
    9.5829  -15.8825   25.9323 C   0  0  0  0  0  0  0  0  0  0  0  0
    8.1148  -15.9842   25.5206 C   0  0  2  0  0  0  0  0  0  0  0  0
    7.4097  -16.9198   26.3425 N   0  0  0  0  0  0  0  0  0  0  0  0
    8.0291  -16.3888   24.0773 C   0  0  0  0  0  0  0  0  0  0  0  0
    7.8238  -17.5578   23.7111 O   0  0  0  0  0  0  0  0  0  0  0  0
    9.3382  -14.0759   27.6095 C   0  0  0  0  0  0  0  0  0  0  0  0
    9.5052  -13.5600   28.8972 C   0  0  0  0  0  0  0  0  0  0  0  0
    8.1893  -15.3838   23.0943 N   0  0  0  0  0  0  0  0  0  0  0  0
    8.3124  -15.7472   21.6381 C   0  0  1  0  0  0  0  0  0  0  0  0
    8.0447  -14.5192   20.8576 C   0  0  0  0  0  0  0  0  0  0  0  0
    8.1778  -14.4002   19.4241 C   0  0  0  0  0  0  0  0  0  0  0  0
    7.8014  -13.2011   18.6571 C   0  0  0  0  0  0  0  0  0  0  0  0
    8.0180  -13.3284   17.1576 C   0  0  0  0  0  0  0  0  0  0  0  0
    7.8617  -12.0555   16.4935 N   0  0  0  0  0  0  0  0  0  0  0  0
    9.7002  -16.2298   21.4848 C   0  0  0  0  0  0  0  0  0  0  0  0
   10.6139  -16.0056   22.3523 O   0  0  0  0  0  0  0  0  0  0  0  0
   10.1844  -16.9946   20.3693 N   0  0  0  0  0  0  0  0  0  0  0  0
   11.5772  -17.4582   20.2891 C   0  0  1  0  0  0  0  0  0  0  0  0
   11.7875  -18.2352   19.0055 C   0  0  0  0  0  0  0  0  0  0  0  0
   13.2617  -18.2515   18.6980 C   0  0  0  0  0  0  0  0  0  0  0  0
   13.6322  -19.0154   17.4643 C   0  0  0  0  0  0  0  0  0  0  0  0
   15.1390  -19.0637   17.3284 C   0  0  0  0  0  0  0  0  0  0  0  0
   15.4400  -19.8808   16.1508 N   0  0  0  0  0  0  0  0  0  0  0  0
   12.5097  -16.3280   20.4132 C   0  0  0  0  0  0  0  0  0  0  0  0
   13.4855  -16.4338   21.2275 O   0  0  0  0  0  0  0  0  0  0  0  0
   12.4442  -15.1333   19.7253 O   0  0  0  0  0  0  0  0  0  0  0  0
  2 12  2  0
  2  1  1  0
  3  2  1  0
  4  5  1  0
  4  3  2  0
  5 11  2  0
  6  5  1  0
  7  8  1  1
  7  6  1  0
  9  7  1  0
 10  9  2  0
 11 12  1  0
 13  9  1  0
 14 20  1  0
 14 13  1  0
 14 15  1  6
 16 15  1  0
 17 16  1  0
 18 17  1  0
 19 18  1  0
 20 21  2  0
 22 23  1  0
 22 20  1  0
 23 24  1  6
 24 25  1  0
 25 26  1  0
 26 27  1  0
 28 27  1  0
 29 31  1  0
 29 23  1  0
 30 29  2  0
M  END
$$$$
