YKK.pdb
     RDKit          3D

 31 31  0  0  1  0  0  0  0  0999 V2000
    5.2964  -10.0431   27.2338 O   0  0  0  0  0  0  0  0  0  0  0  0
    5.9107  -11.2636   26.9318 C   0  0  0  0  0  0  0  0  0  0  0  0
    6.4490  -11.4497   25.6803 C   0  0  0  0  0  0  0  0  0  0  0  0
    7.0605  -12.6435   25.3566 C   0  0  0  0  0  0  0  0  0  0  0  0
    7.1624  -13.6879   26.2480 C   0  0  0  0  0  0  0  0  0  0  0  0
    7.7982  -14.9513   25.8759 C   0  0  0  0  0  0  0  0  0  0  0  0
    6.8718  -15.8389   25.0458 C   0  0  2  0  0  0  0  0  0  0  0  0
    6.4789  -17.0049   25.7769 N   0  0  0  0  0  0  0  0  0  0  0  0
    7.5655  -16.2300   23.7729 C   0  0  0  0  0  0  0  0  0  0  0  0
    8.1519  -17.3149   23.6251 O   0  0  0  0  0  0  0  0  0  0  0  0
    6.6211  -13.4917   27.4947 C   0  0  0  0  0  0  0  0  0  0  0  0
    5.9977  -12.2907   27.8432 C   0  0  0  0  0  0  0  0  0  0  0  0
    7.5435  -15.3136   22.6951 N   0  0  0  0  0  0  0  0  0  0  0  0
    8.2061  -15.6525   21.3859 C   0  0  1  0  0  0  0  0  0  0  0  0
    8.0830  -14.4638   20.5138 C   0  0  0  0  0  0  0  0  0  0  0  0
    8.6419  -14.3452   19.1870 C   0  0  0  0  0  0  0  0  0  0  0  0
    7.8857  -13.8827   18.0113 C   0  0  0  0  0  0  0  0  0  0  0  0
    8.6771  -13.9079   16.7133 C   0  0  0  0  0  0  0  0  0  0  0  0
    7.8412  -13.5839   15.5811 N   0  0  0  0  0  0  0  0  0  0  0  0
    9.6074  -15.9587   21.7393 C   0  0  0  0  0  0  0  0  0  0  0  0
   10.3168  -15.2012   22.4882 O   0  0  0  0  0  0  0  0  0  0  0  0
   10.3303  -17.1188   21.2976 N   0  0  0  0  0  0  0  0  0  0  0  0
   11.7676  -17.2863   21.5576 C   0  0  1  0  0  0  0  0  0  0  0  0
   12.0388  -18.6886   22.0631 C   0  0  0  0  0  0  0  0  0  0  0  0
   11.3557  -18.8522   23.3952 C   0  0  0  0  0  0  0  0  0  0  0  0
   11.4644  -20.2237   23.9867 C   0  0  0  0  0  0  0  0  0  0  0  0
   10.8552  -20.2305   25.3724 C   0  0  0  0  0  0  0  0  0  0  0  0
   10.8849  -21.6147   25.8498 N   0  0  0  0  0  0  0  0  0  0  0  0
   12.5542  -16.9668   20.3570 C   0  0  0  0  0  0  0  0  0  0  0  0
   12.0001  -17.1004   19.2161 O   0  0  0  0  0  0  0  0  0  0  0  0
   13.8612  -16.5246   20.3283 O   0  0  0  0  0  0  0  0  0  0  0  0
  2 12  2  0
  2  1  1  0
  3  2  1  0
  4  5  1  0
  4  3  2  0
  5 11  2  0
  6  5  1  0
  7  8  1  1
  7  6  1  0
  9  7  1  0
 10  9  2  0
 11 12  1  0
 13  9  1  0
 14 20  1  0
 14 13  1  0
 14 15  1  6
 16 15  1  0
 17 16  1  0
 18 17  1  0
 19 18  1  0
 20 21  2  0
 22 23  1  0
 22 20  1  0
 23 24  1  6
 24 25  1  0
 25 26  1  0
 26 27  1  0
 28 27  1  0
 29 31  1  0
 29 23  1  0
 30 29  2  0
M  END
$$$$
