YKK.pdb
     RDKit          3D

 31 31  0  0  1  0  0  0  0  0999 V2000
    7.3094  -10.8466   26.8956 O   0  0  0  0  0  0  0  0  0  0  0  0
    7.2041  -12.2338   26.7450 C   0  0  0  0  0  0  0  0  0  0  0  0
    8.3353  -12.9640   26.4663 C   0  0  0  0  0  0  0  0  0  0  0  0
    8.2593  -14.3332   26.3132 C   0  0  0  0  0  0  0  0  0  0  0  0
    7.0749  -15.0257   26.4285 C   0  0  0  0  0  0  0  0  0  0  0  0
    7.0156  -16.4752   26.2429 C   0  0  0  0  0  0  0  0  0  0  0  0
    6.2966  -16.8608   24.9509 C   0  0  2  0  0  0  0  0  0  0  0  0
    5.8671  -18.2256   24.9843 N   0  0  0  0  0  0  0  0  0  0  0  0
    7.2121  -16.6300   23.7835 C   0  0  0  0  0  0  0  0  0  0  0  0
    8.1216  -17.4151   23.4684 O   0  0  0  0  0  0  0  0  0  0  0  0
    5.9513  -14.2868   26.7065 C   0  0  0  0  0  0  0  0  0  0  0  0
    6.0060  -12.8997   26.8656 C   0  0  0  0  0  0  0  0  0  0  0  0
    7.0213  -15.4608   23.0099 N   0  0  0  0  0  0  0  0  0  0  0  0
    7.8691  -15.1987   21.7932 C   0  0  1  0  0  0  0  0  0  0  0  0
    7.3659  -13.9548   21.1702 C   0  0  0  0  0  0  0  0  0  0  0  0
    7.8404  -13.3985   19.9243 C   0  0  0  0  0  0  0  0  0  0  0  0
    7.5629  -13.9819   18.6013 C   0  0  0  0  0  0  0  0  0  0  0  0
    8.1594  -13.2025   17.4402 C   0  0  0  0  0  0  0  0  0  0  0  0
    7.6681  -13.6890   16.1723 N   0  0  0  0  0  0  0  0  0  0  0  0
    9.2448  -15.0605   22.3136 C   0  0  0  0  0  0  0  0  0  0  0  0
    9.5084  -14.5362   23.4509 O   0  0  0  0  0  0  0  0  0  0  0  0
   10.4298  -15.4891   21.6239 N   0  0  0  0  0  0  0  0  0  0  0  0
   11.7487  -15.4972   22.2734 C   0  0  1  0  0  0  0  0  0  0  0  0
   11.7078  -16.3720   23.5098 C   0  0  0  0  0  0  0  0  0  0  0  0
   11.6111  -17.8091   23.0700 C   0  0  0  0  0  0  0  0  0  0  0  0
   11.5374  -18.7998   24.1907 C   0  0  0  0  0  0  0  0  0  0  0  0
   11.3043  -20.1864   23.6301 C   0  0  0  0  0  0  0  0  0  0  0  0
   11.1966  -21.0999   24.7699 N   0  0  0  0  0  0  0  0  0  0  0  0
   12.7919  -15.9209   21.3275 C   0  0  0  0  0  0  0  0  0  0  0  0
   14.0125  -15.7953   21.6751 O   0  0  0  0  0  0  0  0  0  0  0  0
   12.5897  -16.4558   20.0715 O   0  0  0  0  0  0  0  0  0  0  0  0
  2 12  2  0
  2  1  1  0
  3  2  1  0
  4  5  1  0
  4  3  2  0
  5 11  2  0
  6  5  1  0
  7  8  1  1
  7  6  1  0
  9  7  1  0
 10  9  2  0
 11 12  1  0
 13  9  1  0
 14 20  1  0
 14 13  1  0
 14 15  1  1
 16 15  1  0
 17 16  1  0
 18 17  1  0
 19 18  1  0
 20 21  2  0
 22 23  1  0
 22 20  1  0
 23 24  1  1
 24 25  1  0
 25 26  1  0
 26 27  1  0
 28 27  1  0
 29 31  1  0
 29 23  1  0
 30 29  2  0
M  END
$$$$
