TET.pdb
     RDKit          3D

 24 23  0  0  1  0  0  0  0  0999 V2000
   17.5060   -7.9250  -18.1017 C   0  0  0  0  0  0  0  0  0  0  0  0
   16.8962   -9.2235  -17.6187 C   0  0  1  0  0  0  0  0  0  0  0  0
   15.8256   -9.5615  -18.3894 O   0  0  0  0  0  0  0  0  0  0  0  0
   17.9807  -10.2432  -17.5392 C   0  0  2  0  0  0  0  0  0  0  0  0
   17.4911  -11.5583  -17.1768 N   0  0  0  0  0  0  0  0  0  0  0  0
   19.1505   -9.9233  -16.7508 C   0  0  0  0  0  0  0  0  0  0  0  0
   19.1161  -10.1763  -15.5190 O   0  0  0  0  0  0  0  0  0  0  0  0
   20.3565   -9.3411  -17.2312 N   0  0  0  0  0  0  0  0  0  0  0  0
   21.4313   -9.0240  -16.3477 C   0  0  1  0  0  0  0  0  0  0  0  0
   22.6959   -9.7727  -16.5457 C   0  0  0  0  0  0  0  0  0  0  0  0
   23.8202   -9.4207  -15.6214 C   0  0  0  0  0  0  0  0  0  0  0  0
   24.9514  -10.3177  -15.9729 C   0  0  0  0  0  0  0  0  0  0  0  0
   26.0325  -10.3203  -15.3234 O   0  0  0  0  0  0  0  0  0  0  0  0
   21.7646   -7.5603  -16.3769 C   0  0  0  0  0  0  0  0  0  0  0  0
   22.3214   -7.0993  -17.4024 O   0  0  0  0  0  0  0  0  0  0  0  0
   24.7894  -11.1714  -17.0543 O   0  0  0  0  0  0  0  0  0  0  0  0
   19.7134   -4.9903  -16.7956 C   0  0  0  0  0  0  0  0  0  0  0  0
   20.4303   -4.5580  -15.5346 C   0  0  1  0  0  0  0  0  0  0  0  0
   19.6135   -4.8695  -14.4495 O   0  0  0  0  0  0  0  0  0  0  0  0
   21.7287   -5.2743  -15.3704 C   0  0  2  0  0  0  0  0  0  0  0  0
   21.4799   -6.6979  -15.3077 N   0  0  0  0  0  0  0  0  0  0  0  0
   22.4803   -4.8207  -14.1700 C   0  0  0  0  0  0  0  0  0  0  0  0
   22.9803   -3.5368  -14.1181 O   0  0  0  0  0  0  0  0  0  0  0  0
   22.6621   -5.5988  -13.2048 O   0  0  0  0  0  0  0  0  0  0  0  0
  2  1  1  6
  2  3  1  0
  2  4  1  0
  4  5  1  1
  6  7  2  0
  6  4  1  0
  8  6  1  0
  9  8  1  0
  9 14  1  0
  9 10  1  6
 11 10  1  0
 12 11  1  0
 13 12  2  0
 14 21  1  0
 15 14  2  0
 16 12  1  0
 18 17  1  6
 18 20  1  0
 18 19  1  0
 20 22  1  0
 20 21  1  1
 22 24  2  0
 22 23  1  0
M  END
$$$$
