TET.pdb
     RDKit          3D

 24 23  0  0  1  0  0  0  0  0999 V2000
   11.4164   -8.2713  -11.5388 C   0  0  0  0  0  0  0  0  0  0  0  0
   11.8026   -9.0602  -10.3060 C   0  0  1  0  0  0  0  0  0  0  0  0
   10.7209   -9.7182   -9.8046 O   0  0  0  0  0  0  0  0  0  0  0  0
   12.9740   -9.9151  -10.6512 C   0  0  2  0  0  0  0  0  0  0  0  0
   13.3422  -10.8231   -9.5833 N   0  0  0  0  0  0  0  0  0  0  0  0
   14.1572   -9.2616  -11.1664 C   0  0  0  0  0  0  0  0  0  0  0  0
   14.9409   -8.7281  -10.3394 O   0  0  0  0  0  0  0  0  0  0  0  0
   14.5332   -9.1565  -12.5345 N   0  0  0  0  0  0  0  0  0  0  0  0
   15.7492   -8.5189  -12.9234 C   0  0  1  0  0  0  0  0  0  0  0  0
   16.7217   -9.3478  -13.6759 C   0  0  0  0  0  0  0  0  0  0  0  0
   17.9648   -8.6499  -14.1341 C   0  0  0  0  0  0  0  0  0  0  0  0
   18.8268   -9.6887  -14.7551 C   0  0  0  0  0  0  0  0  0  0  0  0
   18.9043  -10.8600  -14.2939 O   0  0  0  0  0  0  0  0  0  0  0  0
   15.4958   -7.2778  -13.7294 C   0  0  0  0  0  0  0  0  0  0  0  0
   14.9038   -7.3957  -14.8293 O   0  0  0  0  0  0  0  0  0  0  0  0
   19.5605   -9.3351  -15.8781 O   0  0  0  0  0  0  0  0  0  0  0  0
   13.5168   -4.3468  -12.7981 C   0  0  0  0  0  0  0  0  0  0  0  0
   14.8877   -3.8341  -13.1837 C   0  0  1  0  0  0  0  0  0  0  0  0
   15.6249   -3.6615  -12.0139 O   0  0  0  0  0  0  0  0  0  0  0  0
   15.6086   -4.8042  -14.0585 C   0  0  2  0  0  0  0  0  0  0  0  0
   15.8950   -6.0029  -13.3013 N   0  0  0  0  0  0  0  0  0  0  0  0
   16.8579   -4.2347  -14.6299 C   0  0  0  0  0  0  0  0  0  0  0  0
   16.7943   -3.1331  -15.4568 O   0  0  0  0  0  0  0  0  0  0  0  0
   17.9687   -4.7502  -14.3644 O   0  0  0  0  0  0  0  0  0  0  0  0
  2  1  1  6
  2  3  1  0
  2  4  1  0
  4  5  1  1
  6  7  2  0
  6  4  1  0
  8  6  1  0
  9  8  1  0
  9 14  1  0
  9 10  1  6
 11 10  1  0
 12 11  1  0
 13 12  2  0
 14 21  1  0
 15 14  2  0
 16 12  1  0
 18 17  1  1
 18 20  1  0
 18 19  1  0
 20 22  1  0
 20 21  1  1
 22 24  2  0
 22 23  1  0
M  END
$$$$
