TET.pdb
     RDKit          3D

 24 23  0  0  1  0  0  0  0  0999 V2000
   17.2502   -8.6696  -17.4067 C   0  0  0  0  0  0  0  0  0  0  0  0
   17.0632   -9.8101  -16.4291 C   0  0  1  0  0  0  0  0  0  0  0  0
   16.0241  -10.6013  -16.8150 O   0  0  0  0  0  0  0  0  0  0  0  0
   18.3740  -10.5012  -16.2674 C   0  0  2  0  0  0  0  0  0  0  0  0
   18.2816  -11.7016  -15.4605 N   0  0  0  0  0  0  0  0  0  0  0  0
   19.5053   -9.7093  -15.8369 C   0  0  0  0  0  0  0  0  0  0  0  0
   19.6450   -9.5063  -14.6032 O   0  0  0  0  0  0  0  0  0  0  0  0
   20.4930   -9.1248  -16.6776 N   0  0  0  0  0  0  0  0  0  0  0  0
   21.6360   -8.4661  -16.1333 C   0  0  1  0  0  0  0  0  0  0  0  0
   22.8475   -8.4253  -16.9873 C   0  0  0  0  0  0  0  0  0  0  0  0
   24.0706   -7.8255  -16.3655 C   0  0  0  0  0  0  0  0  0  0  0  0
   25.1530   -7.9306  -17.3780 C   0  0  0  0  0  0  0  0  0  0  0  0
   25.8922   -6.9526  -17.6741 O   0  0  0  0  0  0  0  0  0  0  0  0
   21.3251   -7.0554  -15.7240 C   0  0  0  0  0  0  0  0  0  0  0  0
   21.1587   -6.1993  -16.6260 O   0  0  0  0  0  0  0  0  0  0  0  0
   25.3376   -9.1546  -18.0043 O   0  0  0  0  0  0  0  0  0  0  0  0
   18.4835   -5.9403  -13.8431 C   0  0  0  0  0  0  0  0  0  0  0  0
   19.6704   -5.3384  -13.1221 C   0  0  1  0  0  0  0  0  0  0  0  0
   19.9425   -6.1316  -12.0092 O   0  0  0  0  0  0  0  0  0  0  0  0
   20.8826   -5.3111  -13.9915 C   0  0  2  0  0  0  0  0  0  0  0  0
   21.2166   -6.6635  -14.3815 N   0  0  0  0  0  0  0  0  0  0  0  0
   22.0419   -4.6554  -13.3300 C   0  0  0  0  0  0  0  0  0  0  0  0
   23.1413   -5.4058  -12.9704 O   0  0  0  0  0  0  0  0  0  0  0  0
   22.0257   -3.4243  -13.0973 O   0  0  0  0  0  0  0  0  0  0  0  0
  2  1  1  6
  2  3  1  0
  2  4  1  0
  4  5  1  1
  6  7  2  0
  6  4  1  0
  8  6  1  0
  9  8  1  0
  9 14  1  0
  9 10  1  6
 11 10  1  0
 12 11  1  0
 13 12  2  0
 14 21  1  0
 15 14  2  0
 16 12  1  0
 18 17  1  6
 18 20  1  0
 18 19  1  0
 20 22  1  0
 20 21  1  1
 22 24  2  0
 22 23  1  0
M  END
$$$$
