TET.pdb
     RDKit          3D

 24 23  0  0  1  0  0  0  0  0999 V2000
   16.6192  -13.1590  -15.6703 C   0  0  0  0  0  0  0  0  0  0  0  0
   17.3648  -14.3943  -16.1279 C   0  0  1  0  0  0  0  0  0  0  0  0
   16.4900  -15.3465  -16.5550 O   0  0  0  0  0  0  0  0  0  0  0  0
   18.3941  -13.9731  -17.1204 C   0  0  2  0  0  0  0  0  0  0  0  0
   18.9975  -15.0928  -17.8152 N   0  0  0  0  0  0  0  0  0  0  0  0
   19.4253  -13.0607  -16.6767 C   0  0  0  0  0  0  0  0  0  0  0  0
   19.4792  -12.7868  -15.4500 O   0  0  0  0  0  0  0  0  0  0  0  0
   20.4010  -12.4291  -17.4971 N   0  0  0  0  0  0  0  0  0  0  0  0
   21.3710  -11.5394  -16.9459 C   0  0  1  0  0  0  0  0  0  0  0  0
   22.6583  -11.4280  -17.6736 C   0  0  0  0  0  0  0  0  0  0  0  0
   23.5402  -12.6377  -17.6389 C   0  0  0  0  0  0  0  0  0  0  0  0
   24.6607  -12.3694  -18.5772 C   0  0  0  0  0  0  0  0  0  0  0  0
   24.7312  -11.3060  -19.2516 O   0  0  0  0  0  0  0  0  0  0  0  0
   20.8247  -10.1507  -16.7806 C   0  0  0  0  0  0  0  0  0  0  0  0
   20.4700   -9.5268  -17.8098 O   0  0  0  0  0  0  0  0  0  0  0  0
   25.6497  -13.3346  -18.6980 O   0  0  0  0  0  0  0  0  0  0  0  0
   17.8916   -8.9727  -15.6348 C   0  0  0  0  0  0  0  0  0  0  0  0
   18.8634   -8.1896  -14.7784 C   0  0  1  0  0  0  0  0  0  0  0  0
   18.9357   -8.8126  -13.5341 O   0  0  0  0  0  0  0  0  0  0  0  0
   20.2293   -8.1711  -15.3783 C   0  0  2  0  0  0  0  0  0  0  0  0
   20.6995   -9.5308  -15.5285 N   0  0  0  0  0  0  0  0  0  0  0  0
   21.1917   -7.3699  -14.5760 C   0  0  0  0  0  0  0  0  0  0  0  0
   22.2510   -7.9939  -13.9517 O   0  0  0  0  0  0  0  0  0  0  0  0
   21.0456   -6.1305  -14.4638 O   0  0  0  0  0  0  0  0  0  0  0  0
  2  1  1  6
  2  3  1  0
  2  4  1  0
  4  5  1  1
  6  7  2  0
  6  4  1  0
  8  6  1  0
  9  8  1  0
  9 14  1  0
  9 10  1  6
 11 10  1  0
 12 11  1  0
 13 12  2  0
 14 21  1  0
 15 14  2  0
 16 12  1  0
 18 17  1  6
 18 20  1  0
 18 19  1  0
 20 22  1  0
 20 21  1  1
 22 24  2  0
 22 23  1  0
M  END
$$$$
