NKR.pdb
     RDKit          3D

 29 28  0  0  1  0  0  0  0  0999 V2000
   18.1139  -24.2870   -6.0271 N   0  0  0  0  0  0  0  0  0  0  0  0
   18.7327  -25.4213   -6.6473 C   0  0  0  0  0  0  0  0  0  0  0  0
   19.0764  -26.3896   -5.9147 O   0  0  0  0  0  0  0  0  0  0  0  0
   18.9577  -25.4477   -8.1008 C   0  0  0  0  0  0  0  0  0  0  0  0
   18.5840  -24.1149   -8.6796 C   0  0  2  0  0  0  0  0  0  0  0  0
   17.1762  -23.8259   -8.5313 N   0  0  0  0  0  0  0  0  0  0  0  0
   18.9516  -23.9477  -10.0957 C   0  0  0  0  0  0  0  0  0  0  0  0
   20.1534  -24.1233  -10.4884 O   0  0  0  0  0  0  0  0  0  0  0  0
   18.0290  -23.5887  -11.1067 N   0  0  0  0  0  0  0  0  0  0  0  0
   18.3963  -23.5245  -12.5275 C   0  0  1  0  0  0  0  0  0  0  0  0
   17.1626  -23.4401  -13.3686 C   0  0  0  0  0  0  0  0  0  0  0  0
   17.3665  -23.2944  -14.8429 C   0  0  0  0  0  0  0  0  0  0  0  0
   15.9519  -23.2506  -15.4480 C   0  0  0  0  0  0  0  0  0  0  0  0
   16.0120  -23.0730  -16.9362 C   0  0  0  0  0  0  0  0  0  0  0  0
   14.6700  -23.0334  -17.4701 N   0  0  0  0  0  0  0  0  0  0  0  0
   19.2205  -22.3039  -12.6686 C   0  0  0  0  0  0  0  0  0  0  0  0
   18.8650  -21.2125  -12.0944 O   0  0  0  0  0  0  0  0  0  0  0  0
   27.3500  -20.8771  -15.6138 N   0  0  0  0  0  0  0  0  0  0  0  0
   26.7226  -19.6168  -15.7797 C   0  0  0  0  0  0  0  0  0  0  0  0
   27.3820  -18.6383  -16.2824 N   0  0  0  0  0  0  0  0  0  0  0  0
   25.3779  -19.4513  -15.3899 N   0  0  0  0  0  0  0  0  0  0  0  0
   24.6093  -20.6005  -14.9981 C   0  0  0  0  0  0  0  0  0  0  0  0
   23.2384  -20.0560  -14.5537 C   0  0  0  0  0  0  0  0  0  0  0  0
   22.4328  -21.2449  -14.1692 C   0  0  0  0  0  0  0  0  0  0  0  0
   21.0418  -20.9214  -13.6369 C   0  0  2  0  0  0  0  0  0  0  0  0
   20.4284  -22.2192  -13.4087 N   0  0  0  0  0  0  0  0  0  0  0  0
   20.3244  -20.1183  -14.6409 C   0  0  0  0  0  0  0  0  0  0  0  0
   19.8868  -20.5392  -15.7184 O   0  0  0  0  0  0  0  0  0  0  0  0
   20.1264  -18.7561  -14.3346 O   0  0  0  0  0  0  0  0  0  0  0  0
  1  2  1  0
  2  3  2  0
  4  5  1  0
  4  2  1  0
  5  6  1  6
  7  5  1  0
  7  8  2  0
  9  7  1  0
 10  9  1  0
 11 12  1  0
 10 11  1  6
 12 13  1  0
 13 14  1  0
 14 15  1  0
 16 17  2  0
 16 10  1  0
 18 19  1  0
 19 20  2  0
 21 19  1  0
 21 22  1  0
 22 23  1  0
 23 24  1  0
 25 24  1  6
 25 27  1  0
 25 26  1  0
 26 16  1  0
 27 29  1  0
 28 27  2  0
M  END
$$$$
