NKR.pdb
     RDKit          3D

 29 28  0  0  1  0  0  0  0  0999 V2000
   19.3877  -22.4386  -11.5868 N   0  0  0  0  0  0  0  0  0  0  0  0
   18.2489  -22.6955  -12.4184 C   0  0  0  0  0  0  0  0  0  0  0  0
   17.0999  -22.5919  -11.9071 O   0  0  0  0  0  0  0  0  0  0  0  0
   18.4242  -23.0697  -13.8302 C   0  0  0  0  0  0  0  0  0  0  0  0
   19.8900  -23.1777  -14.1311 C   0  0  2  0  0  0  0  0  0  0  0  0
   20.6742  -23.4639  -12.9518 N   0  0  0  0  0  0  0  0  0  0  0  0
   20.4579  -21.9936  -14.7973 C   0  0  0  0  0  0  0  0  0  0  0  0
   20.0112  -21.5957  -15.9248 O   0  0  0  0  0  0  0  0  0  0  0  0
   21.5149  -21.2233  -14.2572 N   0  0  0  0  0  0  0  0  0  0  0  0
   22.0727  -20.0514  -14.9453 C   0  0  1  0  0  0  0  0  0  0  0  0
   21.6861  -18.8029  -14.2184 C   0  0  0  0  0  0  0  0  0  0  0  0
   21.4542  -17.5857  -15.0557 C   0  0  0  0  0  0  0  0  0  0  0  0
   20.2102  -17.9053  -15.9040 C   0  0  0  0  0  0  0  0  0  0  0  0
   19.8589  -16.7503  -16.7943 C   0  0  0  0  0  0  0  0  0  0  0  0
   19.1949  -15.7292  -16.0172 N   0  0  0  0  0  0  0  0  0  0  0  0
   23.5396  -20.2437  -14.9289 C   0  0  0  0  0  0  0  0  0  0  0  0
   24.1873  -20.1912  -13.8221 O   0  0  0  0  0  0  0  0  0  0  0  0
   27.4306  -26.1835  -16.7712 N   0  0  0  0  0  0  0  0  0  0  0  0
   28.6901  -25.5431  -16.6570 C   0  0  0  0  0  0  0  0  0  0  0  0
   29.6808  -26.1737  -16.1411 N   0  0  0  0  0  0  0  0  0  0  0  0
   28.8416  -24.2175  -17.1123 N   0  0  0  0  0  0  0  0  0  0  0  0
   27.6947  -23.5034  -17.6020 C   0  0  0  0  0  0  0  0  0  0  0  0
   27.5644  -22.2562  -16.7071 C   0  0  0  0  0  0  0  0  0  0  0  0
   26.1244  -21.8871  -16.7295 C   0  0  0  0  0  0  0  0  0  0  0  0
   25.7787  -20.6382  -15.9273 C   0  0  2  0  0  0  0  0  0  0  0  0
   24.3393  -20.4986  -16.0732 N   0  0  0  0  0  0  0  0  0  0  0  0
   26.5233  -19.4961  -16.4829 C   0  0  0  0  0  0  0  0  0  0  0  0
   26.0511  -18.6186  -17.2156 O   0  0  0  0  0  0  0  0  0  0  0  0
   27.8889  -19.4078  -16.1424 O   0  0  0  0  0  0  0  0  0  0  0  0
  1  2  1  0
  2  3  2  0
  4  5  1  0
  4  2  1  0
  5  6  1  1
  7  5  1  0
  7  8  2  0
  9  7  1  0
 10  9  1  0
 11 12  1  0
 10 11  1  1
 12 13  1  0
 13 14  1  0
 14 15  1  0
 16 17  2  0
 16 10  1  0
 18 19  1  0
 19 20  2  0
 21 19  1  0
 21 22  1  0
 22 23  1  0
 23 24  1  0
 25 24  1  6
 25 27  1  0
 25 26  1  0
 26 16  1  0
 27 29  1  0
 28 27  2  0
M  END
$$$$
