NKR.pdb
     RDKit          3D

 29 28  0  0  1  0  0  0  0  0999 V2000
   31.0153  -24.7918  -18.2382 N   0  0  0  0  0  0  0  0  0  0  0  0
   31.2668  -23.4402  -18.6437 C   0  0  0  0  0  0  0  0  0  0  0  0
   32.3500  -23.1866  -19.2393 O   0  0  0  0  0  0  0  0  0  0  0  0
   30.2822  -22.3824  -18.3687 C   0  0  0  0  0  0  0  0  0  0  0  0
   29.1400  -22.9654  -17.5901 C   0  0  2  0  0  0  0  0  0  0  0  0
   28.2674  -23.7709  -18.4131 N   0  0  0  0  0  0  0  0  0  0  0  0
   28.3248  -21.9679  -16.8767 C   0  0  0  0  0  0  0  0  0  0  0  0
   28.8691  -21.0781  -16.1411 O   0  0  0  0  0  0  0  0  0  0  0  0
   26.9124  -21.9168  -16.9466 N   0  0  0  0  0  0  0  0  0  0  0  0
   26.1270  -20.8434  -16.3230 C   0  0  1  0  0  0  0  0  0  0  0  0
   25.0690  -20.3718  -17.2690 C   0  0  0  0  0  0  0  0  0  0  0  0
   24.0510  -19.4257  -16.7167 C   0  0  0  0  0  0  0  0  0  0  0  0
   23.0918  -19.1316  -17.8841 C   0  0  0  0  0  0  0  0  0  0  0  0
   22.0370  -18.1471  -17.4744 C   0  0  0  0  0  0  0  0  0  0  0  0
   21.0522  -18.8121  -16.6526 N   0  0  0  0  0  0  0  0  0  0  0  0
   25.5273  -21.4443  -15.1113 C   0  0  0  0  0  0  0  0  0  0  0  0
   24.7883  -22.4895  -15.2046 O   0  0  0  0  0  0  0  0  0  0  0  0
   22.5618  -20.5385   -8.5678 N   0  0  0  0  0  0  0  0  0  0  0  0
   23.4903  -20.9969   -7.5997 C   0  0  0  0  0  0  0  0  0  0  0  0
   23.0667  -21.4824   -6.4907 N   0  0  0  0  0  0  0  0  0  0  0  0
   24.8723  -20.9146   -7.8661 N   0  0  0  0  0  0  0  0  0  0  0  0
   25.3209  -20.3158   -9.0930 C   0  0  0  0  0  0  0  0  0  0  0  0
   24.6379  -21.1115  -10.2216 C   0  0  0  0  0  0  0  0  0  0  0  0
   25.3898  -20.7863  -11.4622 C   0  0  0  0  0  0  0  0  0  0  0  0
   24.8533  -21.4568  -12.7214 C   0  0  2  0  0  0  0  0  0  0  0  0
   25.7026  -20.9572  -13.7900 N   0  0  0  0  0  0  0  0  0  0  0  0
   23.4395  -21.0830  -12.8925 C   0  0  0  0  0  0  0  0  0  0  0  0
   23.0297  -19.9878  -13.2952 O   0  0  0  0  0  0  0  0  0  0  0  0
   22.4832  -22.0667  -12.5660 O   0  0  0  0  0  0  0  0  0  0  0  0
  1  2  1  0
  2  3  2  0
  4  5  1  0
  4  2  1  0
  5  6  1  6
  7  5  1  0
  7  8  2  0
  9  7  1  0
 10  9  1  0
 11 12  1  0
 10 11  1  6
 12 13  1  0
 13 14  1  0
 14 15  1  0
 16 17  2  0
 16 10  1  0
 18 19  1  0
 19 20  2  0
 21 19  1  0
 21 22  1  0
 22 23  1  0
 23 24  1  0
 25 24  1  1
 25 27  1  0
 25 26  1  0
 26 16  1  0
 27 29  1  0
 28 27  2  0
M  END
$$$$
