NKR.pdb
     RDKit          3D

 29 28  0  0  1  0  0  0  0  0999 V2000
   27.7402  -22.5084  -18.3987 N   0  0  0  0  0  0  0  0  0  0  0  0
   27.7111  -23.2874  -17.1960 C   0  0  0  0  0  0  0  0  0  0  0  0
   28.0832  -24.4918  -17.2548 O   0  0  0  0  0  0  0  0  0  0  0  0
   27.2576  -22.6906  -15.9303 C   0  0  0  0  0  0  0  0  0  0  0  0
   26.9364  -21.2428  -16.1576 C   0  0  2  0  0  0  0  0  0  0  0  0
   28.0818  -20.3863  -15.9527 N   0  0  0  0  0  0  0  0  0  0  0  0
   25.8195  -20.7374  -15.3418 C   0  0  0  0  0  0  0  0  0  0  0  0
   25.9754  -20.4782  -14.1018 O   0  0  0  0  0  0  0  0  0  0  0  0
   24.5202  -20.5050  -15.8518 N   0  0  0  0  0  0  0  0  0  0  0  0
   23.4733  -19.8291  -15.0741 C   0  0  1  0  0  0  0  0  0  0  0  0
   23.0281  -18.5922  -15.7873 C   0  0  0  0  0  0  0  0  0  0  0  0
   21.8707  -17.8562  -15.1914 C   0  0  0  0  0  0  0  0  0  0  0  0
   21.5273  -16.7483  -16.2034 C   0  0  0  0  0  0  0  0  0  0  0  0
   20.4320  -15.8671  -15.6805 C   0  0  0  0  0  0  0  0  0  0  0  0
   20.1016  -14.8706  -16.6731 N   0  0  0  0  0  0  0  0  0  0  0  0
   22.3682  -20.8067  -14.9644 C   0  0  0  0  0  0  0  0  0  0  0  0
   22.0379  -21.5267  -15.9742 O   0  0  0  0  0  0  0  0  0  0  0  0
   18.0647  -23.9682   -7.9655 N   0  0  0  0  0  0  0  0  0  0  0  0
   17.9888  -24.9807   -8.9548 C   0  0  0  0  0  0  0  0  0  0  0  0
   17.5723  -26.1515   -8.6373 N   0  0  0  0  0  0  0  0  0  0  0  0
   18.3725  -24.6901  -10.2799 N   0  0  0  0  0  0  0  0  0  0  0  0
   19.3214  -23.6395  -10.5265 C   0  0  0  0  0  0  0  0  0  0  0  0
   19.3815  -23.4802  -12.0576 C   0  0  0  0  0  0  0  0  0  0  0  0
   20.3964  -22.4254  -12.3181 C   0  0  0  0  0  0  0  0  0  0  0  0
   20.5931  -22.0865  -13.7910 C   0  0  2  0  0  0  0  0  0  0  0  0
   21.6033  -21.0415  -13.7923 N   0  0  0  0  0  0  0  0  0  0  0  0
   19.3069  -21.6393  -14.3509 C   0  0  0  0  0  0  0  0  0  0  0  0
   18.4287  -22.3778  -14.8122 O   0  0  0  0  0  0  0  0  0  0  0  0
   19.0700  -20.2492  -14.3546 O   0  0  0  0  0  0  0  0  0  0  0  0
  1  2  1  0
  2  3  2  0
  4  5  1  0
  4  2  1  0
  5  6  1  1
  7  5  1  0
  7  8  2  0
  9  7  1  0
 10  9  1  0
 11 12  1  0
 10 11  1  6
 12 13  1  0
 13 14  1  0
 14 15  1  0
 16 17  2  0
 16 10  1  0
 18 19  1  0
 19 20  2  0
 21 19  1  0
 21 22  1  0
 22 23  1  0
 23 24  1  0
 25 24  1  1
 25 27  1  0
 25 26  1  0
 26 16  1  0
 27 29  1  0
 28 27  2  0
M  END
$$$$
