NKR.pdb
     RDKit          3D

 29 28  0  0  1  0  0  0  0  0999 V2000
   27.5575  -21.9680  -16.9786 N   0  0  0  0  0  0  0  0  0  0  0  0
   27.9577  -20.6541  -16.5689 C   0  0  0  0  0  0  0  0  0  0  0  0
   28.9181  -20.1053  -17.1763 O   0  0  0  0  0  0  0  0  0  0  0  0
   27.2615  -19.9705  -15.4680 C   0  0  0  0  0  0  0  0  0  0  0  0
   26.1835  -20.8683  -14.9364 C   0  0  2  0  0  0  0  0  0  0  0  0
   25.8091  -21.8968  -15.8796 N   0  0  0  0  0  0  0  0  0  0  0  0
   24.9665  -20.1601  -14.5055 C   0  0  0  0  0  0  0  0  0  0  0  0
   24.8993  -19.6066  -13.3573 O   0  0  0  0  0  0  0  0  0  0  0  0
   23.8062  -20.0394  -15.3063 N   0  0  0  0  0  0  0  0  0  0  0  0
   22.6383  -19.2493  -14.8944 C   0  0  1  0  0  0  0  0  0  0  0  0
   22.1732  -18.3975  -16.0324 C   0  0  0  0  0  0  0  0  0  0  0  0
   20.9553  -17.5643  -15.7903 C   0  0  0  0  0  0  0  0  0  0  0  0
   20.6853  -16.8403  -17.1215 C   0  0  0  0  0  0  0  0  0  0  0  0
   19.4359  -16.0145  -17.0373 C   0  0  0  0  0  0  0  0  0  0  0  0
   19.2271  -15.3296  -18.2923 N   0  0  0  0  0  0  0  0  0  0  0  0
   21.6057  -20.2382  -14.5137 C   0  0  0  0  0  0  0  0  0  0  0  0
   21.4466  -21.3074  -15.2057 O   0  0  0  0  0  0  0  0  0  0  0  0
   18.3761  -23.9954   -8.0871 N   0  0  0  0  0  0  0  0  0  0  0  0
   17.6878  -24.5602   -9.1902 C   0  0  0  0  0  0  0  0  0  0  0  0
   16.6576  -25.2973   -8.9885 N   0  0  0  0  0  0  0  0  0  0  0  0
   18.1429  -24.3055  -10.5000 N   0  0  0  0  0  0  0  0  0  0  0  0
   19.1981  -23.3525  -10.7083 C   0  0  0  0  0  0  0  0  0  0  0  0
   18.5029  -22.0418  -11.1232 C   0  0  0  0  0  0  0  0  0  0  0  0
   19.5810  -21.1501  -11.6262 C   0  0  0  0  0  0  0  0  0  0  0  0
   19.7506  -21.1546  -13.1408 C   0  0  2  0  0  0  0  0  0  0  0  0
   20.7346  -20.1167  -13.4001 N   0  0  0  0  0  0  0  0  0  0  0  0
   18.4469  -20.8755  -13.7652 C   0  0  0  0  0  0  0  0  0  0  0  0
   17.5411  -21.7001  -13.9364 O   0  0  0  0  0  0  0  0  0  0  0  0
   18.2260  -19.5521  -14.1994 O   0  0  0  0  0  0  0  0  0  0  0  0
  1  2  1  0
  2  3  2  0
  4  5  1  0
  4  2  1  0
  5  6  1  6
  7  5  1  0
  7  8  2  0
  9  7  1  0
 10  9  1  0
 11 12  1  0
 10 11  1  6
 12 13  1  0
 13 14  1  0
 14 15  1  0
 16 17  2  0
 16 10  1  0
 18 19  1  0
 19 20  2  0
 21 19  1  0
 21 22  1  0
 22 23  1  0
 23 24  1  0
 25 24  1  1
 25 27  1  0
 25 26  1  0
 26 16  1  0
 27 29  1  0
 28 27  2  0
M  END
$$$$
