MSA.pdb
     RDKit          3D

 20 19  0  0  1  0  0  0  0  0999 V2000
    7.3796  -11.2607   26.1574 C   0  0  0  0  0  0  0  0  0  0  0  0
    6.3617  -12.7710   26.1357 S   0  0  0  0  0  0  0  0  0  0  0  0
    6.4058  -13.4770   24.4781 C   0  0  0  0  0  0  0  0  0  0  0  0
    7.7835  -13.2840   23.8614 C   0  0  0  0  0  0  0  0  0  0  0  0
    7.9647  -14.1702   22.6477 C   0  0  2  0  0  0  0  0  0  0  0  0
    6.7812  -14.1279   21.8367 N   0  0  0  0  0  0  0  0  0  0  0  0
    8.2448  -15.5418   23.1576 C   0  0  0  0  0  0  0  0  0  0  0  0
    7.3039  -16.3669   23.1815 O   0  0  0  0  0  0  0  0  0  0  0  0
   12.0835  -16.7644   24.1628 O   0  0  0  0  0  0  0  0  0  0  0  0
   11.2076  -17.7020   23.6380 C   0  0  0  0  0  0  0  0  0  0  0  0
    9.8011  -17.3225   24.0229 C   0  0  2  0  0  0  0  0  0  0  0  0
    9.5164  -15.9617   23.6164 N   0  0  0  0  0  0  0  0  0  0  0  0
    9.6446  -17.5284   25.4724 C   0  0  0  0  0  0  0  0  0  0  0  0
    9.9178  -16.5838   26.2574 O   0  0  0  0  0  0  0  0  0  0  0  0
    8.3562  -20.1203   27.9189 C   0  0  0  0  0  0  0  0  0  0  0  0
    9.1648  -18.8911   27.5228 C   0  0  2  0  0  0  0  0  0  0  0  0
    9.1982  -18.7400   26.0700 N   0  0  0  0  0  0  0  0  0  0  0  0
   10.5368  -18.9742   28.0200 C   0  0  0  0  0  0  0  0  0  0  0  0
   11.4830  -19.1765   27.2389 O   0  0  0  0  0  0  0  0  0  0  0  0
   10.8387  -18.8329   29.3683 O   0  0  0  0  0  0  0  0  0  0  0  0
  2  1  1  0
  3  4  1  0
  3  2  1  0
  5  4  1  0
  5  7  1  0
  5  6  1  6
  7  8  2  0
  9 10  1  0
 11 10  1  1
 11 13  1  0
 12 11  1  0
 12  7  1  0
 13 17  1  0
 13 14  2  0
 16 15  1  6
 16 18  1  0
 17 16  1  0
 18 19  2  0
 18 20  1  0
M  END
$$$$
