MSA.pdb
     RDKit          3D

 20 19  0  0  1  0  0  0  0  0999 V2000
    9.2336  -11.2814   20.6031 C   0  0  0  0  0  0  0  0  0  0  0  0
    7.9879  -12.1576   19.6040 S   0  0  0  0  0  0  0  0  0  0  0  0
    8.2994  -13.9295   19.7111 C   0  0  0  0  0  0  0  0  0  0  0  0
    7.5911  -14.5149   20.9239 C   0  0  0  0  0  0  0  0  0  0  0  0
    7.9062  -15.9873   21.0791 C   0  0  2  0  0  0  0  0  0  0  0  0
    6.9045  -16.7695   20.4119 N   0  0  0  0  0  0  0  0  0  0  0  0
    7.9491  -16.2637   22.5424 C   0  0  0  0  0  0  0  0  0  0  0  0
    6.8713  -16.2480   23.1786 O   0  0  0  0  0  0  0  0  0  0  0  0
   11.2757  -17.8659   24.3509 O   0  0  0  0  0  0  0  0  0  0  0  0
   10.0239  -18.0850   24.9046 C   0  0  0  0  0  0  0  0  0  0  0  0
    9.1655  -16.8706   24.6622 C   0  0  2  0  0  0  0  0  0  0  0  0
    9.1420  -16.5427   23.2516 N   0  0  0  0  0  0  0  0  0  0  0  0
    9.6749  -15.7681   25.4948 C   0  0  0  0  0  0  0  0  0  0  0  0
   10.7675  -15.2247   25.1885 O   0  0  0  0  0  0  0  0  0  0  0  0
    8.5595  -13.2667   28.0124 C   0  0  0  0  0  0  0  0  0  0  0  0
    9.6236  -14.2041   27.4550 C   0  0  2  0  0  0  0  0  0  0  0  0
    9.0133  -15.2565   26.6459 N   0  0  0  0  0  0  0  0  0  0  0  0
   10.4004  -14.8239   28.5269 C   0  0  0  0  0  0  0  0  0  0  0  0
   11.0323  -14.1244   29.3380 O   0  0  0  0  0  0  0  0  0  0  0  0
   10.4655  -16.2024   28.6834 O   0  0  0  0  0  0  0  0  0  0  0  0
  2  1  1  0
  3  4  1  0
  3  2  1  0
  5  4  1  0
  5  7  1  0
  5  6  1  6
  7  8  2  0
  9 10  1  0
 11 10  1  6
 11 13  1  0
 12 11  1  0
 12  7  1  0
 13 17  1  0
 13 14  2  0
 16 15  1  1
 16 18  1  0
 17 16  1  0
 18 19  2  0
 18 20  1  0
M  END
$$$$
