MSA.pdb
     RDKit          3D

 20 19  0  0  1  0  0  0  0  0999 V2000
    7.2356  -11.2199   25.9478 C   0  0  0  0  0  0  0  0  0  0  0  0
    6.3536  -12.2561   27.1586 S   0  0  0  0  0  0  0  0  0  0  0  0
    5.8860  -13.8054   26.3655 C   0  0  0  0  0  0  0  0  0  0  0  0
    7.0970  -14.4399   25.6975 C   0  0  0  0  0  0  0  0  0  0  0  0
    6.7256  -15.7443   25.0252 C   0  0  2  0  0  0  0  0  0  0  0  0
    6.3103  -16.6975   26.0146 N   0  0  0  0  0  0  0  0  0  0  0  0
    7.9326  -16.2005   24.2806 C   0  0  0  0  0  0  0  0  0  0  0  0
    8.6989  -17.0168   24.8404 O   0  0  0  0  0  0  0  0  0  0  0  0
    8.6998  -14.5265   20.8245 O   0  0  0  0  0  0  0  0  0  0  0  0
    9.3461  -15.7527   20.8054 C   0  0  0  0  0  0  0  0  0  0  0  0
    9.3449  -16.3249   22.1993 C   0  0  2  0  0  0  0  0  0  0  0  0
    8.2596  -15.7611   22.9753 N   0  0  0  0  0  0  0  0  0  0  0  0
   10.6649  -16.0787   22.8036 C   0  0  0  0  0  0  0  0  0  0  0  0
   10.8918  -14.9659   23.3449 O   0  0  0  0  0  0  0  0  0  0  0  0
   13.6439  -18.0018   24.0109 C   0  0  0  0  0  0  0  0  0  0  0  0
   12.9832  -16.7227   23.5120 C   0  0  2  0  0  0  0  0  0  0  0  0
   11.7296  -17.0223   22.8241 N   0  0  0  0  0  0  0  0  0  0  0  0
   13.8599  -15.9929   22.5980 C   0  0  0  0  0  0  0  0  0  0  0  0
   14.9131  -15.4745   23.0083 O   0  0  0  0  0  0  0  0  0  0  0  0
   13.5583  -15.8490   21.2499 O   0  0  0  0  0  0  0  0  0  0  0  0
  2  1  1  0
  3  4  1  0
  3  2  1  0
  5  4  1  0
  5  7  1  0
  5  6  1  1
  7  8  2  0
  9 10  1  0
 11 10  1  6
 11 13  1  0
 12 11  1  0
 12  7  1  0
 13 17  1  0
 13 14  2  0
 16 15  1  6
 16 18  1  0
 17 16  1  0
 18 19  2  0
 18 20  1  0
M  END
$$$$
