MSA.pdb
     RDKit          3D

 20 19  0  0  1  0  0  0  0  0999 V2000
    6.4250  -12.6577   19.9085 C   0  0  0  0  0  0  0  0  0  0  0  0
    8.0087  -12.4957   19.0236 S   0  0  0  0  0  0  0  0  0  0  0  0
    9.1758  -13.6919   19.6983 C   0  0  0  0  0  0  0  0  0  0  0  0
    8.6221  -14.3020   20.9776 C   0  0  0  0  0  0  0  0  0  0  0  0
    9.5902  -15.3073   21.5636 C   0  0  2  0  0  0  0  0  0  0  0  0
    9.3392  -16.6045   21.0027 N   0  0  0  0  0  0  0  0  0  0  0  0
    9.3868  -15.2870   23.0393 C   0  0  0  0  0  0  0  0  0  0  0  0
    8.6235  -14.4184   23.5187 O   0  0  0  0  0  0  0  0  0  0  0  0
    7.9638  -19.1508   23.4563 O   0  0  0  0  0  0  0  0  0  0  0  0
    8.5892  -17.9719   23.0808 C   0  0  0  0  0  0  0  0  0  0  0  0
    9.4853  -17.5177   24.2037 C   0  0  2  0  0  0  0  0  0  0  0  0
   10.0096  -16.1960   23.9279 N   0  0  0  0  0  0  0  0  0  0  0  0
   10.5447  -18.5235   24.3885 C   0  0  0  0  0  0  0  0  0  0  0  0
   10.7935  -18.9439   25.5479 O   0  0  0  0  0  0  0  0  0  0  0  0
   13.1434  -20.3857   22.3304 C   0  0  0  0  0  0  0  0  0  0  0  0
   12.4947  -19.9021   23.6214 C   0  0  2  0  0  0  0  0  0  0  0  0
   11.3280  -19.0707   23.3343 N   0  0  0  0  0  0  0  0  0  0  0  0
   13.4350  -19.1310   24.4327 C   0  0  0  0  0  0  0  0  0  0  0  0
   13.2091  -17.9385   24.7033 O   0  0  0  0  0  0  0  0  0  0  0  0
   14.6055  -19.6897   24.9294 O   0  0  0  0  0  0  0  0  0  0  0  0
  2  1  1  0
  3  4  1  0
  3  2  1  0
  5  4  1  0
  5  7  1  0
  5  6  1  6
  7  8  2  0
  9 10  1  0
 11 10  1  6
 11 13  1  0
 12 11  1  0
 12  7  1  0
 13 17  1  0
 13 14  2  0
 16 15  1  6
 16 18  1  0
 17 16  1  0
 18 19  2  0
 18 20  1  0
M  END
$$$$
