MSA.pdb
     RDKit          3D

 20 19  0  0  1  0  0  0  0  0999 V2000
   13.5705  -15.9127   16.5718 C   0  0  0  0  0  0  0  0  0  0  0  0
   12.6867  -14.7460   17.6559 S   0  0  0  0  0  0  0  0  0  0  0  0
   10.9146  -14.9288   17.3832 C   0  0  0  0  0  0  0  0  0  0  0  0
   10.1434  -13.9763   18.2851 C   0  0  0  0  0  0  0  0  0  0  0  0
    8.6502  -14.1699   18.1295 C   0  0  2  0  0  0  0  0  0  0  0  0
    8.0936  -13.0695   17.3949 N   0  0  0  0  0  0  0  0  0  0  0  0
    8.0858  -14.2668   19.5049 C   0  0  0  0  0  0  0  0  0  0  0  0
    7.8915  -13.2059   20.1401 O   0  0  0  0  0  0  0  0  0  0  0  0
    6.8052  -17.8839   20.9816 O   0  0  0  0  0  0  0  0  0  0  0  0
    6.0894  -16.7580   21.3583 C   0  0  0  0  0  0  0  0  0  0  0  0
    7.0201  -15.5732   21.3756 C   0  0  2  0  0  0  0  0  0  0  0  0
    7.7581  -15.4930   20.1318 N   0  0  0  0  0  0  0  0  0  0  0  0
    7.8979  -15.6892   22.5521 C   0  0  0  0  0  0  0  0  0  0  0  0
    9.0682  -16.1258   22.4014 O   0  0  0  0  0  0  0  0  0  0  0  0
    7.9870  -14.7729   26.2213 C   0  0  0  0  0  0  0  0  0  0  0  0
    8.4166  -15.5818   25.0037 C   0  0  2  0  0  0  0  0  0  0  0  0
    7.5182  -15.3382   23.8776 N   0  0  0  0  0  0  0  0  0  0  0  0
    8.4303  -17.0142   25.2948 C   0  0  0  0  0  0  0  0  0  0  0  0
    9.2122  -17.4817   26.1412 O   0  0  0  0  0  0  0  0  0  0  0  0
    7.5819  -17.9029   24.6471 O   0  0  0  0  0  0  0  0  0  0  0  0
  2  1  1  0
  3  4  1  0
  3  2  1  0
  5  4  1  0
  5  7  1  0
  5  6  1  1
  7  8  2  0
  9 10  1  0
 11 10  1  6
 11 13  1  0
 12 11  1  0
 12  7  1  0
 13 17  1  0
 13 14  2  0
 16 15  1  1
 16 18  1  0
 17 16  1  0
 18 19  2  0
 18 20  1  0
M  END
$$$$
