RDR.pdb
     RDKit          3D

 31 30  0  0  1  0  0  0  0  0999 V2000
    8.2472  -13.7764   19.7769 N   0  0  0  0  0  0  0  0  0  0  0  0
    7.7827  -12.7272   18.9105 C   0  0  0  0  0  0  0  0  0  0  0  0
    7.0139  -11.8129   19.3796 N   0  0  0  0  0  0  0  0  0  0  0  0
    8.1904  -12.7325   17.5562 N   0  0  0  0  0  0  0  0  0  0  0  0
    8.9982  -13.7521   16.9719 C   0  0  0  0  0  0  0  0  0  0  0  0
    8.8040  -15.1276   17.5036 C   0  0  0  0  0  0  0  0  0  0  0  0
   10.0113  -15.8308   18.0017 C   0  0  0  0  0  0  0  0  0  0  0  0
   11.1137  -16.0142   16.9831 C   0  0  2  0  0  0  0  0  0  0  0  0
   10.7492  -17.0933   16.0855 N   0  0  0  0  0  0  0  0  0  0  0  0
   12.3962  -16.3652   17.6244 C   0  0  0  0  0  0  0  0  0  0  0  0
   12.4938  -17.4338   18.2626 O   0  0  0  0  0  0  0  0  0  0  0  0
    6.7097  -11.0183   18.7955 N   0  0  0  0  0  0  0  0  0  0  0  0
   13.5761  -15.5377   17.5641 C   0  0  2  0  0  0  0  0  0  0  0  0
   14.7572  -15.8553   18.3201 C   0  0  0  0  0  0  0  0  0  0  0  0
   15.9780  -15.1086   17.7905 C   0  0  0  0  0  0  0  0  0  0  0  0
   15.7550  -13.6667   17.6938 O   0  0  0  0  0  0  0  0  0  0  0  0
   15.9447  -12.8852   18.6580 C   0  0  0  0  0  0  0  0  0  0  0  0
   14.5962  -15.6067   19.7805 O   0  0  0  0  0  0  0  0  0  0  0  0
   14.1159  -14.4941   20.1923 O   0  0  0  0  0  0  0  0  0  0  0  0
   15.3177  -13.1229   16.5008 N   0  0  0  0  0  0  0  0  0  0  0  0
   10.9504  -20.9101   24.4916 C   0  0  0  0  0  0  0  0  0  0  0  0
   12.3802  -21.0483   24.3509 N   0  0  0  0  0  0  0  0  0  0  0  0
   12.9301  -22.2197   24.5292 N   0  0  0  0  0  0  0  0  0  0  0  0
   13.0953  -19.8807   24.0239 C   0  0  0  0  0  0  0  0  0  0  0  0
   12.6628  -18.6196   24.6732 C   0  0  0  0  0  0  0  0  0  0  0  0
   13.4575  -17.4871   24.1706 C   0  0  0  0  0  0  0  0  0  0  0  0
   13.9177  -17.3669   22.8059 C   0  0  2  0  0  0  0  0  0  0  0  0
   14.7230  -16.2990   22.2322 N   0  0  0  0  0  0  0  0  0  0  0  0
   14.9465  -16.5466   20.7729 C   0  0  0  0  0  0  0  0  0  0  0  0
   15.9627  -15.9216   22.8681 O   0  0  0  0  0  0  0  0  0  0  0  0
   16.1424  -15.6291   24.0566 O   0  0  0  0  0  0  0  0  0  0  0  0
  1  2  1  0
  2  3  2  0
  4  2  1  0
  5  4  1  0
  6  5  1  0
  7  6  1  0
  8  9  1  6
  8 10  1  0
  8  7  1  0
 10 11  2  0
 12 10  1  0
 12 13  1  0
 13 17  1  0
 13 14  1  6
 15 14  1  0
 16 15  2  0
 17 18  2  0
 19 15  1  0
 20 21  1  0
 21 22  2  0
 21 23  1  0
 23 24  1  0
 24 25  1  0
 25 26  1  0
 27 26  1  6
 27 29  1  0
 28 17  1  0
 28 27  1  0
 29 30  2  0
 29 31  1  0
M  END
$$$$
