RDR.pdb
     RDKit          3D

 31 30  0  0  1  0  0  0  0  0999 V2000
    7.4860  -13.5475   13.1000 N   0  0  0  0  0  0  0  0  0  0  0  0
    7.1821  -13.8613   14.4699 C   0  0  0  0  0  0  0  0  0  0  0  0
    6.8678  -12.9174   15.2807 N   0  0  0  0  0  0  0  0  0  0  0  0
    7.2376  -15.2115   14.8871 N   0  0  0  0  0  0  0  0  0  0  0  0
    8.3170  -15.7708   15.6325 C   0  0  0  0  0  0  0  0  0  0  0  0
    9.1261  -14.8134   16.4334 C   0  0  0  0  0  0  0  0  0  0  0  0
   10.2812  -15.3709   17.1786 C   0  0  0  0  0  0  0  0  0  0  0  0
   10.4329  -14.8693   18.5969 C   0  0  2  0  0  0  0  0  0  0  0  0
   10.4443  -13.4193   18.5838 N   0  0  0  0  0  0  0  0  0  0  0  0
   11.6951  -15.3319   19.2070 C   0  0  0  0  0  0  0  0  0  0  0  0
   11.8201  -16.5315   19.5296 O   0  0  0  0  0  0  0  0  0  0  0  0
    6.7095  -13.1042   16.2832 N   0  0  0  0  0  0  0  0  0  0  0  0
   12.8243  -14.4719   19.4638 C   0  0  1  0  0  0  0  0  0  0  0  0
   14.0473  -14.9825   20.0214 C   0  0  0  0  0  0  0  0  0  0  0  0
   15.2246  -14.0568   19.7292 C   0  0  0  0  0  0  0  0  0  0  0  0
   15.5692  -14.0191   18.3086 O   0  0  0  0  0  0  0  0  0  0  0  0
   15.3377  -14.9758   17.5292 C   0  0  0  0  0  0  0  0  0  0  0  0
   13.9524  -15.2472   21.4847 O   0  0  0  0  0  0  0  0  0  0  0  0
   14.7031  -14.6091   22.3016 O   0  0  0  0  0  0  0  0  0  0  0  0
   16.1749  -12.8932   17.7836 N   0  0  0  0  0  0  0  0  0  0  0  0
    7.5196  -18.8383   26.4326 C   0  0  0  0  0  0  0  0  0  0  0  0
    8.5890  -18.7469   27.3975 N   0  0  0  0  0  0  0  0  0  0  0  0
    8.3292  -18.9508   28.6613 N   0  0  0  0  0  0  0  0  0  0  0  0
    9.8660  -18.4363   26.8930 C   0  0  0  0  0  0  0  0  0  0  0  0
    9.9374  -17.9299   25.5010 C   0  0  0  0  0  0  0  0  0  0  0  0
   11.3050  -17.4838   25.1888 C   0  0  0  0  0  0  0  0  0  0  0  0
   11.7109  -16.9658   23.9022 C   0  0  1  0  0  0  0  0  0  0  0  0
   13.0281  -16.4820   23.5163 N   0  0  0  0  0  0  0  0  0  0  0  0
   13.0600  -16.1826   22.0499 C   0  0  0  0  0  0  0  0  0  0  0  0
   14.2017  -17.2315   23.8963 O   0  0  0  0  0  0  0  0  0  0  0  0
   14.8136  -17.1817   24.9703 O   0  0  0  0  0  0  0  0  0  0  0  0
  1  2  1  0
  2  3  2  0
  4  2  1  0
  5  4  1  0
  6  5  1  0
  7  6  1  0
  8  9  1  6
  8 10  1  0
  8  7  1  0
 10 11  2  0
 12 10  1  0
 12 13  1  0
 13 17  1  0
 13 14  1  6
 15 14  1  0
 16 15  2  0
 17 18  2  0
 19 15  1  0
 20 21  1  0
 21 22  2  0
 21 23  1  0
 23 24  1  0
 24 25  1  0
 25 26  1  0
 27 26  1  1
 27 29  1  0
 28 17  1  0
 28 27  1  0
 29 30  2  0
 29 31  1  0
M  END
$$$$
