RDR.pdb
     RDKit          3D

 31 30  0  0  1  0  0  0  0  0999 V2000
    6.0290  -20.3562   12.9701 N   0  0  0  0  0  0  0  0  0  0  0  0
    6.4163  -19.0085   12.6524 C   0  0  0  0  0  0  0  0  0  0  0  0
    5.5184  -18.1531   12.3219 N   0  0  0  0  0  0  0  0  0  0  0  0
    7.7859  -18.6615   12.7147 N   0  0  0  0  0  0  0  0  0  0  0  0
    8.6140  -18.8893   13.8530 C   0  0  0  0  0  0  0  0  0  0  0  0
   10.0549  -18.5566   13.6927 C   0  0  0  0  0  0  0  0  0  0  0  0
   10.9567  -18.9243   14.8115 C   0  0  0  0  0  0  0  0  0  0  0  0
   11.6801  -17.7660   15.4606 C   0  0  2  0  0  0  0  0  0  0  0  0
   12.8225  -17.4076   14.6423 N   0  0  0  0  0  0  0  0  0  0  0  0
   12.1730  -18.1163   16.8073 C   0  0  0  0  0  0  0  0  0  0  0  0
   11.3567  -18.4093   17.7052 O   0  0  0  0  0  0  0  0  0  0  0  0
    5.7662  -17.1762   12.1003 N   0  0  0  0  0  0  0  0  0  0  0  0
   13.5693  -18.1443   17.1682 C   0  0  1  0  0  0  0  0  0  0  0  0
   13.9926  -18.4097   18.5164 C   0  0  0  0  0  0  0  0  0  0  0  0
   15.4990  -18.6403   18.5946 C   0  0  0  0  0  0  0  0  0  0  0  0
   15.8970  -19.9366   18.0475 O   0  0  0  0  0  0  0  0  0  0  0  0
   15.0659  -20.8227   17.7306 C   0  0  0  0  0  0  0  0  0  0  0  0
   13.5856  -17.3425   19.4736 O   0  0  0  0  0  0  0  0  0  0  0  0
   13.2433  -16.1883   19.0392 O   0  0  0  0  0  0  0  0  0  0  0  0
   17.2379  -20.2166   17.8643 N   0  0  0  0  0  0  0  0  0  0  0  0
    8.3666  -13.2353   18.6834 C   0  0  0  0  0  0  0  0  0  0  0  0
    8.9110  -12.5931   19.8556 N   0  0  0  0  0  0  0  0  0  0  0  0
    8.4912  -11.4007   20.1847 N   0  0  0  0  0  0  0  0  0  0  0  0
    9.8794  -13.3172   20.5764 C   0  0  0  0  0  0  0  0  0  0  0  0
    9.5106  -14.6841   21.0179 C   0  0  0  0  0  0  0  0  0  0  0  0
   10.6006  -15.2770   21.8098 C   0  0  0  0  0  0  0  0  0  0  0  0
   11.5271  -16.2608   21.2977 C   0  0  2  0  0  0  0  0  0  0  0  0
   12.8618  -16.5641   21.7923 N   0  0  0  0  0  0  0  0  0  0  0  0
   13.5484  -17.5249   20.8722 C   0  0  0  0  0  0  0  0  0  0  0  0
   13.0359  -16.9786   23.1640 O   0  0  0  0  0  0  0  0  0  0  0  0
   13.2726  -18.1181   23.5835 O   0  0  0  0  0  0  0  0  0  0  0  0
  1  2  1  0
  2  3  2  0
  4  2  1  0
  5  4  1  0
  6  5  1  0
  7  6  1  0
  8  9  1  6
  8 10  1  0
  8  7  1  0
 10 11  2  0
 12 10  1  0
 12 13  1  0
 13 17  1  0
 13 14  1  1
 15 14  1  0
 16 15  2  0
 17 18  2  0
 19 15  1  0
 20 21  1  0
 21 22  2  0
 21 23  1  0
 23 24  1  0
 24 25  1  0
 25 26  1  0
 27 26  1  6
 27 29  1  0
 28 17  1  0
 28 27  1  0
 29 30  2  0
 29 31  1  0
M  END
$$$$
