RDR.pdb
     RDKit          3D

 31 30  0  0  1  0  0  0  0  0999 V2000
    8.6832  -12.2214   18.5074 N   0  0  0  0  0  0  0  0  0  0  0  0
    9.6382  -13.2459   18.8323 C   0  0  0  0  0  0  0  0  0  0  0  0
   10.5807  -12.9913   19.6653 N   0  0  0  0  0  0  0  0  0  0  0  0
    9.5096  -14.5147   18.2208 N   0  0  0  0  0  0  0  0  0  0  0  0
    8.4029  -14.8980   17.4073 C   0  0  0  0  0  0  0  0  0  0  0  0
    7.5213  -15.9615   17.9588 C   0  0  0  0  0  0  0  0  0  0  0  0
    8.1733  -17.2320   18.3600 C   0  0  0  0  0  0  0  0  0  0  0  0
    7.9221  -17.6596   19.7885 C   0  0  2  0  0  0  0  0  0  0  0  0
    7.2066  -16.6024   20.4764 N   0  0  0  0  0  0  0  0  0  0  0  0
    9.1839  -17.9061   20.5140 C   0  0  0  0  0  0  0  0  0  0  0  0
    9.9567  -18.8035   20.1187 O   0  0  0  0  0  0  0  0  0  0  0  0
   11.3071  -13.6918   19.8814 N   0  0  0  0  0  0  0  0  0  0  0  0
    9.5976  -17.1631   21.6792 C   0  0  2  0  0  0  0  0  0  0  0  0
   10.8842  -17.3713   22.2864 C   0  0  0  0  0  0  0  0  0  0  0  0
   12.0182  -16.9950   21.3371 C   0  0  0  0  0  0  0  0  0  0  0  0
   13.3383  -17.2546   21.9098 O   0  0  0  0  0  0  0  0  0  0  0  0
   14.3494  -16.5687   21.6209 C   0  0  0  0  0  0  0  0  0  0  0  0
   11.0382  -16.6514   23.5819 O   0  0  0  0  0  0  0  0  0  0  0  0
   11.1468  -15.3762   23.5978 O   0  0  0  0  0  0  0  0  0  0  0  0
   13.4998  -18.2928   22.8076 N   0  0  0  0  0  0  0  0  0  0  0  0
    6.1972  -11.9561   27.5741 C   0  0  0  0  0  0  0  0  0  0  0  0
    6.3771  -12.7237   26.3653 N   0  0  0  0  0  0  0  0  0  0  0  0
    6.0081  -12.2117   25.2217 N   0  0  0  0  0  0  0  0  0  0  0  0
    6.9514  -14.0007   26.5113 C   0  0  0  0  0  0  0  0  0  0  0  0
    8.2403  -14.2447   25.8197 C   0  0  0  0  0  0  0  0  0  0  0  0
    8.1823  -15.5038   25.0594 C   0  0  0  0  0  0  0  0  0  0  0  0
    8.8090  -16.7339   25.4866 C   0  0  2  0  0  0  0  0  0  0  0  0
   10.1710  -16.9154   25.9662 N   0  0  0  0  0  0  0  0  0  0  0  0
   11.0711  -17.3013   24.8339 C   0  0  0  0  0  0  0  0  0  0  0  0
   10.4170  -17.7636   27.1080 O   0  0  0  0  0  0  0  0  0  0  0  0
   10.4757  -18.9990   27.1313 O   0  0  0  0  0  0  0  0  0  0  0  0
  1  2  1  0
  2  3  2  0
  4  2  1  0
  5  4  1  0
  6  5  1  0
  7  6  1  0
  8  9  1  1
  8 10  1  0
  8  7  1  0
 10 11  2  0
 12 10  1  0
 12 13  1  0
 13 17  1  0
 13 14  1  6
 15 14  1  0
 16 15  2  0
 17 18  2  0
 19 15  1  0
 20 21  1  0
 21 22  2  0
 21 23  1  0
 23 24  1  0
 24 25  1  0
 25 26  1  0
 27 26  1  6
 27 29  1  0
 28 17  1  0
 28 27  1  0
 29 30  2  0
 29 31  1  0
M  END
$$$$
