RDR.pdb
     RDKit          3D

 31 30  0  0  1  0  0  0  0  0999 V2000
    7.9230  -12.1207   20.1589 N   0  0  0  0  0  0  0  0  0  0  0  0
    8.3677  -12.4327   18.8277 C   0  0  0  0  0  0  0  0  0  0  0  0
    9.5810  -12.1840   18.4912 N   0  0  0  0  0  0  0  0  0  0  0  0
    7.4486  -13.0101   17.9210 N   0  0  0  0  0  0  0  0  0  0  0  0
    7.3271  -14.4130   17.6957 C   0  0  0  0  0  0  0  0  0  0  0  0
    6.9033  -15.2303   18.8639 C   0  0  0  0  0  0  0  0  0  0  0  0
    7.7561  -16.3923   19.2143 C   0  0  0  0  0  0  0  0  0  0  0  0
    9.2418  -16.1757   19.0351 C   0  0  2  0  0  0  0  0  0  0  0  0
    9.6369  -16.6811   17.7346 N   0  0  0  0  0  0  0  0  0  0  0  0
   10.0251  -16.8910   20.0618 C   0  0  0  0  0  0  0  0  0  0  0  0
    9.6580  -16.8527   21.2545 O   0  0  0  0  0  0  0  0  0  0  0  0
    9.9116  -12.3428   17.5266 N   0  0  0  0  0  0  0  0  0  0  0  0
   11.2171  -17.6514   19.7761 C   0  0  2  0  0  0  0  0  0  0  0  0
   11.9534  -18.3156   20.8173 C   0  0  0  0  0  0  0  0  0  0  0  0
   13.1502  -19.0784   20.2568 C   0  0  0  0  0  0  0  0  0  0  0  0
   13.7862  -19.9363   21.2557 O   0  0  0  0  0  0  0  0  0  0  0  0
   13.1685  -20.3937   22.2485 C   0  0  0  0  0  0  0  0  0  0  0  0
   12.3945  -17.3894   21.8981 O   0  0  0  0  0  0  0  0  0  0  0  0
   13.1014  -16.3614   21.6125 O   0  0  0  0  0  0  0  0  0  0  0  0
   15.1207  -20.2686   21.1187 N   0  0  0  0  0  0  0  0  0  0  0  0
   10.8332  -16.4417   29.8205 C   0  0  0  0  0  0  0  0  0  0  0  0
   10.3527  -15.0864   29.6968 N   0  0  0  0  0  0  0  0  0  0  0  0
    9.8467  -14.4894   30.7426 N   0  0  0  0  0  0  0  0  0  0  0  0
   10.4674  -14.4925   28.4257 C   0  0  0  0  0  0  0  0  0  0  0  0
   10.1313  -15.3360   27.2532 C   0  0  0  0  0  0  0  0  0  0  0  0
   11.3335  -15.5847   26.4410 C   0  0  0  0  0  0  0  0  0  0  0  0
   11.3358  -16.3539   25.2176 C   0  0  1  0  0  0  0  0  0  0  0  0
   12.4563  -16.5873   24.3186 N   0  0  0  0  0  0  0  0  0  0  0  0
   12.0732  -17.5735   23.2596 C   0  0  0  0  0  0  0  0  0  0  0  0
   13.7499  -16.9217   24.8649 O   0  0  0  0  0  0  0  0  0  0  0  0
   14.5324  -16.1735   25.4634 O   0  0  0  0  0  0  0  0  0  0  0  0
  1  2  1  0
  2  3  2  0
  4  2  1  0
  5  4  1  0
  6  5  1  0
  7  6  1  0
  8  9  1  6
  8 10  1  0
  8  7  1  0
 10 11  2  0
 12 10  1  0
 12 13  1  0
 13 17  1  0
 13 14  1  6
 15 14  1  0
 16 15  2  0
 17 18  2  0
 19 15  1  0
 20 21  1  0
 21 22  2  0
 21 23  1  0
 23 24  1  0
 24 25  1  0
 25 26  1  0
 27 26  1  6
 27 29  1  0
 28 17  1  0
 28 27  1  0
 29 30  2  0
 29 31  1  0
M  END
$$$$
