RDR.pdb
     RDKit          3D

 31 30  0  0  1  0  0  0  0  0999 V2000
    7.9683  -13.2866   18.4064 N   0  0  0  0  0  0  0  0  0  0  0  0
    8.3369  -12.5123   19.5604 C   0  0  0  0  0  0  0  0  0  0  0  0
    8.6573  -11.2777   19.4183 N   0  0  0  0  0  0  0  0  0  0  0  0
    8.3346  -13.1380   20.8288 N   0  0  0  0  0  0  0  0  0  0  0  0
    7.2092  -13.8198   21.3783 C   0  0  0  0  0  0  0  0  0  0  0  0
    6.9280  -15.1719   20.8257 C   0  0  0  0  0  0  0  0  0  0  0  0
    7.6797  -16.3069   21.4149 C   0  0  0  0  0  0  0  0  0  0  0  0
    8.7211  -16.9260   20.5102 C   0  0  2  0  0  0  0  0  0  0  0  0
    8.0746  -17.8887   19.6395 N   0  0  0  0  0  0  0  0  0  0  0  0
    9.7628  -17.6329   21.2813 C   0  0  0  0  0  0  0  0  0  0  0  0
    9.4445  -18.2701   22.3066 O   0  0  0  0  0  0  0  0  0  0  0  0
    8.8912  -10.6887   20.2327 N   0  0  0  0  0  0  0  0  0  0  0  0
   11.1602  -17.6390   20.9237 C   0  0  2  0  0  0  0  0  0  0  0  0
   12.1498  -18.2531   21.7668 C   0  0  0  0  0  0  0  0  0  0  0  0
   13.5444  -18.1551   21.1552 C   0  0  0  0  0  0  0  0  0  0  0  0
   14.5409  -18.9171   21.9065 O   0  0  0  0  0  0  0  0  0  0  0  0
   14.2328  -19.8489   22.6896 C   0  0  0  0  0  0  0  0  0  0  0  0
   12.1559  -17.7021   23.1513 O   0  0  0  0  0  0  0  0  0  0  0  0
   12.5135  -16.4906   23.3576 O   0  0  0  0  0  0  0  0  0  0  0  0
   15.8817  -18.6144   21.7619 N   0  0  0  0  0  0  0  0  0  0  0  0
   10.1031  -16.4838   29.9657 C   0  0  0  0  0  0  0  0  0  0  0  0
    9.8991  -15.0602   29.8446 N   0  0  0  0  0  0  0  0  0  0  0  0
   10.0212  -14.3043   30.9029 N   0  0  0  0  0  0  0  0  0  0  0  0
    9.5748  -14.5785   28.5622 C   0  0  0  0  0  0  0  0  0  0  0  0
    9.3497  -15.5873   27.4988 C   0  0  0  0  0  0  0  0  0  0  0  0
   10.6147  -16.2553   27.1518 C   0  0  0  0  0  0  0  0  0  0  0  0
   10.7385  -17.2666   26.1269 C   0  0  2  0  0  0  0  0  0  0  0  0
   11.9523  -17.9358   25.6832 N   0  0  0  0  0  0  0  0  0  0  0  0
   11.7794  -18.4491   24.2876 C   0  0  0  0  0  0  0  0  0  0  0  0
   12.5506  -18.9517   26.5160 O   0  0  0  0  0  0  0  0  0  0  0  0
   12.6015  -20.1691   26.3020 O   0  0  0  0  0  0  0  0  0  0  0  0
  1  2  1  0
  2  3  2  0
  4  2  1  0
  5  4  1  0
  6  5  1  0
  7  6  1  0
  8  9  1  6
  8 10  1  0
  8  7  1  0
 10 11  2  0
 12 10  1  0
 12 13  1  0
 13 17  1  0
 13 14  1  6
 15 14  1  0
 16 15  2  0
 17 18  2  0
 19 15  1  0
 20 21  1  0
 21 22  2  0
 21 23  1  0
 23 24  1  0
 24 25  1  0
 25 26  1  0
 27 26  1  6
 27 29  1  0
 28 17  1  0
 28 27  1  0
 29 30  2  0
 29 31  1  0
M  END
$$$$
