RDR.pdb
     RDKit          3D

 31 30  0  0  1  0  0  0  0  0999 V2000
    8.6196  -13.4138   15.8001 N   0  0  0  0  0  0  0  0  0  0  0  0
    8.2619  -14.2374   14.6771 C   0  0  0  0  0  0  0  0  0  0  0  0
    7.4146  -13.8017   13.8172 N   0  0  0  0  0  0  0  0  0  0  0  0
    8.8594  -15.5130   14.5510 N   0  0  0  0  0  0  0  0  0  0  0  0
    9.7503  -16.0736   15.5131 C   0  0  0  0  0  0  0  0  0  0  0  0
   10.8620  -16.9012   14.9731 C   0  0  0  0  0  0  0  0  0  0  0  0
   11.8093  -17.4772   15.9586 C   0  0  0  0  0  0  0  0  0  0  0  0
   12.8977  -16.5384   16.4278 C   0  0  2  0  0  0  0  0  0  0  0  0
   13.6275  -16.0508   15.2735 N   0  0  0  0  0  0  0  0  0  0  0  0
   13.8558  -17.2176   17.3222 C   0  0  0  0  0  0  0  0  0  0  0  0
   13.4440  -17.7593   18.3690 O   0  0  0  0  0  0  0  0  0  0  0  0
    7.1630  -14.3580   12.9851 N   0  0  0  0  0  0  0  0  0  0  0  0
   15.2727  -17.3012   17.0649 C   0  0  1  0  0  0  0  0  0  0  0  0
   16.1653  -17.9625   17.9777 C   0  0  0  0  0  0  0  0  0  0  0  0
   17.2981  -18.6693   17.2390 C   0  0  0  0  0  0  0  0  0  0  0  0
   16.8191  -19.4730   16.1152 O   0  0  0  0  0  0  0  0  0  0  0  0
   15.6313  -19.8691   16.0226 C   0  0  0  0  0  0  0  0  0  0  0  0
   16.7202  -17.0462   19.0136 O   0  0  0  0  0  0  0  0  0  0  0  0
   17.9205  -16.6141   18.9106 O   0  0  0  0  0  0  0  0  0  0  0  0
   17.6945  -19.8209   15.1039 N   0  0  0  0  0  0  0  0  0  0  0  0
   15.1429  -22.8285   24.1399 C   0  0  0  0  0  0  0  0  0  0  0  0
   16.1060  -22.1597   24.9815 N   0  0  0  0  0  0  0  0  0  0  0  0
   16.6063  -22.7927   26.0087 N   0  0  0  0  0  0  0  0  0  0  0  0
   16.4436  -20.8405   24.6246 C   0  0  0  0  0  0  0  0  0  0  0  0
   15.7024  -20.2367   23.4909 C   0  0  0  0  0  0  0  0  0  0  0  0
   16.2857  -18.9328   23.1352 C   0  0  0  0  0  0  0  0  0  0  0  0
   15.8564  -18.1374   22.0076 C   0  0  1  0  0  0  0  0  0  0  0  0
   16.4233  -16.8806   21.5416 N   0  0  0  0  0  0  0  0  0  0  0  0
   15.9872  -16.6061   20.1361 C   0  0  0  0  0  0  0  0  0  0  0  0
   17.8409  -16.6450   21.6773 O   0  0  0  0  0  0  0  0  0  0  0  0
   18.4039  -15.8496   22.4394 O   0  0  0  0  0  0  0  0  0  0  0  0
  1  2  1  0
  2  3  2  0
  4  2  1  0
  5  4  1  0
  6  5  1  0
  7  6  1  0
  8  9  1  6
  8 10  1  0
  8  7  1  0
 10 11  2  0
 12 10  1  0
 12 13  1  0
 13 17  1  0
 13 14  1  1
 15 14  1  0
 16 15  2  0
 17 18  2  0
 19 15  1  0
 20 21  1  0
 21 22  2  0
 21 23  1  0
 23 24  1  0
 24 25  1  0
 25 26  1  0
 27 26  1  1
 27 29  1  0
 28 17  1  0
 28 27  1  0
 29 30  2  0
 29 31  1  0
M  END
$$$$
