RDR.pdb
     RDKit          3D

 31 30  0  0  1  0  0  0  0  0999 V2000
    7.5667  -12.3621   18.6504 N   0  0  0  0  0  0  0  0  0  0  0  0
    8.7759  -12.9947   19.1032 C   0  0  0  0  0  0  0  0  0  0  0  0
    9.7292  -12.2750   19.5724 N   0  0  0  0  0  0  0  0  0  0  0  0
    8.8801  -14.4026   19.0188 N   0  0  0  0  0  0  0  0  0  0  0  0
    8.0610  -15.3073   19.7565 C   0  0  0  0  0  0  0  0  0  0  0  0
    7.6530  -14.8626   21.1160 C   0  0  0  0  0  0  0  0  0  0  0  0
    8.1920  -15.6328   22.2635 C   0  0  0  0  0  0  0  0  0  0  0  0
    9.0487  -16.8223   21.8929 C   0  0  2  0  0  0  0  0  0  0  0  0
    8.2777  -17.7105   21.0446 N   0  0  0  0  0  0  0  0  0  0  0  0
    9.4731  -17.5818   23.0855 C   0  0  0  0  0  0  0  0  0  0  0  0
    9.1137  -18.7699   23.2195 O   0  0  0  0  0  0  0  0  0  0  0  0
   10.6410  -12.6904   19.8197 N   0  0  0  0  0  0  0  0  0  0  0  0
   10.2957  -17.0325   24.1354 C   0  0  2  0  0  0  0  0  0  0  0  0
   11.0939  -17.8749   24.9843 C   0  0  0  0  0  0  0  0  0  0  0  0
   12.0337  -18.7594   24.1701 C   0  0  0  0  0  0  0  0  0  0  0  0
   12.9262  -19.5542   25.0127 O   0  0  0  0  0  0  0  0  0  0  0  0
   12.6020  -19.9497   26.1594 C   0  0  0  0  0  0  0  0  0  0  0  0
   11.8641  -17.1087   26.0042 O   0  0  0  0  0  0  0  0  0  0  0  0
   12.6922  -17.7136   26.7699 O   0  0  0  0  0  0  0  0  0  0  0  0
   14.1816  -19.8942   24.5455 N   0  0  0  0  0  0  0  0  0  0  0  0
    4.4716  -12.5280   25.2077 C   0  0  0  0  0  0  0  0  0  0  0  0
    5.8273  -12.1617   25.5405 N   0  0  0  0  0  0  0  0  0  0  0  0
    6.4681  -11.3186   24.7757 N   0  0  0  0  0  0  0  0  0  0  0  0
    6.3737  -12.7553   26.6942 C   0  0  0  0  0  0  0  0  0  0  0  0
    7.8521  -12.8374   26.7760 C   0  0  0  0  0  0  0  0  0  0  0  0
    8.2806  -14.2411   26.8891 C   0  0  0  0  0  0  0  0  0  0  0  0
    9.5260  -14.7496   26.3609 C   0  0  1  0  0  0  0  0  0  0  0  0
   10.7236  -15.1102   27.1050 N   0  0  0  0  0  0  0  0  0  0  0  0
   11.7401  -15.7152   26.1875 C   0  0  0  0  0  0  0  0  0  0  0  0
   10.6044  -15.9019   28.3061 O   0  0  0  0  0  0  0  0  0  0  0  0
   10.7618  -15.5280   29.4748 O   0  0  0  0  0  0  0  0  0  0  0  0
  1  2  1  0
  2  3  2  0
  4  2  1  0
  5  4  1  0
  6  5  1  0
  7  6  1  0
  8  9  1  6
  8 10  1  0
  8  7  1  0
 10 11  2  0
 12 10  1  0
 12 13  1  0
 13 17  1  0
 13 14  1  6
 15 14  1  0
 16 15  2  0
 17 18  2  0
 19 15  1  0
 20 21  1  0
 21 22  2  0
 21 23  1  0
 23 24  1  0
 24 25  1  0
 25 26  1  0
 27 26  1  6
 27 29  1  0
 28 17  1  0
 28 27  1  0
 29 30  2  0
 29 31  1  0
M  END
$$$$
