RDR.pdb
     RDKit          3D

 31 30  0  0  1  0  0  0  0  0999 V2000
   10.1370  -18.3843   13.3585 N   0  0  0  0  0  0  0  0  0  0  0  0
   10.8343  -17.1289   13.2875 C   0  0  0  0  0  0  0  0  0  0  0  0
   10.4667  -16.2483   12.4292 N   0  0  0  0  0  0  0  0  0  0  0  0
   11.9126  -16.8984   14.1731 N   0  0  0  0  0  0  0  0  0  0  0  0
   12.2679  -17.7752   15.2401 C   0  0  0  0  0  0  0  0  0  0  0  0
   11.1501  -18.2477   16.1002 C   0  0  0  0  0  0  0  0  0  0  0  0
   11.1993  -17.8671   17.5331 C   0  0  0  0  0  0  0  0  0  0  0  0
   12.2369  -18.5967   18.3561 C   0  0  2  0  0  0  0  0  0  0  0  0
   12.2764  -19.9850   17.9388 N   0  0  0  0  0  0  0  0  0  0  0  0
   11.9151  -18.5603   19.7964 C   0  0  0  0  0  0  0  0  0  0  0  0
   10.7393  -18.7513   20.1700 O   0  0  0  0  0  0  0  0  0  0  0  0
   10.9433  -15.3354   12.3620 N   0  0  0  0  0  0  0  0  0  0  0  0
   12.8902  -18.3125   20.8301 C   0  0  2  0  0  0  0  0  0  0  0  0
   12.5477  -18.3996   22.2238 C   0  0  0  0  0  0  0  0  0  0  0  0
   13.7541  -18.7895   23.0730 C   0  0  0  0  0  0  0  0  0  0  0  0
   14.9630  -18.0564   22.6998 O   0  0  0  0  0  0  0  0  0  0  0  0
   15.4838  -18.1430   21.5607 C   0  0  0  0  0  0  0  0  0  0  0  0
   11.9316  -17.1489   22.7497 O   0  0  0  0  0  0  0  0  0  0  0  0
   12.4958  -16.0192   22.5405 O   0  0  0  0  0  0  0  0  0  0  0  0
   15.5715  -17.2292   23.6247 N   0  0  0  0  0  0  0  0  0  0  0  0
    8.9349  -13.6915   18.1032 C   0  0  0  0  0  0  0  0  0  0  0  0
    7.7468  -13.5881   18.9161 N   0  0  0  0  0  0  0  0  0  0  0  0
    6.6332  -13.1764   18.3715 N   0  0  0  0  0  0  0  0  0  0  0  0
    7.8789  -13.9473   20.2708 C   0  0  0  0  0  0  0  0  0  0  0  0
    9.2298  -14.3454   20.7354 C   0  0  0  0  0  0  0  0  0  0  0  0
    9.1331  -15.4547   21.6981 C   0  0  0  0  0  0  0  0  0  0  0  0
    9.1909  -15.2858   23.1322 C   0  0  2  0  0  0  0  0  0  0  0  0
   10.1570  -15.8631   24.0550 N   0  0  0  0  0  0  0  0  0  0  0  0
   10.7274  -17.1242   23.4847 C   0  0  0  0  0  0  0  0  0  0  0  0
    9.7902  -16.0637   25.4366 O   0  0  0  0  0  0  0  0  0  0  0  0
    9.7387  -17.1334   26.0558 O   0  0  0  0  0  0  0  0  0  0  0  0
  1  2  1  0
  2  3  2  0
  4  2  1  0
  5  4  1  0
  6  5  1  0
  7  6  1  0
  8  9  1  6
  8 10  1  0
  8  7  1  0
 10 11  2  0
 12 10  1  0
 12 13  1  0
 13 17  1  0
 13 14  1  6
 15 14  1  0
 16 15  2  0
 17 18  2  0
 19 15  1  0
 20 21  1  0
 21 22  2  0
 21 23  1  0
 23 24  1  0
 24 25  1  0
 25 26  1  0
 27 26  1  6
 27 29  1  0
 28 17  1  0
 28 27  1  0
 29 30  2  0
 29 31  1  0
M  END
$$$$
