RDR.pdb
     RDKit          3D

 31 30  0  0  1  0  0  0  0  0999 V2000
    7.6098  -12.6968   16.2629 N   0  0  0  0  0  0  0  0  0  0  0  0
    7.9345  -14.0706   16.5361 C   0  0  0  0  0  0  0  0  0  0  0  0
    8.3480  -14.8247   15.5835 N   0  0  0  0  0  0  0  0  0  0  0  0
    7.7887  -14.5545   17.8570 N   0  0  0  0  0  0  0  0  0  0  0  0
    7.3679  -13.7511   18.9574 C   0  0  0  0  0  0  0  0  0  0  0  0
    7.1711  -14.4607   20.2498 C   0  0  0  0  0  0  0  0  0  0  0  0
    7.9098  -13.9342   21.4234 C   0  0  0  0  0  0  0  0  0  0  0  0
    9.3104  -14.4770   21.5970 C   0  0  2  0  0  0  0  0  0  0  0  0
    9.9918  -14.4368   20.3176 N   0  0  0  0  0  0  0  0  0  0  0  0
    9.2987  -15.8767   22.0661 C   0  0  0  0  0  0  0  0  0  0  0  0
    8.7824  -16.1526   23.1688 O   0  0  0  0  0  0  0  0  0  0  0  0
    8.6390  -15.7989   15.7606 N   0  0  0  0  0  0  0  0  0  0  0  0
    9.8573  -16.9774   21.3198 C   0  0  2  0  0  0  0  0  0  0  0  0
    9.8883  -18.3111   21.8562 C   0  0  0  0  0  0  0  0  0  0  0  0
    9.6033  -19.3539   20.7792 C   0  0  0  0  0  0  0  0  0  0  0  0
    9.5658  -20.7149   21.3125 O   0  0  0  0  0  0  0  0  0  0  0  0
    8.8074  -21.0535   22.2541 C   0  0  0  0  0  0  0  0  0  0  0  0
   11.1673  -18.6275   22.5524 O   0  0  0  0  0  0  0  0  0  0  0  0
   11.9615  -19.5056   22.0663 O   0  0  0  0  0  0  0  0  0  0  0  0
   10.3912  -21.6822   20.7711 N   0  0  0  0  0  0  0  0  0  0  0  0
   11.6144  -13.4904   19.8881 C   0  0  0  0  0  0  0  0  0  0  0  0
   12.8618  -14.2089   19.7848 N   0  0  0  0  0  0  0  0  0  0  0  0
   13.3375  -14.4976   18.6031 N   0  0  0  0  0  0  0  0  0  0  0  0
   13.4900  -14.5549   20.9961 C   0  0  0  0  0  0  0  0  0  0  0  0
   14.5321  -15.6086   20.9397 C   0  0  0  0  0  0  0  0  0  0  0  0
   14.1980  -16.7077   21.8600 C   0  0  0  0  0  0  0  0  0  0  0  0
   13.3815  -16.5504   23.0420 C   0  0  2  0  0  0  0  0  0  0  0  0
   12.9919  -17.5797   23.9943 N   0  0  0  0  0  0  0  0  0  0  0  0
   11.5769  -18.0023   23.7491 C   0  0  0  0  0  0  0  0  0  0  0  0
   13.2090  -17.3639   25.4049 O   0  0  0  0  0  0  0  0  0  0  0  0
   14.2802  -17.1240   25.9753 O   0  0  0  0  0  0  0  0  0  0  0  0
  1  2  1  0
  2  3  2  0
  4  2  1  0
  5  4  1  0
  6  5  1  0
  7  6  1  0
  8  9  1  6
  8 10  1  0
  8  7  1  0
 10 11  2  0
 12 10  1  0
 12 13  1  0
 13 17  1  0
 13 14  1  1
 15 14  1  0
 16 15  2  0
 17 18  2  0
 19 15  1  0
 20 21  1  0
 21 22  2  0
 21 23  1  0
 23 24  1  0
 24 25  1  0
 25 26  1  0
 27 26  1  6
 27 29  1  0
 28 17  1  0
 28 27  1  0
 29 30  2  0
 29 31  1  0
M  END
$$$$
