RDR.pdb
     RDKit          3D

 31 30  0  0  1  0  0  0  0  0999 V2000
    7.3669  -12.7287   14.1079 N   0  0  0  0  0  0  0  0  0  0  0  0
    7.6464  -13.5680   15.2414 C   0  0  0  0  0  0  0  0  0  0  0  0
    8.5949  -14.4298   15.1722 N   0  0  0  0  0  0  0  0  0  0  0  0
    6.8627  -13.4177   16.4091 N   0  0  0  0  0  0  0  0  0  0  0  0
    7.0427  -14.1909   17.5937 C   0  0  0  0  0  0  0  0  0  0  0  0
    8.4467  -14.3770   18.0480 C   0  0  0  0  0  0  0  0  0  0  0  0
    8.6560  -15.2154   19.2537 C   0  0  0  0  0  0  0  0  0  0  0  0
   10.1008  -15.4259   19.6467 C   0  0  2  0  0  0  0  0  0  0  0  0
   10.7850  -16.1153   18.5698 N   0  0  0  0  0  0  0  0  0  0  0  0
   10.2201  -16.2489   20.8664 C   0  0  0  0  0  0  0  0  0  0  0  0
    9.2162  -16.4347   21.5849 O   0  0  0  0  0  0  0  0  0  0  0  0
    8.7905  -15.0736   15.9547 N   0  0  0  0  0  0  0  0  0  0  0  0
   11.4484  -16.8700   21.2980 C   0  0  1  0  0  0  0  0  0  0  0  0
   11.4824  -17.7720   22.4172 C   0  0  0  0  0  0  0  0  0  0  0  0
   12.8401  -18.4573   22.5422 C   0  0  0  0  0  0  0  0  0  0  0  0
   12.8550  -19.4870   23.5803 O   0  0  0  0  0  0  0  0  0  0  0  0
   11.8363  -19.7912   24.2480 C   0  0  0  0  0  0  0  0  0  0  0  0
   11.1179  -17.1149   23.7039 O   0  0  0  0  0  0  0  0  0  0  0  0
   11.8333  -16.1562   24.1594 O   0  0  0  0  0  0  0  0  0  0  0  0
   14.0288  -20.1642   23.8519 N   0  0  0  0  0  0  0  0  0  0  0  0
    5.5937  -11.3043   26.1747 C   0  0  0  0  0  0  0  0  0  0  0  0
    6.9095  -11.5698   26.7048 N   0  0  0  0  0  0  0  0  0  0  0  0
    7.8137  -10.6277   26.6735 N   0  0  0  0  0  0  0  0  0  0  0  0
    7.1275  -12.8577   27.2297 C   0  0  0  0  0  0  0  0  0  0  0  0
    7.1006  -13.9905   26.2730 C   0  0  0  0  0  0  0  0  0  0  0  0
    8.3535  -14.7588   26.3551 C   0  0  0  0  0  0  0  0  0  0  0  0
    8.5308  -16.0761   25.7877 C   0  0  2  0  0  0  0  0  0  0  0  0
    9.7250  -16.9068   25.8306 N   0  0  0  0  0  0  0  0  0  0  0  0
    9.9995  -17.4884   24.4788 C   0  0  0  0  0  0  0  0  0  0  0  0
    9.8469  -17.9268   26.8447 O   0  0  0  0  0  0  0  0  0  0  0  0
    9.9589  -19.1474   26.6774 O   0  0  0  0  0  0  0  0  0  0  0  0
  1  2  1  0
  2  3  2  0
  4  2  1  0
  5  4  1  0
  6  5  1  0
  7  6  1  0
  8  9  1  6
  8 10  1  0
  8  7  1  0
 10 11  2  0
 12 10  1  0
 12 13  1  0
 13 17  1  0
 13 14  1  1
 15 14  1  0
 16 15  2  0
 17 18  2  0
 19 15  1  0
 20 21  1  0
 21 22  2  0
 21 23  1  0
 23 24  1  0
 24 25  1  0
 25 26  1  0
 27 26  1  6
 27 29  1  0
 28 17  1  0
 28 27  1  0
 29 30  2  0
 29 31  1  0
M  END
$$$$
