RDR.pdb
     RDKit          3D

 31 30  0  0  1  0  0  0  0  0999 V2000
    9.1067  -14.3907   14.7324 N   0  0  0  0  0  0  0  0  0  0  0  0
    7.7253  -14.0774   14.9793 C   0  0  0  0  0  0  0  0  0  0  0  0
    6.8080  -14.7407   14.3747 N   0  0  0  0  0  0  0  0  0  0  0  0
    7.4150  -13.0400   15.8892 N   0  0  0  0  0  0  0  0  0  0  0  0
    8.0462  -12.8781   17.1576 C   0  0  0  0  0  0  0  0  0  0  0  0
    7.4549  -13.6449   18.2867 C   0  0  0  0  0  0  0  0  0  0  0  0
    8.3968  -14.3892   19.1581 C   0  0  0  0  0  0  0  0  0  0  0  0
    9.2141  -15.4525   18.4597 C   0  0  2  0  0  0  0  0  0  0  0  0
    8.3354  -16.5361   18.0640 N   0  0  0  0  0  0  0  0  0  0  0  0
   10.2568  -16.0081   19.3447 C   0  0  0  0  0  0  0  0  0  0  0  0
    9.9552  -16.8928   20.1724 O   0  0  0  0  0  0  0  0  0  0  0  0
    5.8129  -14.4833   14.4669 N   0  0  0  0  0  0  0  0  0  0  0  0
   11.6368  -15.5890   19.3199 C   0  0  1  0  0  0  0  0  0  0  0  0
   12.6067  -16.1397   20.2273 C   0  0  0  0  0  0  0  0  0  0  0  0
   14.0319  -15.8305   19.7780 C   0  0  0  0  0  0  0  0  0  0  0  0
   14.2311  -14.4127   19.4810 O   0  0  0  0  0  0  0  0  0  0  0  0
   13.4380  -13.7518   18.7665 C   0  0  0  0  0  0  0  0  0  0  0  0
   12.4036  -15.6945   21.6348 O   0  0  0  0  0  0  0  0  0  0  0  0
   12.2389  -14.4526   21.8970 O   0  0  0  0  0  0  0  0  0  0  0  0
   15.3311  -13.7557   19.9989 N   0  0  0  0  0  0  0  0  0  0  0  0
   11.1875  -16.1294   29.3629 C   0  0  0  0  0  0  0  0  0  0  0  0
   10.5265  -14.8964   29.0084 N   0  0  0  0  0  0  0  0  0  0  0  0
   10.7608  -13.8203   29.7108 N   0  0  0  0  0  0  0  0  0  0  0  0
    9.6552  -14.9454   27.9037 C   0  0  0  0  0  0  0  0  0  0  0  0
    9.8656  -16.0401   26.9257 C   0  0  0  0  0  0  0  0  0  0  0  0
   10.1205  -15.4866   25.5858 C   0  0  0  0  0  0  0  0  0  0  0  0
   10.7958  -16.2066   24.5303 C   0  0  2  0  0  0  0  0  0  0  0  0
   12.1952  -16.1070   24.1434 N   0  0  0  0  0  0  0  0  0  0  0  0
   12.3771  -16.5785   22.7342 C   0  0  0  0  0  0  0  0  0  0  0  0
   13.2118  -16.6785   24.9940 O   0  0  0  0  0  0  0  0  0  0  0  0
   13.6694  -17.8272   24.9555 O   0  0  0  0  0  0  0  0  0  0  0  0
  1  2  1  0
  2  3  2  0
  4  2  1  0
  5  4  1  0
  6  5  1  0
  7  6  1  0
  8  9  1  1
  8 10  1  0
  8  7  1  0
 10 11  2  0
 12 10  1  0
 12 13  1  0
 13 17  1  0
 13 14  1  6
 15 14  1  0
 16 15  2  0
 17 18  2  0
 19 15  1  0
 20 21  1  0
 21 22  2  0
 21 23  1  0
 23 24  1  0
 24 25  1  0
 25 26  1  0
 27 26  1  6
 27 29  1  0
 28 17  1  0
 28 27  1  0
 29 30  2  0
 29 31  1  0
M  END
$$$$
