YIS.pdb
     RDKit          3D

 27 27  0  0  1  0  0  0  0  0999 V2000
    6.6168  -17.4988   15.7592 O   0  0  0  0  0  0  0  0  0  0  0  0
    7.0300  -17.3422   17.0818 C   0  0  0  0  0  0  0  0  0  0  0  0
    6.1270  -17.2905   18.1215 C   0  0  0  0  0  0  0  0  0  0  0  0
    6.5280  -17.1366   19.4246 C   0  0  0  0  0  0  0  0  0  0  0  0
    7.8600  -17.0257   19.7595 C   0  0  0  0  0  0  0  0  0  0  0  0
    8.3269  -16.8593   21.1484 C   0  0  0  0  0  0  0  0  0  0  0  0
    8.6267  -15.3848   21.4523 C   0  0  2  0  0  0  0  0  0  0  0  0
    9.6523  -14.9633   20.5534 N   0  0  0  0  0  0  0  0  0  0  0  0
    8.9983  -15.2292   22.8854 C   0  0  0  0  0  0  0  0  0  0  0  0
   10.1998  -15.4224   23.1869 O   0  0  0  0  0  0  0  0  0  0  0  0
    8.7793  -17.0762   18.7217 C   0  0  0  0  0  0  0  0  0  0  0  0
    8.3653  -17.2312   17.4155 C   0  0  0  0  0  0  0  0  0  0  0  0
    6.1373  -11.7118   25.8483 C   0  0  0  0  0  0  0  0  0  0  0  0
    7.3324  -12.4523   25.3154 C   0  0  0  0  0  0  0  0  0  0  0  0
    7.6040  -13.7460   25.9883 C   0  0  2  0  0  0  0  0  0  0  0  0
    8.0154  -13.4209   27.4166 C   0  0  0  0  0  0  0  0  0  0  0  0
    8.4264  -14.7402   25.2920 C   0  0  2  0  0  0  0  0  0  0  0  0
    8.0730  -14.8816   23.8893 N   0  0  0  0  0  0  0  0  0  0  0  0
    8.6976  -16.0222   25.9690 C   0  0  0  0  0  0  0  0  0  0  0  0
    7.7567  -16.8117   26.1688 O   0  0  0  0  0  0  0  0  0  0  0  0
   12.3026  -17.9929   25.8263 O   0  0  0  0  0  0  0  0  0  0  0  0
   11.0742  -18.5776   26.1110 C   0  0  0  0  0  0  0  0  0  0  0  0
   10.2218  -17.7305   27.0051 C   0  0  2  0  0  0  0  0  0  0  0  0
    9.9841  -16.4041   26.4121 N   0  0  0  0  0  0  0  0  0  0  0  0
   10.8131  -17.5772   28.3677 C   0  0  0  0  0  0  0  0  0  0  0  0
   11.1145  -18.6084   29.0206 O   0  0  0  0  0  0  0  0  0  0  0  0
   11.0447  -16.3500   28.9454 O   0  0  0  0  0  0  0  0  0  0  0  0
  2  3  2  0
  2  1  1  0
  4  3  1  0
  5  4  2  0
  6  5  1  0
  7  9  1  0
  7  6  1  0
  7  8  1  6
  9 18  1  0
 10  9  2  0
 11  5  1  0
 11 12  2  0
 12  2  1  0
 13 14  1  0
 15 17  1  0
 15 14  1  0
 15 16  1  1
 17 18  1  6
 19 20  2  0
 19 17  1  0
 22 21  1  0
 23 24  1  0
 23 22  1  6
 24 19  1  0
 25 23  1  0
 26 25  2  0
 27 25  1  0
M  END
$$$$
