YIS.pdb
     RDKit          3D

 27 27  0  0  1  0  0  0  0  0999 V2000
    6.8851  -20.9211   17.5527 O   0  0  0  0  0  0  0  0  0  0  0  0
    7.3330  -20.2349   18.6810 C   0  0  0  0  0  0  0  0  0  0  0  0
    6.4816  -19.9031   19.7125 C   0  0  0  0  0  0  0  0  0  0  0  0
    6.9169  -19.2280   20.8249 C   0  0  0  0  0  0  0  0  0  0  0  0
    8.2335  -18.8467   20.9660 C   0  0  0  0  0  0  0  0  0  0  0  0
    8.7362  -18.1204   22.1470 C   0  0  0  0  0  0  0  0  0  0  0  0
    8.8103  -16.6121   21.8715 C   0  0  2  0  0  0  0  0  0  0  0  0
    9.7426  -16.4172   20.8084 N   0  0  0  0  0  0  0  0  0  0  0  0
    9.1784  -15.8876   23.1187 C   0  0  0  0  0  0  0  0  0  0  0  0
   10.3905  -15.8840   23.4391 O   0  0  0  0  0  0  0  0  0  0  0  0
    9.1010  -19.1748   19.9343 C   0  0  0  0  0  0  0  0  0  0  0  0
    8.6528  -19.8535   18.8208 C   0  0  0  0  0  0  0  0  0  0  0  0
    7.1765  -11.4920   26.9836 C   0  0  0  0  0  0  0  0  0  0  0  0
    8.0162  -12.7246   26.7930 C   0  0  0  0  0  0  0  0  0  0  0  0
    7.7383  -13.4698   25.5409 C   0  0  2  0  0  0  0  0  0  0  0  0
    6.2327  -13.6806   25.4796 C   0  0  0  0  0  0  0  0  0  0  0  0
    8.5652  -14.6374   25.2209 C   0  0  2  0  0  0  0  0  0  0  0  0
    8.2388  -15.2231   23.9313 N   0  0  0  0  0  0  0  0  0  0  0  0
    8.8107  -15.6330   26.2811 C   0  0  0  0  0  0  0  0  0  0  0  0
    7.9092  -16.4391   26.5743 O   0  0  0  0  0  0  0  0  0  0  0  0
   12.4384  -17.2531   26.9896 O   0  0  0  0  0  0  0  0  0  0  0  0
   11.2304  -17.8173   27.3826 C   0  0  0  0  0  0  0  0  0  0  0  0
   10.2767  -16.8103   27.9483 C   0  0  2  0  0  0  0  0  0  0  0  0
   10.0286  -15.7180   26.9930 N   0  0  0  0  0  0  0  0  0  0  0  0
   10.7548  -16.2486   29.2467 C   0  0  0  0  0  0  0  0  0  0  0  0
   10.8730  -15.0026   29.3648 O   0  0  0  0  0  0  0  0  0  0  0  0
   11.0741  -17.0382   30.3273 O   0  0  0  0  0  0  0  0  0  0  0  0
  2  3  2  0
  2  1  1  0
  4  3  1  0
  5  4  2  0
  6  5  1  0
  7  9  1  0
  7  6  1  0
  7  8  1  6
  9 18  1  0
 10  9  2  0
 11  5  1  0
 11 12  2  0
 12  2  1  0
 13 14  1  0
 15 17  1  0
 15 14  1  0
 15 16  1  1
 17 18  1  6
 19 20  2  0
 19 17  1  0
 22 21  1  0
 23 24  1  0
 23 22  1  6
 24 19  1  0
 25 23  1  0
 26 25  2  0
 27 25  1  0
M  END
$$$$
