YIS.pdb
     RDKit          3D

 27 27  0  0  1  0  0  0  0  0999 V2000
    6.6666  -10.4776   27.0241 O   0  0  0  0  0  0  0  0  0  0  0  0
    6.7511  -11.8484   26.7828 C   0  0  0  0  0  0  0  0  0  0  0  0
    5.6338  -12.6549   26.7871 C   0  0  0  0  0  0  0  0  0  0  0  0
    5.7111  -14.0042   26.5503 C   0  0  0  0  0  0  0  0  0  0  0  0
    6.9160  -14.6222   26.2953 C   0  0  0  0  0  0  0  0  0  0  0  0
    7.0366  -16.0691   26.0367 C   0  0  0  0  0  0  0  0  0  0  0  0
    6.3245  -16.4533   24.7322 C   0  0  2  0  0  0  0  0  0  0  0  0
    5.6066  -17.6624   24.9774 N   0  0  0  0  0  0  0  0  0  0  0  0
    7.3176  -16.5707   23.6295 C   0  0  0  0  0  0  0  0  0  0  0  0
    7.7795  -17.7129   23.3976 O   0  0  0  0  0  0  0  0  0  0  0  0
    8.0487  -13.8212   26.2882 C   0  0  0  0  0  0  0  0  0  0  0  0
    7.9594  -12.4661   26.5274 C   0  0  0  0  0  0  0  0  0  0  0  0
    7.3690  -12.3807   20.0682 C   0  0  0  0  0  0  0  0  0  0  0  0
    7.3182  -13.8323   20.4569 C   0  0  0  0  0  0  0  0  0  0  0  0
    8.6260  -14.4077   20.8555 C   0  0  2  0  0  0  0  0  0  0  0  0
    9.4739  -14.4877   19.5946 C   0  0  0  0  0  0  0  0  0  0  0  0
    8.6375  -15.5952   21.7152 C   0  0  2  0  0  0  0  0  0  0  0  0
    7.7464  -15.4733   22.8570 N   0  0  0  0  0  0  0  0  0  0  0  0
    9.9374  -16.2126   22.0388 C   0  0  0  0  0  0  0  0  0  0  0  0
   10.6208  -15.7347   22.9623 O   0  0  0  0  0  0  0  0  0  0  0  0
   13.2896  -19.6868   21.1651 O   0  0  0  0  0  0  0  0  0  0  0  0
   12.0150  -19.1769   20.9480 C   0  0  0  0  0  0  0  0  0  0  0  0
   11.7629  -17.9059   21.6993 C   0  0  2  0  0  0  0  0  0  0  0  0
   10.4560  -17.3288   21.3441 N   0  0  0  0  0  0  0  0  0  0  0  0
   12.8399  -16.8959   21.4757 C   0  0  0  0  0  0  0  0  0  0  0  0
   12.7372  -16.0997   20.5082 O   0  0  0  0  0  0  0  0  0  0  0  0
   13.9474  -16.7963   22.2861 O   0  0  0  0  0  0  0  0  0  0  0  0
  2  3  2  0
  2  1  1  0
  4  3  1  0
  5  4  2  0
  6  5  1  0
  7  9  1  0
  7  6  1  0
  7  8  1  1
  9 18  1  0
 10  9  2  0
 11  5  1  0
 11 12  2  0
 12  2  1  0
 13 14  1  0
 15 17  1  0
 15 14  1  0
 15 16  1  6
 17 18  1  1
 19 20  2  0
 19 17  1  0
 22 21  1  0
 23 24  1  0
 23 22  1  6
 24 19  1  0
 25 23  1  0
 26 25  2  0
 27 25  1  0
M  END
$$$$
