YIS.pdb
     RDKit          3D

 27 27  0  0  1  0  0  0  0  0999 V2000
    7.1469  -13.5092   15.7497 O   0  0  0  0  0  0  0  0  0  0  0  0
    7.2411  -13.8988   17.0853 C   0  0  0  0  0  0  0  0  0  0  0  0
    6.8281  -15.1438   17.5076 C   0  0  0  0  0  0  0  0  0  0  0  0
    6.9185  -15.5322   18.8204 C   0  0  0  0  0  0  0  0  0  0  0  0
    7.4292  -14.6923   19.7860 C   0  0  0  0  0  0  0  0  0  0  0  0
    7.5412  -15.0761   21.2056 C   0  0  0  0  0  0  0  0  0  0  0  0
    8.8744  -14.5988   21.7982 C   0  0  2  0  0  0  0  0  0  0  0  0
    9.9201  -15.1667   21.0097 N   0  0  0  0  0  0  0  0  0  0  0  0
    8.9512  -14.9731   23.2369 C   0  0  0  0  0  0  0  0  0  0  0  0
    9.8826  -15.7402   23.5774 O   0  0  0  0  0  0  0  0  0  0  0  0
    7.8485  -13.4358   19.3737 C   0  0  0  0  0  0  0  0  0  0  0  0
    7.7532  -13.0557   18.0516 C   0  0  0  0  0  0  0  0  0  0  0  0
    6.0485  -11.5838   26.4341 C   0  0  0  0  0  0  0  0  0  0  0  0
    7.2061  -12.3170   25.8151 C   0  0  0  0  0  0  0  0  0  0  0  0
    7.4788  -13.6483   26.4097 C   0  0  2  0  0  0  0  0  0  0  0  0
    7.9374  -13.4055   27.8400 C   0  0  0  0  0  0  0  0  0  0  0  0
    8.2656  -14.6142   25.6368 C   0  0  2  0  0  0  0  0  0  0  0  0
    8.0389  -14.5089   24.2050 N   0  0  0  0  0  0  0  0  0  0  0  0
    8.3444  -16.0036   26.1256 C   0  0  0  0  0  0  0  0  0  0  0  0
    7.2992  -16.6724   26.2182 O   0  0  0  0  0  0  0  0  0  0  0  0
   11.6464  -18.3872   25.8579 O   0  0  0  0  0  0  0  0  0  0  0  0
   10.3865  -18.8992   26.1448 C   0  0  0  0  0  0  0  0  0  0  0  0
    9.5808  -17.9966   27.0279 C   0  0  2  0  0  0  0  0  0  0  0  0
    9.5582  -16.6213   26.5031 N   0  0  0  0  0  0  0  0  0  0  0  0
   10.0796  -17.9932   28.4354 C   0  0  0  0  0  0  0  0  0  0  0  0
   10.1755  -19.0854   29.0504 O   0  0  0  0  0  0  0  0  0  0  0  0
   10.4416  -16.8409   29.0945 O   0  0  0  0  0  0  0  0  0  0  0  0
  2  3  2  0
  2  1  1  0
  4  3  1  0
  5  4  2  0
  6  5  1  0
  7  9  1  0
  7  6  1  0
  7  8  1  6
  9 18  1  0
 10  9  2  0
 11  5  1  0
 11 12  2  0
 12  2  1  0
 13 14  1  0
 15 17  1  0
 15 14  1  0
 15 16  1  1
 17 18  1  6
 19 20  2  0
 19 17  1  0
 22 21  1  0
 23 24  1  0
 23 22  1  6
 24 19  1  0
 25 23  1  0
 26 25  2  0
 27 25  1  0
M  END
$$$$
