YIS.pdb
     RDKit          3D

 27 27  0  0  1  0  0  0  0  0999 V2000
   11.8296  -19.5471   30.6175 O   0  0  0  0  0  0  0  0  0  0  0  0
   11.0060  -19.4084   29.5008 C   0  0  0  0  0  0  0  0  0  0  0  0
   10.4198  -18.2037   29.1783 C   0  0  0  0  0  0  0  0  0  0  0  0
    9.6086  -18.0615   28.0808 C   0  0  0  0  0  0  0  0  0  0  0  0
    9.3388  -19.1217   27.2431 C   0  0  0  0  0  0  0  0  0  0  0  0
    8.4721  -19.0055   26.0555 C   0  0  0  0  0  0  0  0  0  0  0  0
    7.1538  -18.3018   26.4066 C   0  0  2  0  0  0  0  0  0  0  0  0
    6.1353  -19.3009   26.4530 N   0  0  0  0  0  0  0  0  0  0  0  0
    6.8772  -17.2235   25.4184 C   0  0  0  0  0  0  0  0  0  0  0  0
    6.2460  -17.5463   24.3844 O   0  0  0  0  0  0  0  0  0  0  0  0
    9.9229  -20.3403   27.5569 C   0  0  0  0  0  0  0  0  0  0  0  0
   10.7366  -20.4720   28.6624 C   0  0  0  0  0  0  0  0  0  0  0  0
    6.3669  -12.2029   27.0396 C   0  0  0  0  0  0  0  0  0  0  0  0
    6.0284  -13.2263   25.9913 C   0  0  0  0  0  0  0  0  0  0  0  0
    7.1312  -13.5247   25.0452 C   0  0  2  0  0  0  0  0  0  0  0  0
    7.1219  -12.4219   23.9971 C   0  0  0  0  0  0  0  0  0  0  0  0
    7.2697  -14.8934   24.5382 C   0  0  2  0  0  0  0  0  0  0  0  0
    7.2884  -15.8880   25.5979 N   0  0  0  0  0  0  0  0  0  0  0  0
    8.2518  -15.1470   23.4674 C   0  0  0  0  0  0  0  0  0  0  0  0
    9.4363  -15.3735   23.7741 O   0  0  0  0  0  0  0  0  0  0  0  0
    7.0983  -16.4283   19.6924 O   0  0  0  0  0  0  0  0  0  0  0  0
    8.2436  -15.6412   19.7185 C   0  0  0  0  0  0  0  0  0  0  0  0
    8.8789  -15.5862   21.0739 C   0  0  2  0  0  0  0  0  0  0  0  0
    7.9156  -15.1421   22.0947 N   0  0  0  0  0  0  0  0  0  0  0  0
   10.0833  -14.7037   21.0964 C   0  0  0  0  0  0  0  0  0  0  0  0
    9.9535  -13.5045   21.4507 O   0  0  0  0  0  0  0  0  0  0  0  0
   11.3376  -15.1465   20.7444 O   0  0  0  0  0  0  0  0  0  0  0  0
  2  3  2  0
  2  1  1  0
  4  3  1  0
  5  4  2  0
  6  5  1  0
  7  9  1  0
  7  6  1  0
  7  8  1  6
  9 18  1  0
 10  9  2  0
 11  5  1  0
 11 12  2  0
 12  2  1  0
 13 14  1  0
 15 17  1  0
 15 14  1  0
 15 16  1  6
 17 18  1  1
 19 20  2  0
 19 17  1  0
 22 21  1  0
 23 24  1  0
 23 22  1  6
 24 19  1  0
 25 23  1  0
 26 25  2  0
 27 25  1  0
M  END
$$$$
