YIS.pdb
     RDKit          3D

 27 27  0  0  1  0  0  0  0  0999 V2000
   10.7726  -14.1303   30.8489 O   0  0  0  0  0  0  0  0  0  0  0  0
   10.5565  -14.5187   29.5272 C   0  0  0  0  0  0  0  0  0  0  0  0
   10.7908  -15.8089   29.1037 C   0  0  0  0  0  0  0  0  0  0  0  0
   10.5799  -16.1965   27.8045 C   0  0  0  0  0  0  0  0  0  0  0  0
   10.1210  -15.3101   26.8545 C   0  0  0  0  0  0  0  0  0  0  0  0
    9.8831  -15.6915   25.4499 C   0  0  0  0  0  0  0  0  0  0  0  0
    8.3844  -15.6567   25.1195 C   0  0  2  0  0  0  0  0  0  0  0  0
    7.7349  -16.5905   25.9819 N   0  0  0  0  0  0  0  0  0  0  0  0
    8.1783  -15.9471   23.6741 C   0  0  0  0  0  0  0  0  0  0  0  0
    7.7488  -17.0869   23.3773 O   0  0  0  0  0  0  0  0  0  0  0  0
    9.8811  -14.0078   27.2682 C   0  0  0  0  0  0  0  0  0  0  0  0
   10.0965  -13.6290   28.5765 C   0  0  0  0  0  0  0  0  0  0  0  0
    7.1352  -11.8218   20.3018 C   0  0  0  0  0  0  0  0  0  0  0  0
    7.0163  -13.2083   20.8711 C   0  0  0  0  0  0  0  0  0  0  0  0
    8.0622  -14.1537   20.4099 C   0  0  2  0  0  0  0  0  0  0  0  0
    7.7903  -14.4263   18.9380 C   0  0  0  0  0  0  0  0  0  0  0  0
    8.3621  -15.3265   21.2371 C   0  0  2  0  0  0  0  0  0  0  0  0
    8.4415  -15.0119   22.6538 N   0  0  0  0  0  0  0  0  0  0  0  0
    9.4072  -16.2595   20.7758 C   0  0  0  0  0  0  0  0  0  0  0  0
   10.5901  -16.0518   21.1014 O   0  0  0  0  0  0  0  0  0  0  0  0
   10.6278  -20.5089   18.6805 O   0  0  0  0  0  0  0  0  0  0  0  0
    9.6454  -19.6237   19.1084 C   0  0  0  0  0  0  0  0  0  0  0  0
   10.2057  -18.3119   19.5655 C   0  0  2  0  0  0  0  0  0  0  0  0
    9.1334  -17.3880   19.9702 N   0  0  0  0  0  0  0  0  0  0  0  0
   11.0603  -17.6699   18.5226 C   0  0  0  0  0  0  0  0  0  0  0  0
   10.6130  -16.6766   17.8952 O   0  0  0  0  0  0  0  0  0  0  0  0
   12.3238  -18.1194   18.2149 O   0  0  0  0  0  0  0  0  0  0  0  0
  2  3  2  0
  2  1  1  0
  4  3  1  0
  5  4  2  0
  6  5  1  0
  7  9  1  0
  7  6  1  0
  7  8  1  1
  9 18  1  0
 10  9  2  0
 11  5  1  0
 11 12  2  0
 12  2  1  0
 13 14  1  0
 15 17  1  0
 15 14  1  0
 15 16  1  6
 17 18  1  1
 19 20  2  0
 19 17  1  0
 22 21  1  0
 23 24  1  0
 23 22  1  6
 24 19  1  0
 25 23  1  0
 26 25  2  0
 27 25  1  0
M  END
$$$$
