YIS.pdb
     RDKit          3D

 27 27  0  0  1  0  0  0  0  0999 V2000
    7.3371  -13.6570   15.4270 O   0  0  0  0  0  0  0  0  0  0  0  0
    7.3809  -13.9870   16.7812 C   0  0  0  0  0  0  0  0  0  0  0  0
    7.1519  -15.2726   17.2213 C   0  0  0  0  0  0  0  0  0  0  0  0
    7.1937  -15.6028   18.5524 C   0  0  0  0  0  0  0  0  0  0  0  0
    7.4682  -14.6604   19.5195 C   0  0  0  0  0  0  0  0  0  0  0  0
    7.5213  -14.9793   20.9583 C   0  0  0  0  0  0  0  0  0  0  0  0
    8.8732  -14.5709   21.5601 C   0  0  2  0  0  0  0  0  0  0  0  0
    9.8886  -15.2785   20.8490 N   0  0  0  0  0  0  0  0  0  0  0  0
    8.8787  -14.8442   23.0234 C   0  0  0  0  0  0  0  0  0  0  0  0
    9.7447  -15.6438   23.4506 O   0  0  0  0  0  0  0  0  0  0  0  0
    7.7007  -13.3621   19.0893 C   0  0  0  0  0  0  0  0  0  0  0  0
    7.6562  -13.0413   17.7489 C   0  0  0  0  0  0  0  0  0  0  0  0
    5.8230  -11.3590   26.2101 C   0  0  0  0  0  0  0  0  0  0  0  0
    6.9213  -12.1258   25.5270 C   0  0  0  0  0  0  0  0  0  0  0  0
    7.1631  -13.4796   26.0829 C   0  0  2  0  0  0  0  0  0  0  0  0
    7.4326  -13.3027   27.5698 C   0  0  0  0  0  0  0  0  0  0  0  0
    8.0715  -14.3803   25.3668 C   0  0  2  0  0  0  0  0  0  0  0  0
    7.9697  -14.2524   23.9225 N   0  0  0  0  0  0  0  0  0  0  0  0
    8.1865  -15.7747   25.8335 C   0  0  0  0  0  0  0  0  0  0  0  0
    7.2099  -16.5361   25.7110 O   0  0  0  0  0  0  0  0  0  0  0  0
   11.5291  -18.0274   25.8182 O   0  0  0  0  0  0  0  0  0  0  0  0
   10.2525  -18.5414   26.0131 C   0  0  0  0  0  0  0  0  0  0  0  0
    9.4132  -17.6850   26.9109 C   0  0  2  0  0  0  0  0  0  0  0  0
    9.3597  -16.2969   26.4236 N   0  0  0  0  0  0  0  0  0  0  0  0
    9.8960  -17.7074   28.3239 C   0  0  0  0  0  0  0  0  0  0  0  0
   10.1705  -16.6196   28.8912 O   0  0  0  0  0  0  0  0  0  0  0  0
   10.0553  -18.8725   29.0381 O   0  0  0  0  0  0  0  0  0  0  0  0
  2  3  2  0
  2  1  1  0
  4  3  1  0
  5  4  2  0
  6  5  1  0
  7  9  1  0
  7  6  1  0
  7  8  1  6
  9 18  1  0
 10  9  2  0
 11  5  1  0
 11 12  2  0
 12  2  1  0
 13 14  1  0
 15 17  1  0
 15 14  1  0
 15 16  1  1
 17 18  1  6
 19 20  2  0
 19 17  1  0
 22 21  1  0
 23 24  1  0
 23 22  1  6
 24 19  1  0
 25 23  1  0
 26 25  2  0
 27 25  1  0
M  END
$$$$
