YIS.pdb
     RDKit          3D

 27 27  0  0  1  0  0  0  0  0999 V2000
    5.7820  -19.0138   16.6737 O   0  0  0  0  0  0  0  0  0  0  0  0
    6.3451  -18.5785   17.8729 C   0  0  0  0  0  0  0  0  0  0  0  0
    5.5667  -18.1314   18.9185 C   0  0  0  0  0  0  0  0  0  0  0  0
    6.1154  -17.7021   20.1005 C   0  0  0  0  0  0  0  0  0  0  0  0
    7.4786  -17.6968   20.3012 C   0  0  0  0  0  0  0  0  0  0  0  0
    8.1028  -17.2425   21.5578 C   0  0  0  0  0  0  0  0  0  0  0  0
    8.1990  -15.7110   21.5988 C   0  0  2  0  0  0  0  0  0  0  0  0
    9.0370  -15.3063   20.5165 N   0  0  0  0  0  0  0  0  0  0  0  0
    8.7010  -15.2713   22.9295 C   0  0  0  0  0  0  0  0  0  0  0  0
    9.9441  -15.2523   23.0918 O   0  0  0  0  0  0  0  0  0  0  0  0
    8.2735  -18.1446   19.2561 C   0  0  0  0  0  0  0  0  0  0  0  0
    7.7114  -18.5739   18.0723 C   0  0  0  0  0  0  0  0  0  0  0  0
    5.9184  -11.6050   25.8574 C   0  0  0  0  0  0  0  0  0  0  0  0
    7.0297  -12.3828   25.2088 C   0  0  0  0  0  0  0  0  0  0  0  0
    7.4971  -13.5542   25.9898 C   0  0  2  0  0  0  0  0  0  0  0  0
    8.0310  -13.0179   27.3097 C   0  0  0  0  0  0  0  0  0  0  0  0
    8.3289  -14.5581   25.3192 C   0  0  2  0  0  0  0  0  0  0  0  0
    7.8523  -14.8857   23.9858 N   0  0  0  0  0  0  0  0  0  0  0  0
    8.7742  -15.7302   26.0960 C   0  0  0  0  0  0  0  0  0  0  0  0
    7.9215  -16.5153   26.5487 O   0  0  0  0  0  0  0  0  0  0  0  0
   11.8573  -17.6195   25.1089 O   0  0  0  0  0  0  0  0  0  0  0  0
   11.7670  -17.8324   26.4795 C   0  0  0  0  0  0  0  0  0  0  0  0
   10.5341  -17.2300   27.0800 C   0  0  2  0  0  0  0  0  0  0  0  0
   10.1341  -16.0096   26.3604 N   0  0  0  0  0  0  0  0  0  0  0  0
   10.7042  -16.9284   28.5326 C   0  0  0  0  0  0  0  0  0  0  0  0
   10.5452  -15.7472   28.9324 O   0  0  0  0  0  0  0  0  0  0  0  0
   11.0295  -17.8914   29.4601 O   0  0  0  0  0  0  0  0  0  0  0  0
  2  3  2  0
  2  1  1  0
  4  3  1  0
  5  4  2  0
  6  5  1  0
  7  9  1  0
  7  6  1  0
  7  8  1  6
  9 18  1  0
 10  9  2  0
 11  5  1  0
 11 12  2  0
 12  2  1  0
 13 14  1  0
 15 17  1  0
 15 14  1  0
 15 16  1  1
 17 18  1  6
 19 20  2  0
 19 17  1  0
 22 21  1  0
 23 24  1  0
 23 22  1  6
 24 19  1  0
 25 23  1  0
 26 25  2  0
 27 25  1  0
M  END
$$$$
