EKA.pdb
     RDKit          3D

 24 23  0  0  1  0  0  0  0  0999 V2000
   20.2653   -9.8966  -14.3172 N   0  0  0  0  0  0  0  0  0  0  0  0
   19.5822   -9.6767  -15.6135 C   0  0  1  0  0  0  0  0  0  0  0  0
   19.4342  -11.0032  -16.2802 C   0  0  0  0  0  0  0  0  0  0  0  0
   19.0049  -12.1418  -15.4330 C   0  0  0  0  0  0  0  0  0  0  0  0
   18.9527  -13.4454  -16.1315 C   0  0  0  0  0  0  0  0  0  0  0  0
   19.9165  -14.2381  -16.0427 O   0  0  0  0  0  0  0  0  0  0  0  0
   18.2770   -9.0012  -15.3452 C   0  0  0  0  0  0  0  0  0  0  0  0
   17.5264   -8.7012  -16.3348 O   0  0  0  0  0  0  0  0  0  0  0  0
   17.8225  -13.7884  -16.8912 O   0  0  0  0  0  0  0  0  0  0  0  0
   17.7935   -8.6625  -14.0669 N   0  0  0  0  0  0  0  0  0  0  0  0
   16.4585   -8.0482  -13.8854 C   0  0  1  0  0  0  0  0  0  0  0  0
   15.9198   -8.7646  -12.6521 C   0  0  0  0  0  0  0  0  0  0  0  0
   14.5742   -8.3667  -12.2205 C   0  0  0  0  0  0  0  0  0  0  0  0
   14.1064   -9.1418  -11.0262 C   0  0  0  0  0  0  0  0  0  0  0  0
   12.7642   -8.8130  -10.4783 C   0  0  0  0  0  0  0  0  0  0  0  0
   12.4164   -9.4603   -9.2534 N   0  0  0  0  0  0  0  0  0  0  0  0
   16.6136   -6.6085  -13.7371 C   0  0  0  0  0  0  0  0  0  0  0  0
   17.5339   -6.1605  -12.9610 O   0  0  0  0  0  0  0  0  0  0  0  0
   15.8740   -3.4424  -15.5041 C   0  0  0  0  0  0  0  0  0  0  0  0
   16.1175   -4.1820  -14.2087 C   0  0  2  0  0  0  0  0  0  0  0  0
   15.8568   -5.5973  -14.3619 N   0  0  0  0  0  0  0  0  0  0  0  0
   15.3364   -3.5525  -13.1545 C   0  0  0  0  0  0  0  0  0  0  0  0
   14.2367   -4.0267  -12.7977 O   0  0  0  0  0  0  0  0  0  0  0  0
   15.7988   -2.4147  -12.5267 O   0  0  0  0  0  0  0  0  0  0  0  0
  2  1  1  1
  2  7  1  0
  2  3  1  0
  3  4  1  0
  4  5  1  0
  5  9  1  0
  6  5  2  0
  7  8  2  0
 10 11  1  0
 10  7  1  0
 11 12  1  1
 12 13  1  0
 13 14  1  0
 14 15  1  0
 16 15  1  0
 17 18  2  0
 17 11  1  0
 20 19  1  6
 20 21  1  0
 21 17  1  0
 22 20  1  0
 22 24  1  0
 23 22  2  0
M  END
$$$$
