EKA.pdb
     RDKit          3D

 24 23  0  0  1  0  0  0  0  0999 V2000
   20.5797   -9.9600  -22.4795 N   0  0  0  0  0  0  0  0  0  0  0  0
   21.0268   -9.9319  -21.0672 C   0  0  1  0  0  0  0  0  0  0  0  0
   22.1961   -9.0094  -20.9786 C   0  0  0  0  0  0  0  0  0  0  0  0
   23.5247   -9.5660  -21.3300 C   0  0  0  0  0  0  0  0  0  0  0  0
   24.2629  -10.1640  -20.1954 C   0  0  0  0  0  0  0  0  0  0  0  0
   24.3768  -11.4071  -20.1130 O   0  0  0  0  0  0  0  0  0  0  0  0
   19.8724   -9.5057  -20.2200 C   0  0  0  0  0  0  0  0  0  0  0  0
   18.9419   -8.8121  -20.7547 O   0  0  0  0  0  0  0  0  0  0  0  0
   24.8328   -9.3350  -19.2155 O   0  0  0  0  0  0  0  0  0  0  0  0
   19.7193   -9.8124  -18.8543 N   0  0  0  0  0  0  0  0  0  0  0  0
   18.4899   -9.4460  -18.1150 C   0  0  1  0  0  0  0  0  0  0  0  0
   18.2353  -10.6747  -17.2490 C   0  0  0  0  0  0  0  0  0  0  0  0
   17.0240  -10.6311  -16.4206 C   0  0  0  0  0  0  0  0  0  0  0  0
   16.7768  -11.9241  -15.7043 C   0  0  0  0  0  0  0  0  0  0  0  0
   15.4622  -12.0946  -15.0317 C   0  0  0  0  0  0  0  0  0  0  0  0
   15.2042  -13.3905  -14.4891 N   0  0  0  0  0  0  0  0  0  0  0  0
   18.7289   -8.2155  -17.3750 C   0  0  0  0  0  0  0  0  0  0  0  0
   19.8080   -8.1051  -16.6869 O   0  0  0  0  0  0  0  0  0  0  0  0
   17.3042   -4.7507  -16.8939 C   0  0  0  0  0  0  0  0  0  0  0  0
   18.1768   -5.9184  -16.4945 C   0  0  2  0  0  0  0  0  0  0  0  0
   17.8985   -7.0787  -17.3135 N   0  0  0  0  0  0  0  0  0  0  0  0
   18.0190   -6.1562  -15.0675 C   0  0  0  0  0  0  0  0  0  0  0  0
   18.2685   -5.2592  -14.2341 O   0  0  0  0  0  0  0  0  0  0  0  0
   17.5888   -7.3832  -14.6069 O   0  0  0  0  0  0  0  0  0  0  0  0
  2  1  1  6
  2  7  1  0
  2  3  1  0
  3  4  1  0
  4  5  1  0
  5  9  1  0
  6  5  2  0
  7  8  2  0
 10 11  1  0
 10  7  1  0
 11 12  1  1
 12 13  1  0
 13 14  1  0
 14 15  1  0
 16 15  1  0
 17 18  2  0
 17 11  1  0
 20 19  1  6
 20 21  1  0
 21 17  1  0
 22 20  1  0
 22 24  1  0
 23 22  2  0
M  END
$$$$
