EKA.pdb
     RDKit          3D

 24 23  0  0  1  0  0  0  0  0999 V2000
   18.8049  -11.3380  -17.6097 N   0  0  0  0  0  0  0  0  0  0  0  0
   18.5234  -10.7819  -16.2655 C   0  0  1  0  0  0  0  0  0  0  0  0
   18.0830  -11.9076  -15.3908 C   0  0  0  0  0  0  0  0  0  0  0  0
   17.3057  -12.9965  -16.0299 C   0  0  0  0  0  0  0  0  0  0  0  0
   16.8871  -14.0777  -15.1103 C   0  0  0  0  0  0  0  0  0  0  0  0
   17.5275  -15.1520  -15.0804 O   0  0  0  0  0  0  0  0  0  0  0  0
   19.7583  -10.0998  -15.7740 C   0  0  0  0  0  0  0  0  0  0  0  0
   19.7866   -9.6751  -14.5692 O   0  0  0  0  0  0  0  0  0  0  0  0
   15.7733  -13.8946  -14.2747 O   0  0  0  0  0  0  0  0  0  0  0  0
   20.9184   -9.8831  -16.5420 N   0  0  0  0  0  0  0  0  0  0  0  0
   22.0951   -9.1816  -15.9802 C   0  0  1  0  0  0  0  0  0  0  0  0
   23.2372   -9.6743  -16.8618 C   0  0  0  0  0  0  0  0  0  0  0  0
   24.5574   -9.0995  -16.5755 C   0  0  0  0  0  0  0  0  0  0  0  0
   25.5917   -9.5221  -17.5743 C   0  0  0  0  0  0  0  0  0  0  0  0
   26.9212   -8.8609  -17.5059 C   0  0  0  0  0  0  0  0  0  0  0  0
   27.7919   -9.0979  -18.6132 N   0  0  0  0  0  0  0  0  0  0  0  0
   21.8608   -7.7457  -16.0291 C   0  0  0  0  0  0  0  0  0  0  0  0
   21.4136   -7.2268  -17.1157 O   0  0  0  0  0  0  0  0  0  0  0  0
   20.2980   -5.1780  -15.3987 C   0  0  0  0  0  0  0  0  0  0  0  0
   21.7658   -5.3986  -15.1135 C   0  0  2  0  0  0  0  0  0  0  0  0
   22.0658   -6.8095  -14.9961 N   0  0  0  0  0  0  0  0  0  0  0  0
   22.1388   -4.6202  -13.9418 C   0  0  0  0  0  0  0  0  0  0  0  0
   22.5386   -5.1794  -12.8983 O   0  0  0  0  0  0  0  0  0  0  0  0
   22.0571   -3.2434  -13.9625 O   0  0  0  0  0  0  0  0  0  0  0  0
  2  1  1  6
  2  7  1  0
  2  3  1  0
  3  4  1  0
  4  5  1  0
  5  9  1  0
  6  5  2  0
  7  8  2  0
 10 11  1  0
 10  7  1  0
 11 12  1  6
 12 13  1  0
 13 14  1  0
 14 15  1  0
 16 15  1  0
 17 18  2  0
 17 11  1  0
 20 19  1  1
 20 21  1  0
 21 17  1  0
 22 20  1  0
 22 24  1  0
 23 22  2  0
M  END
$$$$
