EKA.pdb
     RDKit          3D

 24 23  0  0  1  0  0  0  0  0999 V2000
   20.0050  -12.4015  -18.6697 N   0  0  0  0  0  0  0  0  0  0  0  0
   21.0433  -11.7593  -17.8302 C   0  0  1  0  0  0  0  0  0  0  0  0
   22.2920  -11.6682  -18.6418 C   0  0  0  0  0  0  0  0  0  0  0  0
   23.0279  -12.9303  -18.8946 C   0  0  0  0  0  0  0  0  0  0  0  0
   23.5698  -13.5821  -17.6815 C   0  0  0  0  0  0  0  0  0  0  0  0
   22.7890  -13.9955  -16.7957 O   0  0  0  0  0  0  0  0  0  0  0  0
   20.5285  -10.4289  -17.3865 C   0  0  0  0  0  0  0  0  0  0  0  0
   20.1824   -9.5776  -18.2743 O   0  0  0  0  0  0  0  0  0  0  0  0
   24.9574  -13.7345  -17.5286 O   0  0  0  0  0  0  0  0  0  0  0  0
   20.3875  -10.0269  -16.0444 N   0  0  0  0  0  0  0  0  0  0  0  0
   19.8363   -8.6988  -15.6913 C   0  0  1  0  0  0  0  0  0  0  0  0
   18.6519   -9.0492  -14.7975 C   0  0  0  0  0  0  0  0  0  0  0  0
   17.4344   -9.4835  -15.4934 C   0  0  0  0  0  0  0  0  0  0  0  0
   16.2969   -9.7326  -14.5501 C   0  0  0  0  0  0  0  0  0  0  0  0
   15.0684  -10.3570  -15.1072 C   0  0  0  0  0  0  0  0  0  0  0  0
   14.0399  -10.6579  -14.1628 N   0  0  0  0  0  0  0  0  0  0  0  0
   20.8753   -7.9085  -15.0473 C   0  0  0  0  0  0  0  0  0  0  0  0
   21.6132   -8.4638  -14.1544 O   0  0  0  0  0  0  0  0  0  0  0  0
   22.7669   -4.7010  -15.4651 C   0  0  0  0  0  0  0  0  0  0  0  0
   22.2679   -5.8506  -14.6203 C   0  0  2  0  0  0  0  0  0  0  0  0
   21.1947   -6.5571  -15.2864 N   0  0  0  0  0  0  0  0  0  0  0  0
   21.9087   -5.3448  -13.3038 C   0  0  0  0  0  0  0  0  0  0  0  0
   20.7162   -5.1248  -13.0023 O   0  0  0  0  0  0  0  0  0  0  0  0
   22.8840   -5.0978  -12.3602 O   0  0  0  0  0  0  0  0  0  0  0  0
  2  1  1  6
  2  7  1  0
  2  3  1  0
  3  4  1  0
  4  5  1  0
  5  9  1  0
  6  5  2  0
  7  8  2  0
 10 11  1  0
 10  7  1  0
 11 12  1  1
 12 13  1  0
 13 14  1  0
 14 15  1  0
 16 15  1  0
 17 18  2  0
 17 11  1  0
 20 19  1  6
 20 21  1  0
 21 17  1  0
 22 20  1  0
 22 24  1  0
 23 22  2  0
M  END
$$$$
