EKA.pdb
     RDKit          3D

 24 23  0  0  1  0  0  0  0  0999 V2000
   17.2231  -12.7201  -14.8840 N   0  0  0  0  0  0  0  0  0  0  0  0
   18.4010  -12.4660  -15.7460 C   0  0  1  0  0  0  0  0  0  0  0  0
   18.1574  -13.1345  -17.0575 C   0  0  0  0  0  0  0  0  0  0  0  0
   17.0859  -14.1581  -17.1060 C   0  0  0  0  0  0  0  0  0  0  0  0
   16.8646  -14.7569  -18.4411 C   0  0  0  0  0  0  0  0  0  0  0  0
   17.2474  -15.9257  -18.6701 O   0  0  0  0  0  0  0  0  0  0  0  0
   18.5855  -10.9879  -15.8614 C   0  0  0  0  0  0  0  0  0  0  0  0
   19.5108  -10.5425  -16.6217 O   0  0  0  0  0  0  0  0  0  0  0  0
   16.2262  -14.0120  -19.4460 O   0  0  0  0  0  0  0  0  0  0  0  0
   17.8079  -10.0247  -15.1905 N   0  0  0  0  0  0  0  0  0  0  0  0
   18.0035   -8.5760  -15.4259 C   0  0  1  0  0  0  0  0  0  0  0  0
   16.7019   -7.9698  -14.9131 C   0  0  0  0  0  0  0  0  0  0  0  0
   16.6668   -6.5040  -14.8391 C   0  0  0  0  0  0  0  0  0  0  0  0
   15.6430   -5.9113  -15.7592 C   0  0  0  0  0  0  0  0  0  0  0  0
   15.5394   -4.4292  -15.8058 C   0  0  0  0  0  0  0  0  0  0  0  0
   14.6210   -3.8993  -16.7629 N   0  0  0  0  0  0  0  0  0  0  0  0
   19.2005   -8.1373  -14.7235 C   0  0  0  0  0  0  0  0  0  0  0  0
   19.2871   -8.3413  -13.4582 O   0  0  0  0  0  0  0  0  0  0  0  0
   22.7546   -7.2564  -15.2455 C   0  0  0  0  0  0  0  0  0  0  0  0
   21.4612   -7.0452  -14.4926 C   0  0  2  0  0  0  0  0  0  0  0  0
   20.3273   -7.4932  -15.2723 N   0  0  0  0  0  0  0  0  0  0  0  0
   21.3778   -5.6509  -14.0839 C   0  0  0  0  0  0  0  0  0  0  0  0
   22.1881   -5.1716  -13.2623 O   0  0  0  0  0  0  0  0  0  0  0  0
   20.3973   -4.8291  -14.5993 O   0  0  0  0  0  0  0  0  0  0  0  0
  2  1  1  1
  2  7  1  0
  2  3  1  0
  3  4  1  0
  4  5  1  0
  5  9  1  0
  6  5  2  0
  7  8  2  0
 10 11  1  0
 10  7  1  0
 11 12  1  1
 12 13  1  0
 13 14  1  0
 14 15  1  0
 16 15  1  0
 17 18  2  0
 17 11  1  0
 20 19  1  6
 20 21  1  0
 21 17  1  0
 22 20  1  0
 22 24  1  0
 23 22  2  0
M  END
$$$$
