EKA.pdb
     RDKit          3D

 24 23  0  0  1  0  0  0  0  0999 V2000
   17.7806  -12.5650  -16.1264 N   0  0  0  0  0  0  0  0  0  0  0  0
   17.7832  -11.3688  -17.0007 C   0  0  1  0  0  0  0  0  0  0  0  0
   16.5135  -10.6243  -16.7565 C   0  0  0  0  0  0  0  0  0  0  0  0
   16.1783  -10.3025  -15.3484 C   0  0  0  0  0  0  0  0  0  0  0  0
   14.9424   -9.5074  -15.1746 C   0  0  0  0  0  0  0  0  0  0  0  0
   13.8973  -10.0625  -14.7686 O   0  0  0  0  0  0  0  0  0  0  0  0
   19.0064  -10.5680  -16.6931 C   0  0  0  0  0  0  0  0  0  0  0  0
   19.5917  -10.7479  -15.5716 O   0  0  0  0  0  0  0  0  0  0  0  0
   14.9463   -8.1336  -15.4656 O   0  0  0  0  0  0  0  0  0  0  0  0
   19.5815   -9.6136  -17.5539 N   0  0  0  0  0  0  0  0  0  0  0  0
   20.8612   -8.9473  -17.2212 C   0  0  1  0  0  0  0  0  0  0  0  0
   21.3735   -8.4958  -18.5844 C   0  0  0  0  0  0  0  0  0  0  0  0
   22.6664   -7.8002  -18.5813 C   0  0  0  0  0  0  0  0  0  0  0  0
   23.1303   -7.4537  -19.9636 C   0  0  0  0  0  0  0  0  0  0  0  0
   24.4430   -6.7688  -20.0946 C   0  0  0  0  0  0  0  0  0  0  0  0
   24.9510   -6.6458  -21.4239 N   0  0  0  0  0  0  0  0  0  0  0  0
   20.6050   -7.8696  -16.2769 C   0  0  0  0  0  0  0  0  0  0  0  0
   19.5258   -7.1832  -16.3970 O   0  0  0  0  0  0  0  0  0  0  0  0
   21.8415   -6.5339  -12.9853 C   0  0  0  0  0  0  0  0  0  0  0  0
   21.0676   -6.4056  -14.2772 C   0  0  2  0  0  0  0  0  0  0  0  0
   21.4180   -7.4641  -15.1998 N   0  0  0  0  0  0  0  0  0  0  0  0
   21.2694   -5.0684  -14.8147 C   0  0  0  0  0  0  0  0  0  0  0  0
   21.8409   -4.8955  -15.9124 O   0  0  0  0  0  0  0  0  0  0  0  0
   20.8308   -3.9616  -14.1180 O   0  0  0  0  0  0  0  0  0  0  0  0
  2  1  1  1
  2  7  1  0
  2  3  1  0
  3  4  1  0
  4  5  1  0
  5  9  1  0
  6  5  2  0
  7  8  2  0
 10 11  1  0
 10  7  1  0
 11 12  1  6
 12 13  1  0
 13 14  1  0
 14 15  1  0
 16 15  1  0
 17 18  2  0
 17 11  1  0
 20 19  1  1
 20 21  1  0
 21 17  1  0
 22 20  1  0
 22 24  1  0
 23 22  2  0
M  END
$$$$
