EKA.pdb
     RDKit          3D

 24 23  0  0  1  0  0  0  0  0999 V2000
   25.1472  -17.4002  -19.0946 N   0  0  0  0  0  0  0  0  0  0  0  0
   23.9783  -17.0940  -18.2372 C   0  0  1  0  0  0  0  0  0  0  0  0
   22.8917  -16.5747  -19.1180 C   0  0  0  0  0  0  0  0  0  0  0  0
   23.0408  -15.1921  -19.6324 C   0  0  0  0  0  0  0  0  0  0  0  0
   24.1869  -14.9945  -20.5476 C   0  0  0  0  0  0  0  0  0  0  0  0
   24.0099  -15.0394  -21.7852 O   0  0  0  0  0  0  0  0  0  0  0  0
   23.5993  -18.3382  -17.5021 C   0  0  0  0  0  0  0  0  0  0  0  0
   23.4080  -19.4110  -18.1693 O   0  0  0  0  0  0  0  0  0  0  0  0
   25.4684  -14.7575  -20.0245 O   0  0  0  0  0  0  0  0  0  0  0  0
   23.4340  -18.4303  -16.1068 N   0  0  0  0  0  0  0  0  0  0  0  0
   23.0748  -19.7109  -15.4559 C   0  0  1  0  0  0  0  0  0  0  0  0
   23.8218  -19.6386  -14.1288 C   0  0  0  0  0  0  0  0  0  0  0  0
   23.6706  -20.8031  -13.2478 C   0  0  0  0  0  0  0  0  0  0  0  0
   24.3415  -22.0250  -13.7981 C   0  0  0  0  0  0  0  0  0  0  0  0
   24.1774  -23.2955  -13.0442 C   0  0  0  0  0  0  0  0  0  0  0  0
   24.8070  -24.4436  -13.6148 N   0  0  0  0  0  0  0  0  0  0  0  0
   21.6264  -19.7948  -15.3384 C   0  0  0  0  0  0  0  0  0  0  0  0
   20.9851  -18.7965  -14.8460 O   0  0  0  0  0  0  0  0  0  0  0  0
   18.7579  -22.1549  -16.0855 C   0  0  0  0  0  0  0  0  0  0  0  0
   19.3677  -20.9038  -15.4961 C   0  0  2  0  0  0  0  0  0  0  0  0
   20.7983  -20.8718  -15.7124 N   0  0  0  0  0  0  0  0  0  0  0  0
   18.9840  -20.8092  -14.0955 C   0  0  0  0  0  0  0  0  0  0  0  0
   19.6817  -21.3321  -13.2004 O   0  0  0  0  0  0  0  0  0  0  0  0
   17.8368  -20.1367  -13.7291 O   0  0  0  0  0  0  0  0  0  0  0  0
  2  1  1  6
  2  7  1  0
  2  3  1  0
  3  4  1  0
  4  5  1  0
  5  9  1  0
  6  5  2  0
  7  8  2  0
 10 11  1  0
 10  7  1  0
 11 12  1  1
 12 13  1  0
 13 14  1  0
 14 15  1  0
 16 15  1  0
 17 18  2  0
 17 11  1  0
 20 19  1  1
 20 21  1  0
 21 17  1  0
 22 20  1  0
 22 24  1  0
 23 22  2  0
M  END
$$$$
