EKA.pdb
     RDKit          3D

 24 23  0  0  1  0  0  0  0  0999 V2000
   17.4766  -10.7040  -16.2968 N   0  0  0  0  0  0  0  0  0  0  0  0
   18.3412   -9.8466  -17.1411 C   0  0  1  0  0  0  0  0  0  0  0  0
   17.5255   -8.6811  -17.5908 C   0  0  0  0  0  0  0  0  0  0  0  0
   16.2771   -8.4001  -16.8419 C   0  0  0  0  0  0  0  0  0  0  0  0
   15.5290   -7.2133  -17.3128 C   0  0  0  0  0  0  0  0  0  0  0  0
   14.4872   -7.3624  -17.9892 O   0  0  0  0  0  0  0  0  0  0  0  0
   19.5385   -9.4553  -16.3377 C   0  0  0  0  0  0  0  0  0  0  0  0
   19.3978   -9.2576  -15.0832 O   0  0  0  0  0  0  0  0  0  0  0  0
   15.9902   -5.9244  -16.9993 O   0  0  0  0  0  0  0  0  0  0  0  0
   20.8360   -9.2847  -16.8572 N   0  0  0  0  0  0  0  0  0  0  0  0
   21.9856   -8.9798  -15.9752 C   0  0  1  0  0  0  0  0  0  0  0  0
   23.1048   -9.8265  -16.5711 C   0  0  0  0  0  0  0  0  0  0  0  0
   24.4134   -9.7055  -15.9167 C   0  0  0  0  0  0  0  0  0  0  0  0
   25.4287  -10.6438  -16.4953 C   0  0  0  0  0  0  0  0  0  0  0  0
   26.7880  -10.6386  -15.8938 C   0  0  0  0  0  0  0  0  0  0  0  0
   27.6780  -11.6548  -16.3582 N   0  0  0  0  0  0  0  0  0  0  0  0
   22.2300   -7.5449  -15.9911 C   0  0  0  0  0  0  0  0  0  0  0  0
   22.1887   -6.9211  -17.1133 O   0  0  0  0  0  0  0  0  0  0  0  0
   22.3815   -4.6131  -13.6567 C   0  0  0  0  0  0  0  0  0  0  0  0
   22.6747   -5.2776  -14.9822 C   0  0  2  0  0  0  0  0  0  0  0  0
   22.5151   -6.7131  -14.8901 N   0  0  0  0  0  0  0  0  0  0  0  0
   23.9940   -4.8620  -15.4344 C   0  0  0  0  0  0  0  0  0  0  0  0
   24.9464   -5.6701  -15.4695 O   0  0  0  0  0  0  0  0  0  0  0  0
   24.2179   -3.5611  -15.8344 O   0  0  0  0  0  0  0  0  0  0  0  0
  2  1  1  1
  2  7  1  0
  2  3  1  0
  3  4  1  0
  4  5  1  0
  5  9  1  0
  6  5  2  0
  7  8  2  0
 10 11  1  0
 10  7  1  0
 11 12  1  6
 12 13  1  0
 13 14  1  0
 14 15  1  0
 16 15  1  0
 17 18  2  0
 17 11  1  0
 20 19  1  1
 20 21  1  0
 21 17  1  0
 22 20  1  0
 22 24  1  0
 23 22  2  0
M  END
$$$$
