EKA.pdb
     RDKit          3D

 24 23  0  0  1  0  0  0  0  0999 V2000
   27.8309  -22.8801  -17.6777 N   0  0  0  0  0  0  0  0  0  0  0  0
   28.8864  -22.6373  -16.6665 C   0  0  1  0  0  0  0  0  0  0  0  0
   30.0885  -22.1161  -17.3802 C   0  0  0  0  0  0  0  0  0  0  0  0
   30.4802  -22.8018  -18.6351 C   0  0  0  0  0  0  0  0  0  0  0  0
   31.6376  -23.7147  -18.5041 C   0  0  0  0  0  0  0  0  0  0  0  0
   31.5453  -24.7382  -17.7906 O   0  0  0  0  0  0  0  0  0  0  0  0
   28.3469  -21.6883  -15.6466 C   0  0  0  0  0  0  0  0  0  0  0  0
   29.1112  -21.3107  -14.6948 O   0  0  0  0  0  0  0  0  0  0  0  0
   32.8348  -23.4295  -19.1804 O   0  0  0  0  0  0  0  0  0  0  0  0
   27.0407  -21.1625  -15.6473 N   0  0  0  0  0  0  0  0  0  0  0  0
   26.5984  -20.1953  -14.6171 C   0  0  1  0  0  0  0  0  0  0  0  0
   25.8007  -19.1785  -15.4260 C   0  0  0  0  0  0  0  0  0  0  0  0
   26.5582  -18.0231  -15.9226 C   0  0  0  0  0  0  0  0  0  0  0  0
   25.6945  -17.0553  -16.6731 C   0  0  0  0  0  0  0  0  0  0  0  0
   26.3473  -15.8396  -17.2257 C   0  0  0  0  0  0  0  0  0  0  0  0
   25.4991  -14.9584  -17.9635 N   0  0  0  0  0  0  0  0  0  0  0  0
   25.8344  -20.9011  -13.5988 C   0  0  0  0  0  0  0  0  0  0  0  0
   24.9515  -21.7578  -13.9684 O   0  0  0  0  0  0  0  0  0  0  0  0
   25.5177  -21.1871   -9.8360 C   0  0  0  0  0  0  0  0  0  0  0  0
   25.0439  -21.3945  -11.2561 C   0  0  2  0  0  0  0  0  0  0  0  0
   25.9422  -20.7653  -12.2004 N   0  0  0  0  0  0  0  0  0  0  0  0
   23.6664  -20.9374  -11.3632 C   0  0  0  0  0  0  0  0  0  0  0  0
   23.3800  -19.9005  -11.9990 O   0  0  0  0  0  0  0  0  0  0  0  0
   22.6467  -21.6448  -10.7612 O   0  0  0  0  0  0  0  0  0  0  0  0
  2  1  1  6
  2  7  1  0
  2  3  1  0
  3  4  1  0
  4  5  1  0
  5  9  1  0
  6  5  2  0
  7  8  2  0
 10 11  1  0
 10  7  1  0
 11 12  1  6
 12 13  1  0
 13 14  1  0
 14 15  1  0
 16 15  1  0
 17 18  2  0
 17 11  1  0
 20 19  1  1
 20 21  1  0
 21 17  1  0
 22 20  1  0
 22 24  1  0
 23 22  2  0
M  END
$$$$
