EQM.pdb
     RDKit          3D

 27 26  0  0  1  0  0  0  0  0999 V2000
    9.4646  -13.0781   18.9554 N   0  0  0  0  0  0  0  0  0  0  0  0
    8.2079  -13.7903   19.1033 C   0  0  1  0  0  0  0  0  0  0  0  0
    7.7723  -14.3993   17.8017 C   0  0  0  0  0  0  0  0  0  0  0  0
    8.3722  -13.6906   16.6063 C   0  0  0  0  0  0  0  0  0  0  0  0
    7.9274  -14.4127   15.3879 C   0  0  0  0  0  0  0  0  0  0  0  0
    8.3403  -14.1147   14.2359 O   0  0  0  0  0  0  0  0  0  0  0  0
    8.3358  -14.8793   20.0935 C   0  0  0  0  0  0  0  0  0  0  0  0
    7.3162  -15.5353   20.4034 O   0  0  0  0  0  0  0  0  0  0  0  0
    7.0145  -15.4635   15.5339 O   0  0  0  0  0  0  0  0  0  0  0  0
    9.2885  -19.5428   19.5638 N   0  0  0  0  0  0  0  0  0  0  0  0
   10.0965  -18.9860   20.5927 C   0  0  0  0  0  0  0  0  0  0  0  0
    9.9965  -19.4243   21.7501 O   0  0  0  0  0  0  0  0  0  0  0  0
   11.0557  -17.8788   20.2622 C   0  0  0  0  0  0  0  0  0  0  0  0
   11.0404  -16.9061   21.4022 C   0  0  0  0  0  0  0  0  0  0  0  0
    9.7409  -16.2318   21.6501 C   0  0  2  0  0  0  0  0  0  0  0  0
    9.5981  -15.1540   20.6654 N   0  0  0  0  0  0  0  0  0  0  0  0
    9.7098  -15.6199   22.9975 C   0  0  0  0  0  0  0  0  0  0  0  0
   10.6415  -14.8690   23.4323 O   0  0  0  0  0  0  0  0  0  0  0  0
    7.0330  -11.5465   28.2686 C   0  0  0  0  0  0  0  0  0  0  0  0
    7.4470  -12.2465   26.6437 S   0  0  0  0  0  0  0  0  0  0  0  0
    6.7195  -13.9077   26.4620 C   0  0  0  0  0  0  0  0  0  0  0  0
    7.1235  -14.5253   25.1706 C   0  0  0  0  0  0  0  0  0  0  0  0
    8.4782  -15.1624   25.1409 C   0  0  2  0  0  0  0  0  0  0  0  0
    8.6164  -15.8596   23.8622 N   0  0  0  0  0  0  0  0  0  0  0  0
    8.7106  -16.1060   26.2632 C   0  0  0  0  0  0  0  0  0  0  0  0
    8.8911  -15.6919   27.4479 O   0  0  0  0  0  0  0  0  0  0  0  0
    8.7254  -17.4616   25.9957 O   0  0  0  0  0  0  0  0  0  0  0  0
  2  1  1  6
  3  4  1  0
  3  2  1  0
  5  4  1  0
  5  6  2  0
  7  2  1  0
  7  8  2  0
  9  5  1  0
 10 11  1  0
 11 13  1  0
 12 11  2  0
 13 14  1  0
 15 14  1  6
 15 16  1  0
 16  7  1  0
 17 15  1  0
 18 17  2  0
 19 20  1  0
 20 21  1  0
 21 22  1  0
 23 22  1  1
 23 24  1  0
 23 25  1  0
 24 17  1  0
 25 27  1  0
 26 25  2  0
M  END
$$$$
