EQM.pdb
     RDKit          3D

 27 26  0  0  1  0  0  0  0  0999 V2000
   10.7798  -16.8844   19.4888 N   0  0  0  0  0  0  0  0  0  0  0  0
    9.4908  -16.3301   19.8625 C   0  0  1  0  0  0  0  0  0  0  0  0
    8.3805  -16.9513   19.0649 C   0  0  0  0  0  0  0  0  0  0  0  0
    8.8977  -17.8651   17.9747 C   0  0  0  0  0  0  0  0  0  0  0  0
    7.7239  -18.3688   17.2182 C   0  0  0  0  0  0  0  0  0  0  0  0
    6.5418  -18.0462   17.5095 O   0  0  0  0  0  0  0  0  0  0  0  0
    9.2115  -16.5709   21.2931 C   0  0  0  0  0  0  0  0  0  0  0  0
    8.0941  -16.2448   21.7525 O   0  0  0  0  0  0  0  0  0  0  0  0
    7.9485  -19.2345   16.1417 O   0  0  0  0  0  0  0  0  0  0  0  0
   10.9815  -21.3013   24.0720 N   0  0  0  0  0  0  0  0  0  0  0  0
   10.8015  -20.6058   25.2988 C   0  0  0  0  0  0  0  0  0  0  0  0
   10.7223  -21.2492   26.3579 O   0  0  0  0  0  0  0  0  0  0  0  0
   10.7103  -19.1069   25.2927 C   0  0  0  0  0  0  0  0  0  0  0  0
   10.8104  -18.6491   23.8693 C   0  0  0  0  0  0  0  0  0  0  0  0
    9.8944  -17.5448   23.4867 C   0  0  2  0  0  0  0  0  0  0  0  0
   10.2057  -17.1597   22.1060 N   0  0  0  0  0  0  0  0  0  0  0  0
   10.1069  -16.3582   24.3456 C   0  0  0  0  0  0  0  0  0  0  0  0
   11.1105  -15.5860   24.2138 O   0  0  0  0  0  0  0  0  0  0  0  0
    5.9506  -12.1375   25.4191 C   0  0  0  0  0  0  0  0  0  0  0  0
    7.1613  -11.5461   26.6382 S   0  0  0  0  0  0  0  0  0  0  0  0
    8.1908  -12.9268   27.2345 C   0  0  0  0  0  0  0  0  0  0  0  0
    8.2170  -14.0356   26.2433 C   0  0  0  0  0  0  0  0  0  0  0  0
    9.4067  -14.9428   26.3017 C   0  0  2  0  0  0  0  0  0  0  0  0
    9.1774  -16.0417   25.3637 N   0  0  0  0  0  0  0  0  0  0  0  0
    9.6726  -15.4797   27.6600 C   0  0  0  0  0  0  0  0  0  0  0  0
    9.4802  -16.7020   27.9366 O   0  0  0  0  0  0  0  0  0  0  0  0
   10.1416  -14.6172   28.6324 O   0  0  0  0  0  0  0  0  0  0  0  0
  2  1  1  6
  3  4  1  0
  3  2  1  0
  5  4  1  0
  5  6  2  0
  7  2  1  0
  7  8  2  0
  9  5  1  0
 10 11  1  0
 11 13  1  0
 12 11  2  0
 13 14  1  0
 15 14  1  1
 15 16  1  0
 16  7  1  0
 17 15  1  0
 18 17  2  0
 19 20  1  0
 20 21  1  0
 21 22  1  0
 23 22  1  1
 23 24  1  0
 23 25  1  0
 24 17  1  0
 25 27  1  0
 26 25  2  0
M  END
$$$$
