EQM.pdb
     RDKit          3D

 27 26  0  0  1  0  0  0  0  0999 V2000
    8.9226  -18.6556   18.6756 N   0  0  0  0  0  0  0  0  0  0  0  0
    9.2028  -19.0516   20.0442 C   0  0  1  0  0  0  0  0  0  0  0  0
   10.6227  -18.7394   20.4200 C   0  0  0  0  0  0  0  0  0  0  0  0
   11.1997  -17.6082   19.5964 C   0  0  0  0  0  0  0  0  0  0  0  0
   12.6102  -17.4201   20.0198 C   0  0  0  0  0  0  0  0  0  0  0  0
   13.3596  -16.5466   19.5082 O   0  0  0  0  0  0  0  0  0  0  0  0
    8.3166  -18.3396   20.9878 C   0  0  0  0  0  0  0  0  0  0  0  0
    7.4933  -17.5130   20.5350 O   0  0  0  0  0  0  0  0  0  0  0  0
   13.1182  -18.2491   21.0264 O   0  0  0  0  0  0  0  0  0  0  0  0
    5.0618  -21.0578   24.7890 N   0  0  0  0  0  0  0  0  0  0  0  0
    6.4044  -21.0949   25.2553 C   0  0  0  0  0  0  0  0  0  0  0  0
    6.7465  -21.9792   26.0572 O   0  0  0  0  0  0  0  0  0  0  0  0
    7.3845  -20.0655   24.7707 C   0  0  0  0  0  0  0  0  0  0  0  0
    6.6432  -19.1109   23.8846 C   0  0  0  0  0  0  0  0  0  0  0  0
    7.4568  -18.0111   23.3071 C   0  0  2  0  0  0  0  0  0  0  0  0
    8.4176  -18.6054   22.3716 N   0  0  0  0  0  0  0  0  0  0  0  0
    8.2256  -17.3111   24.3606 C   0  0  0  0  0  0  0  0  0  0  0  0
    9.4776  -17.4766   24.5217 O   0  0  0  0  0  0  0  0  0  0  0  0
    6.2461  -11.2003   25.2771 C   0  0  0  0  0  0  0  0  0  0  0  0
    6.6875  -11.6973   26.9683 S   0  0  0  0  0  0  0  0  0  0  0  0
    7.8900  -13.0665   26.9362 C   0  0  0  0  0  0  0  0  0  0  0  0
    7.3471  -14.2318   26.1880 C   0  0  0  0  0  0  0  0  0  0  0  0
    8.3011  -15.3597   25.9438 C   0  0  2  0  0  0  0  0  0  0  0  0
    7.5735  -16.4164   25.2410 N   0  0  0  0  0  0  0  0  0  0  0  0
    8.9071  -15.8989   27.1873 C   0  0  0  0  0  0  0  0  0  0  0  0
    9.6591  -15.1865   27.9185 O   0  0  0  0  0  0  0  0  0  0  0  0
    8.6346  -17.2059   27.5434 O   0  0  0  0  0  0  0  0  0  0  0  0
  2  1  1  6
  3  4  1  0
  3  2  1  0
  5  4  1  0
  5  6  2  0
  7  2  1  0
  7  8  2  0
  9  5  1  0
 10 11  1  0
 11 13  1  0
 12 11  2  0
 13 14  1  0
 15 14  1  1
 15 16  1  0
 16  7  1  0
 17 15  1  0
 18 17  2  0
 19 20  1  0
 20 21  1  0
 21 22  1  0
 23 22  1  1
 23 24  1  0
 23 25  1  0
 24 17  1  0
 25 27  1  0
 26 25  2  0
M  END
$$$$
