EQM.pdb
     RDKit          3D

 27 26  0  0  1  0  0  0  0  0999 V2000
   10.0737  -13.5387   19.0055 N   0  0  0  0  0  0  0  0  0  0  0  0
    8.6365  -13.6519   19.1791 C   0  0  1  0  0  0  0  0  0  0  0  0
    7.9618  -14.0277   17.8913 C   0  0  0  0  0  0  0  0  0  0  0  0
    8.9491  -14.2222   16.7607 C   0  0  0  0  0  0  0  0  0  0  0  0
    8.1806  -14.6431   15.5623 C   0  0  0  0  0  0  0  0  0  0  0  0
    7.9489  -15.8524   15.2973 O   0  0  0  0  0  0  0  0  0  0  0  0
    8.3094  -14.6866   20.1816 C   0  0  0  0  0  0  0  0  0  0  0  0
    7.1071  -14.9606   20.3951 O   0  0  0  0  0  0  0  0  0  0  0  0
    7.6987  -13.6520   14.6997 O   0  0  0  0  0  0  0  0  0  0  0  0
   11.1370  -19.7938   21.3391 N   0  0  0  0  0  0  0  0  0  0  0  0
   11.9167  -18.7497   21.9076 C   0  0  0  0  0  0  0  0  0  0  0  0
   13.1180  -18.9495   22.1503 O   0  0  0  0  0  0  0  0  0  0  0  0
   11.2749  -17.4249   22.2045 C   0  0  0  0  0  0  0  0  0  0  0  0
    9.8461  -17.4997   21.7588 C   0  0  0  0  0  0  0  0  0  0  0  0
    9.0457  -16.2664   21.9673 C   0  0  2  0  0  0  0  0  0  0  0  0
    9.3541  -15.3394   20.8732 N   0  0  0  0  0  0  0  0  0  0  0  0
    9.4143  -15.6039   23.2384 C   0  0  0  0  0  0  0  0  0  0  0  0
   10.4851  -14.9290   23.3757 O   0  0  0  0  0  0  0  0  0  0  0  0
    5.7651  -11.3828   26.5100 C   0  0  0  0  0  0  0  0  0  0  0  0
    7.4208  -11.6903   27.1926 S   0  0  0  0  0  0  0  0  0  0  0  0
    7.7492  -13.4807   27.2844 C   0  0  0  0  0  0  0  0  0  0  0  0
    7.7462  -14.0908   25.9279 C   0  0  0  0  0  0  0  0  0  0  0  0
    8.8735  -15.0285   25.6253 C   0  0  2  0  0  0  0  0  0  0  0  0
    8.5658  -15.7058   24.3656 N   0  0  0  0  0  0  0  0  0  0  0  0
    9.1120  -16.0287   26.6962 C   0  0  0  0  0  0  0  0  0  0  0  0
    9.4286  -15.6750   27.8719 O   0  0  0  0  0  0  0  0  0  0  0  0
    8.9800  -17.3698   26.3905 O   0  0  0  0  0  0  0  0  0  0  0  0
  2  1  1  6
  3  4  1  0
  3  2  1  0
  5  4  1  0
  5  6  2  0
  7  2  1  0
  7  8  2  0
  9  5  1  0
 10 11  1  0
 11 13  1  0
 12 11  2  0
 13 14  1  0
 15 14  1  6
 15 16  1  0
 16  7  1  0
 17 15  1  0
 18 17  2  0
 19 20  1  0
 20 21  1  0
 21 22  1  0
 23 22  1  1
 23 24  1  0
 23 25  1  0
 24 17  1  0
 25 27  1  0
 26 25  2  0
M  END
$$$$
