EQM.pdb
     RDKit          3D

 27 26  0  0  1  0  0  0  0  0999 V2000
   10.3995  -14.4291   18.1393 N   0  0  0  0  0  0  0  0  0  0  0  0
    9.0425  -14.0434   18.4831 C   0  0  1  0  0  0  0  0  0  0  0  0
    8.0970  -14.3132   17.3481 C   0  0  0  0  0  0  0  0  0  0  0  0
    8.8176  -14.4831   16.0280 C   0  0  0  0  0  0  0  0  0  0  0  0
    7.7932  -14.7687   14.9921 C   0  0  0  0  0  0  0  0  0  0  0  0
    7.3368  -15.9255   14.7923 O   0  0  0  0  0  0  0  0  0  0  0  0
    8.5653  -14.7980   19.6603 C   0  0  0  0  0  0  0  0  0  0  0  0
    7.4251  -14.5511   20.1132 O   0  0  0  0  0  0  0  0  0  0  0  0
    7.3221  -13.7062   14.2124 O   0  0  0  0  0  0  0  0  0  0  0  0
   10.7168  -20.2877   21.4242 N   0  0  0  0  0  0  0  0  0  0  0  0
   11.5514  -19.2463   21.9143 C   0  0  0  0  0  0  0  0  0  0  0  0
   12.6999  -19.5170   22.3009 O   0  0  0  0  0  0  0  0  0  0  0  0
   11.0303  -17.8385   21.9557 C   0  0  0  0  0  0  0  0  0  0  0  0
    9.6389  -17.8500   21.3990 C   0  0  0  0  0  0  0  0  0  0  0  0
    8.9363  -16.5419   21.4060 C   0  0  2  0  0  0  0  0  0  0  0  0
    9.4014  -15.7750   20.2454 N   0  0  0  0  0  0  0  0  0  0  0  0
    9.2701  -15.7675   22.6225 C   0  0  0  0  0  0  0  0  0  0  0  0
   10.3433  -15.0915   22.7333 O   0  0  0  0  0  0  0  0  0  0  0  0
    6.0029  -10.8566   27.5974 C   0  0  0  0  0  0  0  0  0  0  0  0
    5.9425  -12.0258   26.2077 S   0  0  0  0  0  0  0  0  0  0  0  0
    7.4332  -13.0743   26.1925 C   0  0  0  0  0  0  0  0  0  0  0  0
    7.4241  -13.9922   25.0221 C   0  0  0  0  0  0  0  0  0  0  0  0
    8.6086  -14.8981   24.8867 C   0  0  2  0  0  0  0  0  0  0  0  0
    8.3835  -15.7577   23.7246 N   0  0  0  0  0  0  0  0  0  0  0  0
    8.8576  -15.7270   26.0929 C   0  0  0  0  0  0  0  0  0  0  0  0
    9.0938  -15.1982   27.2208 O   0  0  0  0  0  0  0  0  0  0  0  0
    8.8257  -17.1028   25.9684 O   0  0  0  0  0  0  0  0  0  0  0  0
  2  1  1  6
  3  4  1  0
  3  2  1  0
  5  4  1  0
  5  6  2  0
  7  2  1  0
  7  8  2  0
  9  5  1  0
 10 11  1  0
 11 13  1  0
 12 11  2  0
 13 14  1  0
 15 14  1  1
 15 16  1  0
 16  7  1  0
 17 15  1  0
 18 17  2  0
 19 20  1  0
 20 21  1  0
 21 22  1  0
 23 22  1  1
 23 24  1  0
 23 25  1  0
 24 17  1  0
 25 27  1  0
 26 25  2  0
M  END
$$$$
