EQM.pdb
     RDKit          3D

 27 26  0  0  1  0  0  0  0  0999 V2000
   10.6939  -17.9469   18.6137 N   0  0  0  0  0  0  0  0  0  0  0  0
   10.7619  -18.5434   19.9358 C   0  0  1  0  0  0  0  0  0  0  0  0
   12.1654  -18.5235   20.4693 C   0  0  0  0  0  0  0  0  0  0  0  0
   12.7808  -17.1417   20.4159 C   0  0  0  0  0  0  0  0  0  0  0  0
   14.1847  -17.2583   20.8842 C   0  0  0  0  0  0  0  0  0  0  0  0
   14.4806  -17.4696   22.0901 O   0  0  0  0  0  0  0  0  0  0  0  0
    9.9042  -17.8077   20.8876 C   0  0  0  0  0  0  0  0  0  0  0  0
    9.5570  -16.6386   20.6070 O   0  0  0  0  0  0  0  0  0  0  0  0
   15.2124  -17.1272   19.9433 O   0  0  0  0  0  0  0  0  0  0  0  0
    6.1995  -22.1048   22.3106 N   0  0  0  0  0  0  0  0  0  0  0  0
    6.0732  -20.8911   23.0402 C   0  0  0  0  0  0  0  0  0  0  0  0
    5.5444  -20.9078   24.1635 O   0  0  0  0  0  0  0  0  0  0  0  0
    6.5810  -19.6113   22.4405 C   0  0  0  0  0  0  0  0  0  0  0  0
    7.5884  -19.0319   23.3867 C   0  0  0  0  0  0  0  0  0  0  0  0
    8.3777  -17.8898   22.8598 C   0  0  2  0  0  0  0  0  0  0  0  0
    9.4979  -18.4358   22.0860 N   0  0  0  0  0  0  0  0  0  0  0  0
    8.9425  -17.0817   23.9638 C   0  0  0  0  0  0  0  0  0  0  0  0
   10.1320  -17.2377   24.3902 O   0  0  0  0  0  0  0  0  0  0  0  0
    5.8928  -11.7845   25.5851 C   0  0  0  0  0  0  0  0  0  0  0  0
    6.9229  -11.8062   27.0819 S   0  0  0  0  0  0  0  0  0  0  0  0
    8.0079  -13.2706   27.0869 C   0  0  0  0  0  0  0  0  0  0  0  0
    7.7149  -14.1518   25.9250 C   0  0  0  0  0  0  0  0  0  0  0  0
    8.6747  -15.2776   25.6940 C   0  0  2  0  0  0  0  0  0  0  0  0
    8.1557  -16.0887   24.5928 N   0  0  0  0  0  0  0  0  0  0  0  0
    8.8889  -16.1251   26.8939 C   0  0  0  0  0  0  0  0  0  0  0  0
    8.2222  -17.1874   27.0801 O   0  0  0  0  0  0  0  0  0  0  0  0
    9.8404  -15.7363   27.8174 O   0  0  0  0  0  0  0  0  0  0  0  0
  2  1  1  6
  3  4  1  0
  3  2  1  0
  5  4  1  0
  5  6  2  0
  7  2  1  0
  7  8  2  0
  9  5  1  0
 10 11  1  0
 11 13  1  0
 12 11  2  0
 13 14  1  0
 15 14  1  1
 15 16  1  0
 16  7  1  0
 17 15  1  0
 18 17  2  0
 19 20  1  0
 20 21  1  0
 21 22  1  0
 23 22  1  1
 23 24  1  0
 23 25  1  0
 24 17  1  0
 25 27  1  0
 26 25  2  0
M  END
$$$$
