EQM.pdb
     RDKit          3D

 27 26  0  0  1  0  0  0  0  0999 V2000
    6.8666  -20.2567   22.8183 N   0  0  0  0  0  0  0  0  0  0  0  0
    6.9989  -18.9955   23.5255 C   0  0  1  0  0  0  0  0  0  0  0  0
    6.7033  -19.1595   24.9886 C   0  0  0  0  0  0  0  0  0  0  0  0
    7.5861  -20.2023   25.6399 C   0  0  0  0  0  0  0  0  0  0  0  0
    7.2252  -20.2593   27.0787 C   0  0  0  0  0  0  0  0  0  0  0  0
    6.3083  -19.5526   27.5750 O   0  0  0  0  0  0  0  0  0  0  0  0
    8.3713  -18.4637   23.3968 C   0  0  0  0  0  0  0  0  0  0  0  0
    9.3312  -19.2666   23.3935 O   0  0  0  0  0  0  0  0  0  0  0  0
    7.9357  -21.1345   27.9081 O   0  0  0  0  0  0  0  0  0  0  0  0
    9.9156  -18.0941   19.1408 N   0  0  0  0  0  0  0  0  0  0  0  0
   10.2650  -16.9297   19.8779 C   0  0  0  0  0  0  0  0  0  0  0  0
   11.4410  -16.5312   19.8659 O   0  0  0  0  0  0  0  0  0  0  0  0
    9.2072  -16.2026   20.6574 C   0  0  0  0  0  0  0  0  0  0  0  0
    9.8550  -15.6286   21.8808 C   0  0  0  0  0  0  0  0  0  0  0  0
    9.9153  -16.5332   23.0568 C   0  0  2  0  0  0  0  0  0  0  0  0
    8.5687  -17.0696   23.2815 N   0  0  0  0  0  0  0  0  0  0  0  0
   10.3160  -15.7934   24.2745 C   0  0  0  0  0  0  0  0  0  0  0  0
   11.4483  -15.2229   24.3900 O   0  0  0  0  0  0  0  0  0  0  0  0
    6.1187  -11.7516   25.4298 C   0  0  0  0  0  0  0  0  0  0  0  0
    6.8540  -12.1268   27.0486 S   0  0  0  0  0  0  0  0  0  0  0  0
    8.5408  -12.7860   26.8444 C   0  0  0  0  0  0  0  0  0  0  0  0
    8.5676  -14.2553   27.0744 C   0  0  0  0  0  0  0  0  0  0  0  0
    9.7890  -14.9749   26.5924 C   0  0  2  0  0  0  0  0  0  0  0  0
    9.4295  -15.6981   25.3726 N   0  0  0  0  0  0  0  0  0  0  0  0
   10.3534  -15.9144   27.5939 C   0  0  0  0  0  0  0  0  0  0  0  0
   10.3478  -17.1675   27.4009 O   0  0  0  0  0  0  0  0  0  0  0  0
   10.8950  -15.3969   28.7550 O   0  0  0  0  0  0  0  0  0  0  0  0
  2  1  1  6
  3  4  1  0
  3  2  1  0
  5  4  1  0
  5  6  2  0
  7  2  1  0
  7  8  2  0
  9  5  1  0
 10 11  1  0
 11 13  1  0
 12 11  2  0
 13 14  1  0
 15 14  1  6
 15 16  1  0
 16  7  1  0
 17 15  1  0
 18 17  2  0
 19 20  1  0
 20 21  1  0
 21 22  1  0
 23 22  1  1
 23 24  1  0
 23 25  1  0
 24 17  1  0
 25 27  1  0
 26 25  2  0
M  END
$$$$
