EQM.pdb
     RDKit          3D

 27 26  0  0  1  0  0  0  0  0999 V2000
    8.9842  -19.7584   21.1881 N   0  0  0  0  0  0  0  0  0  0  0  0
   10.3849  -19.3783   21.2326 C   0  0  1  0  0  0  0  0  0  0  0  0
   11.1301  -19.9102   20.0425 C   0  0  0  0  0  0  0  0  0  0  0  0
   10.3766  -19.6919   18.7481 C   0  0  0  0  0  0  0  0  0  0  0  0
   11.2112  -20.2350   17.6469 C   0  0  0  0  0  0  0  0  0  0  0  0
   11.7598  -21.3671   17.7087 O   0  0  0  0  0  0  0  0  0  0  0  0
   10.5291  -17.9080   21.2384 C   0  0  0  0  0  0  0  0  0  0  0  0
   11.6791  -17.4150   21.2620 O   0  0  0  0  0  0  0  0  0  0  0  0
   11.3897  -19.4528   16.5002 O   0  0  0  0  0  0  0  0  0  0  0  0
    7.7618  -12.8110   19.2263 N   0  0  0  0  0  0  0  0  0  0  0  0
    7.9688  -13.9060   18.3435 C   0  0  0  0  0  0  0  0  0  0  0  0
    7.9438  -13.7129   17.1172 O   0  0  0  0  0  0  0  0  0  0  0  0
    8.2137  -15.2756   18.9087 C   0  0  0  0  0  0  0  0  0  0  0  0
    8.2545  -15.1529   20.4017 C   0  0  0  0  0  0  0  0  0  0  0  0
    9.4968  -15.6441   21.0501 C   0  0  2  0  0  0  0  0  0  0  0  0
    9.3732  -17.0960   21.2178 N   0  0  0  0  0  0  0  0  0  0  0  0
    9.6651  -15.0467   22.3938 C   0  0  0  0  0  0  0  0  0  0  0  0
   10.3564  -13.9970   22.5970 O   0  0  0  0  0  0  0  0  0  0  0  0
    6.5175  -11.1835   27.7986 C   0  0  0  0  0  0  0  0  0  0  0  0
    6.5073  -12.1799   26.2790 S   0  0  0  0  0  0  0  0  0  0  0  0
    7.8738  -13.3857   26.2991 C   0  0  0  0  0  0  0  0  0  0  0  0
    7.9932  -14.0739   24.9859 C   0  0  0  0  0  0  0  0  0  0  0  0
    9.1289  -15.0402   24.8500 C   0  0  2  0  0  0  0  0  0  0  0  0
    9.0475  -15.6414   23.5188 N   0  0  0  0  0  0  0  0  0  0  0  0
    9.1280  -16.1009   25.8888 C   0  0  0  0  0  0  0  0  0  0  0  0
    8.9808  -17.3230   25.5851 O   0  0  0  0  0  0  0  0  0  0  0  0
    9.2947  -15.7330   27.2103 O   0  0  0  0  0  0  0  0  0  0  0  0
  2  1  1  6
  3  4  1  0
  3  2  1  0
  5  4  1  0
  5  6  2  0
  7  2  1  0
  7  8  2  0
  9  5  1  0
 10 11  1  0
 11 13  1  0
 12 11  2  0
 13 14  1  0
 15 14  1  1
 15 16  1  0
 16  7  1  0
 17 15  1  0
 18 17  2  0
 19 20  1  0
 20 21  1  0
 21 22  1  0
 23 22  1  1
 23 24  1  0
 23 25  1  0
 24 17  1  0
 25 27  1  0
 26 25  2  0
M  END
$$$$
