EQM.pdb
     RDKit          3D

 27 26  0  0  1  0  0  0  0  0999 V2000
    9.1353  -17.4701   18.2427 N   0  0  0  0  0  0  0  0  0  0  0  0
    9.4081  -16.4110   19.1978 C   0  0  1  0  0  0  0  0  0  0  0  0
    8.2556  -15.4529   19.2902 C   0  0  0  0  0  0  0  0  0  0  0  0
    8.0204  -14.7100   17.9926 C   0  0  0  0  0  0  0  0  0  0  0  0
    6.7749  -13.9175   18.1496 C   0  0  0  0  0  0  0  0  0  0  0  0
    6.1118  -13.9040   19.2203 O   0  0  0  0  0  0  0  0  0  0  0  0
    9.6439  -16.9685   20.5455 C   0  0  0  0  0  0  0  0  0  0  0  0
    9.0056  -17.9857   20.8975 O   0  0  0  0  0  0  0  0  0  0  0  0
    6.3277  -13.1594   17.0615 O   0  0  0  0  0  0  0  0  0  0  0  0
   14.9772  -17.3144   23.2160 N   0  0  0  0  0  0  0  0  0  0  0  0
   14.4622  -17.9675   22.0630 C   0  0  0  0  0  0  0  0  0  0  0  0
   15.2464  -18.5190   21.2739 O   0  0  0  0  0  0  0  0  0  0  0  0
   12.9803  -17.9791   21.8195 C   0  0  0  0  0  0  0  0  0  0  0  0
   12.3443  -17.0745   22.8310 C   0  0  0  0  0  0  0  0  0  0  0  0
   10.8714  -16.9237   22.7175 C   0  0  2  0  0  0  0  0  0  0  0  0
   10.5783  -16.3447   21.4021 N   0  0  0  0  0  0  0  0  0  0  0  0
   10.3531  -15.9940   23.7460 C   0  0  0  0  0  0  0  0  0  0  0  0
   10.2830  -14.7362   23.5620 O   0  0  0  0  0  0  0  0  0  0  0  0
    7.0169  -11.0235   26.4852 C   0  0  0  0  0  0  0  0  0  0  0  0
    6.9773  -12.8386   26.5630 S   0  0  0  0  0  0  0  0  0  0  0  0
    8.0056  -13.5552   25.2398 C   0  0  0  0  0  0  0  0  0  0  0  0
    8.0412  -15.0388   25.3403 C   0  0  0  0  0  0  0  0  0  0  0  0
    9.2607  -15.6262   25.9803 C   0  0  2  0  0  0  0  0  0  0  0  0
    9.9107  -16.4900   24.9946 N   0  0  0  0  0  0  0  0  0  0  0  0
    8.9660  -16.3949   27.2157 C   0  0  0  0  0  0  0  0  0  0  0  0
    8.6013  -17.6083   27.1676 O   0  0  0  0  0  0  0  0  0  0  0  0
    9.0988  -15.7617   28.4366 O   0  0  0  0  0  0  0  0  0  0  0  0
  2  1  1  6
  3  4  1  0
  3  2  1  0
  5  4  1  0
  5  6  2  0
  7  2  1  0
  7  8  2  0
  9  5  1  0
 10 11  1  0
 11 13  1  0
 12 11  2  0
 13 14  1  0
 15 14  1  1
 15 16  1  0
 16  7  1  0
 17 15  1  0
 18 17  2  0
 19 20  1  0
 20 21  1  0
 21 22  1  0
 23 22  1  6
 23 24  1  0
 23 25  1  0
 24 17  1  0
 25 27  1  0
 26 25  2  0
M  END
$$$$
