CIQ.pdb
     RDKit          3D

 24 23  0  0  1  0  0  0  0  0999 V2000
    7.7362  -13.0689   19.6801 N   0  0  0  0  0  0  0  0  0  0  0  0
    7.2899  -14.0218   20.6464 C   0  0  1  0  0  0  0  0  0  0  0  0
    7.5099  -15.4590   20.1845 C   0  0  0  0  0  0  0  0  0  0  0  0
    6.2786  -15.9027   18.9248 S   0  0  0  0  0  0  0  0  0  0  0  0
    7.9506  -13.8768   21.9617 C   0  0  0  0  0  0  0  0  0  0  0  0
    9.2020  -13.7492   21.9923 O   0  0  0  0  0  0  0  0  0  0  0  0
    5.5661  -11.6462   26.4003 C   0  0  0  0  0  0  0  0  0  0  0  0
    6.5803  -11.9588   25.3103 C   0  0  0  0  0  0  0  0  0  0  0  0
    7.1134  -13.3410   25.5921 C   0  0  2  0  0  0  0  0  0  0  0  0
    7.8765  -13.3294   26.8793 C   0  0  0  0  0  0  0  0  0  0  0  0
    7.9610  -13.8739   24.4617 C   0  0  2  0  0  0  0  0  0  0  0  0
    7.2578  -13.8723   23.2019 N   0  0  0  0  0  0  0  0  0  0  0  0
    8.4183  -15.2467   24.8306 C   0  0  0  0  0  0  0  0  0  0  0  0
    7.5494  -16.1487   24.9398 O   0  0  0  0  0  0  0  0  0  0  0  0
   14.1286  -19.2830   23.7350 N   0  0  0  0  0  0  0  0  0  0  0  0
   12.7324  -19.1222   23.8558 C   0  0  0  0  0  0  0  0  0  0  0  0
   11.8940  -19.4985   23.0010 O   0  0  0  0  0  0  0  0  0  0  0  0
   12.2052  -18.4545   25.0921 C   0  0  0  0  0  0  0  0  0  0  0  0
   11.6271  -17.1109   24.7676 C   0  0  0  0  0  0  0  0  0  0  0  0
   10.2318  -16.9727   25.2556 C   0  0  2  0  0  0  0  0  0  0  0  0
    9.7630  -15.5754   25.0595 N   0  0  0  0  0  0  0  0  0  0  0  0
   10.1143  -17.2197   26.6906 C   0  0  0  0  0  0  0  0  0  0  0  0
   10.1496  -18.5030   27.1980 O   0  0  0  0  0  0  0  0  0  0  0  0
    9.9788  -16.2892   27.5037 O   0  0  0  0  0  0  0  0  0  0  0  0
  2  1  1  6
  3  2  1  0
  4  3  1  0
  5  2  1  0
  5  6  2  0
  7  8  1  0
  8  9  1  0
  9 11  1  0
  9 10  1  1
 11 12  1  6
 12  5  1  0
 13 11  1  0
 14 13  2  0
 16 15  1  0
 17 16  2  0
 18 16  1  0
 19 18  1  0
 20 19  1  1
 20 21  1  0
 21 13  1  0
 22 20  1  0
 23 22  1  0
 24 22  2  0
M  END
$$$$
