CIQ.pdb
     RDKit          3D

 24 23  0  0  1  0  0  0  0  0999 V2000
    5.2250  -17.3822   21.3890 N   0  0  0  0  0  0  0  0  0  0  0  0
    5.3772  -17.4180   22.8091 C   0  0  1  0  0  0  0  0  0  0  0  0
    5.6360  -18.8294   23.3268 C   0  0  0  0  0  0  0  0  0  0  0  0
    4.1271  -19.8308   23.1834 S   0  0  0  0  0  0  0  0  0  0  0  0
    6.4763  -16.5602   23.3029 C   0  0  0  0  0  0  0  0  0  0  0  0
    7.5900  -16.6197   22.7206 O   0  0  0  0  0  0  0  0  0  0  0  0
    5.6915  -12.0368   26.4694 C   0  0  0  0  0  0  0  0  0  0  0  0
    6.2288  -12.8959   25.3347 C   0  0  0  0  0  0  0  0  0  0  0  0
    7.1235  -13.9366   25.9596 C   0  0  2  0  0  0  0  0  0  0  0  0
    8.3370  -13.2738   26.5319 C   0  0  0  0  0  0  0  0  0  0  0  0
    7.5062  -15.0270   24.9877 C   0  0  2  0  0  0  0  0  0  0  0  0
    6.3541  -15.6669   24.4007 N   0  0  0  0  0  0  0  0  0  0  0  0
    8.3694  -16.0099   25.7080 C   0  0  0  0  0  0  0  0  0  0  0  0
    7.8141  -16.8164   26.4965 O   0  0  0  0  0  0  0  0  0  0  0  0
   11.6670  -18.6331   21.5302 N   0  0  0  0  0  0  0  0  0  0  0  0
   11.4795  -19.5686   22.5692 C   0  0  0  0  0  0  0  0  0  0  0  0
   11.3222  -20.8021   22.3993 O   0  0  0  0  0  0  0  0  0  0  0  0
   11.4661  -19.0593   23.9808 C   0  0  0  0  0  0  0  0  0  0  0  0
   10.5978  -17.8442   24.1015 C   0  0  0  0  0  0  0  0  0  0  0  0
   10.5109  -17.3590   25.5019 C   0  0  2  0  0  0  0  0  0  0  0  0
    9.7617  -16.0755   25.5474 N   0  0  0  0  0  0  0  0  0  0  0  0
   11.8220  -17.0592   26.0721 C   0  0  0  0  0  0  0  0  0  0  0  0
   12.3097  -15.7680   26.0975 O   0  0  0  0  0  0  0  0  0  0  0  0
   12.5435  -17.9501   26.5527 O   0  0  0  0  0  0  0  0  0  0  0  0
  2  1  1  6
  3  2  1  0
  4  3  1  0
  5  2  1  0
  5  6  2  0
  7  8  1  0
  8  9  1  0
  9 11  1  0
  9 10  1  6
 11 12  1  1
 12  5  1  0
 13 11  1  0
 14 13  2  0
 16 15  1  0
 17 16  2  0
 18 16  1  0
 19 18  1  0
 20 19  1  6
 20 21  1  0
 21 13  1  0
 22 20  1  0
 23 22  1  0
 24 22  2  0
M  END
$$$$
