CIQ.pdb
     RDKit          3D

 24 23  0  0  1  0  0  0  0  0999 V2000
    7.3914  -15.7070   20.4674 N   0  0  0  0  0  0  0  0  0  0  0  0
    6.7387  -15.9305   21.7185 C   0  0  1  0  0  0  0  0  0  0  0  0
    6.3160  -17.3853   21.8976 C   0  0  0  0  0  0  0  0  0  0  0  0
    5.4952  -17.6012   23.5037 S   0  0  0  0  0  0  0  0  0  0  0  0
    7.5697  -15.5672   22.8868 C   0  0  0  0  0  0  0  0  0  0  0  0
    8.8022  -15.8167   22.8455 O   0  0  0  0  0  0  0  0  0  0  0  0
    5.9558  -11.6026   26.4476 C   0  0  0  0  0  0  0  0  0  0  0  0
    6.8274  -12.3504   25.4499 C   0  0  0  0  0  0  0  0  0  0  0  0
    7.2592  -13.6308   26.1195 C   0  0  2  0  0  0  0  0  0  0  0  0
    8.1575  -13.3129   27.2734 C   0  0  0  0  0  0  0  0  0  0  0  0
    7.9243  -14.5879   25.1595 C   0  0  2  0  0  0  0  0  0  0  0  0
    7.0617  -14.9499   24.0611 N   0  0  0  0  0  0  0  0  0  0  0  0
    8.3620  -15.7900   25.9298 C   0  0  0  0  0  0  0  0  0  0  0  0
    7.4738  -16.5262   26.4295 O   0  0  0  0  0  0  0  0  0  0  0  0
   14.2904  -19.8416   26.5917 N   0  0  0  0  0  0  0  0  0  0  0  0
   13.1563  -19.6025   25.7877 C   0  0  0  0  0  0  0  0  0  0  0  0
   13.1360  -19.6961   24.5363 O   0  0  0  0  0  0  0  0  0  0  0  0
   11.8798  -19.2079   26.4710 C   0  0  0  0  0  0  0  0  0  0  0  0
   11.4037  -17.8737   25.9830 C   0  0  0  0  0  0  0  0  0  0  0  0
   10.1384  -17.4597   26.6401 C   0  0  2  0  0  0  0  0  0  0  0  0
    9.7086  -16.1343   26.1211 N   0  0  0  0  0  0  0  0  0  0  0  0
   10.2908  -17.2770   28.0814 C   0  0  0  0  0  0  0  0  0  0  0  0
   10.4143  -18.3604   28.9280 O   0  0  0  0  0  0  0  0  0  0  0  0
   10.3146  -16.1459   28.5967 O   0  0  0  0  0  0  0  0  0  0  0  0
  2  1  1  6
  3  2  1  0
  4  3  1  0
  5  2  1  0
  5  6  2  0
  7  8  1  0
  8  9  1  0
  9 11  1  0
  9 10  1  1
 11 12  1  6
 12  5  1  0
 13 11  1  0
 14 13  2  0
 16 15  1  0
 17 16  2  0
 18 16  1  0
 19 18  1  0
 20 19  1  6
 20 21  1  0
 21 13  1  0
 22 20  1  0
 23 22  1  0
 24 22  2  0
M  END
$$$$
