MLN.pdb
     RDKit          3D

 25 24  0  0  1  0  0  0  0  0999 V2000
    8.6731  -11.4752   19.4752 C   0  0  0  0  0  0  0  0  0  0  0  0
    7.5100  -12.7402   18.9624 S   0  0  0  0  0  0  0  0  0  0  0  0
    7.5330  -14.1965   19.9995 C   0  0  0  0  0  0  0  0  0  0  0  0
    8.6474  -14.2932   20.9773 C   0  0  0  0  0  0  0  0  0  0  0  0
    8.7078  -15.5641   21.7482 C   0  0  2  0  0  0  0  0  0  0  0  0
    7.5034  -16.3493   21.5688 N   0  0  0  0  0  0  0  0  0  0  0  0
    8.9562  -15.2801   23.1913 C   0  0  0  0  0  0  0  0  0  0  0  0
   10.0246  -14.7181   23.5233 O   0  0  0  0  0  0  0  0  0  0  0  0
    5.7481  -12.6054   26.5625 C   0  0  0  0  0  0  0  0  0  0  0  0
    7.0493  -13.1043   25.8935 C   0  0  1  0  0  0  0  0  0  0  0  0
    8.1486  -12.2480   26.5381 C   0  0  0  0  0  0  0  0  0  0  0  0
    7.2153  -14.5226   26.2981 C   0  0  0  0  0  0  0  0  0  0  0  0
    8.3010  -15.2984   25.6091 C   0  0  2  0  0  0  0  0  0  0  0  0
    8.0472  -15.6102   24.2273 N   0  0  0  0  0  0  0  0  0  0  0  0
    8.6473  -16.5539   26.3336 C   0  0  0  0  0  0  0  0  0  0  0  0
    8.7939  -16.5488   27.5833 O   0  0  0  0  0  0  0  0  0  0  0  0
   12.2900  -20.1245   24.0705 N   0  0  0  0  0  0  0  0  0  0  0  0
   12.2314  -18.7523   24.4141 C   0  0  0  0  0  0  0  0  0  0  0  0
   13.3224  -18.1586   24.7037 O   0  0  0  0  0  0  0  0  0  0  0  0
   10.9582  -18.0387   24.4360 C   0  0  0  0  0  0  0  0  0  0  0  0
   10.0923  -18.4886   25.5592 C   0  0  2  0  0  0  0  0  0  0  0  0
    8.8270  -17.7968   25.6694 N   0  0  0  0  0  0  0  0  0  0  0  0
   10.8287  -18.4351   26.8685 C   0  0  0  0  0  0  0  0  0  0  0  0
   11.0311  -19.6277   27.5376 O   0  0  0  0  0  0  0  0  0  0  0  0
   11.2600  -17.3777   27.3722 O   0  0  0  0  0  0  0  0  0  0  0  0
  1  2  1  0
  3  2  1  0
  4  3  1  0
  5  4  1  0
  5  6  1  1
  7  8  2  0
  7  5  1  0
 10  9  1  1
 10 12  1  0
 11 10  1  0
 13 12  1  1
 13 14  1  0
 14  7  1  0
 15 13  1  0
 15 22  1  0
 16 15  2  0
 17 18  1  0
 18 20  1  0
 18 19  2  0
 21 20  1  6
 21 22  1  0
 21 23  1  0
 23 25  2  0
 23 24  1  0
M  END
$$$$
