MLN.pdb
     RDKit          3D

 25 24  0  0  1  0  0  0  0  0999 V2000
    8.1617  -11.5232   19.0848 C   0  0  0  0  0  0  0  0  0  0  0  0
    7.9053  -12.9996   18.0997 S   0  0  0  0  0  0  0  0  0  0  0  0
    7.8939  -14.5078   19.0601 C   0  0  0  0  0  0  0  0  0  0  0  0
    8.5092  -14.4353   20.4105 C   0  0  0  0  0  0  0  0  0  0  0  0
    8.4025  -15.6758   21.2247 C   0  0  2  0  0  0  0  0  0  0  0  0
    7.0843  -16.2675   21.1169 N   0  0  0  0  0  0  0  0  0  0  0  0
    8.7505  -15.3901   22.6468 C   0  0  0  0  0  0  0  0  0  0  0  0
    9.9456  -15.1658   22.9451 O   0  0  0  0  0  0  0  0  0  0  0  0
    5.6586  -12.5670   26.4170 C   0  0  0  0  0  0  0  0  0  0  0  0
    6.8495  -13.0096   25.5364 C   0  0  1  0  0  0  0  0  0  0  0  0
    8.0023  -12.1030   25.9905 C   0  0  0  0  0  0  0  0  0  0  0  0
    7.1442  -14.4178   25.9014 C   0  0  0  0  0  0  0  0  0  0  0  0
    8.1731  -15.1291   25.0704 C   0  0  2  0  0  0  0  0  0  0  0  0
    7.8014  -15.3557   23.6987 N   0  0  0  0  0  0  0  0  0  0  0  0
    8.5963  -16.4226   25.6779 C   0  0  0  0  0  0  0  0  0  0  0  0
    7.7817  -17.3764   25.7781 O   0  0  0  0  0  0  0  0  0  0  0  0
   12.0580  -20.7574   25.2720 N   0  0  0  0  0  0  0  0  0  0  0  0
   12.2345  -19.5878   26.0501 C   0  0  0  0  0  0  0  0  0  0  0  0
   12.9111  -19.6797   27.1274 O   0  0  0  0  0  0  0  0  0  0  0  0
   11.6584  -18.3141   25.6303 C   0  0  0  0  0  0  0  0  0  0  0  0
   10.4687  -17.9504   26.4464 C   0  0  2  0  0  0  0  0  0  0  0  0
    9.9117  -16.6455   26.1661 N   0  0  0  0  0  0  0  0  0  0  0  0
   10.7548  -18.0877   27.9157 C   0  0  0  0  0  0  0  0  0  0  0  0
   11.3708  -17.0246   28.5493 O   0  0  0  0  0  0  0  0  0  0  0  0
   10.4654  -19.1035   28.5806 O   0  0  0  0  0  0  0  0  0  0  0  0
  1  2  1  0
  3  2  1  0
  4  3  1  0
  5  4  1  0
  5  6  1  1
  7  8  2  0
  7  5  1  0
 10  9  1  1
 10 12  1  0
 11 10  1  0
 13 12  1  1
 13 14  1  0
 14  7  1  0
 15 13  1  0
 15 22  1  0
 16 15  2  0
 17 18  1  0
 18 20  1  0
 18 19  2  0
 21 20  1  6
 21 22  1  0
 21 23  1  0
 23 25  2  0
 23 24  1  0
M  END
$$$$
