MLN.pdb
     RDKit          3D

 25 24  0  0  1  0  0  0  0  0999 V2000
    3.5112  -17.2713   18.9966 C   0  0  0  0  0  0  0  0  0  0  0  0
    4.5219  -16.5280   20.2780 S   0  0  0  0  0  0  0  0  0  0  0  0
    6.1454  -16.0356   19.7135 C   0  0  0  0  0  0  0  0  0  0  0  0
    7.0102  -15.3496   20.7079 C   0  0  0  0  0  0  0  0  0  0  0  0
    7.4331  -16.1836   21.8649 C   0  0  2  0  0  0  0  0  0  0  0  0
    6.3067  -16.8759   22.4576 N   0  0  0  0  0  0  0  0  0  0  0  0
    8.1414  -15.3439   22.8738 C   0  0  0  0  0  0  0  0  0  0  0  0
    9.2578  -14.8580   22.5818 O   0  0  0  0  0  0  0  0  0  0  0  0
    5.8206  -12.0326   26.7747 C   0  0  0  0  0  0  0  0  0  0  0  0
    6.6391  -12.5867   25.5862 C   0  0  1  0  0  0  0  0  0  0  0  0
    7.4069  -11.3642   25.0638 C   0  0  0  0  0  0  0  0  0  0  0  0
    7.5917  -13.5737   26.1531 C   0  0  0  0  0  0  0  0  0  0  0  0
    8.3945  -14.3777   25.1711 C   0  0  2  0  0  0  0  0  0  0  0  0
    7.6249  -15.0557   24.1617 N   0  0  0  0  0  0  0  0  0  0  0  0
    9.2884  -15.3633   25.8426 C   0  0  0  0  0  0  0  0  0  0  0  0
   10.0082  -15.0128   26.8133 O   0  0  0  0  0  0  0  0  0  0  0  0
   10.5788  -20.7912   27.4148 N   0  0  0  0  0  0  0  0  0  0  0  0
   10.9355  -20.0280   26.2770 C   0  0  0  0  0  0  0  0  0  0  0  0
   12.1124  -20.1669   25.8054 O   0  0  0  0  0  0  0  0  0  0  0  0
    9.9827  -19.1088   25.6622 C   0  0  0  0  0  0  0  0  0  0  0  0
   10.2745  -17.6932   26.0154 C   0  0  2  0  0  0  0  0  0  0  0  0
    9.3754  -16.7211   25.4338 N   0  0  0  0  0  0  0  0  0  0  0  0
   11.6999  -17.3365   25.6984 C   0  0  0  0  0  0  0  0  0  0  0  0
   12.0060  -17.0323   24.3851 O   0  0  0  0  0  0  0  0  0  0  0  0
   12.6071  -17.3027   26.5549 O   0  0  0  0  0  0  0  0  0  0  0  0
  1  2  1  0
  3  2  1  0
  4  3  1  0
  5  4  1  0
  5  6  1  1
  7  8  2  0
  7  5  1  0
 10  9  1  1
 10 12  1  0
 11 10  1  0
 13 12  1  1
 13 14  1  0
 14  7  1  0
 15 13  1  0
 15 22  1  0
 16 15  2  0
 17 18  1  0
 18 20  1  0
 18 19  2  0
 21 20  1  6
 21 22  1  0
 21 23  1  0
 23 25  2  0
 23 24  1  0
M  END
$$$$
