MLN.pdb
     RDKit          3D

 25 24  0  0  1  0  0  0  0  0999 V2000
    8.6495  -12.1806   27.2234 C   0  0  0  0  0  0  0  0  0  0  0  0
    9.2693  -13.7757   27.7593 S   0  0  0  0  0  0  0  0  0  0  0  0
    8.4763  -15.1598   26.9516 C   0  0  0  0  0  0  0  0  0  0  0  0
    8.0399  -14.9437   25.5480 C   0  0  0  0  0  0  0  0  0  0  0  0
    7.2943  -16.0747   24.9331 C   0  0  2  0  0  0  0  0  0  0  0  0
    7.4820  -17.3011   25.6814 N   0  0  0  0  0  0  0  0  0  0  0  0
    7.7004  -16.2452   23.5080 C   0  0  0  0  0  0  0  0  0  0  0  0
    7.6164  -17.3799   22.9853 O   0  0  0  0  0  0  0  0  0  0  0  0
    7.5677  -12.1089   19.7016 C   0  0  0  0  0  0  0  0  0  0  0  0
    7.2986  -13.4195   20.4759 C   0  0  1  0  0  0  0  0  0  0  0  0
    6.2386  -14.1385   19.6292 C   0  0  0  0  0  0  0  0  0  0  0  0
    8.5666  -14.1908   20.4543 C   0  0  0  0  0  0  0  0  0  0  0  0
    8.6375  -15.3978   21.3449 C   0  0  2  0  0  0  0  0  0  0  0  0
    8.1829  -15.1899   22.6943 N   0  0  0  0  0  0  0  0  0  0  0  0
   10.0019  -15.9965   21.3799 C   0  0  0  0  0  0  0  0  0  0  0  0
   10.4583  -16.6016   20.3755 O   0  0  0  0  0  0  0  0  0  0  0  0
   13.5617  -13.9852   20.5641 N   0  0  0  0  0  0  0  0  0  0  0  0
   13.6762  -15.2780   21.1296 C   0  0  0  0  0  0  0  0  0  0  0  0
   14.1297  -16.2169   20.3949 O   0  0  0  0  0  0  0  0  0  0  0  0
   13.2863  -15.5281   22.5138 C   0  0  0  0  0  0  0  0  0  0  0  0
   12.1645  -16.5014   22.6042 C   0  0  2  0  0  0  0  0  0  0  0  0
   10.8431  -15.9192   22.5222 N   0  0  0  0  0  0  0  0  0  0  0  0
   12.2810  -17.3521   23.8381 C   0  0  0  0  0  0  0  0  0  0  0  0
   12.8533  -18.6029   23.7006 O   0  0  0  0  0  0  0  0  0  0  0  0
   11.8902  -16.9857   24.9653 O   0  0  0  0  0  0  0  0  0  0  0  0
  1  2  1  0
  3  2  1  0
  4  3  1  0
  5  4  1  0
  5  6  1  1
  7  8  2  0
  7  5  1  0
 10  9  1  6
 10 12  1  0
 11 10  1  0
 13 12  1  6
 13 14  1  0
 14  7  1  0
 15 13  1  0
 15 22  1  0
 16 15  2  0
 17 18  1  0
 18 20  1  0
 18 19  2  0
 21 20  1  1
 21 22  1  0
 21 23  1  0
 23 25  2  0
 23 24  1  0
M  END
$$$$
