MLN.pdb
     RDKit          3D

 25 24  0  0  1  0  0  0  0  0999 V2000
    8.1905  -11.3892   19.1752 C   0  0  0  0  0  0  0  0  0  0  0  0
    7.5346  -12.9505   18.5854 S   0  0  0  0  0  0  0  0  0  0  0  0
    8.0705  -14.3604   19.5456 C   0  0  0  0  0  0  0  0  0  0  0  0
    8.5490  -14.0776   20.9234 C   0  0  0  0  0  0  0  0  0  0  0  0
    8.8587  -15.2770   21.7472 C   0  0  2  0  0  0  0  0  0  0  0  0
    7.8047  -16.2671   21.6571 N   0  0  0  0  0  0  0  0  0  0  0  0
    9.1053  -14.8795   23.1636 C   0  0  0  0  0  0  0  0  0  0  0  0
   10.1672  -14.2807   23.4490 O   0  0  0  0  0  0  0  0  0  0  0  0
    5.6522  -12.6198   26.8889 C   0  0  0  0  0  0  0  0  0  0  0  0
    6.8955  -12.9108   26.0176 C   0  0  1  0  0  0  0  0  0  0  0  0
    7.9198  -11.8615   26.4724 C   0  0  0  0  0  0  0  0  0  0  0  0
    7.3659  -14.2677   26.3928 C   0  0  0  0  0  0  0  0  0  0  0  0
    8.5074  -14.8305   25.5957 C   0  0  2  0  0  0  0  0  0  0  0  0
    8.2017  -15.1397   24.2239 N   0  0  0  0  0  0  0  0  0  0  0  0
    9.1106  -16.0312   26.2403 C   0  0  0  0  0  0  0  0  0  0  0  0
    9.3902  -16.0232   27.4672 O   0  0  0  0  0  0  0  0  0  0  0  0
   10.7183  -18.4647   23.4633 N   0  0  0  0  0  0  0  0  0  0  0  0
   10.1574  -19.6437   24.0107 C   0  0  0  0  0  0  0  0  0  0  0  0
   10.0785  -20.6743   23.2635 O   0  0  0  0  0  0  0  0  0  0  0  0
    9.6834  -19.6776   25.3909 C   0  0  0  0  0  0  0  0  0  0  0  0
    9.9823  -18.4090   26.1087 C   0  0  2  0  0  0  0  0  0  0  0  0
    9.3969  -17.2235   25.5226 N   0  0  0  0  0  0  0  0  0  0  0  0
   11.4629  -18.2220   26.2886 C   0  0  0  0  0  0  0  0  0  0  0  0
   12.0359  -17.0903   25.7392 O   0  0  0  0  0  0  0  0  0  0  0  0
   12.1884  -19.0305   26.9030 O   0  0  0  0  0  0  0  0  0  0  0  0
  1  2  1  0
  3  2  1  0
  4  3  1  0
  5  4  1  0
  5  6  1  1
  7  8  2  0
  7  5  1  0
 10  9  1  1
 10 12  1  0
 11 10  1  0
 13 12  1  1
 13 14  1  0
 14  7  1  0
 15 13  1  0
 15 22  1  0
 16 15  2  0
 17 18  1  0
 18 20  1  0
 18 19  2  0
 21 20  1  6
 21 22  1  0
 21 23  1  0
 23 25  2  0
 23 24  1  0
M  END
$$$$
