MLN.pdb
     RDKit          3D

 25 24  0  0  1  0  0  0  0  0999 V2000
    7.1067  -11.5274   27.7766 C   0  0  0  0  0  0  0  0  0  0  0  0
    7.1211  -12.4223   26.2226 S   0  0  0  0  0  0  0  0  0  0  0  0
    6.7866  -14.1698   26.3998 C   0  0  0  0  0  0  0  0  0  0  0  0
    6.7749  -14.9701   25.1481 C   0  0  0  0  0  0  0  0  0  0  0  0
    8.0752  -15.5917   24.7793 C   0  0  2  0  0  0  0  0  0  0  0  0
    9.1910  -14.8536   25.3356 N   0  0  0  0  0  0  0  0  0  0  0  0
    8.1896  -15.7052   23.2964 C   0  0  0  0  0  0  0  0  0  0  0  0
    7.3330  -16.3711   22.6715 O   0  0  0  0  0  0  0  0  0  0  0  0
    8.3366  -11.7651   19.8978 C   0  0  0  0  0  0  0  0  0  0  0  0
    8.0753  -13.0989   20.6343 C   0  0  1  0  0  0  0  0  0  0  0  0
    6.7983  -13.6408   19.9762 C   0  0  0  0  0  0  0  0  0  0  0  0
    9.2203  -13.9882   20.3167 C   0  0  0  0  0  0  0  0  0  0  0  0
    9.3290  -15.2582   21.1107 C   0  0  2  0  0  0  0  0  0  0  0  0
    9.2212  -15.0991   22.5368 N   0  0  0  0  0  0  0  0  0  0  0  0
   10.5744  -16.0156   20.8003 C   0  0  0  0  0  0  0  0  0  0  0  0
   10.8960  -16.2517   19.6069 O   0  0  0  0  0  0  0  0  0  0  0  0
   12.8930  -13.9389   19.3158 N   0  0  0  0  0  0  0  0  0  0  0  0
   13.5713  -15.0334   19.9043 C   0  0  0  0  0  0  0  0  0  0  0  0
   14.2170  -15.8223   19.1378 O   0  0  0  0  0  0  0  0  0  0  0  0
   13.5319  -15.2518   21.3470 C   0  0  0  0  0  0  0  0  0  0  0  0
   12.8879  -16.5480   21.6919 C   0  0  2  0  0  0  0  0  0  0  0  0
   11.4473  -16.5015   21.8104 N   0  0  0  0  0  0  0  0  0  0  0  0
   13.4918  -17.1416   22.9339 C   0  0  0  0  0  0  0  0  0  0  0  0
   14.8565  -17.3625   22.9387 O   0  0  0  0  0  0  0  0  0  0  0  0
   12.8267  -17.4399   23.9470 O   0  0  0  0  0  0  0  0  0  0  0  0
  1  2  1  0
  3  2  1  0
  4  3  1  0
  5  4  1  0
  5  6  1  6
  7  8  2  0
  7  5  1  0
 10  9  1  6
 10 12  1  0
 11 10  1  0
 13 12  1  6
 13 14  1  0
 14  7  1  0
 15 13  1  0
 15 22  1  0
 16 15  2  0
 17 18  1  0
 18 20  1  0
 18 19  2  0
 21 20  1  1
 21 22  1  0
 21 23  1  0
 23 25  2  0
 23 24  1  0
M  END
$$$$
