VHL.pdb
     RDKit          3D

 26 26  0  0  1  0  0  0  0  0999 V2000
    8.4609  -12.1948   18.6631 C   0  0  0  0  0  0  0  0  0  0  0  0
    8.4144  -13.0377   19.9260 C   0  0  1  0  0  0  0  0  0  0  0  0
    7.0162  -12.9601   20.5076 C   0  0  0  0  0  0  0  0  0  0  0  0
    8.6417  -14.4796   19.5212 C   0  0  2  0  0  0  0  0  0  0  0  0
    7.6759  -14.8750   18.5143 N   0  0  0  0  0  0  0  0  0  0  0  0
    8.5452  -15.4133   20.6492 C   0  0  0  0  0  0  0  0  0  0  0  0
    7.4737  -16.0822   20.8540 O   0  0  0  0  0  0  0  0  0  0  0  0
    9.5763  -15.6595   21.5824 N   0  0  0  0  0  0  0  0  0  0  0  0
    9.4076  -16.6371   22.6999 C   0  0  1  0  0  0  0  0  0  0  0  0
   10.4965  -17.6178   22.5028 C   0  0  0  0  0  0  0  0  0  0  0  0
   10.6570  -18.6618   23.5314 C   0  0  0  0  0  0  0  0  0  0  0  0
   11.4309  -18.7337   24.6594 C   0  0  0  0  0  0  0  0  0  0  0  0
   11.1797  -19.8780   25.3325 N   0  0  0  0  0  0  0  0  0  0  0  0
   10.2509  -20.5218   24.6315 C   0  0  0  0  0  0  0  0  0  0  0  0
    9.9216  -19.8266   23.5607 N   0  0  0  0  0  0  0  0  0  0  0  0
    9.5530  -15.8373   23.9516 C   0  0  0  0  0  0  0  0  0  0  0  0
   10.4285  -14.9440   23.9963 O   0  0  0  0  0  0  0  0  0  0  0  0
    5.7285  -13.3239   26.5848 C   0  0  0  0  0  0  0  0  0  0  0  0
    7.1438  -13.6335   26.0760 C   0  0  1  0  0  0  0  0  0  0  0  0
    8.0611  -12.4663   26.3040 C   0  0  0  0  0  0  0  0  0  0  0  0
    7.5764  -14.8874   26.7551 C   0  0  0  0  0  0  0  0  0  0  0  0
    8.8967  -15.4269   26.2935 C   0  0  2  0  0  0  0  0  0  0  0  0
    8.7014  -16.1079   25.0520 N   0  0  0  0  0  0  0  0  0  0  0  0
    9.3439  -16.4103   27.3371 C   0  0  0  0  0  0  0  0  0  0  0  0
   10.0932  -16.0400   28.4375 O   0  0  0  0  0  0  0  0  0  0  0  0
    9.0328  -17.6228   27.2201 O   0  0  0  0  0  0  0  0  0  0  0  0
  2  4  1  0
  2  1  1  6
  3  2  1  0
  4  5  1  6
  6  4  1  0
  6  7  2  0
  8  6  1  0
  9  8  1  0
  9 10  1  6
 11 10  1  0
 11 12  2  0
 13 12  1  0
 14 15  2  0
 14 13  1  0
 15 11  1  0
 16  9  1  0
 17 16  2  0
 19 18  1  1
 19 21  1  0
 20 19  1  0
 22 21  1  1
 22 23  1  0
 22 24  1  0
 23 16  1  0
 24 26  2  0
 24 25  1  0
M  END
$$$$
