VHL.pdb
     RDKit          3D

 26 26  0  0  1  0  0  0  0  0999 V2000
    8.4730  -12.4153   20.8010 C   0  0  0  0  0  0  0  0  0  0  0  0
    8.0148  -13.0964   19.5228 C   0  0  1  0  0  0  0  0  0  0  0  0
    8.4154  -12.2312   18.3438 C   0  0  0  0  0  0  0  0  0  0  0  0
    8.7850  -14.3946   19.3959 C   0  0  2  0  0  0  0  0  0  0  0  0
    8.4166  -15.0775   18.1707 N   0  0  0  0  0  0  0  0  0  0  0  0
    8.5586  -15.3075   20.5224 C   0  0  0  0  0  0  0  0  0  0  0  0
    7.4644  -15.9633   20.6223 O   0  0  0  0  0  0  0  0  0  0  0  0
    9.4814  -15.5463   21.5645 N   0  0  0  0  0  0  0  0  0  0  0  0
    9.1804  -16.4960   22.6782 C   0  0  1  0  0  0  0  0  0  0  0  0
   10.0691  -17.6517   22.4310 C   0  0  0  0  0  0  0  0  0  0  0  0
    9.5686  -18.7055   21.5296 C   0  0  0  0  0  0  0  0  0  0  0  0
    8.3027  -19.1033   21.1893 C   0  0  0  0  0  0  0  0  0  0  0  0
    8.3491  -20.0802   20.2570 N   0  0  0  0  0  0  0  0  0  0  0  0
    9.6384  -20.2945   20.0113 C   0  0  0  0  0  0  0  0  0  0  0  0
   10.3840  -19.4956   20.7491 N   0  0  0  0  0  0  0  0  0  0  0  0
    9.5104  -15.7551   23.9311 C   0  0  0  0  0  0  0  0  0  0  0  0
   10.6935  -15.3946   24.1228 O   0  0  0  0  0  0  0  0  0  0  0  0
    5.7685  -12.6066   26.6047 C   0  0  0  0  0  0  0  0  0  0  0  0
    7.0922  -13.0305   25.9519 C   0  0  1  0  0  0  0  0  0  0  0  0
    8.0799  -11.8991   25.9627 C   0  0  0  0  0  0  0  0  0  0  0  0
    7.5548  -14.2473   26.6772 C   0  0  0  0  0  0  0  0  0  0  0  0
    8.7988  -14.8730   26.1218 C   0  0  2  0  0  0  0  0  0  0  0  0
    8.4820  -15.4802   24.8671 N   0  0  0  0  0  0  0  0  0  0  0  0
    9.2148  -15.9350   27.0991 C   0  0  0  0  0  0  0  0  0  0  0  0
   10.0022  -15.6653   28.2023 O   0  0  0  0  0  0  0  0  0  0  0  0
    8.8406  -17.1220   26.9214 O   0  0  0  0  0  0  0  0  0  0  0  0
  2  4  1  0
  2  1  1  1
  3  2  1  0
  4  5  1  6
  6  4  1  0
  6  7  2  0
  8  6  1  0
  9  8  1  0
  9 10  1  6
 11 10  1  0
 11 12  2  0
 13 12  1  0
 14 15  2  0
 14 13  1  0
 15 11  1  0
 16  9  1  0
 17 16  2  0
 19 18  1  1
 19 21  1  0
 20 19  1  0
 22 21  1  1
 22 23  1  0
 22 24  1  0
 23 16  1  0
 24 26  2  0
 24 25  1  0
M  END
$$$$
