VHL.pdb
     RDKit          3D

 26 26  0  0  1  0  0  0  0  0999 V2000
    8.5237  -12.6118   20.4415 C   0  0  0  0  0  0  0  0  0  0  0  0
    7.7199  -13.3451   19.3814 C   0  0  1  0  0  0  0  0  0  0  0  0
    7.8279  -12.5791   18.0772 C   0  0  0  0  0  0  0  0  0  0  0  0
    8.3802  -14.6897   19.1564 C   0  0  2  0  0  0  0  0  0  0  0  0
    7.6902  -15.4171   18.1087 N   0  0  0  0  0  0  0  0  0  0  0  0
    8.4049  -15.5249   20.3628 C   0  0  0  0  0  0  0  0  0  0  0  0
    7.3293  -16.0481   20.8174 O   0  0  0  0  0  0  0  0  0  0  0  0
    9.5638  -15.8242   21.1125 N   0  0  0  0  0  0  0  0  0  0  0  0
    9.4901  -16.5494   22.4169 C   0  0  1  0  0  0  0  0  0  0  0  0
   10.6947  -17.4068   22.4336 C   0  0  0  0  0  0  0  0  0  0  0  0
   10.9595  -18.1723   23.6654 C   0  0  0  0  0  0  0  0  0  0  0  0
   10.2425  -18.3367   24.8210 C   0  0  0  0  0  0  0  0  0  0  0  0
   10.8708  -19.2011   25.6479 N   0  0  0  0  0  0  0  0  0  0  0  0
   11.9771  -19.5796   25.0142 C   0  0  0  0  0  0  0  0  0  0  0  0
   12.0566  -18.9877   23.8387 N   0  0  0  0  0  0  0  0  0  0  0  0
    9.5083  -15.4856   23.4636 C   0  0  0  0  0  0  0  0  0  0  0  0
   10.3772  -14.5875   23.3933 O   0  0  0  0  0  0  0  0  0  0  0  0
    8.1000  -11.7489   26.5014 C   0  0  0  0  0  0  0  0  0  0  0  0
    7.1879  -12.9366   26.8412 C   0  0  1  0  0  0  0  0  0  0  0  0
    5.7881  -12.4718   27.1245 C   0  0  0  0  0  0  0  0  0  0  0  0
    7.2914  -13.8930   25.7030 C   0  0  0  0  0  0  0  0  0  0  0  0
    8.6197  -14.5764   25.5772 C   0  0  2  0  0  0  0  0  0  0  0  0
    8.5472  -15.5189   24.5049 N   0  0  0  0  0  0  0  0  0  0  0  0
    8.8473  -15.3073   26.8695 C   0  0  0  0  0  0  0  0  0  0  0  0
    8.4922  -16.6307   27.0496 O   0  0  0  0  0  0  0  0  0  0  0  0
    9.3810  -14.7063   27.8361 O   0  0  0  0  0  0  0  0  0  0  0  0
  2  4  1  0
  2  1  1  1
  3  2  1  0
  4  5  1  6
  6  4  1  0
  6  7  2  0
  8  6  1  0
  9  8  1  0
  9 10  1  1
 11 10  1  0
 11 12  2  0
 13 12  1  0
 14 15  2  0
 14 13  1  0
 15 11  1  0
 16  9  1  0
 17 16  2  0
 19 18  1  6
 19 21  1  0
 20 19  1  0
 22 21  1  1
 22 23  1  0
 22 24  1  0
 23 16  1  0
 24 26  2  0
 24 25  1  0
M  END
$$$$
