VHL.pdb
     RDKit          3D

 26 26  0  0  1  0  0  0  0  0999 V2000
    8.6146  -12.4004   20.8223 C   0  0  0  0  0  0  0  0  0  0  0  0
    8.0147  -13.2391   19.7069 C   0  0  1  0  0  0  0  0  0  0  0  0
    8.1969  -12.5004   18.3952 C   0  0  0  0  0  0  0  0  0  0  0  0
    8.8255  -14.5148   19.6081 C   0  0  2  0  0  0  0  0  0  0  0  0
    8.4170  -15.2788   18.4451 N   0  0  0  0  0  0  0  0  0  0  0  0
    8.6958  -15.3694   20.7940 C   0  0  0  0  0  0  0  0  0  0  0  0
    7.5955  -15.9708   21.0488 O   0  0  0  0  0  0  0  0  0  0  0  0
    9.7235  -15.6059   21.7335 N   0  0  0  0  0  0  0  0  0  0  0  0
    9.5255  -16.5160   22.9020 C   0  0  1  0  0  0  0  0  0  0  0  0
   10.5609  -17.5590   22.7399 C   0  0  0  0  0  0  0  0  0  0  0  0
   10.2280  -18.7110   21.8822 C   0  0  0  0  0  0  0  0  0  0  0  0
    9.1482  -18.9856   21.0851 C   0  0  0  0  0  0  0  0  0  0  0  0
    9.3302  -20.1525   20.4287 N   0  0  0  0  0  0  0  0  0  0  0  0
   10.5197  -20.6086   20.8102 C   0  0  0  0  0  0  0  0  0  0  0  0
   11.0749  -19.7768   21.6696 N   0  0  0  0  0  0  0  0  0  0  0  0
    9.7316  -15.6623   24.1088 C   0  0  0  0  0  0  0  0  0  0  0  0
   10.7961  -15.0119   24.2107 O   0  0  0  0  0  0  0  0  0  0  0  0
    5.8778  -12.6191   26.3875 C   0  0  0  0  0  0  0  0  0  0  0  0
    7.2413  -13.0889   25.8604 C   0  0  1  0  0  0  0  0  0  0  0  0
    8.2221  -11.9519   25.8267 C   0  0  0  0  0  0  0  0  0  0  0  0
    7.6625  -14.2287   26.7231 C   0  0  0  0  0  0  0  0  0  0  0  0
    8.9475  -14.8834   26.3138 C   0  0  2  0  0  0  0  0  0  0  0  0
    8.7230  -15.6099   25.1034 N   0  0  0  0  0  0  0  0  0  0  0  0
    9.3062  -15.8428   27.4124 C   0  0  0  0  0  0  0  0  0  0  0  0
    9.9192  -15.4394   28.5833 O   0  0  0  0  0  0  0  0  0  0  0  0
    9.0452  -17.0652   27.2777 O   0  0  0  0  0  0  0  0  0  0  0  0
  2  4  1  0
  2  1  1  1
  3  2  1  0
  4  5  1  6
  6  4  1  0
  6  7  2  0
  8  6  1  0
  9  8  1  0
  9 10  1  6
 11 10  1  0
 11 12  2  0
 13 12  1  0
 14 15  2  0
 14 13  1  0
 15 11  1  0
 16  9  1  0
 17 16  2  0
 19 18  1  1
 19 21  1  0
 20 19  1  0
 22 21  1  1
 22 23  1  0
 22 24  1  0
 23 16  1  0
 24 26  2  0
 24 25  1  0
M  END
$$$$
