VHL.pdb
     RDKit          3D

 26 26  0  0  1  0  0  0  0  0999 V2000
    8.6288  -12.4371   20.4086 C   0  0  0  0  0  0  0  0  0  0  0  0
    7.8169  -13.1365   19.3319 C   0  0  1  0  0  0  0  0  0  0  0  0
    7.9214  -12.3338   18.0497 C   0  0  0  0  0  0  0  0  0  0  0  0
    8.4709  -14.4766   19.0651 C   0  0  2  0  0  0  0  0  0  0  0  0
    7.7991  -15.1525   17.9719 N   0  0  0  0  0  0  0  0  0  0  0  0
    8.4606  -15.3623   20.2351 C   0  0  0  0  0  0  0  0  0  0  0  0
    7.3683  -15.8840   20.6501 O   0  0  0  0  0  0  0  0  0  0  0  0
    9.6013  -15.7145   20.9896 N   0  0  0  0  0  0  0  0  0  0  0  0
    9.4994  -16.5501   22.2242 C   0  0  1  0  0  0  0  0  0  0  0  0
   10.6821  -17.4359   22.1718 C   0  0  0  0  0  0  0  0  0  0  0  0
   10.9221  -18.3087   23.3355 C   0  0  0  0  0  0  0  0  0  0  0  0
   10.1760  -18.5846   24.4507 C   0  0  0  0  0  0  0  0  0  0  0  0
   10.7913  -19.5156   25.2124 N   0  0  0  0  0  0  0  0  0  0  0  0
   11.9185  -19.8248   24.5780 C   0  0  0  0  0  0  0  0  0  0  0  0
   12.0231  -19.1270   23.4641 N   0  0  0  0  0  0  0  0  0  0  0  0
    9.5356  -15.5838   23.3611 C   0  0  0  0  0  0  0  0  0  0  0  0
   10.3618  -14.6442   23.3257 O   0  0  0  0  0  0  0  0  0  0  0  0
    8.1092  -11.8997   26.3724 C   0  0  0  0  0  0  0  0  0  0  0  0
    7.2412  -13.1221   26.7040 C   0  0  1  0  0  0  0  0  0  0  0  0
    5.8238  -12.7114   26.9837 C   0  0  0  0  0  0  0  0  0  0  0  0
    7.3848  -14.0695   25.5627 C   0  0  0  0  0  0  0  0  0  0  0  0
    8.6685  -14.8437   25.5483 C   0  0  2  0  0  0  0  0  0  0  0  0
    8.6393  -15.7533   24.4460 N   0  0  0  0  0  0  0  0  0  0  0  0
    8.7133  -15.6189   26.8340 C   0  0  0  0  0  0  0  0  0  0  0  0
    9.5909  -15.3148   27.8573 O   0  0  0  0  0  0  0  0  0  0  0  0
    7.9281  -16.5862   27.0024 O   0  0  0  0  0  0  0  0  0  0  0  0
  2  4  1  0
  2  1  1  1
  3  2  1  0
  4  5  1  6
  6  4  1  0
  6  7  2  0
  8  6  1  0
  9  8  1  0
  9 10  1  1
 11 10  1  0
 11 12  2  0
 13 12  1  0
 14 15  2  0
 14 13  1  0
 15 11  1  0
 16  9  1  0
 17 16  2  0
 19 18  1  6
 19 21  1  0
 20 19  1  0
 22 21  1  1
 22 23  1  0
 22 24  1  0
 23 16  1  0
 24 26  2  0
 24 25  1  0
M  END
$$$$
