VHL.pdb
     RDKit          3D

 26 26  0  0  1  0  0  0  0  0999 V2000
    8.2030  -12.6044   20.8271 C   0  0  0  0  0  0  0  0  0  0  0  0
    7.6208  -13.3063   19.6122 C   0  0  1  0  0  0  0  0  0  0  0  0
    7.7553  -12.3880   18.4130 C   0  0  0  0  0  0  0  0  0  0  0  0
    8.4798  -14.5221   19.3321 C   0  0  2  0  0  0  0  0  0  0  0  0
    7.9807  -15.2305   18.1692 N   0  0  0  0  0  0  0  0  0  0  0  0
    8.5312  -15.4594   20.4601 C   0  0  0  0  0  0  0  0  0  0  0  0
    7.5327  -16.2128   20.7297 O   0  0  0  0  0  0  0  0  0  0  0  0
    9.6361  -15.6202   21.3250 N   0  0  0  0  0  0  0  0  0  0  0  0
    9.5728  -16.5104   22.5234 C   0  0  1  0  0  0  0  0  0  0  0  0
   10.7359  -17.4118   22.3783 C   0  0  0  0  0  0  0  0  0  0  0  0
   10.5510  -18.6233   21.5588 C   0  0  0  0  0  0  0  0  0  0  0  0
    9.5074  -19.0659   20.7896 C   0  0  0  0  0  0  0  0  0  0  0  0
    9.8376  -20.2161   20.1621 N   0  0  0  0  0  0  0  0  0  0  0  0
   11.0838  -20.4944   20.5340 C   0  0  0  0  0  0  0  0  0  0  0  0
   11.5325  -19.5697   21.3598 N   0  0  0  0  0  0  0  0  0  0  0  0
    9.6759  -15.5986   23.7005 C   0  0  0  0  0  0  0  0  0  0  0  0
   10.0635  -14.4225   23.5181 O   0  0  0  0  0  0  0  0  0  0  0  0
    8.6401  -12.3034   26.7511 C   0  0  0  0  0  0  0  0  0  0  0  0
    7.5061  -13.3387   26.7480 C   0  0  1  0  0  0  0  0  0  0  0  0
    6.1795  -12.6779   26.5049 C   0  0  0  0  0  0  0  0  0  0  0  0
    7.8686  -14.3651   25.7302 C   0  0  0  0  0  0  0  0  0  0  0  0
    9.0914  -15.1683   26.0578 C   0  0  2  0  0  0  0  0  0  0  0  0
    9.3348  -16.0843   24.9877 N   0  0  0  0  0  0  0  0  0  0  0  0
    8.7747  -15.9359   27.3094 C   0  0  0  0  0  0  0  0  0  0  0  0
    8.0293  -17.0995   27.3014 O   0  0  0  0  0  0  0  0  0  0  0  0
    9.1968  -15.5171   28.4171 O   0  0  0  0  0  0  0  0  0  0  0  0
  2  4  1  0
  2  1  1  1
  3  2  1  0
  4  5  1  6
  6  4  1  0
  6  7  2  0
  8  6  1  0
  9  8  1  0
  9 10  1  6
 11 10  1  0
 11 12  2  0
 13 12  1  0
 14 15  2  0
 14 13  1  0
 15 11  1  0
 16  9  1  0
 17 16  2  0
 19 18  1  6
 19 21  1  0
 20 19  1  0
 22 21  1  6
 22 23  1  0
 22 24  1  0
 23 16  1  0
 24 26  2  0
 24 25  1  0
M  END
$$$$
