VHL.pdb
     RDKit          3D

 26 26  0  0  1  0  0  0  0  0999 V2000
    8.4414  -12.2622   18.4329 C   0  0  0  0  0  0  0  0  0  0  0  0
    8.4427  -13.0985   19.7010 C   0  0  1  0  0  0  0  0  0  0  0  0
    7.0900  -12.9604   20.3724 C   0  0  0  0  0  0  0  0  0  0  0  0
    8.5826  -14.5499   19.2907 C   0  0  2  0  0  0  0  0  0  0  0  0
    7.5550  -14.8994   18.3288 N   0  0  0  0  0  0  0  0  0  0  0  0
    8.4919  -15.4772   20.4245 C   0  0  0  0  0  0  0  0  0  0  0  0
    7.3976  -16.0877   20.6835 O   0  0  0  0  0  0  0  0  0  0  0  0
    9.5531  -15.7782   21.3065 N   0  0  0  0  0  0  0  0  0  0  0  0
    9.3574  -16.6544   22.5010 C   0  0  1  0  0  0  0  0  0  0  0  0
   10.4605  -17.6362   22.4260 C   0  0  0  0  0  0  0  0  0  0  0  0
   10.5513  -18.6312   23.5101 C   0  0  0  0  0  0  0  0  0  0  0  0
    9.7218  -18.9315   24.5581 C   0  0  0  0  0  0  0  0  0  0  0  0
   10.2025  -19.9852   25.2542 N   0  0  0  0  0  0  0  0  0  0  0  0
   11.3282  -20.3466   24.6455 C   0  0  0  0  0  0  0  0  0  0  0  0
   11.5604  -19.5641   23.6100 N   0  0  0  0  0  0  0  0  0  0  0  0
    9.4558  -15.7450   23.6803 C   0  0  0  0  0  0  0  0  0  0  0  0
   10.4633  -15.0105   23.7909 O   0  0  0  0  0  0  0  0  0  0  0  0
    7.4948  -12.3341   24.9450 C   0  0  0  0  0  0  0  0  0  0  0  0
    7.0002  -12.9334   26.2694 C   0  0  1  0  0  0  0  0  0  0  0  0
    5.6074  -12.4655   26.5808 C   0  0  0  0  0  0  0  0  0  0  0  0
    7.1297  -14.4126   26.1429 C   0  0  0  0  0  0  0  0  0  0  0  0
    8.5053  -14.8936   25.7910 C   0  0  2  0  0  0  0  0  0  0  0  0
    8.4126  -15.7359   24.6398 N   0  0  0  0  0  0  0  0  0  0  0  0
    8.9873  -15.7009   26.9623 C   0  0  0  0  0  0  0  0  0  0  0  0
    9.8367  -15.1860   27.9232 O   0  0  0  0  0  0  0  0  0  0  0  0
    8.6128  -16.8943   27.0890 O   0  0  0  0  0  0  0  0  0  0  0  0
  2  4  1  0
  2  1  1  6
  3  2  1  0
  4  5  1  6
  6  4  1  0
  6  7  2  0
  8  6  1  0
  9  8  1  0
  9 10  1  1
 11 10  1  0
 11 12  2  0
 13 12  1  0
 14 15  2  0
 14 13  1  0
 15 11  1  0
 16  9  1  0
 17 16  2  0
 19 18  1  6
 19 21  1  0
 20 19  1  0
 22 21  1  1
 22 23  1  0
 22 24  1  0
 23 16  1  0
 24 26  2  0
 24 25  1  0
M  END
$$$$
