VHL.pdb
     RDKit          3D

 26 26  0  0  1  0  0  0  0  0999 V2000
    8.5900  -12.3871   20.8211 C   0  0  0  0  0  0  0  0  0  0  0  0
    7.7572  -13.1354   19.7944 C   0  0  1  0  0  0  0  0  0  0  0  0
    7.7816  -12.3579   18.4928 C   0  0  0  0  0  0  0  0  0  0  0  0
    8.4431  -14.4594   19.5274 C   0  0  2  0  0  0  0  0  0  0  0  0
    7.8053  -15.1383   18.4158 N   0  0  0  0  0  0  0  0  0  0  0  0
    8.4294  -15.3562   20.6889 C   0  0  0  0  0  0  0  0  0  0  0  0
    7.4128  -16.0940   20.9328 O   0  0  0  0  0  0  0  0  0  0  0  0
    9.4871  -15.4922   21.6148 N   0  0  0  0  0  0  0  0  0  0  0  0
    9.4029  -16.4354   22.7708 C   0  0  1  0  0  0  0  0  0  0  0  0
   10.4961  -17.4039   22.5402 C   0  0  0  0  0  0  0  0  0  0  0  0
   10.6633  -18.4801   23.5339 C   0  0  0  0  0  0  0  0  0  0  0  0
    9.9534  -18.8177   24.6558 C   0  0  0  0  0  0  0  0  0  0  0  0
   10.4557  -19.9419   25.2121 N   0  0  0  0  0  0  0  0  0  0  0  0
   11.4757  -20.3103   24.4424 C   0  0  0  0  0  0  0  0  0  0  0  0
   11.6226  -19.4648   23.4414 N   0  0  0  0  0  0  0  0  0  0  0  0
    9.6074  -15.5928   23.9856 C   0  0  0  0  0  0  0  0  0  0  0  0
   10.6457  -14.8989   24.0685 O   0  0  0  0  0  0  0  0  0  0  0  0
    5.7469  -12.7384   26.2399 C   0  0  0  0  0  0  0  0  0  0  0  0
    7.0989  -13.2222   25.6958 C   0  0  1  0  0  0  0  0  0  0  0  0
    8.0268  -12.0643   25.4634 C   0  0  0  0  0  0  0  0  0  0  0  0
    7.6144  -14.2278   26.6673 C   0  0  0  0  0  0  0  0  0  0  0  0
    8.8740  -14.9211   26.2428 C   0  0  2  0  0  0  0  0  0  0  0  0
    8.6268  -15.5996   25.0091 N   0  0  0  0  0  0  0  0  0  0  0  0
    9.1875  -15.9283   27.3120 C   0  0  0  0  0  0  0  0  0  0  0  0
    9.1051  -17.2912   27.0991 O   0  0  0  0  0  0  0  0  0  0  0  0
    9.5405  -15.5328   28.4520 O   0  0  0  0  0  0  0  0  0  0  0  0
  2  4  1  0
  2  1  1  1
  3  2  1  0
  4  5  1  6
  6  4  1  0
  6  7  2  0
  8  6  1  0
  9  8  1  0
  9 10  1  6
 11 10  1  0
 11 12  2  0
 13 12  1  0
 14 15  2  0
 14 13  1  0
 15 11  1  0
 16  9  1  0
 17 16  2  0
 19 18  1  1
 19 21  1  0
 20 19  1  0
 22 21  1  1
 22 23  1  0
 22 24  1  0
 23 16  1  0
 24 26  2  0
 24 25  1  0
M  END
$$$$
