SWV.pdb
     RDKit          3D

 28 29  0  0  1  0  0  0  0  0999 V2000
   27.4763  -18.6371  -14.5559 O   0  0  0  0  0  0  0  0  0  0  0  0
   27.8484  -19.7241  -15.3543 C   0  0  0  0  0  0  0  0  0  0  0  0
   28.5153  -20.7757  -14.5429 C   0  0  2  0  0  0  0  0  0  0  0  0
   28.8252  -21.9640  -15.3043 N   0  0  0  0  0  0  0  0  0  0  0  0
   27.6864  -21.1229  -13.3405 C   0  0  0  0  0  0  0  0  0  0  0  0
   26.6890  -21.9066  -13.4559 O   0  0  0  0  0  0  0  0  0  0  0  0
   27.9369  -20.6284  -12.0447 N   0  0  0  0  0  0  0  0  0  0  0  0
   27.0562  -20.8902  -10.8994 C   0  0  1  0  0  0  0  0  0  0  0  0
   27.7947  -20.5168   -9.6740 C   0  0  0  0  0  0  0  0  0  0  0  0
   27.0418  -20.6517   -8.4123 C   0  0  0  0  0  0  0  0  0  0  0  0
   25.8069  -21.1534   -8.1116 C   0  0  0  0  0  0  0  0  0  0  0  0
   25.5330  -21.0435   -6.7886 N   0  0  0  0  0  0  0  0  0  0  0  0
   26.6040  -20.4657   -6.2356 C   0  0  0  0  0  0  0  0  0  0  0  0
   26.8289  -20.1308   -4.8993 C   0  0  0  0  0  0  0  0  0  0  0  0
   28.0102  -19.5374   -4.5266 C   0  0  0  0  0  0  0  0  0  0  0  0
   28.9809  -19.2733   -5.4978 C   0  0  0  0  0  0  0  0  0  0  0  0
   28.7413  -19.6078   -6.7983 C   0  0  0  0  0  0  0  0  0  0  0  0
   27.5492  -20.2088   -7.1845 C   0  0  0  0  0  0  0  0  0  0  0  0
   25.7229  -20.3004  -11.0472 C   0  0  0  0  0  0  0  0  0  0  0  0
   25.5739  -19.0700  -11.1274 O   0  0  0  0  0  0  0  0  0  0  0  0
   21.4400  -20.6445  -13.1955 C   0  0  0  0  0  0  0  0  0  0  0  0
   22.8019  -21.1718  -12.8106 C   0  0  1  0  0  0  0  0  0  0  0  0
   23.7504  -20.9066  -13.9560 C   0  0  0  0  0  0  0  0  0  0  0  0
   23.2592  -20.5443  -11.5060 C   0  0  2  0  0  0  0  0  0  0  0  0
   24.5401  -21.1141  -11.1062 N   0  0  0  0  0  0  0  0  0  0  0  0
   22.2222  -20.8417  -10.5019 C   0  0  0  0  0  0  0  0  0  0  0  0
   22.3253  -21.9046   -9.7977 O   0  0  0  0  0  0  0  0  0  0  0  0
   21.1219  -20.0617  -10.2392 O   0  0  0  0  0  0  0  0  0  0  0  0
  1  2  1  0
  3  2  1  0
  3  4  1  6
  5  3  1  0
  5  6  2  0
  7  5  1  0
  8  7  1  0
  8  9  1  1
 10  9  1  0
 10 11  2  0
 12 11  1  0
 13 18  2  0
 13 12  1  0
 14 13  1  0
 15 14  2  0
 16 15  1  0
 16 17  2  0
 17 18  1  0
 18 10  1  0
 19  8  1  0
 20 19  2  0
 22 21  1  6
 22 24  1  0
 23 22  1  0
 24 25  1  1
 25 19  1  0
 26 28  1  0
 26 24  1  0
 27 26  2  0
M  END
$$$$
