SWV.pdb
     RDKit          3D

 28 29  0  0  1  0  0  0  0  0999 V2000
   13.4583  -22.3684    2.2215 O   0  0  0  0  0  0  0  0  0  0  0  0
   14.3258  -21.6046    3.0099 C   0  0  0  0  0  0  0  0  0  0  0  0
   14.7743  -20.3890    2.2817 C   0  0  2  0  0  0  0  0  0  0  0  0
   15.4324  -20.6912    1.0313 N   0  0  0  0  0  0  0  0  0  0  0  0
   15.6605  -19.5463    3.1522 C   0  0  0  0  0  0  0  0  0  0  0  0
   16.8834  -19.8625    3.3163 O   0  0  0  0  0  0  0  0  0  0  0  0
   15.2257  -18.3884    3.8279 N   0  0  0  0  0  0  0  0  0  0  0  0
   16.0964  -17.5920    4.7018 C   0  0  1  0  0  0  0  0  0  0  0  0
   15.8709  -16.1670    4.3777 C   0  0  0  0  0  0  0  0  0  0  0  0
   16.9063  -15.5348    3.5380 C   0  0  0  0  0  0  0  0  0  0  0  0
   17.4292  -15.8400    2.3130 C   0  0  0  0  0  0  0  0  0  0  0  0
   18.3938  -14.9599    1.9495 N   0  0  0  0  0  0  0  0  0  0  0  0
   18.4897  -14.0809    2.9520 C   0  0  0  0  0  0  0  0  0  0  0  0
   19.3334  -12.9754    3.0724 C   0  0  0  0  0  0  0  0  0  0  0  0
   19.2776  -12.1844    4.1938 C   0  0  0  0  0  0  0  0  0  0  0  0
   18.3697  -12.4986    5.2098 C   0  0  0  0  0  0  0  0  0  0  0  0
   17.5545  -13.5836    5.0729 C   0  0  0  0  0  0  0  0  0  0  0  0
   17.6037  -14.3894    3.9418 C   0  0  0  0  0  0  0  0  0  0  0  0
   15.9815  -17.9518    6.1177 C   0  0  0  0  0  0  0  0  0  0  0  0
   14.8695  -18.0821    6.6554 O   0  0  0  0  0  0  0  0  0  0  0  0
   17.9880  -19.6496   10.2974 C   0  0  0  0  0  0  0  0  0  0  0  0
   18.0755  -19.4177    8.8077 C   0  0  1  0  0  0  0  0  0  0  0  0
   17.9632  -20.7557    8.1155 C   0  0  0  0  0  0  0  0  0  0  0  0
   17.0093  -18.4314    8.3656 C   0  0  2  0  0  0  0  0  0  0  0  0
   17.1411  -18.1686    6.9378 N   0  0  0  0  0  0  0  0  0  0  0  0
   17.2201  -17.1970    9.1428 C   0  0  0  0  0  0  0  0  0  0  0  0
   17.8996  -16.2449    8.6252 O   0  0  0  0  0  0  0  0  0  0  0  0
   16.7401  -16.9619   10.4087 O   0  0  0  0  0  0  0  0  0  0  0  0
  1  2  1  0
  3  2  1  0
  3  4  1  6
  5  3  1  0
  5  6  2  0
  7  5  1  0
  8  7  1  0
  8  9  1  1
 10  9  1  0
 10 11  2  0
 12 11  1  0
 13 18  2  0
 13 12  1  0
 14 13  1  0
 15 14  2  0
 16 15  1  0
 16 17  2  0
 17 18  1  0
 18 10  1  0
 19  8  1  0
 20 19  2  0
 22 21  1  1
 22 24  1  0
 23 22  1  0
 24 25  1  6
 25 19  1  0
 26 28  1  0
 26 24  1  0
 27 26  2  0
M  END
$$$$
