SWV.pdb
     RDKit          3D

 28 29  0  0  1  0  0  0  0  0999 V2000
   20.9198  -27.7353  -16.0210 O   0  0  0  0  0  0  0  0  0  0  0  0
   21.8926  -27.3845  -16.9634 C   0  0  0  0  0  0  0  0  0  0  0  0
   22.8750  -26.4317  -16.3836 C   0  0  2  0  0  0  0  0  0  0  0  0
   22.4502  -25.0541  -16.4817 N   0  0  0  0  0  0  0  0  0  0  0  0
   24.2248  -26.6121  -17.0152 C   0  0  0  0  0  0  0  0  0  0  0  0
   24.6279  -25.7966  -17.9067 O   0  0  0  0  0  0  0  0  0  0  0  0
   25.1132  -27.6551  -16.6848 N   0  0  0  0  0  0  0  0  0  0  0  0
   26.4286  -27.8217  -17.3156 C   0  0  1  0  0  0  0  0  0  0  0  0
   27.3910  -28.1824  -16.2525 C   0  0  0  0  0  0  0  0  0  0  0  0
   28.7682  -28.4530  -16.7072 C   0  0  0  0  0  0  0  0  0  0  0  0
   29.6529  -27.7493  -17.4748 C   0  0  0  0  0  0  0  0  0  0  0  0
   30.8161  -28.4249  -17.6409 N   0  0  0  0  0  0  0  0  0  0  0  0
   30.6757  -29.5737  -16.9720 C   0  0  0  0  0  0  0  0  0  0  0  0
   31.5860  -30.6219  -16.8269 C   0  0  0  0  0  0  0  0  0  0  0  0
   31.2493  -31.7302  -16.0889 C   0  0  0  0  0  0  0  0  0  0  0  0
   29.9888  -31.7963  -15.4875 C   0  0  0  0  0  0  0  0  0  0  0  0
   29.1135  -30.7616  -15.6421 C   0  0  0  0  0  0  0  0  0  0  0  0
   29.4456  -29.6362  -16.3866 C   0  0  0  0  0  0  0  0  0  0  0  0
   26.4034  -28.7074  -18.4828 C   0  0  0  0  0  0  0  0  0  0  0  0
   25.8031  -29.7941  -18.4472 O   0  0  0  0  0  0  0  0  0  0  0  0
   24.8922  -28.4775  -21.8238 C   0  0  0  0  0  0  0  0  0  0  0  0
   26.3843  -28.5713  -22.0371 C   0  0  1  0  0  0  0  0  0  0  0  0
   26.9144  -27.1771  -22.2762 C   0  0  0  0  0  0  0  0  0  0  0  0
   27.0422  -29.2600  -20.8548 C   0  0  2  0  0  0  0  0  0  0  0  0
   27.0661  -28.3589  -19.7091 N   0  0  0  0  0  0  0  0  0  0  0  0
   28.4126  -29.6079  -21.2708 C   0  0  0  0  0  0  0  0  0  0  0  0
   28.5873  -30.5770  -22.0873 O   0  0  0  0  0  0  0  0  0  0  0  0
   29.5566  -28.9703  -20.8550 O   0  0  0  0  0  0  0  0  0  0  0  0
  1  2  1  0
  3  2  1  0
  3  4  1  6
  5  3  1  0
  5  6  2  0
  7  5  1  0
  8  7  1  0
  8  9  1  1
 10  9  1  0
 10 11  2  0
 12 11  1  0
 13 18  2  0
 13 12  1  0
 14 13  1  0
 15 14  2  0
 16 15  1  0
 16 17  2  0
 17 18  1  0
 18 10  1  0
 19  8  1  0
 20 19  2  0
 22 21  1  1
 22 24  1  0
 23 22  1  0
 24 25  1  1
 25 19  1  0
 26 28  1  0
 26 24  1  0
 27 26  2  0
M  END
$$$$
