SWV.pdb
     RDKit          3D

 28 29  0  0  1  0  0  0  0  0999 V2000
   27.6233  -19.4402  -16.2130 O   0  0  0  0  0  0  0  0  0  0  0  0
   28.2039  -19.5096  -14.9419 C   0  0  0  0  0  0  0  0  0  0  0  0
   28.4829  -20.9190  -14.5615 C   0  0  2  0  0  0  0  0  0  0  0  0
   28.2401  -21.8524  -15.6374 N   0  0  0  0  0  0  0  0  0  0  0  0
   27.6959  -21.3049  -13.3428 C   0  0  0  0  0  0  0  0  0  0  0  0
   26.6408  -22.0089  -13.4593 O   0  0  0  0  0  0  0  0  0  0  0  0
   28.0486  -20.9328  -12.0300 N   0  0  0  0  0  0  0  0  0  0  0  0
   27.1244  -21.0222  -10.8926 C   0  0  1  0  0  0  0  0  0  0  0  0
   27.8830  -20.6720   -9.6726 C   0  0  0  0  0  0  0  0  0  0  0  0
   27.1090  -20.6883   -8.4166 C   0  0  0  0  0  0  0  0  0  0  0  0
   25.8149  -21.0131   -8.1219 C   0  0  0  0  0  0  0  0  0  0  0  0
   25.5484  -20.8515   -6.8027 N   0  0  0  0  0  0  0  0  0  0  0  0
   26.6841  -20.4192   -6.2459 C   0  0  0  0  0  0  0  0  0  0  0  0
   26.9424  -20.1027   -4.9112 C   0  0  0  0  0  0  0  0  0  0  0  0
   28.1909  -19.6720   -4.5339 C   0  0  0  0  0  0  0  0  0  0  0  0
   29.1959  -19.5542   -5.4988 C   0  0  0  0  0  0  0  0  0  0  0  0
   28.9228  -19.8678   -6.7979 C   0  0  0  0  0  0  0  0  0  0  0  0
   27.6628  -20.3047   -7.1888 C   0  0  0  0  0  0  0  0  0  0  0  0
   25.8749  -20.2857  -11.1022 C   0  0  0  0  0  0  0  0  0  0  0  0
   25.8649  -19.0446  -11.1479 O   0  0  0  0  0  0  0  0  0  0  0  0
   24.0406  -20.1139  -14.0084 C   0  0  0  0  0  0  0  0  0  0  0  0
   22.9855  -20.5632  -13.0257 C   0  0  1  0  0  0  0  0  0  0  0  0
   22.7486  -22.0408  -13.2322 C   0  0  0  0  0  0  0  0  0  0  0  0
   23.4091  -20.2242  -11.6077 C   0  0  2  0  0  0  0  0  0  0  0  0
   24.6179  -20.9627  -11.2635 N   0  0  0  0  0  0  0  0  0  0  0  0
   22.2946  -20.6110  -10.7245 C   0  0  0  0  0  0  0  0  0  0  0  0
   21.1944  -19.9619  -10.7911 O   0  0  0  0  0  0  0  0  0  0  0  0
   22.3233  -21.6354   -9.8091 O   0  0  0  0  0  0  0  0  0  0  0  0
  1  2  1  0
  3  2  1  0
  3  4  1  6
  5  3  1  0
  5  6  2  0
  7  5  1  0
  8  7  1  0
  8  9  1  1
 10  9  1  0
 10 11  2  0
 12 11  1  0
 13 18  2  0
 13 12  1  0
 14 13  1  0
 15 14  2  0
 16 15  1  0
 16 17  2  0
 17 18  1  0
 18 10  1  0
 19  8  1  0
 20 19  2  0
 22 21  1  6
 22 24  1  0
 23 22  1  0
 24 25  1  1
 25 19  1  0
 26 28  1  0
 26 24  1  0
 27 26  2  0
M  END
$$$$
