SWV.pdb
     RDKit          3D

 28 29  0  0  1  0  0  0  0  0999 V2000
   19.2143   -9.4471  -21.2203 O   0  0  0  0  0  0  0  0  0  0  0  0
   18.9623   -8.7438  -20.0374 C   0  0  0  0  0  0  0  0  0  0  0  0
   19.7779   -9.2799  -18.9165 C   0  0  2  0  0  0  0  0  0  0  0  0
   19.1972  -10.4547  -18.3078 N   0  0  0  0  0  0  0  0  0  0  0  0
   20.0219   -8.2184  -17.8834 C   0  0  0  0  0  0  0  0  0  0  0  0
   19.0763   -7.8419  -17.1176 O   0  0  0  0  0  0  0  0  0  0  0  0
   21.2644   -7.5822  -17.6896 N   0  0  0  0  0  0  0  0  0  0  0  0
   21.4968   -6.5697  -16.6519 C   0  0  1  0  0  0  0  0  0  0  0  0
   22.7917   -6.8792  -16.0084 C   0  0  0  0  0  0  0  0  0  0  0  0
   22.8134   -8.0989  -15.1786 C   0  0  0  0  0  0  0  0  0  0  0  0
   23.4913   -9.2814  -15.2752 C   0  0  0  0  0  0  0  0  0  0  0  0
   23.1645  -10.1270  -14.2675 N   0  0  0  0  0  0  0  0  0  0  0  0
   22.2680   -9.4793  -13.5168 C   0  0  0  0  0  0  0  0  0  0  0  0
   21.6174   -9.9097  -12.3593 C   0  0  0  0  0  0  0  0  0  0  0  0
   20.7208   -9.0849  -11.7251 C   0  0  0  0  0  0  0  0  0  0  0  0
   20.4678   -7.8142  -12.2508 C   0  0  0  0  0  0  0  0  0  0  0  0
   21.1136   -7.4129  -13.3833 C   0  0  0  0  0  0  0  0  0  0  0  0
   22.0226   -8.2404  -14.0315 C   0  0  0  0  0  0  0  0  0  0  0  0
   21.3354   -5.1962  -17.1363 C   0  0  0  0  0  0  0  0  0  0  0  0
   21.9302   -4.8035  -18.1535 O   0  0  0  0  0  0  0  0  0  0  0  0
   17.8492   -3.2098  -16.5082 C   0  0  0  0  0  0  0  0  0  0  0  0
   18.8558   -2.8220  -17.5652 C   0  0  1  0  0  0  0  0  0  0  0  0
   18.5119   -1.4356  -18.0567 C   0  0  0  0  0  0  0  0  0  0  0  0
   20.2654   -2.9204  -17.0100 C   0  0  2  0  0  0  0  0  0  0  0  0
   20.4881   -4.2525  -16.4611 N   0  0  0  0  0  0  0  0  0  0  0  0
   20.3820   -1.8977  -15.9553 C   0  0  0  0  0  0  0  0  0  0  0  0
   20.1261   -2.2212  -14.7445 O   0  0  0  0  0  0  0  0  0  0  0  0
   20.7530   -0.5894  -16.1530 O   0  0  0  0  0  0  0  0  0  0  0  0
  1  2  1  0
  3  2  1  0
  3  4  1  1
  5  3  1  0
  5  6  2  0
  7  5  1  0
  8  7  1  0
  8  9  1  6
 10  9  1  0
 10 11  2  0
 12 11  1  0
 13 18  2  0
 13 12  1  0
 14 13  1  0
 15 14  2  0
 16 15  1  0
 16 17  2  0
 17 18  1  0
 18 10  1  0
 19  8  1  0
 20 19  2  0
 22 21  1  1
 22 24  1  0
 23 22  1  0
 24 25  1  1
 25 19  1  0
 26 28  1  0
 26 24  1  0
 27 26  2  0
M  END
$$$$
