SWV.pdb
     RDKit          3D

 28 29  0  0  1  0  0  0  0  0999 V2000
   28.5213  -18.8071  -15.8909 O   0  0  0  0  0  0  0  0  0  0  0  0
   27.6445  -19.3650  -14.9541 C   0  0  0  0  0  0  0  0  0  0  0  0
   28.2272  -20.5885  -14.3438 C   0  0  2  0  0  0  0  0  0  0  0  0
   28.3059  -21.6970  -15.2674 N   0  0  0  0  0  0  0  0  0  0  0  0
   27.4632  -20.9825  -13.1132 C   0  0  0  0  0  0  0  0  0  0  0  0
   26.4846  -21.7933  -13.2002 O   0  0  0  0  0  0  0  0  0  0  0  0
   27.7568  -20.5050  -11.8202 N   0  0  0  0  0  0  0  0  0  0  0  0
   26.8730  -20.7120  -10.6660 C   0  0  1  0  0  0  0  0  0  0  0  0
   27.6162  -20.3013   -9.4555 C   0  0  0  0  0  0  0  0  0  0  0  0
   26.9328  -20.5566   -8.1731 C   0  0  0  0  0  0  0  0  0  0  0  0
   25.7279  -21.1159   -7.8529 C   0  0  0  0  0  0  0  0  0  0  0  0
   25.5197  -21.1182   -6.5135 N   0  0  0  0  0  0  0  0  0  0  0  0
   26.6030  -20.5550   -5.9695 C   0  0  0  0  0  0  0  0  0  0  0  0
   26.8879  -20.3197   -4.6234 C   0  0  0  0  0  0  0  0  0  0  0  0
   28.0717  -19.7235   -4.2633 C   0  0  0  0  0  0  0  0  0  0  0  0
   28.9842  -19.3559   -5.2568 C   0  0  0  0  0  0  0  0  0  0  0  0
   28.6864  -19.5940   -6.5665 C   0  0  0  0  0  0  0  0  0  0  0  0
   27.4915  -20.1970   -6.9403 C   0  0  0  0  0  0  0  0  0  0  0  0
   25.5471  -20.1119  -10.8368 C   0  0  0  0  0  0  0  0  0  0  0  0
   25.4040  -18.8788  -10.8741 O   0  0  0  0  0  0  0  0  0  0  0  0
   23.5014  -20.2098  -13.6711 C   0  0  0  0  0  0  0  0  0  0  0  0
   22.5679  -20.7203  -12.5994 C   0  0  1  0  0  0  0  0  0  0  0  0
   22.4463  -22.2180  -12.7553 C   0  0  0  0  0  0  0  0  0  0  0  0
   23.0672  -20.3068  -11.2265 C   0  0  2  0  0  0  0  0  0  0  0  0
   24.3651  -20.9182  -10.9683 N   0  0  0  0  0  0  0  0  0  0  0  0
   22.0684  -20.7752  -10.2493 C   0  0  0  0  0  0  0  0  0  0  0  0
   20.8994  -20.2560  -10.2575 O   0  0  0  0  0  0  0  0  0  0  0  0
   22.2776  -21.7482   -9.3018 O   0  0  0  0  0  0  0  0  0  0  0  0
  1  2  1  0
  3  2  1  0
  3  4  1  6
  5  3  1  0
  5  6  2  0
  7  5  1  0
  8  7  1  0
  8  9  1  1
 10  9  1  0
 10 11  2  0
 12 11  1  0
 13 18  2  0
 13 12  1  0
 14 13  1  0
 15 14  2  0
 16 15  1  0
 16 17  2  0
 17 18  1  0
 18 10  1  0
 19  8  1  0
 20 19  2  0
 22 21  1  6
 22 24  1  0
 23 22  1  0
 24 25  1  1
 25 19  1  0
 26 28  1  0
 26 24  1  0
 27 26  2  0
M  END
$$$$
