SWV.pdb
     RDKit          3D

 28 29  0  0  1  0  0  0  0  0999 V2000
   27.4562  -19.3108  -15.4114 O   0  0  0  0  0  0  0  0  0  0  0  0
   28.6965  -19.6325  -14.8496 C   0  0  0  0  0  0  0  0  0  0  0  0
   28.7477  -21.0659  -14.4600 C   0  0  2  0  0  0  0  0  0  0  0  0
   28.4680  -21.9598  -15.5603 N   0  0  0  0  0  0  0  0  0  0  0  0
   27.8182  -21.3370  -13.3129 C   0  0  0  0  0  0  0  0  0  0  0  0
   26.7367  -21.9819  -13.5047 O   0  0  0  0  0  0  0  0  0  0  0  0
   28.0601  -20.9158  -11.9898 N   0  0  0  0  0  0  0  0  0  0  0  0
   27.0690  -21.0364  -10.9131 C   0  0  1  0  0  0  0  0  0  0  0  0
   27.7479  -20.7033   -9.6424 C   0  0  0  0  0  0  0  0  0  0  0  0
   26.8770  -20.6460   -8.4528 C   0  0  0  0  0  0  0  0  0  0  0  0
   25.5446  -20.8797   -8.2594 C   0  0  0  0  0  0  0  0  0  0  0  0
   25.1854  -20.6771   -6.9682 N   0  0  0  0  0  0  0  0  0  0  0  0
   26.2995  -20.3103   -6.3272 C   0  0  0  0  0  0  0  0  0  0  0  0
   26.4713  -19.9874   -4.9801 C   0  0  0  0  0  0  0  0  0  0  0  0
   27.7117  -19.6330   -4.5088 C   0  0  0  0  0  0  0  0  0  0  0  0
   28.7961  -19.5988   -5.3909 C   0  0  0  0  0  0  0  0  0  0  0  0
   28.6069  -19.9173   -6.7037 C   0  0  0  0  0  0  0  0  0  0  0  0
   27.3556  -20.2774   -7.1893 C   0  0  0  0  0  0  0  0  0  0  0  0
   25.8270  -20.3077  -11.1848 C   0  0  0  0  0  0  0  0  0  0  0  0
   25.8247  -19.0715  -11.3043 O   0  0  0  0  0  0  0  0  0  0  0  0
   24.0101  -19.9354  -13.9880 C   0  0  0  0  0  0  0  0  0  0  0  0
   22.9427  -20.4662  -13.0607 C   0  0  1  0  0  0  0  0  0  0  0  0
   22.7114  -21.9214  -13.3932 C   0  0  0  0  0  0  0  0  0  0  0  0
   23.3467  -20.2466  -11.6138 C   0  0  2  0  0  0  0  0  0  0  0  0
   24.5687  -20.9870  -11.3244 N   0  0  0  0  0  0  0  0  0  0  0  0
   22.2336  -20.7348  -10.7803 C   0  0  0  0  0  0  0  0  0  0  0  0
   22.3868  -21.8116  -10.1070 O   0  0  0  0  0  0  0  0  0  0  0  0
   21.0093  -20.1245  -10.6507 O   0  0  0  0  0  0  0  0  0  0  0  0
  1  2  1  0
  3  2  1  0
  3  4  1  6
  5  3  1  0
  5  6  2  0
  7  5  1  0
  8  7  1  0
  8  9  1  1
 10  9  1  0
 10 11  2  0
 12 11  1  0
 13 18  2  0
 13 12  1  0
 14 13  1  0
 15 14  2  0
 16 15  1  0
 16 17  2  0
 17 18  1  0
 18 10  1  0
 19  8  1  0
 20 19  2  0
 22 21  1  6
 22 24  1  0
 23 22  1  0
 24 25  1  1
 25 19  1  0
 26 28  1  0
 26 24  1  0
 27 26  2  0
M  END
$$$$
