SWV.pdb
     RDKit          3D

 28 29  0  0  1  0  0  0  0  0999 V2000
   27.6018  -19.7392  -15.7667 O   0  0  0  0  0  0  0  0  0  0  0  0
   28.9073  -19.7725  -15.2646 C   0  0  0  0  0  0  0  0  0  0  0  0
   29.2016  -21.0868  -14.6359 C   0  0  2  0  0  0  0  0  0  0  0  0
   29.1046  -22.1902  -15.5638 N   0  0  0  0  0  0  0  0  0  0  0  0
   28.3118  -21.3178  -13.4492 C   0  0  0  0  0  0  0  0  0  0  0  0
   27.2980  -22.0823  -13.5492 O   0  0  0  0  0  0  0  0  0  0  0  0
   28.5205  -20.7303  -12.1852 N   0  0  0  0  0  0  0  0  0  0  0  0
   27.5601  -20.8375  -11.0797 C   0  0  1  0  0  0  0  0  0  0  0  0
   28.1968  -20.2578   -9.8776 C   0  0  0  0  0  0  0  0  0  0  0  0
   27.3482  -20.2055   -8.6718 C   0  0  0  0  0  0  0  0  0  0  0  0
   26.0025  -20.0618   -8.4831 C   0  0  0  0  0  0  0  0  0  0  0  0
   25.6821  -20.0524   -7.1661 N   0  0  0  0  0  0  0  0  0  0  0  0
   26.8347  -20.1922   -6.5037 C   0  0  0  0  0  0  0  0  0  0  0  0
   27.0548  -20.2443   -5.1263 C   0  0  0  0  0  0  0  0  0  0  0  0
   28.3292  -20.3960   -4.6370 C   0  0  0  0  0  0  0  0  0  0  0  0
   29.3994  -20.4965   -5.5313 C   0  0  0  0  0  0  0  0  0  0  0  0
   29.1630  -20.4426   -6.8736 C   0  0  0  0  0  0  0  0  0  0  0  0
   27.8770  -20.2897   -7.3777 C   0  0  0  0  0  0  0  0  0  0  0  0
   26.2316  -20.3169  -11.4139 C   0  0  0  0  0  0  0  0  0  0  0  0
   26.0872  -19.1569  -11.8337 O   0  0  0  0  0  0  0  0  0  0  0  0
   24.1278  -20.7213  -14.0504 C   0  0  0  0  0  0  0  0  0  0  0  0
   23.2478  -21.1759  -12.9103 C   0  0  1  0  0  0  0  0  0  0  0  0
   23.2319  -22.6864  -12.9013 C   0  0  0  0  0  0  0  0  0  0  0  0
   23.7347  -20.5813  -11.6009 C   0  0  2  0  0  0  0  0  0  0  0  0
   25.0488  -21.1201  -11.2722 N   0  0  0  0  0  0  0  0  0  0  0  0
   22.7485  -20.9517  -10.5703 C   0  0  0  0  0  0  0  0  0  0  0  0
   23.0996  -21.7453   -9.6305 O   0  0  0  0  0  0  0  0  0  0  0  0
   21.4480  -20.5111  -10.5183 O   0  0  0  0  0  0  0  0  0  0  0  0
  1  2  1  0
  3  2  1  0
  3  4  1  6
  5  3  1  0
  5  6  2  0
  7  5  1  0
  8  7  1  0
  8  9  1  1
 10  9  1  0
 10 11  2  0
 12 11  1  0
 13 18  2  0
 13 12  1  0
 14 13  1  0
 15 14  2  0
 16 15  1  0
 16 17  2  0
 17 18  1  0
 18 10  1  0
 19  8  1  0
 20 19  2  0
 22 21  1  6
 22 24  1  0
 23 22  1  0
 24 25  1  1
 25 19  1  0
 26 28  1  0
 26 24  1  0
 27 26  2  0
M  END
$$$$
