KDS.pdb
     RDKit          3D

 24 23  0  0  1  0  0  0  0  0999 V2000
   11.8939  -21.1288   16.9957 N   0  0  0  0  0  0  0  0  0  0  0  0
   12.1471  -19.7230   17.2633 C   0  0  1  0  0  0  0  0  0  0  0  0
   10.8235  -18.9999   17.0289 C   0  0  0  0  0  0  0  0  0  0  0  0
   10.5221  -19.0614   15.5574 C   0  0  0  0  0  0  0  0  0  0  0  0
    9.3072  -18.2423   15.2405 C   0  0  0  0  0  0  0  0  0  0  0  0
    9.1355  -18.1254   13.7427 C   0  0  0  0  0  0  0  0  0  0  0  0
    7.9995  -17.2460   13.4994 N   0  0  0  0  0  0  0  0  0  0  0  0
   12.4051  -19.5466   18.7555 C   0  0  0  0  0  0  0  0  0  0  0  0
   11.7198  -20.1518   19.6039 O   0  0  0  0  0  0  0  0  0  0  0  0
   13.4375  -18.6847   19.1838 N   0  0  0  0  0  0  0  0  0  0  0  0
   13.7991  -18.4673   20.5509 C   0  0  1  0  0  0  0  0  0  0  0  0
   15.2643  -18.3156   20.7410 C   0  0  0  0  0  0  0  0  0  0  0  0
   15.6902  -18.1416   22.1274 C   0  0  0  0  0  0  0  0  0  0  0  0
   15.1076  -18.8266   23.0564 O   0  0  0  0  0  0  0  0  0  0  0  0
   13.0012  -17.3654   21.1766 C   0  0  0  0  0  0  0  0  0  0  0  0
   13.0995  -16.1593   20.7784 O   0  0  0  0  0  0  0  0  0  0  0  0
   16.6760  -17.3001   22.5798 O   0  0  0  0  0  0  0  0  0  0  0  0
    9.4899  -18.0217   23.0016 O   0  0  0  0  0  0  0  0  0  0  0  0
    9.8593  -16.6897   22.6916 C   0  0  0  0  0  0  0  0  0  0  0  0
   11.3236  -16.5887   22.9026 C   0  0  2  0  0  0  0  0  0  0  0  0
   12.1110  -17.6138   22.2295 N   0  0  0  0  0  0  0  0  0  0  0  0
   11.6390  -16.6203   24.3867 C   0  0  0  0  0  0  0  0  0  0  0  0
   11.1178  -15.6306   25.2509 O   0  0  0  0  0  0  0  0  0  0  0  0
   12.3482  -17.4883   24.9143 O   0  0  0  0  0  0  0  0  0  0  0  0
  2  1  1  1
  3  2  1  0
  4  3  1  0
  5  6  1  0
  5  4  1  0
  6  7  1  0
  8  2  1  0
  8  9  2  0
 10  8  1  0
 11 12  1  6
 11 10  1  0
 13 12  1  0
 13 17  1  0
 14 13  2  0
 15 11  1  0
 16 15  2  0
 19 18  1  0
 20 19  1  1
 20 21  1  0
 21 15  1  0
 22 23  1  0
 22 20  1  0
 24 22  2  0
M  END
$$$$
