KDS.pdb
     RDKit          3D

 24 23  0  0  1  0  0  0  0  0999 V2000
    6.2363  -18.5400   24.7943 N   0  0  0  0  0  0  0  0  0  0  0  0
    7.0592  -17.8358   23.8251 C   0  0  1  0  0  0  0  0  0  0  0  0
    7.8741  -16.8178   24.6183 C   0  0  0  0  0  0  0  0  0  0  0  0
    6.9617  -15.6768   24.9730 C   0  0  0  0  0  0  0  0  0  0  0  0
    7.7077  -14.6378   25.7548 C   0  0  0  0  0  0  0  0  0  0  0  0
    6.8355  -13.4209   25.9662 C   0  0  0  0  0  0  0  0  0  0  0  0
    7.5192  -12.5513   26.9146 N   0  0  0  0  0  0  0  0  0  0  0  0
    8.1053  -18.8002   23.2774 C   0  0  0  0  0  0  0  0  0  0  0  0
    8.3957  -19.8495   23.8860 O   0  0  0  0  0  0  0  0  0  0  0  0
    8.7551  -18.5009   22.0608 N   0  0  0  0  0  0  0  0  0  0  0  0
    9.7742  -19.3086   21.4642 C   0  0  1  0  0  0  0  0  0  0  0  0
    9.7554  -19.2547   19.9801 C   0  0  0  0  0  0  0  0  0  0  0  0
    8.9946  -20.3220   19.3351 C   0  0  0  0  0  0  0  0  0  0  0  0
    8.9808  -20.3948   18.0443 O   0  0  0  0  0  0  0  0  0  0  0  0
   11.1245  -19.0373   22.0519 C   0  0  0  0  0  0  0  0  0  0  0  0
   12.1500  -19.7118   21.7110 O   0  0  0  0  0  0  0  0  0  0  0  0
    8.2604  -21.2967   19.9639 O   0  0  0  0  0  0  0  0  0  0  0  0
   11.9170  -15.4883   23.7166 O   0  0  0  0  0  0  0  0  0  0  0  0
   13.0427  -16.3077   23.4556 C   0  0  0  0  0  0  0  0  0  0  0  0
   12.6002  -17.7132   23.6221 C   0  0  2  0  0  0  0  0  0  0  0  0
   11.3185  -18.0285   23.0045 N   0  0  0  0  0  0  0  0  0  0  0  0
   12.5374  -18.0678   25.0964 C   0  0  0  0  0  0  0  0  0  0  0  0
   13.6817  -17.9321   25.9151 O   0  0  0  0  0  0  0  0  0  0  0  0
   11.5122  -18.4827   25.6543 O   0  0  0  0  0  0  0  0  0  0  0  0
  2  1  1  1
  3  2  1  0
  4  3  1  0
  5  6  1  0
  5  4  1  0
  6  7  1  0
  8  2  1  0
  8  9  2  0
 10  8  1  0
 11 12  1  6
 11 10  1  0
 13 12  1  0
 13 17  1  0
 14 13  2  0
 15 11  1  0
 16 15  2  0
 19 18  1  0
 20 19  1  1
 20 21  1  0
 21 15  1  0
 22 23  1  0
 22 20  1  0
 24 22  2  0
M  END
$$$$
