KDS.pdb
     RDKit          3D

 24 23  0  0  1  0  0  0  0  0999 V2000
    8.5787  -17.3946   20.5614 N   0  0  0  0  0  0  0  0  0  0  0  0
    9.3405  -16.3680   21.2526 C   0  0  1  0  0  0  0  0  0  0  0  0
    8.4029  -15.1736   21.4072 C   0  0  0  0  0  0  0  0  0  0  0  0
    8.4047  -14.4183   20.1074 C   0  0  0  0  0  0  0  0  0  0  0  0
    7.3614  -13.3420   20.1297 C   0  0  0  0  0  0  0  0  0  0  0  0
    7.3550  -12.5973   18.8137 C   0  0  0  0  0  0  0  0  0  0  0  0
    7.2337  -13.5868   17.7511 N   0  0  0  0  0  0  0  0  0  0  0  0
    9.5943  -16.8261   22.6845 C   0  0  0  0  0  0  0  0  0  0  0  0
    8.7170  -17.4313   23.3324 O   0  0  0  0  0  0  0  0  0  0  0  0
   10.8433  -16.5619   23.2862 N   0  0  0  0  0  0  0  0  0  0  0  0
   11.2051  -16.9560   24.6131 C   0  0  1  0  0  0  0  0  0  0  0  0
   12.4149  -17.8169   24.6475 C   0  0  0  0  0  0  0  0  0  0  0  0
   13.6078  -17.2261   24.0460 C   0  0  0  0  0  0  0  0  0  0  0  0
   14.3199  -16.3994   24.7395 O   0  0  0  0  0  0  0  0  0  0  0  0
   11.2797  -15.7882   25.5474 C   0  0  0  0  0  0  0  0  0  0  0  0
   11.5638  -14.6175   25.1332 O   0  0  0  0  0  0  0  0  0  0  0  0
   14.0811  -17.4533   22.7775 O   0  0  0  0  0  0  0  0  0  0  0  0
    8.6662  -14.3795   27.4900 O   0  0  0  0  0  0  0  0  0  0  0  0
    9.9483  -13.7775   27.4660 C   0  0  0  0  0  0  0  0  0  0  0  0
   10.9229  -14.8242   27.8583 C   0  0  2  0  0  0  0  0  0  0  0  0
   11.0406  -15.9332   26.9202 N   0  0  0  0  0  0  0  0  0  0  0  0
   10.5733  -15.3732   29.2292 C   0  0  0  0  0  0  0  0  0  0  0  0
   10.3993  -16.7629   29.4211 O   0  0  0  0  0  0  0  0  0  0  0  0
   10.4256  -14.6602   30.2314 O   0  0  0  0  0  0  0  0  0  0  0  0
  2  1  1  6
  3  2  1  0
  4  3  1  0
  5  6  1  0
  5  4  1  0
  6  7  1  0
  8  2  1  0
  8  9  2  0
 10  8  1  0
 11 12  1  6
 11 10  1  0
 13 12  1  0
 13 17  1  0
 14 13  2  0
 15 11  1  0
 16 15  2  0
 19 18  1  0
 20 19  1  6
 20 21  1  0
 21 15  1  0
 22 23  1  0
 22 20  1  0
 24 22  2  0
M  END
$$$$
