KDS.pdb
     RDKit          3D

 24 23  0  0  1  0  0  0  0  0999 V2000
    9.1679  -17.8036   18.1527 N   0  0  0  0  0  0  0  0  0  0  0  0
   10.1416  -16.8455   18.6487 C   0  0  1  0  0  0  0  0  0  0  0  0
    9.3390  -15.7089   19.2761 C   0  0  0  0  0  0  0  0  0  0  0  0
    8.6473  -14.9688   18.1652 C   0  0  0  0  0  0  0  0  0  0  0  0
    7.8326  -13.8397   18.7207 C   0  0  0  0  0  0  0  0  0  0  0  0
    7.2314  -13.0295   17.5943 C   0  0  0  0  0  0  0  0  0  0  0  0
    6.4755  -11.9381   18.1947 N   0  0  0  0  0  0  0  0  0  0  0  0
   10.8848  -17.4665   19.8262 C   0  0  0  0  0  0  0  0  0  0  0  0
   10.3388  -18.3180   20.5559 O   0  0  0  0  0  0  0  0  0  0  0  0
   12.2131  -17.0719   20.0940 N   0  0  0  0  0  0  0  0  0  0  0  0
   12.9922  -17.5397   21.1991 C   0  0  1  0  0  0  0  0  0  0  0  0
   14.4472  -17.5748   20.9029 C   0  0  0  0  0  0  0  0  0  0  0  0
   15.2727  -18.1810   21.9444 C   0  0  0  0  0  0  0  0  0  0  0  0
   14.7004  -18.6860   22.9880 O   0  0  0  0  0  0  0  0  0  0  0  0
   12.6611  -16.8171   22.4681 C   0  0  0  0  0  0  0  0  0  0  0  0
   13.1440  -15.6674   22.7286 O   0  0  0  0  0  0  0  0  0  0  0  0
   16.6419  -18.2807   21.9471 O   0  0  0  0  0  0  0  0  0  0  0  0
    9.1750  -17.0092   24.3297 O   0  0  0  0  0  0  0  0  0  0  0  0
   10.1486  -16.0519   24.7073 C   0  0  0  0  0  0  0  0  0  0  0  0
   11.4604  -16.7432   24.6929 C   0  0  2  0  0  0  0  0  0  0  0  0
   11.8050  -17.3758   23.4260 N   0  0  0  0  0  0  0  0  0  0  0  0
   11.5113  -17.7859   25.7944 C   0  0  0  0  0  0  0  0  0  0  0  0
   11.2308  -17.4281   27.1328 O   0  0  0  0  0  0  0  0  0  0  0  0
   11.7911  -18.9759   25.5938 O   0  0  0  0  0  0  0  0  0  0  0  0
  2  1  1  1
  3  2  1  0
  4  3  1  0
  5  6  1  0
  5  4  1  0
  6  7  1  0
  8  2  1  0
  8  9  2  0
 10  8  1  0
 11 12  1  6
 11 10  1  0
 13 12  1  0
 13 17  1  0
 14 13  2  0
 15 11  1  0
 16 15  2  0
 19 18  1  0
 20 19  1  6
 20 21  1  0
 21 15  1  0
 22 23  1  0
 22 20  1  0
 24 22  2  0
M  END
$$$$
