KDS.pdb
     RDKit          3D

 24 23  0  0  1  0  0  0  0  0999 V2000
    6.4358  -16.5765   22.0644 N   0  0  0  0  0  0  0  0  0  0  0  0
    7.7733  -16.0092   22.1008 C   0  0  1  0  0  0  0  0  0  0  0  0
    7.5927  -14.5050   22.2864 C   0  0  0  0  0  0  0  0  0  0  0  0
    7.1488  -13.9308   20.9699 C   0  0  0  0  0  0  0  0  0  0  0  0
    8.3382  -13.5453   20.1429 C   0  0  0  0  0  0  0  0  0  0  0  0
    7.8895  -12.8233   18.8923 C   0  0  0  0  0  0  0  0  0  0  0  0
    9.0786  -12.5414   18.0989 N   0  0  0  0  0  0  0  0  0  0  0  0
    8.4622  -16.4596   23.3842 C   0  0  0  0  0  0  0  0  0  0  0  0
    7.8047  -16.7161   24.4125 O   0  0  0  0  0  0  0  0  0  0  0  0
    9.8673  -16.5896   23.4082 N   0  0  0  0  0  0  0  0  0  0  0  0
   10.6243  -17.0132   24.5460 C   0  0  1  0  0  0  0  0  0  0  0  0
   11.8682  -17.7341   24.1730 C   0  0  0  0  0  0  0  0  0  0  0  0
   12.6736  -18.1959   25.3009 C   0  0  0  0  0  0  0  0  0  0  0  0
   12.2044  -19.1200   26.0739 O   0  0  0  0  0  0  0  0  0  0  0  0
   10.8527  -15.8975   25.5182 C   0  0  0  0  0  0  0  0  0  0  0  0
   11.5570  -14.8801   25.2154 O   0  0  0  0  0  0  0  0  0  0  0  0
   13.9213  -17.7444   25.6528 O   0  0  0  0  0  0  0  0  0  0  0  0
    8.2349  -14.5529   27.9260 O   0  0  0  0  0  0  0  0  0  0  0  0
    9.4780  -13.8736   27.9249 C   0  0  0  0  0  0  0  0  0  0  0  0
   10.5346  -14.9093   27.8245 C   0  0  2  0  0  0  0  0  0  0  0  0
   10.3011  -15.9249   26.8058 N   0  0  0  0  0  0  0  0  0  0  0  0
   10.7235  -15.5918   29.1667 C   0  0  0  0  0  0  0  0  0  0  0  0
   10.9451  -14.8266   30.3344 O   0  0  0  0  0  0  0  0  0  0  0  0
   10.6943  -16.8212   29.3161 O   0  0  0  0  0  0  0  0  0  0  0  0
  2  1  1  1
  3  2  1  0
  4  3  1  0
  5  6  1  0
  5  4  1  0
  6  7  1  0
  8  2  1  0
  8  9  2  0
 10  8  1  0
 11 12  1  6
 11 10  1  0
 13 12  1  0
 13 17  1  0
 14 13  2  0
 15 11  1  0
 16 15  2  0
 19 18  1  0
 20 19  1  1
 20 21  1  0
 21 15  1  0
 22 23  1  0
 22 20  1  0
 24 22  2  0
M  END
$$$$
