KDS.pdb
     RDKit          3D

 24 23  0  0  1  0  0  0  0  0999 V2000
    7.6757  -17.0312   20.6566 N   0  0  0  0  0  0  0  0  0  0  0  0
    8.8508  -16.2212   20.9308 C   0  0  1  0  0  0  0  0  0  0  0  0
    8.3662  -15.0353   21.7605 C   0  0  0  0  0  0  0  0  0  0  0  0
    7.5119  -14.1736   20.8730 C   0  0  0  0  0  0  0  0  0  0  0  0
    8.3230  -13.6367   19.7323 C   0  0  0  0  0  0  0  0  0  0  0  0
    7.4427  -12.8332   18.8018 C   0  0  0  0  0  0  0  0  0  0  0  0
    8.2116  -12.5663   17.5932 N   0  0  0  0  0  0  0  0  0  0  0  0
    9.7641  -16.9880   21.8807 C   0  0  0  0  0  0  0  0  0  0  0  0
    9.3006  -17.8068   22.6995 O   0  0  0  0  0  0  0  0  0  0  0  0
   11.1574  -16.7681   21.8318 N   0  0  0  0  0  0  0  0  0  0  0  0
   12.1153  -17.4429   22.6528 C   0  0  1  0  0  0  0  0  0  0  0  0
   13.4973  -17.3532   22.1160 C   0  0  0  0  0  0  0  0  0  0  0  0
   14.4973  -18.1141   22.8609 C   0  0  0  0  0  0  0  0  0  0  0  0
   15.7247  -17.7077   22.8643 O   0  0  0  0  0  0  0  0  0  0  0  0
   12.0088  -17.0396   24.0909 C   0  0  0  0  0  0  0  0  0  0  0  0
   12.3757  -15.8873   24.4913 O   0  0  0  0  0  0  0  0  0  0  0  0
   14.2791  -19.2587   23.5867 O   0  0  0  0  0  0  0  0  0  0  0  0
    9.1163  -17.8589   26.5425 O   0  0  0  0  0  0  0  0  0  0  0  0
   10.1645  -16.9883   26.9298 C   0  0  0  0  0  0  0  0  0  0  0  0
   11.4322  -17.6161   26.4851 C   0  0  2  0  0  0  0  0  0  0  0  0
   11.5006  -17.9143   25.0602 N   0  0  0  0  0  0  0  0  0  0  0  0
   11.6840  -18.8915   27.2681 C   0  0  0  0  0  0  0  0  0  0  0  0
   11.7753  -18.8599   28.6783 O   0  0  0  0  0  0  0  0  0  0  0  0
   11.8189  -20.0022   26.7363 O   0  0  0  0  0  0  0  0  0  0  0  0
  2  1  1  1
  3  2  1  0
  4  3  1  0
  5  6  1  0
  5  4  1  0
  6  7  1  0
  8  2  1  0
  8  9  2  0
 10  8  1  0
 11 12  1  6
 11 10  1  0
 13 12  1  0
 13 17  1  0
 14 13  2  0
 15 11  1  0
 16 15  2  0
 19 18  1  0
 20 19  1  6
 20 21  1  0
 21 15  1  0
 22 23  1  0
 22 20  1  0
 24 22  2  0
M  END
$$$$
