KDS.pdb
     RDKit          3D

 24 23  0  0  1  0  0  0  0  0999 V2000
   10.8625  -16.0192   16.9321 N   0  0  0  0  0  0  0  0  0  0  0  0
   11.5616  -14.8605   17.4621 C   0  0  1  0  0  0  0  0  0  0  0  0
   10.6763  -14.3000   18.5720 C   0  0  0  0  0  0  0  0  0  0  0  0
    9.3970  -13.8245   17.9416 C   0  0  0  0  0  0  0  0  0  0  0  0
    8.4173  -13.4135   18.9992 C   0  0  0  0  0  0  0  0  0  0  0  0
    7.1141  -12.9862   18.3624 C   0  0  0  0  0  0  0  0  0  0  0  0
    6.2061  -12.6052   19.4364 N   0  0  0  0  0  0  0  0  0  0  0  0
   12.8133  -15.3346   18.1921 C   0  0  0  0  0  0  0  0  0  0  0  0
   12.8565  -16.4566   18.7350 O   0  0  0  0  0  0  0  0  0  0  0  0
   13.9423  -14.4898   18.2534 N   0  0  0  0  0  0  0  0  0  0  0  0
   15.1554  -14.8043   18.9437 C   0  0  1  0  0  0  0  0  0  0  0  0
   16.3036  -13.9757   18.4953 C   0  0  0  0  0  0  0  0  0  0  0  0
   16.6803  -14.1526   17.0950 C   0  0  0  0  0  0  0  0  0  0  0  0
   16.7223  -15.3460   16.5995 O   0  0  0  0  0  0  0  0  0  0  0  0
   14.9724  -14.8120   20.4299 C   0  0  0  0  0  0  0  0  0  0  0  0
   15.2017  -13.7777   21.1373 O   0  0  0  0  0  0  0  0  0  0  0  0
   17.0104  -13.1598   16.2062 O   0  0  0  0  0  0  0  0  0  0  0  0
   12.6004  -16.1496   24.2146 O   0  0  0  0  0  0  0  0  0  0  0  0
   12.7452  -16.1359   22.8055 C   0  0  0  0  0  0  0  0  0  0  0  0
   14.1945  -16.0000   22.5228 C   0  0  2  0  0  0  0  0  0  0  0  0
   14.5410  -15.9596   21.1078 N   0  0  0  0  0  0  0  0  0  0  0  0
   14.9623  -17.1285   23.1862 C   0  0  0  0  0  0  0  0  0  0  0  0
   14.9813  -17.2510   24.5944 O   0  0  0  0  0  0  0  0  0  0  0  0
   15.5971  -17.9843   22.5544 O   0  0  0  0  0  0  0  0  0  0  0  0
  2  1  1  1
  3  2  1  0
  4  3  1  0
  5  6  1  0
  5  4  1  0
  6  7  1  0
  8  2  1  0
  8  9  2  0
 10  8  1  0
 11 12  1  1
 11 10  1  0
 13 12  1  0
 13 17  1  0
 14 13  2  0
 15 11  1  0
 16 15  2  0
 19 18  1  0
 20 19  1  6
 20 21  1  0
 21 15  1  0
 22 23  1  0
 22 20  1  0
 24 22  2  0
M  END
$$$$
