KDS.pdb
     RDKit          3D

 24 23  0  0  1  0  0  0  0  0999 V2000
   11.2858  -18.9809   18.0288 N   0  0  0  0  0  0  0  0  0  0  0  0
   10.9178  -17.8470   18.8601 C   0  0  1  0  0  0  0  0  0  0  0  0
    9.5181  -18.1449   19.3911 C   0  0  0  0  0  0  0  0  0  0  0  0
    8.6248  -18.4017   18.2095 C   0  0  0  0  0  0  0  0  0  0  0  0
    7.2241  -18.6781   18.6666 C   0  0  0  0  0  0  0  0  0  0  0  0
    6.3273  -18.9236   17.4741 C   0  0  0  0  0  0  0  0  0  0  0  0
    4.9740  -19.1203   17.9770 N   0  0  0  0  0  0  0  0  0  0  0  0
   11.7941  -17.8488   20.1077 C   0  0  0  0  0  0  0  0  0  0  0  0
   11.9924  -18.8967   20.7543 O   0  0  0  0  0  0  0  0  0  0  0  0
   12.3919  -16.6445   20.5371 N   0  0  0  0  0  0  0  0  0  0  0  0
   13.2304  -16.5199   21.6896 C   0  0  1  0  0  0  0  0  0  0  0  0
   14.2102  -15.4100   21.5706 C   0  0  0  0  0  0  0  0  0  0  0  0
   15.2578  -15.4022   22.5886 C   0  0  0  0  0  0  0  0  0  0  0  0
   15.2833  -16.3440   23.4740 O   0  0  0  0  0  0  0  0  0  0  0  0
   12.4395  -16.4809   22.9605 C   0  0  0  0  0  0  0  0  0  0  0  0
   11.8499  -15.4206   23.3491 O   0  0  0  0  0  0  0  0  0  0  0  0
   16.2596  -14.4732   22.7229 O   0  0  0  0  0  0  0  0  0  0  0  0
   10.0912  -19.2105   24.3567 O   0  0  0  0  0  0  0  0  0  0  0  0
   10.1962  -17.9609   25.0157 C   0  0  0  0  0  0  0  0  0  0  0  0
   11.6390  -17.6229   25.0705 C   0  0  2  0  0  0  0  0  0  0  0  0
   12.3143  -17.6110   23.7791 N   0  0  0  0  0  0  0  0  0  0  0  0
   12.3635  -18.5822   25.9967 C   0  0  0  0  0  0  0  0  0  0  0  0
   11.9420  -18.7398   27.3367 O   0  0  0  0  0  0  0  0  0  0  0  0
   13.3359  -19.2647   25.6457 O   0  0  0  0  0  0  0  0  0  0  0  0
  2  1  1  6
  3  2  1  0
  4  3  1  0
  5  6  1  0
  5  4  1  0
  6  7  1  0
  8  2  1  0
  8  9  2  0
 10  8  1  0
 11 12  1  6
 11 10  1  0
 13 12  1  0
 13 17  1  0
 14 13  2  0
 15 11  1  0
 16 15  2  0
 19 18  1  0
 20 19  1  6
 20 21  1  0
 21 15  1  0
 22 23  1  0
 22 20  1  0
 24 22  2  0
M  END
$$$$
