KDS.pdb
     RDKit          3D

 24 23  0  0  1  0  0  0  0  0999 V2000
    9.8661  -13.0827   18.2814 N   0  0  0  0  0  0  0  0  0  0  0  0
    9.0379  -13.2386   19.4654 C   0  0  1  0  0  0  0  0  0  0  0  0
    7.6470  -13.6191   18.9650 C   0  0  0  0  0  0  0  0  0  0  0  0
    7.8190  -14.5483   17.7958 C   0  0  0  0  0  0  0  0  0  0  0  0
    7.7043  -13.7904   16.5076 C   0  0  0  0  0  0  0  0  0  0  0  0
    7.7164  -14.7487   15.3380 C   0  0  0  0  0  0  0  0  0  0  0  0
    7.8321  -13.9543   14.1220 N   0  0  0  0  0  0  0  0  0  0  0  0
    9.5047  -14.4712   20.2316 C   0  0  0  0  0  0  0  0  0  0  0  0
    8.8082  -14.9677   21.1393 O   0  0  0  0  0  0  0  0  0  0  0  0
   10.7454  -15.0608   19.9073 N   0  0  0  0  0  0  0  0  0  0  0  0
   11.2677  -16.2431   20.5206 C   0  0  1  0  0  0  0  0  0  0  0  0
   12.3870  -16.8438   19.7509 C   0  0  0  0  0  0  0  0  0  0  0  0
   12.0236  -17.3493   18.4294 C   0  0  0  0  0  0  0  0  0  0  0  0
   10.9098  -17.9895   18.2839 O   0  0  0  0  0  0  0  0  0  0  0  0
   11.5872  -16.0330   21.9683 C   0  0  0  0  0  0  0  0  0  0  0  0
   12.5045  -15.2316   22.3413 O   0  0  0  0  0  0  0  0  0  0  0  0
   12.7564  -17.2209   17.2757 O   0  0  0  0  0  0  0  0  0  0  0  0
    8.8593  -16.8045   24.8281 O   0  0  0  0  0  0  0  0  0  0  0  0
    9.9832  -16.0151   25.1752 C   0  0  0  0  0  0  0  0  0  0  0  0
   11.1346  -16.5427   24.4040 C   0  0  2  0  0  0  0  0  0  0  0  0
   10.8901  -16.7106   22.9771 N   0  0  0  0  0  0  0  0  0  0  0  0
   11.5870  -17.8692   24.9860 C   0  0  0  0  0  0  0  0  0  0  0  0
   12.0614  -17.9434   26.3155 O   0  0  0  0  0  0  0  0  0  0  0  0
   11.5670  -18.9335   24.3525 O   0  0  0  0  0  0  0  0  0  0  0  0
  2  1  1  6
  3  2  1  0
  4  3  1  0
  5  6  1  0
  5  4  1  0
  6  7  1  0
  8  2  1  0
  8  9  2  0
 10  8  1  0
 11 12  1  6
 11 10  1  0
 13 12  1  0
 13 17  1  0
 14 13  2  0
 15 11  1  0
 16 15  2  0
 19 18  1  0
 20 19  1  1
 20 21  1  0
 21 15  1  0
 22 23  1  0
 22 20  1  0
 24 22  2  0
M  END
$$$$
