MTK.pdb
     RDKit          3D

 25 24  0  0  1  0  0  0  0  0999 V2000
   26.7106  -19.5646   -5.6814 C   0  0  0  0  0  0  0  0  0  0  0  0
   28.4357  -19.9405   -6.0916 S   0  0  0  0  0  0  0  0  0  0  0  0
   28.4979  -21.1627   -7.4406 C   0  0  0  0  0  0  0  0  0  0  0  0
   27.7118  -20.6155   -8.6133 C   0  0  0  0  0  0  0  0  0  0  0  0
   27.7029  -21.5829   -9.7788 C   0  0  2  0  0  0  0  0  0  0  0  0
   29.0671  -21.8509  -10.1461 N   0  0  0  0  0  0  0  0  0  0  0  0
   26.9160  -20.9748  -10.8575 C   0  0  0  0  0  0  0  0  0  0  0  0
   27.4730  -20.1247  -11.5953 O   0  0  0  0  0  0  0  0  0  0  0  0
   26.3202  -22.6051  -13.8545 C   0  0  0  0  0  0  0  0  0  0  0  0
   24.9527  -22.2037  -13.3593 C   0  0  1  0  0  0  0  0  0  0  0  0
   24.2302  -23.2855  -12.8643 O   0  0  0  0  0  0  0  0  0  0  0  0
   24.9764  -21.0351  -12.4315 C   0  0  2  0  0  0  0  0  0  0  0  0
   25.5744  -21.2491  -11.1596 N   0  0  0  0  0  0  0  0  0  0  0  0
   23.5656  -20.5906  -12.2433 C   0  0  0  0  0  0  0  0  0  0  0  0
   22.9495  -20.8058  -11.1454 O   0  0  0  0  0  0  0  0  0  0  0  0
   22.8239  -19.9158  -13.2391 N   0  0  0  0  0  0  0  0  0  0  0  0
   21.4213  -19.4932  -13.0227 C   0  0  1  0  0  0  0  0  0  0  0  0
   20.9525  -18.6398  -14.1425 C   0  0  0  0  0  0  0  0  0  0  0  0
   19.5320  -18.2111  -13.9468 C   0  0  0  0  0  0  0  0  0  0  0  0
   19.0440  -17.2963  -15.0616 C   0  0  0  0  0  0  0  0  0  0  0  0
   17.5846  -16.9108  -14.7806 C   0  0  0  0  0  0  0  0  0  0  0  0
   17.1224  -15.9044  -15.7181 N   0  0  0  0  0  0  0  0  0  0  0  0
   20.6498  -20.7337  -12.9369 C   0  0  0  0  0  0  0  0  0  0  0  0
   19.6325  -20.8805  -12.0198 O   0  0  0  0  0  0  0  0  0  0  0  0
   20.8913  -21.6945  -13.6917 O   0  0  0  0  0  0  0  0  0  0  0  0
  1  2  1  0
  3  2  1  0
  4  3  1  0
  5  4  1  0
  5  6  1  6
  7 13  1  0
  7  5  1  0
  8  7  2  0
 10 12  1  0
 10  9  1  1
 11 10  1  0
 12 13  1  1
 14 12  1  0
 14 15  2  0
 16 14  1  0
 17 16  1  0
 17 23  1  0
 17 18  1  6
 19 18  1  0
 20 19  1  0
 21 20  1  0
 21 22  1  0
 23 25  2  0
 23 24  1  0
M  END
$$$$
