MTK.pdb
     RDKit          3D

 25 24  0  0  1  0  0  0  0  0999 V2000
   34.2187  -31.1187  -22.0854 C   0  0  0  0  0  0  0  0  0  0  0  0
   32.6356  -30.6447  -21.3405 S   0  0  0  0  0  0  0  0  0  0  0  0
   31.9029  -32.0753  -20.4839 C   0  0  0  0  0  0  0  0  0  0  0  0
   30.5992  -31.6339  -19.8527 C   0  0  0  0  0  0  0  0  0  0  0  0
   30.8259  -30.9731  -18.5088 C   0  0  2  0  0  0  0  0  0  0  0  0
   31.2822  -31.9794  -17.5885 N   0  0  0  0  0  0  0  0  0  0  0  0
   29.5657  -30.3398  -18.1046 C   0  0  0  0  0  0  0  0  0  0  0  0
   28.7533  -31.0113  -17.4218 O   0  0  0  0  0  0  0  0  0  0  0  0
   26.7821  -26.9164  -16.3280 C   0  0  0  0  0  0  0  0  0  0  0  0
   28.0495  -27.6599  -16.6705 C   0  0  1  0  0  0  0  0  0  0  0  0
   28.5273  -28.4125  -15.6016 O   0  0  0  0  0  0  0  0  0  0  0  0
   27.9587  -28.4332  -17.9436 C   0  0  2  0  0  0  0  0  0  0  0  0
   29.1621  -29.0315  -18.4075 N   0  0  0  0  0  0  0  0  0  0  0  0
   27.4354  -27.5067  -18.9881 C   0  0  0  0  0  0  0  0  0  0  0  0
   28.1987  -27.0520  -19.9056 O   0  0  0  0  0  0  0  0  0  0  0  0
   26.0912  -27.0735  -19.0399 N   0  0  0  0  0  0  0  0  0  0  0  0
   25.6099  -26.1283  -20.0731 C   0  0  1  0  0  0  0  0  0  0  0  0
   26.4961  -24.9405  -20.1502 C   0  0  0  0  0  0  0  0  0  0  0  0
   25.7077  -23.6784  -20.3095 C   0  0  0  0  0  0  0  0  0  0  0  0
   25.5347  -23.2837  -21.7697 C   0  0  0  0  0  0  0  0  0  0  0  0
   24.7803  -21.9480  -21.8340 C   0  0  0  0  0  0  0  0  0  0  0  0
   24.5302  -21.5572  -23.2088 N   0  0  0  0  0  0  0  0  0  0  0  0
   25.6184  -26.8838  -21.3262 C   0  0  0  0  0  0  0  0  0  0  0  0
   24.7614  -26.5675  -22.3572 O   0  0  0  0  0  0  0  0  0  0  0  0
   26.4021  -27.8366  -21.4972 O   0  0  0  0  0  0  0  0  0  0  0  0
  1  2  1  0
  3  2  1  0
  4  3  1  0
  5  4  1  0
  5  6  1  1
  7 13  1  0
  7  5  1  0
  8  7  2  0
 10 12  1  0
 10  9  1  1
 11 10  1  0
 12 13  1  6
 14 12  1  0
 14 15  2  0
 16 14  1  0
 17 16  1  0
 17 23  1  0
 17 18  1  6
 19 18  1  0
 20 19  1  0
 21 20  1  0
 21 22  1  0
 23 25  2  0
 23 24  1  0
M  END
$$$$
