MTK.pdb
     RDKit          3D

 25 24  0  0  1  0  0  0  0  0999 V2000
   20.3418  -16.6314  -18.9123 C   0  0  0  0  0  0  0  0  0  0  0  0
   19.1413  -17.5123  -17.8786 S   0  0  0  0  0  0  0  0  0  0  0  0
   18.4827  -16.3904  -16.6038 C   0  0  0  0  0  0  0  0  0  0  0  0
   18.3984  -14.9986  -17.1942 C   0  0  0  0  0  0  0  0  0  0  0  0
   19.5132  -14.1084  -16.6853 C   0  0  2  0  0  0  0  0  0  0  0  0
   19.7721  -14.4577  -15.3147 N   0  0  0  0  0  0  0  0  0  0  0  0
   19.0884  -12.7154  -16.8631 C   0  0  0  0  0  0  0  0  0  0  0  0
   18.8529  -12.3079  -18.0274 O   0  0  0  0  0  0  0  0  0  0  0  0
   16.0769  -10.4322  -15.8425 C   0  0  0  0  0  0  0  0  0  0  0  0
   17.3860   -9.8862  -15.3283 C   0  0  1  0  0  0  0  0  0  0  0  0
   17.5015  -10.0014  -13.9460 O   0  0  0  0  0  0  0  0  0  0  0  0
   18.5758  -10.4036  -16.0656 C   0  0  2  0  0  0  0  0  0  0  0  0
   18.9130  -11.7670  -15.8451 N   0  0  0  0  0  0  0  0  0  0  0  0
   19.7357   -9.5435  -15.6934 C   0  0  0  0  0  0  0  0  0  0  0  0
   20.8641  -10.0580  -15.3878 O   0  0  0  0  0  0  0  0  0  0  0  0
   19.6752   -8.1323  -15.6519 N   0  0  0  0  0  0  0  0  0  0  0  0
   20.8894   -7.2908  -15.7523 C   0  0  1  0  0  0  0  0  0  0  0  0
   21.6375   -7.5966  -16.9969 C   0  0  0  0  0  0  0  0  0  0  0  0
   22.8380   -6.7154  -17.1448 C   0  0  0  0  0  0  0  0  0  0  0  0
   23.7029   -7.1093  -18.3342 C   0  0  0  0  0  0  0  0  0  0  0  0
   24.9561   -6.2224  -18.3485 C   0  0  0  0  0  0  0  0  0  0  0  0
   25.8696   -6.6292  -19.3999 N   0  0  0  0  0  0  0  0  0  0  0  0
   20.4073   -5.9092  -15.7444 C   0  0  0  0  0  0  0  0  0  0  0  0
   21.1016   -4.9138  -15.0927 O   0  0  0  0  0  0  0  0  0  0  0  0
   19.3532   -5.5927  -16.3274 O   0  0  0  0  0  0  0  0  0  0  0  0
  1  2  1  0
  3  2  1  0
  4  3  1  0
  5  4  1  0
  5  6  1  1
  7 13  1  0
  7  5  1  0
  8  7  2  0
 10 12  1  0
 10  9  1  6
 11 10  1  0
 12 13  1  1
 14 12  1  0
 14 15  2  0
 16 14  1  0
 17 16  1  0
 17 23  1  0
 17 18  1  6
 19 18  1  0
 20 19  1  0
 21 20  1  0
 21 22  1  0
 23 25  2  0
 23 24  1  0
M  END
$$$$
