MTK.pdb
     RDKit          3D

 25 24  0  0  1  0  0  0  0  0999 V2000
   21.3126  -16.7564  -20.5227 C   0  0  0  0  0  0  0  0  0  0  0  0
   21.5386  -16.6472  -18.7274 S   0  0  0  0  0  0  0  0  0  0  0  0
   22.0057  -14.9485  -18.2656 C   0  0  0  0  0  0  0  0  0  0  0  0
   21.4300  -14.0010  -19.2968 C   0  0  0  0  0  0  0  0  0  0  0  0
   21.8316  -12.5666  -19.0220 C   0  0  2  0  0  0  0  0  0  0  0  0
   22.7457  -12.5644  -17.9120 N   0  0  0  0  0  0  0  0  0  0  0  0
   20.6058  -11.8003  -18.7710 C   0  0  0  0  0  0  0  0  0  0  0  0
   19.7387  -11.7490  -19.6779 O   0  0  0  0  0  0  0  0  0  0  0  0
   17.5495  -12.1802  -16.4839 C   0  0  0  0  0  0  0  0  0  0  0  0
   18.2385  -10.8618  -16.2320 C   0  0  1  0  0  0  0  0  0  0  0  0
   18.9127  -10.8407  -15.0146 O   0  0  0  0  0  0  0  0  0  0  0  0
   19.0749  -10.4002  -17.3785 C   0  0  2  0  0  0  0  0  0  0  0  0
   20.2921  -11.1016  -17.5963 N   0  0  0  0  0  0  0  0  0  0  0  0
   19.3722   -8.9560  -17.1563 C   0  0  0  0  0  0  0  0  0  0  0  0
   20.5164   -8.5780  -16.7330 O   0  0  0  0  0  0  0  0  0  0  0  0
   18.4353   -7.9245  -17.3914 N   0  0  0  0  0  0  0  0  0  0  0  0
   18.7557   -6.5006  -17.1417 C   0  0  1  0  0  0  0  0  0  0  0  0
   17.7341   -5.6178  -17.7576 C   0  0  0  0  0  0  0  0  0  0  0  0
   17.9703   -4.1814  -17.4101 C   0  0  0  0  0  0  0  0  0  0  0  0
   16.8735   -3.2689  -17.9413 C   0  0  0  0  0  0  0  0  0  0  0  0
   17.1854   -1.8256  -17.5206 C   0  0  0  0  0  0  0  0  0  0  0  0
   16.0926   -0.9354  -17.8652 N   0  0  0  0  0  0  0  0  0  0  0  0
   18.7790   -6.3562  -15.6858 C   0  0  0  0  0  0  0  0  0  0  0  0
   19.6570   -5.4938  -15.0671 O   0  0  0  0  0  0  0  0  0  0  0  0
   18.0043   -7.0103  -14.9624 O   0  0  0  0  0  0  0  0  0  0  0  0
  1  2  1  0
  3  2  1  0
  4  3  1  0
  5  4  1  0
  5  6  1  1
  7 13  1  0
  7  5  1  0
  8  7  2  0
 10 12  1  0
 10  9  1  6
 11 10  1  0
 12 13  1  1
 14 12  1  0
 14 15  2  0
 16 14  1  0
 17 16  1  0
 17 23  1  0
 17 18  1  6
 19 18  1  0
 20 19  1  0
 21 20  1  0
 21 22  1  0
 23 25  2  0
 23 24  1  0
M  END
$$$$
