MTK.pdb
     RDKit          3D

 25 24  0  0  1  0  0  0  0  0999 V2000
   38.0380   -7.2813  -11.5522 C   0  0  0  0  0  0  0  0  0  0  0  0
   37.8209   -5.9633  -12.7775 S   0  0  0  0  0  0  0  0  0  0  0  0
   37.1671   -6.6619  -14.3273 C   0  0  0  0  0  0  0  0  0  0  0  0
   35.6548   -6.6303  -14.2613 C   0  0  0  0  0  0  0  0  0  0  0  0
   35.0446   -7.8871  -14.8463 C   0  0  2  0  0  0  0  0  0  0  0  0
   35.9363   -8.3866  -15.8578 N   0  0  0  0  0  0  0  0  0  0  0  0
   33.7145   -7.5404  -15.3594 C   0  0  0  0  0  0  0  0  0  0  0  0
   32.8701   -7.0703  -14.5574 O   0  0  0  0  0  0  0  0  0  0  0  0
   32.1280   -4.8323  -17.2418 C   0  0  0  0  0  0  0  0  0  0  0  0
   31.8747   -6.1149  -17.9949 C   0  0  1  0  0  0  0  0  0  0  0  0
   32.6238   -6.1988  -19.1650 O   0  0  0  0  0  0  0  0  0  0  0  0
   31.9746   -7.3346  -17.1409 C   0  0  2  0  0  0  0  0  0  0  0  0
   33.2751   -7.6820  -16.6836 N   0  0  0  0  0  0  0  0  0  0  0  0
   31.4086   -8.4707  -17.9236 C   0  0  0  0  0  0  0  0  0  0  0  0
   32.1481   -9.4405  -18.3029 O   0  0  0  0  0  0  0  0  0  0  0  0
   30.0478   -8.5573  -18.2945 N   0  0  0  0  0  0  0  0  0  0  0  0
   29.4855   -9.7643  -18.9423 C   0  0  1  0  0  0  0  0  0  0  0  0
   28.0067   -9.7841  -18.8197 C   0  0  0  0  0  0  0  0  0  0  0  0
   27.4182  -10.9887  -19.4848 C   0  0  0  0  0  0  0  0  0  0  0  0
   25.8992  -11.0200  -19.3876 C   0  0  0  0  0  0  0  0  0  0  0  0
   25.3853  -12.2823  -20.0948 C   0  0  0  0  0  0  0  0  0  0  0  0
   23.9411  -12.3827  -19.9959 N   0  0  0  0  0  0  0  0  0  0  0  0
   29.9048   -9.6860  -20.3420 C   0  0  0  0  0  0  0  0  0  0  0  0
   30.2439  -10.8174  -21.0508 O   0  0  0  0  0  0  0  0  0  0  0  0
   29.9676   -8.5921  -20.9342 O   0  0  0  0  0  0  0  0  0  0  0  0
  1  2  1  0
  3  2  1  0
  4  3  1  0
  5  4  1  0
  5  6  1  6
  7 13  1  0
  7  5  1  0
  8  7  2  0
 10 12  1  0
 10  9  1  1
 11 10  1  0
 12 13  1  6
 14 12  1  0
 14 15  2  0
 16 14  1  0
 17 16  1  0
 17 23  1  0
 17 18  1  6
 19 18  1  0
 20 19  1  0
 21 20  1  0
 21 22  1  0
 23 25  2  0
 23 24  1  0
M  END
$$$$
