MTK.pdb
     RDKit          3D

 25 24  0  0  1  0  0  0  0  0999 V2000
   29.6510  -21.4663  -10.2771 C   0  0  0  0  0  0  0  0  0  0  0  0
   29.9327  -20.4879  -11.7769 S   0  0  0  0  0  0  0  0  0  0  0  0
   28.7366  -20.9704  -13.0630 C   0  0  0  0  0  0  0  0  0  0  0  0
   27.3483  -20.6071  -12.5802 C   0  0  0  0  0  0  0  0  0  0  0  0
   26.2815  -21.0693  -13.5511 C   0  0  2  0  0  0  0  0  0  0  0  0
   26.6286  -20.5837  -14.8593 N   0  0  0  0  0  0  0  0  0  0  0  0
   24.9900  -20.5698  -13.0661 C   0  0  0  0  0  0  0  0  0  0  0  0
   24.9164  -19.3736  -12.6907 O   0  0  0  0  0  0  0  0  0  0  0  0
   20.7941  -19.8991  -14.8343 C   0  0  0  0  0  0  0  0  0  0  0  0
   22.2307  -20.3007  -14.6082 C   0  0  1  0  0  0  0  0  0  0  0  0
   23.1271  -19.3307  -15.0476 O   0  0  0  0  0  0  0  0  0  0  0  0
   22.5042  -20.7716  -13.2189 C   0  0  2  0  0  0  0  0  0  0  0  0
   23.7993  -21.3049  -12.9751 N   0  0  0  0  0  0  0  0  0  0  0  0
   21.4779  -21.8023  -12.8907 C   0  0  0  0  0  0  0  0  0  0  0  0
   21.3702  -22.8677  -13.5869 O   0  0  0  0  0  0  0  0  0  0  0  0
   20.5714  -21.6811  -11.8134 N   0  0  0  0  0  0  0  0  0  0  0  0
   19.8559  -22.8504  -11.2536 C   0  0  1  0  0  0  0  0  0  0  0  0
   19.2046  -22.4995   -9.9671 C   0  0  0  0  0  0  0  0  0  0  0  0
   18.4456  -23.6596   -9.4033 C   0  0  0  0  0  0  0  0  0  0  0  0
   18.8408  -23.9668   -7.9655 C   0  0  0  0  0  0  0  0  0  0  0  0
   18.0529  -25.1953   -7.4887 C   0  0  0  0  0  0  0  0  0  0  0  0
   18.4399  -25.5712   -6.1417 N   0  0  0  0  0  0  0  0  0  0  0  0
   18.8694  -23.2250  -12.2673 C   0  0  0  0  0  0  0  0  0  0  0  0
   18.5797  -24.5461  -12.5287 O   0  0  0  0  0  0  0  0  0  0  0  0
   18.2622  -22.3587  -12.9246 O   0  0  0  0  0  0  0  0  0  0  0  0
  1  2  1  0
  3  2  1  0
  4  3  1  0
  5  4  1  0
  5  6  1  6
  7 13  1  0
  7  5  1  0
  8  7  2  0
 10 12  1  0
 10  9  1  1
 11 10  1  0
 12 13  1  6
 14 12  1  0
 14 15  2  0
 16 14  1  0
 17 16  1  0
 17 23  1  0
 17 18  1  1
 19 18  1  0
 20 19  1  0
 21 20  1  0
 21 22  1  0
 23 25  2  0
 23 24  1  0
M  END
$$$$
