MTK.pdb
     RDKit          3D

 25 24  0  0  1  0  0  0  0  0999 V2000
   17.8426  -10.1511  -17.5360 C   0  0  0  0  0  0  0  0  0  0  0  0
   19.0764  -11.4552  -17.7867 S   0  0  0  0  0  0  0  0  0  0  0  0
   20.6923  -10.9080  -17.1489 C   0  0  0  0  0  0  0  0  0  0  0  0
   20.4599   -9.7581  -16.1917 C   0  0  0  0  0  0  0  0  0  0  0  0
   21.7659   -9.1711  -15.6977 C   0  0  2  0  0  0  0  0  0  0  0  0
   22.4558  -10.1862  -14.9485 N   0  0  0  0  0  0  0  0  0  0  0  0
   21.4477   -7.9765  -14.9076 C   0  0  0  0  0  0  0  0  0  0  0  0
   21.1259   -8.1268  -13.7030 O   0  0  0  0  0  0  0  0  0  0  0  0
   21.7536   -3.3603  -13.4759 C   0  0  0  0  0  0  0  0  0  0  0  0
   22.1931   -4.5199  -14.3353 C   0  0  1  0  0  0  0  0  0  0  0  0
   23.3832   -5.0879  -13.8900 O   0  0  0  0  0  0  0  0  0  0  0  0
   21.1144   -5.5223  -14.5771 C   0  0  2  0  0  0  0  0  0  0  0  0
   21.4654   -6.6515  -15.3664 N   0  0  0  0  0  0  0  0  0  0  0  0
   19.9791   -4.8037  -15.2239 C   0  0  0  0  0  0  0  0  0  0  0  0
   19.9390   -4.6429  -16.4903 O   0  0  0  0  0  0  0  0  0  0  0  0
   18.8912   -4.2611  -14.5034 N   0  0  0  0  0  0  0  0  0  0  0  0
   17.7265   -3.6489  -15.1826 C   0  0  1  0  0  0  0  0  0  0  0  0
   16.4601   -4.2481  -14.6933 C   0  0  0  0  0  0  0  0  0  0  0  0
   15.2668   -3.5592  -15.2774 C   0  0  0  0  0  0  0  0  0  0  0  0
   13.9551   -4.1560  -14.7863 C   0  0  0  0  0  0  0  0  0  0  0  0
   12.7946   -3.4672  -15.5185 C   0  0  0  0  0  0  0  0  0  0  0  0
   11.5172   -4.0116  -15.0973 N   0  0  0  0  0  0  0  0  0  0  0  0
   17.7987   -2.2215  -14.8686 C   0  0  0  0  0  0  0  0  0  0  0  0
   17.2413   -1.2773  -15.7024 O   0  0  0  0  0  0  0  0  0  0  0  0
   18.3676   -1.8182  -13.8366 O   0  0  0  0  0  0  0  0  0  0  0  0
  1  2  1  0
  3  2  1  0
  4  3  1  0
  5  4  1  0
  5  6  1  1
  7 13  1  0
  7  5  1  0
  8  7  2  0
 10 12  1  0
 10  9  1  1
 11 10  1  0
 12 13  1  6
 14 12  1  0
 14 15  2  0
 16 14  1  0
 17 16  1  0
 17 23  1  0
 17 18  1  1
 19 18  1  0
 20 19  1  0
 21 20  1  0
 21 22  1  0
 23 25  2  0
 23 24  1  0
M  END
$$$$
