MTK.pdb
     RDKit          3D

 25 24  0  0  1  0  0  0  0  0999 V2000
   28.9947  -19.0311   -6.5264 C   0  0  0  0  0  0  0  0  0  0  0  0
   27.3191  -19.6544   -6.2267 S   0  0  0  0  0  0  0  0  0  0  0  0
   26.8771  -20.8767   -7.5025 C   0  0  0  0  0  0  0  0  0  0  0  0
   26.8239  -20.1687   -8.8398 C   0  0  0  0  0  0  0  0  0  0  0  0
   26.4994  -21.1280   -9.9662 C   0  0  2  0  0  0  0  0  0  0  0  0
   27.5704  -22.0828  -10.0611 N   0  0  0  0  0  0  0  0  0  0  0  0
   26.3127  -20.3360  -11.1871 C   0  0  0  0  0  0  0  0  0  0  0  0
   27.2253  -19.5439  -11.5292 O   0  0  0  0  0  0  0  0  0  0  0  0
   27.5079  -20.1436  -14.0936 C   0  0  0  0  0  0  0  0  0  0  0  0
   26.0413  -20.3750  -14.3620 C   0  0  1  0  0  0  0  0  0  0  0  0
   25.7570  -21.7100  -14.6344 O   0  0  0  0  0  0  0  0  0  0  0  0
   25.1469  -19.7801  -13.3261 C   0  0  2  0  0  0  0  0  0  0  0  0
   25.1954  -20.3707  -12.0337 N   0  0  0  0  0  0  0  0  0  0  0  0
   23.7526  -19.8550  -13.8492 C   0  0  0  0  0  0  0  0  0  0  0  0
   22.9010  -20.6580  -13.3381 O   0  0  0  0  0  0  0  0  0  0  0  0
   23.2811  -19.0640  -14.9212 N   0  0  0  0  0  0  0  0  0  0  0  0
   21.8525  -19.0387  -15.3096 C   0  0  1  0  0  0  0  0  0  0  0  0
   21.5772  -17.9000  -16.2206 C   0  0  0  0  0  0  0  0  0  0  0  0
   20.1511  -17.8941  -16.6743 C   0  0  0  0  0  0  0  0  0  0  0  0
   19.8429  -16.7265  -17.6015 C   0  0  0  0  0  0  0  0  0  0  0  0
   18.3540  -16.7713  -17.9736 C   0  0  0  0  0  0  0  0  0  0  0  0
   17.9799  -15.6130  -18.7635 N   0  0  0  0  0  0  0  0  0  0  0  0
   21.6052  -20.3218  -15.9681 C   0  0  0  0  0  0  0  0  0  0  0  0
   20.4129  -20.9916  -15.8032 O   0  0  0  0  0  0  0  0  0  0  0  0
   22.4674  -20.8466  -16.6978 O   0  0  0  0  0  0  0  0  0  0  0  0
  1  2  1  0
  3  2  1  0
  4  3  1  0
  5  4  1  0
  5  6  1  6
  7 13  1  0
  7  5  1  0
  8  7  2  0
 10 12  1  0
 10  9  1  1
 11 10  1  0
 12 13  1  1
 14 12  1  0
 14 15  2  0
 16 14  1  0
 17 16  1  0
 17 23  1  0
 17 18  1  6
 19 18  1  0
 20 19  1  0
 21 20  1  0
 21 22  1  0
 23 25  2  0
 23 24  1  0
M  END
$$$$
