MTK.pdb
     RDKit          3D

 25 24  0  0  1  0  0  0  0  0999 V2000
   15.7957  -18.9377  -17.5119 C   0  0  0  0  0  0  0  0  0  0  0  0
   14.4200  -18.0543  -16.7291 S   0  0  0  0  0  0  0  0  0  0  0  0
   15.0657  -16.8258  -15.5497 C   0  0  0  0  0  0  0  0  0  0  0  0
   15.7731  -15.7409  -16.3342 C   0  0  0  0  0  0  0  0  0  0  0  0
   16.7913  -15.0109  -15.4830 C   0  0  2  0  0  0  0  0  0  0  0  0
   16.2064  -14.7775  -14.1902 N   0  0  0  0  0  0  0  0  0  0  0  0
   17.1612  -13.7786  -16.1881 C   0  0  0  0  0  0  0  0  0  0  0  0
   17.5753  -13.8696  -17.3703 O   0  0  0  0  0  0  0  0  0  0  0  0
   15.0045  -10.8071  -17.2473 C   0  0  0  0  0  0  0  0  0  0  0  0
   16.2036  -10.3137  -16.4760 C   0  0  1  0  0  0  0  0  0  0  0  0
   15.8582   -9.8112  -15.2247 O   0  0  0  0  0  0  0  0  0  0  0  0
   17.3251  -11.2970  -16.4286 C   0  0  2  0  0  0  0  0  0  0  0  0
   17.0998  -12.4774  -15.6690 N   0  0  0  0  0  0  0  0  0  0  0  0
   18.5171  -10.5833  -15.8870 C   0  0  0  0  0  0  0  0  0  0  0  0
   18.9775  -10.8587  -14.7279 O   0  0  0  0  0  0  0  0  0  0  0  0
   19.2084   -9.5756  -16.5965 N   0  0  0  0  0  0  0  0  0  0  0  0
   20.4664   -8.9808  -16.0902 C   0  0  1  0  0  0  0  0  0  0  0  0
   21.4305   -8.7718  -17.1989 C   0  0  0  0  0  0  0  0  0  0  0  0
   22.7237   -8.2066  -16.7007 C   0  0  0  0  0  0  0  0  0  0  0  0
   23.7257   -7.9756  -17.8234 C   0  0  0  0  0  0  0  0  0  0  0  0
   25.0376   -7.4590  -17.2156 C   0  0  0  0  0  0  0  0  0  0  0  0
   26.0395   -7.2472  -18.2436 N   0  0  0  0  0  0  0  0  0  0  0  0
   20.0768   -7.7119  -15.4744 C   0  0  0  0  0  0  0  0  0  0  0  0
   20.8305   -7.1432  -14.4714 O   0  0  0  0  0  0  0  0  0  0  0  0
   19.0504   -7.1083  -15.8397 O   0  0  0  0  0  0  0  0  0  0  0  0
  1  2  1  0
  3  2  1  0
  4  3  1  0
  5  4  1  0
  5  6  1  1
  7 13  1  0
  7  5  1  0
  8  7  2  0
 10 12  1  0
 10  9  1  1
 11 10  1  0
 12 13  1  1
 14 12  1  0
 14 15  2  0
 16 14  1  0
 17 16  1  0
 17 23  1  0
 17 18  1  6
 19 18  1  0
 20 19  1  0
 21 20  1  0
 21 22  1  0
 23 25  2  0
 23 24  1  0
M  END
$$$$
