MTK.pdb
     RDKit          3D

 25 24  0  0  1  0  0  0  0  0999 V2000
   27.1860  -13.8010  -15.0208 C   0  0  0  0  0  0  0  0  0  0  0  0
   26.0775  -15.0181  -15.7793 S   0  0  0  0  0  0  0  0  0  0  0  0
   26.9198  -15.8387  -17.1702 C   0  0  0  0  0  0  0  0  0  0  0  0
   27.7126  -14.7945  -17.9276 C   0  0  0  0  0  0  0  0  0  0  0  0
   26.8388  -14.0257  -18.8970 C   0  0  2  0  0  0  0  0  0  0  0  0
   26.3421  -14.9506  -19.8795 N   0  0  0  0  0  0  0  0  0  0  0  0
   27.6504  -12.9455  -19.4690 C   0  0  0  0  0  0  0  0  0  0  0  0
   28.2660  -13.1661  -20.5412 O   0  0  0  0  0  0  0  0  0  0  0  0
   26.4840   -9.1699  -19.8483 C   0  0  0  0  0  0  0  0  0  0  0  0
   27.7292   -9.7340  -20.4867 C   0  0  1  0  0  0  0  0  0  0  0  0
   28.4933   -8.7540  -21.1138 O   0  0  0  0  0  0  0  0  0  0  0  0
   28.5226  -10.6063  -19.5721 C   0  0  2  0  0  0  0  0  0  0  0  0
   27.8156  -11.6606  -18.9321 N   0  0  0  0  0  0  0  0  0  0  0  0
   29.1324   -9.7233  -18.5367 C   0  0  0  0  0  0  0  0  0  0  0  0
   28.5201   -9.4712  -17.4445 O   0  0  0  0  0  0  0  0  0  0  0  0
   30.3997   -9.1153  -18.6822 N   0  0  0  0  0  0  0  0  0  0  0  0
   31.0107   -8.3052  -17.6038 C   0  0  1  0  0  0  0  0  0  0  0  0
   32.4824   -8.4938  -17.5764 C   0  0  0  0  0  0  0  0  0  0  0  0
   33.1156   -7.7019  -16.4756 C   0  0  0  0  0  0  0  0  0  0  0  0
   34.6292   -7.8625  -16.4430 C   0  0  0  0  0  0  0  0  0  0  0  0
   35.1799   -7.1053  -15.2262 C   0  0  0  0  0  0  0  0  0  0  0  0
   36.6269   -7.1959  -15.1679 N   0  0  0  0  0  0  0  0  0  0  0  0
   30.6551   -6.9190  -17.9091 C   0  0  0  0  0  0  0  0  0  0  0  0
   30.4293   -6.5079  -19.2042 O   0  0  0  0  0  0  0  0  0  0  0  0
   30.5463   -6.0692  -17.0051 O   0  0  0  0  0  0  0  0  0  0  0  0
  1  2  1  0
  3  2  1  0
  4  3  1  0
  5  4  1  0
  5  6  1  6
  7 13  1  0
  7  5  1  0
  8  7  2  0
 10 12  1  0
 10  9  1  1
 11 10  1  0
 12 13  1  1
 14 12  1  0
 14 15  2  0
 16 14  1  0
 17 16  1  0
 17 23  1  0
 17 18  1  6
 19 18  1  0
 20 19  1  0
 21 20  1  0
 21 22  1  0
 23 25  2  0
 23 24  1  0
M  END
$$$$
