MRM.pdb
     RDKit          3D

 28 27  0  0  1  0  0  0  0  0999 V2000
    9.1917  -11.4544   19.6847 C   0  0  0  0  0  0  0  0  0  0  0  0
    8.1461  -11.8741   18.2467 S   0  0  0  0  0  0  0  0  0  0  0  0
    8.2156  -13.6840   17.9649 C   0  0  0  0  0  0  0  0  0  0  0  0
    7.9451  -14.3343   19.2819 C   0  0  0  0  0  0  0  0  0  0  0  0
    8.1605  -15.8100   19.3266 C   0  0  2  0  0  0  0  0  0  0  0  0
    7.3667  -16.5404   18.3612 N   0  0  0  0  0  0  0  0  0  0  0  0
    8.0371  -16.3853   20.7056 C   0  0  0  0  0  0  0  0  0  0  0  0
    6.9594  -16.1438   21.2979 O   0  0  0  0  0  0  0  0  0  0  0  0
   12.5250  -19.6093   25.8523 N   0  0  0  0  0  0  0  0  0  0  0  0
   11.8781  -20.8707   26.0690 C   0  0  0  0  0  0  0  0  0  0  0  0
   12.0046  -21.5151   27.1987 N   0  0  0  0  0  0  0  0  0  0  0  0
   11.0736  -21.4831   25.0819 N   0  0  0  0  0  0  0  0  0  0  0  0
   10.9153  -20.8615   23.7836 C   0  0  0  0  0  0  0  0  0  0  0  0
   10.0943  -19.5935   23.9209 C   0  0  0  0  0  0  0  0  0  0  0  0
    9.8301  -18.9297   22.6184 C   0  0  0  0  0  0  0  0  0  0  0  0
    8.9660  -17.7203   22.6259 C   0  0  2  0  0  0  0  0  0  0  0  0
    9.0814  -17.1430   21.2749 N   0  0  0  0  0  0  0  0  0  0  0  0
    9.3647  -16.6447   23.5583 C   0  0  0  0  0  0  0  0  0  0  0  0
   10.4293  -15.9511   23.3495 O   0  0  0  0  0  0  0  0  0  0  0  0
   11.5616  -22.4519   27.2467 C   0  0  0  0  0  0  0  0  0  0  0  0
    5.5176  -12.8996   26.3983 S   0  0  0  0  0  0  0  0  0  0  0  0
    6.8817  -12.4267   27.5253 C   0  0  0  0  0  0  0  0  0  0  0  0
    8.2941  -13.5119   27.0960 C   0  0  0  0  0  0  0  0  0  0  0  0
    7.9088  -14.4767   26.0279 C   0  0  1  0  0  0  0  0  0  0  0  0
    9.0557  -15.3575   25.6469 N   0  0  0  0  0  0  0  0  0  0  0  0
    8.5677  -16.3768   24.6844 C   0  0  0  0  0  0  0  0  0  0  0  0
    9.7043  -16.0281   26.7777 O   0  0  0  0  0  0  0  0  0  0  0  0
    9.4549  -17.2047   27.0726 O   0  0  0  0  0  0  0  0  0  0  0  0
  2  1  1  0
  3  2  1  0
  4  3  1  0
  5  4  1  0
  5  6  1  6
  7  8  2  0
  7  5  1  0
  9 10  1  0
 10 11  2  0
 12 10  1  0
 12 13  1  0
 13 14  1  0
 15 14  1  0
 16 15  1  6
 16 17  1  0
 17  7  1  0
 18 16  1  0
 18 19  2  0
 21 20  1  0
 22 23  1  0
 22 21  1  0
 24 25  1  0
 24 23  1  6
 25 18  1  0
 26 24  1  0
 27 26  2  0
 28 26  1  0
M  END
$$$$
