MRM.pdb
     RDKit          3D

 28 27  0  0  1  0  0  0  0  0999 V2000
    9.3200  -11.5735   19.1810 C   0  0  0  0  0  0  0  0  0  0  0  0
    7.5637  -12.0732   19.1293 S   0  0  0  0  0  0  0  0  0  0  0  0
    7.4135  -13.6329   18.1781 C   0  0  0  0  0  0  0  0  0  0  0  0
    7.4981  -14.7488   19.1672 C   0  0  0  0  0  0  0  0  0  0  0  0
    8.7878  -14.8529   19.9102 C   0  0  2  0  0  0  0  0  0  0  0  0
    9.9004  -15.2696   19.0833 N   0  0  0  0  0  0  0  0  0  0  0  0
    8.6847  -15.6670   21.1650 C   0  0  0  0  0  0  0  0  0  0  0  0
    7.6819  -15.4344   21.8798 O   0  0  0  0  0  0  0  0  0  0  0  0
   14.0247  -19.5486   19.0982 N   0  0  0  0  0  0  0  0  0  0  0  0
   12.8628  -20.1103   19.7237 C   0  0  0  0  0  0  0  0  0  0  0  0
   11.9394  -20.7158   19.0249 N   0  0  0  0  0  0  0  0  0  0  0  0
   12.6524  -20.0421   21.1194 N   0  0  0  0  0  0  0  0  0  0  0  0
   11.4676  -20.6325   21.7064 C   0  0  0  0  0  0  0  0  0  0  0  0
   10.3469  -19.6106   21.7327 C   0  0  0  0  0  0  0  0  0  0  0  0
   10.6367  -18.4547   22.6196 C   0  0  0  0  0  0  0  0  0  0  0  0
    9.5924  -17.4042   22.7432 C   0  0  2  0  0  0  0  0  0  0  0  0
    9.6670  -16.6234   21.4955 N   0  0  0  0  0  0  0  0  0  0  0  0
    9.7796  -16.4300   23.8391 C   0  0  0  0  0  0  0  0  0  0  0  0
   10.7514  -15.5857   23.8130 O   0  0  0  0  0  0  0  0  0  0  0  0
   11.1443  -21.1140   19.5593 C   0  0  0  0  0  0  0  0  0  0  0  0
    5.9145  -12.2443   25.9918 S   0  0  0  0  0  0  0  0  0  0  0  0
    6.5092  -12.7604   27.6454 C   0  0  0  0  0  0  0  0  0  0  0  0
    8.0622  -13.6893   27.3592 C   0  0  0  0  0  0  0  0  0  0  0  0
    7.9070  -14.6312   26.2151 C   0  0  1  0  0  0  0  0  0  0  0  0
    9.1340  -15.4640   26.0219 N   0  0  0  0  0  0  0  0  0  0  0  0
    8.8818  -16.4264   24.9204 C   0  0  0  0  0  0  0  0  0  0  0  0
    9.5623  -16.1955   27.2179 O   0  0  0  0  0  0  0  0  0  0  0  0
    9.4559  -17.4261   27.3066 O   0  0  0  0  0  0  0  0  0  0  0  0
  2  1  1  0
  3  2  1  0
  4  3  1  0
  5  4  1  0
  5  6  1  6
  7  8  2  0
  7  5  1  0
  9 10  1  0
 10 11  2  0
 12 10  1  0
 12 13  1  0
 13 14  1  0
 15 14  1  0
 16 15  1  6
 16 17  1  0
 17  7  1  0
 18 16  1  0
 18 19  2  0
 21 20  1  0
 22 23  1  0
 22 21  1  0
 24 25  1  0
 24 23  1  6
 25 18  1  0
 26 24  1  0
 27 26  2  0
 28 26  1  0
M  END
$$$$
