MRM.pdb
     RDKit          3D

 28 27  0  0  1  0  0  0  0  0999 V2000
    5.7119  -11.8049   26.7089 C   0  0  0  0  0  0  0  0  0  0  0  0
    6.7676  -13.1411   26.0477 S   0  0  0  0  0  0  0  0  0  0  0  0
    6.4781  -14.6682   27.0195 C   0  0  0  0  0  0  0  0  0  0  0  0
    7.3428  -15.7285   26.4207 C   0  0  0  0  0  0  0  0  0  0  0  0
    6.7843  -16.4091   25.2161 C   0  0  2  0  0  0  0  0  0  0  0  0
    5.6101  -17.2084   25.4951 N   0  0  0  0  0  0  0  0  0  0  0  0
    7.8124  -17.1740   24.4377 C   0  0  0  0  0  0  0  0  0  0  0  0
    7.8769  -18.4006   24.6863 O   0  0  0  0  0  0  0  0  0  0  0  0
    8.7234  -13.2707   17.4817 N   0  0  0  0  0  0  0  0  0  0  0  0
    8.3971  -12.9206   18.8336 C   0  0  0  0  0  0  0  0  0  0  0  0
    8.5499  -11.7008   19.2764 N   0  0  0  0  0  0  0  0  0  0  0  0
    7.8954  -13.8666   19.7556 N   0  0  0  0  0  0  0  0  0  0  0  0
    8.5030  -15.1772   19.8568 C   0  0  0  0  0  0  0  0  0  0  0  0
    9.1454  -15.3386   21.2214 C   0  0  0  0  0  0  0  0  0  0  0  0
    9.7522  -16.6796   21.4218 C   0  0  0  0  0  0  0  0  0  0  0  0
    9.7152  -17.2530   22.7927 C   0  0  2  0  0  0  0  0  0  0  0  0
    8.6404  -16.5296   23.4953 N   0  0  0  0  0  0  0  0  0  0  0  0
   10.9316  -17.0583   23.6097 C   0  0  0  0  0  0  0  0  0  0  0  0
   12.1022  -17.1284   23.0780 O   0  0  0  0  0  0  0  0  0  0  0  0
    8.3592  -11.5496   20.2849 C   0  0  0  0  0  0  0  0  0  0  0  0
    9.3379  -14.6834   29.0585 S   0  0  0  0  0  0  0  0  0  0  0  0
   10.5430  -13.6062   28.1972 C   0  0  0  0  0  0  0  0  0  0  0  0
   11.0135  -14.4943   26.6654 C   0  0  0  0  0  0  0  0  0  0  0  0
   11.6949  -15.7786   26.9917 C   0  0  2  0  0  0  0  0  0  0  0  0
   12.0484  -16.5400   25.7541 N   0  0  0  0  0  0  0  0  0  0  0  0
   10.8048  -16.7908   24.9836 C   0  0  0  0  0  0  0  0  0  0  0  0
   12.7314  -17.8133   26.0024 O   0  0  0  0  0  0  0  0  0  0  0  0
   12.1588  -18.9023   25.8621 O   0  0  0  0  0  0  0  0  0  0  0  0
  2  1  1  0
  3  2  1  0
  4  3  1  0
  5  4  1  0
  5  6  1  1
  7  8  2  0
  7  5  1  0
  9 10  1  0
 10 11  2  0
 12 10  1  0
 12 13  1  0
 13 14  1  0
 15 14  1  0
 16 15  1  6
 16 17  1  0
 17  7  1  0
 18 16  1  0
 18 19  2  0
 21 20  1  0
 22 23  1  0
 22 21  1  0
 24 25  1  0
 24 23  1  6
 25 18  1  0
 26 24  1  0
 27 26  2  0
 28 26  1  0
M  END
$$$$
