MRM.pdb
     RDKit          3D

 28 27  0  0  1  0  0  0  0  0999 V2000
    5.9211  -10.7358   26.3207 C   0  0  0  0  0  0  0  0  0  0  0  0
    5.7460  -12.1917   25.2314 S   0  0  0  0  0  0  0  0  0  0  0  0
    5.6359  -13.7018   26.2648 C   0  0  0  0  0  0  0  0  0  0  0  0
    5.5676  -14.8608   25.3254 C   0  0  0  0  0  0  0  0  0  0  0  0
    6.6316  -15.8923   25.4985 C   0  0  2  0  0  0  0  0  0  0  0  0
    7.7058  -15.4747   26.3743 N   0  0  0  0  0  0  0  0  0  0  0  0
    7.1454  -16.4373   24.1998 C   0  0  0  0  0  0  0  0  0  0  0  0
    6.2689  -16.7981   23.3800 O   0  0  0  0  0  0  0  0  0  0  0  0
    7.9651  -12.5779   17.6936 N   0  0  0  0  0  0  0  0  0  0  0  0
    8.3878  -13.9283   17.9267 C   0  0  0  0  0  0  0  0  0  0  0  0
    8.7293  -14.7143   16.9402 N   0  0  0  0  0  0  0  0  0  0  0  0
    8.4592  -14.4809   19.2252 N   0  0  0  0  0  0  0  0  0  0  0  0
    8.0780  -13.6881   20.3754 C   0  0  0  0  0  0  0  0  0  0  0  0
    9.1463  -13.7953   21.4468 C   0  0  0  0  0  0  0  0  0  0  0  0
    8.7060  -14.5806   22.6284 C   0  0  0  0  0  0  0  0  0  0  0  0
    9.1189  -16.0068   22.6987 C   0  0  2  0  0  0  0  0  0  0  0  0
    8.5295  -16.5285   23.9447 N   0  0  0  0  0  0  0  0  0  0  0  0
   10.5719  -16.2563   22.8060 C   0  0  0  0  0  0  0  0  0  0  0  0
   11.4210  -15.4590   22.2570 O   0  0  0  0  0  0  0  0  0  0  0  0
    9.0919  -15.6505   17.2014 C   0  0  0  0  0  0  0  0  0  0  0  0
   10.2676  -14.9377   29.5485 S   0  0  0  0  0  0  0  0  0  0  0  0
   10.4971  -14.7785   27.7384 C   0  0  0  0  0  0  0  0  0  0  0  0
   10.1508  -16.4345   27.0352 C   0  0  0  0  0  0  0  0  0  0  0  0
   10.1592  -16.3843   25.5460 C   0  0  1  0  0  0  0  0  0  0  0  0
   11.2621  -17.2186   24.9768 N   0  0  0  0  0  0  0  0  0  0  0  0
   11.0289  -17.3776   23.5195 C   0  0  0  0  0  0  0  0  0  0  0  0
   11.3996  -18.5411   25.5941 O   0  0  0  0  0  0  0  0  0  0  0  0
   12.4922  -18.9693   25.9898 O   0  0  0  0  0  0  0  0  0  0  0  0
  2  1  1  0
  3  2  1  0
  4  3  1  0
  5  4  1  0
  5  6  1  6
  7  8  2  0
  7  5  1  0
  9 10  1  0
 10 11  2  0
 12 10  1  0
 12 13  1  0
 13 14  1  0
 15 14  1  0
 16 15  1  1
 16 17  1  0
 17  7  1  0
 18 16  1  0
 18 19  2  0
 21 20  1  0
 22 23  1  0
 22 21  1  0
 24 25  1  0
 24 23  1  6
 25 18  1  0
 26 24  1  0
 27 26  2  0
 28 26  1  0
M  END
$$$$
