MRM.pdb
     RDKit          3D

 28 27  0  0  1  0  0  0  0  0999 V2000
    8.3665  -11.4445   20.5466 C   0  0  0  0  0  0  0  0  0  0  0  0
    7.3468  -11.7223   19.0566 S   0  0  0  0  0  0  0  0  0  0  0  0
    7.3690  -13.5075   18.6411 C   0  0  0  0  0  0  0  0  0  0  0  0
    7.7119  -14.2367   19.8986 C   0  0  0  0  0  0  0  0  0  0  0  0
    7.8035  -15.7209   19.7766 C   0  0  2  0  0  0  0  0  0  0  0  0
    6.6241  -16.3280   19.1970 N   0  0  0  0  0  0  0  0  0  0  0  0
    8.2144  -16.3960   21.0507 C   0  0  0  0  0  0  0  0  0  0  0  0
    7.2793  -16.6984   21.8283 O   0  0  0  0  0  0  0  0  0  0  0  0
   12.9831  -22.2625   23.0676 N   0  0  0  0  0  0  0  0  0  0  0  0
   13.6515  -21.5168   24.0942 C   0  0  0  0  0  0  0  0  0  0  0  0
   14.1220  -22.1021   25.1636 N   0  0  0  0  0  0  0  0  0  0  0  0
   13.8382  -20.1188   24.0083 N   0  0  0  0  0  0  0  0  0  0  0  0
   13.2641  -19.3743   22.9068 C   0  0  0  0  0  0  0  0  0  0  0  0
   11.9804  -18.7036   23.3574 C   0  0  0  0  0  0  0  0  0  0  0  0
   11.3077  -17.9483   22.2693 C   0  0  0  0  0  0  0  0  0  0  0  0
    9.9830  -17.3445   22.5690 C   0  0  2  0  0  0  0  0  0  0  0  0
    9.5712  -16.6593   21.3308 N   0  0  0  0  0  0  0  0  0  0  0  0
    9.9660  -16.3106   23.6253 C   0  0  0  0  0  0  0  0  0  0  0  0
   10.4058  -15.1227   23.3937 O   0  0  0  0  0  0  0  0  0  0  0  0
   14.5425  -21.4817   25.8810 C   0  0  0  0  0  0  0  0  0  0  0  0
    6.5895  -11.7023   25.8105 S   0  0  0  0  0  0  0  0  0  0  0  0
    6.3834  -13.0803   26.9992 C   0  0  0  0  0  0  0  0  0  0  0  0
    7.9996  -13.9407   27.0641 C   0  0  0  0  0  0  0  0  0  0  0  0
    8.1435  -14.8746   25.9119 C   0  0  1  0  0  0  0  0  0  0  0  0
    9.4695  -15.5658   25.9304 N   0  0  0  0  0  0  0  0  0  0  0  0
    9.4602  -16.6311   24.8968 C   0  0  0  0  0  0  0  0  0  0  0  0
    9.8288  -16.1493   27.2264 O   0  0  0  0  0  0  0  0  0  0  0  0
    9.6909  -17.3572   27.4621 O   0  0  0  0  0  0  0  0  0  0  0  0
  2  1  1  0
  3  2  1  0
  4  3  1  0
  5  4  1  0
  5  6  1  1
  7  8  2  0
  7  5  1  0
  9 10  1  0
 10 11  2  0
 12 10  1  0
 12 13  1  0
 13 14  1  0
 15 14  1  0
 16 15  1  6
 16 17  1  0
 17  7  1  0
 18 16  1  0
 18 19  2  0
 21 20  1  0
 22 23  1  0
 22 21  1  0
 24 25  1  0
 24 23  1  6
 25 18  1  0
 26 24  1  0
 27 26  2  0
 28 26  1  0
M  END
$$$$
