MRM.pdb
     RDKit          3D

 28 27  0  0  1  0  0  0  0  0999 V2000
    7.6192  -11.1595   19.4129 C   0  0  0  0  0  0  0  0  0  0  0  0
    7.4831  -11.9970   17.7953 S   0  0  0  0  0  0  0  0  0  0  0  0
    8.5017  -13.5208   17.8233 C   0  0  0  0  0  0  0  0  0  0  0  0
    8.2237  -14.1991   19.1245 C   0  0  0  0  0  0  0  0  0  0  0  0
    9.3527  -14.9948   19.6888 C   0  0  2  0  0  0  0  0  0  0  0  0
   10.1001  -15.7285   18.6896 N   0  0  0  0  0  0  0  0  0  0  0  0
    8.9464  -15.8667   20.8389 C   0  0  0  0  0  0  0  0  0  0  0  0
    8.0569  -15.3967   21.5861 O   0  0  0  0  0  0  0  0  0  0  0  0
   11.0206  -21.7820   25.5886 N   0  0  0  0  0  0  0  0  0  0  0  0
   10.3057  -22.7794   24.8465 C   0  0  0  0  0  0  0  0  0  0  0  0
    9.8336  -23.8510   25.4266 N   0  0  0  0  0  0  0  0  0  0  0  0
   10.0725  -22.6610   23.4579 N   0  0  0  0  0  0  0  0  0  0  0  0
   10.5966  -21.5267   22.7261 C   0  0  0  0  0  0  0  0  0  0  0  0
    9.6987  -20.3228   22.9380 C   0  0  0  0  0  0  0  0  0  0  0  0
   10.1018  -19.1480   22.1229 C   0  0  0  0  0  0  0  0  0  0  0  0
    9.3089  -17.9001   22.2765 C   0  0  2  0  0  0  0  0  0  0  0  0
    9.5440  -17.1276   21.0436 N   0  0  0  0  0  0  0  0  0  0  0  0
    9.7069  -17.0122   23.3893 C   0  0  0  0  0  0  0  0  0  0  0  0
   10.8537  -16.4266   23.3890 O   0  0  0  0  0  0  0  0  0  0  0  0
    9.3878  -24.5524   24.8057 C   0  0  0  0  0  0  0  0  0  0  0  0
    5.9485  -12.4868   27.4126 S   0  0  0  0  0  0  0  0  0  0  0  0
    7.5640  -12.2802   26.5748 C   0  0  0  0  0  0  0  0  0  0  0  0
    8.4439  -13.8756   26.7682 C   0  0  0  0  0  0  0  0  0  0  0  0
    8.2355  -14.7381   25.5712 C   0  0  1  0  0  0  0  0  0  0  0  0
    9.2301  -15.8539   25.5213 N   0  0  0  0  0  0  0  0  0  0  0  0
    8.8186  -16.8049   24.4585 C   0  0  0  0  0  0  0  0  0  0  0  0
    9.3898  -16.5779   26.7860 O   0  0  0  0  0  0  0  0  0  0  0  0
    8.9724  -17.7341   26.9365 O   0  0  0  0  0  0  0  0  0  0  0  0
  2  1  1  0
  3  2  1  0
  4  3  1  0
  5  4  1  0
  5  6  1  6
  7  8  2  0
  7  5  1  0
  9 10  1  0
 10 11  2  0
 12 10  1  0
 12 13  1  0
 13 14  1  0
 15 14  1  0
 16 15  1  6
 16 17  1  0
 17  7  1  0
 18 16  1  0
 18 19  2  0
 21 20  1  0
 22 23  1  0
 22 21  1  0
 24 25  1  0
 24 23  1  6
 25 18  1  0
 26 24  1  0
 27 26  2  0
 28 26  1  0
M  END
$$$$
