SQV.pdb
     RDKit          3D

 23 22  0  0  1  0  0  0  0  0999 V2000
   15.1097   -9.1916  -13.4593 O   0  0  0  0  0  0  0  0  0  0  0  0
   15.0150  -10.4006  -14.1508 C   0  0  0  0  0  0  0  0  0  0  0  0
   15.4307  -10.2210  -15.5865 C   0  0  2  0  0  0  0  0  0  0  0  0
   15.2112  -11.4481  -16.2905 N   0  0  0  0  0  0  0  0  0  0  0  0
   16.8192   -9.7551  -15.7247 C   0  0  0  0  0  0  0  0  0  0  0  0
   17.7977  -10.4990  -15.5225 O   0  0  0  0  0  0  0  0  0  0  0  0
   19.6571   -8.6030  -19.4052 N   0  0  0  0  0  0  0  0  0  0  0  0
   20.3014   -7.4291  -18.9445 C   0  0  0  0  0  0  0  0  0  0  0  0
   21.4513   -7.1468  -19.3568 O   0  0  0  0  0  0  0  0  0  0  0  0
   19.6274   -6.5520  -17.9928 C   0  0  0  0  0  0  0  0  0  0  0  0
   18.2410   -7.0173  -17.6346 C   0  0  0  0  0  0  0  0  0  0  0  0
   18.3527   -7.8546  -16.3549 C   0  0  2  0  0  0  0  0  0  0  0  0
   17.0676   -8.4155  -16.1006 N   0  0  0  0  0  0  0  0  0  0  0  0
   18.9385   -7.1073  -15.2534 C   0  0  0  0  0  0  0  0  0  0  0  0
   18.2506   -6.2518  -14.6465 O   0  0  0  0  0  0  0  0  0  0  0  0
   21.0290   -8.3683  -12.1543 C   0  0  0  0  0  0  0  0  0  0  0  0
   21.7693   -7.2441  -12.8420 C   0  0  1  0  0  0  0  0  0  0  0  0
   22.8242   -7.8703  -13.7230 C   0  0  0  0  0  0  0  0  0  0  0  0
   20.8147   -6.4845  -13.7177 C   0  0  2  0  0  0  0  0  0  0  0  0
   20.2699   -7.2724  -14.7933 N   0  0  0  0  0  0  0  0  0  0  0  0
   21.5318   -5.3142  -14.2823 C   0  0  0  0  0  0  0  0  0  0  0  0
   21.9024   -4.2031  -13.5577 O   0  0  0  0  0  0  0  0  0  0  0  0
   21.8453   -5.2962  -15.5218 O   0  0  0  0  0  0  0  0  0  0  0  0
  2  1  1  0
  3  2  1  0
  3  5  1  0
  3  4  1  6
  5  6  2  0
  7  8  1  0
  8  9  2  0
  8 10  1  0
 10 11  1  0
 12 11  1  6
 12 14  1  0
 13 12  1  0
 13  5  1  0
 14 20  1  0
 15 14  2  0
 17 16  1  6
 17 19  1  0
 18 17  1  0
 19 21  1  0
 19 20  1  6
 21 23  2  0
 21 22  1  0
M  END
$$$$
