SQV.pdb
     RDKit          3D

 23 22  0  0  1  0  0  0  0  0999 V2000
   26.9635  -36.5408  -13.1783 O   0  0  0  0  0  0  0  0  0  0  0  0
   27.0842  -35.3492  -12.4611 C   0  0  0  0  0  0  0  0  0  0  0  0
   26.3031  -35.4255  -11.1764 C   0  0  2  0  0  0  0  0  0  0  0  0
   24.9280  -35.1369  -11.4512 N   0  0  0  0  0  0  0  0  0  0  0  0
   26.8439  -34.5484  -10.1266 C   0  0  0  0  0  0  0  0  0  0  0  0
   26.7292  -33.3086  -10.1659 O   0  0  0  0  0  0  0  0  0  0  0  0
   24.8343  -32.4458   -5.7207 N   0  0  0  0  0  0  0  0  0  0  0  0
   26.0812  -32.6883   -5.0947 C   0  0  0  0  0  0  0  0  0  0  0  0
   26.2304  -32.4210   -3.8789 O   0  0  0  0  0  0  0  0  0  0  0  0
   27.1877  -33.2476   -5.8640 C   0  0  0  0  0  0  0  0  0  0  0  0
   26.7369  -34.1078   -7.0146 C   0  0  0  0  0  0  0  0  0  0  0  0
   27.9701  -34.4103   -7.8742 C   0  0  2  0  0  0  0  0  0  0  0  0
   27.5216  -35.1199   -9.0258 N   0  0  0  0  0  0  0  0  0  0  0  0
   29.0296  -35.0554   -7.1150 C   0  0  0  0  0  0  0  0  0  0  0  0
   28.8413  -36.1968   -6.6301 O   0  0  0  0  0  0  0  0  0  0  0  0
   32.6374  -33.1945   -5.5242 C   0  0  0  0  0  0  0  0  0  0  0  0
   32.6842  -34.5186   -6.2516 C   0  0  1  0  0  0  0  0  0  0  0  0
   33.6918  -35.3898   -5.5398 C   0  0  0  0  0  0  0  0  0  0  0  0
   31.3401  -35.1824   -6.1603 C   0  0  2  0  0  0  0  0  0  0  0  0
   30.3023  -34.4794   -6.8695 N   0  0  0  0  0  0  0  0  0  0  0  0
   30.9693  -35.2874   -4.7270 C   0  0  0  0  0  0  0  0  0  0  0  0
   30.0280  -34.4972   -4.1055 O   0  0  0  0  0  0  0  0  0  0  0  0
   31.5392  -36.1575   -3.9835 O   0  0  0  0  0  0  0  0  0  0  0  0
  2  1  1  0
  3  2  1  0
  3  5  1  0
  3  4  1  6
  5  6  2  0
  7  8  1  0
  8  9  2  0
  8 10  1  0
 10 11  1  0
 12 11  1  1
 12 14  1  0
 13 12  1  0
 13  5  1  0
 14 20  1  0
 15 14  2  0
 17 16  1  1
 17 19  1  0
 18 17  1  0
 19 21  1  0
 19 20  1  6
 21 23  2  0
 21 22  1  0
M  END
$$$$
