SQV.pdb
     RDKit          3D

 23 22  0  0  1  0  0  0  0  0999 V2000
   17.9052  -14.8881  -14.7579 O   0  0  0  0  0  0  0  0  0  0  0  0
   16.8318  -14.2742  -15.4059 C   0  0  0  0  0  0  0  0  0  0  0  0
   17.1588  -14.0333  -16.8555 C   0  0  2  0  0  0  0  0  0  0  0  0
   17.5277  -15.2770  -17.4612 N   0  0  0  0  0  0  0  0  0  0  0  0
   18.1964  -13.0076  -17.0437 C   0  0  0  0  0  0  0  0  0  0  0  0
   19.3995  -13.2927  -17.1947 O   0  0  0  0  0  0  0  0  0  0  0  0
   16.9831   -7.1271  -19.0967 N   0  0  0  0  0  0  0  0  0  0  0  0
   18.3898   -7.2229  -18.9647 C   0  0  0  0  0  0  0  0  0  0  0  0
   19.1221   -6.3163  -19.4267 O   0  0  0  0  0  0  0  0  0  0  0  0
   18.9832   -8.3742  -18.2926 C   0  0  0  0  0  0  0  0  0  0  0  0
   17.9711   -9.4128  -17.8875 C   0  0  0  0  0  0  0  0  0  0  0  0
   18.7301  -10.5469  -17.1882 C   0  0  2  0  0  0  0  0  0  0  0  0
   17.8288  -11.6429  -17.0560 N   0  0  0  0  0  0  0  0  0  0  0  0
   19.3681  -10.1094  -15.9567 C   0  0  0  0  0  0  0  0  0  0  0  0
   18.7041  -10.0656  -14.8934 O   0  0  0  0  0  0  0  0  0  0  0  0
   22.7681  -11.4292  -14.6271 C   0  0  0  0  0  0  0  0  0  0  0  0
   22.7623   -9.9240  -14.4892 C   0  0  1  0  0  0  0  0  0  0  0  0
   23.5500   -9.3611  -15.6483 C   0  0  0  0  0  0  0  0  0  0  0  0
   21.3505   -9.4221  -14.5915 C   0  0  2  0  0  0  0  0  0  0  0  0
   20.7266   -9.7144  -15.8562 N   0  0  0  0  0  0  0  0  0  0  0  0
   21.3622   -7.9533  -14.3789 C   0  0  0  0  0  0  0  0  0  0  0  0
   21.5247   -7.3441  -13.1544 O   0  0  0  0  0  0  0  0  0  0  0  0
   21.2142   -7.1643  -15.3741 O   0  0  0  0  0  0  0  0  0  0  0  0
  2  1  1  0
  3  2  1  0
  3  5  1  0
  3  4  1  1
  5  6  2  0
  7  8  1  0
  8  9  2  0
  8 10  1  0
 10 11  1  0
 12 11  1  1
 12 14  1  0
 13 12  1  0
 13  5  1  0
 14 20  1  0
 15 14  2  0
 17 16  1  6
 17 19  1  0
 18 17  1  0
 19 21  1  0
 19 20  1  6
 21 23  2  0
 21 22  1  0
M  END
$$$$
