SQV.pdb
     RDKit          3D

 23 22  0  0  1  0  0  0  0  0999 V2000
   28.3728  -17.2088  -16.5143 O   0  0  0  0  0  0  0  0  0  0  0  0
   27.1965  -17.9583  -16.4553 C   0  0  0  0  0  0  0  0  0  0  0  0
   27.5009  -19.3906  -16.1058 C   0  0  2  0  0  0  0  0  0  0  0  0
   27.9363  -20.0741  -17.2861 N   0  0  0  0  0  0  0  0  0  0  0  0
   26.3665  -20.0759  -15.4675 C   0  0  0  0  0  0  0  0  0  0  0  0
   25.5334  -20.7372  -16.1159 O   0  0  0  0  0  0  0  0  0  0  0  0
   25.7036  -20.5669   -9.1082 N   0  0  0  0  0  0  0  0  0  0  0  0
   24.4581  -20.9716   -9.6472 C   0  0  0  0  0  0  0  0  0  0  0  0
   23.5665  -21.4191   -8.8880 O   0  0  0  0  0  0  0  0  0  0  0  0
   24.2153  -20.8672  -11.0823 C   0  0  0  0  0  0  0  0  0  0  0  0
   25.4002  -20.3427  -11.8490 C   0  0  0  0  0  0  0  0  0  0  0  0
   25.0560  -20.4249  -13.3410 C   0  0  2  0  0  0  0  0  0  0  0  0
   26.2030  -19.9896  -14.0662 N   0  0  0  0  0  0  0  0  0  0  0  0
   23.8150  -19.7381  -13.6618 C   0  0  0  0  0  0  0  0  0  0  0  0
   23.7252  -18.4997  -13.4840 O   0  0  0  0  0  0  0  0  0  0  0  0
   22.1122  -18.9909  -16.6976 C   0  0  0  0  0  0  0  0  0  0  0  0
   21.0311  -19.6583  -15.8788 C   0  0  1  0  0  0  0  0  0  0  0  0
   20.9319  -21.0917  -16.3442 C   0  0  0  0  0  0  0  0  0  0  0  0
   21.4344  -19.6599  -14.4321 C   0  0  2  0  0  0  0  0  0  0  0  0
   22.6577  -20.3761  -14.1771 N   0  0  0  0  0  0  0  0  0  0  0  0
   20.3357  -20.2707  -13.6433 C   0  0  0  0  0  0  0  0  0  0  0  0
   20.4508  -21.4366  -12.9190 O   0  0  0  0  0  0  0  0  0  0  0  0
   19.1881  -19.7082  -13.6075 O   0  0  0  0  0  0  0  0  0  0  0  0
  2  1  1  0
  3  2  1  0
  3  5  1  0
  3  4  1  6
  5  6  2  0
  7  8  1  0
  8  9  2  0
  8 10  1  0
 10 11  1  0
 12 11  1  1
 12 14  1  0
 13 12  1  0
 13  5  1  0
 14 20  1  0
 15 14  2  0
 17 16  1  6
 17 19  1  0
 18 17  1  0
 19 21  1  0
 19 20  1  6
 21 23  2  0
 21 22  1  0
M  END
$$$$
