SQV.pdb
     RDKit          3D

 23 22  0  0  1  0  0  0  0  0999 V2000
   15.4606  -12.8203  -14.1268 O   0  0  0  0  0  0  0  0  0  0  0  0
   15.0196  -12.6430  -15.4394 C   0  0  0  0  0  0  0  0  0  0  0  0
   15.9882  -13.2649  -16.4096 C   0  0  2  0  0  0  0  0  0  0  0  0
   16.2656  -14.6064  -15.9933 N   0  0  0  0  0  0  0  0  0  0  0  0
   17.2213  -12.4785  -16.5683 C   0  0  0  0  0  0  0  0  0  0  0  0
   18.3548  -12.9772  -16.4339 O   0  0  0  0  0  0  0  0  0  0  0  0
   19.2108   -6.3707  -19.9127 N   0  0  0  0  0  0  0  0  0  0  0  0
   18.7955   -7.1300  -18.7917 C   0  0  0  0  0  0  0  0  0  0  0  0
   18.2023   -6.5657  -17.8422 O   0  0  0  0  0  0  0  0  0  0  0  0
   19.0581   -8.5645  -18.7438 C   0  0  0  0  0  0  0  0  0  0  0  0
   17.8488   -9.3779  -18.3657 C   0  0  0  0  0  0  0  0  0  0  0  0
   18.2365  -10.2479  -17.1641 C   0  0  2  0  0  0  0  0  0  0  0  0
   17.1318  -11.1040  -16.8853 N   0  0  0  0  0  0  0  0  0  0  0  0
   18.7156   -9.4587  -16.0405 C   0  0  0  0  0  0  0  0  0  0  0  0
   17.8937   -8.9632  -15.2327 O   0  0  0  0  0  0  0  0  0  0  0  0
   22.8018   -9.1636  -15.1721 C   0  0  0  0  0  0  0  0  0  0  0  0
   21.8172   -8.9611  -14.0432 C   0  0  1  0  0  0  0  0  0  0  0  0
   22.3777   -7.8864  -13.1421 C   0  0  0  0  0  0  0  0  0  0  0  0
   20.5129   -8.4718  -14.6045 C   0  0  2  0  0  0  0  0  0  0  0  0
   20.0834   -9.1941  -15.7742 N   0  0  0  0  0  0  0  0  0  0  0  0
   20.6620   -7.0347  -14.9436 C   0  0  0  0  0  0  0  0  0  0  0  0
   20.5899   -6.0066  -14.0299 O   0  0  0  0  0  0  0  0  0  0  0  0
   20.8727   -6.6843  -16.1550 O   0  0  0  0  0  0  0  0  0  0  0  0
  2  1  1  0
  3  2  1  0
  3  5  1  0
  3  4  1  1
  5  6  2  0
  7  8  1  0
  8  9  2  0
  8 10  1  0
 10 11  1  0
 12 11  1  6
 12 14  1  0
 13 12  1  0
 13  5  1  0
 14 20  1  0
 15 14  2  0
 17 16  1  6
 17 19  1  0
 18 17  1  0
 19 21  1  0
 19 20  1  6
 21 23  2  0
 21 22  1  0
M  END
$$$$
