SQV.pdb
     RDKit          3D

 23 22  0  0  1  0  0  0  0  0999 V2000
   13.2753  -11.6804  -13.3872 O   0  0  0  0  0  0  0  0  0  0  0  0
   13.9400  -11.6584  -14.6146 C   0  0  0  0  0  0  0  0  0  0  0  0
   15.3815  -12.0562  -14.4409 C   0  0  2  0  0  0  0  0  0  0  0  0
   15.4386  -13.4258  -14.0275 N   0  0  0  0  0  0  0  0  0  0  0  0
   16.1084  -11.1768  -13.5123 C   0  0  0  0  0  0  0  0  0  0  0  0
   16.3835  -11.5167  -12.3459 O   0  0  0  0  0  0  0  0  0  0  0  0
   20.7741   -8.8332  -13.7085 N   0  0  0  0  0  0  0  0  0  0  0  0
   20.3078   -7.7045  -12.9915 C   0  0  0  0  0  0  0  0  0  0  0  0
   21.0692   -7.1210  -12.1843 O   0  0  0  0  0  0  0  0  0  0  0  0
   18.9450   -7.2237  -13.1929 C   0  0  0  0  0  0  0  0  0  0  0  0
   18.1168   -8.1315  -14.0630 C   0  0  0  0  0  0  0  0  0  0  0  0
   17.1821   -8.9249  -13.1421 C   0  0  2  0  0  0  0  0  0  0  0  0
   16.5164   -9.8951  -13.9462 N   0  0  0  0  0  0  0  0  0  0  0  0
   16.3147   -8.0616  -12.3566 C   0  0  0  0  0  0  0  0  0  0  0  0
   15.3903   -7.4288  -12.9209 O   0  0  0  0  0  0  0  0  0  0  0  0
   14.4067   -6.5085   -8.0882 C   0  0  0  0  0  0  0  0  0  0  0  0
   15.3906   -7.4313   -8.7701 C   0  0  1  0  0  0  0  0  0  0  0  0
   14.8188   -8.8278   -8.7069 C   0  0  0  0  0  0  0  0  0  0  0  0
   15.5186   -7.0400  -10.2144 C   0  0  2  0  0  0  0  0  0  0  0  0
   16.4325   -7.8700  -10.9562 N   0  0  0  0  0  0  0  0  0  0  0  0
   15.9775   -5.6300  -10.2756 C   0  0  0  0  0  0  0  0  0  0  0  0
   15.1756   -4.5377  -10.0289 O   0  0  0  0  0  0  0  0  0  0  0  0
   17.1928   -5.3678  -10.5745 O   0  0  0  0  0  0  0  0  0  0  0  0
  2  1  1  0
  3  2  1  0
  3  5  1  0
  3  4  1  1
  5  6  2  0
  7  8  1  0
  8  9  2  0
  8 10  1  0
 10 11  1  0
 12 11  1  6
 12 14  1  0
 13 12  1  0
 13  5  1  0
 14 20  1  0
 15 14  2  0
 17 16  1  1
 17 19  1  0
 18 17  1  0
 19 21  1  0
 19 20  1  1
 21 23  2  0
 21 22  1  0
M  END
$$$$
