SQV.pdb
     RDKit          3D

 23 22  0  0  1  0  0  0  0  0999 V2000
   29.2072  -23.7776  -15.8421 O   0  0  0  0  0  0  0  0  0  0  0  0
   29.2434  -22.4657  -16.3180 C   0  0  0  0  0  0  0  0  0  0  0  0
   28.1060  -22.2196  -17.2730 C   0  0  2  0  0  0  0  0  0  0  0  0
   28.6102  -21.5479  -18.4325 N   0  0  0  0  0  0  0  0  0  0  0  0
   26.9932  -21.4805  -16.6569 C   0  0  0  0  0  0  0  0  0  0  0  0
   26.9414  -20.2360  -16.6459 O   0  0  0  0  0  0  0  0  0  0  0  0
   21.0331  -22.4285  -17.1327 N   0  0  0  0  0  0  0  0  0  0  0  0
   21.1262  -21.5326  -16.0400 C   0  0  0  0  0  0  0  0  0  0  0  0
   20.0845  -21.0316  -15.5545 O   0  0  0  0  0  0  0  0  0  0  0  0
   22.4316  -21.1948  -15.4822 C   0  0  0  0  0  0  0  0  0  0  0  0
   23.5673  -21.9362  -16.1359 C   0  0  0  0  0  0  0  0  0  0  0  0
   24.8421  -21.6140  -15.3471 C   0  0  2  0  0  0  0  0  0  0  0  0
   25.9359  -22.1964  -16.0509 N   0  0  0  0  0  0  0  0  0  0  0  0
   24.7333  -21.9822  -13.9444 C   0  0  0  0  0  0  0  0  0  0  0  0
   24.3468  -23.1338  -13.6315 O   0  0  0  0  0  0  0  0  0  0  0  0
   27.1553  -21.2352  -10.8813 C   0  0  0  0  0  0  0  0  0  0  0  0
   25.7404  -20.8445  -10.5205 C   0  0  1  0  0  0  0  0  0  0  0  0
   25.6352  -19.3447  -10.6642 C   0  0  0  0  0  0  0  0  0  0  0  0
   24.7876  -21.4786  -11.4929 C   0  0  2  0  0  0  0  0  0  0  0  0
   25.0390  -21.1158  -12.8639 N   0  0  0  0  0  0  0  0  0  0  0  0
   23.4082  -21.0737  -11.1242 C   0  0  0  0  0  0  0  0  0  0  0  0
   22.5761  -20.3225  -11.9243 O   0  0  0  0  0  0  0  0  0  0  0  0
   22.9211  -21.4253   -9.9955 O   0  0  0  0  0  0  0  0  0  0  0  0
  2  1  1  0
  3  2  1  0
  3  5  1  0
  3  4  1  6
  5  6  2  0
  7  8  1  0
  8  9  2  0
  8 10  1  0
 10 11  1  0
 12 11  1  6
 12 14  1  0
 13 12  1  0
 13  5  1  0
 14 20  1  0
 15 14  2  0
 17 16  1  6
 17 19  1  0
 18 17  1  0
 19 21  1  0
 19 20  1  6
 21 23  2  0
 21 22  1  0
M  END
$$$$
