NWH.pdb
     RDKit          3D

 33 35  0  0  1  0  0  0  0  0999 V2000
   29.8675  -24.2948  -17.0796 N   0  0  0  0  0  0  0  0  0  0  0  0
   30.3062  -22.9542  -17.1401 C   0  0  0  0  0  0  0  0  0  0  0  0
   31.5035  -22.6951  -17.3832 O   0  0  0  0  0  0  0  0  0  0  0  0
   29.3585  -21.8462  -16.9174 C   0  0  0  0  0  0  0  0  0  0  0  0
   28.0519  -22.4421  -16.4368 C   0  0  2  0  0  0  0  0  0  0  0  0
   27.3958  -23.2607  -17.4075 N   0  0  0  0  0  0  0  0  0  0  0  0
   27.1220  -21.4465  -15.8928 C   0  0  0  0  0  0  0  0  0  0  0  0
   27.4847  -20.7133  -14.9389 O   0  0  0  0  0  0  0  0  0  0  0  0
   25.8121  -21.2735  -16.4047 N   0  0  0  0  0  0  0  0  0  0  0  0
   24.9678  -20.2439  -15.8502 C   0  0  1  0  0  0  0  0  0  0  0  0
   24.5769  -19.1790  -16.8242 C   0  0  0  0  0  0  0  0  0  0  0  0
   25.6737  -18.3405  -17.3124 C   0  0  0  0  0  0  0  0  0  0  0  0
   26.3979  -18.3533  -18.4812 C   0  0  0  0  0  0  0  0  0  0  0  0
   27.3224  -17.3602  -18.4435 N   0  0  0  0  0  0  0  0  0  0  0  0
   27.2223  -16.7028  -17.2877 C   0  0  0  0  0  0  0  0  0  0  0  0
   27.9212  -15.6172  -16.7505 C   0  0  0  0  0  0  0  0  0  0  0  0
   27.6116  -15.1248  -15.5106 C   0  0  0  0  0  0  0  0  0  0  0  0
   26.5996  -15.7202  -14.8062 C   0  0  0  0  0  0  0  0  0  0  0  0
   25.9132  -16.7827  -15.3287 C   0  0  0  0  0  0  0  0  0  0  0  0
   26.2055  -17.2975  -16.5750 C   0  0  0  0  0  0  0  0  0  0  0  0
   23.6960  -20.8988  -15.4086 C   0  0  0  0  0  0  0  0  0  0  0  0
   23.5369  -22.1217  -15.6218 O   0  0  0  0  0  0  0  0  0  0  0  0
   22.6696  -20.1662  -14.7558 N   0  0  0  0  0  0  0  0  0  0  0  0
   21.6376  -20.8785  -14.0530 C   0  0  1  0  0  0  0  0  0  0  0  0
   22.2003  -21.7748  -12.9706 C   0  0  0  0  0  0  0  0  0  0  0  0
   21.1761  -22.5289  -12.2567 C   0  0  0  0  0  0  0  0  0  0  0  0
   20.4056  -22.0289  -11.2337 C   0  0  0  0  0  0  0  0  0  0  0  0
   19.5831  -23.0275  -10.8377 N   0  0  0  0  0  0  0  0  0  0  0  0
   19.8108  -24.1185  -11.5684 C   0  0  0  0  0  0  0  0  0  0  0  0
   20.7925  -23.7975  -12.4365 N   0  0  0  0  0  0  0  0  0  0  0  0
   20.6453  -19.9265  -13.5328 C   0  0  0  0  0  0  0  0  0  0  0  0
   19.3092  -20.2717  -13.5076 O   0  0  0  0  0  0  0  0  0  0  0  0
   20.9696  -18.7951  -13.1041 O   0  0  0  0  0  0  0  0  0  0  0  0
  2  4  1  0
  2  1  1  0
  3  2  2  0
  4  5  1  0
  5  6  1  6
  7  5  1  0
  7  8  2  0
  9  7  1  0
 10  9  1  0
 10 11  1  6
 12 11  1  0
 12 20  1  0
 13 14  1  0
 13 12  2  0
 14 15  1  0
 15 20  2  0
 15 16  1  0
 16 17  2  0
 17 18  1  0
 19 18  2  0
 20 19  1  0
 21 10  1  0
 22 21  2  0
 23 21  1  0
 24 25  1  1
 24 23  1  0
 25 26  1  0
 26 30  1  0
 26 27  2  0
 27 28  1  0
 29 28  1  0
 30 29  2  0
 31 32  1  0
 31 24  1  0
 33 31  2  0
M  END
$$$$
