NWH.pdb
     RDKit          3D

 33 35  0  0  1  0  0  0  0  0999 V2000
   14.6675  -20.8561    3.1214 N   0  0  0  0  0  0  0  0  0  0  0  0
   15.3701  -19.9527    2.2947 C   0  0  0  0  0  0  0  0  0  0  0  0
   15.2150  -19.9836    1.0558 O   0  0  0  0  0  0  0  0  0  0  0  0
   16.2936  -18.9641    2.8823 C   0  0  0  0  0  0  0  0  0  0  0  0
   16.2981  -19.1673    4.3829 C   0  0  2  0  0  0  0  0  0  0  0  0
   15.0486  -18.8739    5.0119 N   0  0  0  0  0  0  0  0  0  0  0  0
   17.3920  -18.4657    5.0632 C   0  0  0  0  0  0  0  0  0  0  0  0
   18.5767  -18.6479    4.6860 O   0  0  0  0  0  0  0  0  0  0  0  0
   17.1665  -17.5776    6.1442 N   0  0  0  0  0  0  0  0  0  0  0  0
   18.2888  -16.9044    6.7505 C   0  0  1  0  0  0  0  0  0  0  0  0
   17.9708  -15.5495    7.2967 C   0  0  0  0  0  0  0  0  0  0  0  0
   18.1106  -14.4414    6.3496 C   0  0  0  0  0  0  0  0  0  0  0  0
   17.3234  -14.0103    5.3079 C   0  0  0  0  0  0  0  0  0  0  0  0
   17.9051  -12.9303    4.7270 N   0  0  0  0  0  0  0  0  0  0  0  0
   19.0451  -12.6459    5.3577 C   0  0  0  0  0  0  0  0  0  0  0  0
   20.0123  -11.6541    5.1674 C   0  0  0  0  0  0  0  0  0  0  0  0
   21.1163  -11.5834    5.9747 C   0  0  0  0  0  0  0  0  0  0  0  0
   21.2528  -12.5078    6.9756 C   0  0  0  0  0  0  0  0  0  0  0  0
   20.3083  -13.4799    7.1650 C   0  0  0  0  0  0  0  0  0  0  0  0
   19.1874  -13.5727    6.3658 C   0  0  0  0  0  0  0  0  0  0  0  0
   18.7321  -17.7349    7.9146 C   0  0  0  0  0  0  0  0  0  0  0  0
   17.9075  -18.4992    8.4644 O   0  0  0  0  0  0  0  0  0  0  0  0
   20.0624  -17.6750    8.4077 N   0  0  0  0  0  0  0  0  0  0  0  0
   20.4934  -18.6392    9.3828 C   0  0  1  0  0  0  0  0  0  0  0  0
   20.2413  -20.0608    8.9279 C   0  0  0  0  0  0  0  0  0  0  0  0
   20.6982  -21.0619    9.8852 C   0  0  0  0  0  0  0  0  0  0  0  0
   21.1630  -20.7825   11.1487 C   0  0  0  0  0  0  0  0  0  0  0  0
   21.4869  -21.9663   11.7183 N   0  0  0  0  0  0  0  0  0  0  0  0
   21.2434  -22.9610   10.8653 C   0  0  0  0  0  0  0  0  0  0  0  0
   20.7591  -22.3903    9.7427 N   0  0  0  0  0  0  0  0  0  0  0  0
   21.9034  -18.4016    9.7243 C   0  0  0  0  0  0  0  0  0  0  0  0
   22.3430  -18.6136   11.0154 O   0  0  0  0  0  0  0  0  0  0  0  0
   22.7364  -18.0076    8.8758 O   0  0  0  0  0  0  0  0  0  0  0  0
  2  4  1  0
  2  1  1  0
  3  2  2  0
  4  5  1  0
  5  6  1  1
  7  5  1  0
  7  8  2  0
  9  7  1  0
 10  9  1  0
 10 11  1  1
 12 11  1  0
 12 20  1  0
 13 14  1  0
 13 12  2  0
 14 15  1  0
 15 20  2  0
 15 16  1  0
 16 17  2  0
 17 18  1  0
 19 18  2  0
 20 19  1  0
 21 10  1  0
 22 21  2  0
 23 21  1  0
 24 25  1  6
 24 23  1  0
 25 26  1  0
 26 30  1  0
 26 27  2  0
 27 28  1  0
 29 28  1  0
 30 29  2  0
 31 32  1  0
 31 24  1  0
 33 31  2  0
M  END
$$$$
