NWH.pdb
     RDKit          3D

 33 35  0  0  1  0  0  0  0  0999 V2000
   29.6962  -22.6932  -16.2391 N   0  0  0  0  0  0  0  0  0  0  0  0
   29.0598  -21.5667  -15.6741 C   0  0  0  0  0  0  0  0  0  0  0  0
   28.9624  -20.5065  -16.3271 O   0  0  0  0  0  0  0  0  0  0  0  0
   28.5037  -21.6277  -14.3093 C   0  0  0  0  0  0  0  0  0  0  0  0
   27.0899  -21.0876  -14.3593 C   0  0  2  0  0  0  0  0  0  0  0  0
   27.0124  -19.6912  -14.6541 N   0  0  0  0  0  0  0  0  0  0  0  0
   26.3022  -21.4036  -13.1628 C   0  0  0  0  0  0  0  0  0  0  0  0
   25.8424  -22.5631  -13.0100 O   0  0  0  0  0  0  0  0  0  0  0  0
   26.0333  -20.4427  -12.1568 N   0  0  0  0  0  0  0  0  0  0  0  0
   25.2372  -20.8203  -11.0148 C   0  0  1  0  0  0  0  0  0  0  0  0
   25.7210  -20.2596   -9.7160 C   0  0  0  0  0  0  0  0  0  0  0  0
   27.0759  -20.6556   -9.3262 C   0  0  0  0  0  0  0  0  0  0  0  0
   28.0574  -21.3618   -9.9809 C   0  0  0  0  0  0  0  0  0  0  0  0
   29.1434  -21.4683   -9.1738 N   0  0  0  0  0  0  0  0  0  0  0  0
   28.8990  -20.8542   -8.0157 C   0  0  0  0  0  0  0  0  0  0  0  0
   29.6639  -20.6710   -6.8595 C   0  0  0  0  0  0  0  0  0  0  0  0
   29.1626  -19.9853   -5.7851 C   0  0  0  0  0  0  0  0  0  0  0  0
   27.8922  -19.4814   -5.8680 C   0  0  0  0  0  0  0  0  0  0  0  0
   27.1405  -19.6586   -6.9978 C   0  0  0  0  0  0  0  0  0  0  0  0
   27.6222  -20.3452   -8.0934 C   0  0  0  0  0  0  0  0  0  0  0  0
   23.8620  -20.2676  -11.2265 C   0  0  0  0  0  0  0  0  0  0  0  0
   23.6698  -19.0409  -11.0694 O   0  0  0  0  0  0  0  0  0  0  0  0
   22.7746  -21.1008  -11.6001 N   0  0  0  0  0  0  0  0  0  0  0  0
   21.4659  -20.5240  -11.7444 C   0  0  1  0  0  0  0  0  0  0  0  0
   21.4347  -19.4405  -12.8011 C   0  0  0  0  0  0  0  0  0  0  0  0
   21.8434  -19.9100  -14.1202 C   0  0  0  0  0  0  0  0  0  0  0  0
   22.2521  -21.1919  -14.4033 C   0  0  0  0  0  0  0  0  0  0  0  0
   22.5445  -21.2279  -15.7238 N   0  0  0  0  0  0  0  0  0  0  0  0
   22.3352  -20.0289  -16.2669 C   0  0  0  0  0  0  0  0  0  0  0  0
   21.9046  -19.2288  -15.2695 N   0  0  0  0  0  0  0  0  0  0  0  0
   20.4823  -21.5860  -12.0013 C   0  0  0  0  0  0  0  0  0  0  0  0
   19.1407  -21.2737  -12.0885 O   0  0  0  0  0  0  0  0  0  0  0  0
   20.8190  -22.7837  -12.1467 O   0  0  0  0  0  0  0  0  0  0  0  0
  2  4  1  0
  2  1  1  0
  3  2  2  0
  4  5  1  0
  5  6  1  1
  7  5  1  0
  7  8  2  0
  9  7  1  0
 10  9  1  0
 10 11  1  1
 12 11  1  0
 12 20  1  0
 13 14  1  0
 13 12  2  0
 14 15  1  0
 15 20  2  0
 15 16  1  0
 16 17  2  0
 17 18  1  0
 19 18  2  0
 20 19  1  0
 21 10  1  0
 22 21  2  0
 23 21  1  0
 24 25  1  6
 24 23  1  0
 25 26  1  0
 26 30  1  0
 26 27  2  0
 27 28  1  0
 29 28  1  0
 30 29  2  0
 31 32  1  0
 31 24  1  0
 33 31  2  0
M  END
$$$$
