NWH.pdb
     RDKit          3D

 33 35  0  0  1  0  0  0  0  0999 V2000
   16.7726  -15.8663   13.8471 N   0  0  0  0  0  0  0  0  0  0  0  0
   16.9501  -15.4376   12.5136 C   0  0  0  0  0  0  0  0  0  0  0  0
   17.5058  -14.3453   12.2733 O   0  0  0  0  0  0  0  0  0  0  0  0
   16.4824  -16.2722   11.3911 C   0  0  0  0  0  0  0  0  0  0  0  0
   16.5547  -15.4372   10.1299 C   0  0  2  0  0  0  0  0  0  0  0  0
   15.4971  -14.4841   10.0038 N   0  0  0  0  0  0  0  0  0  0  0  0
   16.6722  -16.2377    8.9063 C   0  0  0  0  0  0  0  0  0  0  0  0
   15.6412  -16.7342    8.3872 O   0  0  0  0  0  0  0  0  0  0  0  0
   17.9176  -16.4788    8.2750 N   0  0  0  0  0  0  0  0  0  0  0  0
   17.9544  -17.2546    7.0596 C   0  0  1  0  0  0  0  0  0  0  0  0
   18.4697  -16.5093    5.8703 C   0  0  0  0  0  0  0  0  0  0  0  0
   17.7045  -15.3186    5.4947 C   0  0  0  0  0  0  0  0  0  0  0  0
   16.3557  -15.0935    5.3508 C   0  0  0  0  0  0  0  0  0  0  0  0
   16.1567  -13.8051    4.9731 N   0  0  0  0  0  0  0  0  0  0  0  0
   17.3329  -13.1859    4.8668 C   0  0  0  0  0  0  0  0  0  0  0  0
   17.6888  -11.8798    4.5163 C   0  0  0  0  0  0  0  0  0  0  0  0
   19.0021  -11.4929    4.4832 C   0  0  0  0  0  0  0  0  0  0  0  0
   19.9622  -12.4156    4.8020 C   0  0  0  0  0  0  0  0  0  0  0  0
   19.6178  -13.6949    5.1455 C   0  0  0  0  0  0  0  0  0  0  0  0
   18.3025  -14.1096    5.1864 C   0  0  0  0  0  0  0  0  0  0  0  0
   18.8993  -18.3938    7.2852 C   0  0  0  0  0  0  0  0  0  0  0  0
   19.9699  -18.1825    7.8978 O   0  0  0  0  0  0  0  0  0  0  0  0
   18.6092  -19.7041    6.8211 N   0  0  0  0  0  0  0  0  0  0  0  0
   19.5060  -20.7788    7.1481 C   0  0  1  0  0  0  0  0  0  0  0  0
   19.6251  -20.9861    8.6428 C   0  0  0  0  0  0  0  0  0  0  0  0
   20.4613  -19.9868    9.2984 C   0  0  0  0  0  0  0  0  0  0  0  0
   20.0732  -18.6956    9.5678 C   0  0  0  0  0  0  0  0  0  0  0  0
   21.1193  -18.0903   10.1758 N   0  0  0  0  0  0  0  0  0  0  0  0
   22.1329  -18.9476   10.2936 C   0  0  0  0  0  0  0  0  0  0  0  0
   21.7143  -20.1093    9.7498 N   0  0  0  0  0  0  0  0  0  0  0  0
   19.0915  -22.0010    6.4439 C   0  0  0  0  0  0  0  0  0  0  0  0
   19.7738  -23.1817    6.6569 O   0  0  0  0  0  0  0  0  0  0  0  0
   18.1272  -22.0139    5.6445 O   0  0  0  0  0  0  0  0  0  0  0  0
  2  4  1  0
  2  1  1  0
  3  2  2  0
  4  5  1  0
  5  6  1  6
  7  5  1  0
  7  8  2  0
  9  7  1  0
 10  9  1  0
 10 11  1  6
 12 11  1  0
 12 20  1  0
 13 14  1  0
 13 12  2  0
 14 15  1  0
 15 20  2  0
 15 16  1  0
 16 17  2  0
 17 18  1  0
 19 18  2  0
 20 19  1  0
 21 10  1  0
 22 21  2  0
 23 21  1  0
 24 25  1  1
 24 23  1  0
 25 26  1  0
 26 30  1  0
 26 27  2  0
 27 28  1  0
 29 28  1  0
 30 29  2  0
 31 32  1  0
 31 24  1  0
 33 31  2  0
M  END
$$$$
