NWH.pdb
     RDKit          3D

 33 35  0  0  1  0  0  0  0  0999 V2000
   19.1866  -17.7785  -17.1305 N   0  0  0  0  0  0  0  0  0  0  0  0
   18.3205  -16.6887  -16.8950 C   0  0  0  0  0  0  0  0  0  0  0  0
   17.1050  -16.7819  -17.1665 O   0  0  0  0  0  0  0  0  0  0  0  0
   18.8390  -15.4302  -16.3270 C   0  0  0  0  0  0  0  0  0  0  0  0
   20.3269  -15.6003  -16.1023 C   0  0  2  0  0  0  0  0  0  0  0  0
   20.6677  -16.7441  -15.3160 N   0  0  0  0  0  0  0  0  0  0  0  0
   20.9772  -14.3987  -15.5684 C   0  0  0  0  0  0  0  0  0  0  0  0
   20.9418  -14.1696  -14.3334 O   0  0  0  0  0  0  0  0  0  0  0  0
   21.6540  -13.4709  -16.3985 N   0  0  0  0  0  0  0  0  0  0  0  0
   22.3268  -12.3457  -15.7973 C   0  0  1  0  0  0  0  0  0  0  0  0
   23.7777  -12.2411  -16.1426 C   0  0  0  0  0  0  0  0  0  0  0  0
   24.6072  -13.3720  -15.7213 C   0  0  0  0  0  0  0  0  0  0  0  0
   24.7190  -14.0422  -14.5259 C   0  0  0  0  0  0  0  0  0  0  0  0
   25.6482  -15.0236  -14.6505 N   0  0  0  0  0  0  0  0  0  0  0  0
   26.1440  -15.0125  -15.8883 C   0  0  0  0  0  0  0  0  0  0  0  0
   27.1080  -15.7955  -16.5309 C   0  0  0  0  0  0  0  0  0  0  0  0
   27.4408  -15.5687  -17.8399 C   0  0  0  0  0  0  0  0  0  0  0  0
   26.8070  -14.5554  -18.5079 C   0  0  0  0  0  0  0  0  0  0  0  0
   25.8629  -13.7869  -17.8825 C   0  0  0  0  0  0  0  0  0  0  0  0
   25.5098  -13.9950  -16.5650 C   0  0  0  0  0  0  0  0  0  0  0  0
   21.6775  -11.1036  -16.3235 C   0  0  0  0  0  0  0  0  0  0  0  0
   21.3750  -11.0437  -17.5364 O   0  0  0  0  0  0  0  0  0  0  0  0
   21.3983   -9.9956  -15.4804 N   0  0  0  0  0  0  0  0  0  0  0  0
   20.7137   -8.8549  -16.0246 C   0  0  1  0  0  0  0  0  0  0  0  0
   19.6420   -8.3350  -15.0904 C   0  0  0  0  0  0  0  0  0  0  0  0
   18.9299   -7.1766  -15.6182 C   0  0  0  0  0  0  0  0  0  0  0  0
   19.1461   -6.6222  -16.8577 C   0  0  0  0  0  0  0  0  0  0  0  0
   18.2984   -5.5740  -16.9720 N   0  0  0  0  0  0  0  0  0  0  0  0
   17.5705   -5.4569  -15.8617 C   0  0  0  0  0  0  0  0  0  0  0  0
   17.9695   -6.4485  -15.0383 N   0  0  0  0  0  0  0  0  0  0  0  0
   21.6907   -7.8185  -16.3890 C   0  0  0  0  0  0  0  0  0  0  0  0
   21.3838   -6.9001  -17.3726 O   0  0  0  0  0  0  0  0  0  0  0  0
   22.8099   -7.7341  -15.8328 O   0  0  0  0  0  0  0  0  0  0  0  0
  2  4  1  0
  2  1  1  0
  3  2  2  0
  4  5  1  0
  5  6  1  1
  7  5  1  0
  7  8  2  0
  9  7  1  0
 10  9  1  0
 10 11  1  6
 12 11  1  0
 12 20  1  0
 13 14  1  0
 13 12  2  0
 14 15  1  0
 15 20  2  0
 15 16  1  0
 16 17  2  0
 17 18  1  0
 19 18  2  0
 20 19  1  0
 21 10  1  0
 22 21  2  0
 23 21  1  0
 24 25  1  1
 24 23  1  0
 25 26  1  0
 26 30  1  0
 26 27  2  0
 27 28  1  0
 29 28  1  0
 30 29  2  0
 31 32  1  0
 31 24  1  0
 33 31  2  0
M  END
$$$$
