NWH.pdb
     RDKit          3D

 33 35  0  0  1  0  0  0  0  0999 V2000
   28.8732  -21.6515  -18.3079 N   0  0  0  0  0  0  0  0  0  0  0  0
   29.4877  -22.5453  -17.4042 C   0  0  0  0  0  0  0  0  0  0  0  0
   30.4461  -23.2547  -17.7757 O   0  0  0  0  0  0  0  0  0  0  0  0
   29.0066  -22.6521  -16.0140 C   0  0  0  0  0  0  0  0  0  0  0  0
   27.7819  -21.7721  -15.8775 C   0  0  2  0  0  0  0  0  0  0  0  0
   28.0316  -20.3873  -16.1282 N   0  0  0  0  0  0  0  0  0  0  0  0
   27.0797  -21.9437  -14.6010 C   0  0  0  0  0  0  0  0  0  0  0  0
   26.7753  -23.0983  -14.2096 O   0  0  0  0  0  0  0  0  0  0  0  0
   26.7247  -20.8464  -13.7778 N   0  0  0  0  0  0  0  0  0  0  0  0
   25.9896  -21.0862  -12.5602 C   0  0  1  0  0  0  0  0  0  0  0  0
   26.3268  -20.1502  -11.4442 C   0  0  0  0  0  0  0  0  0  0  0  0
   27.4975  -20.5198  -10.6459 C   0  0  0  0  0  0  0  0  0  0  0  0
   28.7151  -21.0609  -10.9856 C   0  0  0  0  0  0  0  0  0  0  0  0
   29.4595  -21.2232   -9.8623 N   0  0  0  0  0  0  0  0  0  0  0  0
   28.7647  -20.8053   -8.8038 C   0  0  0  0  0  0  0  0  0  0  0  0
   29.0578  -20.7529   -7.4374 C   0  0  0  0  0  0  0  0  0  0  0  0
   28.1447  -20.2668   -6.5398 C   0  0  0  0  0  0  0  0  0  0  0  0
   26.9349  -19.8317   -7.0107 C   0  0  0  0  0  0  0  0  0  0  0  0
   26.6444  -19.8813   -8.3472 C   0  0  0  0  0  0  0  0  0  0  0  0
   27.5466  -20.3663   -9.2717 C   0  0  0  0  0  0  0  0  0  0  0  0
   24.5392  -20.8738  -12.8649 C   0  0  0  0  0  0  0  0  0  0  0  0
   24.2144  -19.9831  -13.6819 O   0  0  0  0  0  0  0  0  0  0  0  0
   23.5272  -21.6574  -12.2499 N   0  0  0  0  0  0  0  0  0  0  0  0
   22.1658  -21.1973  -12.2839 C   0  0  1  0  0  0  0  0  0  0  0  0
   22.0367  -19.7656  -11.8097 C   0  0  0  0  0  0  0  0  0  0  0  0
   20.6607  -19.2818  -11.8055 C   0  0  0  0  0  0  0  0  0  0  0  0
   19.5588  -20.0569  -11.5305 C   0  0  0  0  0  0  0  0  0  0  0  0
   18.4772  -19.2499  -11.6281 N   0  0  0  0  0  0  0  0  0  0  0  0
   18.8611  -18.0149  -11.9500 C   0  0  0  0  0  0  0  0  0  0  0  0
   20.2057  -18.0493  -12.0560 N   0  0  0  0  0  0  0  0  0  0  0  0
   21.6104  -21.3940  -13.6308 C   0  0  0  0  0  0  0  0  0  0  0  0
   22.3691  -22.0131  -14.6035 O   0  0  0  0  0  0  0  0  0  0  0  0
   20.4560  -21.0157  -13.9363 O   0  0  0  0  0  0  0  0  0  0  0  0
  2  4  1  0
  2  1  1  0
  3  2  2  0
  4  5  1  0
  5  6  1  1
  7  5  1  0
  7  8  2  0
  9  7  1  0
 10  9  1  0
 10 11  1  1
 12 11  1  0
 12 20  1  0
 13 14  1  0
 13 12  2  0
 14 15  1  0
 15 20  2  0
 15 16  1  0
 16 17  2  0
 17 18  1  0
 19 18  2  0
 20 19  1  0
 21 10  1  0
 22 21  2  0
 23 21  1  0
 24 25  1  6
 24 23  1  0
 25 26  1  0
 26 30  1  0
 26 27  2  0
 27 28  1  0
 29 28  1  0
 30 29  2  0
 31 32  1  0
 31 24  1  0
 33 31  2  0
M  END
$$$$
