NWH.pdb
     RDKit          3D

 33 35  0  0  1  0  0  0  0  0999 V2000
   27.2494  -24.7595  -16.7561 N   0  0  0  0  0  0  0  0  0  0  0  0
   26.6582  -23.6238  -17.3511 C   0  0  0  0  0  0  0  0  0  0  0  0
   25.7673  -23.7593  -18.2158 O   0  0  0  0  0  0  0  0  0  0  0  0
   27.0843  -22.2671  -16.9598 C   0  0  0  0  0  0  0  0  0  0  0  0
   27.8595  -22.3794  -15.6638 C   0  0  2  0  0  0  0  0  0  0  0  0
   28.6438  -23.5695  -15.5582 N   0  0  0  0  0  0  0  0  0  0  0  0
   27.0262  -22.2065  -14.4689 C   0  0  0  0  0  0  0  0  0  0  0  0
   26.1409  -23.0569  -14.2004 O   0  0  0  0  0  0  0  0  0  0  0  0
   27.1792  -21.1048  -13.5912 N   0  0  0  0  0  0  0  0  0  0  0  0
   26.2658  -20.9510  -12.4856 C   0  0  1  0  0  0  0  0  0  0  0  0
   26.7489  -20.0281  -11.4131 C   0  0  0  0  0  0  0  0  0  0  0  0
   27.9183  -20.4925  -10.6639 C   0  0  0  0  0  0  0  0  0  0  0  0
   29.1020  -21.0686  -11.0611 C   0  0  0  0  0  0  0  0  0  0  0  0
   29.8623  -21.3246   -9.9663 N   0  0  0  0  0  0  0  0  0  0  0  0
   29.2106  -20.9336   -8.8706 C   0  0  0  0  0  0  0  0  0  0  0  0
   29.5353  -20.9683   -7.5109 C   0  0  0  0  0  0  0  0  0  0  0  0
   28.6654  -20.4908   -6.5670 C   0  0  0  0  0  0  0  0  0  0  0  0
   27.4670  -19.9771   -6.9849 C   0  0  0  0  0  0  0  0  0  0  0  0
   27.1456  -19.9413   -8.3148 C   0  0  0  0  0  0  0  0  0  0  0  0
   28.0042  -20.4157   -9.2851 C   0  0  0  0  0  0  0  0  0  0  0  0
   25.0073  -20.3468  -13.0265 C   0  0  0  0  0  0  0  0  0  0  0  0
   25.0520  -19.7160  -14.1065 O   0  0  0  0  0  0  0  0  0  0  0  0
   23.7684  -20.4726  -12.3441 N   0  0  0  0  0  0  0  0  0  0  0  0
   22.5622  -20.6469  -13.1061 C   0  0  1  0  0  0  0  0  0  0  0  0
   22.6029  -21.8972  -13.9585 C   0  0  0  0  0  0  0  0  0  0  0  0
   21.4071  -22.0780  -14.7739 C   0  0  0  0  0  0  0  0  0  0  0  0
   20.1418  -21.6853  -14.4063 C   0  0  0  0  0  0  0  0  0  0  0  0
   19.3148  -22.0259  -15.4214 N   0  0  0  0  0  0  0  0  0  0  0  0
   20.0110  -22.6095  -16.3965 C   0  0  0  0  0  0  0  0  0  0  0  0
   21.2957  -22.6350  -15.9847 N   0  0  0  0  0  0  0  0  0  0  0  0
   21.3999  -20.6195  -12.2064 C   0  0  0  0  0  0  0  0  0  0  0  0
   20.2889  -19.8722  -12.5414 O   0  0  0  0  0  0  0  0  0  0  0  0
   21.3771  -21.2583  -11.1291 O   0  0  0  0  0  0  0  0  0  0  0  0
  2  4  1  0
  2  1  1  0
  3  2  2  0
  4  5  1  0
  5  6  1  1
  7  5  1  0
  7  8  2  0
  9  7  1  0
 10  9  1  0
 10 11  1  1
 12 11  1  0
 12 20  1  0
 13 14  1  0
 13 12  2  0
 14 15  1  0
 15 20  2  0
 15 16  1  0
 16 17  2  0
 17 18  1  0
 19 18  2  0
 20 19  1  0
 21 10  1  0
 22 21  2  0
 23 21  1  0
 24 25  1  1
 24 23  1  0
 25 26  1  0
 26 30  1  0
 26 27  2  0
 27 28  1  0
 29 28  1  0
 30 29  2  0
 31 32  1  0
 31 24  1  0
 33 31  2  0
M  END
$$$$
