NWH.pdb
     RDKit          3D

 33 35  0  0  1  0  0  0  0  0999 V2000
   28.2102  -22.7827  -18.8642 N   0  0  0  0  0  0  0  0  0  0  0  0
   26.9097  -23.3240  -18.9582 C   0  0  0  0  0  0  0  0  0  0  0  0
   26.3986  -23.5410  -20.0769 O   0  0  0  0  0  0  0  0  0  0  0  0
   26.1406  -23.6392  -17.7397 C   0  0  0  0  0  0  0  0  0  0  0  0
   26.9996  -23.2854  -16.5438 C   0  0  2  0  0  0  0  0  0  0  0  0
   27.9299  -24.3060  -16.1755 N   0  0  0  0  0  0  0  0  0  0  0  0
   26.2241  -22.8526  -15.3763 C   0  0  0  0  0  0  0  0  0  0  0  0
   25.5177  -23.6862  -14.7558 O   0  0  0  0  0  0  0  0  0  0  0  0
   26.2377  -21.5142  -14.9111 N   0  0  0  0  0  0  0  0  0  0  0  0
   25.4994  -21.1735  -13.7199 C   0  0  1  0  0  0  0  0  0  0  0  0
   26.0592  -20.0135  -12.9607 C   0  0  0  0  0  0  0  0  0  0  0  0
   27.2028  -20.3194  -12.0988 C   0  0  0  0  0  0  0  0  0  0  0  0
   28.5262  -20.5724  -12.3733 C   0  0  0  0  0  0  0  0  0  0  0  0
   29.1848  -20.8106  -11.2107 N   0  0  0  0  0  0  0  0  0  0  0  0
   28.3320  -20.7206  -10.1896 C   0  0  0  0  0  0  0  0  0  0  0  0
   28.4870  -20.8729   -8.8082 C   0  0  0  0  0  0  0  0  0  0  0  0
   27.4222  -20.7244   -7.9599 C   0  0  0  0  0  0  0  0  0  0  0  0
   26.1987  -20.4224   -8.4952 C   0  0  0  0  0  0  0  0  0  0  0  0
   26.0430  -20.2725   -9.8467 C   0  0  0  0  0  0  0  0  0  0  0  0
   27.0994  -20.4169  -10.7225 C   0  0  0  0  0  0  0  0  0  0  0  0
   24.1218  -20.7723  -14.1475 C   0  0  0  0  0  0  0  0  0  0  0  0
   23.9916  -19.9396  -15.0728 O   0  0  0  0  0  0  0  0  0  0  0  0
   22.9637  -21.3130  -13.5290 N   0  0  0  0  0  0  0  0  0  0  0  0
   21.6656  -20.9002  -13.9879 C   0  0  1  0  0  0  0  0  0  0  0  0
   20.5824  -21.8790  -13.5879 C   0  0  0  0  0  0  0  0  0  0  0  0
   19.2467  -21.4592  -13.9967 C   0  0  0  0  0  0  0  0  0  0  0  0
   18.7233  -21.6300  -15.2566 C   0  0  0  0  0  0  0  0  0  0  0  0
   17.4733  -21.1127  -15.2356 N   0  0  0  0  0  0  0  0  0  0  0  0
   17.2024  -20.6317  -14.0226 C   0  0  0  0  0  0  0  0  0  0  0  0
   18.3015  -20.8513  -13.2715 N   0  0  0  0  0  0  0  0  0  0  0  0
   21.3869  -19.5342  -13.5212 C   0  0  0  0  0  0  0  0  0  0  0  0
   21.7638  -19.1521  -12.2495 O   0  0  0  0  0  0  0  0  0  0  0  0
   20.8112  -18.6885  -14.2439 O   0  0  0  0  0  0  0  0  0  0  0  0
  2  4  1  0
  2  1  1  0
  3  2  2  0
  4  5  1  0
  5  6  1  1
  7  5  1  0
  7  8  2  0
  9  7  1  0
 10  9  1  0
 10 11  1  6
 12 11  1  0
 12 20  1  0
 13 14  1  0
 13 12  2  0
 14 15  1  0
 15 20  2  0
 15 16  1  0
 16 17  2  0
 17 18  1  0
 19 18  2  0
 20 19  1  0
 21 10  1  0
 22 21  2  0
 23 21  1  0
 24 25  1  1
 24 23  1  0
 25 26  1  0
 26 30  1  0
 26 27  2  0
 27 28  1  0
 29 28  1  0
 30 29  2  0
 31 32  1  0
 31 24  1  0
 33 31  2  0
M  END
$$$$
