NWH.pdb
     RDKit          3D

 33 35  0  0  1  0  0  0  0  0999 V2000
   30.3112  -23.2223  -17.7337 N   0  0  0  0  0  0  0  0  0  0  0  0
   28.9848  -22.7876  -17.5210 C   0  0  0  0  0  0  0  0  0  0  0  0
   28.3634  -22.1976  -18.4296 O   0  0  0  0  0  0  0  0  0  0  0  0
   28.3186  -23.0243  -16.2265 C   0  0  0  0  0  0  0  0  0  0  0  0
   27.4994  -21.7949  -15.8941 C   0  0  2  0  0  0  0  0  0  0  0  0
   28.2476  -20.5772  -15.9110 N   0  0  0  0  0  0  0  0  0  0  0  0
   26.7466  -21.9169  -14.6410 C   0  0  0  0  0  0  0  0  0  0  0  0
   26.0779  -22.9569  -14.4167 O   0  0  0  0  0  0  0  0  0  0  0  0
   26.7410  -20.8967  -13.6577 N   0  0  0  0  0  0  0  0  0  0  0  0
   25.9909  -21.0927  -12.4415 C   0  0  1  0  0  0  0  0  0  0  0  0
   26.4543  -20.2563  -11.2921 C   0  0  0  0  0  0  0  0  0  0  0  0
   27.6904  -20.7042  -10.6471 C   0  0  0  0  0  0  0  0  0  0  0  0
   28.8149  -21.3271  -11.1349 C   0  0  0  0  0  0  0  0  0  0  0  0
   29.6849  -21.5389  -10.1149 N   0  0  0  0  0  0  0  0  0  0  0  0
   29.1617  -21.0739   -8.9800 C   0  0  0  0  0  0  0  0  0  0  0  0
   29.6309  -21.0407   -7.6630 C   0  0  0  0  0  0  0  0  0  0  0  0
   28.8757  -20.4930   -6.6604 C   0  0  0  0  0  0  0  0  0  0  0  0
   27.6474  -19.9769   -6.9764 C   0  0  0  0  0  0  0  0  0  0  0  0
   27.1848  -20.0076   -8.2641 C   0  0  0  0  0  0  0  0  0  0  0  0
   27.9259  -20.5534   -9.2920 C   0  0  0  0  0  0  0  0  0  0  0  0
   24.5774  -20.6836  -12.7176 C   0  0  0  0  0  0  0  0  0  0  0  0
   24.3511  -19.5268  -13.1382 O   0  0  0  0  0  0  0  0  0  0  0  0
   23.4914  -21.5754  -12.5135 N   0  0  0  0  0  0  0  0  0  0  0  0
   22.1623  -21.1539  -12.8627 C   0  0  1  0  0  0  0  0  0  0  0  0
   21.3064  -22.3073  -13.3409 C   0  0  0  0  0  0  0  0  0  0  0  0
   19.9681  -21.8996  -13.7535 C   0  0  0  0  0  0  0  0  0  0  0  0
   19.4813  -20.6161  -13.6748 C   0  0  0  0  0  0  0  0  0  0  0  0
   18.2143  -20.6473  -14.1483 N   0  0  0  0  0  0  0  0  0  0  0  0
   17.8981  -21.8891  -14.5146 C   0  0  0  0  0  0  0  0  0  0  0  0
   18.9855  -22.6482  -14.2662 N   0  0  0  0  0  0  0  0  0  0  0  0
   21.5564  -20.4380  -11.7306 C   0  0  0  0  0  0  0  0  0  0  0  0
   21.6322  -20.9719  -10.4600 O   0  0  0  0  0  0  0  0  0  0  0  0
   20.9639  -19.3440  -11.8753 O   0  0  0  0  0  0  0  0  0  0  0  0
  2  4  1  0
  2  1  1  0
  3  2  2  0
  4  5  1  0
  5  6  1  1
  7  5  1  0
  7  8  2  0
  9  7  1  0
 10  9  1  0
 10 11  1  1
 12 11  1  0
 12 20  1  0
 13 14  1  0
 13 12  2  0
 14 15  1  0
 15 20  2  0
 15 16  1  0
 16 17  2  0
 17 18  1  0
 19 18  2  0
 20 19  1  0
 21 10  1  0
 22 21  2  0
 23 21  1  0
 24 25  1  1
 24 23  1  0
 25 26  1  0
 26 30  1  0
 26 27  2  0
 27 28  1  0
 29 28  1  0
 30 29  2  0
 31 32  1  0
 31 24  1  0
 33 31  2  0
M  END
$$$$
