NWH.pdb
     RDKit          3D

 33 35  0  0  1  0  0  0  0  0999 V2000
   28.8931  -20.8054  -17.0846 N   0  0  0  0  0  0  0  0  0  0  0  0
   29.0288  -22.0830  -16.4992 C   0  0  0  0  0  0  0  0  0  0  0  0
   29.7761  -22.9371  -17.0206 O   0  0  0  0  0  0  0  0  0  0  0  0
   28.2917  -22.4237  -15.2679 C   0  0  0  0  0  0  0  0  0  0  0  0
   27.3500  -21.2789  -14.9584 C   0  0  2  0  0  0  0  0  0  0  0  0
   28.0042  -20.0199  -14.7864 N   0  0  0  0  0  0  0  0  0  0  0  0
   26.4539  -21.5499  -13.8291 C   0  0  0  0  0  0  0  0  0  0  0  0
   25.5751  -22.4420  -13.9334 O   0  0  0  0  0  0  0  0  0  0  0  0
   26.5381  -20.8378  -12.6070 N   0  0  0  0  0  0  0  0  0  0  0  0
   25.5686  -21.0968  -11.5709 C   0  0  1  0  0  0  0  0  0  0  0  0
   25.9175  -20.5079  -10.2417 C   0  0  0  0  0  0  0  0  0  0  0  0
   27.2540  -20.8352   -9.7405 C   0  0  0  0  0  0  0  0  0  0  0  0
   28.2766  -21.5932  -10.2604 C   0  0  0  0  0  0  0  0  0  0  0  0
   29.3191  -21.5910   -9.3913 N   0  0  0  0  0  0  0  0  0  0  0  0
   29.0067  -20.8561   -8.3234 C   0  0  0  0  0  0  0  0  0  0  0  0
   29.7069  -20.5326   -7.1570 C   0  0  0  0  0  0  0  0  0  0  0  0
   29.1416  -19.7403   -6.1935 C   0  0  0  0  0  0  0  0  0  0  0  0
   27.8719  -19.2701   -6.3979 C   0  0  0  0  0  0  0  0  0  0  0  0
   27.1835  -19.5845   -7.5381 C   0  0  0  0  0  0  0  0  0  0  0  0
   27.7304  -20.3805   -8.5236 C   0  0  0  0  0  0  0  0  0  0  0  0
   24.2829  -20.4556  -11.9918 C   0  0  0  0  0  0  0  0  0  0  0  0
   24.3202  -19.4610  -12.7506 O   0  0  0  0  0  0  0  0  0  0  0  0
   23.0263  -20.9485  -11.5509 N   0  0  0  0  0  0  0  0  0  0  0  0
   21.8843  -20.8322  -12.4160 C   0  0  1  0  0  0  0  0  0  0  0  0
   22.1189  -21.4882  -13.7599 C   0  0  0  0  0  0  0  0  0  0  0  0
   21.0166  -21.2959  -14.6954 C   0  0  0  0  0  0  0  0  0  0  0  0
   19.8521  -20.6245  -14.4062 C   0  0  0  0  0  0  0  0  0  0  0  0
   19.0886  -20.6643  -15.5225 N   0  0  0  0  0  0  0  0  0  0  0  0
   19.7280  -21.3283  -16.4851 C   0  0  0  0  0  0  0  0  0  0  0  0
   20.9116  -21.7109  -15.9625 N   0  0  0  0  0  0  0  0  0  0  0  0
   20.6922  -21.3589  -11.7356 C   0  0  0  0  0  0  0  0  0  0  0  0
   20.8120  -21.9366  -10.4878 O   0  0  0  0  0  0  0  0  0  0  0  0
   19.5523  -21.3034  -12.2519 O   0  0  0  0  0  0  0  0  0  0  0  0
  2  4  1  0
  2  1  1  0
  3  2  2  0
  4  5  1  0
  5  6  1  1
  7  5  1  0
  7  8  2  0
  9  7  1  0
 10  9  1  0
 10 11  1  1
 12 11  1  0
 12 20  1  0
 13 14  1  0
 13 12  2  0
 14 15  1  0
 15 20  2  0
 15 16  1  0
 16 17  2  0
 17 18  1  0
 19 18  2  0
 20 19  1  0
 21 10  1  0
 22 21  2  0
 23 21  1  0
 24 25  1  6
 24 23  1  0
 25 26  1  0
 26 30  1  0
 26 27  2  0
 27 28  1  0
 29 28  1  0
 30 29  2  0
 31 32  1  0
 31 24  1  0
 33 31  2  0
M  END
$$$$
