NWH.pdb
     RDKit          3D

 33 35  0  0  1  0  0  0  0  0999 V2000
   29.1422  -18.1115  -14.6882 N   0  0  0  0  0  0  0  0  0  0  0  0
   28.9204  -19.4220  -15.1645 C   0  0  0  0  0  0  0  0  0  0  0  0
   29.6051  -19.8725  -16.1069 O   0  0  0  0  0  0  0  0  0  0  0  0
   27.8800  -20.2727  -14.5568 C   0  0  0  0  0  0  0  0  0  0  0  0
   27.9563  -20.0982  -13.0546 C   0  0  2  0  0  0  0  0  0  0  0  0
   29.2679  -20.2769  -12.5156 N   0  0  0  0  0  0  0  0  0  0  0  0
   26.9847  -20.9176  -12.3221 C   0  0  0  0  0  0  0  0  0  0  0  0
   26.2408  -21.7107  -12.9518 O   0  0  0  0  0  0  0  0  0  0  0  0
   26.8471  -20.8520  -10.9134 N   0  0  0  0  0  0  0  0  0  0  0  0
   25.6570  -21.3825  -10.2950 C   0  0  1  0  0  0  0  0  0  0  0  0
   25.6998  -21.4074   -8.8007 C   0  0  0  0  0  0  0  0  0  0  0  0
   26.3583  -20.2606   -8.1716 C   0  0  0  0  0  0  0  0  0  0  0  0
   26.4903  -18.9462   -8.5530 C   0  0  0  0  0  0  0  0  0  0  0  0
   27.2078  -18.2794   -7.6135 N   0  0  0  0  0  0  0  0  0  0  0  0
   27.5464  -19.1184   -6.6339 C   0  0  0  0  0  0  0  0  0  0  0  0
   28.2717  -18.9508   -5.4501 C   0  0  0  0  0  0  0  0  0  0  0  0
   28.4812  -20.0024   -4.5981 C   0  0  0  0  0  0  0  0  0  0  0  0
   27.9634  -21.2253   -4.9316 C   0  0  0  0  0  0  0  0  0  0  0  0
   27.2530  -21.3933   -6.0892 C   0  0  0  0  0  0  0  0  0  0  0  0
   27.0280  -20.3503   -6.9641 C   0  0  0  0  0  0  0  0  0  0  0  0
   24.5202  -20.4832  -10.6693 C   0  0  0  0  0  0  0  0  0  0  0  0
   24.7682  -19.3922  -11.2302 O   0  0  0  0  0  0  0  0  0  0  0  0
   23.1714  -20.8386  -10.4030 N   0  0  0  0  0  0  0  0  0  0  0  0
   22.2250  -20.8607  -11.4847 C   0  0  1  0  0  0  0  0  0  0  0  0
   22.7171  -21.6853  -12.6550 C   0  0  0  0  0  0  0  0  0  0  0  0
   22.8529  -20.9150  -13.8861 C   0  0  0  0  0  0  0  0  0  0  0  0
   22.5057  -19.5919  -14.0244 C   0  0  0  0  0  0  0  0  0  0  0  0
   22.7789  -19.2462  -15.3036 N   0  0  0  0  0  0  0  0  0  0  0  0
   23.2779  -20.2938  -15.9592 C   0  0  0  0  0  0  0  0  0  0  0  0
   23.3175  -21.3126  -15.0755 N   0  0  0  0  0  0  0  0  0  0  0  0
   20.9175  -21.3150  -10.9893 C   0  0  0  0  0  0  0  0  0  0  0  0
   19.8571  -20.4329  -10.9398 O   0  0  0  0  0  0  0  0  0  0  0  0
   20.7239  -22.4909  -10.6036 O   0  0  0  0  0  0  0  0  0  0  0  0
  2  4  1  0
  2  1  1  0
  3  2  2  0
  4  5  1  0
  5  6  1  1
  7  5  1  0
  7  8  2  0
  9  7  1  0
 10  9  1  0
 10 11  1  1
 12 11  1  0
 12 20  1  0
 13 14  1  0
 13 12  2  0
 14 15  1  0
 15 20  2  0
 15 16  1  0
 16 17  2  0
 17 18  1  0
 19 18  2  0
 20 19  1  0
 21 10  1  0
 22 21  2  0
 23 21  1  0
 24 25  1  6
 24 23  1  0
 25 26  1  0
 26 30  1  0
 26 27  2  0
 27 28  1  0
 29 28  1  0
 30 29  2  0
 31 32  1  0
 31 24  1  0
 33 31  2  0
M  END
$$$$
