NWH.pdb
     RDKit          3D

 33 35  0  0  1  0  0  0  0  0999 V2000
   28.5547  -23.0128  -17.8088 N   0  0  0  0  0  0  0  0  0  0  0  0
   27.3178  -22.3595  -18.0004 C   0  0  0  0  0  0  0  0  0  0  0  0
   27.0852  -21.7548  -19.0681 O   0  0  0  0  0  0  0  0  0  0  0  0
   26.2880  -22.3831  -16.9448 C   0  0  0  0  0  0  0  0  0  0  0  0
   26.8539  -23.1384  -15.7605 C   0  0  2  0  0  0  0  0  0  0  0  0
   26.9349  -24.5516  -15.9588 N   0  0  0  0  0  0  0  0  0  0  0  0
   26.1735  -22.8360  -14.4966 C   0  0  0  0  0  0  0  0  0  0  0  0
   25.2386  -23.5768  -14.1014 O   0  0  0  0  0  0  0  0  0  0  0  0
   26.5307  -21.7271  -13.6900 N   0  0  0  0  0  0  0  0  0  0  0  0
   25.7612  -21.4396  -12.5045 C   0  0  1  0  0  0  0  0  0  0  0  0
   26.3642  -20.3974  -11.6182 C   0  0  0  0  0  0  0  0  0  0  0  0
   27.6031  -20.7877  -10.9419 C   0  0  0  0  0  0  0  0  0  0  0  0
   28.7609  -21.3727  -11.3979 C   0  0  0  0  0  0  0  0  0  0  0  0
   29.6171  -21.5364  -10.3576 N   0  0  0  0  0  0  0  0  0  0  0  0
   29.0529  -21.0767   -9.2403 C   0  0  0  0  0  0  0  0  0  0  0  0
   29.4930  -21.0072   -7.9148 C   0  0  0  0  0  0  0  0  0  0  0  0
   28.6965  -20.4758   -6.9356 C   0  0  0  0  0  0  0  0  0  0  0  0
   27.4559  -20.0126   -7.2837 C   0  0  0  0  0  0  0  0  0  0  0  0
   27.0216  -20.0789   -8.5799 C   0  0  0  0  0  0  0  0  0  0  0  0
   27.8045  -20.6094   -9.5846 C   0  0  0  0  0  0  0  0  0  0  0  0
   24.4382  -20.8994  -12.9508 C   0  0  0  0  0  0  0  0  0  0  0  0
   24.3971  -20.1354  -13.9412 O   0  0  0  0  0  0  0  0  0  0  0  0
   23.2330  -21.2329  -12.2779 N   0  0  0  0  0  0  0  0  0  0  0  0
   21.9748  -20.8714  -12.8715 C   0  0  1  0  0  0  0  0  0  0  0  0
   21.4585  -21.9427  -13.8082 C   0  0  0  0  0  0  0  0  0  0  0  0
   20.1966  -21.5890  -14.4485 C   0  0  0  0  0  0  0  0  0  0  0  0
   19.2102  -20.8273  -13.8678 C   0  0  0  0  0  0  0  0  0  0  0  0
   18.2091  -20.7260  -14.7723 N   0  0  0  0  0  0  0  0  0  0  0  0
   18.5326  -21.3891  -15.8822 C   0  0  0  0  0  0  0  0  0  0  0  0
   19.7569  -21.9146  -15.6689 N   0  0  0  0  0  0  0  0  0  0  0  0
   21.0078  -20.5359  -11.8162 C   0  0  0  0  0  0  0  0  0  0  0  0
   19.7446  -20.0958  -12.1563 O   0  0  0  0  0  0  0  0  0  0  0  0
   21.2892  -20.6353  -10.5997 O   0  0  0  0  0  0  0  0  0  0  0  0
  2  4  1  0
  2  1  1  0
  3  2  2  0
  4  5  1  0
  5  6  1  6
  7  5  1  0
  7  8  2  0
  9  7  1  0
 10  9  1  0
 10 11  1  1
 12 11  1  0
 12 20  1  0
 13 14  1  0
 13 12  2  0
 14 15  1  0
 15 20  2  0
 15 16  1  0
 16 17  2  0
 17 18  1  0
 19 18  2  0
 20 19  1  0
 21 10  1  0
 22 21  2  0
 23 21  1  0
 24 25  1  1
 24 23  1  0
 25 26  1  0
 26 30  1  0
 26 27  2  0
 27 28  1  0
 29 28  1  0
 30 29  2  0
 31 32  1  0
 31 24  1  0
 33 31  2  0
M  END
$$$$
