NHN.pdb
     RDKit          3D

 27 27  0  0  1  0  0  0  0  0999 V2000
    9.9089   -9.8454  -13.8475 N   0  0  0  0  0  0  0  0  0  0  0  0
   10.0252   -9.8082  -12.4392 C   0  0  0  0  0  0  0  0  0  0  0  0
    8.9640   -9.7177  -11.7781 O   0  0  0  0  0  0  0  0  0  0  0  0
   11.3798   -9.8786  -11.8695 C   0  0  0  0  0  0  0  0  0  0  0  0
   12.4904   -9.9378  -12.8749 C   0  0  2  0  0  0  0  0  0  0  0  0
   12.7286  -11.2866  -13.3326 N   0  0  0  0  0  0  0  0  0  0  0  0
   13.7395   -9.3192  -12.3398 C   0  0  0  0  0  0  0  0  0  0  0  0
   14.3459   -9.9797  -11.4380 O   0  0  0  0  0  0  0  0  0  0  0  0
   14.2853   -8.0936  -12.7451 N   0  0  0  0  0  0  0  0  0  0  0  0
   15.5343   -7.5499  -12.1472 C   0  0  1  0  0  0  0  0  0  0  0  0
   16.5441   -7.5698  -13.2225 C   0  0  0  0  0  0  0  0  0  0  0  0
   17.0437   -8.8614  -13.6811 C   0  0  0  0  0  0  0  0  0  0  0  0
   16.5943   -9.5959  -14.7567 C   0  0  0  0  0  0  0  0  0  0  0  0
   17.2806  -10.7450  -14.8403 N   0  0  0  0  0  0  0  0  0  0  0  0
   18.1664  -10.7545  -13.8280 C   0  0  0  0  0  0  0  0  0  0  0  0
   18.0185   -9.6127  -13.1302 N   0  0  0  0  0  0  0  0  0  0  0  0
   15.2770   -6.3205  -11.4307 C   0  0  0  0  0  0  0  0  0  0  0  0
   14.4859   -5.4602  -11.9465 O   0  0  0  0  0  0  0  0  0  0  0  0
   15.0982   -2.2217   -8.1353 N   0  0  0  0  0  0  0  0  0  0  0  0
   15.6059   -3.3472   -7.4375 C   0  0  0  0  0  0  0  0  0  0  0  0
   15.8264   -3.2061   -6.2227 O   0  0  0  0  0  0  0  0  0  0  0  0
   15.8732   -4.6452   -8.0909 C   0  0  0  0  0  0  0  0  0  0  0  0
   15.5642   -4.6559   -9.5700 C   0  0  2  0  0  0  0  0  0  0  0  0
   15.8255   -5.9651  -10.1758 N   0  0  0  0  0  0  0  0  0  0  0  0
   16.2593   -3.5570  -10.2237 C   0  0  0  0  0  0  0  0  0  0  0  0
   17.4095   -3.7715  -10.6826 O   0  0  0  0  0  0  0  0  0  0  0  0
   15.7209   -2.3121  -10.3597 O   0  0  0  0  0  0  0  0  0  0  0  0
  2  3  2  0
  2  1  1  0
  4  2  1  0
  5  7  1  0
  5  4  1  0
  5  6  1  1
  7  8  2  0
  9 10  1  0
  9  7  1  0
 10 11  1  6
 11 12  1  0
 12 16  1  0
 13 12  2  0
 13 14  1  0
 14 15  1  0
 16 15  2  0
 17 24  1  0
 17 10  1  0
 18 17  2  0
 20 19  1  0
 21 20  2  0
 22 20  1  0
 23 24  1  0
 23 22  1  1
 25 27  1  0
 25 23  1  0
 26 25  2  0
M  END
$$$$
