NHN.pdb
     RDKit          3D

 27 27  0  0  1  0  0  0  0  0999 V2000
   25.9491  -10.9696  -21.2723 N   0  0  0  0  0  0  0  0  0  0  0  0
   26.0113   -9.7228  -20.6092 C   0  0  0  0  0  0  0  0  0  0  0  0
   27.0922   -9.0912  -20.6749 O   0  0  0  0  0  0  0  0  0  0  0  0
   24.8040   -9.2725  -19.8990 C   0  0  0  0  0  0  0  0  0  0  0  0
   23.6372  -10.2112  -19.9696 C   0  0  2  0  0  0  0  0  0  0  0  0
   23.0376  -10.2243  -21.2832 N   0  0  0  0  0  0  0  0  0  0  0  0
   22.6262   -9.8994  -18.9161 C   0  0  0  0  0  0  0  0  0  0  0  0
   21.7197   -9.0693  -19.2425 O   0  0  0  0  0  0  0  0  0  0  0  0
   22.5977  -10.4386  -17.6228 N   0  0  0  0  0  0  0  0  0  0  0  0
   21.5230  -10.1014  -16.6509 C   0  0  1  0  0  0  0  0  0  0  0  0
   21.1901  -11.3601  -15.9571 C   0  0  0  0  0  0  0  0  0  0  0  0
   20.1648  -12.2212  -16.5363 C   0  0  0  0  0  0  0  0  0  0  0  0
   19.3147  -11.9219  -17.5784 C   0  0  0  0  0  0  0  0  0  0  0  0
   18.4908  -12.9559  -17.8033 N   0  0  0  0  0  0  0  0  0  0  0  0
   18.8046  -13.9159  -16.9149 C   0  0  0  0  0  0  0  0  0  0  0  0
   19.8178  -13.4660  -16.1511 N   0  0  0  0  0  0  0  0  0  0  0  0
   21.8681   -8.9288  -15.8783 C   0  0  0  0  0  0  0  0  0  0  0  0
   23.0659   -8.8013  -15.4528 O   0  0  0  0  0  0  0  0  0  0  0  0
   22.1672   -4.2659  -13.4734 N   0  0  0  0  0  0  0  0  0  0  0  0
   22.3884   -4.4135  -14.8666 C   0  0  0  0  0  0  0  0  0  0  0  0
   22.9185   -3.4579  -15.4584 O   0  0  0  0  0  0  0  0  0  0  0  0
   22.0191   -5.6328  -15.6149 C   0  0  0  0  0  0  0  0  0  0  0  0
   21.4395   -6.7259  -14.7474 C   0  0  2  0  0  0  0  0  0  0  0  0
   20.9881   -7.8739  -15.5397 N   0  0  0  0  0  0  0  0  0  0  0  0
   20.4113   -6.1699  -13.8804 C   0  0  0  0  0  0  0  0  0  0  0  0
   20.7548   -5.3167  -13.0239 O   0  0  0  0  0  0  0  0  0  0  0  0
   19.0991   -6.5314  -13.9559 O   0  0  0  0  0  0  0  0  0  0  0  0
  2  3  2  0
  2  1  1  0
  4  2  1  0
  5  7  1  0
  5  4  1  0
  5  6  1  6
  7  8  2  0
  9 10  1  0
  9  7  1  0
 10 11  1  1
 11 12  1  0
 12 16  1  0
 13 12  2  0
 13 14  1  0
 14 15  1  0
 16 15  2  0
 17 24  1  0
 17 10  1  0
 18 17  2  0
 20 19  1  0
 21 20  2  0
 22 20  1  0
 23 24  1  0
 23 22  1  6
 25 27  1  0
 25 23  1  0
 26 25  2  0
M  END
$$$$
