NHN.pdb
     RDKit          3D

 27 27  0  0  1  0  0  0  0  0999 V2000
   18.5426  -16.3071    1.4713 N   0  0  0  0  0  0  0  0  0  0  0  0
   17.7405  -15.6273    2.4161 C   0  0  0  0  0  0  0  0  0  0  0  0
   16.8046  -14.9214    1.9720 O   0  0  0  0  0  0  0  0  0  0  0  0
   18.0715  -15.8054    3.8385 C   0  0  0  0  0  0  0  0  0  0  0  0
   17.1761  -15.0779    4.7958 C   0  0  2  0  0  0  0  0  0  0  0  0
   17.1564  -13.6570    4.5381 N   0  0  0  0  0  0  0  0  0  0  0  0
   17.5492  -15.3659    6.2125 C   0  0  0  0  0  0  0  0  0  0  0  0
   18.2597  -14.4842    6.7916 O   0  0  0  0  0  0  0  0  0  0  0  0
   17.1851  -16.5073    6.9397 N   0  0  0  0  0  0  0  0  0  0  0  0
   17.5004  -16.6552    8.3860 C   0  0  1  0  0  0  0  0  0  0  0  0
   16.2705  -17.1639    9.0222 C   0  0  0  0  0  0  0  0  0  0  0  0
   15.2538  -16.2021    9.4340 C   0  0  0  0  0  0  0  0  0  0  0  0
   15.3499  -14.8278    9.4181 C   0  0  0  0  0  0  0  0  0  0  0  0
   14.2217  -14.2881    9.9022 N   0  0  0  0  0  0  0  0  0  0  0  0
   13.4024  -15.3039   10.2285 C   0  0  0  0  0  0  0  0  0  0  0  0
   14.0319  -16.4592    9.9432 N   0  0  0  0  0  0  0  0  0  0  0  0
   18.7486  -17.3597    8.5780 C   0  0  0  0  0  0  0  0  0  0  0  0
   19.1327  -18.1884    7.6848 O   0  0  0  0  0  0  0  0  0  0  0  0
   24.1961  -16.1808   10.3926 N   0  0  0  0  0  0  0  0  0  0  0  0
   23.2144  -17.1101    9.9632 C   0  0  0  0  0  0  0  0  0  0  0  0
   23.5005  -17.8225    8.9861 O   0  0  0  0  0  0  0  0  0  0  0  0
   21.8997  -17.2535   10.6223 C   0  0  0  0  0  0  0  0  0  0  0  0
   20.8713  -17.9689    9.7774 C   0  0  2  0  0  0  0  0  0  0  0  0
   19.6165  -17.2163    9.6862 N   0  0  0  0  0  0  0  0  0  0  0  0
   20.7049  -19.3324   10.2582 C   0  0  0  0  0  0  0  0  0  0  0  0
   19.9625  -19.5241   11.2540 O   0  0  0  0  0  0  0  0  0  0  0  0
   21.3153  -20.4050    9.6794 O   0  0  0  0  0  0  0  0  0  0  0  0
  2  3  2  0
  2  1  1  0
  4  2  1  0
  5  7  1  0
  5  4  1  0
  5  6  1  6
  7  8  2  0
  9 10  1  0
  9  7  1  0
 10 11  1  1
 11 12  1  0
 12 16  1  0
 13 12  2  0
 13 14  1  0
 14 15  1  0
 16 15  2  0
 17 24  1  0
 17 10  1  0
 18 17  2  0
 20 19  1  0
 21 20  2  0
 22 20  1  0
 23 24  1  0
 23 22  1  1
 25 27  1  0
 25 23  1  0
 26 25  2  0
M  END
$$$$
