NHN.pdb
     RDKit          3D

 27 27  0  0  1  0  0  0  0  0999 V2000
   29.6650  -25.7910  -17.7428 N   0  0  0  0  0  0  0  0  0  0  0  0
   30.3138  -25.0820  -16.7063 C   0  0  0  0  0  0  0  0  0  0  0  0
   31.3186  -25.6201  -16.1846 O   0  0  0  0  0  0  0  0  0  0  0  0
   29.7556  -23.7744  -16.3279 C   0  0  0  0  0  0  0  0  0  0  0  0
   28.4342  -23.4418  -16.9532 C   0  0  2  0  0  0  0  0  0  0  0  0
   28.5482  -23.2533  -18.3805 N   0  0  0  0  0  0  0  0  0  0  0  0
   27.8082  -22.2549  -16.2987 C   0  0  0  0  0  0  0  0  0  0  0  0
   28.5888  -21.2843  -16.0417 O   0  0  0  0  0  0  0  0  0  0  0  0
   26.4559  -22.1284  -15.9529 N   0  0  0  0  0  0  0  0  0  0  0  0
   25.8131  -20.8014  -15.7545 C   0  0  1  0  0  0  0  0  0  0  0  0
   26.0807  -20.0302  -16.9833 C   0  0  0  0  0  0  0  0  0  0  0  0
   27.0829  -18.9713  -16.9331 C   0  0  0  0  0  0  0  0  0  0  0  0
   28.3631  -19.0091  -17.4409 C   0  0  0  0  0  0  0  0  0  0  0  0
   28.9928  -17.8562  -17.1710 N   0  0  0  0  0  0  0  0  0  0  0  0
   28.1280  -17.0789  -16.4947 C   0  0  0  0  0  0  0  0  0  0  0  0
   26.9744  -17.7585  -16.3537 N   0  0  0  0  0  0  0  0  0  0  0  0
   24.4537  -20.9461  -15.2831 C   0  0  0  0  0  0  0  0  0  0  0  0
   23.6715  -21.7508  -15.8937 O   0  0  0  0  0  0  0  0  0  0  0  0
   19.9645  -21.0774  -12.5425 N   0  0  0  0  0  0  0  0  0  0  0  0
   20.9002  -20.2774  -11.8382 C   0  0  0  0  0  0  0  0  0  0  0  0
   20.5616  -19.8702  -10.7140 O   0  0  0  0  0  0  0  0  0  0  0  0
   22.2270  -19.9232  -12.3835 C   0  0  0  0  0  0  0  0  0  0  0  0
   22.5222  -20.5570  -13.7231 C   0  0  2  0  0  0  0  0  0  0  0  0
   23.8862  -20.2698  -14.1774 N   0  0  0  0  0  0  0  0  0  0  0  0
   21.4928  -20.1807  -14.6806 C   0  0  0  0  0  0  0  0  0  0  0  0
   21.6718  -19.1435  -15.3675 O   0  0  0  0  0  0  0  0  0  0  0  0
   20.3493  -20.8995  -14.8645 O   0  0  0  0  0  0  0  0  0  0  0  0
  2  3  2  0
  2  1  1  0
  4  2  1  0
  5  7  1  0
  5  4  1  0
  5  6  1  6
  7  8  2  0
  9 10  1  0
  9  7  1  0
 10 11  1  6
 11 12  1  0
 12 16  1  0
 13 12  2  0
 13 14  1  0
 14 15  1  0
 16 15  2  0
 17 24  1  0
 17 10  1  0
 18 17  2  0
 20 19  1  0
 21 20  2  0
 22 20  1  0
 23 24  1  0
 23 22  1  1
 25 27  1  0
 25 23  1  0
 26 25  2  0
M  END
$$$$
