NHN.pdb
     RDKit          3D

 27 27  0  0  1  0  0  0  0  0999 V2000
   28.7394  -26.1412  -16.9316 N   0  0  0  0  0  0  0  0  0  0  0  0
   29.6026  -25.1186  -16.4762 C   0  0  0  0  0  0  0  0  0  0  0  0
   30.7571  -25.4569  -16.1239 O   0  0  0  0  0  0  0  0  0  0  0  0
   29.0738  -23.7459  -16.4543 C   0  0  0  0  0  0  0  0  0  0  0  0
   27.6363  -23.6115  -16.8583 C   0  0  2  0  0  0  0  0  0  0  0  0
   27.4529  -23.8377  -18.2727 N   0  0  0  0  0  0  0  0  0  0  0  0
   27.0782  -22.2899  -16.4446 C   0  0  0  0  0  0  0  0  0  0  0  0
   27.1266  -22.0297  -15.2006 O   0  0  0  0  0  0  0  0  0  0  0  0
   26.5175  -21.3330  -17.3014 N   0  0  0  0  0  0  0  0  0  0  0  0
   26.0408  -20.0135  -16.8064 C   0  0  1  0  0  0  0  0  0  0  0  0
   26.5629  -19.0094  -17.7526 C   0  0  0  0  0  0  0  0  0  0  0  0
   27.9698  -18.6348  -17.6601 C   0  0  0  0  0  0  0  0  0  0  0  0
   28.8985  -19.0966  -16.7532 C   0  0  0  0  0  0  0  0  0  0  0  0
   30.0783  -18.4951  -16.9653 N   0  0  0  0  0  0  0  0  0  0  0  0
   29.9149  -17.6516  -18.0003 C   0  0  0  0  0  0  0  0  0  0  0  0
   28.6377  -17.7403  -18.4165 N   0  0  0  0  0  0  0  0  0  0  0  0
   24.6259  -20.0484  -16.5095 C   0  0  0  0  0  0  0  0  0  0  0  0
   23.8666  -20.7978  -17.2124 O   0  0  0  0  0  0  0  0  0  0  0  0
   20.0091  -20.0957  -13.2119 N   0  0  0  0  0  0  0  0  0  0  0  0
   20.6641  -18.9275  -13.6789 C   0  0  0  0  0  0  0  0  0  0  0  0
   19.9566  -17.9260  -13.8806 O   0  0  0  0  0  0  0  0  0  0  0  0
   22.1196  -18.8658  -13.9259 C   0  0  0  0  0  0  0  0  0  0  0  0
   22.5321  -19.4228  -15.2686 C   0  0  2  0  0  0  0  0  0  0  0  0
   23.9783  -19.3182  -15.4852 N   0  0  0  0  0  0  0  0  0  0  0  0
   21.7348  -18.8084  -16.3198 C   0  0  0  0  0  0  0  0  0  0  0  0
   22.1888  -17.7824  -16.8861 O   0  0  0  0  0  0  0  0  0  0  0  0
   20.5241  -19.2940  -16.7152 O   0  0  0  0  0  0  0  0  0  0  0  0
  2  3  2  0
  2  1  1  0
  4  2  1  0
  5  7  1  0
  5  4  1  0
  5  6  1  6
  7  8  2  0
  9 10  1  0
  9  7  1  0
 10 11  1  6
 11 12  1  0
 12 16  1  0
 13 12  2  0
 13 14  1  0
 14 15  1  0
 16 15  2  0
 17 24  1  0
 17 10  1  0
 18 17  2  0
 20 19  1  0
 21 20  2  0
 22 20  1  0
 23 24  1  0
 23 22  1  1
 25 27  1  0
 25 23  1  0
 26 25  2  0
M  END
$$$$
