KYW.pdb
     RDKit          3D

 36 38  0  0  1  0  0  0  0  0999 V2000
   29.2428  -23.7277  -19.0824 N   0  0  0  0  0  0  0  0  0  0  0  0
   29.9415  -22.7577  -18.3191 C   0  0  1  0  0  0  0  0  0  0  0  0
   30.9396  -22.0408  -19.2573 C   0  0  0  0  0  0  0  0  0  0  0  0
   32.2276  -22.7473  -19.1117 C   0  0  0  0  0  0  0  0  0  0  0  0
   32.5340  -23.8754  -20.0175 C   0  0  0  0  0  0  0  0  0  0  0  0
   33.8646  -24.4937  -19.7268 C   0  0  0  0  0  0  0  0  0  0  0  0
   34.0399  -25.6887  -20.4717 N   0  0  0  0  0  0  0  0  0  0  0  0
   29.0996  -21.7027  -17.7084 C   0  0  0  0  0  0  0  0  0  0  0  0
   29.1265  -20.5121  -18.1811 O   0  0  0  0  0  0  0  0  0  0  0  0
   21.4667  -17.9723  -17.0804 O   0  0  0  0  0  0  0  0  0  0  0  0
   22.6374  -18.6984  -17.2190 C   0  0  0  0  0  0  0  0  0  0  0  0
   22.6247  -20.0610  -17.1377 C   0  0  0  0  0  0  0  0  0  0  0  0
   23.7866  -20.7883  -17.2749 C   0  0  0  0  0  0  0  0  0  0  0  0
   24.9865  -20.1795  -17.4960 C   0  0  0  0  0  0  0  0  0  0  0  0
   26.2544  -20.8792  -17.6567 C   0  0  0  0  0  0  0  0  0  0  0  0
   27.0562  -21.0828  -16.4051 C   0  0  2  0  0  0  0  0  0  0  0  0
   28.2321  -21.9007  -16.6030 N   0  0  0  0  0  0  0  0  0  0  0  0
   26.2777  -21.4984  -15.2204 C   0  0  0  0  0  0  0  0  0  0  0  0
   25.8020  -22.6566  -15.1814 O   0  0  0  0  0  0  0  0  0  0  0  0
   24.9665  -18.7824  -17.5741 C   0  0  0  0  0  0  0  0  0  0  0  0
   23.8175  -18.0490  -17.4392 C   0  0  0  0  0  0  0  0  0  0  0  0
   26.0442  -20.6211  -14.1155 N   0  0  0  0  0  0  0  0  0  0  0  0
   25.2834  -21.0569  -12.9730 C   0  0  1  0  0  0  0  0  0  0  0  0
   25.4855  -20.1028  -11.8205 C   0  0  0  0  0  0  0  0  0  0  0  0
   24.7519  -20.5035  -10.6154 C   0  0  0  0  0  0  0  0  0  0  0  0
   25.3029  -21.1444   -9.5285 C   0  0  0  0  0  0  0  0  0  0  0  0
   24.3350  -21.3510   -8.6204 N   0  0  0  0  0  0  0  0  0  0  0  0
   23.1837  -20.8598   -9.0985 C   0  0  0  0  0  0  0  0  0  0  0  0
   21.9066  -20.8145   -8.5730 C   0  0  0  0  0  0  0  0  0  0  0  0
   20.8601  -20.2445   -9.2694 C   0  0  0  0  0  0  0  0  0  0  0  0
   21.0891  -19.7053  -10.5211 C   0  0  0  0  0  0  0  0  0  0  0  0
   22.3597  -19.7466  -11.0519 C   0  0  0  0  0  0  0  0  0  0  0  0
   23.4137  -20.3218  -10.3480 C   0  0  0  0  0  0  0  0  0  0  0  0
   23.8772  -21.2562  -13.3226 C   0  0  0  0  0  0  0  0  0  0  0  0
   23.2124  -20.3119  -14.0754 O   0  0  0  0  0  0  0  0  0  0  0  0
   23.2157  -22.2673  -12.9692 O   0  0  0  0  0  0  0  0  0  0  0  0
  2  3  1  0
  2  1  1  6
  4  3  1  0
  5  4  1  0
  5  6  1  0
  6  7  1  0
  8  2  1  0
  8 17  1  0
  9  8  2  0
 10 11  1  0
 11 21  2  0
 12 11  1  0
 12 13  2  0
 13 14  1  0
 14 20  2  0
 14 15  1  0
 16 15  1  6
 16 17  1  0
 18 16  1  0
 19 18  2  0
 21 20  1  0
 22 18  1  0
 23 34  1  0
 23 22  1  0
 23 24  1  1
 25 24  1  0
 26 25  2  0
 27 26  1  0
 28 27  1  0
 28 33  2  0
 29 28  1  0
 30 29  2  0
 30 31  1  0
 31 32  2  0
 32 33  1  0
 33 25  1  0
 34 35  1  0
 36 34  2  0
M  END
$$$$
