KYW.pdb
     RDKit          3D

 36 38  0  0  1  0  0  0  0  0999 V2000
   21.8429  -18.8350  -16.4631 N   0  0  0  0  0  0  0  0  0  0  0  0
   23.1390  -19.0003  -15.9113 C   0  0  1  0  0  0  0  0  0  0  0  0
   23.9917  -17.7776  -16.3218 C   0  0  0  0  0  0  0  0  0  0  0  0
   25.1863  -18.3140  -17.0032 C   0  0  0  0  0  0  0  0  0  0  0  0
   25.0082  -19.1839  -18.1858 C   0  0  0  0  0  0  0  0  0  0  0  0
   26.3107  -19.5555  -18.8204 C   0  0  0  0  0  0  0  0  0  0  0  0
   26.1328  -20.6001  -19.7643 N   0  0  0  0  0  0  0  0  0  0  0  0
   23.1949  -19.0802  -14.4330 C   0  0  0  0  0  0  0  0  0  0  0  0
   22.9151  -18.0479  -13.7276 O   0  0  0  0  0  0  0  0  0  0  0  0
   17.4525  -18.4011  -11.7934 O   0  0  0  0  0  0  0  0  0  0  0  0
   18.6809  -19.0392  -11.7608 C   0  0  0  0  0  0  0  0  0  0  0  0
   19.1141  -19.7692  -12.8299 C   0  0  0  0  0  0  0  0  0  0  0  0
   20.3354  -20.4061  -12.8028 C   0  0  0  0  0  0  0  0  0  0  0  0
   21.1535  -20.3323  -11.7145 C   0  0  0  0  0  0  0  0  0  0  0  0
   22.4585  -20.9724  -11.6131 C   0  0  0  0  0  0  0  0  0  0  0  0
   23.6009  -20.2417  -12.2549 C   0  0  2  0  0  0  0  0  0  0  0  0
   23.5446  -20.2437  -13.6998 N   0  0  0  0  0  0  0  0  0  0  0  0
   24.9409  -20.5990  -11.7459 C   0  0  0  0  0  0  0  0  0  0  0  0
   25.5698  -21.5336  -12.2937 O   0  0  0  0  0  0  0  0  0  0  0  0
   20.6813  -19.5769  -10.6353 C   0  0  0  0  0  0  0  0  0  0  0  0
   19.4690  -18.9396  -10.6509 C   0  0  0  0  0  0  0  0  0  0  0  0
   25.5450  -19.9158  -10.6445 N   0  0  0  0  0  0  0  0  0  0  0  0
   26.6859  -20.4729   -9.9645 C   0  0  1  0  0  0  0  0  0  0  0  0
   27.2961  -19.4423   -9.0453 C   0  0  0  0  0  0  0  0  0  0  0  0
   28.4238  -19.9693   -8.2694 C   0  0  0  0  0  0  0  0  0  0  0  0
   29.4510  -20.7300   -8.7810 C   0  0  0  0  0  0  0  0  0  0  0  0
   30.2972  -21.0297   -7.7818 N   0  0  0  0  0  0  0  0  0  0  0  0
   29.8376  -20.4812   -6.6490 C   0  0  0  0  0  0  0  0  0  0  0  0
   30.3212  -20.4862   -5.3547 C   0  0  0  0  0  0  0  0  0  0  0  0
   29.6572  -19.8358   -4.3343 C   0  0  0  0  0  0  0  0  0  0  0  0
   28.4815  -19.1628   -4.6077 C   0  0  0  0  0  0  0  0  0  0  0  0
   27.9929  -19.1533   -5.8958 C   0  0  0  0  0  0  0  0  0  0  0  0
   28.6640  -19.8097   -6.9234 C   0  0  0  0  0  0  0  0  0  0  0  0
   26.3364  -21.7213   -9.2873 C   0  0  0  0  0  0  0  0  0  0  0  0
   25.2624  -21.7612   -8.4240 O   0  0  0  0  0  0  0  0  0  0  0  0
   26.9737  -22.7948   -9.4486 O   0  0  0  0  0  0  0  0  0  0  0  0
  2  3  1  0
  2  1  1  1
  4  3  1  0
  5  4  1  0
  5  6  1  0
  6  7  1  0
  8  2  1  0
  8 17  1  0
  9  8  2  0
 10 11  1  0
 11 21  2  0
 12 11  1  0
 12 13  2  0
 13 14  1  0
 14 20  2  0
 14 15  1  0
 16 15  1  1
 16 17  1  0
 18 16  1  0
 19 18  2  0
 21 20  1  0
 22 18  1  0
 23 34  1  0
 23 22  1  0
 23 24  1  1
 25 24  1  0
 26 25  2  0
 27 26  1  0
 28 27  1  0
 28 33  2  0
 29 28  1  0
 30 29  2  0
 30 31  1  0
 31 32  2  0
 32 33  1  0
 33 25  1  0
 34 35  1  0
 36 34  2  0
M  END
$$$$
