KYW.pdb
     RDKit          3D

 36 38  0  0  1  0  0  0  0  0999 V2000
   28.8198  -21.4914  -17.7875 N   0  0  0  0  0  0  0  0  0  0  0  0
   28.3002  -22.1925  -16.6692 C   0  0  1  0  0  0  0  0  0  0  0  0
   29.4841  -22.5633  -15.7466 C   0  0  0  0  0  0  0  0  0  0  0  0
   30.0982  -23.7747  -16.3251 C   0  0  0  0  0  0  0  0  0  0  0  0
   29.4152  -25.0756  -16.1578 C   0  0  0  0  0  0  0  0  0  0  0  0
   30.1815  -26.2040  -16.7716 C   0  0  0  0  0  0  0  0  0  0  0  0
   29.4814  -27.4294  -16.6237 N   0  0  0  0  0  0  0  0  0  0  0  0
   27.3344  -21.4366  -15.8381 C   0  0  0  0  0  0  0  0  0  0  0  0
   27.3876  -20.1569  -15.8034 O   0  0  0  0  0  0  0  0  0  0  0  0
   20.1115  -18.4455  -11.8697 O   0  0  0  0  0  0  0  0  0  0  0  0
   21.0666  -19.1313  -12.6010 C   0  0  0  0  0  0  0  0  0  0  0  0
   21.2188  -20.4800  -12.4545 C   0  0  0  0  0  0  0  0  0  0  0  0
   22.1674  -21.1672  -13.1795 C   0  0  0  0  0  0  0  0  0  0  0  0
   22.9855  -20.5314  -14.0658 C   0  0  0  0  0  0  0  0  0  0  0  0
   24.0066  -21.1888  -14.8710 C   0  0  0  0  0  0  0  0  0  0  0  0
   25.3864  -21.2230  -14.2831 C   0  0  2  0  0  0  0  0  0  0  0  0
   26.3158  -22.0266  -15.0457 N   0  0  0  0  0  0  0  0  0  0  0  0
   25.4465  -21.5179  -12.8369 C   0  0  0  0  0  0  0  0  0  0  0  0
   25.1578  -22.6701  -12.4390 O   0  0  0  0  0  0  0  0  0  0  0  0
   22.8050  -19.1495  -14.1931 C   0  0  0  0  0  0  0  0  0  0  0  0
   21.8654  -18.4558  -13.4776 C   0  0  0  0  0  0  0  0  0  0  0  0
   25.8199  -20.5303  -11.8724 N   0  0  0  0  0  0  0  0  0  0  0  0
   25.7100  -20.7960  -10.4612 C   0  0  1  0  0  0  0  0  0  0  0  0
   26.7899  -20.0565   -9.7085 C   0  0  0  0  0  0  0  0  0  0  0  0
   26.7953  -20.3637   -8.2743 C   0  0  0  0  0  0  0  0  0  0  0  0
   25.8437  -21.1143   -7.6210 C   0  0  0  0  0  0  0  0  0  0  0  0
   26.1749  -21.1835   -6.3211 N   0  0  0  0  0  0  0  0  0  0  0  0
   27.3102  -20.4983   -6.1287 C   0  0  0  0  0  0  0  0  0  0  0  0
   28.0671  -20.2582   -4.9979 C   0  0  0  0  0  0  0  0  0  0  0  0
   29.2234  -19.5064   -5.0503 C   0  0  0  0  0  0  0  0  0  0  0  0
   29.6383  -18.9793   -6.2586 C   0  0  0  0  0  0  0  0  0  0  0  0
   28.8890  -19.2142   -7.3905 C   0  0  0  0  0  0  0  0  0  0  0  0
   27.7233  -19.9727   -7.3356 C   0  0  0  0  0  0  0  0  0  0  0  0
   24.3611  -20.5072   -9.9752 C   0  0  0  0  0  0  0  0  0  0  0  0
   23.6778  -21.4481   -9.2348 O   0  0  0  0  0  0  0  0  0  0  0  0
   23.7667  -19.4198  -10.1967 O   0  0  0  0  0  0  0  0  0  0  0  0
  2  3  1  0
  2  1  1  6
  4  3  1  0
  5  4  1  0
  5  6  1  0
  6  7  1  0
  8  2  1  0
  8 17  1  0
  9  8  2  0
 10 11  1  0
 11 21  2  0
 12 11  1  0
 12 13  2  0
 13 14  1  0
 14 20  2  0
 14 15  1  0
 16 15  1  6
 16 17  1  0
 18 16  1  0
 19 18  2  0
 21 20  1  0
 22 18  1  0
 23 34  1  0
 23 22  1  0
 23 24  1  1
 25 24  1  0
 26 25  2  0
 27 26  1  0
 28 27  1  0
 28 33  2  0
 29 28  1  0
 30 29  2  0
 30 31  1  0
 31 32  2  0
 32 33  1  0
 33 25  1  0
 34 35  1  0
 36 34  2  0
M  END
$$$$
