KYW.pdb
     RDKit          3D

 36 38  0  0  1  0  0  0  0  0999 V2000
   28.1509  -23.2285  -18.4054 N   0  0  0  0  0  0  0  0  0  0  0  0
   27.7479  -21.9406  -17.9686 C   0  0  1  0  0  0  0  0  0  0  0  0
   26.7185  -21.3931  -18.9840 C   0  0  0  0  0  0  0  0  0  0  0  0
   27.4245  -21.2887  -20.2763 C   0  0  0  0  0  0  0  0  0  0  0  0
   28.6792  -20.5092  -20.3479 C   0  0  0  0  0  0  0  0  0  0  0  0
   29.1783  -20.3614  -21.7502 C   0  0  0  0  0  0  0  0  0  0  0  0
   30.4251  -19.6843  -21.7737 N   0  0  0  0  0  0  0  0  0  0  0  0
   27.0978  -21.8954  -16.6382 C   0  0  0  0  0  0  0  0  0  0  0  0
   26.0138  -22.5477  -16.4357 O   0  0  0  0  0  0  0  0  0  0  0  0
   24.9722  -20.0754   -8.2201 O   0  0  0  0  0  0  0  0  0  0  0  0
   25.6336  -20.1856   -9.4315 C   0  0  0  0  0  0  0  0  0  0  0  0
   25.8098  -19.0923  -10.2298 C   0  0  0  0  0  0  0  0  0  0  0  0
   26.4671  -19.1962  -11.4360 C   0  0  0  0  0  0  0  0  0  0  0  0
   26.9640  -20.3871  -11.8764 C   0  0  0  0  0  0  0  0  0  0  0  0
   27.6738  -20.5751  -13.1350 C   0  0  0  0  0  0  0  0  0  0  0  0
   26.8572  -21.1018  -14.2780 C   0  0  2  0  0  0  0  0  0  0  0  0
   27.5876  -21.1653  -15.5244 N   0  0  0  0  0  0  0  0  0  0  0  0
   25.5269  -20.4800  -14.4393 C   0  0  0  0  0  0  0  0  0  0  0  0
   25.4316  -19.4049  -15.0750 O   0  0  0  0  0  0  0  0  0  0  0  0
   26.7674  -21.4885  -11.0360 C   0  0  0  0  0  0  0  0  0  0  0  0
   26.1154  -21.3972   -9.8348 C   0  0  0  0  0  0  0  0  0  0  0  0
   24.3418  -21.0622  -13.8902 N   0  0  0  0  0  0  0  0  0  0  0  0
   23.0696  -20.3968  -14.0047 C   0  0  1  0  0  0  0  0  0  0  0  0
   22.7176  -20.1975  -15.4593 C   0  0  0  0  0  0  0  0  0  0  0  0
   21.4029  -19.5744  -15.6458 C   0  0  0  0  0  0  0  0  0  0  0  0
   20.9248  -18.5024  -14.9261 C   0  0  0  0  0  0  0  0  0  0  0  0
   19.6919  -18.2075  -15.3702 N   0  0  0  0  0  0  0  0  0  0  0  0
   19.3720  -19.0613  -16.3521 C   0  0  0  0  0  0  0  0  0  0  0  0
   18.2401  -19.1923  -17.1337 C   0  0  0  0  0  0  0  0  0  0  0  0
   18.1418  -20.1708  -18.1022 C   0  0  0  0  0  0  0  0  0  0  0  0
   19.1963  -21.0420  -18.2989 C   0  0  0  0  0  0  0  0  0  0  0  0
   20.3283  -20.9179  -17.5235 C   0  0  0  0  0  0  0  0  0  0  0  0
   20.4255  -19.9305  -16.5474 C   0  0  0  0  0  0  0  0  0  0  0  0
   22.0365  -21.1039  -13.2485 C   0  0  0  0  0  0  0  0  0  0  0  0
   22.0742  -22.4781  -13.1465 O   0  0  0  0  0  0  0  0  0  0  0  0
   21.0862  -20.5185  -12.6663 O   0  0  0  0  0  0  0  0  0  0  0  0
  2  3  1  0
  2  1  1  6
  4  3  1  0
  5  4  1  0
  5  6  1  0
  6  7  1  0
  8  2  1  0
  8 17  1  0
  9  8  2  0
 10 11  1  0
 11 21  2  0
 12 11  1  0
 12 13  2  0
 13 14  1  0
 14 20  2  0
 14 15  1  0
 16 15  1  1
 16 17  1  0
 18 16  1  0
 19 18  2  0
 21 20  1  0
 22 18  1  0
 23 34  1  0
 23 22  1  0
 23 24  1  6
 25 24  1  0
 26 25  2  0
 27 26  1  0
 28 27  1  0
 28 33  2  0
 29 28  1  0
 30 29  2  0
 30 31  1  0
 31 32  2  0
 32 33  1  0
 33 25  1  0
 34 35  1  0
 36 34  2  0
M  END
$$$$
