KYW.pdb
     RDKit          3D

 36 38  0  0  1  0  0  0  0  0999 V2000
   27.5418  -22.2086  -17.0466 N   0  0  0  0  0  0  0  0  0  0  0  0
   28.2718  -21.0805  -16.5926 C   0  0  1  0  0  0  0  0  0  0  0  0
   28.4976  -20.1411  -17.7997 C   0  0  0  0  0  0  0  0  0  0  0  0
   29.4729  -20.8184  -18.6767 C   0  0  0  0  0  0  0  0  0  0  0  0
   30.5667  -20.0268  -19.2799 C   0  0  0  0  0  0  0  0  0  0  0  0
   30.4064  -19.8686  -20.7586 C   0  0  0  0  0  0  0  0  0  0  0  0
   31.4824  -19.1232  -21.3064 N   0  0  0  0  0  0  0  0  0  0  0  0
   27.6061  -20.2727  -15.5442 C   0  0  0  0  0  0  0  0  0  0  0  0
   27.3394  -19.0388  -15.7632 O   0  0  0  0  0  0  0  0  0  0  0  0
   19.5146  -20.4514  -12.8564 O   0  0  0  0  0  0  0  0  0  0  0  0
   20.8160  -20.5644  -13.3155 C   0  0  0  0  0  0  0  0  0  0  0  0
   21.4906  -19.4686  -13.7712 C   0  0  0  0  0  0  0  0  0  0  0  0
   22.7854  -19.5755  -14.2291 C   0  0  0  0  0  0  0  0  0  0  0  0
   23.4394  -20.7719  -14.2445 C   0  0  0  0  0  0  0  0  0  0  0  0
   24.8076  -20.9633  -14.7076 C   0  0  0  0  0  0  0  0  0  0  0  0
   25.8887  -20.5614  -13.7483 C   0  0  2  0  0  0  0  0  0  0  0  0
   27.2226  -20.7628  -14.2689 N   0  0  0  0  0  0  0  0  0  0  0  0
   25.7380  -21.0861  -12.3756 C   0  0  0  0  0  0  0  0  0  0  0  0
   25.5450  -22.3129  -12.2116 O   0  0  0  0  0  0  0  0  0  0  0  0
   22.7213  -21.8758  -13.7712 C   0  0  0  0  0  0  0  0  0  0  0  0
   21.4337  -21.7816  -13.3138 C   0  0  0  0  0  0  0  0  0  0  0  0
   25.8011  -20.2396  -11.2247 N   0  0  0  0  0  0  0  0  0  0  0  0
   25.7346  -20.7915   -9.8961 C   0  0  1  0  0  0  0  0  0  0  0  0
   27.0467  -20.5794   -9.1800 C   0  0  0  0  0  0  0  0  0  0  0  0
   26.9175  -20.6594   -7.7212 C   0  0  0  0  0  0  0  0  0  0  0  0
   26.1060  -21.5423   -7.0447 C   0  0  0  0  0  0  0  0  0  0  0  0
   26.2462  -21.3251   -5.7266 N   0  0  0  0  0  0  0  0  0  0  0  0
   27.1239  -20.3291   -5.5452 C   0  0  0  0  0  0  0  0  0  0  0  0
   27.6156  -19.7240   -4.4044 C   0  0  0  0  0  0  0  0  0  0  0  0
   28.5327  -18.6946   -4.4723 C   0  0  0  0  0  0  0  0  0  0  0  0
   28.9725  -18.2553   -5.7066 C   0  0  0  0  0  0  0  0  0  0  0  0
   28.4869  -18.8535   -6.8485 C   0  0  0  0  0  0  0  0  0  0  0  0
   27.5622  -19.8914   -6.7780 C   0  0  0  0  0  0  0  0  0  0  0  0
   24.5820  -20.2654   -9.1653 C   0  0  0  0  0  0  0  0  0  0  0  0
   24.1777  -20.8633   -7.9909 O   0  0  0  0  0  0  0  0  0  0  0  0
   23.9160  -19.2699   -9.5528 O   0  0  0  0  0  0  0  0  0  0  0  0
  2  3  1  0
  2  1  1  6
  4  3  1  0
  5  4  1  0
  5  6  1  0
  6  7  1  0
  8  2  1  0
  8 17  1  0
  9  8  2  0
 10 11  1  0
 11 21  2  0
 12 11  1  0
 12 13  2  0
 13 14  1  0
 14 20  2  0
 14 15  1  0
 16 15  1  6
 16 17  1  0
 18 16  1  0
 19 18  2  0
 21 20  1  0
 22 18  1  0
 23 34  1  0
 23 22  1  0
 23 24  1  1
 25 24  1  0
 26 25  2  0
 27 26  1  0
 28 27  1  0
 28 33  2  0
 29 28  1  0
 30 29  2  0
 30 31  1  0
 31 32  2  0
 32 33  1  0
 33 25  1  0
 34 35  1  0
 36 34  2  0
M  END
$$$$
