KYW.pdb
     RDKit          3D

 36 38  0  0  1  0  0  0  0  0999 V2000
   28.2627  -20.9147  -18.7400 N   0  0  0  0  0  0  0  0  0  0  0  0
   29.0786  -20.2317  -17.8021 C   0  0  1  0  0  0  0  0  0  0  0  0
   29.4899  -18.8775  -18.4246 C   0  0  0  0  0  0  0  0  0  0  0  0
   30.0629  -19.1861  -19.7496 C   0  0  0  0  0  0  0  0  0  0  0  0
   31.4068  -18.6701  -20.0883 C   0  0  0  0  0  0  0  0  0  0  0  0
   32.4746  -19.7021  -19.9092 C   0  0  0  0  0  0  0  0  0  0  0  0
   33.1200  -19.9804  -21.1419 N   0  0  0  0  0  0  0  0  0  0  0  0
   28.4339  -19.9244  -16.5041 C   0  0  0  0  0  0  0  0  0  0  0  0
   29.0610  -19.2293  -15.6294 O   0  0  0  0  0  0  0  0  0  0  0  0
   25.7735  -14.2604  -17.9547 O   0  0  0  0  0  0  0  0  0  0  0  0
   25.6467  -15.4473  -17.2530 C   0  0  0  0  0  0  0  0  0  0  0  0
   25.8037  -15.4741  -15.8972 C   0  0  0  0  0  0  0  0  0  0  0  0
   25.6787  -16.6521  -15.1942 C   0  0  0  0  0  0  0  0  0  0  0  0
   25.3949  -17.8293  -15.8210 C   0  0  0  0  0  0  0  0  0  0  0  0
   25.2423  -19.1121  -15.1469 C   0  0  0  0  0  0  0  0  0  0  0  0
   26.5062  -19.8849  -14.9102 C   0  0  2  0  0  0  0  0  0  0  0  0
   27.1328  -20.3481  -16.1283 N   0  0  0  0  0  0  0  0  0  0  0  0
   26.4107  -20.9489  -13.8898 C   0  0  0  0  0  0  0  0  0  0  0  0
   26.1051  -22.1095  -14.2487 O   0  0  0  0  0  0  0  0  0  0  0  0
   25.2399  -17.7690  -17.2104 C   0  0  0  0  0  0  0  0  0  0  0  0
   25.3620  -16.6037  -17.9198 C   0  0  0  0  0  0  0  0  0  0  0  0
   26.6518  -20.6985  -12.5027 N   0  0  0  0  0  0  0  0  0  0  0  0
   26.1971  -21.6213  -11.4947 C   0  0  1  0  0  0  0  0  0  0  0  0
   27.2176  -21.7233  -10.3866 C   0  0  0  0  0  0  0  0  0  0  0  0
   26.9965  -20.7429   -9.3183 C   0  0  0  0  0  0  0  0  0  0  0  0
   25.8546  -19.9908   -9.1568 C   0  0  0  0  0  0  0  0  0  0  0  0
   26.0106  -19.2066   -8.0775 N   0  0  0  0  0  0  0  0  0  0  0  0
   27.2193  -19.4384   -7.5476 C   0  0  0  0  0  0  0  0  0  0  0  0
   27.8668  -18.9061   -6.4491 C   0  0  0  0  0  0  0  0  0  0  0  0
   29.1373  -19.3122   -6.0942 C   0  0  0  0  0  0  0  0  0  0  0  0
   29.7811  -20.2726   -6.8512 C   0  0  0  0  0  0  0  0  0  0  0  0
   29.1422  -20.8080   -7.9480 C   0  0  0  0  0  0  0  0  0  0  0  0
   27.8610  -20.3972   -8.3042 C   0  0  0  0  0  0  0  0  0  0  0  0
   24.8594  -21.2663  -11.0218 C   0  0  0  0  0  0  0  0  0  0  0  0
   24.0748  -22.2116  -10.3964 O   0  0  0  0  0  0  0  0  0  0  0  0
   24.3644  -20.1164  -11.1534 O   0  0  0  0  0  0  0  0  0  0  0  0
  2  3  1  0
  2  1  1  6
  4  3  1  0
  5  4  1  0
  5  6  1  0
  6  7  1  0
  8  2  1  0
  8 17  1  0
  9  8  2  0
 10 11  1  0
 11 21  2  0
 12 11  1  0
 12 13  2  0
 13 14  1  0
 14 20  2  0
 14 15  1  0
 16 15  1  6
 16 17  1  0
 18 16  1  0
 19 18  2  0
 21 20  1  0
 22 18  1  0
 23 34  1  0
 23 22  1  0
 23 24  1  1
 25 24  1  0
 26 25  2  0
 27 26  1  0
 28 27  1  0
 28 33  2  0
 29 28  1  0
 30 29  2  0
 30 31  1  0
 31 32  2  0
 32 33  1  0
 33 25  1  0
 34 35  1  0
 36 34  2  0
M  END
$$$$
