KYW.pdb
     RDKit          3D

 36 38  0  0  1  0  0  0  0  0999 V2000
   28.2489  -23.3217  -18.3236 N   0  0  0  0  0  0  0  0  0  0  0  0
   28.1632  -22.0076  -17.7966 C   0  0  1  0  0  0  0  0  0  0  0  0
   27.4523  -21.1193  -18.8435 C   0  0  0  0  0  0  0  0  0  0  0  0
   28.1338  -21.3662  -20.1295 C   0  0  0  0  0  0  0  0  0  0  0  0
   29.6097  -21.2920  -20.1855 C   0  0  0  0  0  0  0  0  0  0  0  0
   30.1312  -21.3763  -21.5849 C   0  0  0  0  0  0  0  0  0  0  0  0
   31.5487  -21.4415  -21.5926 N   0  0  0  0  0  0  0  0  0  0  0  0
   27.3950  -21.8772  -16.5367 C   0  0  0  0  0  0  0  0  0  0  0  0
   26.2558  -22.4523  -16.4219 O   0  0  0  0  0  0  0  0  0  0  0  0
   24.8179  -20.0629   -8.2451 O   0  0  0  0  0  0  0  0  0  0  0  0
   25.5431  -20.1732   -9.4194 C   0  0  0  0  0  0  0  0  0  0  0  0
   25.7407  -19.0852  -10.2198 C   0  0  0  0  0  0  0  0  0  0  0  0
   26.4613  -19.1894  -11.3892 C   0  0  0  0  0  0  0  0  0  0  0  0
   27.0019  -20.3753  -11.7899 C   0  0  0  0  0  0  0  0  0  0  0  0
   27.7791  -20.5631  -13.0080 C   0  0  0  0  0  0  0  0  0  0  0  0
   27.0190  -21.0566  -14.2035 C   0  0  2  0  0  0  0  0  0  0  0  0
   27.8249  -21.1430  -15.4010 N   0  0  0  0  0  0  0  0  0  0  0  0
   25.7250  -20.3865  -14.4462 C   0  0  0  0  0  0  0  0  0  0  0  0
   25.7076  -19.3154  -15.0954 O   0  0  0  0  0  0  0  0  0  0  0  0
   26.7818  -21.4715  -10.9484 C   0  0  0  0  0  0  0  0  0  0  0  0
   26.0669  -21.3798   -9.7836 C   0  0  0  0  0  0  0  0  0  0  0  0
   24.4889  -20.9174  -13.9613 N   0  0  0  0  0  0  0  0  0  0  0  0
   23.2453  -20.2310  -14.1990 C   0  0  1  0  0  0  0  0  0  0  0  0
   23.0150  -20.0737  -15.6828 C   0  0  0  0  0  0  0  0  0  0  0  0
   21.7618  -19.3776  -15.9929 C   0  0  0  0  0  0  0  0  0  0  0  0
   21.4102  -18.1318  -15.5237 C   0  0  0  0  0  0  0  0  0  0  0  0
   20.1992  -17.8187  -16.0134 N   0  0  0  0  0  0  0  0  0  0  0  0
   19.7703  -18.8299  -16.7809 C   0  0  0  0  0  0  0  0  0  0  0  0
   18.6090  -19.0140  -17.5066 C   0  0  0  0  0  0  0  0  0  0  0  0
   18.3889  -20.1655  -18.2351 C   0  0  0  0  0  0  0  0  0  0  0  0
   19.3484  -21.1601  -18.2423 C   0  0  0  0  0  0  0  0  0  0  0  0
   20.5089  -20.9840  -17.5212 C   0  0  0  0  0  0  0  0  0  0  0  0
   20.7290  -19.8220  -16.7872 C   0  0  0  0  0  0  0  0  0  0  0  0
   22.1394  -20.8914  -13.5061 C   0  0  0  0  0  0  0  0  0  0  0  0
   22.2476  -22.2153  -13.1378 O   0  0  0  0  0  0  0  0  0  0  0  0
   21.0621  -20.3087  -13.2152 O   0  0  0  0  0  0  0  0  0  0  0  0
  2  3  1  0
  2  1  1  6
  4  3  1  0
  5  4  1  0
  5  6  1  0
  6  7  1  0
  8  2  1  0
  8 17  1  0
  9  8  2  0
 10 11  1  0
 11 21  2  0
 12 11  1  0
 12 13  2  0
 13 14  1  0
 14 20  2  0
 14 15  1  0
 16 15  1  1
 16 17  1  0
 18 16  1  0
 19 18  2  0
 21 20  1  0
 22 18  1  0
 23 34  1  0
 23 22  1  0
 23 24  1  6
 25 24  1  0
 26 25  2  0
 27 26  1  0
 28 27  1  0
 28 33  2  0
 29 28  1  0
 30 29  2  0
 30 31  1  0
 31 32  2  0
 32 33  1  0
 33 25  1  0
 34 35  1  0
 36 34  2  0
M  END
$$$$
