KYW.pdb
     RDKit          3D

 36 38  0  0  1  0  0  0  0  0999 V2000
   23.1291  -19.5045  -17.5295 N   0  0  0  0  0  0  0  0  0  0  0  0
   24.0500  -20.1306  -16.6510 C   0  0  1  0  0  0  0  0  0  0  0  0
   25.4728  -19.9086  -17.2141 C   0  0  0  0  0  0  0  0  0  0  0  0
   25.6823  -20.9521  -18.2371 C   0  0  0  0  0  0  0  0  0  0  0  0
   25.4986  -22.3711  -17.8632 C   0  0  0  0  0  0  0  0  0  0  0  0
   26.5848  -23.2470  -18.4020 C   0  0  0  0  0  0  0  0  0  0  0  0
   26.0573  -24.2123  -19.2983 N   0  0  0  0  0  0  0  0  0  0  0  0
   24.0568  -19.6126  -15.2631 C   0  0  0  0  0  0  0  0  0  0  0  0
   24.4091  -18.4019  -15.0360 O   0  0  0  0  0  0  0  0  0  0  0  0
   18.8120  -23.9503  -12.7500 O   0  0  0  0  0  0  0  0  0  0  0  0
   19.6836  -22.8844  -12.6040 C   0  0  0  0  0  0  0  0  0  0  0  0
   20.4782  -22.7819  -11.4987 C   0  0  0  0  0  0  0  0  0  0  0  0
   21.3471  -21.7236  -11.3485 C   0  0  0  0  0  0  0  0  0  0  0  0
   21.4469  -20.7440  -12.2916 C   0  0  0  0  0  0  0  0  0  0  0  0
   22.3440  -19.5990  -12.2066 C   0  0  0  0  0  0  0  0  0  0  0  0
   23.7121  -19.7908  -12.7917 C   0  0  2  0  0  0  0  0  0  0  0  0
   23.6940  -20.3675  -14.1176 N   0  0  0  0  0  0  0  0  0  0  0  0
   24.6875  -20.4568  -11.9044 C   0  0  0  0  0  0  0  0  0  0  0  0
   24.8318  -21.6986  -11.9832 O   0  0  0  0  0  0  0  0  0  0  0  0
   20.6196  -20.8774  -13.4124 C   0  0  0  0  0  0  0  0  0  0  0  0
   19.7519  -21.9251  -13.5725 C   0  0  0  0  0  0  0  0  0  0  0  0
   25.4720  -19.7319  -10.9536 N   0  0  0  0  0  0  0  0  0  0  0  0
   26.3568  -20.4183  -10.0480 C   0  0  1  0  0  0  0  0  0  0  0  0
   27.4217  -19.4726   -9.5467 C   0  0  0  0  0  0  0  0  0  0  0  0
   28.3715  -20.1182   -8.6343 C   0  0  0  0  0  0  0  0  0  0  0  0
   29.2279  -21.1408   -8.9755 C   0  0  0  0  0  0  0  0  0  0  0  0
   29.9436  -21.4768   -7.8896 N   0  0  0  0  0  0  0  0  0  0  0  0
   29.5668  -20.6971   -6.8671 C   0  0  0  0  0  0  0  0  0  0  0  0
   29.9808  -20.6315   -5.5505 C   0  0  0  0  0  0  0  0  0  0  0  0
   29.4320  -19.7249   -4.6663 C   0  0  0  0  0  0  0  0  0  0  0  0
   28.4456  -18.8606   -5.1023 C   0  0  0  0  0  0  0  0  0  0  0  0
   28.0274  -18.9199   -6.4136 C   0  0  0  0  0  0  0  0  0  0  0  0
   28.5821  -19.8349   -7.3037 C   0  0  0  0  0  0  0  0  0  0  0  0
   25.6077  -21.0713   -8.9749 C   0  0  0  0  0  0  0  0  0  0  0  0
   26.0527  -22.2659   -8.4501 O   0  0  0  0  0  0  0  0  0  0  0  0
   24.5500  -20.5962   -8.4846 O   0  0  0  0  0  0  0  0  0  0  0  0
  2  3  1  0
  2  1  1  6
  4  3  1  0
  5  4  1  0
  5  6  1  0
  6  7  1  0
  8  2  1  0
  8 17  1  0
  9  8  2  0
 10 11  1  0
 11 21  2  0
 12 11  1  0
 12 13  2  0
 13 14  1  0
 14 20  2  0
 14 15  1  0
 16 15  1  1
 16 17  1  0
 18 16  1  0
 19 18  2  0
 21 20  1  0
 22 18  1  0
 23 34  1  0
 23 22  1  0
 23 24  1  1
 25 24  1  0
 26 25  2  0
 27 26  1  0
 28 27  1  0
 28 33  2  0
 29 28  1  0
 30 29  2  0
 30 31  1  0
 31 32  2  0
 32 33  1  0
 33 25  1  0
 34 35  1  0
 36 34  2  0
M  END
$$$$
