KYW.pdb
     RDKit          3D

 36 38  0  0  1  0  0  0  0  0999 V2000
   33.6959  -33.5025  -16.9632 N   0  0  0  0  0  0  0  0  0  0  0  0
   32.9806  -32.3442  -17.3611 C   0  0  1  0  0  0  0  0  0  0  0  0
   33.4324  -31.9727  -18.7923 C   0  0  0  0  0  0  0  0  0  0  0  0
   34.5517  -31.0222  -18.6411 C   0  0  0  0  0  0  0  0  0  0  0  0
   34.3799  -29.6303  -19.1103 C   0  0  0  0  0  0  0  0  0  0  0  0
   35.1212  -29.3625  -20.3816 C   0  0  0  0  0  0  0  0  0  0  0  0
   34.9768  -28.0066  -20.7743 N   0  0  0  0  0  0  0  0  0  0  0  0
   31.5071  -32.4913  -17.4054 C   0  0  0  0  0  0  0  0  0  0  0  0
   30.9459  -32.9779  -18.4493 O   0  0  0  0  0  0  0  0  0  0  0  0
   22.8795  -32.7039  -15.3335 O   0  0  0  0  0  0  0  0  0  0  0  0
   24.2608  -32.6223  -15.2842 C   0  0  0  0  0  0  0  0  0  0  0  0
   25.0240  -33.7538  -15.2590 C   0  0  0  0  0  0  0  0  0  0  0  0
   26.3987  -33.6784  -15.2099 C   0  0  0  0  0  0  0  0  0  0  0  0
   27.0461  -32.4786  -15.1850 C   0  0  0  0  0  0  0  0  0  0  0  0
   28.4935  -32.3180  -15.1386 C   0  0  0  0  0  0  0  0  0  0  0  0
   29.1967  -32.3074  -16.4638 C   0  0  2  0  0  0  0  0  0  0  0  0
   30.6271  -32.1268  -16.3535 N   0  0  0  0  0  0  0  0  0  0  0  0
   28.5978  -31.4252  -17.4862 C   0  0  0  0  0  0  0  0  0  0  0  0
   28.9122  -30.2127  -17.5023 O   0  0  0  0  0  0  0  0  0  0  0  0
   26.2362  -31.3378  -15.2117 C   0  0  0  0  0  0  0  0  0  0  0  0
   24.8687  -31.4006  -15.2604 C   0  0  0  0  0  0  0  0  0  0  0  0
   27.6663  -31.9076  -18.4581 N   0  0  0  0  0  0  0  0  0  0  0  0
   27.0766  -31.0161  -19.4235 C   0  0  1  0  0  0  0  0  0  0  0  0
   27.3753  -31.4966  -20.8233 C   0  0  0  0  0  0  0  0  0  0  0  0
   26.8943  -30.5728  -21.8561 C   0  0  0  0  0  0  0  0  0  0  0  0
   27.4938  -29.3804  -22.1942 C   0  0  0  0  0  0  0  0  0  0  0  0
   26.7776  -28.8070  -23.1753 N   0  0  0  0  0  0  0  0  0  0  0  0
   25.7394  -29.6008  -23.4711 C   0  0  0  0  0  0  0  0  0  0  0  0
   24.7138  -29.4811  -24.3893 C   0  0  0  0  0  0  0  0  0  0  0  0
   23.7387  -30.4503  -24.5117 C   0  0  0  0  0  0  0  0  0  0  0  0
   23.7843  -31.5678  -23.6999 C   0  0  0  0  0  0  0  0  0  0  0  0
   24.8036  -31.6943  -22.7818 C   0  0  0  0  0  0  0  0  0  0  0  0
   25.7859  -30.7159  -22.6600 C   0  0  0  0  0  0  0  0  0  0  0  0
   25.6490  -30.8309  -19.1649 C   0  0  0  0  0  0  0  0  0  0  0  0
   25.0839  -29.5786  -19.2769 O   0  0  0  0  0  0  0  0  0  0  0  0
   24.8801  -31.7722  -18.8372 O   0  0  0  0  0  0  0  0  0  0  0  0
  2  3  1  0
  2  1  1  6
  4  3  1  0
  5  4  1  0
  5  6  1  0
  6  7  1  0
  8  2  1  0
  8 17  1  0
  9  8  2  0
 10 11  1  0
 11 21  2  0
 12 11  1  0
 12 13  2  0
 13 14  1  0
 14 20  2  0
 14 15  1  0
 16 15  1  1
 16 17  1  0
 18 16  1  0
 19 18  2  0
 21 20  1  0
 22 18  1  0
 23 34  1  0
 23 22  1  0
 23 24  1  6
 25 24  1  0
 26 25  2  0
 27 26  1  0
 28 27  1  0
 28 33  2  0
 29 28  1  0
 30 29  2  0
 30 31  1  0
 31 32  2  0
 32 33  1  0
 33 25  1  0
 34 35  1  0
 36 34  2  0
M  END
$$$$
