KYW.pdb
     RDKit          3D

 36 38  0  0  1  0  0  0  0  0999 V2000
   25.3092  -21.3011  -20.6496 N   0  0  0  0  0  0  0  0  0  0  0  0
   24.5359  -22.4821  -20.7876 C   0  0  1  0  0  0  0  0  0  0  0  0
   25.4898  -23.6337  -21.1803 C   0  0  0  0  0  0  0  0  0  0  0  0
   26.0975  -23.2488  -22.4693 C   0  0  0  0  0  0  0  0  0  0  0  0
   27.4764  -22.7146  -22.4818 C   0  0  0  0  0  0  0  0  0  0  0  0
   27.9006  -22.2653  -23.8440 C   0  0  0  0  0  0  0  0  0  0  0  0
   29.2281  -21.7646  -23.8200 N   0  0  0  0  0  0  0  0  0  0  0  0
   23.8213  -22.9200  -19.5660 C   0  0  0  0  0  0  0  0  0  0  0  0
   23.0792  -23.9639  -19.6009 O   0  0  0  0  0  0  0  0  0  0  0  0
   27.9978  -26.9260  -16.7661 O   0  0  0  0  0  0  0  0  0  0  0  0
   27.0242  -25.9602  -16.5751 C   0  0  0  0  0  0  0  0  0  0  0  0
   27.2796  -24.6494  -16.8582 C   0  0  0  0  0  0  0  0  0  0  0  0
   26.3146  -23.6845  -16.6701 C   0  0  0  0  0  0  0  0  0  0  0  0
   25.0750  -23.9990  -16.1971 C   0  0  0  0  0  0  0  0  0  0  0  0
   24.0025  -23.0375  -15.9772 C   0  0  0  0  0  0  0  0  0  0  0  0
   23.1405  -22.7308  -17.1662 C   0  0  2  0  0  0  0  0  0  0  0  0
   23.8878  -22.2605  -18.3113 N   0  0  0  0  0  0  0  0  0  0  0  0
   21.9581  -21.8910  -16.8854 C   0  0  0  0  0  0  0  0  0  0  0  0
   22.1063  -20.6527  -16.7672 O   0  0  0  0  0  0  0  0  0  0  0  0
   24.8443  -25.3504  -15.9163 C   0  0  0  0  0  0  0  0  0  0  0  0
   25.7961  -26.3183  -16.0993 C   0  0  0  0  0  0  0  0  0  0  0  0
   20.6474  -22.4441  -16.7397 N   0  0  0  0  0  0  0  0  0  0  0  0
   19.5086  -21.5951  -16.5021 C   0  0  1  0  0  0  0  0  0  0  0  0
   18.4330  -21.8718  -17.5249 C   0  0  0  0  0  0  0  0  0  0  0  0
   17.2544  -21.0152  -17.3563 C   0  0  0  0  0  0  0  0  0  0  0  0
   17.1982  -19.8920  -16.5619 C   0  0  0  0  0  0  0  0  0  0  0  0
   15.9655  -19.3665  -16.6544 N   0  0  0  0  0  0  0  0  0  0  0  0
   15.2358  -20.1233  -17.4851 C   0  0  0  0  0  0  0  0  0  0  0  0
   13.9272  -20.0265  -17.9180 C   0  0  0  0  0  0  0  0  0  0  0  0
   13.3875  -20.9466  -18.7940 C   0  0  0  0  0  0  0  0  0  0  0  0
   14.1692  -21.9904  -19.2516 C   0  0  0  0  0  0  0  0  0  0  0  0
   15.4749  -22.0938  -18.8245 C   0  0  0  0  0  0  0  0  0  0  0  0
   16.0172  -21.1649  -17.9412 C   0  0  0  0  0  0  0  0  0  0  0  0
   19.0421  -21.7154  -15.1211 C   0  0  0  0  0  0  0  0  0  0  0  0
   18.7913  -22.9594  -14.5830 O   0  0  0  0  0  0  0  0  0  0  0  0
   18.8501  -20.7238  -14.3696 O   0  0  0  0  0  0  0  0  0  0  0  0
  2  3  1  0
  2  1  1  1
  4  3  1  0
  5  4  1  0
  5  6  1  0
  6  7  1  0
  8  2  1  0
  8 17  1  0
  9  8  2  0
 10 11  1  0
 11 21  2  0
 12 11  1  0
 12 13  2  0
 13 14  1  0
 14 20  2  0
 14 15  1  0
 16 15  1  1
 16 17  1  0
 18 16  1  0
 19 18  2  0
 21 20  1  0
 22 18  1  0
 23 34  1  0
 23 22  1  0
 23 24  1  6
 25 24  1  0
 26 25  2  0
 27 26  1  0
 28 27  1  0
 28 33  2  0
 29 28  1  0
 30 29  2  0
 30 31  1  0
 31 32  2  0
 32 33  1  0
 33 25  1  0
 34 35  1  0
 36 34  2  0
M  END
$$$$
