KYW.pdb
     RDKit          3D

 36 38  0  0  1  0  0  0  0  0999 V2000
   19.3689  -26.4640  -17.8126 N   0  0  0  0  0  0  0  0  0  0  0  0
   19.5618  -25.5155  -16.7759 C   0  0  1  0  0  0  0  0  0  0  0  0
   18.8561  -24.2041  -17.1917 C   0  0  0  0  0  0  0  0  0  0  0  0
   19.7555  -23.5348  -18.1521 C   0  0  0  0  0  0  0  0  0  0  0  0
   19.4193  -23.5660  -19.5919 C   0  0  0  0  0  0  0  0  0  0  0  0
   20.4534  -22.8870  -20.4328 C   0  0  0  0  0  0  0  0  0  0  0  0
   20.0892  -22.9178  -21.8039 N   0  0  0  0  0  0  0  0  0  0  0  0
   19.0078  -25.8958  -15.4556 C   0  0  0  0  0  0  0  0  0  0  0  0
   19.0769  -25.0747  -14.4744 O   0  0  0  0  0  0  0  0  0  0  0  0
   13.6706  -22.5494  -15.0574 O   0  0  0  0  0  0  0  0  0  0  0  0
   14.3070  -23.7468  -14.7771 C   0  0  0  0  0  0  0  0  0  0  0  0
   14.6362  -24.0758  -13.4938 C   0  0  0  0  0  0  0  0  0  0  0  0
   15.2694  -25.2657  -13.2093 C   0  0  0  0  0  0  0  0  0  0  0  0
   15.5895  -26.1552  -14.1918 C   0  0  0  0  0  0  0  0  0  0  0  0
   16.2529  -27.4334  -13.9696 C   0  0  0  0  0  0  0  0  0  0  0  0
   17.7507  -27.3924  -13.8941 C   0  0  2  0  0  0  0  0  0  0  0  0
   18.3832  -27.1374  -15.1691 N   0  0  0  0  0  0  0  0  0  0  0  0
   18.3750  -28.5217  -13.1749 C   0  0  0  0  0  0  0  0  0  0  0  0
   18.3222  -29.6672  -13.6793 O   0  0  0  0  0  0  0  0  0  0  0  0
   15.2391  -25.7892  -15.4962 C   0  0  0  0  0  0  0  0  0  0  0  0
   14.6095  -24.6089  -15.7910 C   0  0  0  0  0  0  0  0  0  0  0  0
   19.0357  -28.3532  -11.9180 N   0  0  0  0  0  0  0  0  0  0  0  0
   19.6355  -29.4743  -11.2415 C   0  0  1  0  0  0  0  0  0  0  0  0
   20.5877  -28.9880  -10.1755 C   0  0  0  0  0  0  0  0  0  0  0  0
   19.9161  -28.2237   -9.1191 C   0  0  0  0  0  0  0  0  0  0  0  0
   19.4105  -28.7566   -7.9546 C   0  0  0  0  0  0  0  0  0  0  0  0
   18.8698  -27.7624   -7.2311 N   0  0  0  0  0  0  0  0  0  0  0  0
   19.0170  -26.6120   -7.9021 C   0  0  0  0  0  0  0  0  0  0  0  0
   18.6446  -25.3141   -7.6087 C   0  0  0  0  0  0  0  0  0  0  0  0
   18.9109  -24.2739   -8.4760 C   0  0  0  0  0  0  0  0  0  0  0  0
   19.5646  -24.5306   -9.6662 C   0  0  0  0  0  0  0  0  0  0  0  0
   19.9391  -25.8220   -9.9660 C   0  0  0  0  0  0  0  0  0  0  0  0
   19.6697  -26.8695   -9.0901 C   0  0  0  0  0  0  0  0  0  0  0  0
   18.6141  -30.3902  -10.7344 C   0  0  0  0  0  0  0  0  0  0  0  0
   18.8977  -31.7319  -10.5948 O   0  0  0  0  0  0  0  0  0  0  0  0
   17.4568  -30.0187  -10.4065 O   0  0  0  0  0  0  0  0  0  0  0  0
  2  3  1  0
  2  1  1  6
  4  3  1  0
  5  4  1  0
  5  6  1  0
  6  7  1  0
  8  2  1  0
  8 17  1  0
  9  8  2  0
 10 11  1  0
 11 21  2  0
 12 11  1  0
 12 13  2  0
 13 14  1  0
 14 20  2  0
 14 15  1  0
 16 15  1  6
 16 17  1  0
 18 16  1  0
 19 18  2  0
 21 20  1  0
 22 18  1  0
 23 34  1  0
 23 22  1  0
 23 24  1  1
 25 24  1  0
 26 25  2  0
 27 26  1  0
 28 27  1  0
 28 33  2  0
 29 28  1  0
 30 29  2  0
 30 31  1  0
 31 32  2  0
 32 33  1  0
 33 25  1  0
 34 35  1  0
 36 34  2  0
M  END
$$$$
