HEN.pdb
     RDKit          3D

 28 28  0  0  1  0  0  0  0  0999 V2000
    7.7476  -17.1710   17.4157 N   0  0  0  0  0  0  0  0  0  0  0  0
    9.0414  -16.6745   17.7696 C   0  0  1  0  0  0  0  0  0  0  0  0
    8.9787  -15.4719   18.6805 C   0  0  0  0  0  0  0  0  0  0  0  0
    8.1947  -14.4241   17.9486 C   0  0  0  0  0  0  0  0  0  0  0  0
    7.6640  -14.5431   16.6618 C   0  0  0  0  0  0  0  0  0  0  0  0
    7.0307  -13.4040   16.3491 N   0  0  0  0  0  0  0  0  0  0  0  0
    7.1412  -12.5725   17.3869 C   0  0  0  0  0  0  0  0  0  0  0  0
    7.8474  -13.1911   18.3575 N   0  0  0  0  0  0  0  0  0  0  0  0
    9.9501  -17.7302   18.2631 C   0  0  0  0  0  0  0  0  0  0  0  0
    9.4902  -18.5793   19.0645 O   0  0  0  0  0  0  0  0  0  0  0  0
   11.3338  -17.7965   17.8440 N   0  0  0  0  0  0  0  0  0  0  0  0
   12.1276  -18.8670   18.3257 C   0  0  1  0  0  0  0  0  0  0  0  0
   13.1512  -19.3551   17.3419 C   0  0  0  0  0  0  0  0  0  0  0  0
   14.3078  -18.4692   17.0808 C   0  0  0  0  0  0  0  0  0  0  0  0
   15.2805  -18.9213   16.0781 C   0  0  0  0  0  0  0  0  0  0  0  0
   15.0800  -18.7825   14.8258 O   0  0  0  0  0  0  0  0  0  0  0  0
   12.7302  -18.5936   19.6597 C   0  0  0  0  0  0  0  0  0  0  0  0
   13.0652  -17.4190   19.9309 O   0  0  0  0  0  0  0  0  0  0  0  0
   16.4677  -19.5231   16.4501 O   0  0  0  0  0  0  0  0  0  0  0  0
   14.3359  -18.8946   24.6153 N   0  0  0  0  0  0  0  0  0  0  0  0
   13.2469  -19.7717   24.3969 C   0  0  0  0  0  0  0  0  0  0  0  0
   12.7260  -20.3095   25.3995 O   0  0  0  0  0  0  0  0  0  0  0  0
   12.7218  -20.0631   23.0588 C   0  0  0  0  0  0  0  0  0  0  0  0
   13.4371  -19.3411   21.9578 C   0  0  2  0  0  0  0  0  0  0  0  0
   12.9467  -19.5923   20.6432 N   0  0  0  0  0  0  0  0  0  0  0  0
   14.9189  -19.5782   22.0642 C   0  0  0  0  0  0  0  0  0  0  0  0
   15.6611  -20.0459   21.0072 O   0  0  0  0  0  0  0  0  0  0  0  0
   15.5164  -19.3441   23.1558 O   0  0  0  0  0  0  0  0  0  0  0  0
  2  1  1  1
  2  9  1  0
  3  2  1  0
  4  3  1  0
  5  4  2  0
  6  7  1  0
  6  5  1  0
  7  8  2  0
  8  4  1  0
  9 11  1  0
 10  9  2  0
 11 12  1  0
 12 13  1  6
 13 14  1  0
 14 15  1  0
 15 16  2  0
 15 19  1  0
 17 18  2  0
 17 12  1  0
 20 21  1  0
 21 23  1  0
 21 22  2  0
 24 23  1  1
 24 25  1  0
 25 17  1  0
 26 24  1  0
 26 27  1  0
 28 26  2  0
M  END
$$$$
