HEN.pdb
     RDKit          3D

 28 28  0  0  1  0  0  0  0  0999 V2000
    9.7140  -17.4459   18.6284 N   0  0  0  0  0  0  0  0  0  0  0  0
   10.8298  -18.1862   19.1310 C   0  0  1  0  0  0  0  0  0  0  0  0
   11.8875  -18.4362   18.0828 C   0  0  0  0  0  0  0  0  0  0  0  0
   11.3780  -19.5534   17.2222 C   0  0  0  0  0  0  0  0  0  0  0  0
   10.0545  -19.9934   17.1441 C   0  0  0  0  0  0  0  0  0  0  0  0
    9.9879  -21.0082   16.2709 N   0  0  0  0  0  0  0  0  0  0  0  0
   11.2160  -21.2248   15.7961 C   0  0  0  0  0  0  0  0  0  0  0  0
   12.0597  -20.3423   16.3731 N   0  0  0  0  0  0  0  0  0  0  0  0
   11.3758  -17.6277   20.3855 C   0  0  0  0  0  0  0  0  0  0  0  0
   11.9143  -16.4949   20.3434 O   0  0  0  0  0  0  0  0  0  0  0  0
   11.3000  -18.3538   21.6351 N   0  0  0  0  0  0  0  0  0  0  0  0
   11.8711  -17.7610   22.7885 C   0  0  1  0  0  0  0  0  0  0  0  0
   11.4110  -18.3753   24.0788 C   0  0  0  0  0  0  0  0  0  0  0  0
   11.9567  -17.8001   25.3286 C   0  0  0  0  0  0  0  0  0  0  0  0
   11.5748  -18.4553   26.5860 C   0  0  0  0  0  0  0  0  0  0  0  0
   11.0005  -17.8237   27.5343 O   0  0  0  0  0  0  0  0  0  0  0  0
   13.3555  -17.6637   22.7217 C   0  0  0  0  0  0  0  0  0  0  0  0
   13.9923  -18.6228   22.2317 O   0  0  0  0  0  0  0  0  0  0  0  0
   11.8229  -19.7978   26.8000 O   0  0  0  0  0  0  0  0  0  0  0  0
   18.1468  -15.0771   21.4623 N   0  0  0  0  0  0  0  0  0  0  0  0
   17.4396  -14.8880   22.6735 C   0  0  0  0  0  0  0  0  0  0  0  0
   18.1054  -14.6097   23.6958 O   0  0  0  0  0  0  0  0  0  0  0  0
   15.9805  -15.0059   22.7644 C   0  0  0  0  0  0  0  0  0  0  0  0
   15.5033  -16.3945   23.0624 C   0  0  2  0  0  0  0  0  0  0  0  0
   14.0907  -16.5422   23.1834 N   0  0  0  0  0  0  0  0  0  0  0  0
   16.2344  -16.9452   24.2564 C   0  0  0  0  0  0  0  0  0  0  0  0
   15.5748  -17.3711   25.3836 O   0  0  0  0  0  0  0  0  0  0  0  0
   17.4979  -17.0256   24.2380 O   0  0  0  0  0  0  0  0  0  0  0  0
  2  1  1  6
  2  9  1  0
  3  2  1  0
  4  3  1  0
  5  4  2  0
  6  7  1  0
  6  5  1  0
  7  8  2  0
  8  4  1  0
  9 11  1  0
 10  9  2  0
 11 12  1  0
 12 13  1  1
 13 14  1  0
 14 15  1  0
 15 16  2  0
 15 19  1  0
 17 18  2  0
 17 12  1  0
 20 21  1  0
 21 23  1  0
 21 22  2  0
 24 23  1  1
 24 25  1  0
 25 17  1  0
 26 24  1  0
 26 27  1  0
 28 26  2  0
M  END
$$$$
