HEN.pdb
     RDKit          3D

 28 28  0  0  1  0  0  0  0  0999 V2000
    7.6500  -17.2701   18.2771 N   0  0  0  0  0  0  0  0  0  0  0  0
    8.8279  -16.5382   18.6275 C   0  0  1  0  0  0  0  0  0  0  0  0
    8.5759  -15.0565   18.7718 C   0  0  0  0  0  0  0  0  0  0  0  0
    8.2160  -14.5511   17.4068 C   0  0  0  0  0  0  0  0  0  0  0  0
    7.8403  -13.2443   17.0863 C   0  0  0  0  0  0  0  0  0  0  0  0
    7.5955  -13.1762   15.7702 N   0  0  0  0  0  0  0  0  0  0  0  0
    7.8018  -14.3871   15.2492 C   0  0  0  0  0  0  0  0  0  0  0  0
    8.1783  -15.2216   16.2418 N   0  0  0  0  0  0  0  0  0  0  0  0
    9.5481  -17.1199   19.7793 C   0  0  0  0  0  0  0  0  0  0  0  0
    8.8708  -17.5533   20.7427 O   0  0  0  0  0  0  0  0  0  0  0  0
   10.9932  -17.1946   19.8109 N   0  0  0  0  0  0  0  0  0  0  0  0
   11.6073  -17.7874   20.9419 C   0  0  1  0  0  0  0  0  0  0  0  0
   12.9902  -18.3091   20.6789 C   0  0  0  0  0  0  0  0  0  0  0  0
   13.9951  -17.3351   20.1970 C   0  0  0  0  0  0  0  0  0  0  0  0
   15.3209  -17.8621   19.8496 C   0  0  0  0  0  0  0  0  0  0  0  0
   15.5394  -18.4871   18.7589 O   0  0  0  0  0  0  0  0  0  0  0  0
   11.5651  -16.9203   22.1518 C   0  0  0  0  0  0  0  0  0  0  0  0
   12.4092  -16.0025   22.2546 O   0  0  0  0  0  0  0  0  0  0  0  0
   16.4010  -17.7032   20.6969 O   0  0  0  0  0  0  0  0  0  0  0  0
    9.3478  -14.7701   22.4567 N   0  0  0  0  0  0  0  0  0  0  0  0
    8.7440  -14.9156   23.7283 C   0  0  0  0  0  0  0  0  0  0  0  0
    7.6446  -14.3483   23.9159 O   0  0  0  0  0  0  0  0  0  0  0  0
    9.3554  -15.6948   24.8100 C   0  0  0  0  0  0  0  0  0  0  0  0
   10.6449  -16.3543   24.4262 C   0  0  2  0  0  0  0  0  0  0  0  0
   10.6196  -17.0763   23.1973 N   0  0  0  0  0  0  0  0  0  0  0  0
   11.1529  -17.1945   25.5660 C   0  0  0  0  0  0  0  0  0  0  0  0
   12.2657  -17.9909   25.4465 O   0  0  0  0  0  0  0  0  0  0  0  0
   10.5471  -17.1785   26.6778 O   0  0  0  0  0  0  0  0  0  0  0  0
  2  1  1  1
  2  9  1  0
  3  2  1  0
  4  3  1  0
  5  4  2  0
  6  7  1  0
  6  5  1  0
  7  8  2  0
  8  4  1  0
  9 11  1  0
 10  9  2  0
 11 12  1  0
 12 13  1  6
 13 14  1  0
 14 15  1  0
 15 16  2  0
 15 19  1  0
 17 18  2  0
 17 12  1  0
 20 21  1  0
 21 23  1  0
 21 22  2  0
 24 23  1  1
 24 25  1  0
 25 17  1  0
 26 24  1  0
 26 27  1  0
 28 26  2  0
M  END
$$$$
