HEN.pdb
     RDKit          3D

 28 28  0  0  1  0  0  0  0  0999 V2000
    5.9634  -14.2253   21.0065 N   0  0  0  0  0  0  0  0  0  0  0  0
    7.2076  -14.8895   21.2445 C   0  0  1  0  0  0  0  0  0  0  0  0
    8.4019  -14.0603   20.8371 C   0  0  0  0  0  0  0  0  0  0  0  0
    8.3768  -13.9849   19.3398 C   0  0  0  0  0  0  0  0  0  0  0  0
    7.4592  -14.6201   18.4996 C   0  0  0  0  0  0  0  0  0  0  0  0
    7.7568  -14.3176   17.2282 N   0  0  0  0  0  0  0  0  0  0  0  0
    8.8247  -13.5176   17.2339 C   0  0  0  0  0  0  0  0  0  0  0  0
    9.2012  -13.3155   18.5149 N   0  0  0  0  0  0  0  0  0  0  0  0
    7.3188  -15.4349   22.6134 C   0  0  0  0  0  0  0  0  0  0  0  0
    6.8940  -14.7356   23.5649 O   0  0  0  0  0  0  0  0  0  0  0  0
    7.8988  -16.7365   22.8663 N   0  0  0  0  0  0  0  0  0  0  0  0
    7.9961  -17.1753   24.2101 C   0  0  1  0  0  0  0  0  0  0  0  0
    7.6857  -18.6321   24.3978 C   0  0  0  0  0  0  0  0  0  0  0  0
    6.7591  -18.9853   25.4966 C   0  0  0  0  0  0  0  0  0  0  0  0
    7.1050  -20.1587   26.3087 C   0  0  0  0  0  0  0  0  0  0  0  0
    6.4829  -20.4480   27.3844 O   0  0  0  0  0  0  0  0  0  0  0  0
    9.2831  -16.7973   24.8568 C   0  0  0  0  0  0  0  0  0  0  0  0
   10.3399  -16.9326   24.2008 O   0  0  0  0  0  0  0  0  0  0  0  0
    8.1295  -21.0098   25.9403 O   0  0  0  0  0  0  0  0  0  0  0  0
    8.8676  -15.4939   29.0283 N   0  0  0  0  0  0  0  0  0  0  0  0
    9.6876  -14.4305   28.5816 C   0  0  0  0  0  0  0  0  0  0  0  0
    9.6079  -13.3413   29.1925 O   0  0  0  0  0  0  0  0  0  0  0  0
   10.6087  -14.5640   27.4481 C   0  0  0  0  0  0  0  0  0  0  0  0
   10.5989  -15.9232   26.8176 C   0  0  2  0  0  0  0  0  0  0  0  0
    9.3792  -16.2911   26.1782 N   0  0  0  0  0  0  0  0  0  0  0  0
   11.0500  -16.9563   27.8138 C   0  0  0  0  0  0  0  0  0  0  0  0
   10.3004  -18.0714   28.0992 O   0  0  0  0  0  0  0  0  0  0  0  0
   12.1534  -16.8084   28.4170 O   0  0  0  0  0  0  0  0  0  0  0  0
  2  1  1  1
  2  9  1  0
  3  2  1  0
  4  3  1  0
  5  4  2  0
  6  7  1  0
  6  5  1  0
  7  8  2  0
  8  4  1  0
  9 11  1  0
 10  9  2  0
 11 12  1  0
 12 13  1  6
 13 14  1  0
 14 15  1  0
 15 16  2  0
 15 19  1  0
 17 18  2  0
 17 12  1  0
 20 21  1  0
 21 23  1  0
 21 22  2  0
 24 23  1  1
 24 25  1  0
 25 17  1  0
 26 24  1  0
 26 27  1  0
 28 26  2  0
M  END
$$$$
