HEN.pdb
     RDKit          3D

 28 28  0  0  1  0  0  0  0  0999 V2000
   10.3311  -15.6812   19.7749 N   0  0  0  0  0  0  0  0  0  0  0  0
    9.2859  -16.1941   20.6058 C   0  0  1  0  0  0  0  0  0  0  0  0
    7.9299  -16.1376   19.9440 C   0  0  0  0  0  0  0  0  0  0  0  0
    7.7193  -14.7131   19.5264 C   0  0  0  0  0  0  0  0  0  0  0  0
    8.6487  -13.6765   19.6406 C   0  0  0  0  0  0  0  0  0  0  0  0
    8.1002  -12.5505   19.1634 N   0  0  0  0  0  0  0  0  0  0  0  0
    6.8630  -12.8361   18.7533 C   0  0  0  0  0  0  0  0  0  0  0  0
    6.6315  -14.1482   18.9734 N   0  0  0  0  0  0  0  0  0  0  0  0
    9.5995  -17.5211   21.1755 C   0  0  0  0  0  0  0  0  0  0  0  0
    8.7148  -18.0976   21.8535 O   0  0  0  0  0  0  0  0  0  0  0  0
   10.8855  -18.1514   20.9667 N   0  0  0  0  0  0  0  0  0  0  0  0
   11.1265  -19.4010   21.5896 C   0  0  1  0  0  0  0  0  0  0  0  0
   11.8760  -20.3753   20.7277 C   0  0  0  0  0  0  0  0  0  0  0  0
   12.0479  -21.7466   21.2574 C   0  0  0  0  0  0  0  0  0  0  0  0
   12.8432  -22.6787   20.4482 C   0  0  0  0  0  0  0  0  0  0  0  0
   13.9938  -23.0882   20.8175 O   0  0  0  0  0  0  0  0  0  0  0  0
   11.7410  -19.2723   22.9399 C   0  0  0  0  0  0  0  0  0  0  0  0
   12.5928  -18.3740   23.1219 O   0  0  0  0  0  0  0  0  0  0  0  0
   12.3762  -23.1582   19.2392 O   0  0  0  0  0  0  0  0  0  0  0  0
   12.9289  -20.5574   27.9592 N   0  0  0  0  0  0  0  0  0  0  0  0
   11.5831  -20.1574   27.7815 C   0  0  0  0  0  0  0  0  0  0  0  0
   10.8725  -20.0434   28.8051 O   0  0  0  0  0  0  0  0  0  0  0  0
   11.0084  -19.8784   26.4612 C   0  0  0  0  0  0  0  0  0  0  0  0
   11.9886  -20.0077   25.3353 C   0  0  2  0  0  0  0  0  0  0  0  0
   11.4145  -20.1127   24.0348 N   0  0  0  0  0  0  0  0  0  0  0  0
   12.9548  -21.1253   25.6195 C   0  0  0  0  0  0  0  0  0  0  0  0
   14.0334  -20.9630   26.4544 O   0  0  0  0  0  0  0  0  0  0  0  0
   12.7827  -22.2578   25.0799 O   0  0  0  0  0  0  0  0  0  0  0  0
  2  1  1  6
  2  9  1  0
  3  2  1  0
  4  3  1  0
  5  4  2  0
  6  7  1  0
  6  5  1  0
  7  8  2  0
  8  4  1  0
  9 11  1  0
 10  9  2  0
 11 12  1  0
 12 13  1  6
 13 14  1  0
 14 15  1  0
 15 16  2  0
 15 19  1  0
 17 18  2  0
 17 12  1  0
 20 21  1  0
 21 23  1  0
 21 22  2  0
 24 23  1  1
 24 25  1  0
 25 17  1  0
 26 24  1  0
 26 27  1  0
 28 26  2  0
M  END
$$$$
