HEN.pdb
     RDKit          3D

 28 28  0  0  1  0  0  0  0  0999 V2000
    8.9359  -16.5760   19.5483 N   0  0  0  0  0  0  0  0  0  0  0  0
    8.8959  -15.6401   20.6292 C   0  0  1  0  0  0  0  0  0  0  0  0
    7.6689  -14.7606   20.5978 C   0  0  0  0  0  0  0  0  0  0  0  0
    7.6459  -14.1105   19.2468 C   0  0  0  0  0  0  0  0  0  0  0  0
    8.1201  -12.8326   18.9409 C   0  0  0  0  0  0  0  0  0  0  0  0
    7.9284  -12.6024   17.6345 N   0  0  0  0  0  0  0  0  0  0  0  0
    7.3526  -13.6836   17.1054 C   0  0  0  0  0  0  0  0  0  0  0  0
    7.1810  -14.5989   18.0834 N   0  0  0  0  0  0  0  0  0  0  0  0
    9.1263  -16.2688   21.9466 C   0  0  0  0  0  0  0  0  0  0  0  0
    8.1659  -16.3220   22.7525 O   0  0  0  0  0  0  0  0  0  0  0  0
   10.4170  -16.8121   22.3122 N   0  0  0  0  0  0  0  0  0  0  0  0
   10.5325  -17.4813   23.5558 C   0  0  1  0  0  0  0  0  0  0  0  0
   11.4804  -18.6453   23.5338 C   0  0  0  0  0  0  0  0  0  0  0  0
   11.6882  -19.3665   24.8095 C   0  0  0  0  0  0  0  0  0  0  0  0
   12.6728  -20.4558   24.8065 C   0  0  0  0  0  0  0  0  0  0  0  0
   12.3377  -21.6743   24.6305 O   0  0  0  0  0  0  0  0  0  0  0  0
   10.8154  -16.5603   24.6912 C   0  0  0  0  0  0  0  0  0  0  0  0
   11.7279  -15.7148   24.5572 O   0  0  0  0  0  0  0  0  0  0  0  0
   14.0189  -20.2071   24.9961 O   0  0  0  0  0  0  0  0  0  0  0  0
   10.6500  -13.8589   29.1532 N   0  0  0  0  0  0  0  0  0  0  0  0
    9.4907  -13.7691   28.3465 C   0  0  0  0  0  0  0  0  0  0  0  0
    8.6644  -12.8693   28.6177 O   0  0  0  0  0  0  0  0  0  0  0  0
    9.2342  -14.6798   27.2258 C   0  0  0  0  0  0  0  0  0  0  0  0
   10.3242  -15.6825   26.9995 C   0  0  2  0  0  0  0  0  0  0  0  0
   10.1072  -16.5874   25.9197 N   0  0  0  0  0  0  0  0  0  0  0  0
   10.6396  -16.3992   28.2841 C   0  0  0  0  0  0  0  0  0  0  0  0
   11.1808  -15.7512   29.3676 O   0  0  0  0  0  0  0  0  0  0  0  0
   10.4047  -17.6392   28.3863 O   0  0  0  0  0  0  0  0  0  0  0  0
  2  1  1  6
  2  9  1  0
  3  2  1  0
  4  3  1  0
  5  4  2  0
  6  7  1  0
  6  5  1  0
  7  8  2  0
  8  4  1  0
  9 11  1  0
 10  9  2  0
 11 12  1  0
 12 13  1  6
 13 14  1  0
 14 15  1  0
 15 16  2  0
 15 19  1  0
 17 18  2  0
 17 12  1  0
 20 21  1  0
 21 23  1  0
 21 22  2  0
 24 23  1  1
 24 25  1  0
 25 17  1  0
 26 24  1  0
 26 27  1  0
 28 26  2  0
M  END
$$$$
