HEN.pdb
     RDKit          3D

 28 28  0  0  1  0  0  0  0  0999 V2000
    9.8552  -15.6126   17.7444 N   0  0  0  0  0  0  0  0  0  0  0  0
   10.6582  -14.6927   18.4893 C   0  0  1  0  0  0  0  0  0  0  0  0
    9.9665  -14.1827   19.7307 C   0  0  0  0  0  0  0  0  0  0  0  0
    8.6787  -13.5635   19.2764 C   0  0  0  0  0  0  0  0  0  0  0  0
    8.2457  -13.4431   17.9537 C   0  0  0  0  0  0  0  0  0  0  0  0
    7.0504  -12.8368   17.9444 N   0  0  0  0  0  0  0  0  0  0  0  0
    6.7133  -12.5705   19.2078 C   0  0  0  0  0  0  0  0  0  0  0  0
    7.7010  -13.0113   20.0162 N   0  0  0  0  0  0  0  0  0  0  0  0
   12.0226  -15.1969   18.7501 C   0  0  0  0  0  0  0  0  0  0  0  0
   12.1666  -16.4223   18.9788 O   0  0  0  0  0  0  0  0  0  0  0  0
   13.1705  -14.3153   18.7459 N   0  0  0  0  0  0  0  0  0  0  0  0
   14.4533  -14.8874   18.9329 C   0  0  1  0  0  0  0  0  0  0  0  0
   15.4981  -14.3566   17.9945 C   0  0  0  0  0  0  0  0  0  0  0  0
   16.8694  -14.8935   18.1431 C   0  0  0  0  0  0  0  0  0  0  0  0
   17.8699  -14.4455   17.1662 C   0  0  0  0  0  0  0  0  0  0  0  0
   18.1971  -15.1525   16.1557 O   0  0  0  0  0  0  0  0  0  0  0  0
   14.9111  -14.8458   20.3493 C   0  0  0  0  0  0  0  0  0  0  0  0
   15.0966  -13.7286   20.8812 O   0  0  0  0  0  0  0  0  0  0  0  0
   18.5076  -13.2267   17.2993 O   0  0  0  0  0  0  0  0  0  0  0  0
   12.9174  -18.1793   22.7550 N   0  0  0  0  0  0  0  0  0  0  0  0
   13.6749  -17.1990   23.4391 C   0  0  0  0  0  0  0  0  0  0  0  0
   13.0534  -16.3801   24.1526 O   0  0  0  0  0  0  0  0  0  0  0  0
   15.1358  -17.1159   23.3391 C   0  0  0  0  0  0  0  0  0  0  0  0
   15.6199  -15.9897   22.4775 C   0  0  2  0  0  0  0  0  0  0  0  0
   15.1496  -16.0044   21.1319 N   0  0  0  0  0  0  0  0  0  0  0  0
   17.1193  -15.8921   22.5520 C   0  0  0  0  0  0  0  0  0  0  0  0
   17.7808  -15.7109   23.7422 O   0  0  0  0  0  0  0  0  0  0  0  0
   17.8084  -15.9777   21.4932 O   0  0  0  0  0  0  0  0  0  0  0  0
  2  1  1  1
  2  9  1  0
  3  2  1  0
  4  3  1  0
  5  4  2  0
  6  7  1  0
  6  5  1  0
  7  8  2  0
  8  4  1  0
  9 11  1  0
 10  9  2  0
 11 12  1  0
 12 13  1  6
 13 14  1  0
 14 15  1  0
 15 16  2  0
 15 19  1  0
 17 18  2  0
 17 12  1  0
 20 21  1  0
 21 23  1  0
 21 22  2  0
 24 23  1  6
 24 25  1  0
 25 17  1  0
 26 24  1  0
 26 27  1  0
 28 26  2  0
M  END
$$$$
