YSG.pdb
     RDKit          3D

 23 23  0  0  1  0  0  0  0  0999 V2000
    7.7787  -13.6204   15.6546 O   0  0  0  0  0  0  0  0  0  0  0  0
    7.7458  -13.9493   17.0170 C   0  0  0  0  0  0  0  0  0  0  0  0
    7.5535  -15.2524   17.4238 C   0  0  0  0  0  0  0  0  0  0  0  0
    7.5288  -15.5262   18.7715 C   0  0  0  0  0  0  0  0  0  0  0  0
    7.6884  -14.5518   19.7456 C   0  0  0  0  0  0  0  0  0  0  0  0
    7.6519  -14.9111   21.1875 C   0  0  0  0  0  0  0  0  0  0  0  0
    8.9774  -14.6145   21.8642 C   0  0  2  0  0  0  0  0  0  0  0  0
   10.0562  -15.3754   21.3155 N   0  0  0  0  0  0  0  0  0  0  0  0
    8.8220  -14.9554   23.2941 C   0  0  0  0  0  0  0  0  0  0  0  0
    9.4650  -15.8927   23.8142 O   0  0  0  0  0  0  0  0  0  0  0  0
    7.8808  -13.2482   19.3380 C   0  0  0  0  0  0  0  0  0  0  0  0
    7.9067  -12.9655   17.9773 C   0  0  0  0  0  0  0  0  0  0  0  0
    5.6247  -13.6438   25.9781 O   0  0  0  0  0  0  0  0  0  0  0  0
    6.9622  -13.4857   26.2469 C   0  0  0  0  0  0  0  0  0  0  0  0
    7.8570  -14.4485   25.5249 C   0  0  2  0  0  0  0  0  0  0  0  0
    7.9463  -14.2393   24.1212 N   0  0  0  0  0  0  0  0  0  0  0  0
    7.3793  -15.8597   25.7460 C   0  0  0  0  0  0  0  0  0  0  0  0
    6.3978  -16.3344   25.1168 O   0  0  0  0  0  0  0  0  0  0  0  0
    8.0172  -16.7263   26.6797 N   0  0  0  0  0  0  0  0  0  0  0  0
    7.5537  -18.0669   26.9509 C   0  0  0  0  0  0  0  0  0  0  0  0
    8.4341  -18.7685   27.9235 C   0  0  0  0  0  0  0  0  0  0  0  0
    8.1798  -20.0552   28.3088 O   0  0  0  0  0  0  0  0  0  0  0  0
    9.4247  -18.1577   28.3915 O   0  0  0  0  0  0  0  0  0  0  0  0
  1  2  1  0
  2 12  2  0
  2  3  1  0
  3  4  2  0
  4  5  1  0
  5  6  1  0
  6  7  1  0
  7  9  1  0
  7  8  1  6
  9 16  1  0
 10  9  2  0
 11  5  2  0
 12 11  1  0
 15 14  1  6
 14 13  1  0
 15 17  1  0
 16 15  1  0
 17 18  2  0
 17 19  1  0
 19 20  1  0
 20 21  1  0
 21 22  1  0
 23 21  2  0
M  END
$$$$
