YSG.pdb
     RDKit          3D

 23 23  0  0  1  0  0  0  0  0999 V2000
   10.1409  -14.0799   30.8206 O   0  0  0  0  0  0  0  0  0  0  0  0
    9.9180  -14.5706   29.5264 C   0  0  0  0  0  0  0  0  0  0  0  0
   10.3419  -15.8324   29.1675 C   0  0  0  0  0  0  0  0  0  0  0  0
   10.1004  -16.2701   27.8862 C   0  0  0  0  0  0  0  0  0  0  0  0
    9.4487  -15.5014   26.9332 C   0  0  0  0  0  0  0  0  0  0  0  0
    9.2173  -16.0311   25.5637 C   0  0  0  0  0  0  0  0  0  0  0  0
    7.7523  -16.3560   25.3376 C   0  0  2  0  0  0  0  0  0  0  0  0
    7.2917  -17.4223   26.1709 N   0  0  0  0  0  0  0  0  0  0  0  0
    7.6080  -16.7513   23.9206 C   0  0  0  0  0  0  0  0  0  0  0  0
    7.6056  -17.9529   23.5762 O   0  0  0  0  0  0  0  0  0  0  0  0
    9.0248  -14.2390   27.2928 C   0  0  0  0  0  0  0  0  0  0  0  0
    9.2661  -13.7913   28.5864 C   0  0  0  0  0  0  0  0  0  0  0  0
    6.4150  -14.0802   21.0302 O   0  0  0  0  0  0  0  0  0  0  0  0
    6.7790  -15.3299   20.5922 C   0  0  0  0  0  0  0  0  0  0  0  0
    7.6769  -16.0782   21.5316 C   0  0  2  0  0  0  0  0  0  0  0  0
    7.4681  -15.7919   22.9088 N   0  0  0  0  0  0  0  0  0  0  0  0
    9.1184  -15.7752   21.2167 C   0  0  0  0  0  0  0  0  0  0  0  0
    9.7476  -14.8574   21.8053 O   0  0  0  0  0  0  0  0  0  0  0  0
    9.8396  -16.5144   20.2354 N   0  0  0  0  0  0  0  0  0  0  0  0
   11.2423  -16.3018   19.9654 C   0  0  0  0  0  0  0  0  0  0  0  0
   11.7093  -17.1091   18.8064 C   0  0  0  0  0  0  0  0  0  0  0  0
   10.8640  -17.9581   18.1482 O   0  0  0  0  0  0  0  0  0  0  0  0
   12.9027  -17.0001   18.4359 O   0  0  0  0  0  0  0  0  0  0  0  0
  1  2  1  0
  2 12  2  0
  2  3  1  0
  3  4  2  0
  4  5  1  0
  5  6  1  0
  6  7  1  0
  7  9  1  0
  7  8  1  1
  9 16  1  0
 10  9  2  0
 11  5  2  0
 12 11  1  0
 15 14  1  6
 14 13  1  0
 15 17  1  0
 16 15  1  0
 17 18  2  0
 17 19  1  0
 19 20  1  0
 20 21  1  0
 21 22  1  0
 23 21  2  0
M  END
$$$$
