YSG.pdb
     RDKit          3D

 23 23  0  0  1  0  0  0  0  0999 V2000
    5.0885  -10.7061   27.5238 O   0  0  0  0  0  0  0  0  0  0  0  0
    5.9278  -11.6825   26.9692 C   0  0  0  0  0  0  0  0  0  0  0  0
    7.0624  -12.0975   27.6331 C   0  0  0  0  0  0  0  0  0  0  0  0
    7.8548  -13.0580   27.0490 C   0  0  0  0  0  0  0  0  0  0  0  0
    7.5674  -13.6323   25.8195 C   0  0  0  0  0  0  0  0  0  0  0  0
    8.4639  -14.6668   25.2402 C   0  0  0  0  0  0  0  0  0  0  0  0
    7.6726  -15.8451   24.7032 C   0  0  2  0  0  0  0  0  0  0  0  0
    7.1205  -16.6554   25.7436 N   0  0  0  0  0  0  0  0  0  0  0  0
    8.6025  -16.6616   23.8948 C   0  0  0  0  0  0  0  0  0  0  0  0
    9.2091  -17.6377   24.3867 O   0  0  0  0  0  0  0  0  0  0  0  0
    6.4320  -13.2167   25.1556 C   0  0  0  0  0  0  0  0  0  0  0  0
    5.6274  -12.2462   25.7412 C   0  0  0  0  0  0  0  0  0  0  0  0
    9.0497  -15.9153   19.7553 O   0  0  0  0  0  0  0  0  0  0  0  0
    9.3913  -17.1405   20.2732 C   0  0  0  0  0  0  0  0  0  0  0  0
    9.7338  -17.1220   21.7330 C   0  0  2  0  0  0  0  0  0  0  0  0
    8.8392  -16.3713   22.5444 N   0  0  0  0  0  0  0  0  0  0  0  0
   11.1145  -16.5533   21.9305 C   0  0  0  0  0  0  0  0  0  0  0  0
   11.3788  -15.3490   21.6767 O   0  0  0  0  0  0  0  0  0  0  0  0
   12.1893  -17.3532   22.4150 N   0  0  0  0  0  0  0  0  0  0  0  0
   13.5201  -16.8349   22.6290 C   0  0  0  0  0  0  0  0  0  0  0  0
   14.4136  -17.8492   23.2502 C   0  0  0  0  0  0  0  0  0  0  0  0
   15.1863  -18.6765   22.4840 O   0  0  0  0  0  0  0  0  0  0  0  0
   14.4499  -17.9373   24.5010 O   0  0  0  0  0  0  0  0  0  0  0  0
  1  2  1  0
  2 12  2  0
  2  3  1  0
  3  4  2  0
  4  5  1  0
  5  6  1  0
  6  7  1  0
  7  9  1  0
  7  8  1  1
  9 16  1  0
 10  9  2  0
 11  5  2  0
 12 11  1  0
 15 14  1  6
 14 13  1  0
 15 17  1  0
 16 15  1  0
 17 18  2  0
 17 19  1  0
 19 20  1  0
 20 21  1  0
 21 22  1  0
 23 21  2  0
M  END
$$$$
