YSG.pdb
     RDKit          3D

 23 23  0  0  1  0  0  0  0  0999 V2000
   10.0888  -14.8955   30.9049 O   0  0  0  0  0  0  0  0  0  0  0  0
   10.2282  -15.0010   29.5139 C   0  0  0  0  0  0  0  0  0  0  0  0
    9.5953  -14.1117   28.6719 C   0  0  0  0  0  0  0  0  0  0  0  0
    9.7620  -14.2555   27.3143 C   0  0  0  0  0  0  0  0  0  0  0  0
   10.5389  -15.2553   26.7480 C   0  0  0  0  0  0  0  0  0  0  0  0
   10.6801  -15.3584   25.2719 C   0  0  0  0  0  0  0  0  0  0  0  0
    9.6432  -16.2964   24.6821 C   0  0  2  0  0  0  0  0  0  0  0  0
    9.7693  -17.6329   25.1736 N   0  0  0  0  0  0  0  0  0  0  0  0
    9.8408  -16.2980   23.2173 C   0  0  0  0  0  0  0  0  0  0  0  0
   10.5993  -17.1225   22.6629 O   0  0  0  0  0  0  0  0  0  0  0  0
   11.1719  -16.1449   27.5909 C   0  0  0  0  0  0  0  0  0  0  0  0
   11.0070  -16.0045   28.9640 C   0  0  0  0  0  0  0  0  0  0  0  0
    7.0547  -15.0530   20.3201 O   0  0  0  0  0  0  0  0  0  0  0  0
    8.3231  -14.5314   20.2482 C   0  0  0  0  0  0  0  0  0  0  0  0
    9.3615  -15.3246   20.9839 C   0  0  2  0  0  0  0  0  0  0  0  0
    9.1841  -15.3735   22.3940 N   0  0  0  0  0  0  0  0  0  0  0  0
   10.7298  -14.7544   20.7163 C   0  0  0  0  0  0  0  0  0  0  0  0
   11.2366  -13.8704   21.4554 O   0  0  0  0  0  0  0  0  0  0  0  0
   11.5171  -15.1896   19.6116 N   0  0  0  0  0  0  0  0  0  0  0  0
   12.8045  -14.6192   19.2911 C   0  0  0  0  0  0  0  0  0  0  0  0
   13.3739  -15.2067   18.0486 C   0  0  0  0  0  0  0  0  0  0  0  0
   14.4635  -14.6515   17.4376 O   0  0  0  0  0  0  0  0  0  0  0  0
   12.8356  -16.2300   17.5623 O   0  0  0  0  0  0  0  0  0  0  0  0
  1  2  1  0
  2 12  2  0
  2  3  1  0
  3  4  2  0
  4  5  1  0
  5  6  1  0
  6  7  1  0
  7  9  1  0
  7  8  1  1
  9 16  1  0
 10  9  2  0
 11  5  2  0
 12 11  1  0
 15 14  1  6
 14 13  1  0
 15 17  1  0
 16 15  1  0
 17 18  2  0
 17 19  1  0
 19 20  1  0
 20 21  1  0
 21 22  1  0
 23 21  2  0
M  END
$$$$
