YSG.pdb
     RDKit          3D

 23 23  0  0  1  0  0  0  0  0999 V2000
    5.2184  -10.8884   28.3096 O   0  0  0  0  0  0  0  0  0  0  0  0
    5.9381  -11.8190   27.5471 C   0  0  0  0  0  0  0  0  0  0  0  0
    5.6026  -12.0644   26.2327 C   0  0  0  0  0  0  0  0  0  0  0  0
    6.3381  -12.9862   25.5249 C   0  0  0  0  0  0  0  0  0  0  0  0
    7.4053  -13.6841   26.0706 C   0  0  0  0  0  0  0  0  0  0  0  0
    8.1620  -14.6687   25.2535 C   0  0  0  0  0  0  0  0  0  0  0  0
    7.2365  -15.6999   24.6346 C   0  0  2  0  0  0  0  0  0  0  0  0
    6.8735  -16.7332   25.5533 N   0  0  0  0  0  0  0  0  0  0  0  0
    7.9557  -16.2991   23.4906 C   0  0  0  0  0  0  0  0  0  0  0  0
    8.5743  -17.3795   23.6033 O   0  0  0  0  0  0  0  0  0  0  0  0
    7.7406  -13.4383   27.3858 C   0  0  0  0  0  0  0  0  0  0  0  0
    7.0008  -12.5076   28.1061 C   0  0  0  0  0  0  0  0  0  0  0  0
    6.8911  -15.8183   19.4049 O   0  0  0  0  0  0  0  0  0  0  0  0
    8.1949  -15.6142   19.7852 C   0  0  0  0  0  0  0  0  0  0  0  0
    8.5694  -16.2617   21.0850 C   0  0  2  0  0  0  0  0  0  0  0  0
    7.9709  -15.6771   22.2349 N   0  0  0  0  0  0  0  0  0  0  0  0
   10.0630  -16.2116   21.2733 C   0  0  0  0  0  0  0  0  0  0  0  0
   10.6627  -15.1372   21.5390 O   0  0  0  0  0  0  0  0  0  0  0  0
   10.8696  -17.3803   21.1594 N   0  0  0  0  0  0  0  0  0  0  0  0
   12.3041  -17.3643   21.3253 C   0  0  0  0  0  0  0  0  0  0  0  0
   13.0075  -17.7819   20.0828 C   0  0  0  0  0  0  0  0  0  0  0  0
   14.3725  -17.8248   20.0221 O   0  0  0  0  0  0  0  0  0  0  0  0
   12.3248  -18.0981   19.0791 O   0  0  0  0  0  0  0  0  0  0  0  0
  1  2  1  0
  2 12  2  0
  2  3  1  0
  3  4  2  0
  4  5  1  0
  5  6  1  0
  6  7  1  0
  7  9  1  0
  7  8  1  1
  9 16  1  0
 10  9  2  0
 11  5  2  0
 12 11  1  0
 15 14  1  6
 14 13  1  0
 15 17  1  0
 16 15  1  0
 17 18  2  0
 17 19  1  0
 19 20  1  0
 20 21  1  0
 21 22  1  0
 23 21  2  0
M  END
$$$$
