FCC.pdb
     RDKit          3D

 24 24  0  0  1  0  0  0  0  0999 V2000
    7.1572  -15.4518   21.0773 N   0  0  0  0  0  0  0  0  0  0  0  0
    7.6444  -14.7984   22.3046 C   0  0  1  0  0  0  0  0  0  0  0  0
    6.4115  -14.5221   23.1345 C   0  0  0  0  0  0  0  0  0  0  0  0
    6.7062  -13.8988   24.4451 C   0  0  0  0  0  0  0  0  0  0  0  0
    6.4018  -14.4972   25.6481 C   0  0  0  0  0  0  0  0  0  0  0  0
    6.6928  -13.9004   26.8644 C   0  0  0  0  0  0  0  0  0  0  0  0
    7.3089  -12.6628   26.9068 C   0  0  0  0  0  0  0  0  0  0  0  0
    7.6180  -12.0543   25.7184 C   0  0  0  0  0  0  0  0  0  0  0  0
    7.3256  -12.6540   24.5241 C   0  0  0  0  0  0  0  0  0  0  0  0
    8.5321  -15.7163   23.0565 C   0  0  0  0  0  0  0  0  0  0  0  0
    8.1705  -16.8869   23.3766 O   0  0  0  0  0  0  0  0  0  0  0  0
    9.8423  -15.3548   23.4704 N   0  0  0  0  0  0  0  0  0  0  0  0
   10.7297  -16.3360   24.1266 C   0  0  1  0  0  0  0  0  0  0  0  0
   11.8760  -16.5268   23.1476 C   0  0  0  0  0  0  0  0  0  0  0  0
   11.3921  -17.2750   21.5982 S   0  0  0  0  0  0  0  0  0  0  0  0
   11.1868  -15.8417   25.4213 C   0  0  0  0  0  0  0  0  0  0  0  0
   11.9642  -14.8462   25.5218 O   0  0  0  0  0  0  0  0  0  0  0  0
   10.7798  -16.4524   26.6295 N   0  0  0  0  0  0  0  0  0  0  0  0
   11.5045  -16.2191   27.8817 C   0  0  1  0  0  0  0  0  0  0  0  0
   10.6316  -15.4742   28.8726 C   0  0  0  0  0  0  0  0  0  0  0  0
    9.3529  -14.5122   28.0500 S   0  0  0  0  0  0  0  0  0  0  0  0
   11.8711  -17.5095   28.4977 C   0  0  0  0  0  0  0  0  0  0  0  0
   12.6215  -17.6310   29.6410 O   0  0  0  0  0  0  0  0  0  0  0  0
   11.4780  -18.5689   27.9511 O   0  0  0  0  0  0  0  0  0  0  0  0
  2  1  1  6
  2 10  1  0
  3  2  1  0
  4  3  1  0
  5  4  2  0
  6  5  1  0
  7  6  2  0
  7  8  1  0
  8  9  2  0
  9  4  1  0
 10 11  2  0
 12 10  1  0
 12 13  1  0
 13 14  1  6
 14 15  1  0
 16 17  2  0
 16 13  1  0
 18 16  1  0
 19 18  1  0
 19 20  1  1
 21 20  1  0
 22 19  1  0
 23 22  1  0
 24 22  2  0
M  END
$$$$
