FCC.pdb
     RDKit          3D

 24 24  0  0  1  0  0  0  0  0999 V2000
    6.2460  -17.4281   25.9324 N   0  0  0  0  0  0  0  0  0  0  0  0
    6.6643  -16.1838   25.2640 C   0  0  1  0  0  0  0  0  0  0  0  0
    7.5645  -15.4756   26.2506 C   0  0  0  0  0  0  0  0  0  0  0  0
    7.1129  -14.1063   26.5885 C   0  0  0  0  0  0  0  0  0  0  0  0
    5.9172  -13.5794   26.1521 C   0  0  0  0  0  0  0  0  0  0  0  0
    5.5092  -12.2978   26.4859 C   0  0  0  0  0  0  0  0  0  0  0  0
    6.3060  -11.4949   27.2819 C   0  0  0  0  0  0  0  0  0  0  0  0
    7.4989  -12.0046   27.7238 C   0  0  0  0  0  0  0  0  0  0  0  0
    7.8904  -13.2715   27.3875 C   0  0  0  0  0  0  0  0  0  0  0  0
    7.4435  -16.4946   24.0424 C   0  0  0  0  0  0  0  0  0  0  0  0
    8.1957  -17.5105   23.9668 O   0  0  0  0  0  0  0  0  0  0  0  0
    7.4050  -15.6839   22.8763 N   0  0  0  0  0  0  0  0  0  0  0  0
    8.4269  -15.8239   21.8194 C   0  0  1  0  0  0  0  0  0  0  0  0
    7.9987  -14.8401   20.7434 C   0  0  0  0  0  0  0  0  0  0  0  0
    9.0238  -14.8719   19.2796 S   0  0  0  0  0  0  0  0  0  0  0  0
    9.7582  -15.5282   22.3387 C   0  0  0  0  0  0  0  0  0  0  0  0
    9.9314  -14.8094   23.3677 O   0  0  0  0  0  0  0  0  0  0  0  0
   10.9220  -16.0341   21.7158 N   0  0  0  0  0  0  0  0  0  0  0  0
   12.1797  -16.1759   22.4544 C   0  0  1  0  0  0  0  0  0  0  0  0
   11.9866  -17.0571   23.6729 C   0  0  0  0  0  0  0  0  0  0  0  0
   13.5332  -17.3419   24.5471 S   0  0  0  0  0  0  0  0  0  0  0  0
   13.1948  -16.8207   21.5983 C   0  0  0  0  0  0  0  0  0  0  0  0
   12.9937  -17.9962   20.9181 O   0  0  0  0  0  0  0  0  0  0  0  0
   14.3158  -16.2692   21.4770 O   0  0  0  0  0  0  0  0  0  0  0  0
  2  1  1  1
  2 10  1  0
  3  2  1  0
  4  3  1  0
  5  4  2  0
  6  5  1  0
  7  6  2  0
  7  8  1  0
  8  9  2  0
  9  4  1  0
 10 11  2  0
 12 10  1  0
 12 13  1  0
 13 14  1  6
 14 15  1  0
 16 17  2  0
 16 13  1  0
 18 16  1  0
 19 18  1  0
 19 20  1  1
 21 20  1  0
 22 19  1  0
 23 22  1  0
 24 22  2  0
M  END
$$$$
