FCC.pdb
     RDKit          3D

 24 24  0  0  1  0  0  0  0  0999 V2000
    6.0625  -18.2271   25.6148 N   0  0  0  0  0  0  0  0  0  0  0  0
    6.1836  -16.7820   25.3554 C   0  0  1  0  0  0  0  0  0  0  0  0
    6.6866  -16.1783   26.6468 C   0  0  0  0  0  0  0  0  0  0  0  0
    6.7010  -14.6975   26.6433 C   0  0  0  0  0  0  0  0  0  0  0  0
    5.5649  -13.9345   26.4857 C   0  0  0  0  0  0  0  0  0  0  0  0
    5.5986  -12.5492   26.4929 C   0  0  0  0  0  0  0  0  0  0  0  0
    6.7970  -11.8794   26.6613 C   0  0  0  0  0  0  0  0  0  0  0  0
    7.9364  -12.6244   26.8190 C   0  0  0  0  0  0  0  0  0  0  0  0
    7.8899  -13.9915   26.8103 C   0  0  0  0  0  0  0  0  0  0  0  0
    7.1829  -16.5341   24.2897 C   0  0  0  0  0  0  0  0  0  0  0  0
    8.2646  -17.1888   24.2188 O   0  0  0  0  0  0  0  0  0  0  0  0
    7.0037  -15.5530   23.2779 N   0  0  0  0  0  0  0  0  0  0  0  0
    8.0137  -15.3617   22.2175 C   0  0  1  0  0  0  0  0  0  0  0  0
    7.5313  -14.1435   21.4479 C   0  0  0  0  0  0  0  0  0  0  0  0
    8.5169  -13.7558   20.0082 S   0  0  0  0  0  0  0  0  0  0  0  0
    9.3406  -15.1617   22.7910 C   0  0  0  0  0  0  0  0  0  0  0  0
    9.6287  -14.1313   23.4696 O   0  0  0  0  0  0  0  0  0  0  0  0
   10.3706  -16.1142   22.6166 N   0  0  0  0  0  0  0  0  0  0  0  0
   11.7565  -15.8117   22.9842 C   0  0  1  0  0  0  0  0  0  0  0  0
   12.2251  -16.7273   24.0981 C   0  0  0  0  0  0  0  0  0  0  0  0
   11.0619  -16.7648   25.4703 S   0  0  0  0  0  0  0  0  0  0  0  0
   12.6434  -16.0347   21.8255 C   0  0  0  0  0  0  0  0  0  0  0  0
   13.9896  -15.7646   21.8233 O   0  0  0  0  0  0  0  0  0  0  0  0
   12.1474  -16.5000   20.7705 O   0  0  0  0  0  0  0  0  0  0  0  0
  2  1  1  1
  2 10  1  0
  3  2  1  0
  4  3  1  0
  5  4  2  0
  6  5  1  0
  7  6  2  0
  7  8  1  0
  8  9  2  0
  9  4  1  0
 10 11  2  0
 12 10  1  0
 12 13  1  0
 13 14  1  1
 14 15  1  0
 16 17  2  0
 16 13  1  0
 18 16  1  0
 19 18  1  0
 19 20  1  1
 21 20  1  0
 22 19  1  0
 23 22  1  0
 24 22  2  0
M  END
$$$$
