FCC.pdb
     RDKit          3D

 24 24  0  0  1  0  0  0  0  0999 V2000
    5.8629  -17.9894   25.1686 N   0  0  0  0  0  0  0  0  0  0  0  0
    6.3096  -16.5936   25.0194 C   0  0  1  0  0  0  0  0  0  0  0  0
    6.7768  -16.1677   26.3925 C   0  0  0  0  0  0  0  0  0  0  0  0
    6.9447  -14.7032   26.5342 C   0  0  0  0  0  0  0  0  0  0  0  0
    8.1766  -14.0900   26.5995 C   0  0  0  0  0  0  0  0  0  0  0  0
    8.3124  -12.7166   26.7245 C   0  0  0  0  0  0  0  0  0  0  0  0
    7.1936  -11.9060   26.7889 C   0  0  0  0  0  0  0  0  0  0  0  0
    5.9606  -12.5010   26.7256 C   0  0  0  0  0  0  0  0  0  0  0  0
    5.8399  -13.8580   26.6020 C   0  0  0  0  0  0  0  0  0  0  0  0
    7.4529  -16.5185   24.0798 C   0  0  0  0  0  0  0  0  0  0  0  0
    8.3687  -17.3930   24.0662 O   0  0  0  0  0  0  0  0  0  0  0  0
    7.6054  -15.4699   23.1333 N   0  0  0  0  0  0  0  0  0  0  0  0
    8.7356  -15.4628   22.1827 C   0  0  1  0  0  0  0  0  0  0  0  0
    8.4271  -14.3171   21.2334 C   0  0  0  0  0  0  0  0  0  0  0  0
    6.9574  -14.5656   20.2471 S   0  0  0  0  0  0  0  0  0  0  0  0
   10.0032  -15.2744   22.8807 C   0  0  0  0  0  0  0  0  0  0  0  0
   10.1766  -14.3345   23.7126 O   0  0  0  0  0  0  0  0  0  0  0  0
   11.1012  -16.1373   22.6615 N   0  0  0  0  0  0  0  0  0  0  0  0
   12.3036  -16.0656   23.4961 C   0  0  1  0  0  0  0  0  0  0  0  0
   12.3054  -17.1780   24.5263 C   0  0  0  0  0  0  0  0  0  0  0  0
   13.3325  -16.7749   25.9475 S   0  0  0  0  0  0  0  0  0  0  0  0
   13.5071  -16.2362   22.6585 C   0  0  0  0  0  0  0  0  0  0  0  0
   14.7790  -15.9160   23.0644 O   0  0  0  0  0  0  0  0  0  0  0  0
   13.3718  -16.7023   21.5010 O   0  0  0  0  0  0  0  0  0  0  0  0
  2  1  1  1
  2 10  1  0
  3  2  1  0
  4  3  1  0
  5  4  2  0
  6  5  1  0
  7  6  2  0
  7  8  1  0
  8  9  2  0
  9  4  1  0
 10 11  2  0
 12 10  1  0
 12 13  1  0
 13 14  1  6
 14 15  1  0
 16 17  2  0
 16 13  1  0
 18 16  1  0
 19 18  1  0
 19 20  1  1
 21 20  1  0
 22 19  1  0
 23 22  1  0
 24 22  2  0
M  END
$$$$
