FCC.pdb
     RDKit          3D

 24 24  0  0  1  0  0  0  0  0999 V2000
    6.8137  -16.6477   25.8946 N   0  0  0  0  0  0  0  0  0  0  0  0
    7.0414  -15.6086   24.8755 C   0  0  1  0  0  0  0  0  0  0  0  0
    7.9247  -14.5763   25.5382 C   0  0  0  0  0  0  0  0  0  0  0  0
    7.1707  -13.5268   26.2614 C   0  0  0  0  0  0  0  0  0  0  0  0
    5.8405  -13.2579   26.0247 C   0  0  0  0  0  0  0  0  0  0  0  0
    5.1506  -12.2762   26.7180 C   0  0  0  0  0  0  0  0  0  0  0  0
    5.7899  -11.5231   27.6861 C   0  0  0  0  0  0  0  0  0  0  0  0
    7.1136  -11.7783   27.9331 C   0  0  0  0  0  0  0  0  0  0  0  0
    7.7834  -12.7504   27.2419 C   0  0  0  0  0  0  0  0  0  0  0  0
    7.7612  -16.1795   23.7128 C   0  0  0  0  0  0  0  0  0  0  0  0
    8.3470  -17.3007   23.7708 O   0  0  0  0  0  0  0  0  0  0  0  0
    7.8470  -15.5178   22.4584 N   0  0  0  0  0  0  0  0  0  0  0  0
    8.6535  -16.0800   21.3563 C   0  0  1  0  0  0  0  0  0  0  0  0
    8.1248  -15.3924   20.1088 C   0  0  0  0  0  0  0  0  0  0  0  0
    6.3426  -15.2728   20.0442 S   0  0  0  0  0  0  0  0  0  0  0  0
   10.0746  -15.8241   21.5668 C   0  0  0  0  0  0  0  0  0  0  0  0
   10.5546  -14.6517   21.5445 O   0  0  0  0  0  0  0  0  0  0  0  0
   10.9859  -16.8775   21.8084 N   0  0  0  0  0  0  0  0  0  0  0  0
   12.3246  -16.6173   22.3447 C   0  0  1  0  0  0  0  0  0  0  0  0
   12.2879  -16.5437   23.8587 C   0  0  0  0  0  0  0  0  0  0  0  0
   13.9379  -16.4133   24.5644 S   0  0  0  0  0  0  0  0  0  0  0  0
   13.2357  -17.7191   21.9772 C   0  0  0  0  0  0  0  0  0  0  0  0
   12.8178  -18.9795   21.6282 O   0  0  0  0  0  0  0  0  0  0  0  0
   14.4720  -17.5021   21.9803 O   0  0  0  0  0  0  0  0  0  0  0  0
  2  1  1  1
  2 10  1  0
  3  2  1  0
  4  3  1  0
  5  4  2  0
  6  5  1  0
  7  6  2  0
  7  8  1  0
  8  9  2  0
  9  4  1  0
 10 11  2  0
 12 10  1  0
 12 13  1  0
 13 14  1  6
 14 15  1  0
 16 17  2  0
 16 13  1  0
 18 16  1  0
 19 18  1  0
 19 20  1  1
 21 20  1  0
 22 19  1  0
 23 22  1  0
 24 22  2  0
M  END
$$$$
