FCC.pdb
     RDKit          3D

 24 24  0  0  1  0  0  0  0  0999 V2000
    6.1468  -18.3881   25.3172 N   0  0  0  0  0  0  0  0  0  0  0  0
    6.2418  -16.9312   25.1210 C   0  0  1  0  0  0  0  0  0  0  0  0
    6.6538  -16.3667   26.4614 C   0  0  0  0  0  0  0  0  0  0  0  0
    6.6784  -14.8865   26.4995 C   0  0  0  0  0  0  0  0  0  0  0  0
    5.5432  -14.1125   26.3992 C   0  0  0  0  0  0  0  0  0  0  0  0
    5.5868  -12.7282   26.4447 C   0  0  0  0  0  0  0  0  0  0  0  0
    6.7944  -12.0708   26.5948 C   0  0  0  0  0  0  0  0  0  0  0  0
    7.9330  -12.8268   26.6957 C   0  0  0  0  0  0  0  0  0  0  0  0
    7.8767  -14.1928   26.6495 C   0  0  0  0  0  0  0  0  0  0  0  0
    7.2924  -16.6152   24.1249 C   0  0  0  0  0  0  0  0  0  0  0  0
    8.3661  -17.2820   24.0478 O   0  0  0  0  0  0  0  0  0  0  0  0
    7.1745  -15.5508   23.1912 N   0  0  0  0  0  0  0  0  0  0  0  0
    8.1604  -15.3801   22.1050 C   0  0  1  0  0  0  0  0  0  0  0  0
    7.5933  -14.2601   21.2490 C   0  0  0  0  0  0  0  0  0  0  0  0
    6.0067  -14.6364   20.5170 S   0  0  0  0  0  0  0  0  0  0  0  0
    9.4766  -15.0511   22.6423 C   0  0  0  0  0  0  0  0  0  0  0  0
    9.6523  -14.0794   23.4363 O   0  0  0  0  0  0  0  0  0  0  0  0
   10.6222  -15.8061   22.3015 N   0  0  0  0  0  0  0  0  0  0  0  0
   11.7310  -15.9739   23.2448 C   0  0  1  0  0  0  0  0  0  0  0  0
   11.2787  -16.7475   24.4678 C   0  0  0  0  0  0  0  0  0  0  0  0
   12.6464  -17.1000   25.5826 S   0  0  0  0  0  0  0  0  0  0  0  0
   12.8178  -16.7453   22.6102 C   0  0  0  0  0  0  0  0  0  0  0  0
   12.6207  -17.8757   21.8563 O   0  0  0  0  0  0  0  0  0  0  0  0
   14.0004  -16.3530   22.7622 O   0  0  0  0  0  0  0  0  0  0  0  0
  2  1  1  1
  2 10  1  0
  3  2  1  0
  4  3  1  0
  5  4  2  0
  6  5  1  0
  7  6  2  0
  7  8  1  0
  8  9  2  0
  9  4  1  0
 10 11  2  0
 12 10  1  0
 12 13  1  0
 13 14  1  6
 14 15  1  0
 16 17  2  0
 16 13  1  0
 18 16  1  0
 19 18  1  0
 19 20  1  1
 21 20  1  0
 22 19  1  0
 23 22  1  0
 24 22  2  0
M  END
$$$$
