FCC.pdb
     RDKit          3D

 24 24  0  0  1  0  0  0  0  0999 V2000
    5.9523  -17.1282   25.0710 N   0  0  0  0  0  0  0  0  0  0  0  0
    6.8308  -16.0517   24.5819 C   0  0  1  0  0  0  0  0  0  0  0  0
    7.4186  -15.4131   25.8196 C   0  0  0  0  0  0  0  0  0  0  0  0
    7.0498  -13.9883   25.9841 C   0  0  0  0  0  0  0  0  0  0  0  0
    5.8831  -13.5786   26.5913 C   0  0  0  0  0  0  0  0  0  0  0  0
    5.5599  -12.2396   26.7423 C   0  0  0  0  0  0  0  0  0  0  0  0
    6.4155  -11.2567   26.2787 C   0  0  0  0  0  0  0  0  0  0  0  0
    7.5803  -11.6482   25.6719 C   0  0  0  0  0  0  0  0  0  0  0  0
    7.8880  -12.9735   25.5290 C   0  0  0  0  0  0  0  0  0  0  0  0
    7.9310  -16.6180   23.7666 C   0  0  0  0  0  0  0  0  0  0  0  0
    8.5480  -17.6693   24.1100 O   0  0  0  0  0  0  0  0  0  0  0  0
    8.3714  -16.0295   22.5508 N   0  0  0  0  0  0  0  0  0  0  0  0
    9.6068  -16.4918   21.8866 C   0  0  1  0  0  0  0  0  0  0  0  0
    9.7558  -15.5781   20.6817 C   0  0  0  0  0  0  0  0  0  0  0  0
   11.1717  -15.9512   19.6567 S   0  0  0  0  0  0  0  0  0  0  0  0
   10.7492  -16.4033   22.7902 C   0  0  0  0  0  0  0  0  0  0  0  0
   10.9879  -15.3598   23.4681 O   0  0  0  0  0  0  0  0  0  0  0  0
   11.6460  -17.4839   22.9534 N   0  0  0  0  0  0  0  0  0  0  0  0
   12.8662  -17.3457   23.7529 C   0  0  1  0  0  0  0  0  0  0  0  0
   12.5546  -17.4828   25.2304 C   0  0  0  0  0  0  0  0  0  0  0  0
   11.6667  -19.0057   25.5905 S   0  0  0  0  0  0  0  0  0  0  0  0
   13.8210  -18.4151   23.4010 C   0  0  0  0  0  0  0  0  0  0  0  0
   13.5237  -19.4715   22.5759 O   0  0  0  0  0  0  0  0  0  0  0  0
   14.9802  -18.3665   23.8798 O   0  0  0  0  0  0  0  0  0  0  0  0
  2  1  1  1
  2 10  1  0
  3  2  1  0
  4  3  1  0
  5  4  2  0
  6  5  1  0
  7  6  2  0
  7  8  1  0
  8  9  2  0
  9  4  1  0
 10 11  2  0
 12 10  1  0
 12 13  1  0
 13 14  1  6
 14 15  1  0
 16 17  2  0
 16 13  1  0
 18 16  1  0
 19 18  1  0
 19 20  1  1
 21 20  1  0
 22 19  1  0
 23 22  1  0
 24 22  2  0
M  END
$$$$
