FCC.pdb
     RDKit          3D

 24 24  0  0  1  0  0  0  0  0999 V2000
    6.8116  -16.2845   24.3526 N   0  0  0  0  0  0  0  0  0  0  0  0
    7.7660  -15.4558   23.5959 C   0  0  1  0  0  0  0  0  0  0  0  0
    7.0693  -14.1325   23.3756 C   0  0  0  0  0  0  0  0  0  0  0  0
    6.9892  -13.2942   24.5938 C   0  0  0  0  0  0  0  0  0  0  0  0
    7.7624  -12.1703   24.7857 C   0  0  0  0  0  0  0  0  0  0  0  0
    7.6670  -11.3947   25.9301 C   0  0  0  0  0  0  0  0  0  0  0  0
    6.7757  -11.7331   26.9322 C   0  0  0  0  0  0  0  0  0  0  0  0
    5.9995  -12.8487   26.7564 C   0  0  0  0  0  0  0  0  0  0  0  0
    6.1030  -13.6061   25.6219 C   0  0  0  0  0  0  0  0  0  0  0  0
    8.9915  -15.2244   24.3963 C   0  0  0  0  0  0  0  0  0  0  0  0
    9.9626  -14.5424   23.9543 O   0  0  0  0  0  0  0  0  0  0  0  0
    9.1664  -15.7453   25.7064 N   0  0  0  0  0  0  0  0  0  0  0  0
   10.3860  -15.4497   26.4851 C   0  0  1  0  0  0  0  0  0  0  0  0
    9.8778  -15.1286   27.8806 C   0  0  0  0  0  0  0  0  0  0  0  0
   11.1654  -15.0152   29.1151 S   0  0  0  0  0  0  0  0  0  0  0  0
   11.2977  -16.5891   26.4789 C   0  0  0  0  0  0  0  0  0  0  0  0
   10.8953  -17.7703   26.6988 O   0  0  0  0  0  0  0  0  0  0  0  0
   12.6787  -16.4273   26.2240 N   0  0  0  0  0  0  0  0  0  0  0  0
   13.5622  -17.5844   26.0571 C   0  0  1  0  0  0  0  0  0  0  0  0
   14.8027  -17.2003   25.2746 C   0  0  0  0  0  0  0  0  0  0  0  0
   14.4010  -16.2296   23.8139 S   0  0  0  0  0  0  0  0  0  0  0  0
   14.0056  -18.0723   27.3779 C   0  0  0  0  0  0  0  0  0  0  0  0
   13.6437  -17.4986   28.5716 O   0  0  0  0  0  0  0  0  0  0  0  0
   14.7610  -19.0736   27.4254 O   0  0  0  0  0  0  0  0  0  0  0  0
  2  1  1  1
  2 10  1  0
  3  2  1  0
  4  3  1  0
  5  4  2  0
  6  5  1  0
  7  6  2  0
  7  8  1  0
  8  9  2  0
  9  4  1  0
 10 11  2  0
 12 10  1  0
 12 13  1  0
 13 14  1  1
 14 15  1  0
 16 17  2  0
 16 13  1  0
 18 16  1  0
 19 18  1  0
 19 20  1  6
 21 20  1  0
 22 19  1  0
 23 22  1  0
 24 22  2  0
M  END
$$$$
