DHQ.pdb
     RDKit          3D

 28 28  0  0  1  0  0  0  0  0999 V2000
   13.4399  -13.6221   18.4670 N   0  0  0  0  0  0  0  0  0  0  0  0
   12.8211  -14.8171   19.0141 C   0  0  1  0  0  0  0  0  0  0  0  0
   13.9457  -15.7628   19.3969 C   0  0  0  0  0  0  0  0  0  0  0  0
   15.0396  -14.9827   20.0249 C   0  0  0  0  0  0  0  0  0  0  0  0
   15.5132  -13.9667   19.4632 O   0  0  0  0  0  0  0  0  0  0  0  0
   11.9574  -14.4892   20.1630 C   0  0  0  0  0  0  0  0  0  0  0  0
   12.2012  -13.4804   20.8595 O   0  0  0  0  0  0  0  0  0  0  0  0
   15.5737  -15.3577   21.2596 O   0  0  0  0  0  0  0  0  0  0  0  0
   10.8464  -15.3005   20.5029 N   0  0  0  0  0  0  0  0  0  0  0  0
    9.9100  -14.9385   21.5359 C   0  0  1  0  0  0  0  0  0  0  0  0
    8.5039  -15.1309   21.0456 C   0  0  0  0  0  0  0  0  0  0  0  0
    8.1976  -14.2746   19.8670 C   0  0  0  0  0  0  0  0  0  0  0  0
    7.8014  -12.9471   19.8620 C   0  0  0  0  0  0  0  0  0  0  0  0
    7.6314  -12.5292   18.6110 N   0  0  0  0  0  0  0  0  0  0  0  0
    7.9131  -13.5707   17.8002 C   0  0  0  0  0  0  0  0  0  0  0  0
    8.2551  -14.6256   18.5639 N   0  0  0  0  0  0  0  0  0  0  0  0
   10.1613  -15.6986   22.7929 C   0  0  0  0  0  0  0  0  0  0  0  0
   10.6791  -16.8611   22.6714 O   0  0  0  0  0  0  0  0  0  0  0  0
   10.0885  -13.0540   28.6507 N   0  0  0  0  0  0  0  0  0  0  0  0
   10.5100  -14.3927   28.8811 C   0  0  0  0  0  0  0  0  0  0  0  0
   10.8508  -14.6852   30.0717 O   0  0  0  0  0  0  0  0  0  0  0  0
   10.5448  -15.3997   27.7935 C   0  0  0  0  0  0  0  0  0  0  0  0
   10.2006  -14.9148   26.4398 C   0  0  0  0  0  0  0  0  0  0  0  0
   10.1937  -15.8716   25.3091 C   0  0  2  0  0  0  0  0  0  0  0  0
    9.8443  -15.1653   24.0567 N   0  0  0  0  0  0  0  0  0  0  0  0
    9.4687  -17.1243   25.4255 C   0  0  0  0  0  0  0  0  0  0  0  0
    8.3214  -17.2138   24.8874 O   0  0  0  0  0  0  0  0  0  0  0  0
    9.9340  -18.2443   26.0765 O   0  0  0  0  0  0  0  0  0  0  0  0
  2  1  1  1
  3  2  1  0
  3  4  1  0
  4  5  2  0
  6  2  1  0
  6  7  2  0
  8  4  1  0
  9  6  1  0
 10  9  1  0
 10 11  1  6
 11 12  1  0
 12 16  1  0
 13 12  2  0
 13 14  1  0
 14 15  1  0
 16 15  2  0
 17 10  1  0
 18 17  2  0
 20 21  2  0
 20 19  1  0
 22 20  1  0
 23 22  1  0
 24 23  1  1
 24 25  1  0
 25 17  1  0
 26 28  1  0
 26 24  1  0
 27 26  2  0
M  END
$$$$
