DHQ.pdb
     RDKit          3D

 28 28  0  0  1  0  0  0  0  0999 V2000
   12.6996  -17.7287   18.1805 N   0  0  0  0  0  0  0  0  0  0  0  0
   11.4757  -18.1685   18.8278 C   0  0  1  0  0  0  0  0  0  0  0  0
   11.6453  -19.6447   19.1402 C   0  0  0  0  0  0  0  0  0  0  0  0
   11.6726  -20.4071   17.8684 C   0  0  0  0  0  0  0  0  0  0  0  0
   12.2415  -19.9457   16.8507 O   0  0  0  0  0  0  0  0  0  0  0  0
   11.2005  -17.3738   20.0386 C   0  0  0  0  0  0  0  0  0  0  0  0
   12.1418  -17.0219   20.7819 O   0  0  0  0  0  0  0  0  0  0  0  0
   11.0653  -21.6606   17.7678 O   0  0  0  0  0  0  0  0  0  0  0  0
    9.8794  -16.9970   20.3863 N   0  0  0  0  0  0  0  0  0  0  0  0
    9.5820  -16.1972   21.5469 C   0  0  1  0  0  0  0  0  0  0  0  0
    8.2769  -15.4797   21.3562 C   0  0  0  0  0  0  0  0  0  0  0  0
    8.3898  -14.3567   20.3855 C   0  0  0  0  0  0  0  0  0  0  0  0
    9.5135  -13.9495   19.6851 C   0  0  0  0  0  0  0  0  0  0  0  0
    9.2129  -12.9128   18.9081 N   0  0  0  0  0  0  0  0  0  0  0  0
    7.9043  -12.6402   19.0947 C   0  0  0  0  0  0  0  0  0  0  0  0
    7.4094  -13.5159   19.9898 N   0  0  0  0  0  0  0  0  0  0  0  0
    9.5799  -17.0180   22.7909 C   0  0  0  0  0  0  0  0  0  0  0  0
    8.7456  -17.9852   22.8434 O   0  0  0  0  0  0  0  0  0  0  0  0
   13.5216  -20.9632   23.2379 N   0  0  0  0  0  0  0  0  0  0  0  0
   12.7196  -21.0599   24.4086 C   0  0  0  0  0  0  0  0  0  0  0  0
   12.4352  -22.2340   24.8083 O   0  0  0  0  0  0  0  0  0  0  0  0
   12.2439  -19.8564   25.1322 C   0  0  0  0  0  0  0  0  0  0  0  0
   11.7595  -18.7374   24.2958 C   0  0  0  0  0  0  0  0  0  0  0  0
   10.7942  -17.7713   24.8694 C   0  0  2  0  0  0  0  0  0  0  0  0
   10.4535  -16.7441   23.8604 N   0  0  0  0  0  0  0  0  0  0  0  0
   11.0559  -17.1691   26.1644 C   0  0  0  0  0  0  0  0  0  0  0  0
   11.3794  -15.9414   26.2087 O   0  0  0  0  0  0  0  0  0  0  0  0
   10.9738  -17.8295   27.3694 O   0  0  0  0  0  0  0  0  0  0  0  0
  2  1  1  1
  3  2  1  0
  3  4  1  0
  4  5  2  0
  6  2  1  0
  6  7  2  0
  8  4  1  0
  9  6  1  0
 10  9  1  0
 10 11  1  6
 11 12  1  0
 12 16  1  0
 13 12  2  0
 13 14  1  0
 14 15  1  0
 16 15  2  0
 17 10  1  0
 18 17  2  0
 20 21  2  0
 20 19  1  0
 22 20  1  0
 23 22  1  0
 24 23  1  6
 24 25  1  0
 25 17  1  0
 26 28  1  0
 26 24  1  0
 27 26  2  0
M  END
$$$$
