DHQ.pdb
     RDKit          3D

 28 28  0  0  1  0  0  0  0  0999 V2000
   12.4350  -15.1434   17.7764 N   0  0  0  0  0  0  0  0  0  0  0  0
   13.1329  -15.2740   19.0438 C   0  0  1  0  0  0  0  0  0  0  0  0
   14.3938  -14.4339   18.9439 C   0  0  0  0  0  0  0  0  0  0  0  0
   15.3172  -15.0634   17.9690 C   0  0  0  0  0  0  0  0  0  0  0  0
   15.0950  -16.2119   17.5175 O   0  0  0  0  0  0  0  0  0  0  0  0
   12.2754  -14.8551   20.1675 C   0  0  0  0  0  0  0  0  0  0  0  0
   12.5656  -13.8341   20.8275 O   0  0  0  0  0  0  0  0  0  0  0  0
   16.4607  -14.3953   17.5261 O   0  0  0  0  0  0  0  0  0  0  0  0
   11.1184  -15.5916   20.5238 N   0  0  0  0  0  0  0  0  0  0  0  0
   10.2813  -15.2279   21.6383 C   0  0  1  0  0  0  0  0  0  0  0  0
    8.8366  -15.4331   21.2847 C   0  0  0  0  0  0  0  0  0  0  0  0
    8.4039  -14.5591   20.1599 C   0  0  0  0  0  0  0  0  0  0  0  0
    7.9481  -13.2526   20.2265 C   0  0  0  0  0  0  0  0  0  0  0  0
    7.6659  -12.8077   19.0055 N   0  0  0  0  0  0  0  0  0  0  0  0
    7.9332  -13.8109   18.1432 C   0  0  0  0  0  0  0  0  0  0  0  0
    8.3795  -14.8696   18.8454 N   0  0  0  0  0  0  0  0  0  0  0  0
   10.6558  -15.9771   22.8710 C   0  0  0  0  0  0  0  0  0  0  0  0
   11.1199  -17.1576   22.7111 O   0  0  0  0  0  0  0  0  0  0  0  0
   11.4871  -13.3332   28.6591 N   0  0  0  0  0  0  0  0  0  0  0  0
   10.2141  -13.9451   28.4917 C   0  0  0  0  0  0  0  0  0  0  0  0
    9.3027  -13.5954   29.3079 O   0  0  0  0  0  0  0  0  0  0  0  0
    9.9574  -14.9347   27.4179 C   0  0  0  0  0  0  0  0  0  0  0  0
   11.0815  -15.2099   26.4976 C   0  0  0  0  0  0  0  0  0  0  0  0
   10.8828  -16.1576   25.3767 C   0  0  2  0  0  0  0  0  0  0  0  0
   10.5066  -15.4152   24.1532 N   0  0  0  0  0  0  0  0  0  0  0  0
   10.0441  -17.3288   25.5591 C   0  0  0  0  0  0  0  0  0  0  0  0
    8.8730  -17.3193   25.0669 O   0  0  0  0  0  0  0  0  0  0  0  0
   10.4233  -18.4708   26.2276 O   0  0  0  0  0  0  0  0  0  0  0  0
  2  1  1  6
  3  2  1  0
  3  4  1  0
  4  5  2  0
  6  2  1  0
  6  7  2  0
  8  4  1  0
  9  6  1  0
 10  9  1  0
 10 11  1  6
 11 12  1  0
 12 16  1  0
 13 12  2  0
 13 14  1  0
 14 15  1  0
 16 15  2  0
 17 10  1  0
 18 17  2  0
 20 21  2  0
 20 19  1  0
 22 20  1  0
 23 22  1  0
 24 23  1  1
 24 25  1  0
 25 17  1  0
 26 28  1  0
 26 24  1  0
 27 26  2  0
M  END
$$$$
