DHQ.pdb
     RDKit          3D

 28 28  0  0  1  0  0  0  0  0999 V2000
   13.1917  -14.3849   17.9634 N   0  0  0  0  0  0  0  0  0  0  0  0
   13.0549  -15.4198   18.9737 C   0  0  1  0  0  0  0  0  0  0  0  0
   14.4590  -15.8344   19.3763 C   0  0  0  0  0  0  0  0  0  0  0  0
   15.1345  -16.4490   18.2078 C   0  0  0  0  0  0  0  0  0  0  0  0
   14.8521  -17.6131   17.8370 O   0  0  0  0  0  0  0  0  0  0  0  0
   12.2680  -14.9383   20.1236 C   0  0  0  0  0  0  0  0  0  0  0  0
   12.6100  -13.8952   20.7214 O   0  0  0  0  0  0  0  0  0  0  0  0
   16.1047  -15.7491   17.4873 O   0  0  0  0  0  0  0  0  0  0  0  0
   11.1216  -15.6384   20.5749 N   0  0  0  0  0  0  0  0  0  0  0  0
   10.2520  -15.1215   21.6005 C   0  0  1  0  0  0  0  0  0  0  0  0
    8.8199  -15.2293   21.1626 C   0  0  0  0  0  0  0  0  0  0  0  0
    8.5433  -14.4234   19.9419 C   0  0  0  0  0  0  0  0  0  0  0  0
    8.3005  -13.0620   19.8603 C   0  0  0  0  0  0  0  0  0  0  0  0
    8.1052  -12.7112   18.5924 N   0  0  0  0  0  0  0  0  0  0  0  0
    8.2185  -13.8302   17.8465 C   0  0  0  0  0  0  0  0  0  0  0  0
    8.4834  -14.8647   18.6666 N   0  0  0  0  0  0  0  0  0  0  0  0
   10.4793  -15.8041   22.9056 C   0  0  0  0  0  0  0  0  0  0  0  0
   10.8526  -17.0261   22.8612 O   0  0  0  0  0  0  0  0  0  0  0  0
    9.9277  -12.9807   28.6973 N   0  0  0  0  0  0  0  0  0  0  0  0
   10.0935  -14.3611   28.9973 C   0  0  0  0  0  0  0  0  0  0  0  0
   10.0901  -14.6803   30.2291 O   0  0  0  0  0  0  0  0  0  0  0  0
   10.2551  -15.3790   27.9315 C   0  0  0  0  0  0  0  0  0  0  0  0
   10.2424  -14.8790   26.5401 C   0  0  0  0  0  0  0  0  0  0  0  0
   10.4693  -15.8306   25.4278 C   0  0  2  0  0  0  0  0  0  0  0  0
   10.2924  -15.1385   24.1320 N   0  0  0  0  0  0  0  0  0  0  0  0
    9.8009  -17.1196   25.4304 C   0  0  0  0  0  0  0  0  0  0  0  0
   10.4431  -18.1354   25.8421 O   0  0  0  0  0  0  0  0  0  0  0  0
    8.5037  -17.3333   25.0226 O   0  0  0  0  0  0  0  0  0  0  0  0
  2  1  1  6
  3  2  1  0
  3  4  1  0
  4  5  2  0
  6  2  1  0
  6  7  2  0
  8  4  1  0
  9  6  1  0
 10  9  1  0
 10 11  1  6
 11 12  1  0
 12 16  1  0
 13 12  2  0
 13 14  1  0
 14 15  1  0
 16 15  2  0
 17 10  1  0
 18 17  2  0
 20 21  2  0
 20 19  1  0
 22 20  1  0
 23 22  1  0
 24 23  1  1
 24 25  1  0
 25 17  1  0
 26 28  1  0
 26 24  1  0
 27 26  2  0
M  END
$$$$
