DHQ.pdb
     RDKit          3D

 28 28  0  0  1  0  0  0  0  0999 V2000
   10.8032  -18.1591   19.1622 N   0  0  0  0  0  0  0  0  0  0  0  0
   11.8886  -17.5013   19.8689 C   0  0  1  0  0  0  0  0  0  0  0  0
   12.6497  -16.6783   18.8447 C   0  0  0  0  0  0  0  0  0  0  0  0
   13.5338  -17.5773   18.0638 C   0  0  0  0  0  0  0  0  0  0  0  0
   13.6234  -18.7966   18.3421 O   0  0  0  0  0  0  0  0  0  0  0  0
   11.3764  -16.6729   20.9756 C   0  0  0  0  0  0  0  0  0  0  0  0
   12.1621  -15.9629   21.6396 O   0  0  0  0  0  0  0  0  0  0  0  0
   14.2921  -17.0914   16.9965 O   0  0  0  0  0  0  0  0  0  0  0  0
    9.9996  -16.6637   21.3110 N   0  0  0  0  0  0  0  0  0  0  0  0
    9.4847  -15.9491   22.4508 C   0  0  1  0  0  0  0  0  0  0  0  0
    8.0270  -15.6481   22.2532 C   0  0  0  0  0  0  0  0  0  0  0  0
    7.7871  -14.7899   21.0607 C   0  0  0  0  0  0  0  0  0  0  0  0
    7.9816  -13.4232   20.9451 C   0  0  0  0  0  0  0  0  0  0  0  0
    7.6620  -13.0216   19.7183 N   0  0  0  0  0  0  0  0  0  0  0  0
    7.2612  -14.1128   19.0326 C   0  0  0  0  0  0  0  0  0  0  0  0
    7.3379  -15.1813   19.8484 N   0  0  0  0  0  0  0  0  0  0  0  0
    9.7235  -16.6958   23.7182 C   0  0  0  0  0  0  0  0  0  0  0  0
    9.7958  -17.9694   23.6336 O   0  0  0  0  0  0  0  0  0  0  0  0
    9.4503  -12.8051   27.6777 N   0  0  0  0  0  0  0  0  0  0  0  0
   10.0435  -13.8000   28.5031 C   0  0  0  0  0  0  0  0  0  0  0  0
   10.7001  -13.3858   29.5113 O   0  0  0  0  0  0  0  0  0  0  0  0
    9.9001  -15.2464   28.2102 C   0  0  0  0  0  0  0  0  0  0  0  0
   10.7997  -15.7979   27.1745 C   0  0  0  0  0  0  0  0  0  0  0  0
   10.2586  -16.7555   26.1825 C   0  0  2  0  0  0  0  0  0  0  0  0
    9.8631  -16.0338   24.9528 N   0  0  0  0  0  0  0  0  0  0  0  0
    9.2412  -17.7122   26.5802 C   0  0  0  0  0  0  0  0  0  0  0  0
    9.5306  -18.5710   27.4704 O   0  0  0  0  0  0  0  0  0  0  0  0
    7.9647  -17.7610   26.0675 O   0  0  0  0  0  0  0  0  0  0  0  0
  2  1  1  6
  3  2  1  0
  3  4  1  0
  4  5  2  0
  6  2  1  0
  6  7  2  0
  8  4  1  0
  9  6  1  0
 10  9  1  0
 10 11  1  6
 11 12  1  0
 12 16  1  0
 13 12  2  0
 13 14  1  0
 14 15  1  0
 16 15  2  0
 17 10  1  0
 18 17  2  0
 20 21  2  0
 20 19  1  0
 22 20  1  0
 23 22  1  0
 24 23  1  1
 24 25  1  0
 25 17  1  0
 26 28  1  0
 26 24  1  0
 27 26  2  0
M  END
$$$$
