WPI.pdb
     RDKit          3D

 30 32  0  0  1  0  0  0  0  0999 V2000
   24.1672  -21.1960  -11.7691 N   0  0  0  0  0  0  0  0  0  0  0  0
   25.3348  -20.4377  -12.1913 C   0  0  1  0  0  0  0  0  0  0  0  0
   26.4930  -21.0108  -11.4137 C   0  0  0  0  0  0  0  0  0  0  0  0
   26.5305  -20.6741   -9.9873 C   0  0  0  0  0  0  0  0  0  0  0  0
   25.4465  -20.4459   -9.1528 C   0  0  0  0  0  0  0  0  0  0  0  0
   25.8748  -20.1409   -7.9135 N   0  0  0  0  0  0  0  0  0  0  0  0
   27.2257  -20.1657   -7.9212 C   0  0  0  0  0  0  0  0  0  0  0  0
   28.1361  -19.9412   -6.9259 C   0  0  0  0  0  0  0  0  0  0  0  0
   29.5051  -20.0446   -7.1955 C   0  0  0  0  0  0  0  0  0  0  0  0
   29.9497  -20.3689   -8.4480 C   0  0  0  0  0  0  0  0  0  0  0  0
   29.0120  -20.5888   -9.4301 C   0  0  0  0  0  0  0  0  0  0  0  0
   27.6445  -20.4957   -9.2031 C   0  0  0  0  0  0  0  0  0  0  0  0
   25.5146  -20.3434  -13.6318 C   0  0  0  0  0  0  0  0  0  0  0  0
   24.7718  -21.1080  -14.3385 O   0  0  0  0  0  0  0  0  0  0  0  0
   26.4180  -19.5018  -14.3306 N   0  0  0  0  0  0  0  0  0  0  0  0
   27.3929  -18.5702  -13.8049 C   0  0  0  0  0  0  0  0  0  0  0  0
   27.5176  -17.4790  -14.8422 C   0  0  0  0  0  0  0  0  0  0  0  0
   26.7389  -17.9658  -16.0173 C   0  0  0  0  0  0  0  0  0  0  0  0
   26.5232  -19.4230  -15.7756 C   0  0  1  0  0  0  0  0  0  0  0  0
   27.5651  -20.2916  -16.3389 C   0  0  0  0  0  0  0  0  0  0  0  0
   28.4957  -20.6430  -15.5682 O   0  0  0  0  0  0  0  0  0  0  0  0
   25.6930  -24.1877  -15.8409 C   0  0  0  0  0  0  0  0  0  0  0  0
   26.8257  -23.2216  -16.1328 C   0  0  0  0  0  0  0  0  0  0  0  0
   27.0570  -23.1574  -17.6252 C   0  0  2  0  0  0  0  0  0  0  0  0
   27.4280  -24.5212  -18.1116 C   0  0  0  0  0  0  0  0  0  0  0  0
   28.0451  -22.1020  -18.0160 C   0  0  2  0  0  0  0  0  0  0  0  0
   27.6239  -20.7720  -17.6662 N   0  0  0  0  0  0  0  0  0  0  0  0
   28.4274  -22.2354  -19.4266 C   0  0  0  0  0  0  0  0  0  0  0  0
   29.5451  -22.6908  -19.7757 O   0  0  0  0  0  0  0  0  0  0  0  0
   27.5716  -21.8639  -20.4775 O   0  0  0  0  0  0  0  0  0  0  0  0
  2  1  1  6
  2 13  1  0
  2  3  1  0
  3  4  1  0
  4  5  2  0
  5  6  1  0
  7  8  2  0
  7  6  1  0
  9  8  1  0
 10  9  2  0
 11 10  1  0
 11 12  2  0
 12  4  1  0
 12  7  1  0
 13 14  2  0
 15 13  1  0
 15 19  1  0
 16 17  1  0
 16 15  1  0
 17 18  1  0
 18 19  1  0
 19 20  1  1
 20 21  2  0
 22 23  1  0
 23 24  1  0
 24 26  1  0
 24 25  1  1
 26 28  1  0
 26 27  1  6
 27 20  1  0
 28 30  1  0
 29 28  2  0
M  END
$$$$
