WPI.pdb
     RDKit          3D

 30 32  0  0  1  0  0  0  0  0999 V2000
   24.3299  -22.3094  -13.0977 N   0  0  0  0  0  0  0  0  0  0  0  0
   25.2102  -21.2482  -12.6334 C   0  0  1  0  0  0  0  0  0  0  0  0
   24.3016  -20.1079  -12.2478 C   0  0  0  0  0  0  0  0  0  0  0  0
   23.7674  -19.3160  -13.3599 C   0  0  0  0  0  0  0  0  0  0  0  0
   22.4701  -19.3310  -13.8502 C   0  0  0  0  0  0  0  0  0  0  0  0
   22.3613  -18.4858  -14.8925 N   0  0  0  0  0  0  0  0  0  0  0  0
   23.5692  -17.9147  -15.0942 C   0  0  0  0  0  0  0  0  0  0  0  0
   23.9854  -16.9883  -16.0097 C   0  0  0  0  0  0  0  0  0  0  0  0
   25.3116  -16.5421  -15.9981 C   0  0  0  0  0  0  0  0  0  0  0  0
   26.2038  -17.0219  -15.0788 C   0  0  0  0  0  0  0  0  0  0  0  0
   25.7581  -17.9534  -14.1701 C   0  0  0  0  0  0  0  0  0  0  0  0
   24.4502  -18.4220  -14.1487 C   0  0  0  0  0  0  0  0  0  0  0  0
   26.1856  -21.6560  -11.6342 C   0  0  0  0  0  0  0  0  0  0  0  0
   25.8941  -22.7067  -10.9654 O   0  0  0  0  0  0  0  0  0  0  0  0
   27.4146  -21.0186  -11.3243 N   0  0  0  0  0  0  0  0  0  0  0  0
   28.0761  -19.9270  -12.0065 C   0  0  0  0  0  0  0  0  0  0  0  0
   29.5544  -20.1353  -11.7751 C   0  0  0  0  0  0  0  0  0  0  0  0
   29.6424  -21.2452  -10.7830 C   0  0  0  0  0  0  0  0  0  0  0  0
   28.2707  -21.3748  -10.2082 C   0  0  1  0  0  0  0  0  0  0  0  0
   28.0387  -20.5644   -9.0055 C   0  0  0  0  0  0  0  0  0  0  0  0
   27.1337  -19.6923   -9.0686 O   0  0  0  0  0  0  0  0  0  0  0  0
   30.9870  -21.5894   -4.2390 C   0  0  0  0  0  0  0  0  0  0  0  0
   29.8742  -21.7334   -5.2600 C   0  0  0  0  0  0  0  0  0  0  0  0
   29.1250  -20.4253   -5.3721 C   0  0  2  0  0  0  0  0  0  0  0  0
   28.5112  -20.1097   -4.0463 C   0  0  0  0  0  0  0  0  0  0  0  0
   28.1371  -20.4152   -6.4977 C   0  0  2  0  0  0  0  0  0  0  0  0
   28.7352  -20.6695   -7.7808 N   0  0  0  0  0  0  0  0  0  0  0  0
   27.3217  -19.1952   -6.4713 C   0  0  0  0  0  0  0  0  0  0  0  0
   27.6466  -18.1607   -7.1058 O   0  0  0  0  0  0  0  0  0  0  0  0
   26.1271  -19.1032   -5.7368 O   0  0  0  0  0  0  0  0  0  0  0  0
  2  1  1  1
  2 13  1  0
  2  3  1  0
  3  4  1  0
  4  5  2  0
  5  6  1  0
  7  8  2  0
  7  6  1  0
  9  8  1  0
 10  9  2  0
 11 10  1  0
 11 12  2  0
 12  4  1  0
 12  7  1  0
 13 14  2  0
 15 13  1  0
 15 19  1  0
 16 17  1  0
 16 15  1  0
 17 18  1  0
 18 19  1  0
 19 20  1  1
 20 21  2  0
 22 23  1  0
 23 24  1  0
 24 26  1  0
 24 25  1  1
 26 28  1  0
 26 27  1  6
 27 20  1  0
 28 30  1  0
 29 28  2  0
M  END
$$$$
