WPI.pdb
     RDKit          3D

 30 32  0  0  1  0  0  0  0  0999 V2000
   23.0289  -18.0593  -15.3083 N   0  0  0  0  0  0  0  0  0  0  0  0
   24.3320  -18.4512  -14.7936 C   0  0  1  0  0  0  0  0  0  0  0  0
   25.0829  -17.1627  -14.5685 C   0  0  0  0  0  0  0  0  0  0  0  0
   25.9906  -16.7586  -15.6464 C   0  0  0  0  0  0  0  0  0  0  0  0
   25.7479  -15.8174  -16.6358 C   0  0  0  0  0  0  0  0  0  0  0  0
   26.8076  -15.7328  -17.4617 N   0  0  0  0  0  0  0  0  0  0  0  0
   27.7444  -16.6051  -17.0289 C   0  0  0  0  0  0  0  0  0  0  0  0
   28.9929  -16.8952  -17.5051 C   0  0  0  0  0  0  0  0  0  0  0  0
   29.7845  -17.8478  -16.8542 C   0  0  0  0  0  0  0  0  0  0  0  0
   29.3253  -18.4976  -15.7414 C   0  0  0  0  0  0  0  0  0  0  0  0
   28.0657  -18.1866  -15.2847 C   0  0  0  0  0  0  0  0  0  0  0  0
   27.2488  -17.2477  -15.9024 C   0  0  0  0  0  0  0  0  0  0  0  0
   24.2935  -19.3747  -13.6704 C   0  0  0  0  0  0  0  0  0  0  0  0
   23.2567  -19.3040  -12.9247 O   0  0  0  0  0  0  0  0  0  0  0  0
   25.2742  -20.3368  -13.3163 N   0  0  0  0  0  0  0  0  0  0  0  0
   26.4986  -20.6898  -14.0026 C   0  0  0  0  0  0  0  0  0  0  0  0
   26.7447  -22.1447  -13.6787 C   0  0  0  0  0  0  0  0  0  0  0  0
   25.7325  -22.4907  -12.6396 C   0  0  0  0  0  0  0  0  0  0  0  0
   25.2127  -21.1836  -12.1397 C   0  0  1  0  0  0  0  0  0  0  0  0
   25.9425  -20.6427  -10.9855 C   0  0  0  0  0  0  0  0  0  0  0  0
   27.1282  -20.2697  -11.1816 O   0  0  0  0  0  0  0  0  0  0  0  0
   27.4940  -17.0883   -8.1096 C   0  0  0  0  0  0  0  0  0  0  0  0
   27.3055  -18.4297   -8.7928 C   0  0  0  0  0  0  0  0  0  0  0  0
   26.6283  -19.3867   -7.8387 C   0  0  2  0  0  0  0  0  0  0  0  0
   27.5047  -19.5705   -6.6420 C   0  0  0  0  0  0  0  0  0  0  0  0
   26.2386  -20.6783   -8.4892 C   0  0  2  0  0  0  0  0  0  0  0  0
   25.4407  -20.5003   -9.6725 N   0  0  0  0  0  0  0  0  0  0  0  0
   25.6338  -21.5959   -7.5165 C   0  0  0  0  0  0  0  0  0  0  0  0
   24.3983  -21.8226   -7.4905 O   0  0  0  0  0  0  0  0  0  0  0  0
   26.3938  -22.2799   -6.5524 O   0  0  0  0  0  0  0  0  0  0  0  0
  2  1  1  1
  2 13  1  0
  2  3  1  0
  3  4  1  0
  4  5  2  0
  5  6  1  0
  7  8  2  0
  7  6  1  0
  9  8  1  0
 10  9  2  0
 11 10  1  0
 11 12  2  0
 12  4  1  0
 12  7  1  0
 13 14  2  0
 15 13  1  0
 15 19  1  0
 16 17  1  0
 16 15  1  0
 17 18  1  0
 18 19  1  0
 19 20  1  1
 20 21  2  0
 22 23  1  0
 23 24  1  0
 24 26  1  0
 24 25  1  1
 26 28  1  0
 26 27  1  6
 27 20  1  0
 28 30  1  0
 29 28  2  0
M  END
$$$$
