WPI.pdb
     RDKit          3D

 30 32  0  0  1  0  0  0  0  0999 V2000
   23.8771  -22.1860  -14.4536 N   0  0  0  0  0  0  0  0  0  0  0  0
   24.5463  -21.1129  -13.7343 C   0  0  1  0  0  0  0  0  0  0  0  0
   23.4437  -20.2915  -13.1145 C   0  0  0  0  0  0  0  0  0  0  0  0
   22.5682  -19.5876  -14.0564 C   0  0  0  0  0  0  0  0  0  0  0  0
   21.1902  -19.7027  -14.1639 C   0  0  0  0  0  0  0  0  0  0  0  0
   20.7381  -18.9173  -15.1594 N   0  0  0  0  0  0  0  0  0  0  0  0
   21.7997  -18.2868  -15.7081 C   0  0  0  0  0  0  0  0  0  0  0  0
   21.8802  -17.3832  -16.7313 C   0  0  0  0  0  0  0  0  0  0  0  0
   23.1230  -16.8599  -17.1046 C   0  0  0  0  0  0  0  0  0  0  0  0
   24.2663  -17.2410  -16.4572 C   0  0  0  0  0  0  0  0  0  0  0  0
   24.1561  -18.1516  -15.4321 C   0  0  0  0  0  0  0  0  0  0  0  0
   22.9415  -18.6946  -15.0317 C   0  0  0  0  0  0  0  0  0  0  0  0
   25.6047  -21.5463  -12.8355 C   0  0  0  0  0  0  0  0  0  0  0  0
   25.4536  -22.7033  -12.3116 O   0  0  0  0  0  0  0  0  0  0  0  0
   26.7763  -20.8292  -12.4804 N   0  0  0  0  0  0  0  0  0  0  0  0
   27.3799  -19.6849  -13.1291 C   0  0  0  0  0  0  0  0  0  0  0  0
   28.8616  -19.7929  -12.8547 C   0  0  0  0  0  0  0  0  0  0  0  0
   28.9973  -20.9077  -11.8734 C   0  0  0  0  0  0  0  0  0  0  0  0
   27.6215  -21.1403  -11.3427 C   0  0  1  0  0  0  0  0  0  0  0  0
   27.2973  -20.3647  -10.1383 C   0  0  0  0  0  0  0  0  0  0  0  0
   26.2441  -19.6767  -10.1667 O   0  0  0  0  0  0  0  0  0  0  0  0
   28.8273  -20.1642   -4.0964 C   0  0  0  0  0  0  0  0  0  0  0  0
   27.8938  -20.6783   -5.1762 C   0  0  0  0  0  0  0  0  0  0  0  0
   28.3339  -20.1377   -6.5175 C   0  0  2  0  0  0  0  0  0  0  0  0
   28.3086  -18.6442   -6.4637 C   0  0  0  0  0  0  0  0  0  0  0  0
   27.5449  -20.7010   -7.6591 C   0  0  2  0  0  0  0  0  0  0  0  0
   28.0558  -20.3162   -8.9473 N   0  0  0  0  0  0  0  0  0  0  0  0
   26.1131  -20.4217   -7.4978 C   0  0  0  0  0  0  0  0  0  0  0  0
   25.5348  -19.5073   -8.1365 O   0  0  0  0  0  0  0  0  0  0  0  0
   25.2963  -21.1559   -6.6211 O   0  0  0  0  0  0  0  0  0  0  0  0
  2  1  1  1
  2 13  1  0
  2  3  1  0
  3  4  1  0
  4  5  2  0
  5  6  1  0
  7  8  2  0
  7  6  1  0
  9  8  1  0
 10  9  2  0
 11 10  1  0
 11 12  2  0
 12  4  1  0
 12  7  1  0
 13 14  2  0
 15 13  1  0
 15 19  1  0
 16 17  1  0
 16 15  1  0
 17 18  1  0
 18 19  1  0
 19 20  1  1
 20 21  2  0
 22 23  1  0
 23 24  1  0
 24 26  1  0
 24 25  1  1
 26 28  1  0
 26 27  1  6
 27 20  1  0
 28 30  1  0
 29 28  2  0
M  END
$$$$
