WPI.pdb
     RDKit          3D

 30 32  0  0  1  0  0  0  0  0999 V2000
   27.1187  -21.9843  -19.0665 N   0  0  0  0  0  0  0  0  0  0  0  0
   26.4874  -20.9676  -18.2393 C   0  0  1  0  0  0  0  0  0  0  0  0
   25.0051  -21.1179  -18.4733 C   0  0  0  0  0  0  0  0  0  0  0  0
   24.1498  -20.1534  -17.7752 C   0  0  0  0  0  0  0  0  0  0  0  0
   23.9458  -18.8223  -18.1072 C   0  0  0  0  0  0  0  0  0  0  0  0
   23.1112  -18.2485  -17.2203 N   0  0  0  0  0  0  0  0  0  0  0  0
   22.7630  -19.1840  -16.3096 C   0  0  0  0  0  0  0  0  0  0  0  0
   21.9380  -19.1178  -15.2212 C   0  0  0  0  0  0  0  0  0  0  0  0
   21.7301  -20.2546  -14.4324 C   0  0  0  0  0  0  0  0  0  0  0  0
   22.3436  -21.4391  -14.7357 C   0  0  0  0  0  0  0  0  0  0  0  0
   23.1686  -21.4769  -15.8357 C   0  0  0  0  0  0  0  0  0  0  0  0
   23.4013  -20.3708  -16.6437 C   0  0  0  0  0  0  0  0  0  0  0  0
   26.9185  -20.9553  -16.8500 C   0  0  0  0  0  0  0  0  0  0  0  0
   27.3811  -22.0592  -16.3990 O   0  0  0  0  0  0  0  0  0  0  0  0
   26.8808  -19.8597  -15.9494 N   0  0  0  0  0  0  0  0  0  0  0  0
   26.3465  -18.5296  -16.1492 C   0  0  0  0  0  0  0  0  0  0  0  0
   27.1739  -17.6198  -15.2717 C   0  0  0  0  0  0  0  0  0  0  0  0
   28.0202  -18.5324  -14.4502 C   0  0  0  0  0  0  0  0  0  0  0  0
   27.4051  -19.8847  -14.5967 C   0  0  1  0  0  0  0  0  0  0  0  0
   26.3954  -20.2047  -13.5791 C   0  0  0  0  0  0  0  0  0  0  0  0
   25.2216  -20.4116  -13.9826 O   0  0  0  0  0  0  0  0  0  0  0  0
   25.6157  -21.2297   -7.4565 C   0  0  0  0  0  0  0  0  0  0  0  0
   25.1067  -21.3855   -8.8772 C   0  0  0  0  0  0  0  0  0  0  0  0
   26.1109  -20.7895   -9.8369 C   0  0  2  0  0  0  0  0  0  0  0  0
   26.4729  -19.4193   -9.3618 C   0  0  0  0  0  0  0  0  0  0  0  0
   25.6433  -20.8168  -11.2595 C   0  0  2  0  0  0  0  0  0  0  0  0
   26.6152  -20.3028  -12.1869 N   0  0  0  0  0  0  0  0  0  0  0  0
   24.3257  -20.1843  -11.3927 C   0  0  0  0  0  0  0  0  0  0  0  0
   24.1939  -18.9758  -11.7101 O   0  0  0  0  0  0  0  0  0  0  0  0
   23.1277  -20.8858  -11.1749 O   0  0  0  0  0  0  0  0  0  0  0  0
  2  1  1  6
  2 13  1  0
  2  3  1  0
  3  4  1  0
  4  5  2  0
  5  6  1  0
  7  8  2  0
  7  6  1  0
  9  8  1  0
 10  9  2  0
 11 10  1  0
 11 12  2  0
 12  4  1  0
 12  7  1  0
 13 14  2  0
 15 13  1  0
 15 19  1  0
 16 17  1  0
 16 15  1  0
 17 18  1  0
 18 19  1  0
 19 20  1  1
 20 21  2  0
 22 23  1  0
 23 24  1  0
 24 26  1  0
 24 25  1  1
 26 28  1  0
 26 27  1  6
 27 20  1  0
 28 30  1  0
 29 28  2  0
M  END
$$$$
