WPI.pdb
     RDKit          3D

 30 32  0  0  1  0  0  0  0  0999 V2000
   26.2563  -22.7605  -11.7904 N   0  0  0  0  0  0  0  0  0  0  0  0
   25.4963  -21.9120  -10.8856 C   0  0  1  0  0  0  0  0  0  0  0  0
   26.2938  -20.6382  -10.7588 C   0  0  0  0  0  0  0  0  0  0  0  0
   27.5480  -20.7450  -10.0073 C   0  0  0  0  0  0  0  0  0  0  0  0
   28.7281  -21.3392  -10.4291 C   0  0  0  0  0  0  0  0  0  0  0  0
   29.6562  -21.2624   -9.4569 N   0  0  0  0  0  0  0  0  0  0  0  0
   29.1029  -20.6254   -8.4015 C   0  0  0  0  0  0  0  0  0  0  0  0
   29.6202  -20.2875   -7.1817 C   0  0  0  0  0  0  0  0  0  0  0  0
   28.8280  -19.6047   -6.2522 C   0  0  0  0  0  0  0  0  0  0  0  0
   27.5353  -19.2680   -6.5472 C   0  0  0  0  0  0  0  0  0  0  0  0
   27.0407  -19.6209   -7.7813 C   0  0  0  0  0  0  0  0  0  0  0  0
   27.7944  -20.2991   -8.7312 C   0  0  0  0  0  0  0  0  0  0  0  0
   24.0912  -21.7564  -11.2284 C   0  0  0  0  0  0  0  0  0  0  0  0
   23.8054  -21.8548  -12.4713 O   0  0  0  0  0  0  0  0  0  0  0  0
   23.0132  -21.5089  -10.3398 N   0  0  0  0  0  0  0  0  0  0  0  0
   22.9891  -20.7147   -9.1302 C   0  0  0  0  0  0  0  0  0  0  0  0
   21.9455  -21.3517   -8.2428 C   0  0  0  0  0  0  0  0  0  0  0  0
   21.2769  -22.3746   -9.0976 C   0  0  0  0  0  0  0  0  0  0  0  0
   21.6736  -22.0436  -10.4981 C   0  0  1  0  0  0  0  0  0  0  0  0
   20.7530  -21.1315  -11.1893 C   0  0  0  0  0  0  0  0  0  0  0  0
   20.9304  -19.8980  -11.0144 O   0  0  0  0  0  0  0  0  0  0  0  0
   20.9715  -21.0377  -16.1444 C   0  0  0  0  0  0  0  0  0  0  0  0
   20.7661  -20.8130  -14.6582 C   0  0  0  0  0  0  0  0  0  0  0  0
   19.2859  -20.8118  -14.3519 C   0  0  2  0  0  0  0  0  0  0  0  0
   18.6120  -19.8229  -15.2475 C   0  0  0  0  0  0  0  0  0  0  0  0
   18.9922  -20.5897  -12.9002 C   0  0  2  0  0  0  0  0  0  0  0  0
   19.6842  -21.5060  -12.0340 N   0  0  0  0  0  0  0  0  0  0  0  0
   17.5457  -20.5441  -12.6568 C   0  0  0  0  0  0  0  0  0  0  0  0
   16.8353  -21.5804  -12.6564 O   0  0  0  0  0  0  0  0  0  0  0  0
   16.8609  -19.3423  -12.4086 O   0  0  0  0  0  0  0  0  0  0  0  0
  2  1  1  6
  2 13  1  0
  2  3  1  0
  3  4  1  0
  4  5  2  0
  5  6  1  0
  7  8  2  0
  7  6  1  0
  9  8  1  0
 10  9  2  0
 11 10  1  0
 11 12  2  0
 12  4  1  0
 12  7  1  0
 13 14  2  0
 15 13  1  0
 15 19  1  0
 16 17  1  0
 16 15  1  0
 17 18  1  0
 18 19  1  0
 19 20  1  1
 20 21  2  0
 22 23  1  0
 23 24  1  0
 24 26  1  0
 24 25  1  6
 26 28  1  0
 26 27  1  1
 27 20  1  0
 28 30  1  0
 29 28  2  0
M  END
$$$$
