WPI.pdb
     RDKit          3D

 30 32  0  0  1  0  0  0  0  0999 V2000
   24.7061  -22.6810  -13.7969 N   0  0  0  0  0  0  0  0  0  0  0  0
   24.8143  -21.6947  -12.7329 C   0  0  1  0  0  0  0  0  0  0  0  0
   23.4370  -21.6012  -12.1256 C   0  0  0  0  0  0  0  0  0  0  0  0
   22.5475  -20.5973  -12.7173 C   0  0  0  0  0  0  0  0  0  0  0  0
   22.4504  -20.2511  -14.0568 C   0  0  0  0  0  0  0  0  0  0  0  0
   21.5390  -19.2730  -14.2154 N   0  0  0  0  0  0  0  0  0  0  0  0
   21.0349  -18.9714  -12.9986 C   0  0  0  0  0  0  0  0  0  0  0  0
   20.0836  -18.0661  -12.6173 C   0  0  0  0  0  0  0  0  0  0  0  0
   19.7243  -17.9567  -11.2695 C   0  0  0  0  0  0  0  0  0  0  0  0
   20.3142  -18.7467  -10.3211 C   0  0  0  0  0  0  0  0  0  0  0  0
   21.2683  -19.6481  -10.7327 C   0  0  0  0  0  0  0  0  0  0  0  0
   21.6531  -19.7871  -12.0605 C   0  0  0  0  0  0  0  0  0  0  0  0
   25.9108  -21.9161  -11.8030 C   0  0  0  0  0  0  0  0  0  0  0  0
   25.8878  -23.0253  -11.1665 O   0  0  0  0  0  0  0  0  0  0  0  0
   26.9932  -21.0410  -11.5283 N   0  0  0  0  0  0  0  0  0  0  0  0
   27.3065  -19.7592  -12.1230 C   0  0  0  0  0  0  0  0  0  0  0  0
   28.8105  -19.6339  -12.0571 C   0  0  0  0  0  0  0  0  0  0  0  0
   29.2632  -20.7877  -11.2277 C   0  0  0  0  0  0  0  0  0  0  0  0
   28.0342  -21.2973  -10.5506 C   0  0  1  0  0  0  0  0  0  0  0  0
   27.7711  -20.6938   -9.2377 C   0  0  0  0  0  0  0  0  0  0  0  0
   26.9167  -19.7711   -9.1927 O   0  0  0  0  0  0  0  0  0  0  0  0
   29.1770  -21.1713   -3.1641 C   0  0  0  0  0  0  0  0  0  0  0  0
   28.3329  -20.5501   -4.2610 C   0  0  0  0  0  0  0  0  0  0  0  0
   28.8389  -21.0164   -5.6069 C   0  0  2  0  0  0  0  0  0  0  0  0
   30.3015  -20.7218   -5.6972 C   0  0  0  0  0  0  0  0  0  0  0  0
   28.0517  -20.4550   -6.7507 C   0  0  2  0  0  0  0  0  0  0  0  0
   28.3864  -21.0499   -8.0167 N   0  0  0  0  0  0  0  0  0  0  0  0
   28.1171  -18.9889   -6.7653 C   0  0  0  0  0  0  0  0  0  0  0  0
   28.9468  -18.3642   -7.4722 O   0  0  0  0  0  0  0  0  0  0  0  0
   27.2587  -18.1888   -5.9921 O   0  0  0  0  0  0  0  0  0  0  0  0
  2  1  1  6
  2 13  1  0
  2  3  1  0
  3  4  1  0
  4  5  2  0
  5  6  1  0
  7  8  2  0
  7  6  1  0
  9  8  1  0
 10  9  2  0
 11 10  1  0
 11 12  2  0
 12  4  1  0
 12  7  1  0
 13 14  2  0
 15 13  1  0
 15 19  1  0
 16 17  1  0
 16 15  1  0
 17 18  1  0
 18 19  1  0
 19 20  1  1
 20 21  2  0
 22 23  1  0
 23 24  1  0
 24 26  1  0
 24 25  1  6
 26 28  1  0
 26 27  1  6
 27 20  1  0
 28 30  1  0
 29 28  2  0
M  END
$$$$
