WPI.pdb
     RDKit          3D

 30 32  0  0  1  0  0  0  0  0999 V2000
   24.2159  -21.9798  -12.8528 N   0  0  0  0  0  0  0  0  0  0  0  0
   25.1982  -20.9782  -12.4677 C   0  0  1  0  0  0  0  0  0  0  0  0
   24.4246  -19.6938  -12.3047 C   0  0  0  0  0  0  0  0  0  0  0  0
   24.0230  -19.0306  -13.5490 C   0  0  0  0  0  0  0  0  0  0  0  0
   22.8034  -19.1412  -14.2000 C   0  0  0  0  0  0  0  0  0  0  0  0
   22.8126  -18.4022  -15.3252 N   0  0  0  0  0  0  0  0  0  0  0  0
   24.0216  -17.8066  -15.4231 C   0  0  0  0  0  0  0  0  0  0  0  0
   24.5321  -16.9548  -16.3631 C   0  0  0  0  0  0  0  0  0  0  0  0
   25.8330  -16.4590  -16.2230 C   0  0  0  0  0  0  0  0  0  0  0  0
   26.6070  -16.8160  -15.1529 C   0  0  0  0  0  0  0  0  0  0  0  0
   26.0683  -17.6747  -14.2230 C   0  0  0  0  0  0  0  0  0  0  0  0
   24.7817  -18.1890  -14.3261 C   0  0  0  0  0  0  0  0  0  0  0  0
   26.0531  -21.3568  -11.3533 C   0  0  0  0  0  0  0  0  0  0  0  0
   25.5412  -22.1679  -10.5072 O   0  0  0  0  0  0  0  0  0  0  0  0
   27.3822  -20.9262  -11.1064 N   0  0  0  0  0  0  0  0  0  0  0  0
   28.2232  -20.0546  -11.8986 C   0  0  0  0  0  0  0  0  0  0  0  0
   29.6413  -20.5045  -11.6362 C   0  0  0  0  0  0  0  0  0  0  0  0
   29.5378  -21.4981  -10.5289 C   0  0  0  0  0  0  0  0  0  0  0  0
   28.1735  -21.3109   -9.9526 C   0  0  1  0  0  0  0  0  0  0  0  0
   28.1100  -20.3468   -8.8464 C   0  0  0  0  0  0  0  0  0  0  0  0
   27.7632  -19.1711   -9.1309 O   0  0  0  0  0  0  0  0  0  0  0  0
   27.7873  -22.1378   -3.5141 C   0  0  0  0  0  0  0  0  0  0  0  0
   27.4211  -21.4806   -4.8316 C   0  0  0  0  0  0  0  0  0  0  0  0
   28.3171  -20.2851   -5.0609 C   0  0  2  0  0  0  0  0  0  0  0  0
   28.1025  -19.3058   -3.9523 C   0  0  0  0  0  0  0  0  0  0  0  0
   28.1472  -19.6831   -6.4217 C   0  0  2  0  0  0  0  0  0  0  0  0
   28.4015  -20.6123   -7.4897 N   0  0  0  0  0  0  0  0  0  0  0  0
   28.9122  -18.4367   -6.5452 C   0  0  0  0  0  0  0  0  0  0  0  0
   28.3738  -17.3079   -6.4255 O   0  0  0  0  0  0  0  0  0  0  0  0
   30.2933  -18.4228   -6.8044 O   0  0  0  0  0  0  0  0  0  0  0  0
  2  1  1  1
  2 13  1  0
  2  3  1  0
  3  4  1  0
  4  5  2  0
  5  6  1  0
  7  8  2  0
  7  6  1  0
  9  8  1  0
 10  9  2  0
 11 10  1  0
 11 12  2  0
 12  4  1  0
 12  7  1  0
 13 14  2  0
 15 13  1  0
 15 19  1  0
 16 17  1  0
 16 15  1  0
 17 18  1  0
 18 19  1  0
 19 20  1  1
 20 21  2  0
 22 23  1  0
 23 24  1  0
 24 26  1  0
 24 25  1  1
 26 28  1  0
 26 27  1  6
 27 20  1  0
 28 30  1  0
 29 28  2  0
M  END
$$$$
