WPI.pdb
     RDKit          3D

 30 32  0  0  1  0  0  0  0  0999 V2000
   26.1407  -19.7515  -16.6907 N   0  0  0  0  0  0  0  0  0  0  0  0
   26.9575  -19.3491  -15.5560 C   0  0  1  0  0  0  0  0  0  0  0  0
   26.5228  -17.9442  -15.2219 C   0  0  0  0  0  0  0  0  0  0  0  0
   26.5877  -16.9790  -16.3235 C   0  0  0  0  0  0  0  0  0  0  0  0
   25.6252  -16.0443  -16.6747 C   0  0  0  0  0  0  0  0  0  0  0  0
   26.0294  -15.3496  -17.7547 N   0  0  0  0  0  0  0  0  0  0  0  0
   27.2450  -15.8143  -18.1185 C   0  0  0  0  0  0  0  0  0  0  0  0
   28.0840  -15.4436  -19.1326 C   0  0  0  0  0  0  0  0  0  0  0  0
   29.3172  -16.0860  -19.2886 C   0  0  0  0  0  0  0  0  0  0  0  0
   29.6987  -17.0858  -18.4364 C   0  0  0  0  0  0  0  0  0  0  0  0
   28.8350  -17.4387  -17.4256 C   0  0  0  0  0  0  0  0  0  0  0  0
   27.6023  -16.8259  -17.2373 C   0  0  0  0  0  0  0  0  0  0  0  0
   26.9760  -20.2940  -14.4501 C   0  0  0  0  0  0  0  0  0  0  0  0
   26.0816  -21.2078  -14.4813 O   0  0  0  0  0  0  0  0  0  0  0  0
   27.8717  -20.3102  -13.3500 N   0  0  0  0  0  0  0  0  0  0  0  0
   29.0245  -19.4724  -13.0969 C   0  0  0  0  0  0  0  0  0  0  0  0
   29.9786  -20.3216  -12.2902 C   0  0  0  0  0  0  0  0  0  0  0  0
   29.2125  -21.5550  -11.9499 C   0  0  0  0  0  0  0  0  0  0  0  0
   27.7832  -21.2246  -12.2269 C   0  0  1  0  0  0  0  0  0  0  0  0
   27.0541  -20.6758  -11.0761 C   0  0  0  0  0  0  0  0  0  0  0  0
   27.1777  -19.4432  -10.8550 O   0  0  0  0  0  0  0  0  0  0  0  0
   22.1771  -21.3487  -11.6597 C   0  0  0  0  0  0  0  0  0  0  0  0
   23.5645  -20.8655  -11.2809 C   0  0  0  0  0  0  0  0  0  0  0  0
   23.8134  -21.1549   -9.8183 C   0  0  2  0  0  0  0  0  0  0  0  0
   22.7493  -20.4857   -9.0096 C   0  0  0  0  0  0  0  0  0  0  0  0
   25.2003  -20.7956   -9.3819 C   0  0  2  0  0  0  0  0  0  0  0  0
   26.2248  -21.3999  -10.1907 N   0  0  0  0  0  0  0  0  0  0  0  0
   25.3795  -21.0378   -7.9455 C   0  0  0  0  0  0  0  0  0  0  0  0
   25.4640  -22.1972   -7.4690 O   0  0  0  0  0  0  0  0  0  0  0  0
   25.4681  -19.9924   -7.0106 O   0  0  0  0  0  0  0  0  0  0  0  0
  2  1  1  6
  2 13  1  0
  2  3  1  0
  3  4  1  0
  4  5  2  0
  5  6  1  0
  7  8  2  0
  7  6  1  0
  9  8  1  0
 10  9  2  0
 11 10  1  0
 11 12  2  0
 12  4  1  0
 12  7  1  0
 13 14  2  0
 15 13  1  0
 15 19  1  0
 16 17  1  0
 16 15  1  0
 17 18  1  0
 18 19  1  0
 19 20  1  1
 20 21  2  0
 22 23  1  0
 23 24  1  0
 24 26  1  0
 24 25  1  1
 26 28  1  0
 26 27  1  6
 27 20  1  0
 28 30  1  0
 29 28  2  0
M  END
$$$$
