WPI.pdb
     RDKit          3D

 30 32  0  0  1  0  0  0  0  0999 V2000
   22.4310  -19.8125  -16.4657 N   0  0  0  0  0  0  0  0  0  0  0  0
   23.6800  -19.1760  -16.0765 C   0  0  1  0  0  0  0  0  0  0  0  0
   23.3020  -17.7909  -15.6145 C   0  0  0  0  0  0  0  0  0  0  0  0
   22.8770  -16.8630  -16.6670 C   0  0  0  0  0  0  0  0  0  0  0  0
   21.6000  -16.3641  -16.8769 C   0  0  0  0  0  0  0  0  0  0  0  0
   21.5918  -15.5565  -17.9539 N   0  0  0  0  0  0  0  0  0  0  0  0
   22.8460  -15.5169  -18.4552 C   0  0  0  0  0  0  0  0  0  0  0  0
   23.3673  -14.8429  -19.5246 C   0  0  0  0  0  0  0  0  0  0  0  0
   24.7275  -14.9629  -19.8299 C   0  0  0  0  0  0  0  0  0  0  0  0
   25.5491  -15.7494  -19.0698 C   0  0  0  0  0  0  0  0  0  0  0  0
   24.9979  -16.4164  -18.0005 C   0  0  0  0  0  0  0  0  0  0  0  0
   23.6529  -16.3239  -17.6645 C   0  0  0  0  0  0  0  0  0  0  0  0
   24.5039  -19.9530  -15.1636 C   0  0  0  0  0  0  0  0  0  0  0  0
   23.8862  -20.8190  -14.4533 O   0  0  0  0  0  0  0  0  0  0  0  0
   25.9070  -19.8539  -14.9780 N   0  0  0  0  0  0  0  0  0  0  0  0
   26.8454  -18.9285  -15.5761 C   0  0  0  0  0  0  0  0  0  0  0  0
   28.1594  -19.6701  -15.6527 C   0  0  0  0  0  0  0  0  0  0  0  0
   27.9400  -20.9341  -14.8922 C   0  0  0  0  0  0  0  0  0  0  0  0
   26.6876  -20.7153  -14.1098 C   0  0  1  0  0  0  0  0  0  0  0  0
   26.9013  -20.1607  -12.7667 C   0  0  0  0  0  0  0  0  0  0  0  0
   27.1485  -18.9293  -12.6885 O   0  0  0  0  0  0  0  0  0  0  0  0
   23.5431  -20.4167   -8.8809 C   0  0  0  0  0  0  0  0  0  0  0  0
   24.6388  -20.0730   -9.8724 C   0  0  0  0  0  0  0  0  0  0  0  0
   25.9782  -20.4722   -9.2968 C   0  0  2  0  0  0  0  0  0  0  0  0
   26.1812  -19.7449   -8.0068 C   0  0  0  0  0  0  0  0  0  0  0  0
   27.1063  -20.2850  -10.2640 C   0  0  2  0  0  0  0  0  0  0  0  0
   26.8560  -20.8779  -11.5503 N   0  0  0  0  0  0  0  0  0  0  0  0
   28.3821  -20.7046   -9.6722 C   0  0  0  0  0  0  0  0  0  0  0  0
   28.9005  -20.0969   -8.7024 O   0  0  0  0  0  0  0  0  0  0  0  0
   29.1064  -21.8103  -10.1491 O   0  0  0  0  0  0  0  0  0  0  0  0
  2  1  1  1
  2 13  1  0
  2  3  1  0
  3  4  1  0
  4  5  2  0
  5  6  1  0
  7  8  2  0
  7  6  1  0
  9  8  1  0
 10  9  2  0
 11 10  1  0
 11 12  2  0
 12  4  1  0
 12  7  1  0
 13 14  2  0
 15 13  1  0
 15 19  1  0
 16 17  1  0
 16 15  1  0
 17 18  1  0
 18 19  1  0
 19 20  1  1
 20 21  2  0
 22 23  1  0
 23 24  1  0
 24 26  1  0
 24 25  1  1
 26 28  1  0
 26 27  1  6
 27 20  1  0
 28 30  1  0
 29 28  2  0
M  END
$$$$
