WPI.pdb
     RDKit          3D

 30 32  0  0  1  0  0  0  0  0999 V2000
   12.7211  -24.3129   -5.5269 N   0  0  0  0  0  0  0  0  0  0  0  0
   13.9654  -24.0073   -4.8378 C   0  0  1  0  0  0  0  0  0  0  0  0
   13.9225  -22.5251   -4.5623 C   0  0  0  0  0  0  0  0  0  0  0  0
   13.3700  -21.6941   -5.6362 C   0  0  0  0  0  0  0  0  0  0  0  0
   13.7262  -21.7134   -6.9765 C   0  0  0  0  0  0  0  0  0  0  0  0
   13.0175  -20.7918   -7.6553 N   0  0  0  0  0  0  0  0  0  0  0  0
   12.1996  -20.1668   -6.7800 C   0  0  0  0  0  0  0  0  0  0  0  0
   11.2797  -19.1713   -6.9606 C   0  0  0  0  0  0  0  0  0  0  0  0
   10.5381  -18.7001   -5.8717 C   0  0  0  0  0  0  0  0  0  0  0  0
   10.7205  -19.2235   -4.6210 C   0  0  0  0  0  0  0  0  0  0  0  0
   11.6528  -20.2234   -4.4682 C   0  0  0  0  0  0  0  0  0  0  0  0
   12.4092  -20.7184   -5.5233 C   0  0  0  0  0  0  0  0  0  0  0  0
   14.2594  -24.8623   -3.6982 C   0  0  0  0  0  0  0  0  0  0  0  0
   13.2454  -25.3343   -3.0779 O   0  0  0  0  0  0  0  0  0  0  0  0
   15.5393  -25.2253   -3.2052 N   0  0  0  0  0  0  0  0  0  0  0  0
   16.8454  -24.7643   -3.6249 C   0  0  0  0  0  0  0  0  0  0  0  0
   17.7897  -25.9136   -3.3609 C   0  0  0  0  0  0  0  0  0  0  0  0
   16.9854  -26.9141   -2.6018 C   0  0  0  0  0  0  0  0  0  0  0  0
   15.7722  -26.1790   -2.1368 C   0  0  1  0  0  0  0  0  0  0  0  0
   15.9101  -25.5585   -0.8127 C   0  0  0  0  0  0  0  0  0  0  0  0
   16.5129  -24.4553   -0.7574 O   0  0  0  0  0  0  0  0  0  0  0  0
   11.7245  -24.6210    2.2106 C   0  0  0  0  0  0  0  0  0  0  0  0
   13.0741  -24.5209    1.5248 C   0  0  0  0  0  0  0  0  0  0  0  0
   14.0964  -25.3059    2.3146 C   0  0  2  0  0  0  0  0  0  0  0  0
   14.1484  -24.7612    3.7055 C   0  0  0  0  0  0  0  0  0  0  0  0
   15.4367  -25.3516    1.6478 C   0  0  2  0  0  0  0  0  0  0  0  0
   15.4301  -26.0819    0.4087 N   0  0  0  0  0  0  0  0  0  0  0  0
   16.4738  -25.8062    2.5814 C   0  0  0  0  0  0  0  0  0  0  0  0
   16.9744  -25.0445    3.4461 O   0  0  0  0  0  0  0  0  0  0  0  0
   16.9743  -27.1192    2.5706 O   0  0  0  0  0  0  0  0  0  0  0  0
  2  1  1  1
  2 13  1  0
  2  3  1  0
  3  4  1  0
  4  5  2  0
  5  6  1  0
  7  8  2  0
  7  6  1  0
  9  8  1  0
 10  9  2  0
 11 10  1  0
 11 12  2  0
 12  4  1  0
 12  7  1  0
 13 14  2  0
 15 13  1  0
 15 19  1  0
 16 17  1  0
 16 15  1  0
 17 18  1  0
 18 19  1  0
 19 20  1  1
 20 21  2  0
 22 23  1  0
 23 24  1  0
 24 26  1  0
 24 25  1  1
 26 28  1  0
 26 27  1  6
 27 20  1  0
 28 30  1  0
 29 28  2  0
M  END
$$$$
