SQN.pdb
     RDKit          3D

 24 23  0  0  1  0  0  0  0  0999 V2000
    7.0656  -18.7187   21.5595 O   0  0  0  0  0  0  0  0  0  0  0  0
    6.0987  -18.3561   20.6542 C   0  0  0  0  0  0  0  0  0  0  0  0
    6.6870  -17.9055   19.3306 C   0  0  2  0  0  0  0  0  0  0  0  0
    7.1121  -19.0513   18.5937 N   0  0  0  0  0  0  0  0  0  0  0  0
    7.7770  -16.9246   19.5102 C   0  0  0  0  0  0  0  0  0  0  0  0
    8.9926  -17.2517   19.4827 O   0  0  0  0  0  0  0  0  0  0  0  0
    9.1756  -12.5963   17.3936 N   0  0  0  0  0  0  0  0  0  0  0  0
    7.8859  -13.2141   17.4796 C   0  0  0  0  0  0  0  0  0  0  0  0
    7.5613  -13.9757   16.5499 O   0  0  0  0  0  0  0  0  0  0  0  0
    6.9664  -12.9800   18.6003 C   0  0  0  0  0  0  0  0  0  0  0  0
    7.6891  -13.1895   19.9060 C   0  0  0  0  0  0  0  0  0  0  0  0
    8.4162  -14.5077   19.9236 C   0  0  2  0  0  0  0  0  0  0  0  0
    7.4478  -15.5637   19.7228 N   0  0  0  0  0  0  0  0  0  0  0  0
    9.0896  -14.6246   21.2421 C   0  0  0  0  0  0  0  0  0  0  0  0
    9.9022  -13.7217   21.5493 O   0  0  0  0  0  0  0  0  0  0  0  0
    8.5706  -15.7538   27.0828 N   0  0  0  0  0  0  0  0  0  0  0  0
    9.2102  -15.9860   25.8326 C   0  0  0  0  0  0  0  0  0  0  0  0
   10.4548  -16.2902   25.9030 O   0  0  0  0  0  0  0  0  0  0  0  0
    8.5614  -15.9060   24.5145 C   0  0  0  0  0  0  0  0  0  0  0  0
    9.5770  -15.7005   23.4320 C   0  0  2  0  0  0  0  0  0  0  0  0
    8.8517  -15.6921   22.1410 N   0  0  0  0  0  0  0  0  0  0  0  0
   10.5097  -16.8768   23.4219 C   0  0  0  0  0  0  0  0  0  0  0  0
   10.2712  -17.8734   22.6554 O   0  0  0  0  0  0  0  0  0  0  0  0
   11.6384  -16.9794   24.1923 O   0  0  0  0  0  0  0  0  0  0  0  0
  2  1  1  0
  2  3  1  0
  3  4  1  1
  5  3  1  0
  5  6  2  0
  7  8  1  0
  8 10  1  0
  9  8  2  0
 10 11  1  0
 12 11  1  1
 12 13  1  0
 13  5  1  0
 14 12  1  0
 15 14  2  0
 16 17  1  0
 17 19  1  0
 18 17  2  0
 20 19  1  1
 20 21  1  0
 20 22  1  0
 21 14  1  0
 22 24  1  0
 23 22  2  0
M  END
$$$$
