SQN.pdb
     RDKit          3D

 24 23  0  0  1  0  0  0  0  0999 V2000
   11.6313  -18.3742   15.5382 O   0  0  0  0  0  0  0  0  0  0  0  0
   10.4944  -17.7307   15.1149 C   0  0  0  0  0  0  0  0  0  0  0  0
   10.7176  -16.2458   14.8994 C   0  0  2  0  0  0  0  0  0  0  0  0
   11.5794  -16.0607   13.7770 N   0  0  0  0  0  0  0  0  0  0  0  0
   11.2332  -15.5780   16.1121 C   0  0  0  0  0  0  0  0  0  0  0  0
   12.4431  -15.2550   16.2436 O   0  0  0  0  0  0  0  0  0  0  0  0
    7.0869  -13.4199   20.3743 N   0  0  0  0  0  0  0  0  0  0  0  0
    7.3078  -12.9473   19.0401 C   0  0  0  0  0  0  0  0  0  0  0  0
    6.4182  -12.2353   18.5385 O   0  0  0  0  0  0  0  0  0  0  0  0
    8.5179  -13.2701   18.2733 C   0  0  0  0  0  0  0  0  0  0  0  0
    9.4028  -14.1867   19.0781 C   0  0  0  0  0  0  0  0  0  0  0  0
   10.6752  -14.5065   18.3394 C   0  0  2  0  0  0  0  0  0  0  0  0
   10.3374  -15.2888   17.1701 N   0  0  0  0  0  0  0  0  0  0  0  0
   11.5501  -15.2628   19.2712 C   0  0  0  0  0  0  0  0  0  0  0  0
   11.4381  -16.5108   19.2721 O   0  0  0  0  0  0  0  0  0  0  0  0
   15.7123  -12.9417   19.7077 N   0  0  0  0  0  0  0  0  0  0  0  0
   15.3520  -14.2721   20.0629 C   0  0  0  0  0  0  0  0  0  0  0  0
   15.7352  -15.1805   19.2416 O   0  0  0  0  0  0  0  0  0  0  0  0
   14.5998  -14.6599   21.2665 C   0  0  0  0  0  0  0  0  0  0  0  0
   13.4114  -15.4982   20.9054 C   0  0  2  0  0  0  0  0  0  0  0  0
   12.4824  -14.6398   20.1355 N   0  0  0  0  0  0  0  0  0  0  0  0
   12.7118  -15.9056   22.1697 C   0  0  0  0  0  0  0  0  0  0  0  0
   11.5573  -15.4261   22.4428 O   0  0  0  0  0  0  0  0  0  0  0  0
   13.2227  -16.7808   23.0923 O   0  0  0  0  0  0  0  0  0  0  0  0
  2  1  1  0
  2  3  1  0
  3  4  1  6
  5  3  1  0
  5  6  2  0
  7  8  1  0
  8 10  1  0
  9  8  2  0
 10 11  1  0
 12 11  1  1
 12 13  1  0
 13  5  1  0
 14 12  1  0
 15 14  2  0
 16 17  1  0
 17 19  1  0
 18 17  2  0
 20 19  1  1
 20 21  1  0
 20 22  1  0
 21 14  1  0
 22 24  1  0
 23 22  2  0
M  END
$$$$
