SQN.pdb
     RDKit          3D

 24 23  0  0  1  0  0  0  0  0999 V2000
   17.5464  -15.8922   17.0752 O   0  0  0  0  0  0  0  0  0  0  0  0
   16.5595  -15.3929   17.8893 C   0  0  0  0  0  0  0  0  0  0  0  0
   15.5318  -14.5836   17.1211 C   0  0  2  0  0  0  0  0  0  0  0  0
   16.1968  -13.5465   16.4009 N   0  0  0  0  0  0  0  0  0  0  0  0
   14.4679  -14.0559   17.9998 C   0  0  0  0  0  0  0  0  0  0  0  0
   14.6608  -13.0996   18.7960 O   0  0  0  0  0  0  0  0  0  0  0  0
   11.0381  -16.7473   15.1996 N   0  0  0  0  0  0  0  0  0  0  0  0
   10.3606  -16.3054   16.3820 C   0  0  0  0  0  0  0  0  0  0  0  0
    9.5561  -17.1003   16.9025 O   0  0  0  0  0  0  0  0  0  0  0  0
   10.5836  -14.9817   16.9773 C   0  0  0  0  0  0  0  0  0  0  0  0
   10.8897  -15.1272   18.4456 C   0  0  0  0  0  0  0  0  0  0  0  0
   12.0901  -14.3075   18.8382 C   0  0  2  0  0  0  0  0  0  0  0  0
   13.1810  -14.6447   17.9497 N   0  0  0  0  0  0  0  0  0  0  0  0
   12.4102  -14.6389   20.2501 C   0  0  0  0  0  0  0  0  0  0  0  0
   11.5102  -14.4438   21.0996 O   0  0  0  0  0  0  0  0  0  0  0  0
   13.9011  -16.2964   24.8132 N   0  0  0  0  0  0  0  0  0  0  0  0
   13.1472  -17.0126   23.8414 C   0  0  0  0  0  0  0  0  0  0  0  0
   12.5773  -18.0799   24.2688 O   0  0  0  0  0  0  0  0  0  0  0  0
   12.9822  -16.6225   22.4323 C   0  0  0  0  0  0  0  0  0  0  0  0
   13.8649  -15.4597   22.0942 C   0  0  2  0  0  0  0  0  0  0  0  0
   13.6636  -15.1545   20.6592 N   0  0  0  0  0  0  0  0  0  0  0  0
   15.2956  -15.8774   22.2738 C   0  0  0  0  0  0  0  0  0  0  0  0
   15.8267  -16.7037   21.4536 O   0  0  0  0  0  0  0  0  0  0  0  0
   16.1139  -15.4329   23.2793 O   0  0  0  0  0  0  0  0  0  0  0  0
  2  1  1  0
  2  3  1  0
  3  4  1  1
  5  3  1  0
  5  6  2  0
  7  8  1  0
  8 10  1  0
  9  8  2  0
 10 11  1  0
 12 11  1  6
 12 13  1  0
 13  5  1  0
 14 12  1  0
 15 14  2  0
 16 17  1  0
 17 19  1  0
 18 17  2  0
 20 19  1  6
 20 21  1  0
 20 22  1  0
 21 14  1  0
 22 24  1  0
 23 22  2  0
M  END
$$$$
