SQN.pdb
     RDKit          3D

 24 23  0  0  1  0  0  0  0  0999 V2000
    8.5880  -18.7529   16.4713 O   0  0  0  0  0  0  0  0  0  0  0  0
    9.3039  -17.7949   17.1463 C   0  0  0  0  0  0  0  0  0  0  0  0
    9.1628  -17.9221   18.6512 C   0  0  2  0  0  0  0  0  0  0  0  0
    7.8063  -18.2310   18.9691 N   0  0  0  0  0  0  0  0  0  0  0  0
    9.6387  -16.7161   19.3595 C   0  0  0  0  0  0  0  0  0  0  0  0
   10.8387  -16.3368   19.3181 O   0  0  0  0  0  0  0  0  0  0  0  0
    9.1586  -12.4677   18.8373 N   0  0  0  0  0  0  0  0  0  0  0  0
    7.9883  -13.2100   18.4745 C   0  0  0  0  0  0  0  0  0  0  0  0
    7.7355  -13.3078   17.2594 O   0  0  0  0  0  0  0  0  0  0  0  0
    7.1074  -13.8389   19.4669 C   0  0  0  0  0  0  0  0  0  0  0  0
    7.7871  -13.8610   20.8117 C   0  0  0  0  0  0  0  0  0  0  0  0
    9.0301  -14.7100   20.7828 C   0  0  2  0  0  0  0  0  0  0  0  0
    8.7148  -15.9547   20.1159 N   0  0  0  0  0  0  0  0  0  0  0  0
    9.4474  -14.9325   22.1906 C   0  0  0  0  0  0  0  0  0  0  0  0
    9.7096  -13.9162   22.8749 O   0  0  0  0  0  0  0  0  0  0  0  0
    6.5587  -16.3765   24.4656 N   0  0  0  0  0  0  0  0  0  0  0  0
    7.7884  -16.2744   25.1751 C   0  0  0  0  0  0  0  0  0  0  0  0
    7.8156  -15.3822   26.0969 O   0  0  0  0  0  0  0  0  0  0  0  0
    8.9844  -17.0961   24.9321 C   0  0  0  0  0  0  0  0  0  0  0  0
   10.0191  -16.3207   24.1747 C   0  0  2  0  0  0  0  0  0  0  0  0
    9.5561  -16.2188   22.7718 N   0  0  0  0  0  0  0  0  0  0  0  0
   11.2994  -17.1046   24.1751 C   0  0  0  0  0  0  0  0  0  0  0  0
   11.6839  -17.6988   23.1090 O   0  0  0  0  0  0  0  0  0  0  0  0
   12.1240  -17.2442   25.2608 O   0  0  0  0  0  0  0  0  0  0  0  0
  2  1  1  0
  2  3  1  0
  3  4  1  6
  5  3  1  0
  5  6  2  0
  7  8  1  0
  8 10  1  0
  9  8  2  0
 10 11  1  0
 12 11  1  1
 12 13  1  0
 13  5  1  0
 14 12  1  0
 15 14  2  0
 16 17  1  0
 17 19  1  0
 18 17  2  0
 20 19  1  1
 20 21  1  0
 20 22  1  0
 21 14  1  0
 22 24  1  0
 23 22  2  0
M  END
$$$$
