SQN.pdb
     RDKit          3D

 24 23  0  0  1  0  0  0  0  0999 V2000
   10.7549  -19.6294   18.4957 O   0  0  0  0  0  0  0  0  0  0  0  0
   11.6712  -19.1682   17.5827 C   0  0  0  0  0  0  0  0  0  0  0  0
   11.4413  -17.7138   17.2182 C   0  0  2  0  0  0  0  0  0  0  0  0
   12.4481  -17.2981   16.2962 N   0  0  0  0  0  0  0  0  0  0  0  0
   11.3855  -16.8426   18.4101 C   0  0  0  0  0  0  0  0  0  0  0  0
   12.4200  -16.3758   18.9556 O   0  0  0  0  0  0  0  0  0  0  0  0
    6.8456  -12.0136   19.4447 N   0  0  0  0  0  0  0  0  0  0  0  0
    7.2212  -13.2823   18.8954 C   0  0  0  0  0  0  0  0  0  0  0  0
    6.3395  -13.9185   18.2890 O   0  0  0  0  0  0  0  0  0  0  0  0
    8.5759  -13.8340   19.0246 C   0  0  0  0  0  0  0  0  0  0  0  0
    8.5610  -15.0084   19.9687 C   0  0  0  0  0  0  0  0  0  0  0  0
    9.9268  -15.6303   20.0902 C   0  0  2  0  0  0  0  0  0  0  0  0
   10.1237  -16.5181   18.9649 N   0  0  0  0  0  0  0  0  0  0  0  0
    9.9663  -16.3638   21.3809 C   0  0  0  0  0  0  0  0  0  0  0  0
    9.4862  -17.5211   21.3939 O   0  0  0  0  0  0  0  0  0  0  0  0
   12.3760  -18.3992   22.6441 N   0  0  0  0  0  0  0  0  0  0  0  0
   12.7401  -17.5556   23.7311 C   0  0  0  0  0  0  0  0  0  0  0  0
   13.9550  -17.6687   24.1283 O   0  0  0  0  0  0  0  0  0  0  0  0
   11.8491  -16.5961   24.4022 C   0  0  0  0  0  0  0  0  0  0  0  0
   10.4769  -16.6325   23.8012 C   0  0  2  0  0  0  0  0  0  0  0  0
   10.5133  -15.8162   22.5663 N   0  0  0  0  0  0  0  0  0  0  0  0
    9.5204  -15.9746   24.7530 C   0  0  0  0  0  0  0  0  0  0  0  0
    9.1200  -14.7797   24.5309 O   0  0  0  0  0  0  0  0  0  0  0  0
    9.0194  -16.5663   25.8831 O   0  0  0  0  0  0  0  0  0  0  0  0
  2  1  1  0
  2  3  1  0
  3  4  1  6
  5  3  1  0
  5  6  2  0
  7  8  1  0
  8 10  1  0
  9  8  2  0
 10 11  1  0
 12 11  1  6
 12 13  1  0
 13  5  1  0
 14 12  1  0
 15 14  2  0
 16 17  1  0
 17 19  1  0
 18 17  2  0
 20 19  1  1
 20 21  1  0
 20 22  1  0
 21 14  1  0
 22 24  1  0
 23 22  2  0
M  END
$$$$
