NAH.pdb
     RDKit          3D

 24 24  0  0  1  0  0  0  0  0999 V2000
   14.2522   -9.2662  -10.3340 N   0  0  0  0  0  0  0  0  0  0  0  0
   15.4735   -8.7922   -9.7989 C   0  0  0  0  0  0  0  0  0  0  0  0
   15.5660   -8.6536   -8.5610 O   0  0  0  0  0  0  0  0  0  0  0  0
   16.6038   -8.4727  -10.6941 C   0  0  0  0  0  0  0  0  0  0  0  0
   16.1747   -8.6916  -12.1076 C   0  0  2  0  0  0  0  0  0  0  0  0
   16.1694  -10.1151  -12.3614 N   0  0  0  0  0  0  0  0  0  0  0  0
   17.0423   -8.0022  -13.0918 C   0  0  0  0  0  0  0  0  0  0  0  0
   18.0239   -8.6131  -13.5856 O   0  0  0  0  0  0  0  0  0  0  0  0
   17.0389   -4.6880  -14.9550 C   0  0  0  0  0  0  0  0  0  0  0  0
   17.6337   -5.9870  -14.4871 C   0  0  2  0  0  0  0  0  0  0  0  0
   16.8254   -6.6699  -13.5159 N   0  0  0  0  0  0  0  0  0  0  0  0
   19.0076   -5.7195  -14.0067 C   0  0  0  0  0  0  0  0  0  0  0  0
   19.1576   -5.5207  -12.7745 O   0  0  0  0  0  0  0  0  0  0  0  0
   20.1464   -5.6729  -14.8275 N   0  0  0  0  0  0  0  0  0  0  0  0
   21.5081   -5.5019  -14.3433 C   0  0  1  0  0  0  0  0  0  0  0  0
   22.5031   -6.2015  -15.1939 C   0  0  0  0  0  0  0  0  0  0  0  0
   22.1430   -7.6234  -15.3733 C   0  0  0  0  0  0  0  0  0  0  0  0
   22.2874   -8.6966  -14.5065 C   0  0  0  0  0  0  0  0  0  0  0  0
   21.8439   -9.8118  -15.1015 N   0  0  0  0  0  0  0  0  0  0  0  0
   21.4205   -9.4938  -16.3180 C   0  0  0  0  0  0  0  0  0  0  0  0
   21.5941   -8.1917  -16.4911 N   0  0  0  0  0  0  0  0  0  0  0  0
   21.7759   -4.0578  -14.2506 C   0  0  0  0  0  0  0  0  0  0  0  0
   20.9275   -3.0611  -14.7049 O   0  0  0  0  0  0  0  0  0  0  0  0
   22.8502   -3.6501  -13.7257 O   0  0  0  0  0  0  0  0  0  0  0  0
  2  1  1  0
  3  2  2  0
  4  5  1  0
  4  2  1  0
  5  6  1  6
  7 11  1  0
  7  5  1  0
  8  7  2  0
 10  9  1  1
 10 12  1  0
 10 11  1  0
 12 14  1  0
 13 12  2  0
 14 15  1  0
 15 16  1  6
 15 22  1  0
 17 16  1  0
 18 17  2  0
 19 20  1  0
 19 18  1  0
 20 21  2  0
 21 17  1  0
 22 24  2  0
 22 23  1  0
M  END
$$$$
