NAH.pdb
     RDKit          3D

 24 24  0  0  1  0  0  0  0  0999 V2000
   17.2546  -14.8529  -17.9347 N   0  0  0  0  0  0  0  0  0  0  0  0
   17.6272  -15.2478  -16.6278 C   0  0  0  0  0  0  0  0  0  0  0  0
   17.0213  -16.2044  -16.1006 O   0  0  0  0  0  0  0  0  0  0  0  0
   18.7084  -14.5373  -15.9157 C   0  0  0  0  0  0  0  0  0  0  0  0
   19.2338  -13.4529  -16.7978 C   0  0  2  0  0  0  0  0  0  0  0  0
   20.1861  -14.0394  -17.7142 N   0  0  0  0  0  0  0  0  0  0  0  0
   19.8684  -12.3462  -16.0432 C   0  0  0  0  0  0  0  0  0  0  0  0
   19.1763  -11.6664  -15.2436 O   0  0  0  0  0  0  0  0  0  0  0  0
   23.3379  -10.8250  -15.6912 C   0  0  0  0  0  0  0  0  0  0  0  0
   21.8382  -10.8398  -15.5872 C   0  0  2  0  0  0  0  0  0  0  0  0
   21.2351  -12.0041  -16.1734 N   0  0  0  0  0  0  0  0  0  0  0  0
   21.3231   -9.5754  -16.1582 C   0  0  0  0  0  0  0  0  0  0  0  0
   20.8565   -9.6190  -17.3247 O   0  0  0  0  0  0  0  0  0  0  0  0
   21.3202   -8.3397  -15.4905 N   0  0  0  0  0  0  0  0  0  0  0  0
   20.5423   -7.1802  -15.9007 C   0  0  1  0  0  0  0  0  0  0  0  0
   19.0835   -7.4535  -15.9142 C   0  0  0  0  0  0  0  0  0  0  0  0
   18.3187   -6.2411  -16.2731 C   0  0  0  0  0  0  0  0  0  0  0  0
   18.7656   -4.9789  -16.6350 C   0  0  0  0  0  0  0  0  0  0  0  0
   17.7128   -4.1793  -16.8509 N   0  0  0  0  0  0  0  0  0  0  0  0
   16.6072   -4.8817  -16.6407 C   0  0  0  0  0  0  0  0  0  0  0  0
   16.9561   -6.1124  -16.2955 N   0  0  0  0  0  0  0  0  0  0  0  0
   20.8890   -6.0647  -15.0057 C   0  0  0  0  0  0  0  0  0  0  0  0
   21.6779   -6.1709  -13.8717 O   0  0  0  0  0  0  0  0  0  0  0  0
   20.4544   -4.9040  -15.2502 O   0  0  0  0  0  0  0  0  0  0  0  0
  2  1  1  0
  3  2  2  0
  4  5  1  0
  4  2  1  0
  5  6  1  6
  7 11  1  0
  7  5  1  0
  8  7  2  0
 10  9  1  6
 10 12  1  0
 10 11  1  0
 12 14  1  0
 13 12  2  0
 14 15  1  0
 15 16  1  1
 15 22  1  0
 17 16  1  0
 18 17  2  0
 19 20  1  0
 19 18  1  0
 20 21  2  0
 21 17  1  0
 22 24  2  0
 22 23  1  0
M  END
$$$$
