NAH.pdb
     RDKit          3D

 24 24  0  0  1  0  0  0  0  0999 V2000
   27.0939  -24.3447  -15.3626 N   0  0  0  0  0  0  0  0  0  0  0  0
   26.0873  -24.0141  -16.3008 C   0  0  0  0  0  0  0  0  0  0  0  0
   25.9667  -24.7274  -17.3191 O   0  0  0  0  0  0  0  0  0  0  0  0
   25.2073  -22.8510  -16.0691 C   0  0  0  0  0  0  0  0  0  0  0  0
   25.6244  -22.1768  -14.8036 C   0  0  2  0  0  0  0  0  0  0  0  0
   25.2716  -23.0379  -13.6970 N   0  0  0  0  0  0  0  0  0  0  0  0
   25.0073  -20.8410  -14.6261 C   0  0  0  0  0  0  0  0  0  0  0  0
   23.8760  -20.7493  -14.0855 O   0  0  0  0  0  0  0  0  0  0  0  0
   25.9968  -17.2150  -15.2207 C   0  0  0  0  0  0  0  0  0  0  0  0
   25.0471  -18.3344  -14.8962 C   0  0  2  0  0  0  0  0  0  0  0  0
   25.6302  -19.6393  -15.0382 N   0  0  0  0  0  0  0  0  0  0  0  0
   23.8271  -18.1570  -15.7148 C   0  0  0  0  0  0  0  0  0  0  0  0
   23.8336  -18.6499  -16.8712 O   0  0  0  0  0  0  0  0  0  0  0  0
   22.6715  -17.4806  -15.2908 N   0  0  0  0  0  0  0  0  0  0  0  0
   21.4257  -17.4221  -16.0407 C   0  0  1  0  0  0  0  0  0  0  0  0
   20.2398  -17.6913  -15.1897 C   0  0  0  0  0  0  0  0  0  0  0  0
   20.1217  -19.1319  -14.8826 C   0  0  0  0  0  0  0  0  0  0  0  0
   20.9382  -20.1919  -15.2481 C   0  0  0  0  0  0  0  0  0  0  0  0
   20.4299  -21.3325  -14.7634 N   0  0  0  0  0  0  0  0  0  0  0  0
   19.3175  -21.0436  -14.1008 C   0  0  0  0  0  0  0  0  0  0  0  0
   19.1237  -19.7344  -14.1652 N   0  0  0  0  0  0  0  0  0  0  0  0
   21.3528  -16.1047  -16.6924 C   0  0  0  0  0  0  0  0  0  0  0  0
   20.5493  -15.7986  -17.7790 O   0  0  0  0  0  0  0  0  0  0  0  0
   22.0609  -15.1508  -16.2631 O   0  0  0  0  0  0  0  0  0  0  0  0
  2  1  1  0
  3  2  2  0
  4  5  1  0
  4  2  1  0
  5  6  1  1
  7 11  1  0
  7  5  1  0
  8  7  2  0
 10  9  1  6
 10 12  1  0
 10 11  1  0
 12 14  1  0
 13 12  2  0
 14 15  1  0
 15 16  1  1
 15 22  1  0
 17 16  1  0
 18 17  2  0
 19 20  1  0
 19 18  1  0
 20 21  2  0
 21 17  1  0
 22 24  2  0
 22 23  1  0
M  END
$$$$
