NAH.pdb
     RDKit          3D

 24 24  0  0  1  0  0  0  0  0999 V2000
   17.1815  -12.8932  -18.0881 N   0  0  0  0  0  0  0  0  0  0  0  0
   16.9961  -13.0768  -16.6972 C   0  0  0  0  0  0  0  0  0  0  0  0
   16.0883  -13.8449  -16.3149 O   0  0  0  0  0  0  0  0  0  0  0  0
   17.8624  -12.3711  -15.7315 C   0  0  0  0  0  0  0  0  0  0  0  0
   18.7812  -11.4646  -16.4826 C   0  0  2  0  0  0  0  0  0  0  0  0
   19.7320  -12.2825  -17.2022 N   0  0  0  0  0  0  0  0  0  0  0  0
   19.4949  -10.5051  -15.6071 C   0  0  0  0  0  0  0  0  0  0  0  0
   18.8335   -9.7242  -14.8768 O   0  0  0  0  0  0  0  0  0  0  0  0
   23.0761   -9.8147  -14.5580 C   0  0  0  0  0  0  0  0  0  0  0  0
   21.6222   -9.4733  -14.7311 C   0  0  2  0  0  0  0  0  0  0  0  0
   20.9056  -10.4155  -15.5443 N   0  0  0  0  0  0  0  0  0  0  0  0
   21.5309   -8.0868  -15.2404 C   0  0  0  0  0  0  0  0  0  0  0  0
   21.6196   -7.9237  -16.4837 O   0  0  0  0  0  0  0  0  0  0  0  0
   21.3531   -6.9497  -14.4352 N   0  0  0  0  0  0  0  0  0  0  0  0
   21.2931   -5.5842  -14.9348 C   0  0  1  0  0  0  0  0  0  0  0  0
   19.9292   -5.0064  -14.8400 C   0  0  0  0  0  0  0  0  0  0  0  0
   19.0143   -5.6407  -15.8117 C   0  0  0  0  0  0  0  0  0  0  0  0
   19.0991   -5.7245  -17.1936 C   0  0  0  0  0  0  0  0  0  0  0  0
   18.0273   -6.3741  -17.6664 N   0  0  0  0  0  0  0  0  0  0  0  0
   17.2580   -6.7099  -16.6390 C   0  0  0  0  0  0  0  0  0  0  0  0
   17.8364   -6.2777  -15.5281 N   0  0  0  0  0  0  0  0  0  0  0  0
   22.2849   -4.7886  -14.1938 C   0  0  0  0  0  0  0  0  0  0  0  0
   22.6067   -3.4682  -14.4633 O   0  0  0  0  0  0  0  0  0  0  0  0
   22.9167   -5.3093  -13.2318 O   0  0  0  0  0  0  0  0  0  0  0  0
  2  1  1  0
  3  2  2  0
  4  5  1  0
  4  2  1  0
  5  6  1  1
  7 11  1  0
  7  5  1  0
  8  7  2  0
 10  9  1  6
 10 12  1  0
 10 11  1  0
 12 14  1  0
 13 12  2  0
 14 15  1  0
 15 16  1  1
 15 22  1  0
 17 16  1  0
 18 17  2  0
 19 20  1  0
 19 18  1  0
 20 21  2  0
 21 17  1  0
 22 24  2  0
 22 23  1  0
M  END
$$$$
