NAH.pdb
     RDKit          3D

 24 24  0  0  1  0  0  0  0  0999 V2000
   16.3679  -26.0177   -2.8154 N   0  0  0  0  0  0  0  0  0  0  0  0
   15.9598  -24.7072   -3.1600 C   0  0  0  0  0  0  0  0  0  0  0  0
   16.1786  -24.3027   -4.3214 O   0  0  0  0  0  0  0  0  0  0  0  0
   15.2924  -23.8488   -2.1606 C   0  0  0  0  0  0  0  0  0  0  0  0
   15.2011  -24.5946   -0.8701 C   0  0  2  0  0  0  0  0  0  0  0  0
   14.2980  -25.7084   -1.0565 N   0  0  0  0  0  0  0  0  0  0  0  0
   14.7419  -23.7501    0.2580 C   0  0  0  0  0  0  0  0  0  0  0  0
   13.5108  -23.5587    0.4261 O   0  0  0  0  0  0  0  0  0  0  0  0
   16.3010  -22.1011    3.3011 C   0  0  0  0  0  0  0  0  0  0  0  0
   15.2081  -22.3428    2.2975 C   0  0  2  0  0  0  0  0  0  0  0  0
   15.6266  -23.1348    1.1748 N   0  0  0  0  0  0  0  0  0  0  0  0
   14.6476  -21.0321    1.9003 C   0  0  0  0  0  0  0  0  0  0  0  0
   15.2272  -20.4167    0.9698 O   0  0  0  0  0  0  0  0  0  0  0  0
   13.5209  -20.4335    2.4878 N   0  0  0  0  0  0  0  0  0  0  0  0
   12.9533  -19.1582    2.0765 C   0  0  1  0  0  0  0  0  0  0  0  0
   11.4699  -19.1858    2.0356 C   0  0  0  0  0  0  0  0  0  0  0  0
   10.9257  -17.8839    1.5969 C   0  0  0  0  0  0  0  0  0  0  0  0
   10.8164  -17.3463    0.3229 C   0  0  0  0  0  0  0  0  0  0  0  0
   10.2800  -16.1214    0.4016 N   0  0  0  0  0  0  0  0  0  0  0  0
   10.0415  -15.8531    1.6788 C   0  0  0  0  0  0  0  0  0  0  0  0
   10.4226  -16.8968    2.4008 N   0  0  0  0  0  0  0  0  0  0  0  0
   13.4635  -18.1221    2.9886 C   0  0  0  0  0  0  0  0  0  0  0  0
   13.4385  -16.7597    2.7376 O   0  0  0  0  0  0  0  0  0  0  0  0
   13.9735  -18.4546    4.0954 O   0  0  0  0  0  0  0  0  0  0  0  0
  2  1  1  0
  3  2  2  0
  4  5  1  0
  4  2  1  0
  5  6  1  6
  7 11  1  0
  7  5  1  0
  8  7  2  0
 10  9  1  1
 10 12  1  0
 10 11  1  0
 12 14  1  0
 13 12  2  0
 14 15  1  0
 15 16  1  1
 15 22  1  0
 17 16  1  0
 18 17  2  0
 19 20  1  0
 19 18  1  0
 20 21  2  0
 21 17  1  0
 22 24  2  0
 22 23  1  0
M  END
$$$$
