NAH.pdb
     RDKit          3D

 24 24  0  0  1  0  0  0  0  0999 V2000
   17.6534  -13.2039  -21.1891 N   0  0  0  0  0  0  0  0  0  0  0  0
   17.3856  -12.8835  -19.8370 C   0  0  0  0  0  0  0  0  0  0  0  0
   16.2885  -13.2295  -19.3503 O   0  0  0  0  0  0  0  0  0  0  0  0
   18.3881  -12.1570  -19.0318 C   0  0  0  0  0  0  0  0  0  0  0  0
   19.5740  -11.8638  -19.8907 C   0  0  2  0  0  0  0  0  0  0  0  0
   20.4033  -13.0476  -19.9330 N   0  0  0  0  0  0  0  0  0  0  0  0
   20.3649  -10.7048  -19.4134 C   0  0  0  0  0  0  0  0  0  0  0  0
   21.1354  -10.8448  -18.4298 O   0  0  0  0  0  0  0  0  0  0  0  0
   20.9772   -7.1113  -20.4994 C   0  0  0  0  0  0  0  0  0  0  0  0
   21.0334   -8.2776  -19.5524 C   0  0  2  0  0  0  0  0  0  0  0  0
   20.3017   -9.4246  -20.0126 N   0  0  0  0  0  0  0  0  0  0  0  0
   20.5934   -7.8113  -18.2187 C   0  0  0  0  0  0  0  0  0  0  0  0
   19.3948   -8.0204  -17.9027 O   0  0  0  0  0  0  0  0  0  0  0  0
   21.4177   -7.1560  -17.2891 N   0  0  0  0  0  0  0  0  0  0  0  0
   20.9859   -6.7061  -15.9742 C   0  0  1  0  0  0  0  0  0  0  0  0
   21.9882   -6.9978  -14.9190 C   0  0  0  0  0  0  0  0  0  0  0  0
   22.2378   -8.4502  -14.8098 C   0  0  0  0  0  0  0  0  0  0  0  0
   21.3493   -9.4951  -14.6031 C   0  0  0  0  0  0  0  0  0  0  0  0
   22.0258  -10.6499  -14.5483 N   0  0  0  0  0  0  0  0  0  0  0  0
   23.3153  -10.3846  -14.7119 C   0  0  0  0  0  0  0  0  0  0  0  0
   23.4537   -9.0762  -14.8686 N   0  0  0  0  0  0  0  0  0  0  0  0
   20.6805   -5.2695  -16.0666 C   0  0  0  0  0  0  0  0  0  0  0  0
   20.1432   -4.5036  -15.0447 O   0  0  0  0  0  0  0  0  0  0  0  0
   20.9077   -4.6463  -17.1417 O   0  0  0  0  0  0  0  0  0  0  0  0
  2  1  1  0
  3  2  2  0
  4  5  1  0
  4  2  1  0
  5  6  1  1
  7 11  1  0
  7  5  1  0
  8  7  2  0
 10  9  1  6
 10 12  1  0
 10 11  1  0
 12 14  1  0
 13 12  2  0
 14 15  1  0
 15 16  1  1
 15 22  1  0
 17 16  1  0
 18 17  2  0
 19 20  1  0
 19 18  1  0
 20 21  2  0
 21 17  1  0
 22 24  2  0
 22 23  1  0
M  END
$$$$
