NAH.pdb
     RDKit          3D

 24 24  0  0  1  0  0  0  0  0999 V2000
   15.8655  -11.6639  -16.3085 N   0  0  0  0  0  0  0  0  0  0  0  0
   17.0998  -12.3556  -16.3340 C   0  0  0  0  0  0  0  0  0  0  0  0
   17.1483  -13.4639  -16.9080 O   0  0  0  0  0  0  0  0  0  0  0  0
   18.2945  -11.7695  -15.6934 C   0  0  0  0  0  0  0  0  0  0  0  0
   18.8817  -10.7496  -16.6125 C   0  0  2  0  0  0  0  0  0  0  0  0
   19.5591  -11.4455  -17.6838 N   0  0  0  0  0  0  0  0  0  0  0  0
   19.8199   -9.8257  -15.9322 C   0  0  0  0  0  0  0  0  0  0  0  0
   19.4233   -9.1601  -14.9420 O   0  0  0  0  0  0  0  0  0  0  0  0
   23.5269   -9.0216  -16.0873 C   0  0  0  0  0  0  0  0  0  0  0  0
   22.0991   -8.7759  -15.6859 C   0  0  2  0  0  0  0  0  0  0  0  0
   21.1625   -9.6459  -16.3408 N   0  0  0  0  0  0  0  0  0  0  0  0
   21.7995   -7.3425  -15.8992 C   0  0  0  0  0  0  0  0  0  0  0  0
   21.5820   -6.9698  -17.0799 O   0  0  0  0  0  0  0  0  0  0  0  0
   21.7420   -6.3778  -14.8800 N   0  0  0  0  0  0  0  0  0  0  0  0
   21.4884   -4.9611  -15.0959 C   0  0  1  0  0  0  0  0  0  0  0  0
   20.2715   -4.4898  -14.3888 C   0  0  0  0  0  0  0  0  0  0  0  0
   19.0462   -4.9439  -15.0788 C   0  0  0  0  0  0  0  0  0  0  0  0
   18.8998   -5.6763  -16.2476 C   0  0  0  0  0  0  0  0  0  0  0  0
   17.5964   -5.8366  -16.5117 N   0  0  0  0  0  0  0  0  0  0  0  0
   16.9013   -5.2341  -15.5558 C   0  0  0  0  0  0  0  0  0  0  0  0
   17.7552   -4.6983  -14.6959 N   0  0  0  0  0  0  0  0  0  0  0  0
   22.6910   -4.2196  -14.6841 C   0  0  0  0  0  0  0  0  0  0  0  0
   22.9534   -2.8950  -14.9946 O   0  0  0  0  0  0  0  0  0  0  0  0
   23.5796   -4.7955  -13.9953 O   0  0  0  0  0  0  0  0  0  0  0  0
  2  1  1  0
  3  2  2  0
  4  5  1  0
  4  2  1  0
  5  6  1  6
  7 11  1  0
  7  5  1  0
  8  7  2  0
 10  9  1  6
 10 12  1  0
 10 11  1  0
 12 14  1  0
 13 12  2  0
 14 15  1  0
 15 16  1  1
 15 22  1  0
 17 16  1  0
 18 17  2  0
 19 20  1  0
 19 18  1  0
 20 21  2  0
 21 17  1  0
 22 24  2  0
 22 23  1  0
M  END
$$$$
