NAH.pdb
     RDKit          3D

 24 24  0  0  1  0  0  0  0  0999 V2000
   22.4747  -33.7111   -8.8660 N   0  0  0  0  0  0  0  0  0  0  0  0
   22.1505  -34.5807   -7.7977 C   0  0  0  0  0  0  0  0  0  0  0  0
   21.0503  -35.1717   -7.8254 O   0  0  0  0  0  0  0  0  0  0  0  0
   23.0993  -34.7760   -6.6830 C   0  0  0  0  0  0  0  0  0  0  0  0
   24.2580  -33.8527   -6.8702 C   0  0  2  0  0  0  0  0  0  0  0  0
   24.9904  -34.2807   -8.0412 N   0  0  0  0  0  0  0  0  0  0  0  0
   25.1595  -33.8057   -5.6948 C   0  0  0  0  0  0  0  0  0  0  0  0
   26.1041  -34.6307   -5.6065 O   0  0  0  0  0  0  0  0  0  0  0  0
   25.5179  -31.6901   -2.5464 C   0  0  0  0  0  0  0  0  0  0  0  0
   25.8662  -32.8077   -3.4898 C   0  0  2  0  0  0  0  0  0  0  0  0
   25.0157  -32.8673   -4.6456 N   0  0  0  0  0  0  0  0  0  0  0  0
   25.8828  -34.0723   -2.7214 C   0  0  0  0  0  0  0  0  0  0  0  0
   24.8602  -34.8003   -2.7897 O   0  0  0  0  0  0  0  0  0  0  0  0
   26.9551  -34.5110   -1.9274 N   0  0  0  0  0  0  0  0  0  0  0  0
   26.9481  -35.7266   -1.1273 C   0  0  1  0  0  0  0  0  0  0  0  0
   28.3079  -36.1155   -0.6770 C   0  0  0  0  0  0  0  0  0  0  0  0
   28.2664  -37.3488    0.1359 C   0  0  0  0  0  0  0  0  0  0  0  0
   27.6473  -37.5951    1.3524 C   0  0  0  0  0  0  0  0  0  0  0  0
   27.8968  -38.8555    1.7313 N   0  0  0  0  0  0  0  0  0  0  0  0
   28.6533  -39.4267    0.8031 C   0  0  0  0  0  0  0  0  0  0  0  0
   28.8801  -38.5378   -0.1529 N   0  0  0  0  0  0  0  0  0  0  0  0
   26.0287  -35.5178    0.0026 C   0  0  0  0  0  0  0  0  0  0  0  0
   25.2200  -36.4948    0.5605 O   0  0  0  0  0  0  0  0  0  0  0  0
   25.9356  -34.3759    0.5347 O   0  0  0  0  0  0  0  0  0  0  0  0
  2  1  1  0
  3  2  2  0
  4  5  1  0
  4  2  1  0
  5  6  1  6
  7 11  1  0
  7  5  1  0
  8  7  2  0
 10  9  1  1
 10 12  1  0
 10 11  1  0
 12 14  1  0
 13 12  2  0
 14 15  1  0
 15 16  1  1
 15 22  1  0
 17 16  1  0
 18 17  2  0
 19 20  1  0
 19 18  1  0
 20 21  2  0
 21 17  1  0
 22 24  2  0
 22 23  1  0
M  END
$$$$
