NAH.pdb
     RDKit          3D

 24 24  0  0  1  0  0  0  0  0999 V2000
   27.0794  -36.3611   -5.6507 N   0  0  0  0  0  0  0  0  0  0  0  0
   27.4514  -36.9248   -6.8944 C   0  0  0  0  0  0  0  0  0  0  0  0
   27.0503  -38.0755   -7.1691 O   0  0  0  0  0  0  0  0  0  0  0  0
   28.2939  -36.1600   -7.8357 C   0  0  0  0  0  0  0  0  0  0  0  0
   28.6222  -34.8384   -7.2227 C   0  0  2  0  0  0  0  0  0  0  0  0
   29.4474  -35.0742   -6.0590 N   0  0  0  0  0  0  0  0  0  0  0  0
   27.4200  -34.0583   -6.8448 C   0  0  0  0  0  0  0  0  0  0  0  0
   27.0900  -33.9783   -5.6344 O   0  0  0  0  0  0  0  0  0  0  0  0
   24.9159  -31.7890   -8.5862 C   0  0  0  0  0  0  0  0  0  0  0  0
   25.4385  -32.6205   -7.4479 C   0  0  2  0  0  0  0  0  0  0  0  0
   26.6062  -33.3852   -7.7864 N   0  0  0  0  0  0  0  0  0  0  0  0
   24.3291  -33.4581   -6.9404 C   0  0  0  0  0  0  0  0  0  0  0  0
   24.3489  -34.6798   -7.2360 O   0  0  0  0  0  0  0  0  0  0  0  0
   23.2638  -32.9845   -6.1570 N   0  0  0  0  0  0  0  0  0  0  0  0
   22.1114  -33.7801   -5.7608 C   0  0  1  0  0  0  0  0  0  0  0  0
   21.6040  -33.4104   -4.4158 C   0  0  0  0  0  0  0  0  0  0  0  0
   22.4876  -33.9319   -3.3524 C   0  0  0  0  0  0  0  0  0  0  0  0
   23.8094  -34.3476   -3.4148 C   0  0  0  0  0  0  0  0  0  0  0  0
   24.2010  -34.7683   -2.2048 N   0  0  0  0  0  0  0  0  0  0  0  0
   23.1792  -34.6383   -1.3686 C   0  0  0  0  0  0  0  0  0  0  0  0
   22.1522  -34.1406   -2.0418 N   0  0  0  0  0  0  0  0  0  0  0  0
   21.0817  -33.6322   -6.8016 C   0  0  0  0  0  0  0  0  0  0  0  0
   19.8575  -34.2812   -6.8068 O   0  0  0  0  0  0  0  0  0  0  0  0
   21.2874  -32.8668   -7.7853 O   0  0  0  0  0  0  0  0  0  0  0  0
  2  1  1  0
  3  2  2  0
  4  5  1  0
  4  2  1  0
  5  6  1  1
  7 11  1  0
  7  5  1  0
  8  7  2  0
 10  9  1  6
 10 12  1  0
 10 11  1  0
 12 14  1  0
 13 12  2  0
 14 15  1  0
 15 16  1  1
 15 22  1  0
 17 16  1  0
 18 17  2  0
 19 20  1  0
 19 18  1  0
 20 21  2  0
 21 17  1  0
 22 24  2  0
 22 23  1  0
M  END
$$$$
