GMS.pdb
     RDKit          3D

 19 18  0  0  1  0  0  0  0  0999 V2000
    4.9154  -20.2719   23.2812 N   0  0  0  0  0  0  0  0  0  0  0  0
    5.6854  -19.7666   24.3733 C   0  0  0  0  0  0  0  0  0  0  0  0
    6.2894  -18.4340   24.0709 C   0  0  0  0  0  0  0  0  0  0  0  0
    6.5986  -18.1524   22.8743 O   0  0  0  0  0  0  0  0  0  0  0  0
    7.2767  -10.9781   26.2700 C   0  0  0  0  0  0  0  0  0  0  0  0
    6.5776  -12.6130   26.6965 S   0  0  0  0  0  0  0  0  0  0  0  0
    7.2771  -13.7799   25.4477 C   0  0  0  0  0  0  0  0  0  0  0  0
    6.7391  -15.1586   25.7047 C   0  0  0  0  0  0  0  0  0  0  0  0
    7.2116  -16.1799   24.7365 C   0  0  2  0  0  0  0  0  0  0  0  0
    6.5357  -17.4590   25.0709 N   0  0  0  0  0  0  0  0  0  0  0  0
    8.6218  -16.4318   24.6002 C   0  0  0  0  0  0  0  0  0  0  0  0
    9.2074  -17.0838   25.5394 O   0  0  0  0  0  0  0  0  0  0  0  0
   11.0894  -15.3495   21.4220 O   0  0  0  0  0  0  0  0  0  0  0  0
   11.2887  -16.6026   21.9524 C   0  0  0  0  0  0  0  0  0  0  0  0
   10.8022  -16.6176   23.3709 C   0  0  2  0  0  0  0  0  0  0  0  0
    9.5003  -16.0639   23.5536 N   0  0  0  0  0  0  0  0  0  0  0  0
   11.8284  -15.9292   24.2009 C   0  0  0  0  0  0  0  0  0  0  0  0
   13.1509  -16.3082   24.1298 O   0  0  0  0  0  0  0  0  0  0  0  0
   11.5458  -14.9848   24.9942 O   0  0  0  0  0  0  0  0  0  0  0  0
  1  2  1  0
  2  3  1  0
  3 10  1  0
  3  4  2  0
  6  5  1  0
  7  8  1  0
  7  6  1  0
  9  8  1  1
 10  9  1  0
 11  9  1  0
 11 16  1  0
 12 11  2  0
 14 13  1  0
 15 14  1  6
 15 16  1  0
 15 17  1  0
 17 18  1  0
 19 17  2  0
M  END
$$$$
