GMS.pdb
     RDKit          3D

 19 18  0  0  1  0  0  0  0  0999 V2000
    4.7911  -19.1697   22.1892 N   0  0  0  0  0  0  0  0  0  0  0  0
    5.2034  -18.8246   23.5129 C   0  0  0  0  0  0  0  0  0  0  0  0
    6.1127  -17.6393   23.5311 C   0  0  0  0  0  0  0  0  0  0  0  0
    6.7219  -17.3109   22.4692 O   0  0  0  0  0  0  0  0  0  0  0  0
    5.6362  -11.7643   26.3968 C   0  0  0  0  0  0  0  0  0  0  0  0
    7.1602  -12.4476   27.1411 S   0  0  0  0  0  0  0  0  0  0  0  0
    7.8386  -13.6094   25.8761 C   0  0  0  0  0  0  0  0  0  0  0  0
    6.8697  -14.7392   25.6736 C   0  0  0  0  0  0  0  0  0  0  0  0
    7.3287  -15.7588   24.6970 C   0  0  2  0  0  0  0  0  0  0  0  0
    6.3286  -16.8562   24.6937 N   0  0  0  0  0  0  0  0  0  0  0  0
    8.6391  -16.3369   24.8357 C   0  0  0  0  0  0  0  0  0  0  0  0
    8.8266  -17.1736   25.7922 O   0  0  0  0  0  0  0  0  0  0  0  0
   12.0470  -15.5915   22.5350 O   0  0  0  0  0  0  0  0  0  0  0  0
   11.8332  -16.8983   22.9060 C   0  0  0  0  0  0  0  0  0  0  0  0
   10.9772  -16.9246   24.1372 C   0  0  2  0  0  0  0  0  0  0  0  0
    9.7990  -16.1247   24.0534 N   0  0  0  0  0  0  0  0  0  0  0  0
   11.8395  -16.5382   25.2874 C   0  0  0  0  0  0  0  0  0  0  0  0
   12.9935  -17.2395   25.5597 O   0  0  0  0  0  0  0  0  0  0  0  0
   11.5637  -15.5704   26.0544 O   0  0  0  0  0  0  0  0  0  0  0  0
  1  2  1  0
  2  3  1  0
  3 10  1  0
  3  4  2  0
  6  5  1  0
  7  8  1  0
  7  6  1  0
  9  8  1  1
 10  9  1  0
 11  9  1  0
 11 16  1  0
 12 11  2  0
 14 13  1  0
 15 14  1  6
 15 16  1  0
 15 17  1  0
 17 18  1  0
 19 17  2  0
M  END
$$$$
