GMS.pdb
     RDKit          3D

 19 18  0  0  1  0  0  0  0  0999 V2000
    4.9791  -19.2454   22.9714 N   0  0  0  0  0  0  0  0  0  0  0  0
    5.3722  -18.6741   24.2204 C   0  0  0  0  0  0  0  0  0  0  0  0
    6.3258  -17.5370   24.0472 C   0  0  0  0  0  0  0  0  0  0  0  0
    6.8696  -17.3528   22.9172 O   0  0  0  0  0  0  0  0  0  0  0  0
    6.9735  -11.0551   26.3077 C   0  0  0  0  0  0  0  0  0  0  0  0
    6.1242  -12.4773   27.0820 S   0  0  0  0  0  0  0  0  0  0  0  0
    6.1876  -13.8248   25.8210 C   0  0  0  0  0  0  0  0  0  0  0  0
    7.4847  -14.5696   25.9591 C   0  0  0  0  0  0  0  0  0  0  0  0
    7.6988  -15.6052   24.9172 C   0  0  2  0  0  0  0  0  0  0  0  0
    6.6545  -16.6448   25.0994 N   0  0  0  0  0  0  0  0  0  0  0  0
    8.9777  -16.2569   24.8148 C   0  0  0  0  0  0  0  0  0  0  0  0
    9.2723  -17.1404   25.6994 O   0  0  0  0  0  0  0  0  0  0  0  0
   11.7631  -15.8840   21.7379 O   0  0  0  0  0  0  0  0  0  0  0  0
   11.6825  -17.0981   22.3786 C   0  0  0  0  0  0  0  0  0  0  0  0
   11.1735  -16.8837   23.7730 C   0  0  2  0  0  0  0  0  0  0  0  0
   10.0014  -16.0747   23.8550 N   0  0  0  0  0  0  0  0  0  0  0  0
   12.2972  -16.3298   24.5769 C   0  0  0  0  0  0  0  0  0  0  0  0
   13.4997  -16.9983   24.6469 O   0  0  0  0  0  0  0  0  0  0  0  0
   12.2078  -15.2443   25.2209 O   0  0  0  0  0  0  0  0  0  0  0  0
  1  2  1  0
  2  3  1  0
  3 10  1  0
  3  4  2  0
  6  5  1  0
  7  8  1  0
  7  6  1  0
  9  8  1  1
 10  9  1  0
 11  9  1  0
 11 16  1  0
 12 11  2  0
 14 13  1  0
 15 14  1  6
 15 16  1  0
 15 17  1  0
 17 18  1  0
 19 17  2  0
M  END
$$$$
