GMS.pdb
     RDKit          3D

 19 18  0  0  1  0  0  0  0  0999 V2000
    7.9307  -15.3699   19.1741 N   0  0  0  0  0  0  0  0  0  0  0  0
    7.2229  -15.7947   20.3401 C   0  0  0  0  0  0  0  0  0  0  0  0
    7.8688  -15.3164   21.5995 C   0  0  0  0  0  0  0  0  0  0  0  0
    9.1330  -15.2448   21.6575 O   0  0  0  0  0  0  0  0  0  0  0  0
    6.1973  -11.1749   27.0093 C   0  0  0  0  0  0  0  0  0  0  0  0
    7.7491  -12.0053   26.5136 S   0  0  0  0  0  0  0  0  0  0  0  0
    7.3079  -13.7894   26.3332 C   0  0  0  0  0  0  0  0  0  0  0  0
    6.8010  -14.0341   24.9405 C   0  0  0  0  0  0  0  0  0  0  0  0
    7.8076  -14.6352   24.0299 C   0  0  2  0  0  0  0  0  0  0  0  0
    7.1255  -14.9349   22.7455 N   0  0  0  0  0  0  0  0  0  0  0  0
    8.5323  -15.8069   24.4453 C   0  0  0  0  0  0  0  0  0  0  0  0
    7.8900  -16.9176   24.5077 O   0  0  0  0  0  0  0  0  0  0  0  0
   12.5986  -16.2988   24.5428 O   0  0  0  0  0  0  0  0  0  0  0  0
   11.8197  -17.4297   24.4683 C   0  0  0  0  0  0  0  0  0  0  0  0
   10.5138  -17.1719   25.1593 C   0  0  2  0  0  0  0  0  0  0  0  0
    9.8941  -15.9363   24.8071 N   0  0  0  0  0  0  0  0  0  0  0  0
   10.7556  -17.2832   26.6239 C   0  0  0  0  0  0  0  0  0  0  0  0
   11.3418  -18.4136   27.1495 O   0  0  0  0  0  0  0  0  0  0  0  0
   10.4428  -16.3685   27.4404 O   0  0  0  0  0  0  0  0  0  0  0  0
  1  2  1  0
  2  3  1  0
  3 10  1  0
  3  4  2  0
  6  5  1  0
  7  8  1  0
  7  6  1  0
  9  8  1  1
 10  9  1  0
 11  9  1  0
 11 16  1  0
 12 11  2  0
 14 13  1  0
 15 14  1  6
 15 16  1  0
 15 17  1  0
 17 18  1  0
 19 17  2  0
M  END
$$$$
