GMS.pdb
     RDKit          3D

 19 18  0  0  1  0  0  0  0  0999 V2000
    7.5848  -15.2479   19.0433 N   0  0  0  0  0  0  0  0  0  0  0  0
    6.8068  -15.3788   20.2343 C   0  0  0  0  0  0  0  0  0  0  0  0
    7.5360  -14.8894   21.4430 C   0  0  0  0  0  0  0  0  0  0  0  0
    8.7877  -14.7009   21.3758 O   0  0  0  0  0  0  0  0  0  0  0  0
    7.1685  -11.3092   28.4132 C   0  0  0  0  0  0  0  0  0  0  0  0
    6.2406  -11.8940   26.9501 S   0  0  0  0  0  0  0  0  0  0  0  0
    7.4279  -12.9556   26.0157 C   0  0  0  0  0  0  0  0  0  0  0  0
    6.7844  -13.4074   24.7358 C   0  0  0  0  0  0  0  0  0  0  0  0
    7.6658  -14.2402   23.8794 C   0  0  2  0  0  0  0  0  0  0  0  0
    6.8862  -14.6233   22.6752 N   0  0  0  0  0  0  0  0  0  0  0  0
    8.2738  -15.4249   24.4247 C   0  0  0  0  0  0  0  0  0  0  0  0
    7.5407  -16.4728   24.5460 O   0  0  0  0  0  0  0  0  0  0  0  0
   11.3105  -17.1207   23.3422 O   0  0  0  0  0  0  0  0  0  0  0  0
   11.3954  -17.3071   24.7021 C   0  0  0  0  0  0  0  0  0  0  0  0
   10.1069  -16.8762   25.3373 C   0  0  2  0  0  0  0  0  0  0  0  0
    9.6038  -15.6286   24.8627 N   0  0  0  0  0  0  0  0  0  0  0  0
   10.3157  -16.8752   26.8112 C   0  0  0  0  0  0  0  0  0  0  0  0
   10.8040  -17.9956   27.4466 O   0  0  0  0  0  0  0  0  0  0  0  0
   10.0617  -15.8707   27.5374 O   0  0  0  0  0  0  0  0  0  0  0  0
  1  2  1  0
  2  3  1  0
  3 10  1  0
  3  4  2  0
  6  5  1  0
  7  8  1  0
  7  6  1  0
  9  8  1  1
 10  9  1  0
 11  9  1  0
 11 16  1  0
 12 11  2  0
 14 13  1  0
 15 14  1  6
 15 16  1  0
 15 17  1  0
 17 18  1  0
 19 17  2  0
M  END
$$$$
