GMS.pdb
     RDKit          3D

 19 18  0  0  1  0  0  0  0  0999 V2000
    4.8925  -19.4481   22.0389 N   0  0  0  0  0  0  0  0  0  0  0  0
    5.4836  -19.3732   23.3373 C   0  0  0  0  0  0  0  0  0  0  0  0
    6.3186  -18.1462   23.5087 C   0  0  0  0  0  0  0  0  0  0  0  0
    7.1823  -17.8579   22.6270 O   0  0  0  0  0  0  0  0  0  0  0  0
    7.7866  -11.3216   26.7487 C   0  0  0  0  0  0  0  0  0  0  0  0
    6.5718  -12.6221   26.3288 S   0  0  0  0  0  0  0  0  0  0  0  0
    7.5283  -14.2017   26.3435 C   0  0  0  0  0  0  0  0  0  0  0  0
    6.6212  -15.3317   25.9479 C   0  0  0  0  0  0  0  0  0  0  0  0
    7.1469  -16.1661   24.8382 C   0  0  2  0  0  0  0  0  0  0  0  0
    6.1886  -17.2799   24.6241 N   0  0  0  0  0  0  0  0  0  0  0  0
    8.4730  -16.7170   24.9295 C   0  0  0  0  0  0  0  0  0  0  0  0
    8.6744  -17.6555   25.7832 O   0  0  0  0  0  0  0  0  0  0  0  0
   11.9025  -15.7278   22.6806 O   0  0  0  0  0  0  0  0  0  0  0  0
   11.6955  -17.0424   23.0270 C   0  0  0  0  0  0  0  0  0  0  0  0
   10.8666  -17.0957   24.2757 C   0  0  2  0  0  0  0  0  0  0  0  0
    9.6358  -16.3787   24.1974 N   0  0  0  0  0  0  0  0  0  0  0  0
   11.7224  -16.6241   25.3987 C   0  0  0  0  0  0  0  0  0  0  0  0
   12.9354  -17.2264   25.6508 O   0  0  0  0  0  0  0  0  0  0  0  0
   11.3880  -15.6704   26.1600 O   0  0  0  0  0  0  0  0  0  0  0  0
  1  2  1  0
  2  3  1  0
  3 10  1  0
  3  4  2  0
  6  5  1  0
  7  8  1  0
  7  6  1  0
  9  8  1  1
 10  9  1  0
 11  9  1  0
 11 16  1  0
 12 11  2  0
 14 13  1  0
 15 14  1  6
 15 16  1  0
 15 17  1  0
 17 18  1  0
 19 17  2  0
M  END
$$$$
