GMS.pdb
     RDKit          3D

 19 18  0  0  1  0  0  0  0  0999 V2000
    7.4030  -14.0343   20.0027 N   0  0  0  0  0  0  0  0  0  0  0  0
    7.3791  -15.2381   20.7717 C   0  0  0  0  0  0  0  0  0  0  0  0
    7.8116  -15.0156   22.1843 C   0  0  0  0  0  0  0  0  0  0  0  0
    9.0240  -14.7324   22.4224 O   0  0  0  0  0  0  0  0  0  0  0  0
    7.3399  -10.6172   26.8822 C   0  0  0  0  0  0  0  0  0  0  0  0
    7.5656  -12.4280   26.7674 S   0  0  0  0  0  0  0  0  0  0  0  0
    6.2394  -13.0101   25.6218 C   0  0  0  0  0  0  0  0  0  0  0  0
    6.2998  -14.5073   25.5168 C   0  0  0  0  0  0  0  0  0  0  0  0
    7.4178  -15.0079   24.6781 C   0  0  2  0  0  0  0  0  0  0  0  0
    6.9196  -15.1078   23.2830 N   0  0  0  0  0  0  0  0  0  0  0  0
    8.0644  -16.2468   25.0209 C   0  0  0  0  0  0  0  0  0  0  0  0
    7.3351  -17.3013   25.1000 O   0  0  0  0  0  0  0  0  0  0  0  0
   11.8266  -17.3286   24.3162 O   0  0  0  0  0  0  0  0  0  0  0  0
   10.9552  -18.3292   24.6775 C   0  0  0  0  0  0  0  0  0  0  0  0
    9.9515  -17.7789   25.6465 C   0  0  2  0  0  0  0  0  0  0  0  0
    9.4301  -16.4992   25.2923 N   0  0  0  0  0  0  0  0  0  0  0  0
   10.5878  -17.7748   26.9923 C   0  0  0  0  0  0  0  0  0  0  0  0
   10.6305  -16.6182   27.7393 O   0  0  0  0  0  0  0  0  0  0  0  0
   11.1088  -18.8072   27.5058 O   0  0  0  0  0  0  0  0  0  0  0  0
  1  2  1  0
  2  3  1  0
  3 10  1  0
  3  4  2  0
  6  5  1  0
  7  8  1  0
  7  6  1  0
  9  8  1  1
 10  9  1  0
 11  9  1  0
 11 16  1  0
 12 11  2  0
 14 13  1  0
 15 14  1  6
 15 16  1  0
 15 17  1  0
 17 18  1  0
 19 17  2  0
M  END
$$$$
