GMS.pdb
     RDKit          3D

 19 18  0  0  1  0  0  0  0  0999 V2000
    5.1930  -20.1598   23.2387 N   0  0  0  0  0  0  0  0  0  0  0  0
    5.6996  -19.5424   24.4232 C   0  0  0  0  0  0  0  0  0  0  0  0
    6.2730  -18.1891   24.1548 C   0  0  0  0  0  0  0  0  0  0  0  0
    6.4283  -17.8102   22.9552 O   0  0  0  0  0  0  0  0  0  0  0  0
    5.8019  -11.4635   26.2997 C   0  0  0  0  0  0  0  0  0  0  0  0
    7.0274  -12.5675   27.0889 S   0  0  0  0  0  0  0  0  0  0  0  0
    7.6064  -13.6903   25.7420 C   0  0  0  0  0  0  0  0  0  0  0  0
    7.0009  -15.0508   25.9390 C   0  0  0  0  0  0  0  0  0  0  0  0
    7.3590  -16.0287   24.8810 C   0  0  2  0  0  0  0  0  0  0  0  0
    6.6559  -17.2993   25.1906 N   0  0  0  0  0  0  0  0  0  0  0  0
    8.7439  -16.3247   24.6257 C   0  0  0  0  0  0  0  0  0  0  0  0
    9.4031  -16.9409   25.5399 O   0  0  0  0  0  0  0  0  0  0  0  0
   11.1546  -15.2140   21.3698 O   0  0  0  0  0  0  0  0  0  0  0  0
   11.2612  -16.5141   21.8050 C   0  0  0  0  0  0  0  0  0  0  0  0
   10.8165  -16.5904   23.2353 C   0  0  2  0  0  0  0  0  0  0  0  0
    9.5252  -16.0366   23.4816 N   0  0  0  0  0  0  0  0  0  0  0  0
   11.8724  -15.9477   24.0647 C   0  0  0  0  0  0  0  0  0  0  0  0
   13.1844  -16.3543   23.9602 O   0  0  0  0  0  0  0  0  0  0  0  0
   11.6252  -15.0186   24.8873 O   0  0  0  0  0  0  0  0  0  0  0  0
  1  2  1  0
  2  3  1  0
  3 10  1  0
  3  4  2  0
  6  5  1  0
  7  8  1  0
  7  6  1  0
  9  8  1  1
 10  9  1  0
 11  9  1  0
 11 16  1  0
 12 11  2  0
 14 13  1  0
 15 14  1  6
 15 16  1  0
 15 17  1  0
 17 18  1  0
 19 17  2  0
M  END
$$$$
