GMS.pdb
     RDKit          3D

 19 18  0  0  1  0  0  0  0  0999 V2000
    4.9845  -19.1646   22.9885 N   0  0  0  0  0  0  0  0  0  0  0  0
    5.3078  -18.4743   24.1968 C   0  0  0  0  0  0  0  0  0  0  0  0
    6.3233  -17.4001   23.9802 C   0  0  0  0  0  0  0  0  0  0  0  0
    6.8287  -17.2503   22.8275 O   0  0  0  0  0  0  0  0  0  0  0  0
    7.6487  -11.3884   26.7158 C   0  0  0  0  0  0  0  0  0  0  0  0
    6.2003  -12.4530   27.0510 S   0  0  0  0  0  0  0  0  0  0  0  0
    6.2567  -13.7694   25.7572 C   0  0  0  0  0  0  0  0  0  0  0  0
    7.6060  -14.4290   25.7826 C   0  0  0  0  0  0  0  0  0  0  0  0
    7.7781  -15.4885   24.7571 C   0  0  2  0  0  0  0  0  0  0  0  0
    6.7529  -16.5310   25.0153 N   0  0  0  0  0  0  0  0  0  0  0  0
    9.0561  -16.1330   24.6082 C   0  0  0  0  0  0  0  0  0  0  0  0
    9.3747  -17.0362   25.4642 O   0  0  0  0  0  0  0  0  0  0  0  0
   11.8809  -15.5256   21.5964 O   0  0  0  0  0  0  0  0  0  0  0  0
   11.7749  -16.8000   22.1020 C   0  0  0  0  0  0  0  0  0  0  0  0
   11.2252  -16.7303   23.4957 C   0  0  2  0  0  0  0  0  0  0  0  0
   10.0557  -15.9244   23.6286 N   0  0  0  0  0  0  0  0  0  0  0  0
   12.3272  -16.2746   24.3867 C   0  0  0  0  0  0  0  0  0  0  0  0
   13.5330  -16.9406   24.4001 O   0  0  0  0  0  0  0  0  0  0  0  0
   12.2156  -15.2777   25.1579 O   0  0  0  0  0  0  0  0  0  0  0  0
  1  2  1  0
  2  3  1  0
  3 10  1  0
  3  4  2  0
  6  5  1  0
  7  8  1  0
  7  6  1  0
  9  8  1  1
 10  9  1  0
 11  9  1  0
 11 16  1  0
 12 11  2  0
 14 13  1  0
 15 14  1  6
 15 16  1  0
 15 17  1  0
 17 18  1  0
 19 17  2  0
M  END
$$$$
