GMS.pdb
     RDKit          3D

 19 18  0  0  1  0  0  0  0  0999 V2000
    5.2166  -19.1717   23.2263 N   0  0  0  0  0  0  0  0  0  0  0  0
    5.5292  -18.4033   24.3894 C   0  0  0  0  0  0  0  0  0  0  0  0
    6.4888  -17.2966   24.0951 C   0  0  0  0  0  0  0  0  0  0  0  0
    7.0415  -17.2441   22.9556 O   0  0  0  0  0  0  0  0  0  0  0  0
    7.3750  -12.2789   28.0319 C   0  0  0  0  0  0  0  0  0  0  0  0
    6.3195  -11.9386   26.5780 S   0  0  0  0  0  0  0  0  0  0  0  0
    6.3100  -13.5097   25.6077 C   0  0  0  0  0  0  0  0  0  0  0  0
    7.6661  -14.1503   25.6921 C   0  0  0  0  0  0  0  0  0  0  0  0
    7.8592  -15.2790   24.7473 C   0  0  2  0  0  0  0  0  0  0  0  0
    6.8138  -16.2915   25.0414 N   0  0  0  0  0  0  0  0  0  0  0  0
    9.1336  -15.9444   24.6856 C   0  0  0  0  0  0  0  0  0  0  0  0
    9.4222  -16.7739   25.6230 O   0  0  0  0  0  0  0  0  0  0  0  0
   11.6871  -16.0960   21.4078 O   0  0  0  0  0  0  0  0  0  0  0  0
   11.5959  -17.1809   22.2480 C   0  0  0  0  0  0  0  0  0  0  0  0
   11.2831  -16.7022   23.6345 C   0  0  2  0  0  0  0  0  0  0  0  0
   10.1585  -15.8284   23.7169 N   0  0  0  0  0  0  0  0  0  0  0  0
   12.5205  -16.0804   24.1805 C   0  0  0  0  0  0  0  0  0  0  0  0
   12.4888  -14.8045   24.6989 O   0  0  0  0  0  0  0  0  0  0  0  0
   13.6364  -16.6767   24.1961 O   0  0  0  0  0  0  0  0  0  0  0  0
  1  2  1  0
  2  3  1  0
  3 10  1  0
  3  4  2  0
  6  5  1  0
  7  8  1  0
  7  6  1  0
  9  8  1  1
 10  9  1  0
 11  9  1  0
 11 16  1  0
 12 11  2  0
 14 13  1  0
 15 14  1  6
 15 16  1  0
 15 17  1  0
 17 18  1  0
 19 17  2  0
M  END
$$$$
