GMS.pdb
     RDKit          3D

 19 18  0  0  1  0  0  0  0  0999 V2000
    7.7006  -14.6199   18.9098 N   0  0  0  0  0  0  0  0  0  0  0  0
    7.0168  -15.0986   20.0693 C   0  0  0  0  0  0  0  0  0  0  0  0
    7.7286  -14.7417   21.3334 C   0  0  0  0  0  0  0  0  0  0  0  0
    8.9932  -14.6559   21.3279 O   0  0  0  0  0  0  0  0  0  0  0  0
    5.5431  -11.4938   27.2361 C   0  0  0  0  0  0  0  0  0  0  0  0
    7.2630  -11.6326   26.6310 S   0  0  0  0  0  0  0  0  0  0  0  0
    7.4622  -13.4011   26.1382 C   0  0  0  0  0  0  0  0  0  0  0  0
    6.8786  -13.6007   24.7686 C   0  0  0  0  0  0  0  0  0  0  0  0
    7.8014  -14.2601   23.8107 C   0  0  2  0  0  0  0  0  0  0  0  0
    7.0481  -14.4920   22.5523 N   0  0  0  0  0  0  0  0  0  0  0  0
    8.4552  -15.4867   24.1831 C   0  0  0  0  0  0  0  0  0  0  0  0
    7.7680  -16.5708   24.1333 O   0  0  0  0  0  0  0  0  0  0  0  0
   11.3862  -17.0168   22.8720 O   0  0  0  0  0  0  0  0  0  0  0  0
   11.5524  -17.3610   24.1930 C   0  0  0  0  0  0  0  0  0  0  0  0
   10.3230  -16.9729   24.9592 C   0  0  2  0  0  0  0  0  0  0  0  0
    9.7880  -15.6977   24.6089 N   0  0  0  0  0  0  0  0  0  0  0  0
   10.6530  -17.0664   26.4077 C   0  0  0  0  0  0  0  0  0  0  0  0
   11.2428  -18.2028   26.9160 O   0  0  0  0  0  0  0  0  0  0  0  0
   10.4147  -16.1308   27.2255 O   0  0  0  0  0  0  0  0  0  0  0  0
  1  2  1  0
  2  3  1  0
  3 10  1  0
  3  4  2  0
  6  5  1  0
  7  8  1  0
  7  6  1  0
  9  8  1  1
 10  9  1  0
 11  9  1  0
 11 16  1  0
 12 11  2  0
 14 13  1  0
 15 14  1  6
 15 16  1  0
 15 17  1  0
 17 18  1  0
 19 17  2  0
M  END
$$$$
