GMS.pdb
     RDKit          3D

 19 18  0  0  1  0  0  0  0  0999 V2000
    7.0651  -20.6089   19.0064 N   0  0  0  0  0  0  0  0  0  0  0  0
    6.6976  -19.5758   19.9223 C   0  0  0  0  0  0  0  0  0  0  0  0
    7.7346  -18.5040   20.0117 C   0  0  0  0  0  0  0  0  0  0  0  0
    8.9096  -18.7447   19.6017 O   0  0  0  0  0  0  0  0  0  0  0  0
    6.2981  -12.5807   19.9953 C   0  0  0  0  0  0  0  0  0  0  0  0
    7.9760  -12.1297   20.5651 S   0  0  0  0  0  0  0  0  0  0  0  0
    8.8929  -13.7280   20.6854 C   0  0  0  0  0  0  0  0  0  0  0  0
    7.9211  -14.8658   20.5529 C   0  0  0  0  0  0  0  0  0  0  0  0
    8.5434  -16.2076   20.6800 C   0  0  2  0  0  0  0  0  0  0  0  0
    7.4628  -17.2162   20.5399 N   0  0  0  0  0  0  0  0  0  0  0  0
    9.3144  -16.5256   21.8526 C   0  0  0  0  0  0  0  0  0  0  0  0
    8.7041  -16.5488   22.9827 O   0  0  0  0  0  0  0  0  0  0  0  0
   12.0290  -19.1969   22.4340 O   0  0  0  0  0  0  0  0  0  0  0  0
   11.5165  -18.5412   23.5288 C   0  0  0  0  0  0  0  0  0  0  0  0
   11.3570  -17.0869   23.1989 C   0  0  2  0  0  0  0  0  0  0  0  0
   10.6914  -16.8321   21.9632 N   0  0  0  0  0  0  0  0  0  0  0  0
   12.7101  -16.4683   23.2476 C   0  0  0  0  0  0  0  0  0  0  0  0
   13.2309  -15.8433   22.1360 O   0  0  0  0  0  0  0  0  0  0  0  0
   13.4328  -16.4844   24.2861 O   0  0  0  0  0  0  0  0  0  0  0  0
  1  2  1  0
  2  3  1  0
  3 10  1  0
  3  4  2  0
  6  5  1  0
  7  8  1  0
  7  6  1  0
  9  8  1  1
 10  9  1  0
 11  9  1  0
 11 16  1  0
 12 11  2  0
 14 13  1  0
 15 14  1  6
 15 16  1  0
 15 17  1  0
 17 18  1  0
 19 17  2  0
M  END
$$$$
