MIW.pdb
     RDKit          3D

 31 32  0  0  1  0  0  0  0  0999 V2000
   12.1552  -21.9007   20.1917 C   0  0  0  0  0  0  0  0  0  0  0  0
   10.8381  -22.4451   19.0620 S   0  0  0  0  0  0  0  0  0  0  0  0
   10.0203  -20.9564   18.3884 C   0  0  0  0  0  0  0  0  0  0  0  0
   10.4001  -19.7775   19.2563 C   0  0  0  0  0  0  0  0  0  0  0  0
    9.6469  -18.5455   18.8840 C   0  0  2  0  0  0  0  0  0  0  0  0
    9.8186  -18.1720   17.5019 N   0  0  0  0  0  0  0  0  0  0  0  0
    9.9736  -17.3740   19.7789 C   0  0  0  0  0  0  0  0  0  0  0  0
   11.1482  -17.0334   19.9642 O   0  0  0  0  0  0  0  0  0  0  0  0
    6.4498  -12.9993   20.0247 C   0  0  0  0  0  0  0  0  0  0  0  0
    7.6992  -13.8816   19.9675 C   0  0  0  0  0  0  0  0  0  0  0  0
    7.9683  -14.5053   21.3132 C   0  0  2  0  0  0  0  0  0  0  0  0
    8.2504  -13.3895   22.2896 C   0  0  0  0  0  0  0  0  0  0  0  0
    9.0421  -15.5522   21.3156 C   0  0  2  0  0  0  0  0  0  0  0  0
    8.9526  -16.6403   20.4250 N   0  0  0  0  0  0  0  0  0  0  0  0
    9.6173  -15.8670   22.6370 C   0  0  0  0  0  0  0  0  0  0  0  0
   10.7050  -15.3894   23.0522 O   0  0  0  0  0  0  0  0  0  0  0  0
    8.9500  -16.7508   23.5306 N   0  0  0  0  0  0  0  0  0  0  0  0
    9.3930  -16.9092   24.9258 C   0  0  1  0  0  0  0  0  0  0  0  0
    9.3741  -15.6050   25.6285 C   0  0  0  0  0  0  0  0  0  0  0  0
    8.0211  -15.0607   25.7783 C   0  0  0  0  0  0  0  0  0  0  0  0
    6.8038  -15.6620   25.4897 C   0  0  0  0  0  0  0  0  0  0  0  0
    5.7768  -14.8324   25.7222 N   0  0  0  0  0  0  0  0  0  0  0  0
    6.3201  -13.6718   26.1695 C   0  0  0  0  0  0  0  0  0  0  0  0
    5.6936  -12.5080   26.5652 C   0  0  0  0  0  0  0  0  0  0  0  0
    6.4356  -11.4459   27.0107 C   0  0  0  0  0  0  0  0  0  0  0  0
    7.8101  -11.5200   27.0710 C   0  0  0  0  0  0  0  0  0  0  0  0
    8.4129  -12.6884   26.6711 C   0  0  0  0  0  0  0  0  0  0  0  0
    7.6900  -13.7739   26.2174 C   0  0  0  0  0  0  0  0  0  0  0  0
    8.6561  -17.9926   25.5741 C   0  0  0  0  0  0  0  0  0  0  0  0
    7.6440  -18.5071   24.9758 O   0  0  0  0  0  0  0  0  0  0  0  0
    8.9368  -18.5555   26.8044 O   0  0  0  0  0  0  0  0  0  0  0  0
  2  1  1  0
  3  2  1  0
  4  3  1  0
  5  4  1  0
  5  6  1  6
  7  5  1  0
  8  7  2  0
  9 10  1  0
 11 13  1  0
 11 10  1  0
 11 12  1  1
 13 14  1  1
 14  7  1  0
 15 13  1  0
 15 17  1  0
 16 15  2  0
 18 17  1  0
 18 29  1  0
 18 19  1  1
 20 19  1  0
 20 21  2  0
 22 21  1  0
 23 22  1  0
 24 23  2  0
 25 24  1  0
 26 25  2  0
 26 27  1  0
 27 28  2  0
 28 23  1  0
 28 20  1  0
 29 31  1  0
 30 29  2  0
M  END
$$$$
