MIW.pdb
     RDKit          3D

 31 32  0  0  1  0  0  0  0  0999 V2000
    5.9782  -20.6717   26.4528 C   0  0  0  0  0  0  0  0  0  0  0  0
    6.7524  -19.8289   25.0394 S   0  0  0  0  0  0  0  0  0  0  0  0
    6.4035  -20.8087   23.5371 C   0  0  0  0  0  0  0  0  0  0  0  0
    7.0423  -20.1074   22.3591 C   0  0  0  0  0  0  0  0  0  0  0  0
    6.0589  -19.2802   21.6024 C   0  0  2  0  0  0  0  0  0  0  0  0
    5.4327  -19.9949   20.5179 N   0  0  0  0  0  0  0  0  0  0  0  0
    6.6570  -17.9908   21.0927 C   0  0  0  0  0  0  0  0  0  0  0  0
    6.3951  -17.5837   19.9544 O   0  0  0  0  0  0  0  0  0  0  0  0
    7.2437  -12.4301   20.5278 C   0  0  0  0  0  0  0  0  0  0  0  0
    8.1263  -13.6800   20.5669 C   0  0  0  0  0  0  0  0  0  0  0  0
    7.3250  -14.8799   21.0032 C   0  0  2  0  0  0  0  0  0  0  0  0
    6.2092  -14.3893   21.8933 C   0  0  0  0  0  0  0  0  0  0  0  0
    8.1292  -15.9717   21.6437 C   0  0  2  0  0  0  0  0  0  0  0  0
    7.5269  -17.2200   21.8971 N   0  0  0  0  0  0  0  0  0  0  0  0
    9.1070  -15.5285   22.6554 C   0  0  0  0  0  0  0  0  0  0  0  0
    9.6272  -14.3826   22.6628 O   0  0  0  0  0  0  0  0  0  0  0  0
    9.5200  -16.4007   23.7011 N   0  0  0  0  0  0  0  0  0  0  0  0
   10.1853  -15.8872   24.9100 C   0  0  1  0  0  0  0  0  0  0  0  0
    9.3060  -16.0413   26.0925 C   0  0  0  0  0  0  0  0  0  0  0  0
    8.1182  -15.1842   26.0319 C   0  0  0  0  0  0  0  0  0  0  0  0
    6.8248  -15.5142   25.6514 C   0  0  0  0  0  0  0  0  0  0  0  0
    6.0130  -14.4482   25.6877 N   0  0  0  0  0  0  0  0  0  0  0  0
    6.7767  -13.4033   26.0967 C   0  0  0  0  0  0  0  0  0  0  0  0
    6.4171  -12.0891   26.3140 C   0  0  0  0  0  0  0  0  0  0  0  0
    7.3487  -11.1859   26.7535 C   0  0  0  0  0  0  0  0  0  0  0  0
    8.6515  -11.5702   26.9844 C   0  0  0  0  0  0  0  0  0  0  0  0
    8.9875  -12.8838   26.7605 C   0  0  0  0  0  0  0  0  0  0  0  0
    8.0694  -13.8151   26.3172 C   0  0  0  0  0  0  0  0  0  0  0  0
   11.5257  -16.4573   25.0347 C   0  0  0  0  0  0  0  0  0  0  0  0
   12.2561  -16.1265   26.0367 O   0  0  0  0  0  0  0  0  0  0  0  0
   12.1211  -17.3530   24.1673 O   0  0  0  0  0  0  0  0  0  0  0  0
  2  1  1  0
  3  2  1  0
  4  3  1  0
  5  4  1  0
  5  6  1  6
  7  5  1  0
  8  7  2  0
  9 10  1  0
 11 13  1  0
 11 10  1  0
 11 12  1  1
 13 14  1  1
 14  7  1  0
 15 13  1  0
 15 17  1  0
 16 15  2  0
 18 17  1  0
 18 29  1  0
 18 19  1  1
 20 19  1  0
 20 21  2  0
 22 21  1  0
 23 22  1  0
 24 23  2  0
 25 24  1  0
 26 25  2  0
 26 27  1  0
 27 28  2  0
 28 23  1  0
 28 20  1  0
 29 31  1  0
 30 29  2  0
M  END
$$$$
