MIW.pdb
     RDKit          3D

 31 32  0  0  1  0  0  0  0  0999 V2000
    3.9441  -19.9872   17.4832 C   0  0  0  0  0  0  0  0  0  0  0  0
    5.3751  -19.0095   18.0344 S   0  0  0  0  0  0  0  0  0  0  0  0
    5.1792  -18.6786   19.8207 C   0  0  0  0  0  0  0  0  0  0  0  0
    6.2742  -17.7258   20.2456 C   0  0  0  0  0  0  0  0  0  0  0  0
    6.7215  -17.9792   21.6455 C   0  0  2  0  0  0  0  0  0  0  0  0
    5.6309  -18.0409   22.5867 N   0  0  0  0  0  0  0  0  0  0  0  0
    7.7513  -16.9795   22.1147 C   0  0  0  0  0  0  0  0  0  0  0  0
    8.7595  -16.7505   21.4356 O   0  0  0  0  0  0  0  0  0  0  0  0
    5.8999  -13.3081   26.0428 C   0  0  0  0  0  0  0  0  0  0  0  0
    6.5613  -13.8018   24.7538 C   0  0  0  0  0  0  0  0  0  0  0  0
    7.8746  -14.4762   25.0580 C   0  0  2  0  0  0  0  0  0  0  0  0
    8.8472  -13.4109   25.5019 C   0  0  0  0  0  0  0  0  0  0  0  0
    8.4194  -15.3193   23.9438 C   0  0  2  0  0  0  0  0  0  0  0  0
    7.5920  -16.2835   23.3347 N   0  0  0  0  0  0  0  0  0  0  0  0
    9.8387  -15.7001   24.0728 C   0  0  0  0  0  0  0  0  0  0  0  0
   10.7925  -14.9138   23.8369 O   0  0  0  0  0  0  0  0  0  0  0  0
   10.2070  -17.0121   24.4823 N   0  0  0  0  0  0  0  0  0  0  0  0
   11.6130  -17.3712   24.7317 C   0  0  1  0  0  0  0  0  0  0  0  0
   12.2210  -16.4415   25.7120 C   0  0  0  0  0  0  0  0  0  0  0  0
   11.6400  -16.5700   27.0519 C   0  0  0  0  0  0  0  0  0  0  0  0
   11.4006  -17.7206   27.7904 C   0  0  0  0  0  0  0  0  0  0  0  0
   10.8183  -17.4403   28.9648 N   0  0  0  0  0  0  0  0  0  0  0  0
   10.6719  -16.0915   29.0036 C   0  0  0  0  0  0  0  0  0  0  0  0
   10.1448  -15.2971   30.0009 C   0  0  0  0  0  0  0  0  0  0  0  0
   10.1098  -13.9360   29.8484 C   0  0  0  0  0  0  0  0  0  0  0  0
   10.5963  -13.3405   28.7051 C   0  0  0  0  0  0  0  0  0  0  0  0
   11.1159  -14.1511   27.7246 C   0  0  0  0  0  0  0  0  0  0  0  0
   11.1632  -15.5252   27.8515 C   0  0  0  0  0  0  0  0  0  0  0  0
   11.7268  -18.7939   25.0482 C   0  0  0  0  0  0  0  0  0  0  0  0
   10.6647  -19.5133   25.0884 O   0  0  0  0  0  0  0  0  0  0  0  0
   12.8931  -19.4854   25.3141 O   0  0  0  0  0  0  0  0  0  0  0  0
  2  1  1  0
  3  2  1  0
  4  3  1  0
  5  4  1  0
  5  6  1  1
  7  5  1  0
  8  7  2  0
  9 10  1  0
 11 13  1  0
 11 10  1  0
 11 12  1  6
 13 14  1  1
 14  7  1  0
 15 13  1  0
 15 17  1  0
 16 15  2  0
 18 17  1  0
 18 29  1  0
 18 19  1  1
 20 19  1  0
 20 21  2  0
 22 21  1  0
 23 22  1  0
 24 23  2  0
 25 24  1  0
 26 25  2  0
 26 27  1  0
 27 28  2  0
 28 23  1  0
 28 20  1  0
 29 31  1  0
 30 29  2  0
M  END
$$$$
