MIW.pdb
     RDKit          3D

 31 32  0  0  1  0  0  0  0  0999 V2000
   12.0334  -20.6650   15.1111 C   0  0  0  0  0  0  0  0  0  0  0  0
   11.2706  -19.1602   15.7900 S   0  0  0  0  0  0  0  0  0  0  0  0
   11.0908  -19.3826   17.5947 C   0  0  0  0  0  0  0  0  0  0  0  0
   10.5079  -18.1110   18.1697 C   0  0  0  0  0  0  0  0  0  0  0  0
   10.2957  -18.2111   19.6424 C   0  0  2  0  0  0  0  0  0  0  0  0
    9.0900  -18.9193   19.9946 N   0  0  0  0  0  0  0  0  0  0  0  0
   10.3201  -16.8641   20.3243 C   0  0  0  0  0  0  0  0  0  0  0  0
   11.2693  -16.0898   20.1520 O   0  0  0  0  0  0  0  0  0  0  0  0
    6.3717  -13.3091   19.8848 C   0  0  0  0  0  0  0  0  0  0  0  0
    7.6674  -14.0964   20.0946 C   0  0  0  0  0  0  0  0  0  0  0  0
    7.8709  -14.4001   21.5570 C   0  0  2  0  0  0  0  0  0  0  0  0
    7.8818  -13.0878   22.3024 C   0  0  0  0  0  0  0  0  0  0  0  0
    9.0752  -15.2404   21.8612 C   0  0  2  0  0  0  0  0  0  0  0  0
    9.2661  -16.4548   21.1726 N   0  0  0  0  0  0  0  0  0  0  0  0
    9.5062  -15.2432   23.2720 C   0  0  0  0  0  0  0  0  0  0  0  0
   10.1047  -14.2796   23.8168 O   0  0  0  0  0  0  0  0  0  0  0  0
    9.2579  -16.3678   24.1076 N   0  0  0  0  0  0  0  0  0  0  0  0
    9.8878  -16.4925   25.4326 C   0  0  1  0  0  0  0  0  0  0  0  0
    8.8585  -16.6739   26.4826 C   0  0  0  0  0  0  0  0  0  0  0  0
    7.7229  -15.7596   26.3281 C   0  0  0  0  0  0  0  0  0  0  0  0
    6.4607  -16.0184   25.8118 C   0  0  0  0  0  0  0  0  0  0  0  0
    5.6987  -14.9158   25.7967 N   0  0  0  0  0  0  0  0  0  0  0  0
    6.4639  -13.9184   26.3086 C   0  0  0  0  0  0  0  0  0  0  0  0
    6.1442  -12.5939   26.5255 C   0  0  0  0  0  0  0  0  0  0  0  0
    7.0669  -11.7468   27.0805 C   0  0  0  0  0  0  0  0  0  0  0  0
    8.3210  -12.1984   27.4291 C   0  0  0  0  0  0  0  0  0  0  0  0
    8.6179  -13.5211   27.2033 C   0  0  0  0  0  0  0  0  0  0  0  0
    7.7078  -14.3967   26.6451 C   0  0  0  0  0  0  0  0  0  0  0  0
   10.9481  -17.4984   25.3998 C   0  0  0  0  0  0  0  0  0  0  0  0
   11.5966  -17.7599   26.4759 O   0  0  0  0  0  0  0  0  0  0  0  0
   11.3464  -18.2363   24.3016 O   0  0  0  0  0  0  0  0  0  0  0  0
  2  1  1  0
  3  2  1  0
  4  3  1  0
  5  4  1  0
  5  6  1  6
  7  5  1  0
  8  7  2  0
  9 10  1  0
 11 13  1  0
 11 10  1  0
 11 12  1  1
 13 14  1  1
 14  7  1  0
 15 13  1  0
 15 17  1  0
 16 15  2  0
 18 17  1  0
 18 29  1  0
 18 19  1  1
 20 19  1  0
 20 21  2  0
 22 21  1  0
 23 22  1  0
 24 23  2  0
 25 24  1  0
 26 25  2  0
 26 27  1  0
 27 28  2  0
 28 23  1  0
 28 20  1  0
 29 31  1  0
 30 29  2  0
M  END
$$$$
