MIW.pdb
     RDKit          3D

 31 32  0  0  1  0  0  0  0  0999 V2000
    6.7044  -19.3605   26.6293 C   0  0  0  0  0  0  0  0  0  0  0  0
    5.6487  -20.7260   26.0562 S   0  0  0  0  0  0  0  0  0  0  0  0
    5.1927  -20.3964   24.3178 C   0  0  0  0  0  0  0  0  0  0  0  0
    6.3023  -19.5860   23.6858 C   0  0  0  0  0  0  0  0  0  0  0  0
    5.9676  -19.1740   22.2922 C   0  0  2  0  0  0  0  0  0  0  0  0
    5.6776  -20.2892   21.4255 N   0  0  0  0  0  0  0  0  0  0  0  0
    7.0352  -18.3040   21.6730 C   0  0  0  0  0  0  0  0  0  0  0  0
    7.9927  -18.8126   21.0775 O   0  0  0  0  0  0  0  0  0  0  0  0
    7.2617  -12.5568   19.9892 C   0  0  0  0  0  0  0  0  0  0  0  0
    7.2412  -13.5969   21.1119 C   0  0  0  0  0  0  0  0  0  0  0  0
    7.9628  -14.8497   20.6855 C   0  0  2  0  0  0  0  0  0  0  0  0
    7.3503  -15.3143   19.3867 C   0  0  0  0  0  0  0  0  0  0  0  0
    8.0005  -15.9346   21.7202 C   0  0  2  0  0  0  0  0  0  0  0  0
    6.9697  -16.8945   21.7572 N   0  0  0  0  0  0  0  0  0  0  0  0
    8.5373  -15.5375   23.0356 C   0  0  0  0  0  0  0  0  0  0  0  0
    7.9168  -14.7999   23.8446 O   0  0  0  0  0  0  0  0  0  0  0  0
    9.8190  -15.9829   23.4643 N   0  0  0  0  0  0  0  0  0  0  0  0
   10.4332  -15.4738   24.7018 C   0  0  1  0  0  0  0  0  0  0  0  0
    9.6606  -15.9164   25.8859 C   0  0  0  0  0  0  0  0  0  0  0  0
    8.3498  -15.2671   25.9835 C   0  0  0  0  0  0  0  0  0  0  0  0
    7.0955  -15.7915   25.7041 C   0  0  0  0  0  0  0  0  0  0  0  0
    6.1298  -14.8778   25.8756 N   0  0  0  0  0  0  0  0  0  0  0  0
    6.7515  -13.7385   26.2729 C   0  0  0  0  0  0  0  0  0  0  0  0
    6.2076  -12.5127   26.5976 C   0  0  0  0  0  0  0  0  0  0  0  0
    7.0201  -11.4863   27.0017 C   0  0  0  0  0  0  0  0  0  0  0  0
    8.3843  -11.6579   27.0904 C   0  0  0  0  0  0  0  0  0  0  0  0
    8.9042  -12.8868   26.7613 C   0  0  0  0  0  0  0  0  0  0  0  0
    8.1091  -13.9384   26.3506 C   0  0  0  0  0  0  0  0  0  0  0  0
   11.8627  -15.7792   24.7237 C   0  0  0  0  0  0  0  0  0  0  0  0
   12.3792  -16.4293   23.7451 O   0  0  0  0  0  0  0  0  0  0  0  0
   12.7621  -15.4299   25.7128 O   0  0  0  0  0  0  0  0  0  0  0  0
  2  1  1  0
  3  2  1  0
  4  3  1  0
  5  4  1  0
  5  6  1  6
  7  5  1  0
  8  7  2  0
  9 10  1  0
 11 13  1  0
 11 10  1  0
 11 12  1  6
 13 14  1  1
 14  7  1  0
 15 13  1  0
 15 17  1  0
 16 15  2  0
 18 17  1  0
 18 29  1  0
 18 19  1  1
 20 19  1  0
 20 21  2  0
 22 21  1  0
 23 22  1  0
 24 23  2  0
 25 24  1  0
 26 25  2  0
 26 27  1  0
 27 28  2  0
 28 23  1  0
 28 20  1  0
 29 31  1  0
 30 29  2  0
M  END
$$$$
