MIW.pdb
     RDKit          3D

 31 32  0  0  1  0  0  0  0  0999 V2000
    8.7134  -18.1231   15.1817 C   0  0  0  0  0  0  0  0  0  0  0  0
    7.5719  -19.4051   15.7824 S   0  0  0  0  0  0  0  0  0  0  0  0
    7.8703  -19.6346   17.5704 C   0  0  0  0  0  0  0  0  0  0  0  0
    8.6612  -18.4470   18.0717 C   0  0  0  0  0  0  0  0  0  0  0  0
    8.9824  -18.5635   19.5233 C   0  0  2  0  0  0  0  0  0  0  0  0
    7.8480  -18.9488   20.3257 N   0  0  0  0  0  0  0  0  0  0  0  0
    9.6056  -17.3066   20.0816 C   0  0  0  0  0  0  0  0  0  0  0  0
   10.6863  -16.8934   19.6442 O   0  0  0  0  0  0  0  0  0  0  0  0
    7.0476  -12.6325   20.0208 C   0  0  0  0  0  0  0  0  0  0  0  0
    8.0549  -13.7838   20.0727 C   0  0  0  0  0  0  0  0  0  0  0  0
    8.3398  -14.1732   21.5008 C   0  0  2  0  0  0  0  0  0  0  0  0
    8.7947  -12.9347   22.2337 C   0  0  0  0  0  0  0  0  0  0  0  0
    9.2979  -15.3159   21.6598 C   0  0  2  0  0  0  0  0  0  0  0  0
    8.9751  -16.5736   21.1128 N   0  0  0  0  0  0  0  0  0  0  0  0
   10.0293  -15.3562   22.9403 C   0  0  0  0  0  0  0  0  0  0  0  0
   10.4554  -14.3288   23.5290 O   0  0  0  0  0  0  0  0  0  0  0  0
   10.2950  -16.5945   23.5892 N   0  0  0  0  0  0  0  0  0  0  0  0
   10.0163  -16.7843   25.0225 C   0  0  1  0  0  0  0  0  0  0  0  0
    8.6219  -16.3945   25.3370 C   0  0  0  0  0  0  0  0  0  0  0  0
    8.5448  -15.2465   26.2456 C   0  0  0  0  0  0  0  0  0  0  0  0
    9.2427  -15.0201   27.4238 C   0  0  0  0  0  0  0  0  0  0  0  0
    8.8731  -13.8689   28.0023 N   0  0  0  0  0  0  0  0  0  0  0  0
    7.9221  -13.3284   27.1987 C   0  0  0  0  0  0  0  0  0  0  0  0
    7.2334  -12.1407   27.3349 C   0  0  0  0  0  0  0  0  0  0  0  0
    6.3186  -11.7646   26.3868 C   0  0  0  0  0  0  0  0  0  0  0  0
    6.0716  -12.5595   25.2889 C   0  0  0  0  0  0  0  0  0  0  0  0
    6.7684  -13.7384   25.1741 C   0  0  0  0  0  0  0  0  0  0  0  0
    7.6953  -14.1422   26.1145 C   0  0  0  0  0  0  0  0  0  0  0  0
   10.4130  -18.1264   25.4449 C   0  0  0  0  0  0  0  0  0  0  0  0
   10.2448  -19.1116   24.6399 O   0  0  0  0  0  0  0  0  0  0  0  0
   10.9772  -18.4724   26.6578 O   0  0  0  0  0  0  0  0  0  0  0  0
  2  1  1  0
  3  2  1  0
  4  3  1  0
  5  4  1  0
  5  6  1  1
  7  5  1  0
  8  7  2  0
  9 10  1  0
 11 13  1  0
 11 10  1  0
 11 12  1  1
 13 14  1  1
 14  7  1  0
 15 13  1  0
 15 17  1  0
 16 15  2  0
 18 17  1  0
 18 29  1  0
 18 19  1  6
 20 19  1  0
 20 21  2  0
 22 21  1  0
 23 22  1  0
 24 23  2  0
 25 24  1  0
 26 25  2  0
 26 27  1  0
 27 28  2  0
 28 23  1  0
 28 20  1  0
 29 31  1  0
 30 29  2  0
M  END
$$$$
