MIW.pdb
     RDKit          3D

 31 32  0  0  1  0  0  0  0  0999 V2000
    5.9700  -21.2276   24.0776 C   0  0  0  0  0  0  0  0  0  0  0  0
    6.9445  -22.4349   23.1288 S   0  0  0  0  0  0  0  0  0  0  0  0
    7.4121  -21.6609   21.5411 C   0  0  0  0  0  0  0  0  0  0  0  0
    7.4698  -20.1636   21.7465 C   0  0  0  0  0  0  0  0  0  0  0  0
    7.8656  -19.4448   20.5013 C   0  0  2  0  0  0  0  0  0  0  0  0
    8.5662  -20.2838   19.5608 N   0  0  0  0  0  0  0  0  0  0  0  0
    8.6728  -18.2001   20.7824 C   0  0  0  0  0  0  0  0  0  0  0  0
    9.9081  -18.2261   20.7248 O   0  0  0  0  0  0  0  0  0  0  0  0
    6.5849  -13.0302   19.5787 C   0  0  0  0  0  0  0  0  0  0  0  0
    7.5302  -14.2242   19.7324 C   0  0  0  0  0  0  0  0  0  0  0  0
    7.8310  -14.4767   21.1878 C   0  0  2  0  0  0  0  0  0  0  0  0
    8.5180  -13.2495   21.7355 C   0  0  0  0  0  0  0  0  0  0  0  0
    8.6029  -15.7334   21.4597 C   0  0  2  0  0  0  0  0  0  0  0  0
    8.0424  -16.9799   21.1173 N   0  0  0  0  0  0  0  0  0  0  0  0
    9.4128  -15.7254   22.6926 C   0  0  0  0  0  0  0  0  0  0  0  0
   10.4368  -15.0102   22.8459 O   0  0  0  0  0  0  0  0  0  0  0  0
    9.0642  -16.5497   23.7989 N   0  0  0  0  0  0  0  0  0  0  0  0
    9.7983  -16.4739   25.0729 C   0  0  1  0  0  0  0  0  0  0  0  0
    9.6658  -15.1244   25.6698 C   0  0  0  0  0  0  0  0  0  0  0  0
    8.2710  -14.7499   25.9221 C   0  0  0  0  0  0  0  0  0  0  0  0
    7.1375  -15.5508   25.9036 C   0  0  0  0  0  0  0  0  0  0  0  0
    6.0275  -14.8398   26.1470 N   0  0  0  0  0  0  0  0  0  0  0  0
    6.4309  -13.5566   26.3289 C   0  0  0  0  0  0  0  0  0  0  0  0
    5.6804  -12.4372   26.6241 C   0  0  0  0  0  0  0  0  0  0  0  0
    6.2939  -11.2237   26.7916 C   0  0  0  0  0  0  0  0  0  0  0  0
    7.6606  -11.1000   26.6691 C   0  0  0  0  0  0  0  0  0  0  0  0
    8.3881  -12.2279   26.3739 C   0  0  0  0  0  0  0  0  0  0  0  0
    7.7961  -13.4631   26.1993 C   0  0  0  0  0  0  0  0  0  0  0  0
    9.4309  -17.5923   25.9397 C   0  0  0  0  0  0  0  0  0  0  0  0
    8.5148  -18.4059   25.5576 O   0  0  0  0  0  0  0  0  0  0  0  0
    9.9816  -17.8926   27.1708 O   0  0  0  0  0  0  0  0  0  0  0  0
  2  1  1  0
  3  2  1  0
  4  3  1  0
  5  4  1  0
  5  6  1  6
  7  5  1  0
  8  7  2  0
  9 10  1  0
 11 13  1  0
 11 10  1  0
 11 12  1  6
 13 14  1  1
 14  7  1  0
 15 13  1  0
 15 17  1  0
 16 15  2  0
 18 17  1  0
 18 29  1  0
 18 19  1  1
 20 19  1  0
 20 21  2  0
 22 21  1  0
 23 22  1  0
 24 23  2  0
 25 24  1  0
 26 25  2  0
 26 27  1  0
 27 28  2  0
 28 23  1  0
 28 20  1  0
 29 31  1  0
 30 29  2  0
M  END
$$$$
