MIW.pdb
     RDKit          3D

 31 32  0  0  1  0  0  0  0  0999 V2000
    7.5290  -22.2482   21.6542 C   0  0  0  0  0  0  0  0  0  0  0  0
    9.1052  -22.7294   20.8853 S   0  0  0  0  0  0  0  0  0  0  0  0
    9.5959  -21.4052   19.7259 C   0  0  0  0  0  0  0  0  0  0  0  0
    9.2526  -20.0750   20.3584 C   0  0  0  0  0  0  0  0  0  0  0  0
    9.6181  -18.9281   19.4781 C   0  0  2  0  0  0  0  0  0  0  0  0
   10.6715  -19.2430   18.5451 N   0  0  0  0  0  0  0  0  0  0  0  0
    9.9769  -17.6879   20.2611 C   0  0  0  0  0  0  0  0  0  0  0  0
   11.1610  -17.3990   20.4725 O   0  0  0  0  0  0  0  0  0  0  0  0
    6.4080  -13.2914   20.0313 C   0  0  0  0  0  0  0  0  0  0  0  0
    7.7005  -14.1112   20.0396 C   0  0  0  0  0  0  0  0  0  0  0  0
    8.0024  -14.6087   21.4301 C   0  0  2  0  0  0  0  0  0  0  0  0
    8.2805  -13.4063   22.2989 C   0  0  0  0  0  0  0  0  0  0  0  0
    9.0944  -15.6338   21.5060 C   0  0  2  0  0  0  0  0  0  0  0  0
    8.9758  -16.8299   20.7708 N   0  0  0  0  0  0  0  0  0  0  0  0
    9.7487  -15.7665   22.8214 C   0  0  0  0  0  0  0  0  0  0  0  0
   10.7378  -15.0748   23.1777 O   0  0  0  0  0  0  0  0  0  0  0  0
    9.2786  -16.7099   23.7774 N   0  0  0  0  0  0  0  0  0  0  0  0
    9.7725  -16.7070   25.1644 C   0  0  1  0  0  0  0  0  0  0  0  0
    9.6144  -15.3640   25.7698 C   0  0  0  0  0  0  0  0  0  0  0  0
    8.2294  -14.8845   25.7332 C   0  0  0  0  0  0  0  0  0  0  0  0
    7.0695  -15.5940   25.4544 C   0  0  0  0  0  0  0  0  0  0  0  0
    5.9889  -14.8012   25.4783 N   0  0  0  0  0  0  0  0  0  0  0  0
    6.4385  -13.5556   25.7765 C   0  0  0  0  0  0  0  0  0  0  0  0
    5.7275  -12.3843   25.9379 C   0  0  0  0  0  0  0  0  0  0  0  0
    6.3797  -11.2245   26.2644 C   0  0  0  0  0  0  0  0  0  0  0  0
    7.7467  -11.2068   26.4357 C   0  0  0  0  0  0  0  0  0  0  0  0
    8.4346  -12.3847   26.2691 C   0  0  0  0  0  0  0  0  0  0  0  0
    7.8032  -13.5677   25.9397 C   0  0  0  0  0  0  0  0  0  0  0  0
    9.1879  -17.8167   25.9154 C   0  0  0  0  0  0  0  0  0  0  0  0
    8.2955  -18.5500   25.3561 O   0  0  0  0  0  0  0  0  0  0  0  0
    9.5011  -18.1883   27.2089 O   0  0  0  0  0  0  0  0  0  0  0  0
  2  1  1  0
  3  2  1  0
  4  3  1  0
  5  4  1  0
  5  6  1  1
  7  5  1  0
  8  7  2  0
  9 10  1  0
 11 13  1  0
 11 10  1  0
 11 12  1  1
 13 14  1  1
 14  7  1  0
 15 13  1  0
 15 17  1  0
 16 15  2  0
 18 17  1  0
 18 29  1  0
 18 19  1  1
 20 19  1  0
 20 21  2  0
 22 21  1  0
 23 22  1  0
 24 23  2  0
 25 24  1  0
 26 25  2  0
 26 27  1  0
 27 28  2  0
 28 23  1  0
 28 20  1  0
 29 31  1  0
 30 29  2  0
M  END
$$$$
