MIW.pdb
     RDKit          3D

 31 32  0  0  1  0  0  0  0  0999 V2000
    2.0027  -18.2858   18.7920 C   0  0  0  0  0  0  0  0  0  0  0  0
    2.1593  -19.3689   20.2445 S   0  0  0  0  0  0  0  0  0  0  0  0
    3.8975  -19.9219   20.3522 C   0  0  0  0  0  0  0  0  0  0  0  0
    4.7860  -18.7015   20.2603 C   0  0  0  0  0  0  0  0  0  0  0  0
    6.0474  -18.8703   21.0376 C   0  0  2  0  0  0  0  0  0  0  0  0
    5.8223  -19.0594   22.4493 N   0  0  0  0  0  0  0  0  0  0  0  0
    7.0196  -17.7360   20.8181 C   0  0  0  0  0  0  0  0  0  0  0  0
    7.6691  -17.6596   19.7682 O   0  0  0  0  0  0  0  0  0  0  0  0
    6.7431  -12.7833   19.6411 C   0  0  0  0  0  0  0  0  0  0  0  0
    7.1977  -14.2070   19.9713 C   0  0  0  0  0  0  0  0  0  0  0  0
    7.6574  -14.2964   21.4042 C   0  0  2  0  0  0  0  0  0  0  0  0
    8.7141  -13.2397   21.6154 C   0  0  0  0  0  0  0  0  0  0  0  0
    8.1175  -15.6584   21.8312 C   0  0  2  0  0  0  0  0  0  0  0  0
    7.2126  -16.7380   21.8004 N   0  0  0  0  0  0  0  0  0  0  0  0
    9.0847  -15.6804   22.9448 C   0  0  0  0  0  0  0  0  0  0  0  0
   10.1235  -14.9707   22.9761 O   0  0  0  0  0  0  0  0  0  0  0  0
    8.8829  -16.5293   24.0688 N   0  0  0  0  0  0  0  0  0  0  0  0
    9.8661  -16.6002   25.1625 C   0  0  1  0  0  0  0  0  0  0  0  0
    9.2003  -16.4149   26.4730 C   0  0  0  0  0  0  0  0  0  0  0  0
    8.0634  -15.4916   26.4064 C   0  0  0  0  0  0  0  0  0  0  0  0
    6.7356  -15.7656   26.1093 C   0  0  0  0  0  0  0  0  0  0  0  0
    5.9908  -14.6511   26.1074 N   0  0  0  0  0  0  0  0  0  0  0  0
    6.8340  -13.6304   26.4067 C   0  0  0  0  0  0  0  0  0  0  0  0
    6.5636  -12.2848   26.5471 C   0  0  0  0  0  0  0  0  0  0  0  0
    7.5675  -11.4136   26.8791 C   0  0  0  0  0  0  0  0  0  0  0  0
    8.8552  -11.8618   27.0770 C   0  0  0  0  0  0  0  0  0  0  0  0
    9.1018  -13.2058   26.9310 C   0  0  0  0  0  0  0  0  0  0  0  0
    8.1096  -14.1060   26.5966 C   0  0  0  0  0  0  0  0  0  0  0  0
   10.6888  -17.8014   25.0305 C   0  0  0  0  0  0  0  0  0  0  0  0
   11.6074  -18.0295   25.8972 O   0  0  0  0  0  0  0  0  0  0  0  0
   10.5850  -18.7636   24.0443 O   0  0  0  0  0  0  0  0  0  0  0  0
  2  1  1  0
  3  2  1  0
  4  3  1  0
  5  4  1  0
  5  6  1  1
  7  5  1  0
  8  7  2  0
  9 10  1  0
 11 13  1  0
 11 10  1  0
 11 12  1  6
 13 14  1  1
 14  7  1  0
 15 13  1  0
 15 17  1  0
 16 15  2  0
 18 17  1  0
 18 29  1  0
 18 19  1  1
 20 19  1  0
 20 21  2  0
 22 21  1  0
 23 22  1  0
 24 23  2  0
 25 24  1  0
 26 25  2  0
 26 27  1  0
 27 28  2  0
 28 23  1  0
 28 20  1  0
 29 31  1  0
 30 29  2  0
M  END
$$$$
