YAE.pdb
     RDKit          3D

 27 27  0  0  1  0  0  0  0  0999 V2000
    5.9428  -10.8155   28.8902 O   0  0  0  0  0  0  0  0  0  0  0  0
    6.4580  -11.6394   27.8883 C   0  0  0  0  0  0  0  0  0  0  0  0
    5.7916  -11.7491   26.6869 C   0  0  0  0  0  0  0  0  0  0  0  0
    6.3127  -12.5771   25.6846 C   0  0  0  0  0  0  0  0  0  0  0  0
    7.4803  -13.2782   25.8917 C   0  0  0  0  0  0  0  0  0  0  0  0
    7.9777  -14.1355   24.7959 C   0  0  0  0  0  0  0  0  0  0  0  0
    7.0704  -15.2865   24.4870 C   0  0  2  0  0  0  0  0  0  0  0  0
    6.8943  -16.2189   25.5682 N   0  0  0  0  0  0  0  0  0  0  0  0
    7.5476  -15.9584   23.2470 C   0  0  0  0  0  0  0  0  0  0  0  0
    8.1816  -17.0567   23.3305 O   0  0  0  0  0  0  0  0  0  0  0  0
    8.1430  -13.1662   27.0927 C   0  0  0  0  0  0  0  0  0  0  0  0
    7.6306  -12.3489   28.0846 C   0  0  0  0  0  0  0  0  0  0  0  0
    7.2318  -15.4052   19.5555 C   0  0  0  0  0  0  0  0  0  0  0  0
    7.8642  -16.0730   20.7562 C   0  0  2  0  0  0  0  0  0  0  0  0
    7.3360  -15.4388   21.9439 N   0  0  0  0  0  0  0  0  0  0  0  0
    9.3512  -15.8761   20.6541 C   0  0  0  0  0  0  0  0  0  0  0  0
    9.7441  -14.6963   20.8082 O   0  0  0  0  0  0  0  0  0  0  0  0
   10.1596  -16.9856   20.4042 N   0  0  0  0  0  0  0  0  0  0  0  0
   11.5720  -17.0197   20.5989 C   0  0  1  0  0  0  0  0  0  0  0  0
   12.0201  -16.5993   21.9809 C   0  0  0  0  0  0  0  0  0  0  0  0
   13.4814  -16.6711   22.2408 C   0  0  0  0  0  0  0  0  0  0  0  0
   13.8039  -16.3096   23.6313 C   0  0  0  0  0  0  0  0  0  0  0  0
   14.9628  -16.0839   23.9957 O   0  0  0  0  0  0  0  0  0  0  0  0
   12.1900  -18.3081   20.2207 C   0  0  0  0  0  0  0  0  0  0  0  0
   13.3865  -18.3981   19.8582 O   0  0  0  0  0  0  0  0  0  0  0  0
   12.8044  -16.2041   24.6148 O   0  0  0  0  0  0  0  0  0  0  0  0
   11.4233  -19.4759   20.2646 O   0  0  0  0  0  0  0  0  0  0  0  0
  2  1  1  0
  3  2  2  0
  4  3  1  0
  5  4  2  0
  5 11  1  0
  6  5  1  0
  6  7  1  0
  7  9  1  0
  7  8  1  1
  9 10  2  0
  9 15  1  0
 11 12  2  0
 12  2  1  0
 14 13  1  6
 15 14  1  0
 16 14  1  0
 16 17  2  0
 18 19  1  0
 18 16  1  0
 19 20  1  1
 19 24  1  0
 20 21  1  0
 22 21  1  0
 23 22  2  0
 24 25  2  0
 24 27  1  0
 26 22  1  0
M  END
$$$$
