YAE.pdb
     RDKit          3D

 27 27  0  0  1  0  0  0  0  0999 V2000
    7.7357  -12.7770   15.9990 O   0  0  0  0  0  0  0  0  0  0  0  0
    7.8310  -13.0580   17.3628 C   0  0  0  0  0  0  0  0  0  0  0  0
    9.0692  -13.0870   17.9674 C   0  0  0  0  0  0  0  0  0  0  0  0
    9.1597  -13.3693   19.3362 C   0  0  0  0  0  0  0  0  0  0  0  0
    8.0248  -13.6168   20.0771 C   0  0  0  0  0  0  0  0  0  0  0  0
    8.1868  -13.9095   21.5162 C   0  0  0  0  0  0  0  0  0  0  0  0
    8.5109  -15.3450   21.7951 C   0  0  2  0  0  0  0  0  0  0  0  0
    7.6524  -16.2930   21.1365 N   0  0  0  0  0  0  0  0  0  0  0  0
    8.5427  -15.5555   23.2687 C   0  0  0  0  0  0  0  0  0  0  0  0
    9.4024  -14.9399   23.9739 O   0  0  0  0  0  0  0  0  0  0  0  0
    6.7902  -13.5870   19.4699 C   0  0  0  0  0  0  0  0  0  0  0  0
    6.6977  -13.3083   18.1178 C   0  0  0  0  0  0  0  0  0  0  0  0
    6.4708  -17.1321   25.9081 C   0  0  0  0  0  0  0  0  0  0  0  0
    7.8294  -16.7774   25.3461 C   0  0  2  0  0  0  0  0  0  0  0  0
    7.6532  -16.4216   23.9553 N   0  0  0  0  0  0  0  0  0  0  0  0
    8.7090  -17.9886   25.4869 C   0  0  0  0  0  0  0  0  0  0  0  0
    8.4482  -18.9304   24.7027 O   0  0  0  0  0  0  0  0  0  0  0  0
    9.7197  -17.9759   26.4488 N   0  0  0  0  0  0  0  0  0  0  0  0
   10.7672  -18.9397   26.5367 C   0  0  1  0  0  0  0  0  0  0  0  0
   12.0395  -18.5431   25.8214 C   0  0  0  0  0  0  0  0  0  0  0  0
   13.1775  -19.4906   25.9448 C   0  0  0  0  0  0  0  0  0  0  0  0
   14.3654  -19.0098   25.2196 C   0  0  0  0  0  0  0  0  0  0  0  0
   14.4296  -19.0283   23.9858 O   0  0  0  0  0  0  0  0  0  0  0  0
   11.0602  -19.3700   27.9201 C   0  0  0  0  0  0  0  0  0  0  0  0
   11.5607  -20.4886   28.1835 O   0  0  0  0  0  0  0  0  0  0  0  0
   15.4881  -18.5052   25.8996 O   0  0  0  0  0  0  0  0  0  0  0  0
   10.7735  -18.5077   28.9821 O   0  0  0  0  0  0  0  0  0  0  0  0
  2  1  1  0
  3  2  2  0
  4  3  1  0
  5  4  2  0
  5 11  1  0
  6  5  1  0
  6  7  1  0
  7  9  1  0
  7  8  1  6
  9 10  2  0
  9 15  1  0
 11 12  2  0
 12  2  1  0
 14 13  1  6
 15 14  1  0
 16 14  1  0
 16 17  2  0
 18 19  1  0
 18 16  1  0
 19 20  1  1
 19 24  1  0
 20 21  1  0
 22 21  1  0
 23 22  2  0
 24 25  2  0
 24 27  1  0
 26 22  1  0
M  END
$$$$
