YAE.pdb
     RDKit          3D

 27 27  0  0  1  0  0  0  0  0999 V2000
    5.6638  -10.5756   27.8579 O   0  0  0  0  0  0  0  0  0  0  0  0
    6.2478  -11.6184   27.1369 C   0  0  0  0  0  0  0  0  0  0  0  0
    6.5137  -12.8158   27.7654 C   0  0  0  0  0  0  0  0  0  0  0  0
    7.0997  -13.8591   27.0377 C   0  0  0  0  0  0  0  0  0  0  0  0
    7.4101  -13.6961   25.7054 C   0  0  0  0  0  0  0  0  0  0  0  0
    8.0278  -14.8338   24.9933 C   0  0  0  0  0  0  0  0  0  0  0  0
    7.0325  -15.6935   24.2764 C   0  0  2  0  0  0  0  0  0  0  0  0
    6.1831  -16.4732   25.1367 N   0  0  0  0  0  0  0  0  0  0  0  0
    7.7519  -16.5437   23.2882 C   0  0  0  0  0  0  0  0  0  0  0  0
    7.8662  -17.7921   23.4973 O   0  0  0  0  0  0  0  0  0  0  0  0
    7.1431  -12.4990   25.0812 C   0  0  0  0  0  0  0  0  0  0  0  0
    6.5642  -11.4665   25.7976 C   0  0  0  0  0  0  0  0  0  0  0  0
    9.1392  -16.0468   19.8461 C   0  0  0  0  0  0  0  0  0  0  0  0
    8.8766  -16.8978   21.0685 C   0  0  2  0  0  0  0  0  0  0  0  0
    8.3340  -16.0381   22.0973 N   0  0  0  0  0  0  0  0  0  0  0  0
   10.1891  -17.4925   21.4978 C   0  0  0  0  0  0  0  0  0  0  0  0
   10.7074  -18.2866   20.6788 O   0  0  0  0  0  0  0  0  0  0  0  0
   10.7180  -17.1279   22.7364 N   0  0  0  0  0  0  0  0  0  0  0  0
   11.8802  -17.7091   23.3243 C   0  0  1  0  0  0  0  0  0  0  0  0
   13.1849  -17.2349   22.7238 C   0  0  0  0  0  0  0  0  0  0  0  0
   13.5427  -15.8162   22.9834 C   0  0  0  0  0  0  0  0  0  0  0  0
   14.9005  -15.5030   22.5076 C   0  0  0  0  0  0  0  0  0  0  0  0
   15.8225  -16.3228   22.5767 O   0  0  0  0  0  0  0  0  0  0  0  0
   11.9151  -17.5995   24.7980 C   0  0  0  0  0  0  0  0  0  0  0  0
   12.7666  -18.1988   25.4958 O   0  0  0  0  0  0  0  0  0  0  0  0
   15.2141  -14.2506   21.9502 O   0  0  0  0  0  0  0  0  0  0  0  0
   10.9700  -16.8019   25.4493 O   0  0  0  0  0  0  0  0  0  0  0  0
  2  1  1  0
  3  2  2  0
  4  3  1  0
  5  4  2  0
  5 11  1  0
  6  5  1  0
  6  7  1  0
  7  9  1  0
  7  8  1  1
  9 10  2  0
  9 15  1  0
 11 12  2  0
 12  2  1  0
 14 13  1  6
 15 14  1  0
 16 14  1  0
 16 17  2  0
 18 19  1  0
 18 16  1  0
 19 20  1  6
 19 24  1  0
 20 21  1  0
 22 21  1  0
 23 22  2  0
 24 25  2  0
 24 27  1  0
 26 22  1  0
M  END
$$$$
