YAE.pdb
     RDKit          3D

 27 27  0  0  1  0  0  0  0  0999 V2000
    8.7826  -12.2429   17.8725 O   0  0  0  0  0  0  0  0  0  0  0  0
    8.4287  -12.9032   19.0502 C   0  0  0  0  0  0  0  0  0  0  0  0
    7.1018  -12.9831   19.4139 C   0  0  0  0  0  0  0  0  0  0  0  0
    6.7517  -13.6468   20.5966 C   0  0  0  0  0  0  0  0  0  0  0  0
    7.7204  -14.2164   21.3935 C   0  0  0  0  0  0  0  0  0  0  0  0
    7.2871  -14.9015   22.6288 C   0  0  0  0  0  0  0  0  0  0  0  0
    7.1588  -16.3851   22.4684 C   0  0  2  0  0  0  0  0  0  0  0  0
    6.2540  -16.8006   21.4301 N   0  0  0  0  0  0  0  0  0  0  0  0
    6.8056  -16.9844   23.7849 C   0  0  0  0  0  0  0  0  0  0  0  0
    5.6466  -16.7964   24.2712 O   0  0  0  0  0  0  0  0  0  0  0  0
    9.0444  -14.1345   21.0270 C   0  0  0  0  0  0  0  0  0  0  0  0
    9.3932  -13.4796   19.8592 C   0  0  0  0  0  0  0  0  0  0  0  0
    6.3233  -19.5437   25.3748 C   0  0  0  0  0  0  0  0  0  0  0  0
    7.2999  -18.4556   25.7619 C   0  0  2  0  0  0  0  0  0  0  0  0
    7.7020  -17.7719   24.5525 N   0  0  0  0  0  0  0  0  0  0  0  0
    8.4760  -19.1166   26.4256 C   0  0  0  0  0  0  0  0  0  0  0  0
    8.4933  -20.3675   26.3559 O   0  0  0  0  0  0  0  0  0  0  0  0
    9.4323  -18.3149   27.0499 N   0  0  0  0  0  0  0  0  0  0  0  0
   10.8421  -18.4994   26.9388 C   0  0  1  0  0  0  0  0  0  0  0  0
   11.5028  -17.6314   25.8911 C   0  0  0  0  0  0  0  0  0  0  0  0
   12.9619  -17.8381   25.7010 C   0  0  0  0  0  0  0  0  0  0  0  0
   13.5212  -16.8919   24.7212 C   0  0  0  0  0  0  0  0  0  0  0  0
   12.8100  -16.0864   24.1111 O   0  0  0  0  0  0  0  0  0  0  0  0
   11.5558  -18.3926   28.2289 C   0  0  0  0  0  0  0  0  0  0  0  0
   12.7471  -18.7558   28.3691 O   0  0  0  0  0  0  0  0  0  0  0  0
   14.8969  -16.8603   24.4314 O   0  0  0  0  0  0  0  0  0  0  0  0
   10.8893  -17.8693   29.3404 O   0  0  0  0  0  0  0  0  0  0  0  0
  2  1  1  0
  3  2  2  0
  4  3  1  0
  5  4  2  0
  5 11  1  0
  6  5  1  0
  6  7  1  0
  7  9  1  0
  7  8  1  6
  9 10  2  0
  9 15  1  0
 11 12  2  0
 12  2  1  0
 14 13  1  6
 15 14  1  0
 16 14  1  0
 16 17  2  0
 18 19  1  0
 18 16  1  0
 19 20  1  6
 19 24  1  0
 20 21  1  0
 22 21  1  0
 23 22  2  0
 24 25  2  0
 24 27  1  0
 26 22  1  0
M  END
$$$$
