YAE.pdb
     RDKit          3D

 27 27  0  0  1  0  0  0  0  0999 V2000
   -1.0492  -20.8276   19.5801 O   0  0  0  0  0  0  0  0  0  0  0  0
    0.0673  -20.2533   20.1899 C   0  0  0  0  0  0  0  0  0  0  0  0
    0.4428  -20.6659   21.4501 C   0  0  0  0  0  0  0  0  0  0  0  0
    1.5640  -20.0867   22.0577 C   0  0  0  0  0  0  0  0  0  0  0  0
    2.2890  -19.1128   21.4066 C   0  0  0  0  0  0  0  0  0  0  0  0
    3.4606  -18.5402   22.1012 C   0  0  0  0  0  0  0  0  0  0  0  0
    4.7372  -18.6942   21.3330 C   0  0  2  0  0  0  0  0  0  0  0  0
    5.0737  -20.0511   20.9941 N   0  0  0  0  0  0  0  0  0  0  0  0
    5.8347  -18.0203   22.0801 C   0  0  0  0  0  0  0  0  0  0  0  0
    6.5820  -18.7011   22.8504 O   0  0  0  0  0  0  0  0  0  0  0  0
    1.9110  -18.7034   20.1483 C   0  0  0  0  0  0  0  0  0  0  0  0
    0.8039  -19.2739   19.5455 C   0  0  0  0  0  0  0  0  0  0  0  0
    7.0874  -14.5080   22.4847 C   0  0  0  0  0  0  0  0  0  0  0  0
    7.1983  -16.0012   22.6976 C   0  0  2  0  0  0  0  0  0  0  0  0
    6.1078  -16.6313   21.9865 N   0  0  0  0  0  0  0  0  0  0  0  0
    7.0993  -16.2574   24.1759 C   0  0  0  0  0  0  0  0  0  0  0  0
    6.0183  -15.9096   24.7055 O   0  0  0  0  0  0  0  0  0  0  0  0
    8.1829  -16.8456   24.8291 N   0  0  0  0  0  0  0  0  0  0  0  0
    8.2091  -17.1804   26.2152 C   0  0  1  0  0  0  0  0  0  0  0  0
    7.5182  -18.4825   26.5541 C   0  0  0  0  0  0  0  0  0  0  0  0
    8.2863  -19.7211   26.2643 C   0  0  0  0  0  0  0  0  0  0  0  0
    7.5752  -20.9228   26.7314 C   0  0  0  0  0  0  0  0  0  0  0  0
    8.1623  -21.8504   27.2985 O   0  0  0  0  0  0  0  0  0  0  0  0
    9.5627  -17.1397   26.8078 C   0  0  0  0  0  0  0  0  0  0  0  0
    9.7585  -17.2370   28.0419 O   0  0  0  0  0  0  0  0  0  0  0  0
    6.1883  -21.0729   26.5531 O   0  0  0  0  0  0  0  0  0  0  0  0
   10.6730  -16.9877   25.9725 O   0  0  0  0  0  0  0  0  0  0  0  0
  2  1  1  0
  3  2  2  0
  4  3  1  0
  5  4  2  0
  5 11  1  0
  6  5  1  0
  6  7  1  0
  7  9  1  0
  7  8  1  1
  9 10  2  0
  9 15  1  0
 11 12  2  0
 12  2  1  0
 14 13  1  1
 15 14  1  0
 16 14  1  0
 16 17  2  0
 18 19  1  0
 18 16  1  0
 19 20  1  6
 19 24  1  0
 20 21  1  0
 22 21  1  0
 23 22  2  0
 24 25  2  0
 24 27  1  0
 26 22  1  0
M  END
$$$$
