YAE.pdb
     RDKit          3D

 27 27  0  0  1  0  0  0  0  0999 V2000
    7.1972  -12.8675   26.0722 O   0  0  0  0  0  0  0  0  0  0  0  0
    7.1782  -12.9406   24.6784 C   0  0  0  0  0  0  0  0  0  0  0  0
    6.3857  -13.8810   24.0564 C   0  0  0  0  0  0  0  0  0  0  0  0
    6.3700  -13.9503   22.6576 C   0  0  0  0  0  0  0  0  0  0  0  0
    7.1376  -13.0890   21.9047 C   0  0  0  0  0  0  0  0  0  0  0  0
    7.0782  -13.2133   20.4337 C   0  0  0  0  0  0  0  0  0  0  0  0
    8.2084  -14.0124   19.8615 C   0  0  2  0  0  0  0  0  0  0  0  0
    8.1345  -14.2245   18.4406 N   0  0  0  0  0  0  0  0  0  0  0  0
    8.3200  -15.2952   20.6090 C   0  0  0  0  0  0  0  0  0  0  0  0
    7.5436  -16.2599   20.3228 O   0  0  0  0  0  0  0  0  0  0  0  0
    7.9277  -12.1512   22.5294 C   0  0  0  0  0  0  0  0  0  0  0  0
    7.9452  -12.0804   23.9111 C   0  0  0  0  0  0  0  0  0  0  0  0
   10.6532  -17.4221   22.0312 C   0  0  0  0  0  0  0  0  0  0  0  0
    9.3368  -16.7630   22.3780 C   0  0  2  0  0  0  0  0  0  0  0  0
    9.2606  -15.5168   21.6478 N   0  0  0  0  0  0  0  0  0  0  0  0
    9.3273  -16.5214   23.8619 C   0  0  0  0  0  0  0  0  0  0  0  0
   10.2780  -15.8295   24.2950 O   0  0  0  0  0  0  0  0  0  0  0  0
    8.2936  -17.0666   24.6241 N   0  0  0  0  0  0  0  0  0  0  0  0
    8.4809  -17.9153   25.7548 C   0  0  1  0  0  0  0  0  0  0  0  0
    8.0857  -19.3568   25.5234 C   0  0  0  0  0  0  0  0  0  0  0  0
    8.2510  -20.2709   26.6832 C   0  0  0  0  0  0  0  0  0  0  0  0
    7.0937  -21.1681   26.8367 C   0  0  0  0  0  0  0  0  0  0  0  0
    6.8442  -22.0588   26.0174 O   0  0  0  0  0  0  0  0  0  0  0  0
    9.8375  -17.8344   26.3365 C   0  0  0  0  0  0  0  0  0  0  0  0
   10.8667  -18.1243   25.6825 O   0  0  0  0  0  0  0  0  0  0  0  0
    6.2132  -21.0533   27.9272 O   0  0  0  0  0  0  0  0  0  0  0  0
    9.9918  -17.4211   27.6627 O   0  0  0  0  0  0  0  0  0  0  0  0
  2  1  1  0
  3  2  2  0
  4  3  1  0
  5  4  2  0
  5 11  1  0
  6  5  1  0
  6  7  1  0
  7  9  1  0
  7  8  1  6
  9 10  2  0
  9 15  1  0
 11 12  2  0
 12  2  1  0
 14 13  1  6
 15 14  1  0
 16 14  1  0
 16 17  2  0
 18 19  1  0
 18 16  1  0
 19 20  1  6
 19 24  1  0
 20 21  1  0
 22 21  1  0
 23 22  2  0
 24 25  2  0
 24 27  1  0
 26 22  1  0
M  END
$$$$
