YAE.pdb
     RDKit          3D

 27 27  0  0  1  0  0  0  0  0999 V2000
    5.5210  -10.4862   28.4670 O   0  0  0  0  0  0  0  0  0  0  0  0
    6.1075  -11.3979   27.5877 C   0  0  0  0  0  0  0  0  0  0  0  0
    7.2868  -12.0193   27.9375 C   0  0  0  0  0  0  0  0  0  0  0  0
    7.8714  -12.9334   27.0518 C   0  0  0  0  0  0  0  0  0  0  0  0
    7.2778  -13.2129   25.8404 C   0  0  0  0  0  0  0  0  0  0  0  0
    7.9444  -14.1854   24.9499 C   0  0  0  0  0  0  0  0  0  0  0  0
    7.0448  -15.3004   24.5129 C   0  0  2  0  0  0  0  0  0  0  0  0
    6.7060  -16.2393   25.5487 N   0  0  0  0  0  0  0  0  0  0  0  0
    7.6492  -15.9731   23.3301 C   0  0  0  0  0  0  0  0  0  0  0  0
    8.2649  -17.0750   23.4792 O   0  0  0  0  0  0  0  0  0  0  0  0
    6.1002  -12.5904   25.4946 C   0  0  0  0  0  0  0  0  0  0  0  0
    5.5204  -11.6870   26.3676 C   0  0  0  0  0  0  0  0  0  0  0  0
    7.8697  -15.2981   19.6442 C   0  0  0  0  0  0  0  0  0  0  0  0
    8.1544  -16.1326   20.8731 C   0  0  2  0  0  0  0  0  0  0  0  0
    7.5816  -15.4507   22.0128 N   0  0  0  0  0  0  0  0  0  0  0  0
    9.6474  -16.2487   21.0069 C   0  0  0  0  0  0  0  0  0  0  0  0
   10.2558  -15.1622   21.1464 O   0  0  0  0  0  0  0  0  0  0  0  0
   10.2281  -17.5168   20.9681 N   0  0  0  0  0  0  0  0  0  0  0  0
   11.6298  -17.7691   21.0445 C   0  0  1  0  0  0  0  0  0  0  0  0
   12.0383  -18.6720   22.1870 C   0  0  0  0  0  0  0  0  0  0  0  0
   11.6650  -18.2079   23.5484 C   0  0  0  0  0  0  0  0  0  0  0  0
   12.0702  -19.1752   24.5819 C   0  0  0  0  0  0  0  0  0  0  0  0
   12.4178  -20.3267   24.2988 O   0  0  0  0  0  0  0  0  0  0  0  0
   12.2156  -18.2417   19.7723 C   0  0  0  0  0  0  0  0  0  0  0  0
   11.5161  -18.7132   18.8453 O   0  0  0  0  0  0  0  0  0  0  0  0
   12.0802  -18.8335   25.9460 O   0  0  0  0  0  0  0  0  0  0  0  0
   13.5984  -18.1656   19.5836 O   0  0  0  0  0  0  0  0  0  0  0  0
  2  1  1  0
  3  2  2  0
  4  3  1  0
  5  4  2  0
  5 11  1  0
  6  5  1  0
  6  7  1  0
  7  9  1  0
  7  8  1  1
  9 10  2  0
  9 15  1  0
 11 12  2  0
 12  2  1  0
 14 13  1  6
 15 14  1  0
 16 14  1  0
 16 17  2  0
 18 19  1  0
 18 16  1  0
 19 20  1  1
 19 24  1  0
 20 21  1  0
 22 21  1  0
 23 22  2  0
 24 25  2  0
 24 27  1  0
 26 22  1  0
M  END
$$$$
