PVA.pdb
     RDKit          3D

 20 20  0  0  1  0  0  0  0  0999 V2000
    8.2901  -15.0297   20.2047 N   0  0  0  0  0  0  0  0  0  0  0  0
    7.5538  -15.6674   19.1564 C   0  0  0  0  0  0  0  0  0  0  0  0
    6.7036  -16.6757   19.8575 C   0  0  0  0  0  0  0  0  0  0  0  0
    6.5833  -16.2481   21.3028 C   0  0  0  0  0  0  0  0  0  0  0  0
    7.3899  -14.9741   21.3199 C   0  0  1  0  0  0  0  0  0  0  0  0
    8.1241  -14.7592   22.5675 C   0  0  0  0  0  0  0  0  0  0  0  0
    9.3350  -15.0850   22.6342 O   0  0  0  0  0  0  0  0  0  0  0  0
    6.1117  -13.5735   26.1552 C   0  0  0  0  0  0  0  0  0  0  0  0
    7.4752  -12.9957   25.8453 C   0  0  1  0  0  0  0  0  0  0  0  0
    8.1828  -12.6936   27.1301 C   0  0  0  0  0  0  0  0  0  0  0  0
    8.2758  -13.9315   24.9544 C   0  0  2  0  0  0  0  0  0  0  0  0
    7.5523  -14.1950   23.7374 N   0  0  0  0  0  0  0  0  0  0  0  0
    8.5450  -15.1631   25.7316 C   0  0  0  0  0  0  0  0  0  0  0  0
    7.5959  -15.9493   25.9403 O   0  0  0  0  0  0  0  0  0  0  0  0
   11.2896  -17.4559   26.3154 C   0  0  0  0  0  0  0  0  0  0  0  0
   10.0302  -16.7870   26.8370 C   0  0  2  0  0  0  0  0  0  0  0  0
    9.8300  -15.4865   26.2469 N   0  0  0  0  0  0  0  0  0  0  0  0
   10.0751  -16.6876   28.3389 C   0  0  0  0  0  0  0  0  0  0  0  0
    9.9972  -15.6038   28.9372 O   0  0  0  0  0  0  0  0  0  0  0  0
   10.2083  -17.8418   29.0962 O   0  0  0  0  0  0  0  0  0  0  0  0
  2  1  1  0
  3  2  1  0
  4  3  1  0
  4  5  1  0
  5  1  1  0
  6 12  1  0
  5  6  1  1
  7  6  2  0
  9  8  1  1
  9 11  1  0
 10  9  1  0
 11 12  1  6
 11 13  1  0
 13 14  2  0
 16 15  1  6
 16 18  1  0
 17 13  1  0
 17 16  1  0
 18 20  1  0
 19 18  2  0
M  END
$$$$
