PVA.pdb
     RDKit          3D

 20 20  0  0  1  0  0  0  0  0999 V2000
    8.6317  -17.8597   16.5163 N   0  0  0  0  0  0  0  0  0  0  0  0
    8.0564  -19.0057   15.8810 C   0  0  0  0  0  0  0  0  0  0  0  0
    7.5076  -19.8201   17.0066 C   0  0  0  0  0  0  0  0  0  0  0  0
    7.3179  -18.8977   18.1895 C   0  0  0  0  0  0  0  0  0  0  0  0
    7.7744  -17.5739   17.6300 C   0  0  1  0  0  0  0  0  0  0  0  0
    8.4601  -16.7273   18.6070 C   0  0  0  0  0  0  0  0  0  0  0  0
    9.7107  -16.7864   18.7042 O   0  0  0  0  0  0  0  0  0  0  0  0
    8.1542  -13.1381   22.0908 C   0  0  0  0  0  0  0  0  0  0  0  0
    7.5501  -13.8929   20.9272 C   0  0  1  0  0  0  0  0  0  0  0  0
    7.2713  -12.9328   19.8121 C   0  0  0  0  0  0  0  0  0  0  0  0
    8.4516  -15.0358   20.4897 C   0  0  2  0  0  0  0  0  0  0  0  0
    7.7974  -15.8209   19.4750 N   0  0  0  0  0  0  0  0  0  0  0  0
    8.7804  -15.8294   21.6961 C   0  0  0  0  0  0  0  0  0  0  0  0
    7.8629  -16.4761   22.2460 O   0  0  0  0  0  0  0  0  0  0  0  0
   11.5840  -17.6643   23.0341 C   0  0  0  0  0  0  0  0  0  0  0  0
   10.3478  -16.8277   23.3120 C   0  0  2  0  0  0  0  0  0  0  0  0
   10.0880  -15.8860   22.2512 N   0  0  0  0  0  0  0  0  0  0  0  0
   10.4843  -16.1163   24.6323 C   0  0  0  0  0  0  0  0  0  0  0  0
   10.5028  -14.8794   24.7234 O   0  0  0  0  0  0  0  0  0  0  0  0
   10.5944  -16.8573   25.7993 O   0  0  0  0  0  0  0  0  0  0  0  0
  2  1  1  0
  3  2  1  0
  4  3  1  0
  4  5  1  0
  5  1  1  0
  6 12  1  0
  5  6  1  1
  7  6  2  0
  9  8  1  1
  9 11  1  0
 10  9  1  0
 11 12  1  6
 11 13  1  0
 13 14  2  0
 16 15  1  6
 16 18  1  0
 17 13  1  0
 17 16  1  0
 18 20  1  0
 19 18  2  0
M  END
$$$$
