PVA.pdb
     RDKit          3D

 20 20  0  0  1  0  0  0  0  0999 V2000
   -1.7905  -21.7261   25.3178 N   0  0  0  0  0  0  0  0  0  0  0  0
   -0.7228  -21.4103   24.4187 C   0  0  0  0  0  0  0  0  0  0  0  0
   -1.0250  -22.2015   23.1882 C   0  0  0  0  0  0  0  0  0  0  0  0
   -2.4989  -22.5376   23.2100 C   0  0  0  0  0  0  0  0  0  0  0  0
   -2.9509  -21.8786   24.4889 C   0  0  1  0  0  0  0  0  0  0  0  0
   -3.9972  -22.6194   25.1946 C   0  0  0  0  0  0  0  0  0  0  0  0
   -5.1290  -22.7436   24.6649 O   0  0  0  0  0  0  0  0  0  0  0  0
   -4.0133  -26.2581   26.2331 C   0  0  0  0  0  0  0  0  0  0  0  0
   -4.1889  -25.4025   27.4684 C   0  0  1  0  0  0  0  0  0  0  0  0
   -2.8676  -25.2626   28.1593 C   0  0  0  0  0  0  0  0  0  0  0  0
   -4.7997  -24.0554   27.1181 C   0  0  2  0  0  0  0  0  0  0  0  0
   -3.8212  -23.2233   26.4668 N   0  0  0  0  0  0  0  0  0  0  0  0
   -5.3066  -23.4570   28.3743 C   0  0  0  0  0  0  0  0  0  0  0  0
   -4.4829  -22.9256   29.1500 O   0  0  0  0  0  0  0  0  0  0  0  0
   -8.3459  -21.9303   29.6818 C   0  0  0  0  0  0  0  0  0  0  0  0
   -7.0897  -22.7495   29.9186 C   0  0  2  0  0  0  0  0  0  0  0  0
   -6.6824  -23.4617   28.7326 N   0  0  0  0  0  0  0  0  0  0  0  0
   -7.2961  -23.7028   31.0660 C   0  0  0  0  0  0  0  0  0  0  0  0
   -7.4142  -24.9266   30.9019 O   0  0  0  0  0  0  0  0  0  0  0  0
   -7.3588  -23.2098   32.3607 O   0  0  0  0  0  0  0  0  0  0  0  0
  2  1  1  0
  3  2  1  0
  4  3  1  0
  4  5  1  0
  5  1  1  0
  6 12  1  0
  5  6  1  1
  7  6  2  0
  9  8  1  6
  9 11  1  0
 10  9  1  0
 11 12  1  1
 11 13  1  0
 13 14  2  0
 16 15  1  6
 16 18  1  0
 17 13  1  0
 17 16  1  0
 18 20  1  0
 19 18  2  0
M  END
$$$$
