PVA.pdb
     RDKit          3D

 20 20  0  0  1  0  0  0  0  0999 V2000
    8.3596  -15.1483   20.3558 N   0  0  0  0  0  0  0  0  0  0  0  0
    7.7504  -15.8512   19.2683 C   0  0  0  0  0  0  0  0  0  0  0  0
    6.9770  -16.9500   19.9209 C   0  0  0  0  0  0  0  0  0  0  0  0
    6.7375  -16.5501   21.3592 C   0  0  0  0  0  0  0  0  0  0  0  0
    7.4022  -15.1980   21.4226 C   0  0  1  0  0  0  0  0  0  0  0  0
    8.0439  -14.9175   22.7075 C   0  0  0  0  0  0  0  0  0  0  0  0
    9.2838  -15.0778   22.8255 O   0  0  0  0  0  0  0  0  0  0  0  0
    7.6432  -13.0566   27.3400 C   0  0  0  0  0  0  0  0  0  0  0  0
    7.0226  -13.3585   25.9937 C   0  0  1  0  0  0  0  0  0  0  0  0
    6.6140  -12.0730   25.3431 C   0  0  0  0  0  0  0  0  0  0  0  0
    7.9712  -14.1669   25.1235 C   0  0  2  0  0  0  0  0  0  0  0  0
    7.3490  -14.4659   23.8596 N   0  0  0  0  0  0  0  0  0  0  0  0
    8.3358  -15.3877   25.8785 C   0  0  0  0  0  0  0  0  0  0  0  0
    7.4297  -16.2024   26.1576 O   0  0  0  0  0  0  0  0  0  0  0  0
   11.1646  -17.6101   26.2900 C   0  0  0  0  0  0  0  0  0  0  0  0
    9.9419  -16.9494   26.9013 C   0  0  2  0  0  0  0  0  0  0  0  0
    9.6650  -15.6699   26.2965 N   0  0  0  0  0  0  0  0  0  0  0  0
   10.1148  -16.8066   28.3905 C   0  0  0  0  0  0  0  0  0  0  0  0
   10.1479  -15.7022   28.9542 O   0  0  0  0  0  0  0  0  0  0  0  0
   10.2432  -17.9428   29.1752 O   0  0  0  0  0  0  0  0  0  0  0  0
  2  1  1  0
  3  2  1  0
  4  3  1  0
  4  5  1  0
  5  1  1  0
  6 12  1  0
  5  6  1  1
  7  6  2  0
  9  8  1  1
  9 11  1  0
 10  9  1  0
 11 12  1  6
 11 13  1  0
 13 14  2  0
 16 15  1  6
 16 18  1  0
 17 13  1  0
 17 16  1  0
 18 20  1  0
 19 18  2  0
M  END
$$$$
