PVA.pdb
     RDKit          3D

 20 20  0  0  1  0  0  0  0  0999 V2000
    7.0297  -14.9697   21.2839 N   0  0  0  0  0  0  0  0  0  0  0  0
    6.4963  -14.6986   19.9840 C   0  0  0  0  0  0  0  0  0  0  0  0
    7.0706  -13.3700   19.6146 C   0  0  0  0  0  0  0  0  0  0  0  0
    8.3048  -13.1532   20.4606 C   0  0  0  0  0  0  0  0  0  0  0  0
    8.3562  -14.4245   21.2701 C   0  0  1  0  0  0  0  0  0  0  0  0
    8.8517  -14.2341   22.6338 C   0  0  0  0  0  0  0  0  0  0  0  0
   10.0868  -14.2874   22.8542 O   0  0  0  0  0  0  0  0  0  0  0  0
    6.1647  -13.5648   25.9795 C   0  0  0  0  0  0  0  0  0  0  0  0
    7.4836  -12.8400   25.8248 C   0  0  1  0  0  0  0  0  0  0  0  0
    7.9771  -12.4267   27.1770 C   0  0  0  0  0  0  0  0  0  0  0  0
    8.4947  -13.6975   25.0813 C   0  0  2  0  0  0  0  0  0  0  0  0
    8.0163  -13.9871   23.7542 N   0  0  0  0  0  0  0  0  0  0  0  0
    8.7147  -14.9222   25.8843 C   0  0  0  0  0  0  0  0  0  0  0  0
    7.7755  -15.7414   25.9818 O   0  0  0  0  0  0  0  0  0  0  0  0
   11.2580  -17.2638   26.7337 C   0  0  0  0  0  0  0  0  0  0  0  0
   10.0780  -16.4567   27.2450 C   0  0  2  0  0  0  0  0  0  0  0  0
    9.9418  -15.2034   26.5448 N   0  0  0  0  0  0  0  0  0  0  0  0
   10.2062  -16.2256   28.7276 C   0  0  0  0  0  0  0  0  0  0  0  0
   10.2507  -15.0893   29.2230 O   0  0  0  0  0  0  0  0  0  0  0  0
   10.2784  -17.3134   29.5847 O   0  0  0  0  0  0  0  0  0  0  0  0
  2  1  1  0
  3  2  1  0
  4  3  1  0
  4  5  1  0
  5  1  1  0
  6 12  1  0
  5  6  1  1
  7  6  2  0
  9  8  1  1
  9 11  1  0
 10  9  1  0
 11 12  1  6
 11 13  1  0
 13 14  2  0
 16 15  1  6
 16 18  1  0
 17 13  1  0
 17 16  1  0
 18 20  1  0
 19 18  2  0
M  END
$$$$
