PVA.pdb
     RDKit          3D

 20 20  0  0  1  0  0  0  0  0999 V2000
    6.9385  -14.4112   21.1059 N   0  0  0  0  0  0  0  0  0  0  0  0
    6.4455  -13.8428   19.8887 C   0  0  0  0  0  0  0  0  0  0  0  0
    7.1652  -12.5394   19.7673 C   0  0  0  0  0  0  0  0  0  0  0  0
    8.4111  -12.6229   20.6198 C   0  0  0  0  0  0  0  0  0  0  0  0
    8.3172  -14.0219   21.1745 C   0  0  1  0  0  0  0  0  0  0  0  0
    8.8232  -14.1479   22.5418 C   0  0  0  0  0  0  0  0  0  0  0  0
   10.0623  -14.1996   22.7385 O   0  0  0  0  0  0  0  0  0  0  0  0
    7.4987  -12.0274   25.5909 C   0  0  0  0  0  0  0  0  0  0  0  0
    7.5406  -13.4934   25.9623 C   0  0  1  0  0  0  0  0  0  0  0  0
    6.1484  -14.0447   25.9391 C   0  0  0  0  0  0  0  0  0  0  0  0
    8.4788  -14.2627   25.0466 C   0  0  2  0  0  0  0  0  0  0  0  0
    7.9938  -14.2177   23.6914 N   0  0  0  0  0  0  0  0  0  0  0  0
    8.5748  -15.6452   25.5686 C   0  0  0  0  0  0  0  0  0  0  0  0
    7.5671  -16.3801   25.4839 O   0  0  0  0  0  0  0  0  0  0  0  0
   10.6962  -18.4023   25.7808 C   0  0  0  0  0  0  0  0  0  0  0  0
    9.7585  -17.5392   26.6062 C   0  0  2  0  0  0  0  0  0  0  0  0
    9.7578  -16.1683   26.1585 N   0  0  0  0  0  0  0  0  0  0  0  0
   10.1215  -17.6212   28.0654 C   0  0  0  0  0  0  0  0  0  0  0  0
   10.3994  -16.6180   28.7398 O   0  0  0  0  0  0  0  0  0  0  0  0
   10.1507  -18.8572   28.6936 O   0  0  0  0  0  0  0  0  0  0  0  0
  2  1  1  0
  3  2  1  0
  4  3  1  0
  4  5  1  0
  5  1  1  0
  6 12  1  0
  5  6  1  1
  7  6  2  0
  9  8  1  6
  9 11  1  0
 10  9  1  0
 11 12  1  6
 11 13  1  0
 13 14  2  0
 16 15  1  6
 16 18  1  0
 17 13  1  0
 17 16  1  0
 18 20  1  0
 19 18  2  0
M  END
$$$$
