PVA.pdb
     RDKit          3D

 20 20  0  0  1  0  0  0  0  0999 V2000
    7.4549  -14.8859   19.7347 N   0  0  0  0  0  0  0  0  0  0  0  0
    7.6923  -14.0751   18.5797 C   0  0  0  0  0  0  0  0  0  0  0  0
    7.8805  -12.6967   19.1237 C   0  0  0  0  0  0  0  0  0  0  0  0
    8.2603  -12.8273   20.5813 C   0  0  0  0  0  0  0  0  0  0  0  0
    8.2764  -14.3237   20.7673 C   0  0  1  0  0  0  0  0  0  0  0  0
    7.8173  -14.7574   22.0874 C   0  0  0  0  0  0  0  0  0  0  0  0
    6.6154  -14.5874   22.4090 O   0  0  0  0  0  0  0  0  0  0  0  0
    7.0563  -17.8030   23.4568 C   0  0  0  0  0  0  0  0  0  0  0  0
    8.1044  -17.2989   24.4244 C   0  0  1  0  0  0  0  0  0  0  0  0
    9.4072  -17.9775   24.1329 C   0  0  0  0  0  0  0  0  0  0  0  0
    8.2194  -15.7844   24.3655 C   0  0  2  0  0  0  0  0  0  0  0  0
    8.6534  -15.3721   23.0556 N   0  0  0  0  0  0  0  0  0  0  0  0
    9.1599  -15.3682   25.4311 C   0  0  0  0  0  0  0  0  0  0  0  0
   10.3851  -15.4061   25.1857 O   0  0  0  0  0  0  0  0  0  0  0  0
    9.1754  -13.4281   28.6001 C   0  0  0  0  0  0  0  0  0  0  0  0
    9.7233  -14.4879   27.6610 C   0  0  2  0  0  0  0  0  0  0  0  0
    8.7301  -14.9301   26.7135 N   0  0  0  0  0  0  0  0  0  0  0  0
   10.2638  -15.6533   28.4468 C   0  0  0  0  0  0  0  0  0  0  0  0
    9.7381  -16.7764   28.4188 O   0  0  0  0  0  0  0  0  0  0  0  0
   11.3910  -15.4809   29.2362 O   0  0  0  0  0  0  0  0  0  0  0  0
  2  1  1  0
  3  2  1  0
  4  3  1  0
  4  5  1  0
  5  1  1  0
  6 12  1  0
  5  6  1  1
  7  6  2  0
  9  8  1  6
  9 11  1  0
 10  9  1  0
 11 12  1  6
 11 13  1  0
 13 14  2  0
 16 15  1  1
 16 18  1  0
 17 13  1  0
 17 16  1  0
 18 20  1  0
 19 18  2  0
M  END
$$$$
