YRM.pdb
     RDKit          3D

 32 32  0  0  1  0  0  0  0  0999 V2000
    7.9254  -11.9831   16.8662 O   0  0  0  0  0  0  0  0  0  0  0  0
    7.8168  -12.7557   18.0373 C   0  0  0  0  0  0  0  0  0  0  0  0
    7.7867  -12.1467   19.2803 C   0  0  0  0  0  0  0  0  0  0  0  0
    7.6825  -12.8808   20.4374 C   0  0  0  0  0  0  0  0  0  0  0  0
    7.6031  -14.2822   20.3818 C   0  0  0  0  0  0  0  0  0  0  0  0
    7.4946  -15.0354   21.6462 C   0  0  0  0  0  0  0  0  0  0  0  0
    7.4517  -16.5428   21.4517 C   0  0  2  0  0  0  0  0  0  0  0  0
    6.0617  -16.9900   21.4397 N   0  0  0  0  0  0  0  0  0  0  0  0
    8.1513  -17.2875   22.5159 C   0  0  0  0  0  0  0  0  0  0  0  0
    7.5046  -17.5282   23.5869 O   0  0  0  0  0  0  0  0  0  0  0  0
    7.6327  -14.8698   19.1484 C   0  0  0  0  0  0  0  0  0  0  0  0
    7.7385  -14.1279   17.9697 C   0  0  0  0  0  0  0  0  0  0  0  0
   15.7245  -22.0911   22.0679 N   0  0  0  0  0  0  0  0  0  0  0  0
   14.6536  -22.6735   22.8233 C   0  0  0  0  0  0  0  0  0  0  0  0
   14.7452  -23.9159   23.0693 N   0  0  0  0  0  0  0  0  0  0  0  0
   13.5432  -21.9114   23.2694 N   0  0  0  0  0  0  0  0  0  0  0  0
   13.4381  -20.4915   23.0348 C   0  0  0  0  0  0  0  0  0  0  0  0
   12.2557  -19.8422   23.6861 C   0  0  0  0  0  0  0  0  0  0  0  0
   11.3287  -19.1218   22.7900 C   0  0  0  0  0  0  0  0  0  0  0  0
   10.1387  -18.4599   23.4452 C   0  0  2  0  0  0  0  0  0  0  0  0
    9.4775  -17.7129   22.3548 N   0  0  0  0  0  0  0  0  0  0  0  0
   10.5047  -17.4355   24.4431 C   0  0  0  0  0  0  0  0  0  0  0  0
   11.2082  -16.4274   24.0838 O   0  0  0  0  0  0  0  0  0  0  0  0
   14.1216  -24.5099   23.6169 C   0  0  0  0  0  0  0  0  0  0  0  0
    9.6717  -11.5481   28.7804 S   0  0  0  0  0  0  0  0  0  0  0  0
    9.0695  -12.8395   27.6581 C   0  0  0  0  0  0  0  0  0  0  0  0
   10.1179  -14.2859   27.8069 C   0  0  0  0  0  0  0  0  0  0  0  0
    9.7439  -15.3308   26.7944 C   0  0  1  0  0  0  0  0  0  0  0  0
   10.7227  -16.4886   26.7551 N   0  0  0  0  0  0  0  0  0  0  0  0
   10.1356  -17.4575   25.8171 C   0  0  0  0  0  0  0  0  0  0  0  0
   10.8610  -17.1642   28.0590 O   0  0  0  0  0  0  0  0  0  0  0  0
   10.2814  -18.2545   28.2964 O   0  0  0  0  0  0  0  0  0  0  0  0
  2  1  1  0
  3  2  2  0
  4  3  1  0
  5 11  1  0
  5  4  2  0
  6  7  1  0
  6  5  1  0
  7  9  1  0
  7  8  1  1
  9 21  1  0
 10  9  2  0
 11 12  2  0
 12  2  1  0
 13 14  1  0
 14 15  2  0
 16 14  1  0
 16 17  1  0
 18 17  1  0
 19 18  1  0
 20 19  1  6
 21 20  1  0
 22 20  1  0
 22 29  1  0
 23 22  2  0
 25 24  1  0
 25 26  1  0
 26 27  1  0
 28 27  1  6
 28 29  1  0
 28 30  1  0
 30 31  2  0
 30 32  1  0
M  END
$$$$
