YRM.pdb
     RDKit          3D

 32 32  0  0  1  0  0  0  0  0999 V2000
    7.5202  -22.9657   30.4377 O   0  0  0  0  0  0  0  0  0  0  0  0
    7.4554  -21.9246   29.4932 C   0  0  0  0  0  0  0  0  0  0  0  0
    8.5655  -21.1375   29.2381 C   0  0  0  0  0  0  0  0  0  0  0  0
    8.5253  -20.1145   28.3213 C   0  0  0  0  0  0  0  0  0  0  0  0
    7.3417  -19.8433   27.6149 C   0  0  0  0  0  0  0  0  0  0  0  0
    7.3376  -18.7350   26.6405 C   0  0  0  0  0  0  0  0  0  0  0  0
    6.9206  -19.1600   25.2415 C   0  0  2  0  0  0  0  0  0  0  0  0
    7.4247  -20.5040   24.9734 N   0  0  0  0  0  0  0  0  0  0  0  0
    7.4372  -18.2702   24.1842 C   0  0  0  0  0  0  0  0  0  0  0  0
    8.4791  -18.6480   23.5557 O   0  0  0  0  0  0  0  0  0  0  0  0
    6.2544  -20.6288   27.8757 C   0  0  0  0  0  0  0  0  0  0  0  0
    6.2905  -21.6696   28.8066 C   0  0  0  0  0  0  0  0  0  0  0  0
    7.8124  -12.0532   18.5405 N   0  0  0  0  0  0  0  0  0  0  0  0
    7.9643  -13.4761   18.4476 C   0  0  0  0  0  0  0  0  0  0  0  0
    7.8252  -13.9858   17.2929 N   0  0  0  0  0  0  0  0  0  0  0  0
    8.2472  -14.2805   19.5816 N   0  0  0  0  0  0  0  0  0  0  0  0
    7.8391  -13.9059   20.9139 C   0  0  0  0  0  0  0  0  0  0  0  0
    6.5181  -14.4706   21.3386 C   0  0  0  0  0  0  0  0  0  0  0  0
    6.4555  -15.0342   22.7024 C   0  0  0  0  0  0  0  0  0  0  0  0
    7.5129  -16.0537   23.0575 C   0  0  2  0  0  0  0  0  0  0  0  0
    6.8061  -17.0547   23.8837 N   0  0  0  0  0  0  0  0  0  0  0  0
    8.5795  -15.5230   23.9291 C   0  0  0  0  0  0  0  0  0  0  0  0
    8.4028  -14.4092   24.5361 O   0  0  0  0  0  0  0  0  0  0  0  0
    7.8888  -14.9646   17.0109 C   0  0  0  0  0  0  0  0  0  0  0  0
    9.8599  -13.9540   29.2851 S   0  0  0  0  0  0  0  0  0  0  0  0
    9.4851  -13.1482   27.7038 C   0  0  0  0  0  0  0  0  0  0  0  0
    9.0596  -14.3982   26.4914 C   0  0  0  0  0  0  0  0  0  0  0  0
   10.1108  -15.4696   26.4282 C   0  0  2  0  0  0  0  0  0  0  0  0
   10.8066  -15.5322   25.0821 N   0  0  0  0  0  0  0  0  0  0  0  0
    9.8315  -16.1536   24.1731 C   0  0  0  0  0  0  0  0  0  0  0  0
   12.0054  -16.3913   25.0982 O   0  0  0  0  0  0  0  0  0  0  0  0
   11.9789  -17.5613   24.6382 O   0  0  0  0  0  0  0  0  0  0  0  0
  2  1  1  0
  3  2  2  0
  4  3  1  0
  5 11  1  0
  5  4  2  0
  6  7  1  0
  6  5  1  0
  7  9  1  0
  7  8  1  6
  9 21  1  0
 10  9  2  0
 11 12  2  0
 12  2  1  0
 13 14  1  0
 14 15  2  0
 16 14  1  0
 16 17  1  0
 18 17  1  0
 19 18  1  0
 20 19  1  1
 21 20  1  0
 22 20  1  0
 22 29  1  0
 23 22  2  0
 25 24  1  0
 25 26  1  0
 26 27  1  0
 28 27  1  6
 28 29  1  0
 28 30  1  0
 30 31  2  0
 30 32  1  0
M  END
$$$$
