YRM.pdb
     RDKit          3D

 32 32  0  0  1  0  0  0  0  0999 V2000
   11.6557  -18.0414   31.3192 O   0  0  0  0  0  0  0  0  0  0  0  0
   11.5451  -17.5621   30.0008 C   0  0  0  0  0  0  0  0  0  0  0  0
   11.5417  -16.2011   29.7462 C   0  0  0  0  0  0  0  0  0  0  0  0
   11.4333  -15.7101   28.4672 C   0  0  0  0  0  0  0  0  0  0  0  0
   11.3226  -16.5903   27.3781 C   0  0  0  0  0  0  0  0  0  0  0  0
   11.2058  -16.0244   26.0202 C   0  0  0  0  0  0  0  0  0  0  0  0
   12.0030  -16.7884   24.9749 C   0  0  2  0  0  0  0  0  0  0  0  0
   13.4298  -16.5841   25.2096 N   0  0  0  0  0  0  0  0  0  0  0  0
   11.7120  -16.3609   23.5932 C   0  0  0  0  0  0  0  0  0  0  0  0
   12.5648  -15.6080   23.0194 O   0  0  0  0  0  0  0  0  0  0  0  0
   11.3286  -17.9307   27.6439 C   0  0  0  0  0  0  0  0  0  0  0  0
   11.4385  -18.4345   28.9421 C   0  0  0  0  0  0  0  0  0  0  0  0
    8.3685  -14.4690   16.5854 N   0  0  0  0  0  0  0  0  0  0  0  0
    7.6826  -13.5187   17.4118 C   0  0  0  0  0  0  0  0  0  0  0  0
    6.8206  -12.7857   16.8354 N   0  0  0  0  0  0  0  0  0  0  0  0
    7.9517  -13.3920   18.7991 N   0  0  0  0  0  0  0  0  0  0  0  0
    8.8649  -14.2694   19.4907 C   0  0  0  0  0  0  0  0  0  0  0  0
    8.2099  -15.2055   20.4597 C   0  0  0  0  0  0  0  0  0  0  0  0
    9.1022  -16.1492   21.1628 C   0  0  0  0  0  0  0  0  0  0  0  0
    9.5336  -15.7549   22.5564 C   0  0  2  0  0  0  0  0  0  0  0  0
   10.5411  -16.7667   22.9375 N   0  0  0  0  0  0  0  0  0  0  0  0
    8.4643  -15.8808   23.5662 C   0  0  0  0  0  0  0  0  0  0  0  0
    7.5432  -16.7559   23.4043 O   0  0  0  0  0  0  0  0  0  0  0  0
    6.1981  -12.0861   17.2410 C   0  0  0  0  0  0  0  0  0  0  0  0
    6.6243   -9.8527   26.1434 S   0  0  0  0  0  0  0  0  0  0  0  0
    5.8203  -11.3765   25.5760 C   0  0  0  0  0  0  0  0  0  0  0  0
    6.9439  -12.7550   25.8013 C   0  0  0  0  0  0  0  0  0  0  0  0
    6.3154  -14.0433   25.3517 C   0  0  2  0  0  0  0  0  0  0  0  0
    7.1876  -15.2521   25.6312 N   0  0  0  0  0  0  0  0  0  0  0  0
    8.3542  -15.0975   24.7490 C   0  0  0  0  0  0  0  0  0  0  0  0
    6.5311  -16.5245   25.2766 O   0  0  0  0  0  0  0  0  0  0  0  0
    6.7253  -17.0732   24.1620 O   0  0  0  0  0  0  0  0  0  0  0  0
  2  1  1  0
  3  2  2  0
  4  3  1  0
  5 11  1  0
  5  4  2  0
  6  7  1  0
  6  5  1  0
  7  9  1  0
  7  8  1  1
  9 21  1  0
 10  9  2  0
 11 12  2  0
 12  2  1  0
 13 14  1  0
 14 15  2  0
 16 14  1  0
 16 17  1  0
 18 17  1  0
 19 18  1  0
 20 19  1  6
 21 20  1  0
 22 20  1  0
 22 29  1  0
 23 22  2  0
 25 24  1  0
 25 26  1  0
 26 27  1  0
 28 27  1  1
 28 29  1  0
 28 30  1  0
 30 31  2  0
 30 32  1  0
M  END
$$$$
