YRM.pdb
     RDKit          3D

 32 32  0  0  1  0  0  0  0  0999 V2000
    6.1312  -25.1954   21.2852 O   0  0  0  0  0  0  0  0  0  0  0  0
    6.6490  -23.8870   21.2703 C   0  0  0  0  0  0  0  0  0  0  0  0
    8.0157  -23.6731   21.2103 C   0  0  0  0  0  0  0  0  0  0  0  0
    8.5441  -22.4045   21.1960 C   0  0  0  0  0  0  0  0  0  0  0  0
    7.6974  -21.2845   21.2423 C   0  0  0  0  0  0  0  0  0  0  0  0
    8.3029  -19.9388   21.2275 C   0  0  0  0  0  0  0  0  0  0  0  0
    7.8003  -19.0608   20.0925 C   0  0  2  0  0  0  0  0  0  0  0  0
    7.8119  -19.8248   18.8480 N   0  0  0  0  0  0  0  0  0  0  0  0
    8.6214  -17.8532   19.8828 C   0  0  0  0  0  0  0  0  0  0  0  0
    9.6562  -17.9667   19.1483 O   0  0  0  0  0  0  0  0  0  0  0  0
    6.3509  -21.5104   21.3000 C   0  0  0  0  0  0  0  0  0  0  0  0
    5.8092  -22.7979   21.3147 C   0  0  0  0  0  0  0  0  0  0  0  0
    8.9102  -13.3604   14.5599 N   0  0  0  0  0  0  0  0  0  0  0  0
    7.5274  -13.2688   14.9285 C   0  0  0  0  0  0  0  0  0  0  0  0
    6.7433  -12.7689   14.0638 N   0  0  0  0  0  0  0  0  0  0  0  0
    7.0530  -13.7039   16.1928 N   0  0  0  0  0  0  0  0  0  0  0  0
    7.9410  -14.1630   17.2333 C   0  0  0  0  0  0  0  0  0  0  0  0
    7.2490  -14.6195   18.4812 C   0  0  0  0  0  0  0  0  0  0  0  0
    7.9713  -14.3946   19.7495 C   0  0  0  0  0  0  0  0  0  0  0  0
    9.0313  -15.4100   20.1086 C   0  0  2  0  0  0  0  0  0  0  0  0
    8.2765  -16.6280   20.4707 N   0  0  0  0  0  0  0  0  0  0  0  0
    9.7998  -15.0623   21.3200 C   0  0  0  0  0  0  0  0  0  0  0  0
   10.4215  -13.9439   21.3736 O   0  0  0  0  0  0  0  0  0  0  0  0
    5.7307  -12.6491   14.1080 C   0  0  0  0  0  0  0  0  0  0  0  0
    5.9486  -12.9266   26.8941 S   0  0  0  0  0  0  0  0  0  0  0  0
    6.3117  -13.6266   25.2606 C   0  0  0  0  0  0  0  0  0  0  0  0
    8.0089  -14.2027   25.2300 C   0  0  0  0  0  0  0  0  0  0  0  0
    8.3711  -14.7448   23.8766 C   0  0  1  0  0  0  0  0  0  0  0  0
    9.7882  -15.2820   23.8182 N   0  0  0  0  0  0  0  0  0  0  0  0
    9.9194  -15.8778   22.4798 C   0  0  0  0  0  0  0  0  0  0  0  0
   10.0350  -16.3512   24.8038 O   0  0  0  0  0  0  0  0  0  0  0  0
   10.0635  -16.1107   26.0377 O   0  0  0  0  0  0  0  0  0  0  0  0
  2  1  1  0
  3  2  2  0
  4  3  1  0
  5 11  1  0
  5  4  2  0
  6  7  1  0
  6  5  1  0
  7  9  1  0
  7  8  1  6
  9 21  1  0
 10  9  2  0
 11 12  2  0
 12  2  1  0
 13 14  1  0
 14 15  2  0
 16 14  1  0
 16 17  1  0
 18 17  1  0
 19 18  1  0
 20 19  1  1
 21 20  1  0
 22 20  1  0
 22 29  1  0
 23 22  2  0
 25 24  1  0
 25 26  1  0
 26 27  1  0
 28 27  1  6
 28 29  1  0
 28 30  1  0
 30 31  2  0
 30 32  1  0
M  END
$$$$
