YRM.pdb
     RDKit          3D

 32 32  0  0  1  0  0  0  0  0999 V2000
    9.2622  -12.3854   16.7245 O   0  0  0  0  0  0  0  0  0  0  0  0
    8.7098  -12.9351   17.8962 C   0  0  0  0  0  0  0  0  0  0  0  0
    9.4968  -13.1327   19.0181 C   0  0  0  0  0  0  0  0  0  0  0  0
    8.9795  -13.6692   20.1728 C   0  0  0  0  0  0  0  0  0  0  0  0
    7.6241  -14.0324   20.2393 C   0  0  0  0  0  0  0  0  0  0  0  0
    7.1067  -14.6075   21.4960 C   0  0  0  0  0  0  0  0  0  0  0  0
    7.1543  -16.1268   21.5317 C   0  0  2  0  0  0  0  0  0  0  0  0
    6.0134  -16.6643   20.7955 N   0  0  0  0  0  0  0  0  0  0  0  0
    7.1040  -16.6791   22.8988 C   0  0  0  0  0  0  0  0  0  0  0  0
    5.9887  -16.6274   23.5125 O   0  0  0  0  0  0  0  0  0  0  0  0
    6.8590  -13.8307   19.1251 C   0  0  0  0  0  0  0  0  0  0  0  0
    7.3803  -13.2858   17.9494 C   0  0  0  0  0  0  0  0  0  0  0  0
    8.7194  -21.1261   28.1369 N   0  0  0  0  0  0  0  0  0  0  0  0
    7.3039  -21.2732   28.3139 C   0  0  0  0  0  0  0  0  0  0  0  0
    6.9278  -22.0594   29.2375 N   0  0  0  0  0  0  0  0  0  0  0  0
    6.3662  -20.5866   27.5000 N   0  0  0  0  0  0  0  0  0  0  0  0
    6.7628  -19.8297   26.3374 C   0  0  0  0  0  0  0  0  0  0  0  0
    8.2016  -19.9932   25.9533 C   0  0  0  0  0  0  0  0  0  0  0  0
    8.7020  -19.0947   24.8934 C   0  0  0  0  0  0  0  0  0  0  0  0
    8.1756  -17.6783   24.9091 C   0  0  2  0  0  0  0  0  0  0  0  0
    8.2407  -17.2384   23.4996 N   0  0  0  0  0  0  0  0  0  0  0  0
    9.0383  -16.7330   25.6447 C   0  0  0  0  0  0  0  0  0  0  0  0
   10.2508  -16.5618   25.2694 O   0  0  0  0  0  0  0  0  0  0  0  0
    5.9805  -22.3249   29.5088 C   0  0  0  0  0  0  0  0  0  0  0  0
    6.0196  -12.5821   25.8760 S   0  0  0  0  0  0  0  0  0  0  0  0
    7.4255  -11.7487   26.6627 C   0  0  0  0  0  0  0  0  0  0  0  0
    8.8560  -12.8278   26.6090 C   0  0  0  0  0  0  0  0  0  0  0  0
    8.8369  -13.8073   27.7478 C   0  0  2  0  0  0  0  0  0  0  0  0
    9.6050  -15.0790   27.4427 N   0  0  0  0  0  0  0  0  0  0  0  0
    8.6384  -15.9611   26.7712 C   0  0  0  0  0  0  0  0  0  0  0  0
   10.0660  -15.7737   28.6594 O   0  0  0  0  0  0  0  0  0  0  0  0
   10.9317  -15.2646   29.4160 O   0  0  0  0  0  0  0  0  0  0  0  0
  2  1  1  0
  3  2  2  0
  4  3  1  0
  5 11  1  0
  5  4  2  0
  6  7  1  0
  6  5  1  0
  7  9  1  0
  7  8  1  6
  9 21  1  0
 10  9  2  0
 11 12  2  0
 12  2  1  0
 13 14  1  0
 14 15  2  0
 16 14  1  0
 16 17  1  0
 18 17  1  0
 19 18  1  0
 20 19  1  6
 21 20  1  0
 22 20  1  0
 22 29  1  0
 23 22  2  0
 25 24  1  0
 25 26  1  0
 26 27  1  0
 28 27  1  6
 28 29  1  0
 28 30  1  0
 30 31  2  0
 30 32  1  0
M  END
$$$$
