YRM.pdb
     RDKit          3D

 32 32  0  0  1  0  0  0  0  0999 V2000
    5.7281   -9.9617   25.3928 O   0  0  0  0  0  0  0  0  0  0  0  0
    6.2234  -11.2781   25.3524 C   0  0  0  0  0  0  0  0  0  0  0  0
    5.4755  -12.3260   25.8622 C   0  0  0  0  0  0  0  0  0  0  0  0
    5.9393  -13.6193   25.8348 C   0  0  0  0  0  0  0  0  0  0  0  0
    7.1978  -13.9084   25.2816 C   0  0  0  0  0  0  0  0  0  0  0  0
    7.6618  -15.3093   25.2727 C   0  0  0  0  0  0  0  0  0  0  0  0
    7.7801  -15.8995   23.8765 C   0  0  2  0  0  0  0  0  0  0  0  0
    6.4632  -15.9176   23.2455 N   0  0  0  0  0  0  0  0  0  0  0  0
    8.2974  -17.2811   23.8700 C   0  0  0  0  0  0  0  0  0  0  0  0
    7.6979  -18.1293   23.1322 O   0  0  0  0  0  0  0  0  0  0  0  0
    7.9244  -12.8649   24.7810 C   0  0  0  0  0  0  0  0  0  0  0  0
    7.4572  -11.5488   24.8066 C   0  0  0  0  0  0  0  0  0  0  0  0
   14.3589  -17.5100   20.0879 N   0  0  0  0  0  0  0  0  0  0  0  0
   13.8731  -18.7440   19.5422 C   0  0  0  0  0  0  0  0  0  0  0  0
   14.7005  -19.4267   18.8627 N   0  0  0  0  0  0  0  0  0  0  0  0
   12.5384  -19.1829   19.7396 N   0  0  0  0  0  0  0  0  0  0  0  0
   11.5851  -18.4277   20.5161 C   0  0  0  0  0  0  0  0  0  0  0  0
   11.9406  -18.2849   21.9643 C   0  0  0  0  0  0  0  0  0  0  0  0
   10.9213  -17.6576   22.8295 C   0  0  0  0  0  0  0  0  0  0  0  0
   10.4860  -18.4514   24.0395 C   0  0  2  0  0  0  0  0  0  0  0  0
    9.4056  -17.6465   24.6472 N   0  0  0  0  0  0  0  0  0  0  0  0
   11.5218  -18.5532   25.0862 C   0  0  0  0  0  0  0  0  0  0  0  0
   12.5534  -19.2848   24.8842 O   0  0  0  0  0  0  0  0  0  0  0  0
   14.5478  -20.2954   18.3493 C   0  0  0  0  0  0  0  0  0  0  0  0
    9.5901  -14.6286   30.2804 S   0  0  0  0  0  0  0  0  0  0  0  0
   11.2504  -14.9697   29.6344 C   0  0  0  0  0  0  0  0  0  0  0  0
   11.2438  -16.5560   28.7996 C   0  0  0  0  0  0  0  0  0  0  0  0
   12.5786  -16.8421   28.1727 C   0  0  1  0  0  0  0  0  0  0  0  0
   12.5705  -18.0948   27.3177 N   0  0  0  0  0  0  0  0  0  0  0  0
   11.4868  -17.8900   26.3446 C   0  0  0  0  0  0  0  0  0  0  0  0
   12.2482  -19.3104   28.0885 O   0  0  0  0  0  0  0  0  0  0  0  0
   12.9642  -19.6839   29.0523 O   0  0  0  0  0  0  0  0  0  0  0  0
  2  1  1  0
  3  2  2  0
  4  3  1  0
  5 11  1  0
  5  4  2  0
  6  7  1  0
  6  5  1  0
  7  9  1  0
  7  8  1  1
  9 21  1  0
 10  9  2  0
 11 12  2  0
 12  2  1  0
 13 14  1  0
 14 15  2  0
 16 14  1  0
 16 17  1  0
 18 17  1  0
 19 18  1  0
 20 19  1  6
 21 20  1  0
 22 20  1  0
 22 29  1  0
 23 22  2  0
 25 24  1  0
 25 26  1  0
 26 27  1  0
 28 27  1  6
 28 29  1  0
 28 30  1  0
 30 31  2  0
 30 32  1  0
M  END
$$$$
