YRM.pdb
     RDKit          3D

 32 32  0  0  1  0  0  0  0  0999 V2000
    9.3031  -20.6019   30.2809 O   0  0  0  0  0  0  0  0  0  0  0  0
    8.6525  -19.8661   29.2732 C   0  0  0  0  0  0  0  0  0  0  0  0
    9.1461  -18.6363   28.8716 C   0  0  0  0  0  0  0  0  0  0  0  0
    8.5268  -17.8995   27.8907 C   0  0  0  0  0  0  0  0  0  0  0  0
    7.3656  -18.3854   27.2671 C   0  0  0  0  0  0  0  0  0  0  0  0
    6.7283  -17.5638   26.2199 C   0  0  0  0  0  0  0  0  0  0  0  0
    6.6523  -18.2570   24.8687 C   0  0  2  0  0  0  0  0  0  0  0  0
    7.1037  -19.6388   25.0075 N   0  0  0  0  0  0  0  0  0  0  0  0
    7.4892  -17.6153   23.8370 C   0  0  0  0  0  0  0  0  0  0  0  0
    8.4223  -18.3122   23.3205 O   0  0  0  0  0  0  0  0  0  0  0  0
    6.8904  -19.6008   27.6724 C   0  0  0  0  0  0  0  0  0  0  0  0
    7.5163  -20.3533   28.6690 C   0  0  0  0  0  0  0  0  0  0  0  0
    9.3467  -13.3311   17.9451 N   0  0  0  0  0  0  0  0  0  0  0  0
    7.9682  -13.6819   17.7628 C   0  0  0  0  0  0  0  0  0  0  0  0
    7.6526  -14.1673   16.6327 N   0  0  0  0  0  0  0  0  0  0  0  0
    7.0001  -13.4927   18.7826 N   0  0  0  0  0  0  0  0  0  0  0  0
    7.3072  -12.8215   20.0224 C   0  0  0  0  0  0  0  0  0  0  0  0
    8.1542  -13.6199   20.9655 C   0  0  0  0  0  0  0  0  0  0  0  0
    7.4324  -14.4774   21.9272 C   0  0  0  0  0  0  0  0  0  0  0  0
    8.2040  -15.6449   22.4975 C   0  0  2  0  0  0  0  0  0  0  0  0
    7.2665  -16.2888   23.4413 N   0  0  0  0  0  0  0  0  0  0  0  0
    9.3616  -15.2451   23.3215 C   0  0  0  0  0  0  0  0  0  0  0  0
    9.4452  -14.0413   23.7507 O   0  0  0  0  0  0  0  0  0  0  0  0
    6.7445  -14.5013   16.3080 C   0  0  0  0  0  0  0  0  0  0  0  0
    8.4443  -14.7358   28.5483 S   0  0  0  0  0  0  0  0  0  0  0  0
   10.2531  -14.6626   28.4335 C   0  0  0  0  0  0  0  0  0  0  0  0
   10.8348  -16.0198   27.4172 C   0  0  0  0  0  0  0  0  0  0  0  0
   10.1884  -15.9952   26.0614 C   0  0  1  0  0  0  0  0  0  0  0  0
   11.1904  -15.8298   24.9350 N   0  0  0  0  0  0  0  0  0  0  0  0
   10.4332  -16.0998   23.7033 C   0  0  0  0  0  0  0  0  0  0  0  0
   12.2909  -16.8096   25.0008 O   0  0  0  0  0  0  0  0  0  0  0  0
   12.2854  -17.8492   24.2934 O   0  0  0  0  0  0  0  0  0  0  0  0
  2  1  1  0
  3  2  2  0
  4  3  1  0
  5 11  1  0
  5  4  2  0
  6  7  1  0
  6  5  1  0
  7  9  1  0
  7  8  1  1
  9 21  1  0
 10  9  2  0
 11 12  2  0
 12  2  1  0
 13 14  1  0
 14 15  2  0
 16 14  1  0
 16 17  1  0
 18 17  1  0
 19 18  1  0
 20 19  1  1
 21 20  1  0
 22 20  1  0
 22 29  1  0
 23 22  2  0
 25 24  1  0
 25 26  1  0
 26 27  1  0
 28 27  1  6
 28 29  1  0
 28 30  1  0
 30 31  2  0
 30 32  1  0
M  END
$$$$
