YRM.pdb
     RDKit          3D

 32 32  0  0  1  0  0  0  0  0999 V2000
    7.2136  -25.2982   33.1899 O   0  0  0  0  0  0  0  0  0  0  0  0
    7.9225  -24.3143   32.4761 C   0  0  0  0  0  0  0  0  0  0  0  0
    7.8044  -24.2234   31.0995 C   0  0  0  0  0  0  0  0  0  0  0  0
    8.4879  -23.2717   30.3814 C   0  0  0  0  0  0  0  0  0  0  0  0
    9.3310  -22.3597   31.0378 C   0  0  0  0  0  0  0  0  0  0  0  0
   10.0497  -21.3541   30.2316 C   0  0  0  0  0  0  0  0  0  0  0  0
   11.3494  -21.8716   29.6360 C   0  0  2  0  0  0  0  0  0  0  0  0
   12.3304  -22.0566   30.7018 N   0  0  0  0  0  0  0  0  0  0  0  0
   11.9390  -20.9563   28.6405 C   0  0  0  0  0  0  0  0  0  0  0  0
   12.5312  -19.9161   29.0770 O   0  0  0  0  0  0  0  0  0  0  0  0
    9.4370  -22.4602   32.3965 C   0  0  0  0  0  0  0  0  0  0  0  0
    8.7443  -23.4257   33.1307 C   0  0  0  0  0  0  0  0  0  0  0  0
    9.6515  -23.6908   22.0925 N   0  0  0  0  0  0  0  0  0  0  0  0
    9.5394  -22.3531   21.5880 C   0  0  0  0  0  0  0  0  0  0  0  0
    8.4708  -22.0720   20.9623 N   0  0  0  0  0  0  0  0  0  0  0  0
   10.5662  -21.3905   21.7671 N   0  0  0  0  0  0  0  0  0  0  0  0
   11.6370  -21.5729   22.7168 C   0  0  0  0  0  0  0  0  0  0  0  0
   11.4226  -20.8867   24.0311 C   0  0  0  0  0  0  0  0  0  0  0  0
   12.5240  -20.9885   25.0098 C   0  0  0  0  0  0  0  0  0  0  0  0
   12.3499  -20.2210   26.2998 C   0  0  2  0  0  0  0  0  0  0  0  0
   11.8497  -21.2208   27.2665 N   0  0  0  0  0  0  0  0  0  0  0  0
   11.2966  -19.1886   26.2383 C   0  0  0  0  0  0  0  0  0  0  0  0
   10.0700  -19.5291   26.3787 O   0  0  0  0  0  0  0  0  0  0  0  0
    8.1972  -21.1937   20.5205 C   0  0  0  0  0  0  0  0  0  0  0  0
    8.4970  -12.4433   28.5133 S   0  0  0  0  0  0  0  0  0  0  0  0
    9.8392  -13.6625   28.4658 C   0  0  0  0  0  0  0  0  0  0  0  0
    9.5772  -14.7743   27.0843 C   0  0  0  0  0  0  0  0  0  0  0  0
   10.5889  -15.8848   27.0850 C   0  0  1  0  0  0  0  0  0  0  0  0
   10.3798  -16.8718   25.9526 N   0  0  0  0  0  0  0  0  0  0  0  0
   11.5194  -17.7981   26.0338 C   0  0  0  0  0  0  0  0  0  0  0  0
   10.4230  -16.2338   24.6235 O   0  0  0  0  0  0  0  0  0  0  0  0
   11.4613  -16.2662   23.9149 O   0  0  0  0  0  0  0  0  0  0  0  0
  2  1  1  0
  3  2  2  0
  4  3  1  0
  5 11  1  0
  5  4  2  0
  6  7  1  0
  6  5  1  0
  7  9  1  0
  7  8  1  1
  9 21  1  0
 10  9  2  0
 11 12  2  0
 12  2  1  0
 13 14  1  0
 14 15  2  0
 16 14  1  0
 16 17  1  0
 18 17  1  0
 19 18  1  0
 20 19  1  6
 21 20  1  0
 22 20  1  0
 22 29  1  0
 23 22  2  0
 25 24  1  0
 25 26  1  0
 26 27  1  0
 28 27  1  1
 28 29  1  0
 28 30  1  0
 30 31  2  0
 30 32  1  0
M  END
$$$$
