YRM.pdb
     RDKit          3D

 32 32  0  0  1  0  0  0  0  0999 V2000
    8.1507  -12.2929   16.7437 O   0  0  0  0  0  0  0  0  0  0  0  0
    8.0036  -12.9892   17.9577 C   0  0  0  0  0  0  0  0  0  0  0  0
    8.4183  -12.4188   19.1492 C   0  0  0  0  0  0  0  0  0  0  0  0
    8.2860  -13.0804   20.3465 C   0  0  0  0  0  0  0  0  0  0  0  0
    7.7196  -14.3654   20.3863 C   0  0  0  0  0  0  0  0  0  0  0  0
    7.5967  -15.0442   21.6909 C   0  0  0  0  0  0  0  0  0  0  0  0
    8.8779  -15.0203   22.5093 C   0  0  2  0  0  0  0  0  0  0  0  0
    9.9987  -15.4263   21.6658 N   0  0  0  0  0  0  0  0  0  0  0  0
    8.8430  -15.9271   23.6725 C   0  0  0  0  0  0  0  0  0  0  0  0
    7.7806  -15.9402   24.3754 O   0  0  0  0  0  0  0  0  0  0  0  0
    7.3136  -14.9154   19.2032 C   0  0  0  0  0  0  0  0  0  0  0  0
    7.4461  -14.2469   17.9839 C   0  0  0  0  0  0  0  0  0  0  0  0
   11.9805  -20.2030   21.2762 N   0  0  0  0  0  0  0  0  0  0  0  0
   10.6749  -20.6017   20.8367 C   0  0  0  0  0  0  0  0  0  0  0  0
   10.5181  -20.7430   19.5846 N   0  0  0  0  0  0  0  0  0  0  0  0
    9.6073  -20.8213   21.7450 N   0  0  0  0  0  0  0  0  0  0  0  0
    9.5616  -20.1995   23.0463 C   0  0  0  0  0  0  0  0  0  0  0  0
   10.7541  -19.3525   23.3700 C   0  0  0  0  0  0  0  0  0  0  0  0
   10.8171  -18.8080   24.7414 C   0  0  0  0  0  0  0  0  0  0  0  0
    9.8136  -17.7312   25.0836 C   0  0  2  0  0  0  0  0  0  0  0  0
    9.9381  -16.7421   23.9925 N   0  0  0  0  0  0  0  0  0  0  0  0
   10.1406  -16.9853   26.3148 C   0  0  0  0  0  0  0  0  0  0  0  0
    9.9979  -17.5535   27.4536 O   0  0  0  0  0  0  0  0  0  0  0  0
    9.6624  -20.9329   19.0618 C   0  0  0  0  0  0  0  0  0  0  0  0
    5.7327  -11.6313   27.0097 S   0  0  0  0  0  0  0  0  0  0  0  0
    7.5167  -11.9538   26.9479 C   0  0  0  0  0  0  0  0  0  0  0  0
    7.8598  -13.5241   27.7414 C   0  0  0  0  0  0  0  0  0  0  0  0
    8.6365  -14.4315   26.8304 C   0  0  1  0  0  0  0  0  0  0  0  0
   10.0479  -14.6903   27.3216 N   0  0  0  0  0  0  0  0  0  0  0  0
   10.6204  -15.6466   26.3619 C   0  0  0  0  0  0  0  0  0  0  0  0
   10.0822  -15.3257   28.6522 O   0  0  0  0  0  0  0  0  0  0  0  0
    9.8322  -14.6719   29.6968 O   0  0  0  0  0  0  0  0  0  0  0  0
  2  1  1  0
  3  2  2  0
  4  3  1  0
  5 11  1  0
  5  4  2  0
  6  7  1  0
  6  5  1  0
  7  9  1  0
  7  8  1  6
  9 21  1  0
 10  9  2  0
 11 12  2  0
 12  2  1  0
 13 14  1  0
 14 15  2  0
 16 14  1  0
 16 17  1  0
 18 17  1  0
 19 18  1  0
 20 19  1  6
 21 20  1  0
 22 20  1  0
 22 29  1  0
 23 22  2  0
 25 24  1  0
 25 26  1  0
 26 27  1  0
 28 27  1  6
 28 29  1  0
 28 30  1  0
 30 31  2  0
 30 32  1  0
M  END
$$$$
