YRM.pdb
     RDKit          3D

 32 32  0  0  1  0  0  0  0  0999 V2000
   11.1511  -15.2407   29.5753 O   0  0  0  0  0  0  0  0  0  0  0  0
   10.1123  -15.9659   28.9629 C   0  0  0  0  0  0  0  0  0  0  0  0
    9.0854  -15.3061   28.3094 C   0  0  0  0  0  0  0  0  0  0  0  0
    8.0598  -15.9933   27.7054 C   0  0  0  0  0  0  0  0  0  0  0  0
    8.0324  -17.3974   27.7391 C   0  0  0  0  0  0  0  0  0  0  0  0
    6.9133  -18.0991   27.0811 C   0  0  0  0  0  0  0  0  0  0  0  0
    7.3618  -19.2050   26.1390 C   0  0  2  0  0  0  0  0  0  0  0  0
    8.5049  -19.9028   26.7212 N   0  0  0  0  0  0  0  0  0  0  0  0
    7.7704  -18.7089   24.8111 C   0  0  0  0  0  0  0  0  0  0  0  0
    8.8725  -19.1380   24.3374 O   0  0  0  0  0  0  0  0  0  0  0  0
    9.0528  -18.0354   28.3864 C   0  0  0  0  0  0  0  0  0  0  0  0
   10.0972  -17.3413   29.0016 C   0  0  0  0  0  0  0  0  0  0  0  0
    8.1041  -13.4816   17.0634 N   0  0  0  0  0  0  0  0  0  0  0  0
    7.8337  -13.6224   18.4647 C   0  0  0  0  0  0  0  0  0  0  0  0
    8.2234  -12.6744   19.2142 N   0  0  0  0  0  0  0  0  0  0  0  0
    7.1734  -14.7607   18.9952 N   0  0  0  0  0  0  0  0  0  0  0  0
    7.0904  -15.0127   20.4135 C   0  0  0  0  0  0  0  0  0  0  0  0
    6.2909  -16.2250   20.7812 C   0  0  0  0  0  0  0  0  0  0  0  0
    6.2412  -16.5651   22.2176 C   0  0  0  0  0  0  0  0  0  0  0  0
    7.4196  -17.3353   22.7670 C   0  0  2  0  0  0  0  0  0  0  0  0
    6.9765  -17.7991   24.0985 N   0  0  0  0  0  0  0  0  0  0  0  0
    8.6059  -16.4969   23.0295 C   0  0  0  0  0  0  0  0  0  0  0  0
    9.4470  -16.2811   22.0881 O   0  0  0  0  0  0  0  0  0  0  0  0
    8.2198  -12.6182   20.2332 C   0  0  0  0  0  0  0  0  0  0  0  0
    6.4388  -11.0974   25.5645 S   0  0  0  0  0  0  0  0  0  0  0  0
    7.9866  -11.8790   26.0968 C   0  0  0  0  0  0  0  0  0  0  0  0
    8.4834  -13.0944   24.8764 C   0  0  0  0  0  0  0  0  0  0  0  0
    9.6515  -13.9035   25.3640 C   0  0  2  0  0  0  0  0  0  0  0  0
   10.0744  -14.9778   24.3805 N   0  0  0  0  0  0  0  0  0  0  0  0
    8.9166  -15.8786   24.2728 C   0  0  0  0  0  0  0  0  0  0  0  0
   11.2140  -15.7792   24.8650 O   0  0  0  0  0  0  0  0  0  0  0  0
   11.0835  -16.9963   25.1525 O   0  0  0  0  0  0  0  0  0  0  0  0
  2  1  1  0
  3  2  2  0
  4  3  1  0
  5 11  1  0
  5  4  2  0
  6  7  1  0
  6  5  1  0
  7  9  1  0
  7  8  1  1
  9 21  1  0
 10  9  2  0
 11 12  2  0
 12  2  1  0
 13 14  1  0
 14 15  2  0
 16 14  1  0
 16 17  1  0
 18 17  1  0
 19 18  1  0
 20 19  1  1
 21 20  1  0
 22 20  1  0
 22 29  1  0
 23 22  2  0
 25 24  1  0
 25 26  1  0
 26 27  1  0
 28 27  1  6
 28 29  1  0
 28 30  1  0
 30 31  2  0
 30 32  1  0
M  END
$$$$
