PDC.pdb
     RDKit          3D

 22 22  0  0  1  0  0  0  0  0999 V2000
   18.3944  -11.8817  -15.2542 N   0  0  0  0  0  0  0  0  0  0  0  0
   17.5353  -12.1047  -16.3857 C   0  0  0  0  0  0  0  0  0  0  0  0
   18.4783  -12.6896  -17.4116 C   0  0  0  0  0  0  0  0  0  0  0  0
   19.8802  -12.2818  -17.0103 C   0  0  0  0  0  0  0  0  0  0  0  0
   19.6548  -11.3955  -15.8047 C   0  0  1  0  0  0  0  0  0  0  0  0
   19.5104   -9.9739  -16.1865 C   0  0  0  0  0  0  0  0  0  0  0  0
   20.4466   -9.4109  -16.8464 O   0  0  0  0  0  0  0  0  0  0  0  0
   18.3410   -9.2761  -15.8132 N   0  0  0  0  0  0  0  0  0  0  0  0
   18.2013   -7.8499  -16.1006 C   0  0  1  0  0  0  0  0  0  0  0  0
   16.7589   -7.5212  -16.2716 C   0  0  0  0  0  0  0  0  0  0  0  0
   16.0930   -8.0752  -17.4536 C   0  0  0  0  0  0  0  0  0  0  0  0
   16.4603   -7.7912  -18.6104 O   0  0  0  0  0  0  0  0  0  0  0  0
   18.8374   -7.0828  -14.9767 C   0  0  0  0  0  0  0  0  0  0  0  0
   18.4363   -7.0845  -13.7964 O   0  0  0  0  0  0  0  0  0  0  0  0
   15.0178   -8.9458  -17.3376 O   0  0  0  0  0  0  0  0  0  0  0  0
   19.9979   -6.2641  -15.2024 N   0  0  0  0  0  0  0  0  0  0  0  0
   20.7044   -5.6021  -14.1523 C   0  0  1  0  0  0  0  0  0  0  0  0
   21.4843   -6.5412  -13.2632 C   0  0  0  0  0  0  0  0  0  0  0  0
   22.6764   -7.4121  -14.3242 S   0  0  0  0  0  0  0  0  0  0  0  0
   21.5702   -4.5077  -14.6295 C   0  0  0  0  0  0  0  0  0  0  0  0
   21.7145   -4.2534  -15.8623 O   0  0  0  0  0  0  0  0  0  0  0  0
   22.2629   -3.7109  -13.7497 O   0  0  0  0  0  0  0  0  0  0  0  0
  1  5  1  0
  1  2  1  0
  3  4  1  0
  3  2  1  0
  4  5  1  0
  5  6  1  6
  7  6  2  0
  8  6  1  0
  9  8  1  0
  9 13  1  0
  9 10  1  1
 11 12  2  0
 11 10  1  0
 13 16  1  0
 14 13  2  0
 15 11  1  0
 16 17  1  0
 17 20  1  0
 17 18  1  6
 19 18  1  0
 20 21  2  0
 20 22  1  0
M  END
$$$$
