PDC.pdb
     RDKit          3D

 22 22  0  0  1  0  0  0  0  0999 V2000
   43.6275  -15.5782   -9.3496 N   0  0  0  0  0  0  0  0  0  0  0  0
   45.0098  -15.3666   -9.0138 C   0  0  0  0  0  0  0  0  0  0  0  0
   45.0232  -15.5599   -7.5151 C   0  0  0  0  0  0  0  0  0  0  0  0
   43.6060  -15.3460   -7.0265 C   0  0  0  0  0  0  0  0  0  0  0  0
   42.8601  -14.9474   -8.2813 C   0  0  1  0  0  0  0  0  0  0  0  0
   42.8561  -13.4813   -8.4764 C   0  0  0  0  0  0  0  0  0  0  0  0
   43.1807  -13.0064   -9.6156 O   0  0  0  0  0  0  0  0  0  0  0  0
   42.4923  -12.6444   -7.3989 N   0  0  0  0  0  0  0  0  0  0  0  0
   42.1546  -11.2408   -7.6274 C   0  0  1  0  0  0  0  0  0  0  0  0
   40.9149  -11.1602   -8.4485 C   0  0  0  0  0  0  0  0  0  0  0  0
   40.5713   -9.8445   -8.9948 C   0  0  0  0  0  0  0  0  0  0  0  0
   40.3683   -8.8585   -8.2597 O   0  0  0  0  0  0  0  0  0  0  0  0
   42.0041  -10.5732   -6.2903 C   0  0  0  0  0  0  0  0  0  0  0  0
   41.1668  -10.8939   -5.4241 O   0  0  0  0  0  0  0  0  0  0  0  0
   40.4559   -9.6360  -10.3625 O   0  0  0  0  0  0  0  0  0  0  0  0
   42.8527   -9.4762   -5.9103 N   0  0  0  0  0  0  0  0  0  0  0  0
   42.7729   -8.8292   -4.6395 C   0  0  1  0  0  0  0  0  0  0  0  0
   43.9847   -9.0583   -3.7678 C   0  0  0  0  0  0  0  0  0  0  0  0
   43.6568   -8.2443   -2.1755 S   0  0  0  0  0  0  0  0  0  0  0  0
   42.4728   -7.3885   -4.7347 C   0  0  0  0  0  0  0  0  0  0  0  0
   42.6102   -6.7432   -5.8164 O   0  0  0  0  0  0  0  0  0  0  0  0
   42.0278   -6.6790   -3.6450 O   0  0  0  0  0  0  0  0  0  0  0  0
  1  5  1  0
  1  2  1  0
  3  4  1  0
  3  2  1  0
  4  5  1  0
  5  6  1  6
  7  6  2  0
  8  6  1  0
  9  8  1  0
  9 13  1  0
  9 10  1  1
 11 12  2  0
 11 10  1  0
 13 16  1  0
 14 13  2  0
 15 11  1  0
 16 17  1  0
 17 20  1  0
 17 18  1  6
 19 18  1  0
 20 21  2  0
 20 22  1  0
M  END
$$$$
