PDC.pdb
     RDKit          3D

 22 22  0  0  1  0  0  0  0  0999 V2000
   24.2136  -12.4617  -15.5104 N   0  0  0  0  0  0  0  0  0  0  0  0
   23.2325  -13.5113  -15.4461 C   0  0  0  0  0  0  0  0  0  0  0  0
   23.2567  -14.0779  -16.8468 C   0  0  0  0  0  0  0  0  0  0  0  0
   23.8377  -13.0093  -17.7487 C   0  0  0  0  0  0  0  0  0  0  0  0
   24.0368  -11.8348  -16.8157 C   0  0  1  0  0  0  0  0  0  0  0  0
   22.8507  -10.9519  -16.7821 C   0  0  0  0  0  0  0  0  0  0  0  0
   22.4891  -10.3582  -17.8524 O   0  0  0  0  0  0  0  0  0  0  0  0
   22.1476  -10.7891  -15.5684 N   0  0  0  0  0  0  0  0  0  0  0  0
   20.9923   -9.8972  -15.4910 C   0  0  1  0  0  0  0  0  0  0  0  0
   19.8829  -10.5894  -14.7785 C   0  0  0  0  0  0  0  0  0  0  0  0
   19.2184  -11.6803  -15.4968 C   0  0  0  0  0  0  0  0  0  0  0  0
   18.7152  -11.5157  -16.6252 O   0  0  0  0  0  0  0  0  0  0  0  0
   21.4224   -8.6353  -14.7991 C   0  0  0  0  0  0  0  0  0  0  0  0
   22.1504   -8.5898  -13.7882 O   0  0  0  0  0  0  0  0  0  0  0  0
   19.1191  -12.9525  -14.9501 O   0  0  0  0  0  0  0  0  0  0  0  0
   21.0031   -7.3468  -15.2804 N   0  0  0  0  0  0  0  0  0  0  0  0
   21.3680   -6.1189  -14.6486 C   0  0  1  0  0  0  0  0  0  0  0  0
   22.7121   -5.5892  -15.0885 C   0  0  0  0  0  0  0  0  0  0  0  0
   23.0491   -4.1029  -14.0971 S   0  0  0  0  0  0  0  0  0  0  0  0
   20.3377   -5.0707  -14.7687 C   0  0  0  0  0  0  0  0  0  0  0  0
   20.0897   -4.2606  -13.8266 O   0  0  0  0  0  0  0  0  0  0  0  0
   19.5966   -4.9271  -15.9172 O   0  0  0  0  0  0  0  0  0  0  0  0
  1  5  1  0
  1  2  1  0
  3  4  1  0
  3  2  1  0
  4  5  1  0
  5  6  1  1
  7  6  2  0
  8  6  1  0
  9  8  1  0
  9 13  1  0
  9 10  1  1
 11 12  2  0
 11 10  1  0
 13 16  1  0
 14 13  2  0
 15 11  1  0
 16 17  1  0
 17 20  1  0
 17 18  1  6
 19 18  1  0
 20 21  2  0
 20 22  1  0
M  END
$$$$
