PDC.pdb
     RDKit          3D

 22 22  0  0  1  0  0  0  0  0999 V2000
   18.6622   -9.9703  -14.8643 N   0  0  0  0  0  0  0  0  0  0  0  0
   17.9918  -10.7727  -13.8768 C   0  0  0  0  0  0  0  0  0  0  0  0
   16.7184  -11.1771  -14.5829 C   0  0  0  0  0  0  0  0  0  0  0  0
   16.4906  -10.1768  -15.6965 C   0  0  0  0  0  0  0  0  0  0  0  0
   17.6172   -9.1839  -15.5104 C   0  0  1  0  0  0  0  0  0  0  0  0
   17.2239   -8.0653  -14.6263 C   0  0  0  0  0  0  0  0  0  0  0  0
   16.2761   -7.2916  -14.9893 O   0  0  0  0  0  0  0  0  0  0  0  0
   17.9053   -7.8822  -13.4031 N   0  0  0  0  0  0  0  0  0  0  0  0
   17.5861   -6.7503  -12.5352 C   0  0  1  0  0  0  0  0  0  0  0  0
   17.5389   -7.2129  -11.1205 C   0  0  0  0  0  0  0  0  0  0  0  0
   17.1286   -6.2256  -10.1182 C   0  0  0  0  0  0  0  0  0  0  0  0
   16.5648   -5.1601  -10.4354 O   0  0  0  0  0  0  0  0  0  0  0  0
   18.6207   -5.6846  -12.7584 C   0  0  0  0  0  0  0  0  0  0  0  0
   18.5968   -4.5495  -12.2435 O   0  0  0  0  0  0  0  0  0  0  0  0
   17.3506   -6.4337   -8.7637 O   0  0  0  0  0  0  0  0  0  0  0  0
   19.7509   -5.9176  -13.6164 N   0  0  0  0  0  0  0  0  0  0  0  0
   20.7499   -4.9312  -13.8794 C   0  0  1  0  0  0  0  0  0  0  0  0
   22.1540   -5.3977  -13.5767 C   0  0  0  0  0  0  0  0  0  0  0  0
   22.1647   -5.9695  -11.8509 S   0  0  0  0  0  0  0  0  0  0  0  0
   20.6760   -4.3731  -15.2424 C   0  0  0  0  0  0  0  0  0  0  0  0
   19.8506   -4.8042  -16.1016 O   0  0  0  0  0  0  0  0  0  0  0  0
   21.5064   -3.3532  -15.6416 O   0  0  0  0  0  0  0  0  0  0  0  0
  1  5  1  0
  1  2  1  0
  3  4  1  0
  3  2  1  0
  4  5  1  0
  5  6  1  1
  7  6  2  0
  8  6  1  0
  9  8  1  0
  9 13  1  0
  9 10  1  1
 11 12  2  0
 11 10  1  0
 13 16  1  0
 14 13  2  0
 15 11  1  0
 16 17  1  0
 17 20  1  0
 17 18  1  6
 19 18  1  0
 20 21  2  0
 20 22  1  0
M  END
$$$$
