PDC.pdb
     RDKit          3D

 22 22  0  0  1  0  0  0  0  0999 V2000
   22.1189  -12.6142  -17.3296 N   0  0  0  0  0  0  0  0  0  0  0  0
   21.0656  -13.0602  -18.2012 C   0  0  0  0  0  0  0  0  0  0  0  0
   21.6644  -12.8674  -19.5753 C   0  0  0  0  0  0  0  0  0  0  0  0
   22.7805  -11.8538  -19.4356 C   0  0  0  0  0  0  0  0  0  0  0  0
   22.7026  -11.4464  -17.9803 C   0  0  1  0  0  0  0  0  0  0  0  0
   21.8175  -10.2780  -17.7830 C   0  0  0  0  0  0  0  0  0  0  0  0
   22.1131   -9.1733  -18.3497 O   0  0  0  0  0  0  0  0  0  0  0  0
   20.6679  -10.4139  -16.9744 N   0  0  0  0  0  0  0  0  0  0  0  0
   19.7468   -9.2932  -16.7953 C   0  0  1  0  0  0  0  0  0  0  0  0
   18.3815   -9.8181  -16.5159 C   0  0  0  0  0  0  0  0  0  0  0  0
   17.3290   -8.8251  -16.2839 C   0  0  0  0  0  0  0  0  0  0  0  0
   17.1703   -7.8451  -17.0376 O   0  0  0  0  0  0  0  0  0  0  0  0
   20.2712   -8.4311  -15.6828 C   0  0  0  0  0  0  0  0  0  0  0  0
   20.6328   -8.8510  -14.5661 O   0  0  0  0  0  0  0  0  0  0  0  0
   16.4570   -8.9319  -15.2089 O   0  0  0  0  0  0  0  0  0  0  0  0
   20.3940   -7.0075  -15.8438 N   0  0  0  0  0  0  0  0  0  0  0  0
   20.8629   -6.1408  -14.8099 C   0  0  1  0  0  0  0  0  0  0  0  0
   22.3677   -6.0251  -14.7548 C   0  0  0  0  0  0  0  0  0  0  0  0
   22.7623   -4.8320  -13.4409 S   0  0  0  0  0  0  0  0  0  0  0  0
   20.2451   -4.8022  -14.8439 C   0  0  0  0  0  0  0  0  0  0  0  0
   19.8405   -4.2757  -15.9230 O   0  0  0  0  0  0  0  0  0  0  0  0
   20.0808   -4.0629  -13.6970 O   0  0  0  0  0  0  0  0  0  0  0  0
  1  5  1  0
  1  2  1  0
  3  4  1  0
  3  2  1  0
  4  5  1  0
  5  6  1  6
  7  6  2  0
  8  6  1  0
  9  8  1  0
  9 13  1  0
  9 10  1  1
 11 12  2  0
 11 10  1  0
 13 16  1  0
 14 13  2  0
 15 11  1  0
 16 17  1  0
 17 20  1  0
 17 18  1  6
 19 18  1  0
 20 21  2  0
 20 22  1  0
M  END
$$$$
