PDC.pdb
     RDKit          3D

 22 22  0  0  1  0  0  0  0  0999 V2000
   19.5095  -11.9188  -16.5051 N   0  0  0  0  0  0  0  0  0  0  0  0
   19.1530  -12.1141  -15.1256 C   0  0  0  0  0  0  0  0  0  0  0  0
   17.8264  -12.8316  -15.2213 C   0  0  0  0  0  0  0  0  0  0  0  0
   17.2598  -12.5372  -16.5942 C   0  0  0  0  0  0  0  0  0  0  0  0
   18.2673  -11.5781  -17.1899 C   0  0  1  0  0  0  0  0  0  0  0  0
   17.9188  -10.1688  -16.9071 C   0  0  0  0  0  0  0  0  0  0  0  0
   16.8055   -9.7086  -17.3285 O   0  0  0  0  0  0  0  0  0  0  0  0
   18.8249   -9.3686  -16.1773 N   0  0  0  0  0  0  0  0  0  0  0  0
   18.5415   -7.9556  -15.9339 C   0  0  1  0  0  0  0  0  0  0  0  0
   17.1908   -7.8229  -15.3210 C   0  0  0  0  0  0  0  0  0  0  0  0
   16.7615   -6.4690  -14.9602 C   0  0  0  0  0  0  0  0  0  0  0  0
   16.8274   -6.0472  -13.7892 O   0  0  0  0  0  0  0  0  0  0  0  0
   19.6290   -7.4059  -15.0557 C   0  0  0  0  0  0  0  0  0  0  0  0
   20.4674   -8.0960  -14.4435 O   0  0  0  0  0  0  0  0  0  0  0  0
   16.2598   -5.5910  -15.9113 O   0  0  0  0  0  0  0  0  0  0  0  0
   19.7765   -5.9892  -14.8583 N   0  0  0  0  0  0  0  0  0  0  0  0
   20.9914   -5.3836  -14.4141 C   0  0  1  0  0  0  0  0  0  0  0  0
   22.2163   -5.8796  -15.1451 C   0  0  0  0  0  0  0  0  0  0  0  0
   23.6478   -5.0119  -14.4355 S   0  0  0  0  0  0  0  0  0  0  0  0
   20.9479   -3.9095  -14.4246 C   0  0  0  0  0  0  0  0  0  0  0  0
   20.4837   -3.2576  -15.4069 O   0  0  0  0  0  0  0  0  0  0  0  0
   21.4131   -3.1745  -13.3606 O   0  0  0  0  0  0  0  0  0  0  0  0
  1  5  1  0
  1  2  1  0
  3  4  1  0
  3  2  1  0
  4  5  1  0
  5  6  1  1
  7  6  2  0
  8  6  1  0
  9  8  1  0
  9 13  1  0
  9 10  1  1
 11 12  2  0
 11 10  1  0
 13 16  1  0
 14 13  2  0
 15 11  1  0
 16 17  1  0
 17 20  1  0
 17 18  1  6
 19 18  1  0
 20 21  2  0
 20 22  1  0
M  END
$$$$
