PDC.pdb
     RDKit          3D

 22 22  0  0  1  0  0  0  0  0999 V2000
   33.5184  -34.7859   -5.7390 N   0  0  0  0  0  0  0  0  0  0  0  0
   32.5412  -35.3206   -6.6487 C   0  0  0  0  0  0  0  0  0  0  0  0
   31.5574  -34.1822   -6.7897 C   0  0  0  0  0  0  0  0  0  0  0  0
   31.7324  -33.2908   -5.5783 C   0  0  0  0  0  0  0  0  0  0  0  0
   32.7629  -34.0259   -4.7493 C   0  0  1  0  0  0  0  0  0  0  0  0
   32.1330  -34.9571   -3.7882 C   0  0  0  0  0  0  0  0  0  0  0  0
   31.3490  -34.4905   -2.8957 O   0  0  0  0  0  0  0  0  0  0  0  0
   32.4132  -36.3378   -3.8828 N   0  0  0  0  0  0  0  0  0  0  0  0
   31.8640  -37.2775   -2.9072 C   0  0  1  0  0  0  0  0  0  0  0  0
   31.4491  -38.5256   -3.6056 C   0  0  0  0  0  0  0  0  0  0  0  0
   30.0098  -38.7280   -3.7928 C   0  0  0  0  0  0  0  0  0  0  0  0
   29.1718  -37.8849   -3.4181 O   0  0  0  0  0  0  0  0  0  0  0  0
   32.9097  -37.5252   -1.8578 C   0  0  0  0  0  0  0  0  0  0  0  0
   34.0336  -38.0191   -2.0746 O   0  0  0  0  0  0  0  0  0  0  0  0
   29.5126  -39.8736   -4.3992 O   0  0  0  0  0  0  0  0  0  0  0  0
   32.6689  -37.1937   -0.4794 N   0  0  0  0  0  0  0  0  0  0  0  0
   33.6702  -37.2895    0.5346 C   0  0  1  0  0  0  0  0  0  0  0  0
   34.9238  -36.5076    0.2216 C   0  0  0  0  0  0  0  0  0  0  0  0
   34.5347  -34.7508    0.4819 S   0  0  0  0  0  0  0  0  0  0  0  0
   33.1737  -36.9480    1.8807 C   0  0  0  0  0  0  0  0  0  0  0  0
   33.8996  -37.0592    2.9132 O   0  0  0  0  0  0  0  0  0  0  0  0
   31.8920  -36.4910    2.0736 O   0  0  0  0  0  0  0  0  0  0  0  0
  1  5  1  0
  1  2  1  0
  3  4  1  0
  3  2  1  0
  4  5  1  0
  5  6  1  1
  7  6  2  0
  8  6  1  0
  9  8  1  0
  9 13  1  0
  9 10  1  6
 11 12  2  0
 11 10  1  0
 13 16  1  0
 14 13  2  0
 15 11  1  0
 16 17  1  0
 17 20  1  0
 17 18  1  6
 19 18  1  0
 20 21  2  0
 20 22  1  0
M  END
$$$$
