NDQ.pdb
     RDKit          3D

 26 25  0  0  1  0  0  0  0  0999 V2000
    7.3427  -12.9713   18.0543 N   0  0  0  0  0  0  0  0  0  0  0  0
    8.0393  -12.7825   19.2802 C   0  0  0  0  0  0  0  0  0  0  0  0
    7.5466  -12.0794   20.2023 O   0  0  0  0  0  0  0  0  0  0  0  0
    9.3540  -13.4059   19.5047 C   0  0  0  0  0  0  0  0  0  0  0  0
    9.8869  -14.0352   18.2272 C   0  0  2  0  0  0  0  0  0  0  0  0
    8.9296  -15.0376   17.7702 N   0  0  0  0  0  0  0  0  0  0  0  0
   11.1684  -14.6739   18.5146 C   0  0  0  0  0  0  0  0  0  0  0  0
   11.2156  -15.8901   18.8687 O   0  0  0  0  0  0  0  0  0  0  0  0
   12.4226  -13.9813   18.4131 N   0  0  0  0  0  0  0  0  0  0  0  0
   13.6521  -14.6742   18.7105 C   0  0  1  0  0  0  0  0  0  0  0  0
   14.8081  -14.0578   17.9397 C   0  0  0  0  0  0  0  0  0  0  0  0
   16.0044  -14.8886   18.0953 C   0  0  0  0  0  0  0  0  0  0  0  0
   15.8673  -16.1309   18.2397 O   0  0  0  0  0  0  0  0  0  0  0  0
   13.9691  -14.6572   20.1856 C   0  0  0  0  0  0  0  0  0  0  0  0
   14.5626  -13.6630   20.6777 O   0  0  0  0  0  0  0  0  0  0  0  0
   17.2649  -14.3346   18.0862 O   0  0  0  0  0  0  0  0  0  0  0  0
   10.8647  -18.0693   24.0349 N   0  0  0  0  0  0  0  0  0  0  0  0
   10.4931  -16.7164   23.7987 C   0  0  0  0  0  0  0  0  0  0  0  0
    9.4219  -16.2121   24.1962 O   0  0  0  0  0  0  0  0  0  0  0  0
   11.4696  -15.8741   23.0213 C   0  0  0  0  0  0  0  0  0  0  0  0
   12.8440  -16.4087   23.2608 C   0  0  0  0  0  0  0  0  0  0  0  0
   13.8748  -15.6621   22.5143 C   0  0  2  0  0  0  0  0  0  0  0  0
   13.6234  -15.7218   21.0570 N   0  0  0  0  0  0  0  0  0  0  0  0
   15.2592  -16.1209   22.7635 C   0  0  0  0  0  0  0  0  0  0  0  0
   15.7678  -16.0023   23.9209 O   0  0  0  0  0  0  0  0  0  0  0  0
   16.0521  -16.6882   21.7880 O   0  0  0  0  0  0  0  0  0  0  0  0
  2  1  1  0
  2  4  1  0
  3  2  2  0
  5  4  1  0
  5  6  1  1
  7  9  1  0
  7  5  1  0
  8  7  2  0
 10  9  1  0
 10 11  1  6
 12 16  1  0
 12 11  1  0
 13 12  2  0
 14 15  2  0
 14 10  1  0
 17 18  1  0
 18 19  2  0
 20 18  1  0
 20 21  1  0
 22 21  1  1
 22 23  1  0
 23 14  1  0
 24 22  1  0
 25 24  2  0
 26 24  1  0
M  END
$$$$
