NDQ.pdb
     RDKit          3D

 26 25  0  0  1  0  0  0  0  0999 V2000
    7.7075  -12.9489   16.5110 N   0  0  0  0  0  0  0  0  0  0  0  0
    7.7150  -13.9285   17.5425 C   0  0  0  0  0  0  0  0  0  0  0  0
    8.2058  -15.0720   17.3449 O   0  0  0  0  0  0  0  0  0  0  0  0
    7.1512  -13.6310   18.8696 C   0  0  0  0  0  0  0  0  0  0  0  0
    8.2447  -13.2587   19.8582 C   0  0  2  0  0  0  0  0  0  0  0  0
    9.4758  -13.0090   19.1150 N   0  0  0  0  0  0  0  0  0  0  0  0
    8.4451  -14.3720   20.7818 C   0  0  0  0  0  0  0  0  0  0  0  0
    7.5098  -14.7450   21.5519 O   0  0  0  0  0  0  0  0  0  0  0  0
    9.6822  -15.0966   20.8698 N   0  0  0  0  0  0  0  0  0  0  0  0
    9.8324  -16.1455   21.8483 C   0  0  1  0  0  0  0  0  0  0  0  0
   10.9907  -17.0566   21.4756 C   0  0  0  0  0  0  0  0  0  0  0  0
   11.1096  -18.1330   22.4619 C   0  0  0  0  0  0  0  0  0  0  0  0
   11.9066  -17.9899   23.4249 O   0  0  0  0  0  0  0  0  0  0  0  0
   10.0543  -15.5972   23.2364 C   0  0  0  0  0  0  0  0  0  0  0  0
   11.0076  -14.8021   23.4407 O   0  0  0  0  0  0  0  0  0  0  0  0
   10.3688  -19.2883   22.3511 O   0  0  0  0  0  0  0  0  0  0  0  0
    7.4260  -11.9579   26.6732 N   0  0  0  0  0  0  0  0  0  0  0  0
    6.5542  -13.0376   26.3591 C   0  0  0  0  0  0  0  0  0  0  0  0
    5.3096  -12.9684   26.4351 O   0  0  0  0  0  0  0  0  0  0  0  0
    7.2032  -14.3216   25.9144 C   0  0  0  0  0  0  0  0  0  0  0  0
    8.6786  -14.0994   25.8392 C   0  0  0  0  0  0  0  0  0  0  0  0
    9.4291  -15.3605   25.6848 C   0  0  2  0  0  0  0  0  0  0  0  0
    9.2268  -15.9378   24.3372 N   0  0  0  0  0  0  0  0  0  0  0  0
    9.0921  -16.3961   26.6865 C   0  0  0  0  0  0  0  0  0  0  0  0
    9.2405  -16.1534   27.9239 O   0  0  0  0  0  0  0  0  0  0  0  0
    8.6101  -17.6432   26.3479 O   0  0  0  0  0  0  0  0  0  0  0  0
  2  1  1  0
  2  4  1  0
  3  2  2  0
  5  4  1  0
  5  6  1  6
  7  9  1  0
  7  5  1  0
  8  7  2  0
 10  9  1  0
 10 11  1  6
 12 16  1  0
 12 11  1  0
 13 12  2  0
 14 15  2  0
 14 10  1  0
 17 18  1  0
 18 19  2  0
 20 18  1  0
 20 21  1  0
 22 21  1  1
 22 23  1  0
 23 14  1  0
 24 22  1  0
 25 24  2  0
 26 24  1  0
M  END
$$$$
