NDQ.pdb
     RDKit          3D

 26 25  0  0  1  0  0  0  0  0999 V2000
    8.4071  -17.0226   13.3261 N   0  0  0  0  0  0  0  0  0  0  0  0
    7.4840  -18.0583   13.6402 C   0  0  0  0  0  0  0  0  0  0  0  0
    6.9337  -18.7325   12.7290 O   0  0  0  0  0  0  0  0  0  0  0  0
    7.1486  -18.3715   15.0391 C   0  0  0  0  0  0  0  0  0  0  0  0
    7.7291  -17.3338   15.9869 C   0  0  2  0  0  0  0  0  0  0  0  0
    8.6469  -16.4828   15.2361 N   0  0  0  0  0  0  0  0  0  0  0  0
    8.4550  -18.0208   17.0517 C   0  0  0  0  0  0  0  0  0  0  0  0
    8.0609  -17.9408   18.2539 O   0  0  0  0  0  0  0  0  0  0  0  0
    9.6287  -18.8121   16.8078 N   0  0  0  0  0  0  0  0  0  0  0  0
   10.1731  -19.6333   17.8610 C   0  0  1  0  0  0  0  0  0  0  0  0
   10.8062  -20.8880   17.2816 C   0  0  0  0  0  0  0  0  0  0  0  0
   11.2007  -21.7887   18.3673 C   0  0  0  0  0  0  0  0  0  0  0  0
   12.3446  -21.6633   18.8760 O   0  0  0  0  0  0  0  0  0  0  0  0
   11.1965  -18.8919   18.6854 C   0  0  0  0  0  0  0  0  0  0  0  0
   12.0948  -18.2300   18.1044 O   0  0  0  0  0  0  0  0  0  0  0  0
   10.3456  -22.7615   18.8345 O   0  0  0  0  0  0  0  0  0  0  0  0
   11.4572  -19.2364   25.5157 N   0  0  0  0  0  0  0  0  0  0  0  0
   10.8209  -18.6429   24.3899 C   0  0  0  0  0  0  0  0  0  0  0  0
    9.8762  -17.8307   24.4758 O   0  0  0  0  0  0  0  0  0  0  0  0
   11.3409  -19.0402   23.0337 C   0  0  0  0  0  0  0  0  0  0  0  0
   11.5784  -17.7969   22.2402 C   0  0  0  0  0  0  0  0  0  0  0  0
   12.1307  -18.0819   20.9019 C   0  0  2  0  0  0  0  0  0  0  0  0
   11.1932  -18.9034   20.1039 N   0  0  0  0  0  0  0  0  0  0  0  0
   13.4438  -18.7635   20.9177 C   0  0  0  0  0  0  0  0  0  0  0  0
   14.4621  -18.1671   21.3865 O   0  0  0  0  0  0  0  0  0  0  0  0
   13.6336  -20.0446   20.4433 O   0  0  0  0  0  0  0  0  0  0  0  0
  2  1  1  0
  2  4  1  0
  3  2  2  0
  5  4  1  0
  5  6  1  6
  7  9  1  0
  7  5  1  0
  8  7  2  0
 10  9  1  0
 10 11  1  6
 12 16  1  0
 12 11  1  0
 13 12  2  0
 14 15  2  0
 14 10  1  0
 17 18  1  0
 18 19  2  0
 20 18  1  0
 20 21  1  0
 22 21  1  1
 22 23  1  0
 23 14  1  0
 24 22  1  0
 25 24  2  0
 26 24  1  0
M  END
$$$$
