NDQ.pdb
     RDKit          3D

 26 25  0  0  1  0  0  0  0  0999 V2000
    8.8958  -13.0939   17.1920 N   0  0  0  0  0  0  0  0  0  0  0  0
    7.8019  -13.9805   17.3946 C   0  0  0  0  0  0  0  0  0  0  0  0
    7.0180  -14.2667   16.4505 O   0  0  0  0  0  0  0  0  0  0  0  0
    7.5581  -14.5892   18.7127 C   0  0  0  0  0  0  0  0  0  0  0  0
    8.5455  -14.0709   19.7463 C   0  0  2  0  0  0  0  0  0  0  0  0
    9.8450  -13.9044   19.1028 N   0  0  0  0  0  0  0  0  0  0  0  0
    8.6533  -15.0470   20.8272 C   0  0  0  0  0  0  0  0  0  0  0  0
    7.6410  -15.3414   21.5311 O   0  0  0  0  0  0  0  0  0  0  0  0
    9.8815  -15.7187   21.1488 N   0  0  0  0  0  0  0  0  0  0  0  0
    9.9525  -16.5677   22.3126 C   0  0  1  0  0  0  0  0  0  0  0  0
   11.1347  -17.5172   22.2050 C   0  0  0  0  0  0  0  0  0  0  0  0
   10.9920  -18.3500   21.0085 C   0  0  0  0  0  0  0  0  0  0  0  0
   10.0033  -19.1231   20.9202 O   0  0  0  0  0  0  0  0  0  0  0  0
   10.0659  -15.7708   23.5888 C   0  0  0  0  0  0  0  0  0  0  0  0
   11.0517  -15.0067   23.7536 O   0  0  0  0  0  0  0  0  0  0  0  0
   11.9159  -18.2995   19.9888 O   0  0  0  0  0  0  0  0  0  0  0  0
    5.9181  -12.2854   25.3407 N   0  0  0  0  0  0  0  0  0  0  0  0
    6.5621  -12.1921   26.6060 C   0  0  0  0  0  0  0  0  0  0  0  0
    6.1753  -11.4428   27.5272 O   0  0  0  0  0  0  0  0  0  0  0  0
    7.7761  -13.0591   26.8108 C   0  0  0  0  0  0  0  0  0  0  0  0
    7.8538  -14.0317   25.6795 C   0  0  0  0  0  0  0  0  0  0  0  0
    9.0677  -14.8684   25.7407 C   0  0  2  0  0  0  0  0  0  0  0  0
    9.0999  -15.8406   24.6253 N   0  0  0  0  0  0  0  0  0  0  0  0
    9.2299  -15.6140   27.0083 C   0  0  0  0  0  0  0  0  0  0  0  0
    9.3445  -14.9836   28.1046 O   0  0  0  0  0  0  0  0  0  0  0  0
    9.2623  -16.9913   27.0735 O   0  0  0  0  0  0  0  0  0  0  0  0
  2  1  1  0
  2  4  1  0
  3  2  2  0
  5  4  1  0
  5  6  1  6
  7  9  1  0
  7  5  1  0
  8  7  2  0
 10  9  1  0
 10 11  1  6
 12 16  1  0
 12 11  1  0
 13 12  2  0
 14 15  2  0
 14 10  1  0
 17 18  1  0
 18 19  2  0
 20 18  1  0
 20 21  1  0
 22 21  1  1
 22 23  1  0
 23 14  1  0
 24 22  1  0
 25 24  2  0
 26 24  1  0
M  END
$$$$
