NDQ.pdb
     RDKit          3D

 26 25  0  0  1  0  0  0  0  0999 V2000
    6.8873  -13.9986   16.8409 N   0  0  0  0  0  0  0  0  0  0  0  0
    8.0035  -13.5984   17.6268 C   0  0  0  0  0  0  0  0  0  0  0  0
    9.1813  -13.8061   17.2305 O   0  0  0  0  0  0  0  0  0  0  0  0
    7.8117  -12.9286   18.9238 C   0  0  0  0  0  0  0  0  0  0  0  0
    8.9601  -13.2332   19.8725 C   0  0  2  0  0  0  0  0  0  0  0  0
   10.1166  -13.6446   19.0829 N   0  0  0  0  0  0  0  0  0  0  0  0
    8.5611  -14.3195   20.7633 C   0  0  0  0  0  0  0  0  0  0  0  0
    7.5290  -14.2082   21.4909 O   0  0  0  0  0  0  0  0  0  0  0  0
    9.2934  -15.5510   20.8646 N   0  0  0  0  0  0  0  0  0  0  0  0
    9.0021  -16.4742   21.9337 C   0  0  1  0  0  0  0  0  0  0  0  0
    9.6536  -17.8208   21.6639 C   0  0  0  0  0  0  0  0  0  0  0  0
    9.3937  -18.7285   22.7837 C   0  0  0  0  0  0  0  0  0  0  0  0
    9.8194  -18.4208   23.9271 O   0  0  0  0  0  0  0  0  0  0  0  0
    9.4647  -15.9542   23.2725 C   0  0  0  0  0  0  0  0  0  0  0  0
   10.6540  -15.5662   23.4062 O   0  0  0  0  0  0  0  0  0  0  0  0
    8.6970  -19.9025   22.6047 O   0  0  0  0  0  0  0  0  0  0  0  0
    5.4941  -12.6436   26.1775 N   0  0  0  0  0  0  0  0  0  0  0  0
    6.6345  -12.2032   26.9055 C   0  0  0  0  0  0  0  0  0  0  0  0
    6.6519  -11.1716   27.6092 O   0  0  0  0  0  0  0  0  0  0  0  0
    7.8733  -13.0524   26.7976 C   0  0  0  0  0  0  0  0  0  0  0  0
    7.6739  -14.0335   25.6887 C   0  0  0  0  0  0  0  0  0  0  0  0
    8.8418  -14.9160   25.5031 C   0  0  2  0  0  0  0  0  0  0  0  0
    8.6110  -15.8786   24.4029 N   0  0  0  0  0  0  0  0  0  0  0  0
    9.2267  -15.6786   26.7111 C   0  0  0  0  0  0  0  0  0  0  0  0
    9.0194  -16.9302   26.7636 O   0  0  0  0  0  0  0  0  0  0  0  0
    9.8165  -15.0964   27.8136 O   0  0  0  0  0  0  0  0  0  0  0  0
  2  1  1  0
  2  4  1  0
  3  2  2  0
  5  4  1  0
  5  6  1  6
  7  9  1  0
  7  5  1  0
  8  7  2  0
 10  9  1  0
 10 11  1  6
 12 16  1  0
 12 11  1  0
 13 12  2  0
 14 15  2  0
 14 10  1  0
 17 18  1  0
 18 19  2  0
 20 18  1  0
 20 21  1  0
 22 21  1  1
 22 23  1  0
 23 14  1  0
 24 22  1  0
 25 24  2  0
 26 24  1  0
M  END
$$$$
