NDQ.pdb
     RDKit          3D

 26 25  0  0  1  0  0  0  0  0999 V2000
   14.3804  -16.0997   19.2075 N   0  0  0  0  0  0  0  0  0  0  0  0
   13.2492  -16.9558   19.3122 C   0  0  0  0  0  0  0  0  0  0  0  0
   13.2547  -18.1017   18.7884 O   0  0  0  0  0  0  0  0  0  0  0  0
   12.0423  -16.5261   20.0376 C   0  0  0  0  0  0  0  0  0  0  0  0
   12.0139  -17.1037   21.4438 C   0  0  2  0  0  0  0  0  0  0  0  0
   11.9018  -18.5556   21.3461 N   0  0  0  0  0  0  0  0  0  0  0  0
   10.8542  -16.5673   22.1510 C   0  0  0  0  0  0  0  0  0  0  0  0
   10.8188  -15.3480   22.4962 O   0  0  0  0  0  0  0  0  0  0  0  0
    9.7099  -17.3676   22.4876 N   0  0  0  0  0  0  0  0  0  0  0  0
    8.6209  -16.7862   23.2334 C   0  0  1  0  0  0  0  0  0  0  0  0
    7.5075  -17.8031   23.4259 C   0  0  0  0  0  0  0  0  0  0  0  0
    7.2399  -18.4882   22.1592 C   0  0  0  0  0  0  0  0  0  0  0  0
    7.1992  -17.8120   21.0989 O   0  0  0  0  0  0  0  0  0  0  0  0
    9.0674  -16.2728   24.5802 C   0  0  0  0  0  0  0  0  0  0  0  0
    8.8004  -15.0881   24.9084 O   0  0  0  0  0  0  0  0  0  0  0  0
    7.0341  -19.8488   22.1127 O   0  0  0  0  0  0  0  0  0  0  0  0
    9.2922  -13.2509   27.8314 N   0  0  0  0  0  0  0  0  0  0  0  0
    9.9146  -14.0624   28.8206 C   0  0  0  0  0  0  0  0  0  0  0  0
   10.8116  -13.6547   29.5880 O   0  0  0  0  0  0  0  0  0  0  0  0
    9.4415  -15.4886   28.9190 C   0  0  0  0  0  0  0  0  0  0  0  0
    9.0656  -15.9532   27.5497 C   0  0  0  0  0  0  0  0  0  0  0  0
   10.2018  -16.5624   26.8320 C   0  0  2  0  0  0  0  0  0  0  0  0
    9.7818  -17.0735   25.5081 N   0  0  0  0  0  0  0  0  0  0  0  0
   10.8639  -17.6648   27.5640 C   0  0  0  0  0  0  0  0  0  0  0  0
   10.3449  -18.8236   27.5699 O   0  0  0  0  0  0  0  0  0  0  0  0
   12.0455  -17.5060   28.2574 O   0  0  0  0  0  0  0  0  0  0  0  0
  2  1  1  0
  2  4  1  0
  3  2  2  0
  5  4  1  0
  5  6  1  6
  7  9  1  0
  7  5  1  0
  8  7  2  0
 10  9  1  0
 10 11  1  1
 12 16  1  0
 12 11  1  0
 13 12  2  0
 14 15  2  0
 14 10  1  0
 17 18  1  0
 18 19  2  0
 20 18  1  0
 20 21  1  0
 22 21  1  1
 22 23  1  0
 23 14  1  0
 24 22  1  0
 25 24  2  0
 26 24  1  0
M  END
$$$$
