NDQ.pdb
     RDKit          3D

 26 25  0  0  1  0  0  0  0  0999 V2000
    6.2046  -14.3120   11.9294 N   0  0  0  0  0  0  0  0  0  0  0  0
    7.0104  -15.3538   12.4667 C   0  0  0  0  0  0  0  0  0  0  0  0
    7.1534  -16.4438   11.8511 O   0  0  0  0  0  0  0  0  0  0  0  0
    7.7008  -15.1850   13.7560 C   0  0  0  0  0  0  0  0  0  0  0  0
    8.5711  -16.3907   14.0732 C   0  0  2  0  0  0  0  0  0  0  0  0
    8.3147  -17.4228   13.0735 N   0  0  0  0  0  0  0  0  0  0  0  0
    8.2186  -16.8917   15.3989 C   0  0  0  0  0  0  0  0  0  0  0  0
    8.2928  -16.1347   16.4130 O   0  0  0  0  0  0  0  0  0  0  0  0
    7.7742  -18.2381   15.6287 N   0  0  0  0  0  0  0  0  0  0  0  0
    7.5400  -18.6973   16.9757 C   0  0  1  0  0  0  0  0  0  0  0  0
    6.8264  -20.0394   16.9619 C   0  0  0  0  0  0  0  0  0  0  0  0
    5.3924  -19.8342   16.7445 C   0  0  0  0  0  0  0  0  0  0  0  0
    4.7206  -19.2479   17.6323 O   0  0  0  0  0  0  0  0  0  0  0  0
    8.8214  -18.8204   17.7628 C   0  0  0  0  0  0  0  0  0  0  0  0
    9.8805  -19.1511   17.1697 O   0  0  0  0  0  0  0  0  0  0  0  0
    4.7751  -20.2696   15.5934 O   0  0  0  0  0  0  0  0  0  0  0  0
   10.0471  -15.8574   22.9524 N   0  0  0  0  0  0  0  0  0  0  0  0
   11.2990  -16.5262   22.8528 C   0  0  0  0  0  0  0  0  0  0  0  0
   12.2685  -16.2987   23.6065 O   0  0  0  0  0  0  0  0  0  0  0  0
   11.4273  -17.5597   21.7652 C   0  0  0  0  0  0  0  0  0  0  0  0
   10.1209  -17.6478   21.0459 C   0  0  0  0  0  0  0  0  0  0  0  0
   10.1746  -18.5700   19.8953 C   0  0  2  0  0  0  0  0  0  0  0  0
    8.8911  -18.5757   19.1583 N   0  0  0  0  0  0  0  0  0  0  0  0
   10.5100  -19.9669   20.2498 C   0  0  0  0  0  0  0  0  0  0  0  0
    9.6149  -20.7335   20.7225 O   0  0  0  0  0  0  0  0  0  0  0  0
   11.7709  -20.5026   20.0905 O   0  0  0  0  0  0  0  0  0  0  0  0
  2  1  1  0
  2  4  1  0
  3  2  2  0
  5  4  1  0
  5  6  1  6
  7  9  1  0
  7  5  1  0
  8  7  2  0
 10  9  1  0
 10 11  1  6
 12 16  1  0
 12 11  1  0
 13 12  2  0
 14 15  2  0
 14 10  1  0
 17 18  1  0
 18 19  2  0
 20 18  1  0
 20 21  1  0
 22 21  1  1
 22 23  1  0
 23 14  1  0
 24 22  1  0
 25 24  2  0
 26 24  1  0
M  END
$$$$
