NDQ.pdb
     RDKit          3D

 26 25  0  0  1  0  0  0  0  0999 V2000
    7.3761  -12.4747   17.3742 N   0  0  0  0  0  0  0  0  0  0  0  0
    7.6713  -13.8451   17.6156 C   0  0  0  0  0  0  0  0  0  0  0  0
    8.0524  -14.5990   16.6808 O   0  0  0  0  0  0  0  0  0  0  0  0
    7.5414  -14.4185   18.9654 C   0  0  0  0  0  0  0  0  0  0  0  0
    8.7230  -14.0317   19.8407 C   0  0  2  0  0  0  0  0  0  0  0  0
    9.9381  -14.0995   19.0350 N   0  0  0  0  0  0  0  0  0  0  0  0
    8.8162  -14.9750   20.9516 C   0  0  0  0  0  0  0  0  0  0  0  0
    7.8532  -15.1075   21.7653 O   0  0  0  0  0  0  0  0  0  0  0  0
    9.9745  -15.7924   21.1828 N   0  0  0  0  0  0  0  0  0  0  0  0
   10.0117  -16.6810   22.3182 C   0  0  1  0  0  0  0  0  0  0  0  0
   11.1721  -17.6547   22.1917 C   0  0  0  0  0  0  0  0  0  0  0  0
   11.2528  -18.4858   23.3952 C   0  0  0  0  0  0  0  0  0  0  0  0
   10.2005  -19.0092   23.8444 O   0  0  0  0  0  0  0  0  0  0  0  0
   10.1293  -15.9297   23.6215 C   0  0  0  0  0  0  0  0  0  0  0  0
   11.1174  -15.1745   23.8114 O   0  0  0  0  0  0  0  0  0  0  0  0
   12.4525  -18.7003   24.0359 O   0  0  0  0  0  0  0  0  0  0  0  0
    5.8811  -12.6458   25.6222 N   0  0  0  0  0  0  0  0  0  0  0  0
    6.7269  -12.3693   26.7324 C   0  0  0  0  0  0  0  0  0  0  0  0
    6.5214  -11.4457   27.5474 O   0  0  0  0  0  0  0  0  0  0  0  0
    7.9291  -13.2599   26.9031 C   0  0  0  0  0  0  0  0  0  0  0  0
    7.9795  -14.2057   25.7478 C   0  0  0  0  0  0  0  0  0  0  0  0
    9.1447  -15.1087   25.8120 C   0  0  2  0  0  0  0  0  0  0  0  0
    9.1648  -16.0334   24.6565 N   0  0  0  0  0  0  0  0  0  0  0  0
    9.2228  -15.9148   27.0502 C   0  0  0  0  0  0  0  0  0  0  0  0
    8.9543  -17.1554   27.0172 O   0  0  0  0  0  0  0  0  0  0  0  0
    9.5827  -15.3859   28.2721 O   0  0  0  0  0  0  0  0  0  0  0  0
  2  1  1  0
  2  4  1  0
  3  2  2  0
  5  4  1  0
  5  6  1  6
  7  9  1  0
  7  5  1  0
  8  7  2  0
 10  9  1  0
 10 11  1  6
 12 16  1  0
 12 11  1  0
 13 12  2  0
 14 15  2  0
 14 10  1  0
 17 18  1  0
 18 19  2  0
 20 18  1  0
 20 21  1  0
 22 21  1  1
 22 23  1  0
 23 14  1  0
 24 22  1  0
 25 24  2  0
 26 24  1  0
M  END
$$$$
