NDQ.pdb
     RDKit          3D

 26 25  0  0  1  0  0  0  0  0999 V2000
    7.4505  -12.5270   17.2919 N   0  0  0  0  0  0  0  0  0  0  0  0
    7.6842  -13.9180   17.4761 C   0  0  0  0  0  0  0  0  0  0  0  0
    8.0232  -14.6505   16.5086 O   0  0  0  0  0  0  0  0  0  0  0  0
    7.5381  -14.5384   18.8032 C   0  0  0  0  0  0  0  0  0  0  0  0
    8.6957  -14.1615   19.7142 C   0  0  2  0  0  0  0  0  0  0  0  0
    9.9381  -14.2795   18.9575 N   0  0  0  0  0  0  0  0  0  0  0  0
    8.7218  -15.0804   20.8490 C   0  0  0  0  0  0  0  0  0  0  0  0
    7.7305  -15.1597   21.6352 O   0  0  0  0  0  0  0  0  0  0  0  0
    9.8429  -15.9316   21.1349 N   0  0  0  0  0  0  0  0  0  0  0  0
    9.8347  -16.7576   22.3171 C   0  0  1  0  0  0  0  0  0  0  0  0
   10.9600  -17.7779   22.2590 C   0  0  0  0  0  0  0  0  0  0  0  0
   10.9238  -18.6219   23.4557 C   0  0  0  0  0  0  0  0  0  0  0  0
    9.8351  -18.7567   24.0719 O   0  0  0  0  0  0  0  0  0  0  0  0
    9.9649  -15.9411   23.5793 C   0  0  0  0  0  0  0  0  0  0  0  0
   11.0076  -15.2638   23.7712 O   0  0  0  0  0  0  0  0  0  0  0  0
   12.0535  -19.2635   23.9116 O   0  0  0  0  0  0  0  0  0  0  0  0
    5.7118  -12.5149   25.6896 N   0  0  0  0  0  0  0  0  0  0  0  0
    6.6386  -12.1955   26.7209 C   0  0  0  0  0  0  0  0  0  0  0  0
    6.4893  -11.2451   27.5172 O   0  0  0  0  0  0  0  0  0  0  0  0
    7.8574  -13.0732   26.8284 C   0  0  0  0  0  0  0  0  0  0  0  0
    7.8310  -14.0523   25.7003 C   0  0  0  0  0  0  0  0  0  0  0  0
    9.0023  -14.9496   25.7081 C   0  0  2  0  0  0  0  0  0  0  0  0
    8.9532  -15.8976   24.5727 N   0  0  0  0  0  0  0  0  0  0  0  0
    9.1633  -15.7298   26.9549 C   0  0  0  0  0  0  0  0  0  0  0  0
    8.9109  -16.9742   26.9612 O   0  0  0  0  0  0  0  0  0  0  0  0
    9.5856  -15.1721   28.1436 O   0  0  0  0  0  0  0  0  0  0  0  0
  2  1  1  0
  2  4  1  0
  3  2  2  0
  5  4  1  0
  5  6  1  6
  7  9  1  0
  7  5  1  0
  8  7  2  0
 10  9  1  0
 10 11  1  6
 12 16  1  0
 12 11  1  0
 13 12  2  0
 14 15  2  0
 14 10  1  0
 17 18  1  0
 18 19  2  0
 20 18  1  0
 20 21  1  0
 22 21  1  1
 22 23  1  0
 23 14  1  0
 24 22  1  0
 25 24  2  0
 26 24  1  0
M  END
$$$$
