NDQ.pdb
     RDKit          3D

 26 25  0  0  1  0  0  0  0  0999 V2000
    8.9323  -16.0585   13.6707 N   0  0  0  0  0  0  0  0  0  0  0  0
   10.2335  -15.6874   13.2319 C   0  0  0  0  0  0  0  0  0  0  0  0
   10.4396  -15.3437   12.0374 O   0  0  0  0  0  0  0  0  0  0  0  0
   11.3740  -15.6930   14.1630 C   0  0  0  0  0  0  0  0  0  0  0  0
   10.9699  -16.2462   15.5204 C   0  0  2  0  0  0  0  0  0  0  0  0
    9.9093  -15.4052   16.0663 N   0  0  0  0  0  0  0  0  0  0  0  0
   12.1294  -16.2135   16.4076 C   0  0  0  0  0  0  0  0  0  0  0  0
   13.1628  -16.8974   16.1408 O   0  0  0  0  0  0  0  0  0  0  0  0
   12.1701  -15.4217   17.6053 N   0  0  0  0  0  0  0  0  0  0  0  0
   13.3199  -15.4905   18.4733 C   0  0  1  0  0  0  0  0  0  0  0  0
   13.8729  -14.0984   18.7322 C   0  0  0  0  0  0  0  0  0  0  0  0
   15.2333  -14.1988   19.2660 C   0  0  0  0  0  0  0  0  0  0  0  0
   15.5842  -13.4168   20.1871 O   0  0  0  0  0  0  0  0  0  0  0  0
   12.9966  -16.1529   19.7898 C   0  0  0  0  0  0  0  0  0  0  0  0
   12.2958  -15.5379   20.6344 O   0  0  0  0  0  0  0  0  0  0  0  0
   16.1250  -15.1278   18.7787 O   0  0  0  0  0  0  0  0  0  0  0  0
   10.6639  -19.4990   22.7008 N   0  0  0  0  0  0  0  0  0  0  0  0
   10.4486  -19.8151   21.3303 C   0  0  0  0  0  0  0  0  0  0  0  0
    9.3344  -20.1205   20.8560 O   0  0  0  0  0  0  0  0  0  0  0  0
   11.6547  -19.7703   20.4299 C   0  0  0  0  0  0  0  0  0  0  0  0
   12.8614  -19.5210   21.2748 C   0  0  0  0  0  0  0  0  0  0  0  0
   13.1495  -18.0824   21.4316 C   0  0  2  0  0  0  0  0  0  0  0  0
   13.4491  -17.4549   20.1251 N   0  0  0  0  0  0  0  0  0  0  0  0
   14.2657  -17.7821   22.3552 C   0  0  0  0  0  0  0  0  0  0  0  0
   14.1359  -18.0014   23.5991 O   0  0  0  0  0  0  0  0  0  0  0  0
   15.4738  -17.2665   21.9346 O   0  0  0  0  0  0  0  0  0  0  0  0
  2  1  1  0
  2  4  1  0
  3  2  2  0
  5  4  1  0
  5  6  1  1
  7  9  1  0
  7  5  1  0
  8  7  2  0
 10  9  1  0
 10 11  1  1
 12 16  1  0
 12 11  1  0
 13 12  2  0
 14 15  2  0
 14 10  1  0
 17 18  1  0
 18 19  2  0
 20 18  1  0
 20 21  1  0
 22 21  1  6
 22 23  1  0
 23 14  1  0
 24 22  1  0
 25 24  2  0
 26 24  1  0
M  END
$$$$
