AHQ.pdb
     RDKit          3D

 25 25  0  0  1  0  0  0  0  0999 V2000
   27.5500  -28.8661  -16.6518 C   0  0  0  0  0  0  0  0  0  0  0  0
   26.4803  -27.9266  -17.1962 C   0  0  2  0  0  0  0  0  0  0  0  0
   26.5031  -27.8590  -18.6276 N   0  0  0  0  0  0  0  0  0  0  0  0
   26.6730  -26.5785  -16.5710 C   0  0  0  0  0  0  0  0  0  0  0  0
   26.6650  -26.5209  -15.3140 O   0  0  0  0  0  0  0  0  0  0  0  0
   26.8557  -25.4225  -17.3671 N   0  0  0  0  0  0  0  0  0  0  0  0
   27.1187  -24.1486  -16.7343 C   0  0  1  0  0  0  0  0  0  0  0  0
   28.3488  -23.5726  -17.3692 C   0  0  0  0  0  0  0  0  0  0  0  0
   29.6116  -24.2183  -16.9331 C   0  0  0  0  0  0  0  0  0  0  0  0
   29.8160  -25.3330  -16.1498 C   0  0  0  0  0  0  0  0  0  0  0  0
   31.1483  -25.5623  -16.0047 N   0  0  0  0  0  0  0  0  0  0  0  0
   31.7691  -24.5995  -16.6911 C   0  0  0  0  0  0  0  0  0  0  0  0
   30.8615  -23.7786  -17.2586 N   0  0  0  0  0  0  0  0  0  0  0  0
   25.9466  -23.2356  -16.8402 C   0  0  0  0  0  0  0  0  0  0  0  0
   25.2637  -23.2849  -17.8822 O   0  0  0  0  0  0  0  0  0  0  0  0
   22.5640  -21.1796  -12.2538 N   0  0  0  0  0  0  0  0  0  0  0  0
   22.0465  -20.3343  -13.2492 C   0  0  0  0  0  0  0  0  0  0  0  0
   20.9495  -19.7523  -13.1465 O   0  0  0  0  0  0  0  0  0  0  0  0
   22.8349  -20.1051  -14.5073 C   0  0  0  0  0  0  0  0  0  0  0  0
   24.0914  -20.9239  -14.5118 C   0  0  0  0  0  0  0  0  0  0  0  0
   24.3836  -21.4755  -15.8845 C   0  0  2  0  0  0  0  0  0  0  0  0
   25.5727  -22.3292  -15.8368 N   0  0  0  0  0  0  0  0  0  0  0  0
   24.6300  -20.3998  -16.8576 C   0  0  0  0  0  0  0  0  0  0  0  0
   23.5149  -19.8190  -17.4890 O   0  0  0  0  0  0  0  0  0  0  0  0
   25.7304  -19.9313  -17.1973 O   0  0  0  0  0  0  0  0  0  0  0  0
  2  3  1  0
  2  1  1  1
  4  2  1  0
  5  4  2  0
  6  4  1  0
  7  6  1  0
  8  9  1  0
  7  8  1  6
  9 10  2  0
 11 10  1  0
 12 11  1  0
 13 12  2  0
 13  9  1  0
 14  7  1  0
 14 15  2  0
 16 17  1  0
 17 18  2  0
 17 19  1  0
 19 20  1  0
 21 20  1  1
 21 22  1  0
 22 14  1  0
 23 21  1  0
 24 23  1  0
 25 23  2  0
M  END
$$$$
