AHQ.pdb
     RDKit          3D

 25 25  0  0  1  0  0  0  0  0999 V2000
   25.8311  -24.0133  -17.2127 C   0  0  0  0  0  0  0  0  0  0  0  0
   26.5414  -22.6717  -17.3506 C   0  0  2  0  0  0  0  0  0  0  0  0
   27.9413  -22.7732  -17.0607 N   0  0  0  0  0  0  0  0  0  0  0  0
   25.8573  -21.6811  -16.4584 C   0  0  0  0  0  0  0  0  0  0  0  0
   26.1887  -21.6755  -15.2445 O   0  0  0  0  0  0  0  0  0  0  0  0
   24.8803  -20.7918  -16.9666 N   0  0  0  0  0  0  0  0  0  0  0  0
   24.2371  -19.8478  -16.0791 C   0  0  1  0  0  0  0  0  0  0  0  0
   24.5386  -18.4699  -16.5877 C   0  0  0  0  0  0  0  0  0  0  0  0
   25.9580  -18.0664  -16.4319 C   0  0  0  0  0  0  0  0  0  0  0  0
   26.9109  -17.7808  -17.3848 C   0  0  0  0  0  0  0  0  0  0  0  0
   28.0871  -17.4562  -16.7847 N   0  0  0  0  0  0  0  0  0  0  0  0
   27.8696  -17.5386  -15.4697 C   0  0  0  0  0  0  0  0  0  0  0  0
   26.5927  -17.9049  -15.2350 N   0  0  0  0  0  0  0  0  0  0  0  0
   22.7738  -20.1060  -15.9773 C   0  0  0  0  0  0  0  0  0  0  0  0
   22.1695  -20.4436  -17.0144 O   0  0  0  0  0  0  0  0  0  0  0  0
   19.3123  -22.6558  -11.9161 N   0  0  0  0  0  0  0  0  0  0  0  0
   18.3278  -21.7545  -12.3536 C   0  0  0  0  0  0  0  0  0  0  0  0
   17.1069  -21.9515  -12.2005 O   0  0  0  0  0  0  0  0  0  0  0  0
   18.7415  -20.4850  -13.0421 C   0  0  0  0  0  0  0  0  0  0  0  0
   20.2293  -20.4314  -13.2238 C   0  0  0  0  0  0  0  0  0  0  0  0
   20.5992  -20.1996  -14.6671 C   0  0  2  0  0  0  0  0  0  0  0  0
   22.0439  -19.9903  -14.7848 N   0  0  0  0  0  0  0  0  0  0  0  0
   19.9180  -19.0166  -15.2160 C   0  0  0  0  0  0  0  0  0  0  0  0
   18.6781  -19.2104  -15.8520 O   0  0  0  0  0  0  0  0  0  0  0  0
   20.3154  -17.8390  -15.1850 O   0  0  0  0  0  0  0  0  0  0  0  0
  2  3  1  0
  2  1  1  1
  4  2  1  0
  5  4  2  0
  6  4  1  0
  7  6  1  0
  8  9  1  0
  7  8  1  6
  9 10  2  0
 11 10  1  0
 12 11  1  0
 13 12  2  0
 13  9  1  0
 14  7  1  0
 14 15  2  0
 16 17  1  0
 17 18  2  0
 17 19  1  0
 19 20  1  0
 21 20  1  1
 21 22  1  0
 22 14  1  0
 23 21  1  0
 24 23  1  0
 25 23  2  0
M  END
$$$$
