AHQ.pdb
     RDKit          3D

 25 25  0  0  1  0  0  0  0  0999 V2000
   20.0515  -14.1618  -17.8063 C   0  0  0  0  0  0  0  0  0  0  0  0
   21.5316  -14.4458  -17.5787 C   0  0  2  0  0  0  0  0  0  0  0  0
   21.7423  -15.7015  -16.9206 N   0  0  0  0  0  0  0  0  0  0  0  0
   22.1179  -13.3049  -16.8041 C   0  0  0  0  0  0  0  0  0  0  0  0
   21.6252  -13.0652  -15.6714 O   0  0  0  0  0  0  0  0  0  0  0  0
   23.1814  -12.5334  -17.3308 N   0  0  0  0  0  0  0  0  0  0  0  0
   23.7423  -11.4540  -16.5480 C   0  0  1  0  0  0  0  0  0  0  0  0
   25.2123  -11.4003  -16.8380 C   0  0  0  0  0  0  0  0  0  0  0  0
   25.9624  -12.5944  -16.3765 C   0  0  0  0  0  0  0  0  0  0  0  0
   26.0944  -13.1282  -15.1133 C   0  0  0  0  0  0  0  0  0  0  0  0
   26.8836  -14.2346  -15.1553 N   0  0  0  0  0  0  0  0  0  0  0  0
   27.2405  -14.3895  -16.4329 C   0  0  0  0  0  0  0  0  0  0  0  0
   26.6961  -13.4116  -17.1860 N   0  0  0  0  0  0  0  0  0  0  0  0
   23.0609  -10.1612  -16.8358 C   0  0  0  0  0  0  0  0  0  0  0  0
   22.8308   -9.8783  -18.0281 O   0  0  0  0  0  0  0  0  0  0  0  0
   17.1547   -6.8567  -17.3435 N   0  0  0  0  0  0  0  0  0  0  0  0
   18.1777   -7.8052  -17.1792 C   0  0  0  0  0  0  0  0  0  0  0  0
   18.0048   -9.0289  -17.3388 O   0  0  0  0  0  0  0  0  0  0  0  0
   19.5552   -7.3471  -16.7925 C   0  0  0  0  0  0  0  0  0  0  0  0
   20.4837   -8.5133  -16.6274 C   0  0  0  0  0  0  0  0  0  0  0  0
   21.8183   -8.0800  -16.0751 C   0  0  2  0  0  0  0  0  0  0  0  0
   22.6668   -9.2511  -15.8436 N   0  0  0  0  0  0  0  0  0  0  0  0
   21.6678   -7.3631  -14.7991 C   0  0  0  0  0  0  0  0  0  0  0  0
   21.1886   -6.0410  -14.8426 O   0  0  0  0  0  0  0  0  0  0  0  0
   21.9190   -7.7948  -13.6606 O   0  0  0  0  0  0  0  0  0  0  0  0
  2  3  1  0
  2  1  1  1
  4  2  1  0
  5  4  2  0
  6  4  1  0
  7  6  1  0
  8  9  1  0
  7  8  1  6
  9 10  2  0
 11 10  1  0
 12 11  1  0
 13 12  2  0
 13  9  1  0
 14  7  1  0
 14 15  2  0
 16 17  1  0
 17 18  2  0
 17 19  1  0
 19 20  1  0
 21 20  1  1
 21 22  1  0
 22 14  1  0
 23 21  1  0
 24 23  1  0
 25 23  2  0
M  END
$$$$
