AHQ.pdb
     RDKit          3D

 25 25  0  0  1  0  0  0  0  0999 V2000
   25.2582  -13.0035  -18.2105 C   0  0  0  0  0  0  0  0  0  0  0  0
   25.5863  -11.8640  -17.2527 C   0  0  2  0  0  0  0  0  0  0  0  0
   25.9445  -12.3437  -15.9505 N   0  0  0  0  0  0  0  0  0  0  0  0
   24.4107  -10.9364  -17.2016 C   0  0  0  0  0  0  0  0  0  0  0  0
   24.2306  -10.1809  -18.1916 O   0  0  0  0  0  0  0  0  0  0  0  0
   23.5431  -10.9162  -16.0833 N   0  0  0  0  0  0  0  0  0  0  0  0
   22.3693  -10.0711  -16.0998 C   0  0  1  0  0  0  0  0  0  0  0  0
   21.2812  -10.7924  -15.3624 C   0  0  0  0  0  0  0  0  0  0  0  0
   20.0058  -10.0385  -15.2799 C   0  0  0  0  0  0  0  0  0  0  0  0
   19.6811   -8.7860  -15.7530 C   0  0  0  0  0  0  0  0  0  0  0  0
   18.3892   -8.4930  -15.4466 N   0  0  0  0  0  0  0  0  0  0  0  0
   17.9126   -9.5529  -14.7886 C   0  0  0  0  0  0  0  0  0  0  0  0
   18.8706  -10.4960  -14.6771 N   0  0  0  0  0  0  0  0  0  0  0  0
   22.6551   -8.7304  -15.5174 C   0  0  0  0  0  0  0  0  0  0  0  0
   23.3575   -8.6814  -14.4883 O   0  0  0  0  0  0  0  0  0  0  0  0
   21.4399   -3.1029  -18.2287 N   0  0  0  0  0  0  0  0  0  0  0  0
   21.9584   -2.7119  -16.9831 C   0  0  0  0  0  0  0  0  0  0  0  0
   22.1091   -1.5204  -16.6511 O   0  0  0  0  0  0  0  0  0  0  0  0
   22.3579   -3.7624  -15.9863 C   0  0  0  0  0  0  0  0  0  0  0  0
   22.0947   -5.1390  -16.5203 C   0  0  0  0  0  0  0  0  0  0  0  0
   22.4443   -6.1987  -15.5061 C   0  0  2  0  0  0  0  0  0  0  0  0
   22.1796   -7.5278  -16.0613 N   0  0  0  0  0  0  0  0  0  0  0  0
   21.6528   -6.0499  -14.2747 C   0  0  0  0  0  0  0  0  0  0  0  0
   22.3316   -5.6768  -13.1003 O   0  0  0  0  0  0  0  0  0  0  0  0
   20.4279   -6.2181  -14.1440 O   0  0  0  0  0  0  0  0  0  0  0  0
  2  3  1  0
  2  1  1  6
  4  2  1  0
  5  4  2  0
  6  4  1  0
  7  6  1  0
  8  9  1  0
  7  8  1  1
  9 10  2  0
 11 10  1  0
 12 11  1  0
 13 12  2  0
 13  9  1  0
 14  7  1  0
 14 15  2  0
 16 17  1  0
 17 18  2  0
 17 19  1  0
 19 20  1  0
 21 20  1  6
 21 22  1  0
 22 14  1  0
 23 21  1  0
 24 23  1  0
 25 23  2  0
M  END
$$$$
