AHQ.pdb
     RDKit          3D

 25 25  0  0  1  0  0  0  0  0999 V2000
   19.2432   -9.8813  -19.0718 C   0  0  0  0  0  0  0  0  0  0  0  0
   20.6580  -10.3875  -18.8162 C   0  0  2  0  0  0  0  0  0  0  0  0
   20.6909  -11.8045  -18.6036 N   0  0  0  0  0  0  0  0  0  0  0  0
   21.2256   -9.6354  -17.6511 C   0  0  0  0  0  0  0  0  0  0  0  0
   20.6481   -9.7725  -16.5415 O   0  0  0  0  0  0  0  0  0  0  0  0
   22.3638   -8.8072  -17.7996 N   0  0  0  0  0  0  0  0  0  0  0  0
   22.9284   -8.1477  -16.6425 C   0  0  1  0  0  0  0  0  0  0  0  0
   24.4177   -8.3061  -16.7125 C   0  0  0  0  0  0  0  0  0  0  0  0
   24.8969   -9.6662  -16.3628 C   0  0  0  0  0  0  0  0  0  0  0  0
   24.1974  -10.7716  -15.9307 C   0  0  0  0  0  0  0  0  0  0  0  0
   25.0495  -11.8113  -15.7261 N   0  0  0  0  0  0  0  0  0  0  0  0
   26.2691  -11.3584  -16.0279 C   0  0  0  0  0  0  0  0  0  0  0  0
   26.1998  -10.0677  -16.4140 N   0  0  0  0  0  0  0  0  0  0  0  0
   22.5138   -6.7188  -16.5737 C   0  0  0  0  0  0  0  0  0  0  0  0
   22.5420   -6.0539  -17.6282 O   0  0  0  0  0  0  0  0  0  0  0  0
   17.5432   -4.2482  -16.2227 N   0  0  0  0  0  0  0  0  0  0  0  0
   18.2465   -3.0818  -15.8793 C   0  0  0  0  0  0  0  0  0  0  0  0
   17.7197   -1.9530  -15.8466 O   0  0  0  0  0  0  0  0  0  0  0  0
   19.7049   -3.1737  -15.5308 C   0  0  0  0  0  0  0  0  0  0  0  0
   20.1782   -4.5964  -15.5667 C   0  0  0  0  0  0  0  0  0  0  0  0
   21.6604   -4.6898  -15.3052 C   0  0  2  0  0  0  0  0  0  0  0  0
   22.0960   -6.0853  -15.3938 N   0  0  0  0  0  0  0  0  0  0  0  0
   22.0055   -4.1856  -13.9667 C   0  0  0  0  0  0  0  0  0  0  0  0
   22.3502   -5.1276  -12.9802 O   0  0  0  0  0  0  0  0  0  0  0  0
   22.0298   -2.9999  -13.5938 O   0  0  0  0  0  0  0  0  0  0  0  0
  2  3  1  0
  2  1  1  1
  4  2  1  0
  5  4  2  0
  6  4  1  0
  7  6  1  0
  8  9  1  0
  7  8  1  6
  9 10  2  0
 11 10  1  0
 12 11  1  0
 13 12  2  0
 13  9  1  0
 14  7  1  0
 14 15  2  0
 16 17  1  0
 17 18  2  0
 17 19  1  0
 19 20  1  0
 21 20  1  1
 21 22  1  0
 22 14  1  0
 23 21  1  0
 24 23  1  0
 25 23  2  0
M  END
$$$$
