AHQ.pdb
     RDKit          3D

 25 25  0  0  1  0  0  0  0  0999 V2000
   15.8616  -26.4913   -4.3482 C   0  0  0  0  0  0  0  0  0  0  0  0
   15.8497  -24.9715   -4.2331 C   0  0  2  0  0  0  0  0  0  0  0  0
   17.0176  -24.3799   -4.8164 N   0  0  0  0  0  0  0  0  0  0  0  0
   15.7037  -24.6083   -2.7867 C   0  0  0  0  0  0  0  0  0  0  0  0
   16.6523  -24.9135   -2.0184 O   0  0  0  0  0  0  0  0  0  0  0  0
   14.5444  -23.9497   -2.3115 N   0  0  0  0  0  0  0  0  0  0  0  0
   14.4396  -23.6000   -0.9117 C   0  0  1  0  0  0  0  0  0  0  0  0
   13.4782  -22.4548   -0.8016 C   0  0  0  0  0  0  0  0  0  0  0  0
   13.9353  -21.3677    0.0990 C   0  0  0  0  0  0  0  0  0  0  0  0
   15.1104  -21.2331    0.8052 C   0  0  0  0  0  0  0  0  0  0  0  0
   15.1008  -20.0692    1.5081 N   0  0  0  0  0  0  0  0  0  0  0  0
   13.9304  -19.4834    1.2428 C   0  0  0  0  0  0  0  0  0  0  0  0
   13.2124  -20.2491    0.3955 N   0  0  0  0  0  0  0  0  0  0  0  0
   14.0242  -24.7691   -0.0878 C   0  0  0  0  0  0  0  0  0  0  0  0
   13.2990  -25.6300   -0.6243 O   0  0  0  0  0  0  0  0  0  0  0  0
   16.6072  -26.6243    5.3859 N   0  0  0  0  0  0  0  0  0  0  0  0
   15.5041  -27.4897    5.2989 C   0  0  0  0  0  0  0  0  0  0  0  0
   15.2480  -28.3558    6.1573 O   0  0  0  0  0  0  0  0  0  0  0  0
   14.5739  -27.3855    4.1239 C   0  0  0  0  0  0  0  0  0  0  0  0
   15.0022  -26.2897    3.1938 C   0  0  0  0  0  0  0  0  0  0  0  0
   14.0026  -26.0890    2.0828 C   0  0  2  0  0  0  0  0  0  0  0  0
   14.4026  -24.9522    1.2506 N   0  0  0  0  0  0  0  0  0  0  0  0
   12.6556  -25.8201    2.6102 C   0  0  0  0  0  0  0  0  0  0  0  0
   11.8423  -26.9241    2.9248 O   0  0  0  0  0  0  0  0  0  0  0  0
   12.1374  -24.7089    2.8160 O   0  0  0  0  0  0  0  0  0  0  0  0
  2  3  1  0
  2  1  1  1
  4  2  1  0
  5  4  2  0
  6  4  1  0
  7  6  1  0
  8  9  1  0
  7  8  1  6
  9 10  2  0
 11 10  1  0
 12 11  1  0
 13 12  2  0
 13  9  1  0
 14  7  1  0
 14 15  2  0
 16 17  1  0
 17 18  2  0
 17 19  1  0
 19 20  1  0
 21 20  1  1
 21 22  1  0
 22 14  1  0
 23 21  1  0
 24 23  1  0
 25 23  2  0
M  END
$$$$
