AHQ.pdb
     RDKit          3D

 25 25  0  0  1  0  0  0  0  0999 V2000
   42.3813  -12.1102  -13.1555 C   0  0  0  0  0  0  0  0  0  0  0  0
   43.3696  -12.4570  -12.0481 C   0  0  2  0  0  0  0  0  0  0  0  0
   43.3574  -13.8558  -11.7365 N   0  0  0  0  0  0  0  0  0  0  0  0
   43.0506  -11.6158  -10.8497 C   0  0  0  0  0  0  0  0  0  0  0  0
   42.0716  -11.9695  -10.1428 O   0  0  0  0  0  0  0  0  0  0  0  0
   43.8224  -10.4726  -10.5323 N   0  0  0  0  0  0  0  0  0  0  0  0
   43.5213   -9.7107   -9.3401 C   0  0  1  0  0  0  0  0  0  0  0  0
   44.6462   -8.7432   -9.1244 C   0  0  0  0  0  0  0  0  0  0  0  0
   44.5194   -7.9370   -7.8851 C   0  0  0  0  0  0  0  0  0  0  0  0
   43.5617   -7.9722   -6.8956 C   0  0  0  0  0  0  0  0  0  0  0  0
   43.8438   -7.0457   -5.9412 N   0  0  0  0  0  0  0  0  0  0  0  0
   44.9671   -6.4383   -6.3320 C   0  0  0  0  0  0  0  0  0  0  0  0
   45.3913   -6.9603   -7.5013 N   0  0  0  0  0  0  0  0  0  0  0  0
   42.2014   -9.0291   -9.4482 C   0  0  0  0  0  0  0  0  0  0  0  0
   41.8524   -8.6128  -10.5705 O   0  0  0  0  0  0  0  0  0  0  0  0
   36.5589  -10.4340   -5.9834 N   0  0  0  0  0  0  0  0  0  0  0  0
   36.7409  -10.1593   -7.3489 C   0  0  0  0  0  0  0  0  0  0  0  0
   36.1858  -10.8101   -8.2550 O   0  0  0  0  0  0  0  0  0  0  0  0
   37.6434   -9.0316   -7.7620 C   0  0  0  0  0  0  0  0  0  0  0  0
   39.0227   -9.5321   -8.0723 C   0  0  0  0  0  0  0  0  0  0  0  0
   39.9395   -8.4045   -8.4747 C   0  0  2  0  0  0  0  0  0  0  0  0
   41.3358   -8.8319   -8.3620 N   0  0  0  0  0  0  0  0  0  0  0  0
   39.7508   -7.2232   -7.6182 C   0  0  0  0  0  0  0  0  0  0  0  0
   38.6198   -6.4192   -7.8502 O   0  0  0  0  0  0  0  0  0  0  0  0
   40.4875   -6.8408   -6.6926 O   0  0  0  0  0  0  0  0  0  0  0  0
  2  3  1  0
  2  1  1  6
  4  2  1  0
  5  4  2  0
  6  4  1  0
  7  6  1  0
  8  9  1  0
  7  8  1  6
  9 10  2  0
 11 10  1  0
 12 11  1  0
 13 12  2  0
 13  9  1  0
 14  7  1  0
 14 15  2  0
 16 17  1  0
 17 18  2  0
 17 19  1  0
 19 20  1  0
 21 20  1  1
 21 22  1  0
 22 14  1  0
 23 21  1  0
 24 23  1  0
 25 23  2  0
M  END
$$$$
