AHQ.pdb
     RDKit          3D

 25 25  0  0  1  0  0  0  0  0999 V2000
   15.4434  -11.2871  -19.6916 C   0  0  0  0  0  0  0  0  0  0  0  0
   16.6597  -10.3746  -19.7986 C   0  0  2  0  0  0  0  0  0  0  0  0
   17.6327  -10.8829  -20.7199 N   0  0  0  0  0  0  0  0  0  0  0  0
   17.2336  -10.1895  -18.4268 C   0  0  0  0  0  0  0  0  0  0  0  0
   16.4761   -9.7045  -17.5470 O   0  0  0  0  0  0  0  0  0  0  0  0
   18.5726  -10.5476  -18.1399 N   0  0  0  0  0  0  0  0  0  0  0  0
   19.1026  -10.3404  -16.8100 C   0  0  1  0  0  0  0  0  0  0  0  0
   19.7299  -11.6280  -16.3665 C   0  0  0  0  0  0  0  0  0  0  0  0
   18.7524  -12.6621  -15.9460 C   0  0  0  0  0  0  0  0  0  0  0  0
   17.3789  -12.6037  -15.8577 C   0  0  0  0  0  0  0  0  0  0  0  0
   16.8892  -13.7943  -15.4202 N   0  0  0  0  0  0  0  0  0  0  0  0
   17.9476  -14.5879  -15.2372 C   0  0  0  0  0  0  0  0  0  0  0  0
   19.0807  -13.9252  -15.5483 N   0  0  0  0  0  0  0  0  0  0  0  0
   20.0627   -9.2023  -16.7774 C   0  0  0  0  0  0  0  0  0  0  0  0
   20.9565   -9.1707  -17.6463 O   0  0  0  0  0  0  0  0  0  0  0  0
   20.0212   -4.7532  -19.4540 N   0  0  0  0  0  0  0  0  0  0  0  0
   20.8064   -4.1193  -18.4768 C   0  0  0  0  0  0  0  0  0  0  0  0
   21.2809   -2.9761  -18.6198 O   0  0  0  0  0  0  0  0  0  0  0  0
   21.1022   -4.8337  -17.1888 C   0  0  0  0  0  0  0  0  0  0  0  0
   20.4877   -6.2019  -17.1788 C   0  0  0  0  0  0  0  0  0  0  0  0
   20.7986   -6.9351  -15.8983 C   0  0  2  0  0  0  0  0  0  0  0  0
   20.0155   -8.1708  -15.8278 N   0  0  0  0  0  0  0  0  0  0  0  0
   20.4762   -6.1196  -14.7169 C   0  0  0  0  0  0  0  0  0  0  0  0
   21.3942   -5.1230  -14.3380 O   0  0  0  0  0  0  0  0  0  0  0  0
   19.4669   -6.2071  -13.9962 O   0  0  0  0  0  0  0  0  0  0  0  0
  2  3  1  0
  2  1  1  1
  4  2  1  0
  5  4  2  0
  6  4  1  0
  7  6  1  0
  8  9  1  0
  7  8  1  6
  9 10  2  0
 11 10  1  0
 12 11  1  0
 13 12  2  0
 13  9  1  0
 14  7  1  0
 14 15  2  0
 16 17  1  0
 17 18  2  0
 17 19  1  0
 19 20  1  0
 21 20  1  6
 21 22  1  0
 22 14  1  0
 23 21  1  0
 24 23  1  0
 25 23  2  0
M  END
$$$$
