AHQ.pdb
     RDKit          3D

 25 25  0  0  1  0  0  0  0  0999 V2000
   24.1128   -9.7750  -19.0743 C   0  0  0  0  0  0  0  0  0  0  0  0
   23.0398  -10.7412  -18.5861 C   0  0  2  0  0  0  0  0  0  0  0  0
   22.4676  -11.4959  -19.6618 N   0  0  0  0  0  0  0  0  0  0  0  0
   22.0024   -9.9579  -17.8407 C   0  0  0  0  0  0  0  0  0  0  0  0
   21.1255   -9.3685  -18.5241 O   0  0  0  0  0  0  0  0  0  0  0  0
   22.0145   -9.8881  -16.4270 N   0  0  0  0  0  0  0  0  0  0  0  0
   21.0910   -9.0095  -15.7431 C   0  0  1  0  0  0  0  0  0  0  0  0
   20.5011   -9.7756  -14.5972 C   0  0  0  0  0  0  0  0  0  0  0  0
   19.3684  -10.6549  -14.9787 C   0  0  0  0  0  0  0  0  0  0  0  0
   18.7973  -10.8850  -16.2111 C   0  0  0  0  0  0  0  0  0  0  0  0
   17.7730  -11.7713  -16.0916 N   0  0  0  0  0  0  0  0  0  0  0  0
   17.7061  -12.0910  -14.7967 C   0  0  0  0  0  0  0  0  0  0  0  0
   18.6587  -11.4293  -14.1080 N   0  0  0  0  0  0  0  0  0  0  0  0
   21.7598   -7.7545  -15.3004 C   0  0  0  0  0  0  0  0  0  0  0  0
   22.9899   -7.7908  -15.1000 O   0  0  0  0  0  0  0  0  0  0  0  0
   24.0646   -4.3092  -18.4107 N   0  0  0  0  0  0  0  0  0  0  0  0
   23.9505   -3.3118  -17.4282 C   0  0  0  0  0  0  0  0  0  0  0  0
   24.5271   -2.2098  -17.5054 O   0  0  0  0  0  0  0  0  0  0  0  0
   23.0982   -3.5619  -16.2166 C   0  0  0  0  0  0  0  0  0  0  0  0
   22.5552   -4.9600  -16.2200 C   0  0  0  0  0  0  0  0  0  0  0  0
   21.7330   -5.2336  -14.9858 C   0  0  2  0  0  0  0  0  0  0  0  0
   21.0840   -6.5418  -15.0982 N   0  0  0  0  0  0  0  0  0  0  0  0
   20.6862   -4.2169  -14.7977 C   0  0  0  0  0  0  0  0  0  0  0  0
   21.0133   -3.0697  -14.0519 O   0  0  0  0  0  0  0  0  0  0  0  0
   19.5204   -4.2502  -15.2283 O   0  0  0  0  0  0  0  0  0  0  0  0
  2  3  1  0
  2  1  1  6
  4  2  1  0
  5  4  2  0
  6  4  1  0
  7  6  1  0
  8  9  1  0
  7  8  1  1
  9 10  2  0
 11 10  1  0
 12 11  1  0
 13 12  2  0
 13  9  1  0
 14  7  1  0
 14 15  2  0
 16 17  1  0
 17 18  2  0
 17 19  1  0
 19 20  1  0
 21 20  1  6
 21 22  1  0
 22 14  1  0
 23 21  1  0
 24 23  1  0
 25 23  2  0
M  END
$$$$
