AHQ.pdb
     RDKit          3D

 25 25  0  0  1  0  0  0  0  0999 V2000
   41.3051   -4.6436   -8.8443 C   0  0  0  0  0  0  0  0  0  0  0  0
   40.0032   -5.3334   -8.4538 C   0  0  2  0  0  0  0  0  0  0  0  0
   39.3429   -4.6618   -7.3734 N   0  0  0  0  0  0  0  0  0  0  0  0
   40.3072   -6.7621   -8.1197 C   0  0  0  0  0  0  0  0  0  0  0  0
   40.8340   -6.9916   -7.0002 O   0  0  0  0  0  0  0  0  0  0  0  0
   40.0116   -7.8049   -9.0300 N   0  0  0  0  0  0  0  0  0  0  0  0
   40.3166   -9.1743   -8.6776 C   0  0  1  0  0  0  0  0  0  0  0  0
   39.2167  -10.0374   -9.2193 C   0  0  0  0  0  0  0  0  0  0  0  0
   38.3452  -10.6304   -8.1749 C   0  0  0  0  0  0  0  0  0  0  0  0
   38.4121  -10.5360   -6.8022 C   0  0  0  0  0  0  0  0  0  0  0  0
   37.4018  -11.2490   -6.2366 N   0  0  0  0  0  0  0  0  0  0  0  0
   36.7114  -11.7830   -7.2473 C   0  0  0  0  0  0  0  0  0  0  0  0
   37.2630  -11.4228   -8.4244 N   0  0  0  0  0  0  0  0  0  0  0  0
   41.6569   -9.5814   -9.1838 C   0  0  0  0  0  0  0  0  0  0  0  0
   42.0336   -9.1108  -10.2752 O   0  0  0  0  0  0  0  0  0  0  0  0
   45.7263  -13.5262   -6.2611 N   0  0  0  0  0  0  0  0  0  0  0  0
   46.4060  -13.2473   -7.4583 C   0  0  0  0  0  0  0  0  0  0  0  0
   47.4904  -13.7784   -7.7661 O   0  0  0  0  0  0  0  0  0  0  0  0
   45.8175  -12.2650   -8.4307 C   0  0  0  0  0  0  0  0  0  0  0  0
   44.5070  -11.7330   -7.9316 C   0  0  0  0  0  0  0  0  0  0  0  0
   43.8596  -10.8249   -8.9466 C   0  0  2  0  0  0  0  0  0  0  0  0
   42.5124  -10.4601   -8.5026 N   0  0  0  0  0  0  0  0  0  0  0  0
   43.7487  -11.4763  -10.2612 C   0  0  0  0  0  0  0  0  0  0  0  0
   42.6452  -12.3202  -10.4836 O   0  0  0  0  0  0  0  0  0  0  0  0
   44.5309  -11.3684  -11.2215 O   0  0  0  0  0  0  0  0  0  0  0  0
  2  3  1  0
  2  1  1  1
  4  2  1  0
  5  4  2  0
  6  4  1  0
  7  6  1  0
  8  9  1  0
  7  8  1  6
  9 10  2  0
 11 10  1  0
 12 11  1  0
 13 12  2  0
 13  9  1  0
 14  7  1  0
 14 15  2  0
 16 17  1  0
 17 18  2  0
 17 19  1  0
 19 20  1  0
 21 20  1  1
 21 22  1  0
 22 14  1  0
 23 21  1  0
 24 23  1  0
 25 23  2  0
M  END
$$$$
