CSW.pdb
     RDKit          3D

 27 28  0  0  1  0  0  0  0  0999 V2000
   27.4796  -21.6209  -19.0419 N   0  0  0  0  0  0  0  0  0  0  0  0
   27.2185  -22.3168  -17.8140 C   0  0  1  0  0  0  0  0  0  0  0  0
   27.9415  -21.5767  -16.6824 C   0  0  0  0  0  0  0  0  0  0  0  0
   27.6606  -22.4780  -15.1267 S   0  0  0  0  0  0  0  0  0  0  0  0
   25.7643  -22.3464  -17.5285 C   0  0  0  0  0  0  0  0  0  0  0  0
   25.1291  -21.2427  -17.5547 O   0  0  0  0  0  0  0  0  0  0  0  0
   23.6336  -25.6296  -15.9986 O   0  0  0  0  0  0  0  0  0  0  0  0
   23.0116  -24.7932  -16.8967 C   0  0  0  0  0  0  0  0  0  0  0  0
   23.6568  -23.4273  -16.8240 C   0  0  2  0  0  0  0  0  0  0  0  0
   25.0467  -23.5325  -17.2291 N   0  0  0  0  0  0  0  0  0  0  0  0
   23.5202  -22.9043  -15.4320 C   0  0  0  0  0  0  0  0  0  0  0  0
   24.5223  -22.8397  -14.6711 O   0  0  0  0  0  0  0  0  0  0  0  0
   22.2704  -22.4833  -14.9696 N   0  0  0  0  0  0  0  0  0  0  0  0
   22.1140  -21.8140  -13.6648 C   0  0  1  0  0  0  0  0  0  0  0  0
   23.0629  -20.6776  -13.6102 C   0  0  0  0  0  0  0  0  0  0  0  0
   22.6540  -19.4694  -14.3133 C   0  0  0  0  0  0  0  0  0  0  0  0
   21.5895  -18.6376  -13.9796 C   0  0  0  0  0  0  0  0  0  0  0  0
   21.5128  -17.6552  -14.8763 N   0  0  0  0  0  0  0  0  0  0  0  0
   22.4807  -17.8064  -15.7823 C   0  0  0  0  0  0  0  0  0  0  0  0
   22.8012  -17.0166  -16.8922 C   0  0  0  0  0  0  0  0  0  0  0  0
   23.8581  -17.3584  -17.6750 C   0  0  0  0  0  0  0  0  0  0  0  0
   24.5974  -18.4823  -17.3586 C   0  0  0  0  0  0  0  0  0  0  0  0
   24.2958  -19.2697  -16.2720 C   0  0  0  0  0  0  0  0  0  0  0  0
   23.2106  -18.9289  -15.4595 C   0  0  0  0  0  0  0  0  0  0  0  0
   20.7098  -21.5269  -13.4015 C   0  0  0  0  0  0  0  0  0  0  0  0
   20.2472  -21.1439  -12.3048 O   0  0  0  0  0  0  0  0  0  0  0  0
   19.7845  -21.6866  -14.4477 O   0  0  0  0  0  0  0  0  0  0  0  0
  2  1  1  6
  3  2  1  0
  3  4  1  0
  5  6  2  0
  5  2  1  0
  7  8  1  0
  9  8  1  1
  9 10  1  0
 10  5  1  0
 11 13  1  0
 11  9  1  0
 12 11  2  0
 14 13  1  0
 14 25  1  0
 14 15  1  6
 16 24  1  0
 16 15  1  0
 17 16  2  0
 18 17  1  0
 18 19  1  0
 19 24  2  0
 20 19  1  0
 20 21  2  0
 21 22  1  0
 22 23  2  0
 24 23  1  0
 25 27  1  0
 26 25  2  0
M  END
$$$$
