CSW.pdb
     RDKit          3D

 27 28  0  0  1  0  0  0  0  0999 V2000
   25.4836  -15.7218  -17.5855 N   0  0  0  0  0  0  0  0  0  0  0  0
   26.1234  -16.8693  -17.0074 C   0  0  1  0  0  0  0  0  0  0  0  0
   27.4418  -16.4117  -16.3722 C   0  0  0  0  0  0  0  0  0  0  0  0
   28.3862  -17.8840  -15.8702 S   0  0  0  0  0  0  0  0  0  0  0  0
   25.2635  -17.4780  -15.9649 C   0  0  0  0  0  0  0  0  0  0  0  0
   24.7205  -16.7028  -15.1125 O   0  0  0  0  0  0  0  0  0  0  0  0
   23.8756  -21.4034  -15.8354 O   0  0  0  0  0  0  0  0  0  0  0  0
   23.2414  -20.3671  -15.1897 C   0  0  0  0  0  0  0  0  0  0  0  0
   24.2793  -19.3723  -14.7201 C   0  0  2  0  0  0  0  0  0  0  0  0
   25.0147  -18.8709  -15.8668 N   0  0  0  0  0  0  0  0  0  0  0  0
   25.1766  -20.0433  -13.7328 C   0  0  0  0  0  0  0  0  0  0  0  0
   26.3914  -20.2404  -14.0023 O   0  0  0  0  0  0  0  0  0  0  0  0
   24.6642  -20.4561  -12.4998 N   0  0  0  0  0  0  0  0  0  0  0  0
   25.5451  -20.9292  -11.4158 C   0  0  1  0  0  0  0  0  0  0  0  0
   26.6154  -19.9245  -11.2165 C   0  0  0  0  0  0  0  0  0  0  0  0
   27.6867  -20.3044  -10.3060 C   0  0  0  0  0  0  0  0  0  0  0  0
   28.7427  -21.1668  -10.5842 C   0  0  0  0  0  0  0  0  0  0  0  0
   29.4969  -21.2907   -9.4929 N   0  0  0  0  0  0  0  0  0  0  0  0
   28.9818  -20.5469   -8.5121 C   0  0  0  0  0  0  0  0  0  0  0  0
   29.4349  -20.3512   -7.2026 C   0  0  0  0  0  0  0  0  0  0  0  0
   28.7494  -19.5212   -6.3734 C   0  0  0  0  0  0  0  0  0  0  0  0
   27.6151  -18.8852   -6.8410 C   0  0  0  0  0  0  0  0  0  0  0  0
   27.1557  -19.0666   -8.1246 C   0  0  0  0  0  0  0  0  0  0  0  0
   27.8519  -19.9185   -8.9870 C   0  0  0  0  0  0  0  0  0  0  0  0
   24.7607  -21.3122  -10.2489 C   0  0  0  0  0  0  0  0  0  0  0  0
   23.6897  -20.7735   -9.8935 O   0  0  0  0  0  0  0  0  0  0  0  0
   25.2255  -22.3674   -9.4447 O   0  0  0  0  0  0  0  0  0  0  0  0
  2  1  1  1
  3  2  1  0
  3  4  1  0
  5  6  2  0
  5  2  1  0
  7  8  1  0
  9  8  1  6
  9 10  1  0
 10  5  1  0
 11 13  1  0
 11  9  1  0
 12 11  2  0
 14 13  1  0
 14 25  1  0
 14 15  1  1
 16 24  1  0
 16 15  1  0
 17 16  2  0
 18 17  1  0
 18 19  1  0
 19 24  2  0
 20 19  1  0
 20 21  2  0
 21 22  1  0
 22 23  2  0
 24 23  1  0
 25 27  1  0
 26 25  2  0
M  END
$$$$
