CSW.pdb
     RDKit          3D

 27 28  0  0  1  0  0  0  0  0999 V2000
   19.7747  -21.9040  -18.3531 N   0  0  0  0  0  0  0  0  0  0  0  0
   18.3561  -21.7151  -18.2422 C   0  0  1  0  0  0  0  0  0  0  0  0
   17.7259  -23.0542  -17.8412 C   0  0  0  0  0  0  0  0  0  0  0  0
   15.9223  -22.8378  -17.7335 S   0  0  0  0  0  0  0  0  0  0  0  0
   18.0428  -20.6984  -17.2103 C   0  0  0  0  0  0  0  0  0  0  0  0
   18.6584  -20.7692  -16.0974 O   0  0  0  0  0  0  0  0  0  0  0  0
   15.1750  -17.6770  -17.5663 O   0  0  0  0  0  0  0  0  0  0  0  0
   16.3462  -17.4152  -16.8933 C   0  0  0  0  0  0  0  0  0  0  0  0
   16.8819  -18.7075  -16.3187 C   0  0  2  0  0  0  0  0  0  0  0  0
   17.0987  -19.6564  -17.3955 N   0  0  0  0  0  0  0  0  0  0  0  0
   15.9109  -19.2236  -15.3083 C   0  0  0  0  0  0  0  0  0  0  0  0
   15.0827  -20.1216  -15.6166 O   0  0  0  0  0  0  0  0  0  0  0  0
   15.9211  -18.7061  -14.0102 N   0  0  0  0  0  0  0  0  0  0  0  0
   14.9363  -19.1342  -12.9994 C   0  0  1  0  0  0  0  0  0  0  0  0
   15.3645  -18.6074  -11.6827 C   0  0  0  0  0  0  0  0  0  0  0  0
   14.4895  -18.9096  -10.5583 C   0  0  0  0  0  0  0  0  0  0  0  0
   14.6611  -19.9286   -9.6265 C   0  0  0  0  0  0  0  0  0  0  0  0
   13.6395  -19.9073   -8.7716 N   0  0  0  0  0  0  0  0  0  0  0  0
   12.8065  -18.9186   -9.1020 C   0  0  0  0  0  0  0  0  0  0  0  0
   11.6174  -18.5059   -8.4903 C   0  0  0  0  0  0  0  0  0  0  0  0
   10.9358  -17.4456   -8.9978 C   0  0  0  0  0  0  0  0  0  0  0  0
   11.4317  -16.7941  -10.1111 C   0  0  0  0  0  0  0  0  0  0  0  0
   12.5983  -17.1868  -10.7247 C   0  0  0  0  0  0  0  0  0  0  0  0
   13.3082  -18.2766  -10.2124 C   0  0  0  0  0  0  0  0  0  0  0  0
   13.5826  -18.8202  -13.4380 C   0  0  0  0  0  0  0  0  0  0  0  0
   13.2550  -17.8047  -14.0899 O   0  0  0  0  0  0  0  0  0  0  0  0
   12.5476  -19.7146  -13.1139 O   0  0  0  0  0  0  0  0  0  0  0  0
  2  1  1  1
  3  2  1  0
  3  4  1  0
  5  6  2  0
  5  2  1  0
  7  8  1  0
  9  8  1  6
  9 10  1  0
 10  5  1  0
 11 13  1  0
 11  9  1  0
 12 11  2  0
 14 13  1  0
 14 25  1  0
 14 15  1  1
 16 24  1  0
 16 15  1  0
 17 16  2  0
 18 17  1  0
 18 19  1  0
 19 24  2  0
 20 19  1  0
 20 21  2  0
 21 22  1  0
 22 23  2  0
 24 23  1  0
 25 27  1  0
 26 25  2  0
M  END
$$$$
