CSW.pdb
     RDKit          3D

 27 28  0  0  1  0  0  0  0  0999 V2000
   21.6425  -10.5229    8.3402 N   0  0  0  0  0  0  0  0  0  0  0  0
   20.4315  -10.9719    8.9665 C   0  0  1  0  0  0  0  0  0  0  0  0
   19.2531  -10.2560    8.2958 C   0  0  0  0  0  0  0  0  0  0  0  0
   18.8994   -8.7289    9.2201 S   0  0  0  0  0  0  0  0  0  0  0  0
   20.2707  -12.4364    8.8044 C   0  0  0  0  0  0  0  0  0  0  0  0
   21.0296  -13.0310    7.9721 O   0  0  0  0  0  0  0  0  0  0  0  0
   18.5505  -14.8442   11.5046 O   0  0  0  0  0  0  0  0  0  0  0  0
   19.3969  -15.3862   10.5650 C   0  0  0  0  0  0  0  0  0  0  0  0
   19.2343  -14.6321    9.2641 C   0  0  2  0  0  0  0  0  0  0  0  0
   19.3212  -13.2065    9.5234 N   0  0  0  0  0  0  0  0  0  0  0  0
   17.9259  -15.0081    8.6505 C   0  0  0  0  0  0  0  0  0  0  0  0
   16.9199  -14.2606    8.7793 O   0  0  0  0  0  0  0  0  0  0  0  0
   17.8164  -16.1992    7.9277 N   0  0  0  0  0  0  0  0  0  0  0  0
   16.5775  -16.5589    7.2132 C   0  0  1  0  0  0  0  0  0  0  0  0
   16.2326  -15.4485    6.2953 C   0  0  0  0  0  0  0  0  0  0  0  0
   17.0382  -15.3451    5.0864 C   0  0  0  0  0  0  0  0  0  0  0  0
   17.0262  -16.2222    4.0061 C   0  0  0  0  0  0  0  0  0  0  0  0
   17.9219  -15.8130    3.1088 N   0  0  0  0  0  0  0  0  0  0  0  0
   18.5198  -14.7060    3.5533 C   0  0  0  0  0  0  0  0  0  0  0  0
   19.5068  -13.9168    2.9521 C   0  0  0  0  0  0  0  0  0  0  0  0
   19.9588  -12.8065    3.5920 C   0  0  0  0  0  0  0  0  0  0  0  0
   19.4335  -12.4780    4.8272 C   0  0  0  0  0  0  0  0  0  0  0  0
   18.4636  -13.2426    5.4325 C   0  0  0  0  0  0  0  0  0  0  0  0
   17.9909  -14.3875    4.7845 C   0  0  0  0  0  0  0  0  0  0  0  0
   16.6871  -17.8934    6.6380 C   0  0  0  0  0  0  0  0  0  0  0  0
   17.7480  -18.5471    6.5341 O   0  0  0  0  0  0  0  0  0  0  0  0
   15.5218  -18.5139    6.1553 O   0  0  0  0  0  0  0  0  0  0  0  0
  2  1  1  6
  3  2  1  0
  3  4  1  0
  5  6  2  0
  5  2  1  0
  7  8  1  0
  9  8  1  1
  9 10  1  0
 10  5  1  0
 11 13  1  0
 11  9  1  0
 12 11  2  0
 14 13  1  0
 14 25  1  0
 14 15  1  6
 16 24  1  0
 16 15  1  0
 17 16  2  0
 18 17  1  0
 18 19  1  0
 19 24  2  0
 20 19  1  0
 20 21  2  0
 21 22  1  0
 22 23  2  0
 24 23  1  0
 25 27  1  0
 26 25  2  0
M  END
$$$$
