CSW.pdb
     RDKit          3D

 27 28  0  0  1  0  0  0  0  0999 V2000
   20.0636  -20.8041  -12.5374 N   0  0  0  0  0  0  0  0  0  0  0  0
   21.3292  -20.2334  -12.9020 C   0  0  1  0  0  0  0  0  0  0  0  0
   21.3692  -18.7904  -12.3850 C   0  0  0  0  0  0  0  0  0  0  0  0
   20.5671  -17.7118  -13.6117 S   0  0  0  0  0  0  0  0  0  0  0  0
   22.4431  -21.0011  -12.2964 C   0  0  0  0  0  0  0  0  0  0  0  0
   22.2414  -21.5535  -11.1666 O   0  0  0  0  0  0  0  0  0  0  0  0
   26.2945  -21.2679  -13.8667 O   0  0  0  0  0  0  0  0  0  0  0  0
   25.8060  -22.3386  -13.1540 C   0  0  0  0  0  0  0  0  0  0  0  0
   24.7631  -21.8437  -12.1769 C   0  0  2  0  0  0  0  0  0  0  0  0
   23.7151  -21.1520  -12.9053 N   0  0  0  0  0  0  0  0  0  0  0  0
   25.4252  -20.9554  -11.1757 C   0  0  0  0  0  0  0  0  0  0  0  0
   24.9276  -19.8348  -10.8858 O   0  0  0  0  0  0  0  0  0  0  0  0
   26.6066  -21.3707  -10.5552 N   0  0  0  0  0  0  0  0  0  0  0  0
   27.3220  -20.5069   -9.5976 C   0  0  1  0  0  0  0  0  0  0  0  0
   26.4556  -20.3128   -8.4117 C   0  0  0  0  0  0  0  0  0  0  0  0
   27.0394  -19.5594   -7.3105 C   0  0  0  0  0  0  0  0  0  0  0  0
   27.1583  -18.1756   -7.2254 C   0  0  0  0  0  0  0  0  0  0  0  0
   27.7739  -17.8652   -6.0854 N   0  0  0  0  0  0  0  0  0  0  0  0
   28.0630  -18.9848   -5.4194 C   0  0  0  0  0  0  0  0  0  0  0  0
   28.6875  -19.1542   -4.1786 C   0  0  0  0  0  0  0  0  0  0  0  0
   28.8614  -20.4068   -3.6815 C   0  0  0  0  0  0  0  0  0  0  0  0
   28.4170  -21.4916   -4.4132 C   0  0  0  0  0  0  0  0  0  0  0  0
   27.8018  -21.3431   -5.6343 C   0  0  0  0  0  0  0  0  0  0  0  0
   27.6177  -20.0596   -6.1567 C   0  0  0  0  0  0  0  0  0  0  0  0
   28.6713  -21.0063   -9.3664 C   0  0  0  0  0  0  0  0  0  0  0  0
   29.6193  -20.3318   -8.9082 O   0  0  0  0  0  0  0  0  0  0  0  0
   28.9525  -22.3484   -9.6760 O   0  0  0  0  0  0  0  0  0  0  0  0
  2  1  1  1
  3  2  1  0
  3  4  1  0
  5  6  2  0
  5  2  1  0
  7  8  1  0
  9  8  1  6
  9 10  1  0
 10  5  1  0
 11 13  1  0
 11  9  1  0
 12 11  2  0
 14 13  1  0
 14 25  1  0
 14 15  1  1
 16 24  1  0
 16 15  1  0
 17 16  2  0
 18 17  1  0
 18 19  1  0
 19 24  2  0
 20 19  1  0
 20 21  2  0
 21 22  1  0
 22 23  2  0
 24 23  1  0
 25 27  1  0
 26 25  2  0
M  END
$$$$
