CSW.pdb
     RDKit          3D

 27 28  0  0  1  0  0  0  0  0999 V2000
   22.6426   -9.2022  -14.6177 N   0  0  0  0  0  0  0  0  0  0  0  0
   21.2528   -9.0001  -14.9142 C   0  0  1  0  0  0  0  0  0  0  0  0
   20.5492  -10.3612  -14.8564 C   0  0  0  0  0  0  0  0  0  0  0  0
   21.1691  -11.3936  -16.2207 S   0  0  0  0  0  0  0  0  0  0  0  0
   20.6341   -8.0870  -13.9241 C   0  0  0  0  0  0  0  0  0  0  0  0
   20.6956   -8.4116  -12.6939 O   0  0  0  0  0  0  0  0  0  0  0  0
   18.3115   -4.8527  -14.9073 O   0  0  0  0  0  0  0  0  0  0  0  0
   19.0758   -4.6922  -13.7746 C   0  0  0  0  0  0  0  0  0  0  0  0
   19.4188   -6.0552  -13.2162 C   0  0  2  0  0  0  0  0  0  0  0  0
   19.9805   -6.8774  -14.2723 N   0  0  0  0  0  0  0  0  0  0  0  0
   18.1840   -6.6616  -12.6352 C   0  0  0  0  0  0  0  0  0  0  0  0
   17.5205   -7.5116  -13.2867 O   0  0  0  0  0  0  0  0  0  0  0  0
   17.7609   -6.2826  -11.3582 N   0  0  0  0  0  0  0  0  0  0  0  0
   16.4517   -6.6992  -10.8221 C   0  0  1  0  0  0  0  0  0  0  0  0
   16.6147   -6.9970   -9.3801 C   0  0  0  0  0  0  0  0  0  0  0  0
   15.3949   -7.3183   -8.6522 C   0  0  0  0  0  0  0  0  0  0  0  0
   14.7844   -8.5660   -8.5698 C   0  0  0  0  0  0  0  0  0  0  0  0
   13.6732   -8.4549   -7.8432 N   0  0  0  0  0  0  0  0  0  0  0  0
   13.5292   -7.1894   -7.4454 C   0  0  0  0  0  0  0  0  0  0  0  0
   12.5317   -6.6055   -6.6564 C   0  0  0  0  0  0  0  0  0  0  0  0
   12.6021   -5.2815   -6.3589 C   0  0  0  0  0  0  0  0  0  0  0  0
   13.6602   -4.5358   -6.8427 C   0  0  0  0  0  0  0  0  0  0  0  0
   14.6486   -5.0936   -7.6198 C   0  0  0  0  0  0  0  0  0  0  0  0
   14.5870   -6.4545   -7.9332 C   0  0  0  0  0  0  0  0  0  0  0  0
   15.4176   -5.7427  -11.1954 C   0  0  0  0  0  0  0  0  0  0  0  0
   15.5832   -4.5075  -11.2975 O   0  0  0  0  0  0  0  0  0  0  0  0
   14.1247   -6.2236  -11.4662 O   0  0  0  0  0  0  0  0  0  0  0  0
  2  1  1  1
  3  2  1  0
  3  4  1  0
  5  6  2  0
  5  2  1  0
  7  8  1  0
  9  8  1  6
  9 10  1  0
 10  5  1  0
 11 13  1  0
 11  9  1  0
 12 11  2  0
 14 13  1  0
 14 25  1  0
 14 15  1  1
 16 24  1  0
 16 15  1  0
 17 16  2  0
 18 17  1  0
 18 19  1  0
 19 24  2  0
 20 19  1  0
 20 21  2  0
 21 22  1  0
 22 23  2  0
 24 23  1  0
 25 27  1  0
 26 25  2  0
M  END
$$$$
