CSW.pdb
     RDKit          3D

 27 28  0  0  1  0  0  0  0  0999 V2000
   26.0586  -21.8614  -17.4747 N   0  0  0  0  0  0  0  0  0  0  0  0
   27.4534  -22.1379  -17.2785 C   0  0  1  0  0  0  0  0  0  0  0  0
   28.2304  -21.5320  -18.4532 C   0  0  0  0  0  0  0  0  0  0  0  0
   28.0519  -22.6286  -19.8945 S   0  0  0  0  0  0  0  0  0  0  0  0
   27.9330  -21.5354  -16.0120 C   0  0  0  0  0  0  0  0  0  0  0  0
   29.1691  -21.6510  -15.7274 O   0  0  0  0  0  0  0  0  0  0  0  0
   26.3207  -18.4974  -14.0313 O   0  0  0  0  0  0  0  0  0  0  0  0
   27.5854  -18.9318  -13.7072 C   0  0  0  0  0  0  0  0  0  0  0  0
   27.6305  -20.4394  -13.8180 C   0  0  2  0  0  0  0  0  0  0  0  0
   27.0924  -20.8409  -15.1050 N   0  0  0  0  0  0  0  0  0  0  0  0
   26.8587  -21.0283  -12.6833 C   0  0  0  0  0  0  0  0  0  0  0  0
   25.6074  -21.1546  -12.7572 O   0  0  0  0  0  0  0  0  0  0  0  0
   27.5303  -21.4426  -11.5298 N   0  0  0  0  0  0  0  0  0  0  0  0
   26.9453  -21.2631  -10.1880 C   0  0  1  0  0  0  0  0  0  0  0  0
   27.9919  -20.7124   -9.2958 C   0  0  0  0  0  0  0  0  0  0  0  0
   27.5685  -20.3820   -7.9421 C   0  0  0  0  0  0  0  0  0  0  0  0
   26.2705  -20.1024   -7.5257 C   0  0  0  0  0  0  0  0  0  0  0  0
   26.2876  -19.8149   -6.2250 N   0  0  0  0  0  0  0  0  0  0  0  0
   27.5397  -19.8945   -5.7706 C   0  0  0  0  0  0  0  0  0  0  0  0
   28.0391  -19.6951   -4.4786 C   0  0  0  0  0  0  0  0  0  0  0  0
   29.3680  -19.8520   -4.2423 C   0  0  0  0  0  0  0  0  0  0  0  0
   30.2023  -20.2062   -5.2855 C   0  0  0  0  0  0  0  0  0  0  0  0
   29.7282  -20.4055   -6.5612 C   0  0  0  0  0  0  0  0  0  0  0  0
   28.3632  -20.2465   -6.8170 C   0  0  0  0  0  0  0  0  0  0  0  0
   25.6858  -20.5349  -10.2716 C   0  0  0  0  0  0  0  0  0  0  0  0
   25.5449  -19.3962  -10.7687 O   0  0  0  0  0  0  0  0  0  0  0  0
   24.5252  -21.1403   -9.7593 O   0  0  0  0  0  0  0  0  0  0  0  0
  2  1  1  6
  3  2  1  0
  3  4  1  0
  5  6  2  0
  5  2  1  0
  7  8  1  0
  9  8  1  1
  9 10  1  0
 10  5  1  0
 11 13  1  0
 11  9  1  0
 12 11  2  0
 14 13  1  0
 14 25  1  0
 14 15  1  1
 16 24  1  0
 16 15  1  0
 17 16  2  0
 18 17  1  0
 18 19  1  0
 19 24  2  0
 20 19  1  0
 20 21  2  0
 21 22  1  0
 22 23  2  0
 24 23  1  0
 25 27  1  0
 26 25  2  0
M  END
$$$$
