RLI.pdb
     RDKit          3D

 28 27  0  0  1  0  0  0  0  0999 V2000
   13.2477  -21.8715   20.0808 N   0  0  0  0  0  0  0  0  0  0  0  0
   12.4762  -22.9590   20.5498 C   0  0  0  0  0  0  0  0  0  0  0  0
   12.6613  -24.1760   20.1067 N   0  0  0  0  0  0  0  0  0  0  0  0
   11.4563  -22.8231   21.5217 N   0  0  0  0  0  0  0  0  0  0  0  0
   11.1121  -21.5399   22.0824 C   0  0  0  0  0  0  0  0  0  0  0  0
   11.2113  -20.4246   21.0877 C   0  0  0  0  0  0  0  0  0  0  0  0
   10.7688  -19.0878   21.5652 C   0  0  0  0  0  0  0  0  0  0  0  0
   10.8538  -17.9782   20.5536 C   0  0  2  0  0  0  0  0  0  0  0  0
   12.1829  -17.7668   20.0252 N   0  0  0  0  0  0  0  0  0  0  0  0
   10.3985  -16.7341   21.2331 C   0  0  0  0  0  0  0  0  0  0  0  0
   11.1876  -16.0736   21.9644 O   0  0  0  0  0  0  0  0  0  0  0  0
   12.0389  -24.9072   20.4990 C   0  0  0  0  0  0  0  0  0  0  0  0
    8.5905  -12.6649   20.0344 C   0  0  2  0  0  0  0  0  0  0  0  0
    7.7719  -13.9219   19.8643 C   0  0  0  0  0  0  0  0  0  0  0  0
    6.4205  -13.5102   19.2766 C   0  0  0  0  0  0  0  0  0  0  0  0
    7.4658  -14.4682   21.2391 C   0  0  2  0  0  0  0  0  0  0  0  0
    8.6466  -15.1041   21.8999 N   0  0  0  0  0  0  0  0  0  0  0  0
    9.0774  -16.2285   21.1009 C   0  0  0  0  0  0  0  0  0  0  0  0
    8.3956  -15.4832   23.3096 O   0  0  0  0  0  0  0  0  0  0  0  0
    8.3832  -16.7005   23.6214 C   0  0  0  0  0  0  0  0  0  0  0  0
    5.7948  -11.9321   27.0751 C   0  0  0  0  0  0  0  0  0  0  0  0
    6.3608  -12.8392   25.9946 C   0  0  2  0  0  0  0  0  0  0  0  0
    7.5792  -13.5793   26.4799 C   0  0  0  0  0  0  0  0  0  0  0  0
    8.7475  -12.6020   26.4167 C   0  0  1  0  0  0  0  0  0  0  0  0
    7.8513  -14.8086   25.6871 N   0  0  0  0  0  0  0  0  0  0  0  0
    8.1722  -14.4977   24.2973 C   0  0  0  0  0  0  0  0  0  0  0  0
    6.8375  -15.8740   25.7796 O   0  0  0  0  0  0  0  0  0  0  0  0
    6.6279  -16.7191   26.8482 O   0  0  0  0  0  0  0  0  0  0  0  0
  1  2  1  0
  2  3  2  0
  4  2  1  0
  4  5  1  0
  6  5  1  0
  7  6  1  0
  8  7  1  0
  8  9  1  1
 10  8  1  0
 10 11  2  0
 13 12  1  6
 13 15  1  0
 13 14  1  0
 16 15  1  6
 16 17  1  0
 17 10  1  0
 18 16  1  0
 19 18  2  0
 20 21  1  0
 21 22  1  0
 22 24  1  0
 22 23  1  1
 24 25  1  6
 24 26  1  0
 25 18  1  0
 26 27  1  0
 28 26  2  0
M  END
$$$$
