RLI.pdb
     RDKit          3D

 28 27  0  0  1  0  0  0  0  0999 V2000
   10.3688  -21.2050   17.3025 N   0  0  0  0  0  0  0  0  0  0  0  0
   11.7370  -20.8737   17.1749 C   0  0  0  0  0  0  0  0  0  0  0  0
   12.2860  -20.6535   16.0080 N   0  0  0  0  0  0  0  0  0  0  0  0
   12.6116  -20.7549   18.2814 N   0  0  0  0  0  0  0  0  0  0  0  0
   12.1453  -20.3033   19.5690 C   0  0  0  0  0  0  0  0  0  0  0  0
   10.9591  -19.3940   19.4722 C   0  0  0  0  0  0  0  0  0  0  0  0
   11.0777  -18.0945   20.1851 C   0  0  0  0  0  0  0  0  0  0  0  0
   10.2330  -17.9549   21.4216 C   0  0  2  0  0  0  0  0  0  0  0  0
    8.8957  -18.4862   21.2813 N   0  0  0  0  0  0  0  0  0  0  0  0
   10.1474  -16.5004   21.7281 C   0  0  0  0  0  0  0  0  0  0  0  0
   11.1934  -15.8184   21.9136 O   0  0  0  0  0  0  0  0  0  0  0  0
   13.2831  -20.3680   16.0161 C   0  0  0  0  0  0  0  0  0  0  0  0
    8.8171  -12.5859   19.7519 C   0  0  2  0  0  0  0  0  0  0  0  0
    7.7696  -13.6322   20.0470 C   0  0  0  0  0  0  0  0  0  0  0  0
    6.4197  -13.0640   19.6041 C   0  0  0  0  0  0  0  0  0  0  0  0
    7.6722  -13.7839   21.5469 C   0  0  2  0  0  0  0  0  0  0  0  0
    8.8872  -14.4036   22.1594 N   0  0  0  0  0  0  0  0  0  0  0  0
    8.9098  -15.8099   21.8276 C   0  0  0  0  0  0  0  0  0  0  0  0
    8.9911  -14.1716   23.6186 O   0  0  0  0  0  0  0  0  0  0  0  0
    9.0723  -12.9922   24.0449 C   0  0  0  0  0  0  0  0  0  0  0  0
    6.3571  -12.2348   26.2215 C   0  0  0  0  0  0  0  0  0  0  0  0
    7.6254  -12.9619   25.8053 C   0  0  2  0  0  0  0  0  0  0  0  0
    7.6685  -14.3586   26.3668 C   0  0  0  0  0  0  0  0  0  0  0  0
    7.5495  -14.2327   27.8814 C   0  0  2  0  0  0  0  0  0  0  0  0
    8.9024  -15.0916   25.9743 N   0  0  0  0  0  0  0  0  0  0  0  0
    8.9995  -15.2540   24.5268 C   0  0  0  0  0  0  0  0  0  0  0  0
    9.1484  -16.3638   26.6759 O   0  0  0  0  0  0  0  0  0  0  0  0
    9.8637  -16.5350   27.8418 O   0  0  0  0  0  0  0  0  0  0  0  0
  1  2  1  0
  2  3  2  0
  4  2  1  0
  4  5  1  0
  6  5  1  0
  7  6  1  0
  8  7  1  0
  8  9  1  6
 10  8  1  0
 10 11  2  0
 13 12  1  6
 13 15  1  0
 13 14  1  0
 16 15  1  6
 16 17  1  0
 17 10  1  0
 18 16  1  0
 19 18  2  0
 20 21  1  0
 21 22  1  0
 22 24  1  0
 22 23  1  6
 24 25  1  1
 24 26  1  0
 25 18  1  0
 26 27  1  0
 28 26  2  0
M  END
$$$$
