RLI.pdb
     RDKit          3D

 28 27  0  0  1  0  0  0  0  0999 V2000
   13.2817  -18.3338   15.8105 N   0  0  0  0  0  0  0  0  0  0  0  0
   12.1089  -19.0651   15.5144 C   0  0  0  0  0  0  0  0  0  0  0  0
   12.1513  -20.2023   14.8689 N   0  0  0  0  0  0  0  0  0  0  0  0
   10.8129  -18.6341   15.8857 N   0  0  0  0  0  0  0  0  0  0  0  0
   10.5734  -17.9398   17.1267 C   0  0  0  0  0  0  0  0  0  0  0  0
   11.0263  -18.7163   18.3247 C   0  0  0  0  0  0  0  0  0  0  0  0
   10.0168  -18.8955   19.4016 C   0  0  0  0  0  0  0  0  0  0  0  0
   10.4253  -18.3989   20.7611 C   0  0  2  0  0  0  0  0  0  0  0  0
    9.8079  -19.1129   21.8563 N   0  0  0  0  0  0  0  0  0  0  0  0
   10.0342  -16.9642   20.8358 C   0  0  0  0  0  0  0  0  0  0  0  0
   10.0968  -16.2253   19.8140 O   0  0  0  0  0  0  0  0  0  0  0  0
   11.2433  -20.6820   14.7235 C   0  0  0  0  0  0  0  0  0  0  0  0
    6.3727  -13.4457   19.9475 C   0  0  1  0  0  0  0  0  0  0  0  0
    7.6186  -13.3946   20.7984 C   0  0  0  0  0  0  0  0  0  0  0  0
    8.6612  -12.5778   20.0322 C   0  0  0  0  0  0  0  0  0  0  0  0
    8.1828  -14.7935   20.8830 C   0  0  2  0  0  0  0  0  0  0  0  0
    9.1255  -14.9834   22.0279 N   0  0  0  0  0  0  0  0  0  0  0  0
    9.5776  -16.3559   22.0356 C   0  0  0  0  0  0  0  0  0  0  0  0
    8.5534  -14.5756   23.3318 O   0  0  0  0  0  0  0  0  0  0  0  0
    7.9052  -13.5015   23.4050 C   0  0  0  0  0  0  0  0  0  0  0  0
    6.5133  -11.7998   25.3744 C   0  0  0  0  0  0  0  0  0  0  0  0
    7.6576  -12.7588   25.0891 C   0  0  2  0  0  0  0  0  0  0  0  0
    7.7178  -13.8633   26.1109 C   0  0  0  0  0  0  0  0  0  0  0  0
    7.8866  -13.2000   27.4731 C   0  0  2  0  0  0  0  0  0  0  0  0
    8.8116  -14.8337   25.8359 N   0  0  0  0  0  0  0  0  0  0  0  0
    8.7281  -15.3760   24.4831 C   0  0  0  0  0  0  0  0  0  0  0  0
    8.9923  -15.9028   26.8337 O   0  0  0  0  0  0  0  0  0  0  0  0
    9.4097  -15.7481   28.1383 O   0  0  0  0  0  0  0  0  0  0  0  0
  1  2  1  0
  2  3  2  0
  4  2  1  0
  4  5  1  0
  6  5  1  0
  7  6  1  0
  8  7  1  0
  8  9  1  1
 10  8  1  0
 10 11  2  0
 13 12  1  1
 13 15  1  0
 13 14  1  0
 16 15  1  6
 16 17  1  0
 17 10  1  0
 18 16  1  0
 19 18  2  0
 20 21  1  0
 21 22  1  0
 22 24  1  0
 22 23  1  6
 24 25  1  6
 24 26  1  0
 25 18  1  0
 26 27  1  0
 28 26  2  0
M  END
$$$$
