RLI.pdb
     RDKit          3D

 28 27  0  0  1  0  0  0  0  0999 V2000
    9.7290  -14.7419   16.5306 N   0  0  0  0  0  0  0  0  0  0  0  0
    8.7271  -13.9489   15.9263 C   0  0  0  0  0  0  0  0  0  0  0  0
    8.5331  -13.9529   14.6325 N   0  0  0  0  0  0  0  0  0  0  0  0
    7.8650  -13.0988   16.6595 N   0  0  0  0  0  0  0  0  0  0  0  0
    7.8504  -13.0979   18.1014 C   0  0  0  0  0  0  0  0  0  0  0  0
    7.5233  -14.4397   18.6809 C   0  0  0  0  0  0  0  0  0  0  0  0
    7.3927  -14.4931   20.1611 C   0  0  0  0  0  0  0  0  0  0  0  0
    8.1890  -15.5715   20.8428 C   0  0  2  0  0  0  0  0  0  0  0  0
    7.4456  -16.7888   21.0793 N   0  0  0  0  0  0  0  0  0  0  0  0
    8.6421  -15.0183   22.1487 C   0  0  0  0  0  0  0  0  0  0  0  0
    9.5821  -14.1772   22.2008 O   0  0  0  0  0  0  0  0  0  0  0  0
    7.8010  -13.3107   14.2759 C   0  0  0  0  0  0  0  0  0  0  0  0
    7.4723  -12.0294   25.1052 C   0  0  2  0  0  0  0  0  0  0  0  0
    6.5573  -13.2201   24.9503 C   0  0  0  0  0  0  0  0  0  0  0  0
    5.3903  -13.0281   25.9212 C   0  0  0  0  0  0  0  0  0  0  0  0
    7.2960  -14.4425   25.4424 C   0  0  2  0  0  0  0  0  0  0  0  0
    8.4959  -14.7812   24.6171 N   0  0  0  0  0  0  0  0  0  0  0  0
    8.0554  -15.3965   23.3860 C   0  0  0  0  0  0  0  0  0  0  0  0
    9.4854  -15.6160   25.3367 O   0  0  0  0  0  0  0  0  0  0  0  0
   10.1926  -16.4238   24.6837 C   0  0  0  0  0  0  0  0  0  0  0  0
   10.4165  -13.6258   30.1742 C   0  0  0  0  0  0  0  0  0  0  0  0
   10.9656  -14.2279   28.8910 C   0  0  2  0  0  0  0  0  0  0  0  0
   10.8041  -15.7250   28.8725 C   0  0  0  0  0  0  0  0  0  0  0  0
   12.0319  -16.3130   29.5587 C   0  0  2  0  0  0  0  0  0  0  0  0
   10.6379  -16.2622   27.4950 N   0  0  0  0  0  0  0  0  0  0  0  0
    9.6400  -15.5129   26.7375 C   0  0  0  0  0  0  0  0  0  0  0  0
   10.4127  -17.7147   27.3912 O   0  0  0  0  0  0  0  0  0  0  0  0
   11.3781  -18.6886   27.2509 O   0  0  0  0  0  0  0  0  0  0  0  0
  1  2  1  0
  2  3  2  0
  4  2  1  0
  4  5  1  0
  6  5  1  0
  7  6  1  0
  8  7  1  0
  8  9  1  1
 10  8  1  0
 10 11  2  0
 13 12  1  6
 13 15  1  0
 13 14  1  0
 16 15  1  6
 16 17  1  0
 17 10  1  0
 18 16  1  0
 19 18  2  0
 20 21  1  0
 21 22  1  0
 22 24  1  0
 22 23  1  6
 24 25  1  6
 24 26  1  0
 25 18  1  0
 26 27  1  0
 28 26  2  0
M  END
$$$$
