RLI.pdb
     RDKit          3D

 28 27  0  0  1  0  0  0  0  0999 V2000
   10.6830  -19.1038   26.8047 N   0  0  0  0  0  0  0  0  0  0  0  0
   11.1408  -20.3236   26.2565 C   0  0  0  0  0  0  0  0  0  0  0  0
   12.2893  -20.8459   26.6027 N   0  0  0  0  0  0  0  0  0  0  0  0
   10.4061  -21.0683   25.3031 N   0  0  0  0  0  0  0  0  0  0  0  0
    9.1664  -20.5786   24.7530 C   0  0  0  0  0  0  0  0  0  0  0  0
    9.2863  -20.1766   23.3152 C   0  0  0  0  0  0  0  0  0  0  0  0
    8.0302  -19.7239   22.6609 C   0  0  0  0  0  0  0  0  0  0  0  0
    8.1663  -19.2923   21.2267 C   0  0  2  0  0  0  0  0  0  0  0  0
    9.0363  -20.1376   20.4400 N   0  0  0  0  0  0  0  0  0  0  0  0
    8.7158  -17.9086   21.2390 C   0  0  0  0  0  0  0  0  0  0  0  0
    9.9561  -17.7068   21.1178 O   0  0  0  0  0  0  0  0  0  0  0  0
   12.5382  -21.7468   26.1532 C   0  0  0  0  0  0  0  0  0  0  0  0
    6.8436  -12.1022   20.6591 C   0  0  1  0  0  0  0  0  0  0  0  0
    8.0076  -13.0328   20.9003 C   0  0  0  0  0  0  0  0  0  0  0  0
    8.8888  -12.9947   19.6500 C   0  0  0  0  0  0  0  0  0  0  0  0
    7.4697  -14.4426   20.9735 C   0  0  2  0  0  0  0  0  0  0  0  0
    8.4872  -15.4419   21.4224 N   0  0  0  0  0  0  0  0  0  0  0  0
    7.8939  -16.7590   21.3847 C   0  0  0  0  0  0  0  0  0  0  0  0
    9.0709  -15.1291   22.7472 O   0  0  0  0  0  0  0  0  0  0  0  0
   10.1984  -14.5767   22.8025 C   0  0  0  0  0  0  0  0  0  0  0  0
    6.0757  -12.4182   25.8626 C   0  0  0  0  0  0  0  0  0  0  0  0
    7.2745  -13.0715   25.1942 C   0  0  2  0  0  0  0  0  0  0  0  0
    7.7653  -14.2574   25.9819 C   0  0  0  0  0  0  0  0  0  0  0  0
    8.2700  -13.7253   27.3184 C   0  0  2  0  0  0  0  0  0  0  0  0
    8.8213  -15.0202   25.2631 N   0  0  0  0  0  0  0  0  0  0  0  0
    8.3781  -15.4430   23.9380 C   0  0  0  0  0  0  0  0  0  0  0  0
    9.4318  -16.1358   26.0073 O   0  0  0  0  0  0  0  0  0  0  0  0
   10.5340  -16.0685   26.8324 O   0  0  0  0  0  0  0  0  0  0  0  0
  1  2  1  0
  2  3  2  0
  4  2  1  0
  4  5  1  0
  6  5  1  0
  7  6  1  0
  8  7  1  0
  8  9  1  6
 10  8  1  0
 10 11  2  0
 13 12  1  1
 13 15  1  0
 13 14  1  0
 16 15  1  6
 16 17  1  0
 17 10  1  0
 18 16  1  0
 19 18  2  0
 20 21  1  0
 21 22  1  0
 22 24  1  0
 22 23  1  6
 24 25  1  6
 24 26  1  0
 25 18  1  0
 26 27  1  0
 28 26  2  0
M  END
$$$$
