RLI.pdb
     RDKit          3D

 28 27  0  0  1  0  0  0  0  0999 V2000
    6.9341  -13.4191   18.3618 N   0  0  0  0  0  0  0  0  0  0  0  0
    7.9520  -13.7527   17.4395 C   0  0  0  0  0  0  0  0  0  0  0  0
    8.3466  -12.9137   16.5166 N   0  0  0  0  0  0  0  0  0  0  0  0
    8.6173  -15.0020   17.4386 N   0  0  0  0  0  0  0  0  0  0  0  0
    7.9700  -16.2039   17.9032 C   0  0  0  0  0  0  0  0  0  0  0  0
    7.9905  -16.3366   19.3949 C   0  0  0  0  0  0  0  0  0  0  0  0
    9.1945  -16.9911   19.9719 C   0  0  0  0  0  0  0  0  0  0  0  0
    9.0170  -17.5775   21.3453 C   0  0  2  0  0  0  0  0  0  0  0  0
    7.7583  -18.2640   21.5318 N   0  0  0  0  0  0  0  0  0  0  0  0
    9.1030  -16.4503   22.3142 C   0  0  0  0  0  0  0  0  0  0  0  0
   10.1171  -15.6988   22.3400 O   0  0  0  0  0  0  0  0  0  0  0  0
    9.0905  -13.2507   15.8773 C   0  0  0  0  0  0  0  0  0  0  0  0
    5.7197  -13.8127   26.7525 C   0  0  1  0  0  0  0  0  0  0  0  0
    6.9517  -13.7300   25.8842 C   0  0  0  0  0  0  0  0  0  0  0  0
    6.7830  -12.5169   24.9670 C   0  0  0  0  0  0  0  0  0  0  0  0
    6.9581  -14.9317   24.9687 C   0  0  2  0  0  0  0  0  0  0  0  0
    8.2222  -15.0704   24.1825 N   0  0  0  0  0  0  0  0  0  0  0  0
    8.0707  -16.1607   23.2463 C   0  0  0  0  0  0  0  0  0  0  0  0
    9.4261  -15.2252   25.0313 O   0  0  0  0  0  0  0  0  0  0  0  0
   10.4839  -14.6305   24.7047 C   0  0  0  0  0  0  0  0  0  0  0  0
   11.0407  -12.9286   28.7569 C   0  0  0  0  0  0  0  0  0  0  0  0
   11.0291  -13.9373   27.6197 C   0  0  2  0  0  0  0  0  0  0  0  0
   10.7237  -15.3251   28.1181 C   0  0  0  0  0  0  0  0  0  0  0  0
   11.8532  -15.7162   29.0642 C   0  0  2  0  0  0  0  0  0  0  0  0
   10.5736  -16.3071   27.0104 N   0  0  0  0  0  0  0  0  0  0  0  0
    9.3961  -16.0277   26.1939 C   0  0  0  0  0  0  0  0  0  0  0  0
   10.6369  -17.7282   27.3944 O   0  0  0  0  0  0  0  0  0  0  0  0
   11.7740  -18.4986   27.5113 O   0  0  0  0  0  0  0  0  0  0  0  0
  1  2  1  0
  2  3  2  0
  4  2  1  0
  4  5  1  0
  6  5  1  0
  7  6  1  0
  8  7  1  0
  8  9  1  6
 10  8  1  0
 10 11  2  0
 13 12  1  1
 13 15  1  0
 13 14  1  0
 16 15  1  6
 16 17  1  0
 17 10  1  0
 18 16  1  0
 19 18  2  0
 20 21  1  0
 21 22  1  0
 22 24  1  0
 22 23  1  1
 24 25  1  6
 24 26  1  0
 25 18  1  0
 26 27  1  0
 28 26  2  0
M  END
$$$$
