RLI.pdb
     RDKit          3D

 28 27  0  0  1  0  0  0  0  0999 V2000
    2.5526  -20.3549   21.1265 N   0  0  0  0  0  0  0  0  0  0  0  0
    2.9056  -21.5394   21.8122 C   0  0  0  0  0  0  0  0  0  0  0  0
    2.2738  -22.6669   21.6089 N   0  0  0  0  0  0  0  0  0  0  0  0
    3.9548  -21.6022   22.7601 N   0  0  0  0  0  0  0  0  0  0  0  0
    4.7476  -20.4434   23.0887 C   0  0  0  0  0  0  0  0  0  0  0  0
    5.4737  -19.8806   21.9058 C   0  0  0  0  0  0  0  0  0  0  0  0
    6.4108  -18.7621   22.1914 C   0  0  0  0  0  0  0  0  0  0  0  0
    7.1235  -18.1931   20.9955 C   0  0  2  0  0  0  0  0  0  0  0  0
    7.9051  -19.1634   20.2621 N   0  0  0  0  0  0  0  0  0  0  0  0
    8.0272  -17.1212   21.4968 C   0  0  0  0  0  0  0  0  0  0  0  0
    9.2212  -17.3812   21.8137 O   0  0  0  0  0  0  0  0  0  0  0  0
    2.5572  -23.4663   22.2059 C   0  0  0  0  0  0  0  0  0  0  0  0
    9.1110  -13.1891   19.4702 C   0  0  2  0  0  0  0  0  0  0  0  0
    7.7732  -13.2961   20.1614 C   0  0  0  0  0  0  0  0  0  0  0  0
    7.0554  -11.9576   19.9757 C   0  0  0  0  0  0  0  0  0  0  0  0
    8.0242  -13.4181   21.6461 C   0  0  2  0  0  0  0  0  0  0  0  0
    8.5533  -14.7572   22.0490 N   0  0  0  0  0  0  0  0  0  0  0  0
    7.6074  -15.7721   21.6447 C   0  0  0  0  0  0  0  0  0  0  0  0
    8.8875  -14.8461   23.4892 O   0  0  0  0  0  0  0  0  0  0  0  0
    9.9030  -14.2431   23.9186 C   0  0  0  0  0  0  0  0  0  0  0  0
    6.5954  -12.3744   27.1016 C   0  0  0  0  0  0  0  0  0  0  0  0
    6.7612  -13.6215   26.2484 C   0  0  2  0  0  0  0  0  0  0  0  0
    8.1487  -14.1933   26.3733 C   0  0  0  0  0  0  0  0  0  0  0  0
    9.0904  -13.2367   25.6508 C   0  0  1  0  0  0  0  0  0  0  0  0
    8.2464  -15.5737   25.8266 N   0  0  0  0  0  0  0  0  0  0  0  0
    8.0823  -15.5954   24.3762 C   0  0  0  0  0  0  0  0  0  0  0  0
    7.3995  -16.5878   26.4789 O   0  0  0  0  0  0  0  0  0  0  0  0
    7.5051  -17.0349   27.7786 O   0  0  0  0  0  0  0  0  0  0  0  0
  1  2  1  0
  2  3  2  0
  4  2  1  0
  4  5  1  0
  6  5  1  0
  7  6  1  0
  8  7  1  0
  8  9  1  1
 10  8  1  0
 10 11  2  0
 13 12  1  6
 13 15  1  0
 13 14  1  0
 16 15  1  6
 16 17  1  0
 17 10  1  0
 18 16  1  0
 19 18  2  0
 20 21  1  0
 21 22  1  0
 22 24  1  0
 22 23  1  1
 24 25  1  6
 24 26  1  0
 25 18  1  0
 26 27  1  0
 28 26  2  0
M  END
$$$$
