SLW.pdb
     RDKit          3D

 29 30  0  0  1  0  0  0  0  0999 V2000
   10.7115  -19.6345   18.7560 O   0  0  0  0  0  0  0  0  0  0  0  0
    9.6709  -19.1912   17.9487 C   0  0  0  0  0  0  0  0  0  0  0  0
    9.9803  -17.7805   17.4917 C   0  0  2  0  0  0  0  0  0  0  0  0
   11.1941  -17.8395   16.7009 N   0  0  0  0  0  0  0  0  0  0  0  0
   10.1729  -16.8491   18.6139 C   0  0  0  0  0  0  0  0  0  0  0  0
   11.3408  -16.5606   18.9787 O   0  0  0  0  0  0  0  0  0  0  0  0
    8.8659  -12.3866   19.8249 C   0  0  0  0  0  0  0  0  0  0  0  0
    7.8161  -13.4224   19.5770 C   0  0  2  0  0  0  0  0  0  0  0  0
    6.4358  -12.8135   19.7301 C   0  0  0  0  0  0  0  0  0  0  0  0
    7.9156  -14.5626   20.5309 C   0  0  0  0  0  0  0  0  0  0  0  0
    9.2014  -15.3564   20.4247 C   0  0  2  0  0  0  0  0  0  0  0  0
    9.0780  -16.2719   19.2907 N   0  0  0  0  0  0  0  0  0  0  0  0
    9.3353  -16.1047   21.6861 C   0  0  0  0  0  0  0  0  0  0  0  0
    8.7812  -17.2063   21.8111 O   0  0  0  0  0  0  0  0  0  0  0  0
   10.0916  -15.5607   22.7372 N   0  0  0  0  0  0  0  0  0  0  0  0
   10.1804  -16.1483   24.0793 C   0  0  1  0  0  0  0  0  0  0  0  0
   11.2884  -15.5389   24.8514 C   0  0  0  0  0  0  0  0  0  0  0  0
   11.1946  -15.7991   26.2895 C   0  0  0  0  0  0  0  0  0  0  0  0
   11.5556  -17.0376   26.8397 C   0  0  0  0  0  0  0  0  0  0  0  0
   11.3208  -16.9582   28.1497 N   0  0  0  0  0  0  0  0  0  0  0  0
   10.8361  -15.7509   28.4624 C   0  0  0  0  0  0  0  0  0  0  0  0
   10.4739  -15.2425   29.7018 C   0  0  0  0  0  0  0  0  0  0  0  0
   10.0162  -13.9494   29.7586 C   0  0  0  0  0  0  0  0  0  0  0  0
    9.9279  -13.1919   28.5914 C   0  0  0  0  0  0  0  0  0  0  0  0
   10.2914  -13.7105   27.3617 C   0  0  0  0  0  0  0  0  0  0  0  0
   10.7461  -14.9994   27.3104 C   0  0  0  0  0  0  0  0  0  0  0  0
    8.8614  -16.2024   24.6643 C   0  0  0  0  0  0  0  0  0  0  0  0
    8.3809  -17.1210   25.5874 O   0  0  0  0  0  0  0  0  0  0  0  0
    7.9986  -15.3211   24.3154 O   0  0  0  0  0  0  0  0  0  0  0  0
  1  2  1  0
  2  3  1  0
  3  5  1  0
  3  4  1  1
  5  6  2  0
  8 10  1  0
  8  7  1  1
  9  8  1  0
 11 10  1  1
 11 13  1  0
 12  5  1  0
 12 11  1  0
 13 14  2  0
 15 13  1  0
 15 16  1  0
 16 27  1  0
 16 17  1  1
 18 19  2  0
 18 17  1  0
 20 19  1  0
 21 26  2  0
 21 20  1  0
 22 21  1  0
 23 24  1  0
 23 22  2  0
 24 25  2  0
 25 26  1  0
 26 18  1  0
 27 28  1  0
 29 27  2  0
M  END
$$$$
