SLW.pdb
     RDKit          3D

 29 30  0  0  1  0  0  0  0  0999 V2000
    5.9610  -18.7936   23.9887 O   0  0  0  0  0  0  0  0  0  0  0  0
    6.1431  -19.8256   23.0761 C   0  0  0  0  0  0  0  0  0  0  0  0
    6.1455  -19.2410   21.6787 C   0  0  2  0  0  0  0  0  0  0  0  0
    6.3887  -20.3319   20.7550 N   0  0  0  0  0  0  0  0  0  0  0  0
    7.1765  -18.2076   21.4968 C   0  0  0  0  0  0  0  0  0  0  0  0
    8.3870  -18.5457   21.4719 O   0  0  0  0  0  0  0  0  0  0  0  0
    7.2743  -12.1361   20.1384 C   0  0  0  0  0  0  0  0  0  0  0  0
    8.0187  -13.3481   20.6002 C   0  0  2  0  0  0  0  0  0  0  0  0
    9.0272  -13.7727   19.5503 C   0  0  0  0  0  0  0  0  0  0  0  0
    7.1116  -14.5036   20.8491 C   0  0  0  0  0  0  0  0  0  0  0  0
    7.8115  -15.7533   21.3421 C   0  0  2  0  0  0  0  0  0  0  0  0
    6.8391  -16.8458   21.3497 N   0  0  0  0  0  0  0  0  0  0  0  0
    8.2762  -15.4599   22.7084 C   0  0  0  0  0  0  0  0  0  0  0  0
    7.6882  -14.6077   23.3898 O   0  0  0  0  0  0  0  0  0  0  0  0
    9.3838  -16.1508   23.2266 N   0  0  0  0  0  0  0  0  0  0  0  0
   10.0727  -15.7893   24.4712 C   0  0  1  0  0  0  0  0  0  0  0  0
    9.2685  -16.1779   25.6533 C   0  0  0  0  0  0  0  0  0  0  0  0
    8.1037  -15.3150   25.8618 C   0  0  0  0  0  0  0  0  0  0  0  0
    6.7947  -15.8136   25.7913 C   0  0  0  0  0  0  0  0  0  0  0  0
    5.9788  -14.7780   25.9895 N   0  0  0  0  0  0  0  0  0  0  0  0
    6.6869  -13.6589   26.1811 C   0  0  0  0  0  0  0  0  0  0  0  0
    6.2419  -12.3692   26.4352 C   0  0  0  0  0  0  0  0  0  0  0  0
    7.1838  -11.3869   26.6155 C   0  0  0  0  0  0  0  0  0  0  0  0
    8.5398  -11.7026   26.5406 C   0  0  0  0  0  0  0  0  0  0  0  0
    8.9707  -12.9921   26.2860 C   0  0  0  0  0  0  0  0  0  0  0  0
    8.0282  -13.9670   26.1064 C   0  0  0  0  0  0  0  0  0  0  0  0
   11.4527  -16.2065   24.3908 C   0  0  0  0  0  0  0  0  0  0  0  0
   12.4768  -15.9237   25.2841 O   0  0  0  0  0  0  0  0  0  0  0  0
   11.8212  -16.9191   23.3912 O   0  0  0  0  0  0  0  0  0  0  0  0
  1  2  1  0
  2  3  1  0
  3  5  1  0
  3  4  1  6
  5  6  2  0
  8 10  1  0
  8  7  1  6
  9  8  1  0
 11 10  1  1
 11 13  1  0
 12  5  1  0
 12 11  1  0
 13 14  2  0
 15 13  1  0
 15 16  1  0
 16 27  1  0
 16 17  1  1
 18 19  2  0
 18 17  1  0
 20 19  1  0
 21 26  2  0
 21 20  1  0
 22 21  1  0
 23 24  1  0
 23 22  2  0
 24 25  2  0
 25 26  1  0
 26 18  1  0
 27 28  1  0
 29 27  2  0
M  END
$$$$
