SLW.pdb
     RDKit          3D

 29 30  0  0  1  0  0  0  0  0999 V2000
    8.2767  -19.4338   18.2073 O   0  0  0  0  0  0  0  0  0  0  0  0
    9.2015  -20.1424   18.9647 C   0  0  0  0  0  0  0  0  0  0  0  0
    9.1870  -19.5992   20.3786 C   0  0  2  0  0  0  0  0  0  0  0  0
    7.8752  -19.8724   20.9324 N   0  0  0  0  0  0  0  0  0  0  0  0
    9.4494  -18.1527   20.4342 C   0  0  0  0  0  0  0  0  0  0  0  0
   10.5166  -17.7031   19.9452 O   0  0  0  0  0  0  0  0  0  0  0  0
    6.1773  -12.9789   21.0737 C   0  0  0  0  0  0  0  0  0  0  0  0
    7.5246  -13.6276   21.0938 C   0  0  2  0  0  0  0  0  0  0  0  0
    8.3144  -13.2286   19.8624 C   0  0  0  0  0  0  0  0  0  0  0  0
    7.4320  -15.1145   21.1095 C   0  0  0  0  0  0  0  0  0  0  0  0
    8.7685  -15.8237   21.1842 C   0  0  2  0  0  0  0  0  0  0  0  0
    8.5316  -17.2580   21.0234 N   0  0  0  0  0  0  0  0  0  0  0  0
    9.3209  -15.5332   22.5182 C   0  0  0  0  0  0  0  0  0  0  0  0
    9.8315  -14.4271   22.7464 O   0  0  0  0  0  0  0  0  0  0  0  0
    9.2632  -16.5152   23.5206 N   0  0  0  0  0  0  0  0  0  0  0  0
    9.9476  -16.4135   24.8151 C   0  0  1  0  0  0  0  0  0  0  0  0
    8.9849  -16.5409   25.9340 C   0  0  0  0  0  0  0  0  0  0  0  0
    7.9269  -15.5289   25.8967 C   0  0  0  0  0  0  0  0  0  0  0  0
    6.6140  -15.8485   25.5210 C   0  0  0  0  0  0  0  0  0  0  0  0
    5.9177  -14.7121   25.5564 N   0  0  0  0  0  0  0  0  0  0  0  0
    6.7047  -13.6967   25.9304 C   0  0  0  0  0  0  0  0  0  0  0  0
    6.3872  -12.3577   26.1100 C   0  0  0  0  0  0  0  0  0  0  0  0
    7.3845  -11.5091   26.5221 C   0  0  0  0  0  0  0  0  0  0  0  0
    8.6688  -12.0036   26.7463 C   0  0  0  0  0  0  0  0  0  0  0  0
    8.9728  -13.3405   26.5630 C   0  0  0  0  0  0  0  0  0  0  0  0
    7.9758  -14.1816   26.1517 C   0  0  0  0  0  0  0  0  0  0  0  0
   11.1236  -17.2511   24.7996 C   0  0  0  0  0  0  0  0  0  0  0  0
   12.1505  -17.2873   25.7329 O   0  0  0  0  0  0  0  0  0  0  0  0
   11.2817  -18.0694   23.8258 O   0  0  0  0  0  0  0  0  0  0  0  0
  1  2  1  0
  2  3  1  0
  3  5  1  0
  3  4  1  6
  5  6  2  0
  8 10  1  0
  8  7  1  6
  9  8  1  0
 11 10  1  1
 11 13  1  0
 12  5  1  0
 12 11  1  0
 13 14  2  0
 15 13  1  0
 15 16  1  0
 16 27  1  0
 16 17  1  1
 18 19  2  0
 18 17  1  0
 20 19  1  0
 21 26  2  0
 21 20  1  0
 22 21  1  0
 23 24  1  0
 23 22  2  0
 24 25  2  0
 25 26  1  0
 26 18  1  0
 27 28  1  0
 29 27  2  0
M  END
$$$$
