SLW.pdb
     RDKit          3D

 29 30  0  0  1  0  0  0  0  0999 V2000
    8.7741  -20.0599   22.5125 O   0  0  0  0  0  0  0  0  0  0  0  0
    9.1882  -20.6292   21.3143 C   0  0  0  0  0  0  0  0  0  0  0  0
    8.8064  -19.7008   20.1799 C   0  0  2  0  0  0  0  0  0  0  0  0
    9.3209  -20.2818   18.9552 N   0  0  0  0  0  0  0  0  0  0  0  0
    9.3543  -18.3457   20.3459 C   0  0  0  0  0  0  0  0  0  0  0  0
   10.5661  -18.1372   20.0843 O   0  0  0  0  0  0  0  0  0  0  0  0
    6.9355  -12.7166   21.4736 C   0  0  0  0  0  0  0  0  0  0  0  0
    8.1542  -13.5545   21.2512 C   0  0  2  0  0  0  0  0  0  0  0  0
    8.8194  -13.1713   19.9435 C   0  0  0  0  0  0  0  0  0  0  0  0
    7.8325  -15.0078   21.1861 C   0  0  0  0  0  0  0  0  0  0  0  0
    9.0340  -15.9053   20.9723 C   0  0  2  0  0  0  0  0  0  0  0  0
    8.5521  -17.2744   20.7916 N   0  0  0  0  0  0  0  0  0  0  0  0
    9.8562  -15.7988   22.1895 C   0  0  0  0  0  0  0  0  0  0  0  0
   10.8275  -15.0292   22.2118 O   0  0  0  0  0  0  0  0  0  0  0  0
    9.5301  -16.5723   23.3155 N   0  0  0  0  0  0  0  0  0  0  0  0
   10.1755  -16.4335   24.6264 C   0  0  1  0  0  0  0  0  0  0  0  0
    9.9515  -15.0800   25.1858 C   0  0  0  0  0  0  0  0  0  0  0  0
    8.5473  -14.8202   25.5104 C   0  0  0  0  0  0  0  0  0  0  0  0
    7.5709  -15.8225   25.4152 C   0  0  0  0  0  0  0  0  0  0  0  0
    6.4082  -15.2572   25.7404 N   0  0  0  0  0  0  0  0  0  0  0  0
    6.5867  -13.9643   26.0352 C   0  0  0  0  0  0  0  0  0  0  0  0
    5.6551  -13.0165   26.4351 C   0  0  0  0  0  0  0  0  0  0  0  0
    6.1021  -11.7456   26.6991 C   0  0  0  0  0  0  0  0  0  0  0  0
    7.4562  -11.4430   26.5616 C   0  0  0  0  0  0  0  0  0  0  0  0
    8.3749  -12.3966   26.1615 C   0  0  0  0  0  0  0  0  0  0  0  0
    7.9243  -13.6611   25.8991 C   0  0  0  0  0  0  0  0  0  0  0  0
    9.8663  -17.5893   25.4349 C   0  0  0  0  0  0  0  0  0  0  0  0
    9.0271  -18.6475   25.1144 O   0  0  0  0  0  0  0  0  0  0  0  0
   10.4037  -17.6889   26.5942 O   0  0  0  0  0  0  0  0  0  0  0  0
  1  2  1  0
  2  3  1  0
  3  5  1  0
  3  4  1  6
  5  6  2  0
  8 10  1  0
  8  7  1  6
  9  8  1  0
 11 10  1  1
 11 13  1  0
 12  5  1  0
 12 11  1  0
 13 14  2  0
 15 13  1  0
 15 16  1  0
 16 27  1  0
 16 17  1  1
 18 19  2  0
 18 17  1  0
 20 19  1  0
 21 26  2  0
 21 20  1  0
 22 21  1  0
 23 24  1  0
 23 22  2  0
 24 25  2  0
 25 26  1  0
 26 18  1  0
 27 28  1  0
 29 27  2  0
M  END
$$$$
