SLW.pdb
     RDKit          3D

 29 30  0  0  1  0  0  0  0  0999 V2000
   10.1929  -19.7449   19.8667 O   0  0  0  0  0  0  0  0  0  0  0  0
   10.8153  -19.5326   18.6425 C   0  0  0  0  0  0  0  0  0  0  0  0
   10.3022  -18.2329   18.0576 C   0  0  2  0  0  0  0  0  0  0  0  0
   10.9373  -18.0607   16.7656 N   0  0  0  0  0  0  0  0  0  0  0  0
   10.6009  -17.0702   18.9080 C   0  0  0  0  0  0  0  0  0  0  0  0
   11.7513  -16.5646   18.8746 O   0  0  0  0  0  0  0  0  0  0  0  0
    8.2587  -12.9516   19.5773 C   0  0  0  0  0  0  0  0  0  0  0  0
    7.6630  -14.2245   20.0884 C   0  0  2  0  0  0  0  0  0  0  0  0
    6.3057  -13.9537   20.7078 C   0  0  0  0  0  0  0  0  0  0  0  0
    8.5152  -14.8655   21.1290 C   0  0  0  0  0  0  0  0  0  0  0  0
    9.8581  -15.3523   20.6249 C   0  0  2  0  0  0  0  0  0  0  0  0
    9.6268  -16.5090   19.7601 N   0  0  0  0  0  0  0  0  0  0  0  0
   10.6355  -15.7385   21.8146 C   0  0  0  0  0  0  0  0  0  0  0  0
   11.5190  -16.6025   21.7199 O   0  0  0  0  0  0  0  0  0  0  0  0
   10.3669  -15.1218   23.0476 N   0  0  0  0  0  0  0  0  0  0  0  0
    9.5453  -15.7196   24.1069 C   0  0  1  0  0  0  0  0  0  0  0  0
    8.1024  -15.5406   23.8221 C   0  0  0  0  0  0  0  0  0  0  0  0
    7.3615  -14.9774   24.9528 C   0  0  0  0  0  0  0  0  0  0  0  0
    6.4301  -15.7369   25.6757 C   0  0  0  0  0  0  0  0  0  0  0  0
    5.9136  -14.9296   26.6024 N   0  0  0  0  0  0  0  0  0  0  0  0
    6.4583  -13.7107   26.5123 C   0  0  0  0  0  0  0  0  0  0  0  0
    6.2221  -12.5824   27.2850 C   0  0  0  0  0  0  0  0  0  0  0  0
    6.9343  -11.4445   26.9976 C   0  0  0  0  0  0  0  0  0  0  0  0
    7.8607  -11.4495   25.9556 C   0  0  0  0  0  0  0  0  0  0  0  0
    8.0866  -12.5806   25.1921 C   0  0  0  0  0  0  0  0  0  0  0  0
    7.3740  -13.7115   25.4821 C   0  0  0  0  0  0  0  0  0  0  0  0
   10.0445  -17.0403   24.4094 C   0  0  0  0  0  0  0  0  0  0  0  0
   10.3966  -17.5490   25.6520 O   0  0  0  0  0  0  0  0  0  0  0  0
   10.2013  -17.8724   23.4472 O   0  0  0  0  0  0  0  0  0  0  0  0
  1  2  1  0
  2  3  1  0
  3  5  1  0
  3  4  1  6
  5  6  2  0
  8 10  1  0
  8  7  1  1
  9  8  1  0
 11 10  1  1
 11 13  1  0
 12  5  1  0
 12 11  1  0
 13 14  2  0
 15 13  1  0
 15 16  1  0
 16 27  1  0
 16 17  1  6
 18 19  2  0
 18 17  1  0
 20 19  1  0
 21 26  2  0
 21 20  1  0
 22 21  1  0
 23 24  1  0
 23 22  2  0
 24 25  2  0
 25 26  1  0
 26 18  1  0
 27 28  1  0
 29 27  2  0
M  END
$$$$
