SLW.pdb
     RDKit          3D

 29 30  0  0  1  0  0  0  0  0999 V2000
    8.6282  -19.6085   22.1721 O   0  0  0  0  0  0  0  0  0  0  0  0
    7.8205  -19.9734   21.1018 C   0  0  0  0  0  0  0  0  0  0  0  0
    8.0012  -18.9592   19.9913 C   0  0  2  0  0  0  0  0  0  0  0  0
    8.6023  -19.6517   18.8681 N   0  0  0  0  0  0  0  0  0  0  0  0
    8.8590  -17.8313   20.3860 C   0  0  0  0  0  0  0  0  0  0  0  0
   10.0984  -17.9042   20.1887 O   0  0  0  0  0  0  0  0  0  0  0  0
    8.7796  -13.1315   19.2795 C   0  0  0  0  0  0  0  0  0  0  0  0
    7.6616  -13.7516   20.0554 C   0  0  2  0  0  0  0  0  0  0  0  0
    6.5881  -12.7191   20.3396 C   0  0  0  0  0  0  0  0  0  0  0  0
    8.1209  -14.2981   21.3633 C   0  0  0  0  0  0  0  0  0  0  0  0
    9.0925  -15.4548   21.2512 C   0  0  2  0  0  0  0  0  0  0  0  0
    8.3239  -16.6694   20.9807 N   0  0  0  0  0  0  0  0  0  0  0  0
    9.7784  -15.5510   22.5509 C   0  0  0  0  0  0  0  0  0  0  0  0
   10.7176  -14.7849   22.8104 O   0  0  0  0  0  0  0  0  0  0  0  0
    9.3599  -16.5123   23.4855 N   0  0  0  0  0  0  0  0  0  0  0  0
    9.9250  -16.6533   24.8328 C   0  0  1  0  0  0  0  0  0  0  0  0
    9.7888  -15.3922   25.5984 C   0  0  0  0  0  0  0  0  0  0  0  0
    8.4086  -14.9064   25.6600 C   0  0  0  0  0  0  0  0  0  0  0  0
    7.3206  -15.7354   25.3500 C   0  0  0  0  0  0  0  0  0  0  0  0
    6.2231  -14.9877   25.4676 N   0  0  0  0  0  0  0  0  0  0  0  0
    6.5469  -13.7416   25.8320 C   0  0  0  0  0  0  0  0  0  0  0  0
    5.7203  -12.6545   26.0788 C   0  0  0  0  0  0  0  0  0  0  0  0
    6.3064  -11.4740   26.4629 C   0  0  0  0  0  0  0  0  0  0  0  0
    7.6924  -11.3969   26.5935 C   0  0  0  0  0  0  0  0  0  0  0  0
    8.5057  -12.4876   26.3439 C   0  0  0  0  0  0  0  0  0  0  0  0
    7.9168  -13.6612   25.9609 C   0  0  0  0  0  0  0  0  0  0  0  0
    9.4568  -17.8869   25.4194 C   0  0  0  0  0  0  0  0  0  0  0  0
    8.5269  -18.7747   24.8959 O   0  0  0  0  0  0  0  0  0  0  0  0
    9.9241  -18.2407   26.5592 O   0  0  0  0  0  0  0  0  0  0  0  0
  1  2  1  0
  2  3  1  0
  3  5  1  0
  3  4  1  6
  5  6  2  0
  8 10  1  0
  8  7  1  1
  9  8  1  0
 11 10  1  1
 11 13  1  0
 12  5  1  0
 12 11  1  0
 13 14  2  0
 15 13  1  0
 15 16  1  0
 16 27  1  0
 16 17  1  1
 18 19  2  0
 18 17  1  0
 20 19  1  0
 21 26  2  0
 21 20  1  0
 22 21  1  0
 23 24  1  0
 23 22  2  0
 24 25  2  0
 25 26  1  0
 26 18  1  0
 27 28  1  0
 29 27  2  0
M  END
$$$$
