SHT.pdb
     RDKit          3D

 24 24  0  0  1  0  0  0  0  0999 V2000
   23.1983  -21.1923   -7.9834 O   0  0  0  0  0  0  0  0  0  0  0  0
   23.5917  -20.6468   -9.2119 C   0  0  0  0  0  0  0  0  0  0  0  0
   25.0746  -20.9088   -9.3773 C   0  0  2  0  0  0  0  0  0  0  0  0
   25.8224  -20.1497   -8.3973 N   0  0  0  0  0  0  0  0  0  0  0  0
   25.5428  -20.5165  -10.7238 C   0  0  0  0  0  0  0  0  0  0  0  0
   26.0877  -19.4011  -10.8829 O   0  0  0  0  0  0  0  0  0  0  0  0
   25.3973  -21.3676  -11.8644 N   0  0  0  0  0  0  0  0  0  0  0  0
   25.8503  -20.9691  -13.1835 C   0  0  1  0  0  0  0  0  0  0  0  0
   27.1335  -21.6843  -13.4574 C   0  0  0  0  0  0  0  0  0  0  0  0
   28.2379  -21.1094  -12.6454 C   0  0  0  0  0  0  0  0  0  0  0  0
   28.9387  -19.9562  -12.8047 C   0  0  0  0  0  0  0  0  0  0  0  0
   29.8294  -19.9002  -11.8011 N   0  0  0  0  0  0  0  0  0  0  0  0
   29.6908  -20.9918  -11.0306 C   0  0  0  0  0  0  0  0  0  0  0  0
   28.7200  -21.7215  -11.5523 N   0  0  0  0  0  0  0  0  0  0  0  0
   24.7925  -21.1665  -14.1546 C   0  0  0  0  0  0  0  0  0  0  0  0
   24.1284  -22.2395  -14.1375 O   0  0  0  0  0  0  0  0  0  0  0  0
   22.4051  -18.6958  -13.8117 C   0  0  0  0  0  0  0  0  0  0  0  0
   22.0525  -19.9432  -14.5953 C   0  0  1  0  0  0  0  0  0  0  0  0
   20.8149  -19.8307  -15.1826 O   0  0  0  0  0  0  0  0  0  0  0  0
   23.0705  -20.1805  -15.6895 C   0  0  2  0  0  0  0  0  0  0  0  0
   24.4193  -20.2335  -15.1593 N   0  0  0  0  0  0  0  0  0  0  0  0
   23.0108  -19.1533  -16.7407 C   0  0  0  0  0  0  0  0  0  0  0  0
   23.9407  -18.3379  -16.8723 O   0  0  0  0  0  0  0  0  0  0  0  0
   21.9226  -19.0935  -17.5819 O   0  0  0  0  0  0  0  0  0  0  0  0
  2  1  1  0
  3  2  1  0
  3  5  1  0
  3  4  1  1
  5  6  2  0
  5  7  1  0
  7  8  1  0
  8 15  1  0
  8  9  1  6
 10  9  1  0
 11 10  2  0
 12 11  1  0
 13 12  1  0
 13 14  2  0
 14 10  1  0
 15 16  2  0
 15 21  1  0
 18 17  1  6
 18 19  1  0
 20 22  1  0
 20 18  1  0
 20 21  1  1
 22 24  1  0
 23 22  2  0
M  END
$$$$
