SHT.pdb
     RDKit          3D

 24 24  0  0  1  0  0  0  0  0999 V2000
   27.7259   -9.6554  -19.2714 O   0  0  0  0  0  0  0  0  0  0  0  0
   26.3319   -9.5871  -19.1552 C   0  0  0  0  0  0  0  0  0  0  0  0
   25.8963  -10.6792  -18.1999 C   0  0  2  0  0  0  0  0  0  0  0  0
   25.8961  -11.9579  -18.8786 N   0  0  0  0  0  0  0  0  0  0  0  0
   24.5342  -10.4286  -17.6822 C   0  0  0  0  0  0  0  0  0  0  0  0
   23.5450  -10.7989  -18.3536 O   0  0  0  0  0  0  0  0  0  0  0  0
   24.2972   -9.7735  -16.4327 N   0  0  0  0  0  0  0  0  0  0  0  0
   22.9574   -9.4773  -15.9621 C   0  0  1  0  0  0  0  0  0  0  0  0
   22.8436   -9.9930  -14.5641 C   0  0  0  0  0  0  0  0  0  0  0  0
   22.4846  -11.4354  -14.5650 C   0  0  0  0  0  0  0  0  0  0  0  0
   22.2108  -12.2732  -15.5993 C   0  0  0  0  0  0  0  0  0  0  0  0
   21.9450  -13.4766  -15.0654 N   0  0  0  0  0  0  0  0  0  0  0  0
   22.0495  -13.3959  -13.7287 C   0  0  0  0  0  0  0  0  0  0  0  0
   22.3781  -12.1501  -13.4337 N   0  0  0  0  0  0  0  0  0  0  0  0
   22.6642   -8.0698  -16.1465 C   0  0  0  0  0  0  0  0  0  0  0  0
   23.4787   -7.2062  -15.7183 O   0  0  0  0  0  0  0  0  0  0  0  0
   22.2480   -6.0329  -19.3166 C   0  0  0  0  0  0  0  0  0  0  0  0
   21.0146   -5.8319  -18.4606 C   0  0  1  0  0  0  0  0  0  0  0  0
   19.9926   -6.6621  -18.8548 O   0  0  0  0  0  0  0  0  0  0  0  0
   21.3280   -6.1304  -17.0107 C   0  0  2  0  0  0  0  0  0  0  0  0
   21.5057   -7.5522  -16.7862 N   0  0  0  0  0  0  0  0  0  0  0  0
   20.2873   -5.6299  -16.0995 C   0  0  0  0  0  0  0  0  0  0  0  0
   19.5616   -6.4275  -15.4798 O   0  0  0  0  0  0  0  0  0  0  0  0
   20.1154   -4.2742  -15.9314 O   0  0  0  0  0  0  0  0  0  0  0  0
  2  1  1  0
  3  2  1  0
  3  5  1  0
  3  4  1  6
  5  6  2  0
  5  7  1  0
  7  8  1  0
  8 15  1  0
  8  9  1  1
 10  9  1  0
 11 10  2  0
 12 11  1  0
 13 12  1  0
 13 14  2  0
 14 10  1  0
 15 16  2  0
 15 21  1  0
 18 17  1  6
 18 19  1  0
 20 22  1  0
 20 18  1  0
 20 21  1  6
 22 24  1  0
 23 22  2  0
M  END
$$$$
