SHT.pdb
     RDKit          3D

 24 24  0  0  1  0  0  0  0  0999 V2000
   17.7887  -11.8612  -14.9153 O   0  0  0  0  0  0  0  0  0  0  0  0
   17.7060  -10.4748  -14.7346 C   0  0  0  0  0  0  0  0  0  0  0  0
   16.8263  -10.2204  -13.5278 C   0  0  2  0  0  0  0  0  0  0  0  0
   15.4320  -10.3355  -13.9001 N   0  0  0  0  0  0  0  0  0  0  0  0
   17.0490   -8.8668  -12.9762 C   0  0  0  0  0  0  0  0  0  0  0  0
   16.6027   -7.8726  -13.5915 O   0  0  0  0  0  0  0  0  0  0  0  0
   17.7609   -8.6438  -11.7555 N   0  0  0  0  0  0  0  0  0  0  0  0
   18.1267   -7.3122  -11.3114 C   0  0  1  0  0  0  0  0  0  0  0  0
   17.9317   -7.2587   -9.8307 C   0  0  0  0  0  0  0  0  0  0  0  0
   16.4914   -7.1057   -9.4967 C   0  0  0  0  0  0  0  0  0  0  0  0
   15.4058   -7.0080  -10.3081 C   0  0  0  0  0  0  0  0  0  0  0  0
   14.3330   -6.8848   -9.5095 N   0  0  0  0  0  0  0  0  0  0  0  0
   14.7357   -6.9046   -8.2282 C   0  0  0  0  0  0  0  0  0  0  0  0
   16.0505   -7.0394   -8.2306 N   0  0  0  0  0  0  0  0  0  0  0  0
   19.4519   -6.9733  -11.7909 C   0  0  0  0  0  0  0  0  0  0  0  0
   20.4255   -7.7223  -11.5017 O   0  0  0  0  0  0  0  0  0  0  0  0
   20.2318   -6.2775  -15.4233 C   0  0  0  0  0  0  0  0  0  0  0  0
   21.2819   -6.5637  -14.3699 C   0  0  1  0  0  0  0  0  0  0  0  0
   22.5492   -6.3514  -14.8575 O   0  0  0  0  0  0  0  0  0  0  0  0
   21.0833   -5.6604  -13.1722 C   0  0  2  0  0  0  0  0  0  0  0  0
   19.7697   -5.8377  -12.5837 N   0  0  0  0  0  0  0  0  0  0  0  0
   21.2686   -4.2400  -13.5068 C   0  0  0  0  0  0  0  0  0  0  0  0
   22.3757   -3.8280  -13.8959 O   0  0  0  0  0  0  0  0  0  0  0  0
   20.2138   -3.3631  -13.3891 O   0  0  0  0  0  0  0  0  0  0  0  0
  2  1  1  0
  3  2  1  0
  3  5  1  0
  3  4  1  6
  5  6  2  0
  5  7  1  0
  7  8  1  0
  8 15  1  0
  8  9  1  1
 10  9  1  0
 11 10  2  0
 12 11  1  0
 13 12  1  0
 13 14  2  0
 14 10  1  0
 15 16  2  0
 15 21  1  0
 18 17  1  6
 18 19  1  0
 20 22  1  0
 20 18  1  0
 20 21  1  6
 22 24  1  0
 23 22  2  0
M  END
$$$$
