SHT.pdb
     RDKit          3D

 24 24  0  0  1  0  0  0  0  0999 V2000
   27.8079   -5.8791  -21.2357 O   0  0  0  0  0  0  0  0  0  0  0  0
   26.8430   -6.7781  -20.7642 C   0  0  0  0  0  0  0  0  0  0  0  0
   27.5664   -7.8747  -20.0098 C   0  0  2  0  0  0  0  0  0  0  0  0
   28.1785   -8.7957  -20.9440 N   0  0  0  0  0  0  0  0  0  0  0  0
   26.6376   -8.6369  -19.1481 C   0  0  0  0  0  0  0  0  0  0  0  0
   25.9322   -9.5387  -19.6535 O   0  0  0  0  0  0  0  0  0  0  0  0
   26.5103   -8.3839  -17.7458 N   0  0  0  0  0  0  0  0  0  0  0  0
   25.5341   -9.0756  -16.9255 C   0  0  1  0  0  0  0  0  0  0  0  0
   26.2533   -9.6388  -15.7428 C   0  0  0  0  0  0  0  0  0  0  0  0
   26.9139  -10.9233  -16.0938 C   0  0  0  0  0  0  0  0  0  0  0  0
   26.9885  -11.5783  -17.2821 C   0  0  0  0  0  0  0  0  0  0  0  0
   27.6995  -12.6969  -17.0658 N   0  0  0  0  0  0  0  0  0  0  0  0
   28.0623  -12.7428  -15.7733 C   0  0  0  0  0  0  0  0  0  0  0  0
   27.5797  -11.6594  -15.1900 N   0  0  0  0  0  0  0  0  0  0  0  0
   24.4181   -8.1982  -16.6325 C   0  0  0  0  0  0  0  0  0  0  0  0
   24.6428   -7.0153  -16.2546 O   0  0  0  0  0  0  0  0  0  0  0  0
   19.6471   -6.9173  -16.9026 C   0  0  0  0  0  0  0  0  0  0  0  0
   20.7633   -7.8645  -17.2915 C   0  0  1  0  0  0  0  0  0  0  0  0
   21.1222   -7.6994  -18.6080 O   0  0  0  0  0  0  0  0  0  0  0  0
   21.9866   -7.6126  -16.4373 C   0  0  2  0  0  0  0  0  0  0  0  0
   23.0468   -8.5566  -16.7341 N   0  0  0  0  0  0  0  0  0  0  0  0
   21.6851   -7.6703  -14.9987 C   0  0  0  0  0  0  0  0  0  0  0  0
   21.4884   -6.6226  -14.3580 O   0  0  0  0  0  0  0  0  0  0  0  0
   21.6203   -8.8875  -14.3585 O   0  0  0  0  0  0  0  0  0  0  0  0
  2  1  1  0
  3  2  1  0
  3  5  1  0
  3  4  1  6
  5  6  2  0
  5  7  1  0
  7  8  1  0
  8 15  1  0
  8  9  1  1
 10  9  1  0
 11 10  2  0
 12 11  1  0
 13 12  1  0
 13 14  2  0
 14 10  1  0
 15 16  2  0
 15 21  1  0
 18 17  1  1
 18 19  1  0
 20 22  1  0
 20 18  1  0
 20 21  1  1
 22 24  1  0
 23 22  2  0
M  END
$$$$
