SHT.pdb
     RDKit          3D

 24 24  0  0  1  0  0  0  0  0999 V2000
   19.2857  -11.3654  -21.3582 O   0  0  0  0  0  0  0  0  0  0  0  0
   20.6531  -11.6598  -21.2865 C   0  0  0  0  0  0  0  0  0  0  0  0
   20.8913  -12.4262  -20.0016 C   0  0  2  0  0  0  0  0  0  0  0  0
   20.2049  -13.6998  -20.0519 N   0  0  0  0  0  0  0  0  0  0  0  0
   20.3930  -11.6767  -18.8286 C   0  0  0  0  0  0  0  0  0  0  0  0
   19.8095  -12.2934  -17.9091 O   0  0  0  0  0  0  0  0  0  0  0  0
   20.5517  -10.2608  -18.6994 N   0  0  0  0  0  0  0  0  0  0  0  0
   20.2035   -9.5564  -17.4801 C   0  0  1  0  0  0  0  0  0  0  0  0
   21.0247  -10.1334  -16.3729 C   0  0  0  0  0  0  0  0  0  0  0  0
   20.8040   -9.3818  -15.1097 C   0  0  0  0  0  0  0  0  0  0  0  0
   21.5118   -8.3614  -14.5580 C   0  0  0  0  0  0  0  0  0  0  0  0
   20.8953   -8.0362  -13.4100 N   0  0  0  0  0  0  0  0  0  0  0  0
   19.8267   -8.8332  -13.2453 C   0  0  0  0  0  0  0  0  0  0  0  0
   19.7794   -9.6485  -14.2845 N   0  0  0  0  0  0  0  0  0  0  0  0
   20.3212   -8.1256  -17.6800 C   0  0  0  0  0  0  0  0  0  0  0  0
   21.3588   -7.6600  -18.2269 O   0  0  0  0  0  0  0  0  0  0  0  0
   18.1482   -5.8549  -19.6994 C   0  0  0  0  0  0  0  0  0  0  0  0
   18.2861   -5.2091  -18.3362 C   0  0  1  0  0  0  0  0  0  0  0  0
   17.1824   -5.4530  -17.5542 O   0  0  0  0  0  0  0  0  0  0  0  0
   19.4999   -5.7560  -17.6171 C   0  0  2  0  0  0  0  0  0  0  0  0
   19.3446   -7.1638  -17.3053 N   0  0  0  0  0  0  0  0  0  0  0  0
   19.7923   -5.0218  -16.3764 C   0  0  0  0  0  0  0  0  0  0  0  0
   19.6207   -5.5666  -15.2716 O   0  0  0  0  0  0  0  0  0  0  0  0
   20.2576   -3.7275  -16.4374 O   0  0  0  0  0  0  0  0  0  0  0  0
  2  1  1  0
  3  2  1  0
  3  5  1  0
  3  4  1  6
  5  6  2  0
  5  7  1  0
  7  8  1  0
  8 15  1  0
  8  9  1  1
 10  9  1  0
 11 10  2  0
 12 11  1  0
 13 12  1  0
 13 14  2  0
 14 10  1  0
 15 16  2  0
 15 21  1  0
 18 17  1  6
 18 19  1  0
 20 22  1  0
 20 18  1  0
 20 21  1  1
 22 24  1  0
 23 22  2  0
M  END
$$$$
