SHT.pdb
     RDKit          3D

 24 24  0  0  1  0  0  0  0  0999 V2000
   18.2422  -13.4214  -14.5779 O   0  0  0  0  0  0  0  0  0  0  0  0
   18.8015  -12.2294  -15.0552 C   0  0  0  0  0  0  0  0  0  0  0  0
   17.7702  -11.5602  -15.9405 C   0  0  2  0  0  0  0  0  0  0  0  0
   17.7790  -12.1673  -17.2547 N   0  0  0  0  0  0  0  0  0  0  0  0
   18.0499  -10.1165  -16.0945 C   0  0  0  0  0  0  0  0  0  0  0  0
   18.7498   -9.7264  -17.0558 O   0  0  0  0  0  0  0  0  0  0  0  0
   17.5483   -9.1366  -15.1809 N   0  0  0  0  0  0  0  0  0  0  0  0
   17.8699   -7.7281  -15.3115 C   0  0  1  0  0  0  0  0  0  0  0  0
   16.6190   -6.9518  -15.0551 C   0  0  0  0  0  0  0  0  0  0  0  0
   15.7510   -6.9426  -16.2617 C   0  0  0  0  0  0  0  0  0  0  0  0
   16.0702   -6.7911  -17.5739 C   0  0  0  0  0  0  0  0  0  0  0  0
   14.9203   -6.8590  -18.2645 N   0  0  0  0  0  0  0  0  0  0  0  0
   13.9043   -7.0486  -17.4065 C   0  0  0  0  0  0  0  0  0  0  0  0
   14.4196   -7.0982  -16.1904 N   0  0  0  0  0  0  0  0  0  0  0  0
   19.0066   -7.3967  -14.4754 C   0  0  0  0  0  0  0  0  0  0  0  0
   18.8829   -7.4310  -13.2200 O   0  0  0  0  0  0  0  0  0  0  0  0
   22.2358   -9.1858  -14.3718 C   0  0  0  0  0  0  0  0  0  0  0  0
   22.5939   -7.7179  -14.4786 C   0  0  1  0  0  0  0  0  0  0  0  0
   22.9280   -7.3780  -15.7677 O   0  0  0  0  0  0  0  0  0  0  0  0
   21.4211   -6.8598  -14.0567 C   0  0  2  0  0  0  0  0  0  0  0  0
   20.2922   -7.0237  -14.9523 N   0  0  0  0  0  0  0  0  0  0  0  0
   21.7701   -5.4326  -13.9850 C   0  0  0  0  0  0  0  0  0  0  0  0
   21.3508   -4.6417  -14.8484 O   0  0  0  0  0  0  0  0  0  0  0  0
   22.5634   -4.9700  -12.9592 O   0  0  0  0  0  0  0  0  0  0  0  0
  2  1  1  0
  3  2  1  0
  3  5  1  0
  3  4  1  6
  5  6  2  0
  5  7  1  0
  7  8  1  0
  8 15  1  0
  8  9  1  1
 10  9  1  0
 11 10  2  0
 12 11  1  0
 13 12  1  0
 13 14  2  0
 14 10  1  0
 15 16  2  0
 15 21  1  0
 18 17  1  6
 18 19  1  0
 20 22  1  0
 20 18  1  0
 20 21  1  6
 22 24  1  0
 23 22  2  0
M  END
$$$$
