EAG.pdb
     RDKit          3D

 19 18  0  0  1  0  0  0  0  0999 V2000
   18.1490  -11.8232  -15.8444 N   0  0  0  0  0  0  0  0  0  0  0  0
   18.7164  -10.5596  -16.3306 C   0  0  1  0  0  0  0  0  0  0  0  0
   17.5474   -9.7165  -16.7622 C   0  0  0  0  0  0  0  0  0  0  0  0
   16.8546  -10.1893  -17.9926 C   0  0  0  0  0  0  0  0  0  0  0  0
   15.7066   -9.3801  -18.4276 C   0  0  0  0  0  0  0  0  0  0  0  0
   15.1484   -9.6424  -19.5209 O   0  0  0  0  0  0  0  0  0  0  0  0
   19.5295   -9.9338  -15.2706 C   0  0  0  0  0  0  0  0  0  0  0  0
   19.1292   -9.8427  -14.0881 O   0  0  0  0  0  0  0  0  0  0  0  0
   15.2252   -8.3139  -17.6331 O   0  0  0  0  0  0  0  0  0  0  0  0
   23.0447   -9.4735  -14.4805 C   0  0  0  0  0  0  0  0  0  0  0  0
   21.6699   -8.8394  -14.4917 C   0  0  2  0  0  0  0  0  0  0  0  0
   20.8306   -9.3898  -15.5267 N   0  0  0  0  0  0  0  0  0  0  0  0
   21.8053   -7.3707  -14.5979 C   0  0  0  0  0  0  0  0  0  0  0  0
   22.5003   -6.7323  -13.7996 O   0  0  0  0  0  0  0  0  0  0  0  0
   21.1191   -6.6933  -15.6405 N   0  0  0  0  0  0  0  0  0  0  0  0
   21.2239   -5.2791  -15.8673 C   0  0  0  0  0  0  0  0  0  0  0  0
   20.3036   -4.4831  -15.0592 C   0  0  0  0  0  0  0  0  0  0  0  0
   20.7354   -3.7386  -14.1551 O   0  0  0  0  0  0  0  0  0  0  0  0
   18.9449   -4.5401  -15.2802 O   0  0  0  0  0  0  0  0  0  0  0  0
  2  1  1  1
  3  2  1  0
  4  3  1  0
  5  6  2  0
  5  4  1  0
  7  2  1  0
  8  7  2  0
  9  5  1  0
 11 10  1  6
 11 12  1  0
 12  7  1  0
 13 11  1  0
 14 13  2  0
 15 13  1  0
 16 15  1  0
 17 16  1  0
 17 19  1  0
 18 17  2  0
M  END
$$$$
