EAG.pdb
     RDKit          3D

 19 18  0  0  1  0  0  0  0  0999 V2000
   12.1510   -9.3880  -10.1632 N   0  0  0  0  0  0  0  0  0  0  0  0
   13.5784   -9.7095  -10.0436 C   0  0  1  0  0  0  0  0  0  0  0  0
   13.8365  -10.8285  -11.0156 C   0  0  0  0  0  0  0  0  0  0  0  0
   13.2768  -12.1486  -10.6138 C   0  0  0  0  0  0  0  0  0  0  0  0
   13.5498  -13.2624  -11.5340 C   0  0  0  0  0  0  0  0  0  0  0  0
   13.1598  -14.4173  -11.2343 O   0  0  0  0  0  0  0  0  0  0  0  0
   14.3880   -8.5051  -10.3093 C   0  0  0  0  0  0  0  0  0  0  0  0
   14.1226   -7.7147  -11.2429 O   0  0  0  0  0  0  0  0  0  0  0  0
   14.2436  -13.0501  -12.7477 O   0  0  0  0  0  0  0  0  0  0  0  0
   16.6081   -6.1412   -8.6450 C   0  0  0  0  0  0  0  0  0  0  0  0
   16.4054   -7.0607   -9.8306 C   0  0  2  0  0  0  0  0  0  0  0  0
   15.5310   -8.1626   -9.5151 N   0  0  0  0  0  0  0  0  0  0  0  0
   17.7203   -7.5115  -10.3351 C   0  0  0  0  0  0  0  0  0  0  0  0
   18.2747   -8.5143   -9.8713 O   0  0  0  0  0  0  0  0  0  0  0  0
   18.3470   -6.7701  -11.3716 N   0  0  0  0  0  0  0  0  0  0  0  0
   19.6108   -7.1322  -11.9496 C   0  0  0  0  0  0  0  0  0  0  0  0
   20.0771   -6.2031  -12.9757 C   0  0  0  0  0  0  0  0  0  0  0  0
   19.3027   -5.3515  -13.4587 O   0  0  0  0  0  0  0  0  0  0  0  0
   21.3776   -6.2503  -13.4279 O   0  0  0  0  0  0  0  0  0  0  0  0
  2  1  1  6
  3  2  1  0
  4  3  1  0
  5  6  2  0
  5  4  1  0
  7  2  1  0
  8  7  2  0
  9  5  1  0
 11 10  1  1
 11 12  1  0
 12  7  1  0
 13 11  1  0
 14 13  2  0
 15 13  1  0
 16 15  1  0
 17 16  1  0
 17 19  1  0
 18 17  2  0
M  END
$$$$
