EAG.pdb
     RDKit          3D

 19 18  0  0  1  0  0  0  0  0999 V2000
   25.4362  -32.7337   -4.6421 N   0  0  0  0  0  0  0  0  0  0  0  0
   25.8002  -34.0373   -4.0736 C   0  0  1  0  0  0  0  0  0  0  0  0
   27.2546  -34.2427   -4.3993 C   0  0  0  0  0  0  0  0  0  0  0  0
   27.5543  -34.4094   -5.8484 C   0  0  0  0  0  0  0  0  0  0  0  0
   28.9039  -34.8980   -6.1672 C   0  0  0  0  0  0  0  0  0  0  0  0
   29.7332  -35.0632   -5.2393 O   0  0  0  0  0  0  0  0  0  0  0  0
   25.5174  -34.0499   -2.6257 C   0  0  0  0  0  0  0  0  0  0  0  0
   25.5530  -33.0104   -1.9293 O   0  0  0  0  0  0  0  0  0  0  0  0
   29.2784  -35.1831   -7.5006 O   0  0  0  0  0  0  0  0  0  0  0  0
   23.8546  -36.3554   -0.1842 C   0  0  0  0  0  0  0  0  0  0  0  0
   24.8682  -35.2810   -0.5165 C   0  0  2  0  0  0  0  0  0  0  0  0
   25.1837  -35.2538   -1.9230 N   0  0  0  0  0  0  0  0  0  0  0  0
   26.0697  -35.4590    0.3269 C   0  0  0  0  0  0  0  0  0  0  0  0
   25.9990  -35.4125    1.5602 O   0  0  0  0  0  0  0  0  0  0  0  0
   27.3216  -35.6868   -0.3037 N   0  0  0  0  0  0  0  0  0  0  0  0
   28.5529  -35.8460    0.4180 C   0  0  0  0  0  0  0  0  0  0  0  0
   29.6963  -36.1680   -0.4319 C   0  0  0  0  0  0  0  0  0  0  0  0
   29.5597  -36.2631   -1.6690 O   0  0  0  0  0  0  0  0  0  0  0  0
   30.9438  -36.3722    0.1160 O   0  0  0  0  0  0  0  0  0  0  0  0
  2  1  1  1
  3  2  1  0
  4  3  1  0
  5  6  2  0
  5  4  1  0
  7  2  1  0
  8  7  2  0
  9  5  1  0
 11 10  1  6
 11 12  1  0
 12  7  1  0
 13 11  1  0
 14 13  2  0
 15 13  1  0
 16 15  1  0
 17 16  1  0
 17 19  1  0
 18 17  2  0
M  END
$$$$
