EAG.pdb
     RDKit          3D

 19 18  0  0  1  0  0  0  0  0999 V2000
   18.6036  -12.6721  -15.4603 N   0  0  0  0  0  0  0  0  0  0  0  0
   18.1271  -11.4025  -16.0224 C   0  0  1  0  0  0  0  0  0  0  0  0
   17.0179  -10.9368  -15.1188 C   0  0  0  0  0  0  0  0  0  0  0  0
   15.7668  -11.7405  -15.1976 C   0  0  0  0  0  0  0  0  0  0  0  0
   14.6333  -11.2325  -14.4109 C   0  0  0  0  0  0  0  0  0  0  0  0
   14.3899  -11.7362  -13.2871 O   0  0  0  0  0  0  0  0  0  0  0  0
   19.2452  -10.4448  -16.1177 C   0  0  0  0  0  0  0  0  0  0  0  0
   20.1841  -10.4300  -15.2901 O   0  0  0  0  0  0  0  0  0  0  0  0
   13.8167  -10.1877  -14.9020 O   0  0  0  0  0  0  0  0  0  0  0  0
   20.5215   -8.0827  -18.7947 C   0  0  0  0  0  0  0  0  0  0  0  0
   20.5010   -8.6636  -17.3967 C   0  0  2  0  0  0  0  0  0  0  0  0
   19.3283   -9.4693  -17.1647 N   0  0  0  0  0  0  0  0  0  0  0  0
   20.6399   -7.5730  -16.4078 C   0  0  0  0  0  0  0  0  0  0  0  0
   19.6498   -6.9800  -15.9651 O   0  0  0  0  0  0  0  0  0  0  0  0
   21.9401   -7.2098  -15.9668 N   0  0  0  0  0  0  0  0  0  0  0  0
   22.1874   -6.1734  -15.0039 C   0  0  0  0  0  0  0  0  0  0  0  0
   22.2073   -6.6459  -13.6220 C   0  0  0  0  0  0  0  0  0  0  0  0
   21.8891   -7.8218  -13.3495 O   0  0  0  0  0  0  0  0  0  0  0  0
   22.5769   -5.8034  -12.5964 O   0  0  0  0  0  0  0  0  0  0  0  0
  2  1  1  1
  3  2  1  0
  4  3  1  0
  5  6  2  0
  5  4  1  0
  7  2  1  0
  8  7  2  0
  9  5  1  0
 11 10  1  6
 11 12  1  0
 12  7  1  0
 13 11  1  0
 14 13  2  0
 15 13  1  0
 16 15  1  0
 17 16  1  0
 17 19  1  0
 18 17  2  0
M  END
$$$$
