EAG.pdb
     RDKit          3D

 19 18  0  0  1  0  0  0  0  0999 V2000
   19.2373  -11.2591  -15.1855 N   0  0  0  0  0  0  0  0  0  0  0  0
   18.8483   -9.8523  -15.3426 C   0  0  1  0  0  0  0  0  0  0  0  0
   17.3601   -9.8534  -15.5632 C   0  0  0  0  0  0  0  0  0  0  0  0
   16.9262  -10.3332  -16.9045 C   0  0  0  0  0  0  0  0  0  0  0  0
   15.4829  -10.2528  -17.1730 C   0  0  0  0  0  0  0  0  0  0  0  0
   14.7035   -9.9130  -16.2494 O   0  0  0  0  0  0  0  0  0  0  0  0
   19.2633   -9.0813  -14.1552 C   0  0  0  0  0  0  0  0  0  0  0  0
   19.0384   -9.4780  -12.9895 O   0  0  0  0  0  0  0  0  0  0  0  0
   14.9632  -10.5524  -18.4535 O   0  0  0  0  0  0  0  0  0  0  0  0
   21.4355   -6.0820  -13.3937 C   0  0  0  0  0  0  0  0  0  0  0  0
   20.2709   -7.0092  -13.1175 C   0  0  2  0  0  0  0  0  0  0  0  0
   19.9509   -7.8280  -14.2601 N   0  0  0  0  0  0  0  0  0  0  0  0
   19.1123   -6.2192  -12.6484 C   0  0  0  0  0  0  0  0  0  0  0  0
   18.3599   -5.6497  -13.4469 O   0  0  0  0  0  0  0  0  0  0  0  0
   18.8706   -6.1206  -11.2525 N   0  0  0  0  0  0  0  0  0  0  0  0
   17.7994   -5.3483  -10.6883 C   0  0  0  0  0  0  0  0  0  0  0  0
   17.8145   -5.2984   -9.2285 C   0  0  0  0  0  0  0  0  0  0  0  0
   18.6209   -5.9954   -8.5788 O   0  0  0  0  0  0  0  0  0  0  0  0
   16.9404   -4.4825   -8.5441 O   0  0  0  0  0  0  0  0  0  0  0  0
  2  1  1  1
  3  2  1  0
  4  3  1  0
  5  6  2  0
  5  4  1  0
  7  2  1  0
  8  7  2  0
  9  5  1  0
 11 10  1  6
 11 12  1  0
 12  7  1  0
 13 11  1  0
 14 13  2  0
 15 13  1  0
 16 15  1  0
 17 16  1  0
 17 19  1  0
 18 17  2  0
M  END
$$$$
