EAG.pdb
     RDKit          3D

 19 18  0  0  1  0  0  0  0  0999 V2000
   22.9711  -19.8508  -16.2266 N   0  0  0  0  0  0  0  0  0  0  0  0
   22.5268  -18.6505  -15.5075 C   0  0  1  0  0  0  0  0  0  0  0  0
   22.6090  -17.5186  -16.4952 C   0  0  0  0  0  0  0  0  0  0  0  0
   23.9872  -17.1791  -16.9455 C   0  0  0  0  0  0  0  0  0  0  0  0
   24.1057  -15.9738  -17.7793 C   0  0  0  0  0  0  0  0  0  0  0  0
   24.0980  -16.0878  -19.0294 O   0  0  0  0  0  0  0  0  0  0  0  0
   21.1690  -18.8611  -14.9705 C   0  0  0  0  0  0  0  0  0  0  0  0
   20.2668  -19.4181  -15.6356 O   0  0  0  0  0  0  0  0  0  0  0  0
   24.2278  -14.6928  -17.1932 O   0  0  0  0  0  0  0  0  0  0  0  0
   19.5917  -19.4522  -11.7724 C   0  0  0  0  0  0  0  0  0  0  0  0
   19.4964  -18.7003  -13.0831 C   0  0  2  0  0  0  0  0  0  0  0  0
   20.7955  -18.4413  -13.6518 N   0  0  0  0  0  0  0  0  0  0  0  0
   18.7110  -17.4631  -12.8856 C   0  0  0  0  0  0  0  0  0  0  0  0
   17.5725  -17.4971  -12.4054 O   0  0  0  0  0  0  0  0  0  0  0  0
   19.2866  -16.2196  -13.2586 N   0  0  0  0  0  0  0  0  0  0  0  0
   18.5892  -14.9674  -13.1698 C   0  0  0  0  0  0  0  0  0  0  0  0
   17.6971  -14.7087  -14.2970 C   0  0  0  0  0  0  0  0  0  0  0  0
   17.0621  -13.6364  -14.3698 O   0  0  0  0  0  0  0  0  0  0  0  0
   17.5410  -15.6421  -15.2983 O   0  0  0  0  0  0  0  0  0  0  0  0
  2  1  1  6
  3  2  1  0
  4  3  1  0
  5  6  2  0
  5  4  1  0
  7  2  1  0
  8  7  2  0
  9  5  1  0
 11 10  1  1
 11 12  1  0
 12  7  1  0
 13 11  1  0
 14 13  2  0
 15 13  1  0
 16 15  1  0
 17 16  1  0
 17 19  1  0
 18 17  2  0
M  END
$$$$
