EAG.pdb
     RDKit          3D

 19 18  0  0  1  0  0  0  0  0999 V2000
   21.5751  -12.3391  -18.6958 N   0  0  0  0  0  0  0  0  0  0  0  0
   21.7684  -10.9374  -18.3043 C   0  0  1  0  0  0  0  0  0  0  0  0
   20.3958  -10.3224  -18.2657 C   0  0  0  0  0  0  0  0  0  0  0  0
   19.7152  -10.2265  -19.5867 C   0  0  0  0  0  0  0  0  0  0  0  0
   18.3506   -9.6795  -19.5614 C   0  0  0  0  0  0  0  0  0  0  0  0
   17.7213   -9.5467  -20.6394 O   0  0  0  0  0  0  0  0  0  0  0  0
   22.4762  -10.8705  -17.0117 C   0  0  0  0  0  0  0  0  0  0  0  0
   22.2122  -11.6456  -16.0649 O   0  0  0  0  0  0  0  0  0  0  0  0
   17.7404   -9.3024  -18.3428 O   0  0  0  0  0  0  0  0  0  0  0  0
   25.6997   -9.5830  -15.7038 C   0  0  0  0  0  0  0  0  0  0  0  0
   24.2207   -9.8372  -15.5035 C   0  0  2  0  0  0  0  0  0  0  0  0
   23.5121   -9.9132  -16.7567 N   0  0  0  0  0  0  0  0  0  0  0  0
   23.6613   -8.8076  -14.6016 C   0  0  0  0  0  0  0  0  0  0  0  0
   24.0883   -8.6642  -13.4505 O   0  0  0  0  0  0  0  0  0  0  0  0
   22.6146   -7.9747  -15.0787 N   0  0  0  0  0  0  0  0  0  0  0  0
   22.0742   -6.8761  -14.3282 C   0  0  0  0  0  0  0  0  0  0  0  0
   22.6171   -5.5759  -14.7135 C   0  0  0  0  0  0  0  0  0  0  0  0
   22.1820   -4.5280  -14.1932 O   0  0  0  0  0  0  0  0  0  0  0  0
   23.6173   -5.4835  -15.6565 O   0  0  0  0  0  0  0  0  0  0  0  0
  2  1  1  1
  3  2  1  0
  4  3  1  0
  5  6  2  0
  5  4  1  0
  7  2  1  0
  8  7  2  0
  9  5  1  0
 11 10  1  6
 11 12  1  0
 12  7  1  0
 13 11  1  0
 14 13  2  0
 15 13  1  0
 16 15  1  0
 17 16  1  0
 17 19  1  0
 18 17  2  0
M  END
$$$$
