EAG.pdb
     RDKit          3D

 19 18  0  0  1  0  0  0  0  0999 V2000
   21.7153  -18.4261  -16.7960 N   0  0  0  0  0  0  0  0  0  0  0  0
   22.5035  -18.1886  -15.5805 C   0  0  1  0  0  0  0  0  0  0  0  0
   21.8716  -19.0277  -14.5034 C   0  0  0  0  0  0  0  0  0  0  0  0
   21.6647  -20.4576  -14.8641 C   0  0  0  0  0  0  0  0  0  0  0  0
   21.0384  -21.2913  -13.8275 C   0  0  0  0  0  0  0  0  0  0  0  0
   19.7865  -21.3651  -13.7710 O   0  0  0  0  0  0  0  0  0  0  0  0
   23.9192  -18.5221  -15.8272 C   0  0  0  0  0  0  0  0  0  0  0  0
   24.2623  -19.4890  -16.5443 O   0  0  0  0  0  0  0  0  0  0  0  0
   21.8252  -22.0084  -12.8968 O   0  0  0  0  0  0  0  0  0  0  0  0
   27.3035  -17.1140  -14.7623 C   0  0  0  0  0  0  0  0  0  0  0  0
   26.3825  -18.0722  -15.4876 C   0  0  2  0  0  0  0  0  0  0  0  0
   24.9934  -17.7601  -15.2614 N   0  0  0  0  0  0  0  0  0  0  0  0
   26.7172  -19.4612  -15.1064 C   0  0  0  0  0  0  0  0  0  0  0  0
   26.2860  -19.9600  -14.0608 O   0  0  0  0  0  0  0  0  0  0  0  0
   27.5502  -20.2254  -15.9659 N   0  0  0  0  0  0  0  0  0  0  0  0
   27.9321  -21.5830  -15.6948 C   0  0  0  0  0  0  0  0  0  0  0  0
   28.7648  -22.1797  -16.7360 C   0  0  0  0  0  0  0  0  0  0  0  0
   29.0090  -21.5543  -17.7884 O   0  0  0  0  0  0  0  0  0  0  0  0
   29.2946  -23.4414  -16.5752 O   0  0  0  0  0  0  0  0  0  0  0  0
  2  1  1  6
  3  2  1  0
  4  3  1  0
  5  6  2  0
  5  4  1  0
  7  2  1  0
  8  7  2  0
  9  5  1  0
 11 10  1  1
 11 12  1  0
 12  7  1  0
 13 11  1  0
 14 13  2  0
 15 13  1  0
 16 15  1  0
 17 16  1  0
 17 19  1  0
 18 17  2  0
M  END
$$$$
