EAG.pdb
     RDKit          3D

 19 18  0  0  1  0  0  0  0  0999 V2000
   19.7070  -10.2826  -17.4012 N   0  0  0  0  0  0  0  0  0  0  0  0
   18.8123   -9.2098  -16.9498 C   0  0  1  0  0  0  0  0  0  0  0  0
   18.2557   -9.6603  -15.6267 C   0  0  0  0  0  0  0  0  0  0  0  0
   17.3329  -10.8268  -15.7000 C   0  0  0  0  0  0  0  0  0  0  0  0
   16.6393  -11.1693  -14.4497 C   0  0  0  0  0  0  0  0  0  0  0  0
   15.8095  -12.1113  -14.4449 O   0  0  0  0  0  0  0  0  0  0  0  0
   19.5550   -7.9376  -16.8695 C   0  0  0  0  0  0  0  0  0  0  0  0
   20.8004   -7.8977  -16.7506 O   0  0  0  0  0  0  0  0  0  0  0  0
   16.8939  -10.4539  -13.2568 O   0  0  0  0  0  0  0  0  0  0  0  0
   18.7277   -4.2663  -17.3931 C   0  0  0  0  0  0  0  0  0  0  0  0
   19.6114   -5.4124  -16.9485 C   0  0  2  0  0  0  0  0  0  0  0  0
   18.8978   -6.6648  -16.9225 N   0  0  0  0  0  0  0  0  0  0  0  0
   20.2231   -5.0854  -15.6426 C   0  0  0  0  0  0  0  0  0  0  0  0
   19.5358   -4.9883  -14.6198 O   0  0  0  0  0  0  0  0  0  0  0  0
   21.6269   -4.8813  -15.5757 N   0  0  0  0  0  0  0  0  0  0  0  0
   22.3370   -4.6676  -14.3459 C   0  0  0  0  0  0  0  0  0  0  0  0
   22.3318   -5.8244  -13.4541 C   0  0  0  0  0  0  0  0  0  0  0  0
   22.2491   -5.6714  -12.2179 O   0  0  0  0  0  0  0  0  0  0  0  0
   22.4179   -7.1027  -13.9606 O   0  0  0  0  0  0  0  0  0  0  0  0
  2  1  1  1
  3  2  1  0
  4  3  1  0
  5  6  2  0
  5  4  1  0
  7  2  1  0
  8  7  2  0
  9  5  1  0
 11 10  1  1
 11 12  1  0
 12  7  1  0
 13 11  1  0
 14 13  2  0
 15 13  1  0
 16 15  1  0
 17 16  1  0
 17 19  1  0
 18 17  2  0
M  END
$$$$
