EAG.pdb
     RDKit          3D

 19 18  0  0  1  0  0  0  0  0999 V2000
   18.0965  -12.2977  -15.9871 N   0  0  0  0  0  0  0  0  0  0  0  0
   18.8408  -11.0807  -16.3338 C   0  0  1  0  0  0  0  0  0  0  0  0
   17.8078  -10.0522  -16.7061 C   0  0  0  0  0  0  0  0  0  0  0  0
   17.0415  -10.3548  -17.9465 C   0  0  0  0  0  0  0  0  0  0  0  0
   16.0024   -9.3788  -18.3067 C   0  0  0  0  0  0  0  0  0  0  0  0
   15.2914   -9.5837  -19.3208 O   0  0  0  0  0  0  0  0  0  0  0  0
   19.6911  -10.6723  -15.1995 C   0  0  0  0  0  0  0  0  0  0  0  0
   19.2466  -10.5731  -14.0336 O   0  0  0  0  0  0  0  0  0  0  0  0
   15.7947   -8.2165  -17.5285 O   0  0  0  0  0  0  0  0  0  0  0  0
   23.3070  -10.3704  -14.3351 C   0  0  0  0  0  0  0  0  0  0  0  0
   21.8946   -9.8264  -14.2968 C   0  0  2  0  0  0  0  0  0  0  0  0
   21.0814  -10.3625  -15.3597 N   0  0  0  0  0  0  0  0  0  0  0  0
   21.9351   -8.3484  -14.3092 C   0  0  0  0  0  0  0  0  0  0  0  0
   22.5173   -7.7162  -13.4208 O   0  0  0  0  0  0  0  0  0  0  0  0
   21.2893   -7.6544  -15.3666 N   0  0  0  0  0  0  0  0  0  0  0  0
   21.4843   -6.2561  -15.6297 C   0  0  0  0  0  0  0  0  0  0  0  0
   20.5615   -5.3861  -14.9052 C   0  0  0  0  0  0  0  0  0  0  0  0
   19.7155   -5.8692  -14.1248 O   0  0  0  0  0  0  0  0  0  0  0  0
   20.6084   -4.0191  -15.0703 O   0  0  0  0  0  0  0  0  0  0  0  0
  2  1  1  1
  3  2  1  0
  4  3  1  0
  5  6  2  0
  5  4  1  0
  7  2  1  0
  8  7  2  0
  9  5  1  0
 11 10  1  6
 11 12  1  0
 12  7  1  0
 13 11  1  0
 14 13  2  0
 15 13  1  0
 16 15  1  0
 17 16  1  0
 17 19  1  0
 18 17  2  0
M  END
$$$$
