IQG.pdb
     RDKit          3D

 22 21  0  0  1  0  0  0  0  0999 V2000
    6.9689  -12.4014   20.8603 C   0  0  0  0  0  0  0  0  0  0  0  0
    7.5014  -12.9158   19.5670 C   0  0  0  0  0  0  0  0  0  0  0  0
    8.6439  -13.8657   19.6749 C   0  0  2  0  0  0  0  0  0  0  0  0
    9.7675  -13.1476   20.4197 C   0  0  0  0  0  0  0  0  0  0  0  0
    9.1359  -14.4051   18.3483 C   0  0  2  0  0  0  0  0  0  0  0  0
    8.1474  -14.8528   17.4734 N   0  0  0  0  0  0  0  0  0  0  0  0
   10.1905  -15.4197   18.6823 C   0  0  0  0  0  0  0  0  0  0  0  0
    9.9112  -16.6410   18.7936 O   0  0  0  0  0  0  0  0  0  0  0  0
   15.9881  -14.8193   16.6211 N   0  0  0  0  0  0  0  0  0  0  0  0
   15.6314  -14.0630   17.7756 C   0  0  0  0  0  0  0  0  0  0  0  0
   16.3516  -13.0716   18.0542 O   0  0  0  0  0  0  0  0  0  0  0  0
   14.4668  -14.4103   18.6265 C   0  0  0  0  0  0  0  0  0  0  0  0
   13.8078  -15.6236   18.0731 C   0  0  0  0  0  0  0  0  0  0  0  0
   12.6064  -16.0765   18.8606 C   0  0  2  0  0  0  0  0  0  0  0  0
   11.5615  -15.0759   18.8937 N   0  0  0  0  0  0  0  0  0  0  0  0
   12.9335  -16.4766   20.2336 C   0  0  0  0  0  0  0  0  0  0  0  0
   13.6837  -17.4463   20.5229 O   0  0  0  0  0  0  0  0  0  0  0  0
   12.3818  -15.7401   21.3126 N   0  0  0  0  0  0  0  0  0  0  0  0
   12.6381  -16.0459   22.6964 C   0  0  0  0  0  0  0  0  0  0  0  0
   14.0022  -15.7395   23.1224 C   0  0  0  0  0  0  0  0  0  0  0  0
   14.3658  -15.9196   24.4427 O   0  0  0  0  0  0  0  0  0  0  0  0
   14.8472  -15.3145   22.3029 O   0  0  0  0  0  0  0  0  0  0  0  0
  2  3  1  0
  2  1  1  0
  3  5  1  0
  3  4  1  6
  5  7  1  0
  5  6  1  1
  7  8  2  0
  9 10  1  0
 10 12  1  0
 10 11  2  0
 12 13  1  0
 14 13  1  1
 15 14  1  0
 15  7  1  0
 16 17  2  0
 16 14  1  0
 18 16  1  0
 19 20  1  0
 19 18  1  0
 20 21  1  0
 22 20  2  0
M  END
$$$$
