IQG.pdb
     RDKit          3D

 22 21  0  0  1  0  0  0  0  0999 V2000
    6.8585  -11.6672   27.2168 C   0  0  0  0  0  0  0  0  0  0  0  0
    6.2490  -12.8895   26.6207 C   0  0  0  0  0  0  0  0  0  0  0  0
    7.1648  -13.7282   25.7980 C   0  0  2  0  0  0  0  0  0  0  0  0
    7.6955  -12.8512   24.6657 C   0  0  0  0  0  0  0  0  0  0  0  0
    6.5336  -14.9910   25.2505 C   0  0  2  0  0  0  0  0  0  0  0  0
    5.9239  -15.8193   26.1914 N   0  0  0  0  0  0  0  0  0  0  0  0
    7.5927  -15.6531   24.4181 C   0  0  0  0  0  0  0  0  0  0  0  0
    8.2135  -16.6651   24.8335 O   0  0  0  0  0  0  0  0  0  0  0  0
    7.4419  -18.6474   20.4436 N   0  0  0  0  0  0  0  0  0  0  0  0
    7.9159  -17.7902   19.4079 C   0  0  0  0  0  0  0  0  0  0  0  0
    7.6114  -18.0974   18.2281 O   0  0  0  0  0  0  0  0  0  0  0  0
    8.7337  -16.5838   19.6846 C   0  0  0  0  0  0  0  0  0  0  0  0
    8.0633  -15.7759   20.7383 C   0  0  0  0  0  0  0  0  0  0  0  0
    8.5426  -16.0778   22.1339 C   0  0  2  0  0  0  0  0  0  0  0  0
    7.9640  -15.1889   23.1183 N   0  0  0  0  0  0  0  0  0  0  0  0
   10.0038  -16.0509   22.2610 C   0  0  0  0  0  0  0  0  0  0  0  0
   10.7844  -16.7244   21.5371 O   0  0  0  0  0  0  0  0  0  0  0  0
   10.5912  -15.2235   23.2517 N   0  0  0  0  0  0  0  0  0  0  0  0
   12.0122  -15.0311   23.3855 C   0  0  0  0  0  0  0  0  0  0  0  0
   12.7132  -16.1925   23.9291 C   0  0  0  0  0  0  0  0  0  0  0  0
   14.0665  -16.1152   24.1946 O   0  0  0  0  0  0  0  0  0  0  0  0
   12.1003  -17.2595   24.1576 O   0  0  0  0  0  0  0  0  0  0  0  0
  2  3  1  0
  2  1  1  0
  3  5  1  0
  3  4  1  6
  5  7  1  0
  5  6  1  1
  7  8  2  0
  9 10  1  0
 10 12  1  0
 10 11  2  0
 12 13  1  0
 14 13  1  6
 15 14  1  0
 15  7  1  0
 16 17  2  0
 16 14  1  0
 18 16  1  0
 19 20  1  0
 19 18  1  0
 20 21  1  0
 22 20  2  0
M  END
$$$$
