IQG.pdb
     RDKit          3D

 22 21  0  0  1  0  0  0  0  0999 V2000
    6.5277  -10.8334   26.4543 C   0  0  0  0  0  0  0  0  0  0  0  0
    5.9688  -12.1759   26.1287 C   0  0  0  0  0  0  0  0  0  0  0  0
    6.9709  -13.2647   25.9569 C   0  0  2  0  0  0  0  0  0  0  0  0
    7.9068  -12.8508   24.8231 C   0  0  0  0  0  0  0  0  0  0  0  0
    6.3718  -14.6295   25.6898 C   0  0  2  0  0  0  0  0  0  0  0  0
    5.2143  -14.9323   26.4050 N   0  0  0  0  0  0  0  0  0  0  0  0
    7.4940  -15.6118   25.8588 C   0  0  0  0  0  0  0  0  0  0  0  0
    8.0320  -15.8037   26.9795 O   0  0  0  0  0  0  0  0  0  0  0  0
    7.2788  -19.4574   27.9358 N   0  0  0  0  0  0  0  0  0  0  0  0
    7.9594  -19.7503   26.7180 C   0  0  0  0  0  0  0  0  0  0  0  0
    8.9708  -20.4923   26.7930 O   0  0  0  0  0  0  0  0  0  0  0  0
    7.5135  -19.2155   25.4080 C   0  0  0  0  0  0  0  0  0  0  0  0
    8.7012  -18.7382   24.6504 C   0  0  0  0  0  0  0  0  0  0  0  0
    9.1036  -17.3240   24.9770 C   0  0  2  0  0  0  0  0  0  0  0  0
    8.0211  -16.3845   24.7782 N   0  0  0  0  0  0  0  0  0  0  0  0
   10.2789  -16.8701   24.2256 C   0  0  0  0  0  0  0  0  0  0  0  0
   11.4535  -17.2646   24.4531 O   0  0  0  0  0  0  0  0  0  0  0  0
   10.1026  -15.9316   23.1772 N   0  0  0  0  0  0  0  0  0  0  0  0
   11.1900  -15.3947   22.4004 C   0  0  0  0  0  0  0  0  0  0  0  0
   11.9415  -16.4086   21.6634 C   0  0  0  0  0  0  0  0  0  0  0  0
   12.8732  -16.0217   20.7199 O   0  0  0  0  0  0  0  0  0  0  0  0
   11.7506  -17.6267   21.8775 O   0  0  0  0  0  0  0  0  0  0  0  0
  2  3  1  0
  2  1  1  0
  3  5  1  0
  3  4  1  6
  5  7  1  0
  5  6  1  1
  7  8  2  0
  9 10  1  0
 10 12  1  0
 10 11  2  0
 12 13  1  0
 14 13  1  6
 15 14  1  0
 15  7  1  0
 16 17  2  0
 16 14  1  0
 18 16  1  0
 19 20  1  0
 19 18  1  0
 20 21  1  0
 22 20  2  0
M  END
$$$$
