IQG.pdb
     RDKit          3D

 22 21  0  0  1  0  0  0  0  0999 V2000
    5.8116  -11.2423   26.4294 C   0  0  0  0  0  0  0  0  0  0  0  0
    7.2671  -11.4550   26.1909 C   0  0  0  0  0  0  0  0  0  0  0  0
    7.6630  -12.8458   25.8327 C   0  0  2  0  0  0  0  0  0  0  0  0
    7.1358  -13.1239   24.4264 C   0  0  0  0  0  0  0  0  0  0  0  0
    7.1845  -13.9024   26.8060 C   0  0  2  0  0  0  0  0  0  0  0  0
    7.4248  -13.6370   28.1532 N   0  0  0  0  0  0  0  0  0  0  0  0
    7.7441  -15.2035   26.3089 C   0  0  0  0  0  0  0  0  0  0  0  0
    8.8335  -15.6562   26.7454 O   0  0  0  0  0  0  0  0  0  0  0  0
    4.7957  -19.5990   22.7269 N   0  0  0  0  0  0  0  0  0  0  0  0
    6.0442  -20.1504   23.1383 C   0  0  0  0  0  0  0  0  0  0  0  0
    6.5028  -21.0994   22.4542 O   0  0  0  0  0  0  0  0  0  0  0  0
    6.7883  -19.6442   24.3177 C   0  0  0  0  0  0  0  0  0  0  0  0
    6.3909  -18.2335   24.5718 C   0  0  0  0  0  0  0  0  0  0  0  0
    7.5232  -17.3565   25.0379 C   0  0  2  0  0  0  0  0  0  0  0  0
    7.0909  -16.0052   25.3224 N   0  0  0  0  0  0  0  0  0  0  0  0
    8.6463  -17.3141   24.0951 C   0  0  0  0  0  0  0  0  0  0  0  0
    9.2692  -18.3346   23.6981 O   0  0  0  0  0  0  0  0  0  0  0  0
    9.0707  -16.0590   23.5895 N   0  0  0  0  0  0  0  0  0  0  0  0
   10.0749  -15.9126   22.5677 C   0  0  0  0  0  0  0  0  0  0  0  0
   11.4073  -16.3412   22.9885 C   0  0  0  0  0  0  0  0  0  0  0  0
   11.5663  -17.0128   24.1850 O   0  0  0  0  0  0  0  0  0  0  0  0
   12.4088  -16.1063   22.2759 O   0  0  0  0  0  0  0  0  0  0  0  0
  2  3  1  0
  2  1  1  0
  3  5  1  0
  3  4  1  6
  5  7  1  0
  5  6  1  1
  7  8  2  0
  9 10  1  0
 10 12  1  0
 10 11  2  0
 12 13  1  0
 14 13  1  6
 15 14  1  0
 15  7  1  0
 16 17  2  0
 16 14  1  0
 18 16  1  0
 19 20  1  0
 19 18  1  0
 20 21  1  0
 22 20  2  0
M  END
$$$$
