IQG.pdb
     RDKit          3D

 22 21  0  0  1  0  0  0  0  0999 V2000
    7.8684  -12.2737   19.5473 C   0  0  0  0  0  0  0  0  0  0  0  0
    7.3160  -13.6076   19.9165 C   0  0  0  0  0  0  0  0  0  0  0  0
    7.5931  -14.0543   21.3104 C   0  0  2  0  0  0  0  0  0  0  0  0
    9.1099  -14.1174   21.4779 C   0  0  0  0  0  0  0  0  0  0  0  0
    6.9548  -15.3762   21.6819 C   0  0  2  0  0  0  0  0  0  0  0  0
    5.6322  -15.5446   21.2749 N   0  0  0  0  0  0  0  0  0  0  0  0
    7.1891  -15.5468   23.1546 C   0  0  0  0  0  0  0  0  0  0  0  0
    6.6308  -14.7978   23.9969 O   0  0  0  0  0  0  0  0  0  0  0  0
    5.2144  -18.7454   23.1902 N   0  0  0  0  0  0  0  0  0  0  0  0
    6.0785  -19.0572   24.2802 C   0  0  0  0  0  0  0  0  0  0  0  0
    6.6910  -20.1532   24.2283 O   0  0  0  0  0  0  0  0  0  0  0  0
    6.2635  -18.1454   25.4357 C   0  0  0  0  0  0  0  0  0  0  0  0
    7.7194  -17.9600   25.6778 C   0  0  0  0  0  0  0  0  0  0  0  0
    8.2706  -16.6745   25.1190 C   0  0  2  0  0  0  0  0  0  0  0  0
    8.0476  -16.5540   23.6943 N   0  0  0  0  0  0  0  0  0  0  0  0
    9.6982  -16.4881   25.4002 C   0  0  0  0  0  0  0  0  0  0  0  0
   10.1938  -16.5017   26.5583 O   0  0  0  0  0  0  0  0  0  0  0  0
   10.5892  -16.2788   24.3169 N   0  0  0  0  0  0  0  0  0  0  0  0
   11.9972  -16.0263   24.4839 C   0  0  0  0  0  0  0  0  0  0  0  0
   12.8127  -17.2389   24.5043 C   0  0  0  0  0  0  0  0  0  0  0  0
   14.1882  -17.1400   24.5827 O   0  0  0  0  0  0  0  0  0  0  0  0
   12.2782  -18.3693   24.4513 O   0  0  0  0  0  0  0  0  0  0  0  0
  2  3  1  0
  2  1  1  0
  3  5  1  0
  3  4  1  6
  5  7  1  0
  5  6  1  1
  7  8  2  0
  9 10  1  0
 10 12  1  0
 10 11  2  0
 12 13  1  0
 14 13  1  6
 15 14  1  0
 15  7  1  0
 16 17  2  0
 16 14  1  0
 18 16  1  0
 19 20  1  0
 19 18  1  0
 20 21  1  0
 22 20  2  0
M  END
$$$$
