KMK.pdb
     RDKit          3D

 27 26  0  0  1  0  0  0  0  0999 V2000
   26.8093  -18.4099  -15.2708 N   0  0  0  0  0  0  0  0  0  0  0  0
   25.7991  -19.1969  -15.9560 C   0  0  1  0  0  0  0  0  0  0  0  0
   26.5342  -20.0554  -17.0273 C   0  0  0  0  0  0  0  0  0  0  0  0
   27.0808  -19.1288  -18.0743 C   0  0  0  0  0  0  0  0  0  0  0  0
   28.4926  -18.6902  -17.8765 C   0  0  0  0  0  0  0  0  0  0  0  0
   29.0688  -17.7789  -18.8858 C   0  0  0  0  0  0  0  0  0  0  0  0
   30.3940  -17.3183  -18.5721 N   0  0  0  0  0  0  0  0  0  0  0  0
   25.1438  -20.1528  -15.0153 C   0  0  0  0  0  0  0  0  0  0  0  0
   24.4037  -21.1019  -15.4595 O   0  0  0  0  0  0  0  0  0  0  0  0
   29.6114  -21.2831  -10.1544 C   0  0  0  0  0  0  0  0  0  0  0  0
   27.8475  -20.8804   -9.8826 S   0  0  0  0  0  0  0  0  0  0  0  0
   26.9519  -21.0784  -11.4791 C   0  0  0  0  0  0  0  0  0  0  0  0
   25.4998  -20.6639  -11.2542 C   0  0  0  0  0  0  0  0  0  0  0  0
   24.7143  -20.7237  -12.5613 C   0  0  2  0  0  0  0  0  0  0  0  0
   25.3492  -20.0091  -13.6345 N   0  0  0  0  0  0  0  0  0  0  0  0
   23.3161  -20.3740  -12.4518 C   0  0  0  0  0  0  0  0  0  0  0  0
   22.8448  -19.2725  -12.0763 O   0  0  0  0  0  0  0  0  0  0  0  0
   22.3527  -21.3547  -12.8016 N   0  0  0  0  0  0  0  0  0  0  0  0
   20.8843  -20.9845  -12.6846 C   0  0  1  0  0  0  0  0  0  0  0  0
   20.4420  -20.9520  -14.1125 C   0  0  0  0  0  0  0  0  0  0  0  0
   19.5228  -19.9972  -14.6706 C   0  0  0  0  0  0  0  0  0  0  0  0
   19.0819  -20.1228  -16.0819 C   0  0  0  0  0  0  0  0  0  0  0  0
   18.2238  -18.8634  -16.3704 C   0  0  0  0  0  0  0  0  0  0  0  0
   17.9313  -18.8784  -17.7858 N   0  0  0  0  0  0  0  0  0  0  0  0
   20.3384  -22.1271  -11.9391 C   0  0  0  0  0  0  0  0  0  0  0  0
   21.1094  -23.3218  -11.8355 O   0  0  0  0  0  0  0  0  0  0  0  0
   19.2046  -22.1476  -11.3671 O   0  0  0  0  0  0  0  0  0  0  0  0
  2  1  1  1
  2  8  1  0
  2  3  1  0
  3  4  1  0
  4  5  1  0
  5  6  1  0
  6  7  1  0
  8 15  1  0
  9  8  2  0
 10 11  1  0
 11 12  1  0
 14 13  1  1
 13 12  1  0
 15 14  1  0
 16 14  1  0
 16 17  2  0
 18 16  1  0
 19 18  1  0
 19 25  1  0
 19 20  1  6
 21 20  1  0
 21 22  1  0
 23 24  1  0
 23 22  1  0
 25 26  1  0
 27 25  2  0
M  END
$$$$
