KMK.pdb
     RDKit          3D

 27 26  0  0  1  0  0  0  0  0999 V2000
   20.9065  -20.2538  -11.6145 N   0  0  0  0  0  0  0  0  0  0  0  0
   21.8480  -20.9341  -12.4863 C   0  0  1  0  0  0  0  0  0  0  0  0
   21.4185  -20.6306  -13.9521 C   0  0  0  0  0  0  0  0  0  0  0  0
   20.0685  -21.2461  -14.1807 C   0  0  0  0  0  0  0  0  0  0  0  0
   19.9971  -22.7271  -14.0189 C   0  0  0  0  0  0  0  0  0  0  0  0
   18.6947  -23.3762  -14.2707 C   0  0  0  0  0  0  0  0  0  0  0  0
   18.6903  -24.7943  -14.0345 N   0  0  0  0  0  0  0  0  0  0  0  0
   23.2231  -20.3786  -12.3178 C   0  0  0  0  0  0  0  0  0  0  0  0
   23.6190  -19.3883  -13.0310 O   0  0  0  0  0  0  0  0  0  0  0  0
   27.2110  -19.6057   -7.1385 C   0  0  0  0  0  0  0  0  0  0  0  0
   27.9880  -21.0236   -7.9948 S   0  0  0  0  0  0  0  0  0  0  0  0
   27.5383  -20.9448   -9.7784 C   0  0  0  0  0  0  0  0  0  0  0  0
   26.0496  -21.2618   -9.8989 C   0  0  0  0  0  0  0  0  0  0  0  0
   25.5059  -20.7901  -11.2446 C   0  0  2  0  0  0  0  0  0  0  0  0
   24.0823  -20.9457  -11.3641 N   0  0  0  0  0  0  0  0  0  0  0  0
   26.1915  -21.3199  -12.4015 C   0  0  0  0  0  0  0  0  0  0  0  0
   26.2838  -22.5278  -12.7317 O   0  0  0  0  0  0  0  0  0  0  0  0
   26.8327  -20.4049  -13.2755 N   0  0  0  0  0  0  0  0  0  0  0  0
   27.2422  -20.9012  -14.6513 C   0  0  1  0  0  0  0  0  0  0  0  0
   25.9296  -21.0251  -15.3565 C   0  0  0  0  0  0  0  0  0  0  0  0
   25.7659  -21.3849  -16.7392 C   0  0  0  0  0  0  0  0  0  0  0  0
   24.4072  -21.5007  -17.3243 C   0  0  0  0  0  0  0  0  0  0  0  0
   24.6197  -21.8431  -18.8220 C   0  0  0  0  0  0  0  0  0  0  0  0
   24.2285  -23.2245  -18.9894 N   0  0  0  0  0  0  0  0  0  0  0  0
   28.0597  -19.7862  -15.1489 C   0  0  0  0  0  0  0  0  0  0  0  0
   28.8495  -19.9724  -16.3211 O   0  0  0  0  0  0  0  0  0  0  0  0
   28.1321  -18.6393  -14.6080 O   0  0  0  0  0  0  0  0  0  0  0  0
  2  1  1  1
  2  8  1  0
  2  3  1  0
  3  4  1  0
  4  5  1  0
  5  6  1  0
  6  7  1  0
  8 15  1  0
  9  8  2  0
 10 11  1  0
 11 12  1  0
 14 13  1  1
 13 12  1  0
 15 14  1  0
 16 14  1  0
 16 17  2  0
 18 16  1  0
 19 18  1  0
 19 25  1  0
 19 20  1  6
 21 20  1  0
 21 22  1  0
 23 24  1  0
 23 22  1  0
 25 26  1  0
 27 25  2  0
M  END
$$$$
