KMK.pdb
     RDKit          3D

 27 26  0  0  1  0  0  0  0  0999 V2000
   26.6821  -21.3944  -17.3732 N   0  0  0  0  0  0  0  0  0  0  0  0
   27.6661  -22.2407  -16.7214 C   0  0  1  0  0  0  0  0  0  0  0  0
   29.0699  -21.7631  -17.1972 C   0  0  0  0  0  0  0  0  0  0  0  0
   29.6295  -22.8049  -18.1219 C   0  0  0  0  0  0  0  0  0  0  0  0
   29.0363  -22.8412  -19.4899 C   0  0  0  0  0  0  0  0  0  0  0  0
   29.5553  -23.8560  -20.4290 C   0  0  0  0  0  0  0  0  0  0  0  0
   28.9420  -23.8211  -21.7288 N   0  0  0  0  0  0  0  0  0  0  0  0
   27.6279  -22.0544  -15.2409 C   0  0  0  0  0  0  0  0  0  0  0  0
   28.6283  -22.3962  -14.5140 O   0  0  0  0  0  0  0  0  0  0  0  0
   28.3833  -17.1510  -16.5746 C   0  0  0  0  0  0  0  0  0  0  0  0
   27.2509  -16.3993  -15.3499 S   0  0  0  0  0  0  0  0  0  0  0  0
   26.6727  -17.7192  -14.2040 C   0  0  0  0  0  0  0  0  0  0  0  0
   26.8460  -19.0609  -14.9119 C   0  0  0  0  0  0  0  0  0  0  0  0
   26.3474  -20.2029  -14.0307 C   0  0  2  0  0  0  0  0  0  0  0  0
   26.4867  -21.4936  -14.6472 N   0  0  0  0  0  0  0  0  0  0  0  0
   25.0213  -20.0212  -13.4854 C   0  0  0  0  0  0  0  0  0  0  0  0
   24.6178  -19.0493  -12.8003 O   0  0  0  0  0  0  0  0  0  0  0  0
   24.0521  -21.0262  -13.7363 N   0  0  0  0  0  0  0  0  0  0  0  0
   22.6650  -20.5857  -14.1706 C   0  0  1  0  0  0  0  0  0  0  0  0
   22.9515  -19.7511  -15.3777 C   0  0  0  0  0  0  0  0  0  0  0  0
   21.9585  -19.0775  -16.1704 C   0  0  0  0  0  0  0  0  0  0  0  0
   22.3610  -18.3042  -17.3711 C   0  0  0  0  0  0  0  0  0  0  0  0
   21.0551  -17.6819  -17.9306 C   0  0  0  0  0  0  0  0  0  0  0  0
   21.4202  -16.9677  -19.1331 N   0  0  0  0  0  0  0  0  0  0  0  0
   22.0240  -21.8673  -14.4962 C   0  0  0  0  0  0  0  0  0  0  0  0
   20.6251  -22.0223  -14.2691 O   0  0  0  0  0  0  0  0  0  0  0  0
   22.6244  -22.8812  -14.9700 O   0  0  0  0  0  0  0  0  0  0  0  0
  2  1  1  6
  2  8  1  0
  2  3  1  0
  3  4  1  0
  4  5  1  0
  5  6  1  0
  6  7  1  0
  8 15  1  0
  9  8  2  0
 10 11  1  0
 11 12  1  0
 14 13  1  6
 13 12  1  0
 15 14  1  0
 16 14  1  0
 16 17  2  0
 18 16  1  0
 19 18  1  0
 19 25  1  0
 19 20  1  6
 21 20  1  0
 21 22  1  0
 23 24  1  0
 23 22  1  0
 25 26  1  0
 27 25  2  0
M  END
$$$$
