KMK.pdb
     RDKit          3D

 27 26  0  0  1  0  0  0  0  0999 V2000
   26.5634  -23.7284  -15.7428 N   0  0  0  0  0  0  0  0  0  0  0  0
   25.1160  -23.8206  -15.8197 C   0  0  1  0  0  0  0  0  0  0  0  0
   24.7511  -25.3345  -15.8086 C   0  0  0  0  0  0  0  0  0  0  0  0
   25.1349  -25.9178  -17.1375 C   0  0  0  0  0  0  0  0  0  0  0  0
   26.3830  -26.7343  -17.1493 C   0  0  0  0  0  0  0  0  0  0  0  0
   26.7941  -27.3287  -18.4372 C   0  0  0  0  0  0  0  0  0  0  0  0
   25.7124  -27.9015  -19.1912 N   0  0  0  0  0  0  0  0  0  0  0  0
   24.4815  -23.2169  -14.6110 C   0  0  0  0  0  0  0  0  0  0  0  0
   23.2193  -23.3304  -14.4109 O   0  0  0  0  0  0  0  0  0  0  0  0
   26.2922  -20.3271   -7.4088 C   0  0  0  0  0  0  0  0  0  0  0  0
   26.9096  -20.9685   -9.0071 S   0  0  0  0  0  0  0  0  0  0  0  0
   25.4928  -21.0770  -10.1778 C   0  0  0  0  0  0  0  0  0  0  0  0
   26.0133  -21.6647  -11.4874 C   0  0  0  0  0  0  0  0  0  0  0  0
   24.8719  -21.8580  -12.4819 C   0  0  2  0  0  0  0  0  0  0  0  0
   25.2804  -22.5263  -13.6868 N   0  0  0  0  0  0  0  0  0  0  0  0
   24.1069  -20.6673  -12.7748 C   0  0  0  0  0  0  0  0  0  0  0  0
   24.5363  -19.6077  -13.2942 O   0  0  0  0  0  0  0  0  0  0  0  0
   22.7243  -20.6664  -12.4577 N   0  0  0  0  0  0  0  0  0  0  0  0
   21.8898  -19.4814  -12.9118 C   0  0  1  0  0  0  0  0  0  0  0  0
   21.8344  -19.6711  -14.3939 C   0  0  0  0  0  0  0  0  0  0  0  0
   20.9300  -18.9897  -15.2803 C   0  0  0  0  0  0  0  0  0  0  0  0
   20.9074  -19.3250  -16.7256 C   0  0  0  0  0  0  0  0  0  0  0  0
   19.7939  -18.4422  -17.3471 C   0  0  0  0  0  0  0  0  0  0  0  0
   19.6922  -18.8239  -18.7375 N   0  0  0  0  0  0  0  0  0  0  0  0
   20.6036  -19.7404  -12.2502 C   0  0  0  0  0  0  0  0  0  0  0  0
   19.8020  -18.6377  -11.8330 O   0  0  0  0  0  0  0  0  0  0  0  0
   20.1314  -20.8935  -12.0041 O   0  0  0  0  0  0  0  0  0  0  0  0
  2  1  1  1
  2  8  1  0
  2  3  1  0
  3  4  1  0
  4  5  1  0
  5  6  1  0
  6  7  1  0
  8 15  1  0
  9  8  2  0
 10 11  1  0
 11 12  1  0
 14 13  1  6
 13 12  1  0
 15 14  1  0
 16 14  1  0
 16 17  2  0
 18 16  1  0
 19 18  1  0
 19 25  1  0
 19 20  1  6
 21 20  1  0
 21 22  1  0
 23 24  1  0
 23 22  1  0
 25 26  1  0
 27 25  2  0
M  END
$$$$
