KMK.pdb
     RDKit          3D

 27 26  0  0  1  0  0  0  0  0999 V2000
   24.8979  -25.6953  -11.8774 N   0  0  0  0  0  0  0  0  0  0  0  0
   23.8092  -25.1733  -12.6846 C   0  0  1  0  0  0  0  0  0  0  0  0
   22.4833  -25.7134  -12.0719 C   0  0  0  0  0  0  0  0  0  0  0  0
   22.6532  -27.1819  -11.8104 C   0  0  0  0  0  0  0  0  0  0  0  0
   21.4086  -28.0004  -11.8855 C   0  0  0  0  0  0  0  0  0  0  0  0
   21.5209  -29.4385  -11.5688 C   0  0  0  0  0  0  0  0  0  0  0  0
   20.2765  -30.1547  -11.6425 N   0  0  0  0  0  0  0  0  0  0  0  0
   23.7490  -23.6846  -12.5944 C   0  0  0  0  0  0  0  0  0  0  0  0
   22.7210  -23.0459  -13.0200 O   0  0  0  0  0  0  0  0  0  0  0  0
   27.2506  -19.3008   -8.6220 C   0  0  0  0  0  0  0  0  0  0  0  0
   26.4006  -20.8318   -8.0923 S   0  0  0  0  0  0  0  0  0  0  0  0
   25.2172  -21.3279   -9.4126 C   0  0  0  0  0  0  0  0  0  0  0  0
   25.9250  -21.1722  -10.7564 C   0  0  0  0  0  0  0  0  0  0  0  0
   24.9965  -21.5639  -11.9026 C   0  0  2  0  0  0  0  0  0  0  0  0
   24.8277  -22.9852  -12.0316 N   0  0  0  0  0  0  0  0  0  0  0  0
   25.3046  -20.9534  -13.1759 C   0  0  0  0  0  0  0  0  0  0  0  0
   26.2832  -21.2163  -13.9175 O   0  0  0  0  0  0  0  0  0  0  0  0
   24.4270  -19.9531  -13.6672 N   0  0  0  0  0  0  0  0  0  0  0  0
   24.4133  -19.6892  -15.1628 C   0  0  1  0  0  0  0  0  0  0  0  0
   23.9326  -20.9914  -15.7187 C   0  0  0  0  0  0  0  0  0  0  0  0
   23.5076  -21.2030  -17.0761 C   0  0  0  0  0  0  0  0  0  0  0  0
   23.0660  -22.5488  -17.5185 C   0  0  0  0  0  0  0  0  0  0  0  0
   22.5698  -22.3727  -18.9773 C   0  0  0  0  0  0  0  0  0  0  0  0
   22.1450  -23.6782  -19.4295 N   0  0  0  0  0  0  0  0  0  0  0  0
   23.4186  -18.6134  -15.2754 C   0  0  0  0  0  0  0  0  0  0  0  0
   23.4835  -17.7202  -16.3847 O   0  0  0  0  0  0  0  0  0  0  0  0
   22.4825  -18.3984  -14.4445 O   0  0  0  0  0  0  0  0  0  0  0  0
  2  1  1  1
  2  8  1  0
  2  3  1  0
  3  4  1  0
  4  5  1  0
  5  6  1  0
  6  7  1  0
  8 15  1  0
  9  8  2  0
 10 11  1  0
 11 12  1  0
 14 13  1  1
 13 12  1  0
 15 14  1  0
 16 14  1  0
 16 17  2  0
 18 16  1  0
 19 18  1  0
 19 25  1  0
 19 20  1  6
 21 20  1  0
 21 22  1  0
 23 24  1  0
 23 22  1  0
 25 26  1  0
 27 25  2  0
M  END
$$$$
