KMK.pdb
     RDKit          3D

 27 26  0  0  1  0  0  0  0  0999 V2000
   28.1384  -20.2112  -15.4392 N   0  0  0  0  0  0  0  0  0  0  0  0
   27.4029  -21.4405  -15.6786 C   0  0  1  0  0  0  0  0  0  0  0  0
   28.4496  -22.5887  -15.7845 C   0  0  0  0  0  0  0  0  0  0  0  0
   29.1145  -22.4929  -17.1270 C   0  0  0  0  0  0  0  0  0  0  0  0
   29.0652  -23.7273  -17.9627 C   0  0  0  0  0  0  0  0  0  0  0  0
   30.3524  -24.3507  -18.3307 C   0  0  0  0  0  0  0  0  0  0  0  0
   30.2208  -25.5838  -19.0578 N   0  0  0  0  0  0  0  0  0  0  0  0
   26.5235  -21.7667  -14.5175 C   0  0  0  0  0  0  0  0  0  0  0  0
   25.7000  -22.7487  -14.5780 O   0  0  0  0  0  0  0  0  0  0  0  0
   25.5564  -20.7729   -6.7174 C   0  0  0  0  0  0  0  0  0  0  0  0
   26.5510  -20.3466   -8.1927 S   0  0  0  0  0  0  0  0  0  0  0  0
   25.5759  -20.7715   -9.6955 C   0  0  0  0  0  0  0  0  0  0  0  0
   26.5057  -20.6620  -10.9016 C   0  0  0  0  0  0  0  0  0  0  0  0
   25.7718  -21.0454  -12.1837 C   0  0  2  0  0  0  0  0  0  0  0  0
   26.6088  -20.9917  -13.3506 N   0  0  0  0  0  0  0  0  0  0  0  0
   24.5204  -20.3559  -12.4022 C   0  0  0  0  0  0  0  0  0  0  0  0
   24.3617  -19.1208  -12.5628 O   0  0  0  0  0  0  0  0  0  0  0  0
   23.3314  -21.1281  -12.4490 N   0  0  0  0  0  0  0  0  0  0  0  0
   22.0333  -20.4175  -12.7909 C   0  0  1  0  0  0  0  0  0  0  0  0
   21.5719  -21.1508  -14.0095 C   0  0  0  0  0  0  0  0  0  0  0  0
   20.2845  -20.9924  -14.6304 C   0  0  0  0  0  0  0  0  0  0  0  0
   19.9430  -21.7680  -15.8485 C   0  0  0  0  0  0  0  0  0  0  0  0
   18.4857  -21.3749  -16.2053 C   0  0  0  0  0  0  0  0  0  0  0  0
   18.1454  -22.0998  -17.4087 N   0  0  0  0  0  0  0  0  0  0  0  0
   21.2100  -20.6956  -11.6059 C   0  0  0  0  0  0  0  0  0  0  0  0
   20.0541  -19.8982  -11.3599 O   0  0  0  0  0  0  0  0  0  0  0  0
   21.4472  -21.6061  -10.7528 O   0  0  0  0  0  0  0  0  0  0  0  0
  2  1  1  1
  2  8  1  0
  2  3  1  0
  3  4  1  0
  4  5  1  0
  5  6  1  0
  6  7  1  0
  8 15  1  0
  9  8  2  0
 10 11  1  0
 11 12  1  0
 14 13  1  1
 13 12  1  0
 15 14  1  0
 16 14  1  0
 16 17  2  0
 18 16  1  0
 19 18  1  0
 19 25  1  0
 19 20  1  6
 21 20  1  0
 21 22  1  0
 23 24  1  0
 23 22  1  0
 25 26  1  0
 27 25  2  0
M  END
$$$$
