KMK.pdb
     RDKit          3D

 27 26  0  0  1  0  0  0  0  0999 V2000
   33.2499  -28.1985  -20.0268 N   0  0  0  0  0  0  0  0  0  0  0  0
   32.3368  -29.2883  -19.7302 C   0  0  1  0  0  0  0  0  0  0  0  0
   32.9281  -30.0658  -18.5173 C   0  0  0  0  0  0  0  0  0  0  0  0
   32.0011  -31.2011  -18.1929 C   0  0  0  0  0  0  0  0  0  0  0  0
   32.2397  -32.4663  -18.9460 C   0  0  0  0  0  0  0  0  0  0  0  0
   31.3236  -33.5951  -18.6858 C   0  0  0  0  0  0  0  0  0  0  0  0
   31.6332  -34.7857  -19.4296 N   0  0  0  0  0  0  0  0  0  0  0  0
   31.0080  -28.7637  -19.2977 C   0  0  0  0  0  0  0  0  0  0  0  0
   30.0490  -29.5679  -19.0157 O   0  0  0  0  0  0  0  0  0  0  0  0
   27.3389  -22.7322  -15.7761 C   0  0  0  0  0  0  0  0  0  0  0  0
   28.8340  -23.7541  -16.0361 S   0  0  0  0  0  0  0  0  0  0  0  0
   28.5301  -24.8794  -17.4613 C   0  0  0  0  0  0  0  0  0  0  0  0
   29.8168  -25.6583  -17.7238 C   0  0  0  0  0  0  0  0  0  0  0  0
   29.6144  -26.6686  -18.8495 C   0  0  2  0  0  0  0  0  0  0  0  0
   30.8160  -27.3773  -19.1946 N   0  0  0  0  0  0  0  0  0  0  0  0
   28.9537  -26.1502  -20.0258 C   0  0  0  0  0  0  0  0  0  0  0  0
   29.4196  -25.3195  -20.8440 O   0  0  0  0  0  0  0  0  0  0  0  0
   27.6438  -26.6119  -20.3146 N   0  0  0  0  0  0  0  0  0  0  0  0
   26.9669  -26.0942  -21.5719 C   0  0  1  0  0  0  0  0  0  0  0  0
   26.1372  -27.2624  -21.9994 C   0  0  0  0  0  0  0  0  0  0  0  0
   25.2185  -27.2618  -23.1058 C   0  0  0  0  0  0  0  0  0  0  0  0
   24.4434  -28.4841  -23.4326 C   0  0  0  0  0  0  0  0  0  0  0  0
   23.7073  -28.1750  -24.7623 C   0  0  0  0  0  0  0  0  0  0  0  0
   22.9705  -29.3679  -25.1134 N   0  0  0  0  0  0  0  0  0  0  0  0
   26.1646  -24.9786  -21.0511 C   0  0  0  0  0  0  0  0  0  0  0  0
   25.8307  -23.8981  -21.9192 O   0  0  0  0  0  0  0  0  0  0  0  0
   25.7349  -24.8857  -19.8596 O   0  0  0  0  0  0  0  0  0  0  0  0
  2  1  1  1
  2  8  1  0
  2  3  1  0
  3  4  1  0
  4  5  1  0
  5  6  1  0
  6  7  1  0
  8 15  1  0
  9  8  2  0
 10 11  1  0
 11 12  1  0
 14 13  1  1
 13 12  1  0
 15 14  1  0
 16 14  1  0
 16 17  2  0
 18 16  1  0
 19 18  1  0
 19 25  1  0
 19 20  1  1
 21 20  1  0
 21 22  1  0
 23 24  1  0
 23 22  1  0
 25 26  1  0
 27 25  2  0
M  END
$$$$
