KMK.pdb
     RDKit          3D

 27 26  0  0  1  0  0  0  0  0999 V2000
   28.7411  -21.3031  -15.1550 N   0  0  0  0  0  0  0  0  0  0  0  0
   28.3520  -20.5183  -13.9966 C   0  0  1  0  0  0  0  0  0  0  0  0
   28.1109  -19.0607  -14.4892 C   0  0  0  0  0  0  0  0  0  0  0  0
   27.6428  -19.1203  -15.9143 C   0  0  0  0  0  0  0  0  0  0  0  0
   27.4158  -17.8030  -16.5760 C   0  0  0  0  0  0  0  0  0  0  0  0
   26.9751  -17.8176  -17.9855 C   0  0  0  0  0  0  0  0  0  0  0  0
   25.6819  -18.4114  -18.1901 N   0  0  0  0  0  0  0  0  0  0  0  0
   27.0551  -21.0033  -13.4390 C   0  0  0  0  0  0  0  0  0  0  0  0
   26.2670  -21.7231  -14.1508 O   0  0  0  0  0  0  0  0  0  0  0  0
   26.1490  -19.3616   -7.3154 C   0  0  0  0  0  0  0  0  0  0  0  0
   26.6587  -21.1137   -7.4485 S   0  0  0  0  0  0  0  0  0  0  0  0
   26.5740  -21.6123   -9.2187 C   0  0  0  0  0  0  0  0  0  0  0  0
   25.5822  -20.6856   -9.9178 C   0  0  0  0  0  0  0  0  0  0  0  0
   25.5039  -21.0065  -11.4078 C   0  0  2  0  0  0  0  0  0  0  0  0
   26.7050  -20.6702  -12.1214 N   0  0  0  0  0  0  0  0  0  0  0  0
   24.3315  -20.4975  -12.0827 C   0  0  0  0  0  0  0  0  0  0  0  0
   24.1681  -19.3360  -12.5309 O   0  0  0  0  0  0  0  0  0  0  0  0
   23.2371  -21.3787  -12.2774 N   0  0  0  0  0  0  0  0  0  0  0  0
   22.0501  -20.8744  -13.0796 C   0  0  1  0  0  0  0  0  0  0  0  0
   22.0229  -21.8112  -14.2446 C   0  0  0  0  0  0  0  0  0  0  0  0
   21.1113  -21.7237  -15.3534 C   0  0  0  0  0  0  0  0  0  0  0  0
   21.1935  -22.7021  -16.4659 C   0  0  0  0  0  0  0  0  0  0  0  0
   20.0653  -22.3120  -17.4562 C   0  0  0  0  0  0  0  0  0  0  0  0
   18.8188  -22.4519  -16.7380 N   0  0  0  0  0  0  0  0  0  0  0  0
   20.9361  -21.0859  -12.1451 C   0  0  0  0  0  0  0  0  0  0  0  0
   19.6734  -20.4844  -12.4212 O   0  0  0  0  0  0  0  0  0  0  0  0
   21.0017  -21.7723  -11.0785 O   0  0  0  0  0  0  0  0  0  0  0  0
  2  1  1  6
  2  8  1  0
  2  3  1  0
  3  4  1  0
  4  5  1  0
  5  6  1  0
  6  7  1  0
  8 15  1  0
  9  8  2  0
 10 11  1  0
 11 12  1  0
 14 13  1  1
 13 12  1  0
 15 14  1  0
 16 14  1  0
 16 17  2  0
 18 16  1  0
 19 18  1  0
 19 25  1  0
 19 20  1  6
 21 20  1  0
 21 22  1  0
 23 24  1  0
 23 22  1  0
 25 26  1  0
 27 25  2  0
M  END
$$$$
