KMK.pdb
     RDKit          3D

 27 26  0  0  1  0  0  0  0  0999 V2000
   23.4221  -17.2425  -18.6071 N   0  0  0  0  0  0  0  0  0  0  0  0
   22.1367  -16.7087  -18.1921 C   0  0  1  0  0  0  0  0  0  0  0  0
   21.5148  -17.7313  -17.1958 C   0  0  0  0  0  0  0  0  0  0  0  0
   20.8433  -18.8117  -17.9931 C   0  0  0  0  0  0  0  0  0  0  0  0
   21.3128  -20.2014  -17.7231 C   0  0  0  0  0  0  0  0  0  0  0  0
   20.6452  -21.2981  -18.4530 C   0  0  0  0  0  0  0  0  0  0  0  0
   19.9162  -22.2059  -17.6097 N   0  0  0  0  0  0  0  0  0  0  0  0
   22.3111  -15.4300  -17.4421 C   0  0  0  0  0  0  0  0  0  0  0  0
   21.2982  -14.8269  -16.9358 O   0  0  0  0  0  0  0  0  0  0  0  0
   27.9961  -10.7838  -14.2667 C   0  0  0  0  0  0  0  0  0  0  0  0
   27.5539  -12.3784  -15.0470 S   0  0  0  0  0  0  0  0  0  0  0  0
   25.7761  -12.3213  -15.5224 C   0  0  0  0  0  0  0  0  0  0  0  0
   25.4105  -13.6753  -16.1258 C   0  0  0  0  0  0  0  0  0  0  0  0
   23.9782  -13.6610  -16.6525 C   0  0  2  0  0  0  0  0  0  0  0  0
   23.5983  -14.8925  -17.2882 N   0  0  0  0  0  0  0  0  0  0  0  0
   23.6388  -12.5199  -17.4721 C   0  0  0  0  0  0  0  0  0  0  0  0
   23.9868  -12.3198  -18.6618 O   0  0  0  0  0  0  0  0  0  0  0  0
   22.8263  -11.5061  -16.9025 N   0  0  0  0  0  0  0  0  0  0  0  0
   22.5314  -10.2744  -17.7410 C   0  0  1  0  0  0  0  0  0  0  0  0
   21.0537  -10.3685  -17.9489 C   0  0  0  0  0  0  0  0  0  0  0  0
   20.2262   -9.3189  -18.4797 C   0  0  0  0  0  0  0  0  0  0  0  0
   18.7621   -9.5193  -18.6149 C   0  0  0  0  0  0  0  0  0  0  0  0
   18.2031   -8.1861  -19.1767 C   0  0  0  0  0  0  0  0  0  0  0  0
   16.7976   -8.4038  -19.4349 N   0  0  0  0  0  0  0  0  0  0  0  0
   22.9164   -9.1855  -16.8325 C   0  0  0  0  0  0  0  0  0  0  0  0
   23.0684   -7.8670  -17.3531 O   0  0  0  0  0  0  0  0  0  0  0  0
   23.1384   -9.3197  -15.5892 O   0  0  0  0  0  0  0  0  0  0  0  0
  2  1  1  1
  2  8  1  0
  2  3  1  0
  3  4  1  0
  4  5  1  0
  5  6  1  0
  6  7  1  0
  8 15  1  0
  9  8  2  0
 10 11  1  0
 11 12  1  0
 14 13  1  6
 13 12  1  0
 15 14  1  0
 16 14  1  0
 16 17  2  0
 18 16  1  0
 19 18  1  0
 19 25  1  0
 19 20  1  1
 21 20  1  0
 21 22  1  0
 23 24  1  0
 23 22  1  0
 25 26  1  0
 27 25  2  0
M  END
$$$$
