KMK.pdb
     RDKit          3D

 27 26  0  0  1  0  0  0  0  0999 V2000
   24.3329  -20.6073  -16.1198 N   0  0  0  0  0  0  0  0  0  0  0  0
   23.4644  -19.9681  -15.1469 C   0  0  1  0  0  0  0  0  0  0  0  0
   23.7775  -20.6075  -13.7618 C   0  0  0  0  0  0  0  0  0  0  0  0
   23.6803  -22.0989  -13.9026 C   0  0  0  0  0  0  0  0  0  0  0  0
   24.8490  -22.7653  -14.5465 C   0  0  0  0  0  0  0  0  0  0  0  0
   24.8008  -24.2346  -14.6875 C   0  0  0  0  0  0  0  0  0  0  0  0
   25.9320  -24.7957  -15.3747 N   0  0  0  0  0  0  0  0  0  0  0  0
   23.7794  -18.5138  -15.0298 C   0  0  0  0  0  0  0  0  0  0  0  0
   23.1869  -17.7860  -14.1550 O   0  0  0  0  0  0  0  0  0  0  0  0
   29.2343  -13.0723  -17.0337 C   0  0  0  0  0  0  0  0  0  0  0  0
   28.7393  -14.8331  -16.9904 S   0  0  0  0  0  0  0  0  0  0  0  0
   26.9701  -14.9289  -16.4898 C   0  0  0  0  0  0  0  0  0  0  0  0
   26.6317  -16.3983  -16.2501 C   0  0  0  0  0  0  0  0  0  0  0  0
   25.1393  -16.5700  -15.9810 C   0  0  2  0  0  0  0  0  0  0  0  0
   24.7381  -17.9466  -15.8833 N   0  0  0  0  0  0  0  0  0  0  0  0
   24.2685  -15.8304  -16.8662 C   0  0  0  0  0  0  0  0  0  0  0  0
   23.9486  -16.1437  -18.0393 O   0  0  0  0  0  0  0  0  0  0  0  0
   23.6978  -14.6233  -16.3873 N   0  0  0  0  0  0  0  0  0  0  0  0
   22.7252  -13.8868  -17.2920 C   0  0  1  0  0  0  0  0  0  0  0  0
   21.4009  -14.2087  -16.6769 C   0  0  0  0  0  0  0  0  0  0  0  0
   20.1416  -13.6493  -17.0884 C   0  0  0  0  0  0  0  0  0  0  0  0
   18.8806  -14.0996  -16.4489 C   0  0  0  0  0  0  0  0  0  0  0  0
   17.7482  -13.2859  -17.1279 C   0  0  0  0  0  0  0  0  0  0  0  0
   16.5257  -13.6200  -16.4328 N   0  0  0  0  0  0  0  0  0  0  0  0
   23.1250  -12.4863  -17.0969 C   0  0  0  0  0  0  0  0  0  0  0  0
   22.6497  -11.4949  -18.0044 O   0  0  0  0  0  0  0  0  0  0  0  0
   23.8838  -12.0692  -16.1677 O   0  0  0  0  0  0  0  0  0  0  0  0
  2  1  1  6
  2  8  1  0
  2  3  1  0
  3  4  1  0
  4  5  1  0
  5  6  1  0
  6  7  1  0
  8 15  1  0
  9  8  2  0
 10 11  1  0
 11 12  1  0
 14 13  1  6
 13 12  1  0
 15 14  1  0
 16 14  1  0
 16 17  2  0
 18 16  1  0
 19 18  1  0
 19 25  1  0
 19 20  1  1
 21 20  1  0
 21 22  1  0
 23 24  1  0
 23 22  1  0
 25 26  1  0
 27 25  2  0
M  END
$$$$
