PDF.pdb
     RDKit          3D

 27 28  0  0  1  0  0  0  0  0999 V2000
   28.0562  -21.9355  -15.4734 N   0  0  0  0  0  0  0  0  0  0  0  0
   27.6962  -22.2003  -16.8326 C   0  0  0  0  0  0  0  0  0  0  0  0
   28.2152  -20.9884  -17.5741 C   0  0  0  0  0  0  0  0  0  0  0  0
   27.8099  -19.8678  -16.6069 C   0  0  0  0  0  0  0  0  0  0  0  0
   28.0291  -20.5227  -15.2818 C   0  0  1  0  0  0  0  0  0  0  0  0
   27.0932  -20.1393  -14.2355 C   0  0  0  0  0  0  0  0  0  0  0  0
   26.9612  -18.9174  -13.9651 O   0  0  0  0  0  0  0  0  0  0  0  0
   26.3014  -21.0390  -13.4790 N   0  0  0  0  0  0  0  0  0  0  0  0
   25.3552  -20.6738  -12.4715 C   0  0  1  0  0  0  0  0  0  0  0  0
   24.0000  -21.2875  -12.6469 C   0  0  0  0  0  0  0  0  0  0  0  0
   22.9771  -20.7379  -11.7584 C   0  0  0  0  0  0  0  0  0  0  0  0
   23.0960  -19.6775  -11.0934 O   0  0  0  0  0  0  0  0  0  0  0  0
   25.8705  -21.0579  -11.1206 C   0  0  0  0  0  0  0  0  0  0  0  0
   26.1916  -22.2469  -10.8801 O   0  0  0  0  0  0  0  0  0  0  0  0
   21.7796  -21.4281  -11.6295 O   0  0  0  0  0  0  0  0  0  0  0  0
   26.0132  -20.1045  -10.0761 N   0  0  0  0  0  0  0  0  0  0  0  0
   26.5695  -20.4409   -8.7677 C   0  0  1  0  0  0  0  0  0  0  0  0
   27.6720  -19.5096   -8.3864 C   0  0  0  0  0  0  0  0  0  0  0  0
   28.1481  -19.7665   -7.0118 C   0  0  0  0  0  0  0  0  0  0  0  0
   29.0548  -20.7875   -6.7291 C   0  0  0  0  0  0  0  0  0  0  0  0
   29.5168  -21.0223   -5.4654 C   0  0  0  0  0  0  0  0  0  0  0  0
   29.1057  -20.2536   -4.3937 C   0  0  0  0  0  0  0  0  0  0  0  0
   28.2165  -19.2492   -4.6590 C   0  0  0  0  0  0  0  0  0  0  0  0
   27.7430  -19.0000   -5.9207 C   0  0  0  0  0  0  0  0  0  0  0  0
   25.5105  -20.5396   -7.7477 C   0  0  0  0  0  0  0  0  0  0  0  0
   25.7044  -21.2899   -6.7567 O   0  0  0  0  0  0  0  0  0  0  0  0
   24.3133  -19.8598   -7.8040 O   0  0  0  0  0  0  0  0  0  0  0  0
  1  2  1  0
  3  2  1  0
  4  3  1  0
  5  4  1  0
  5  1  1  0
  5  6  1  1
  7  6  2  0
  8  6  1  0
  9  8  1  0
  9 10  1  6
 11 10  1  0
 12 11  2  0
 13  9  1  0
 13 14  2  0
 15 11  1  0
 16 17  1  0
 16 13  1  0
 17 18  1  1
 19 18  1  0
 19 20  2  0
 20 21  1  0
 22 21  2  0
 23 24  2  0
 23 22  1  0
 24 19  1  0
 25 17  1  0
 26 25  2  0
 27 25  1  0
M  END
$$$$
