PDF.pdb
     RDKit          3D

 27 28  0  0  1  0  0  0  0  0999 V2000
   21.4253   -1.0593  -20.2314 N   0  0  0  0  0  0  0  0  0  0  0  0
   21.3237    0.3572  -20.4050 C   0  0  0  0  0  0  0  0  0  0  0  0
   22.7112    0.8519  -20.0611 C   0  0  0  0  0  0  0  0  0  0  0  0
   23.0233   -0.0093  -18.8297 C   0  0  0  0  0  0  0  0  0  0  0  0
   22.3791   -1.3056  -19.2004 C   0  0  1  0  0  0  0  0  0  0  0  0
   21.7957   -2.0496  -18.0941 C   0  0  0  0  0  0  0  0  0  0  0  0
   22.5377   -2.3759  -17.1315 O   0  0  0  0  0  0  0  0  0  0  0  0
   20.4383   -2.4470  -18.0035 N   0  0  0  0  0  0  0  0  0  0  0  0
   19.8441   -3.1436  -16.9056 C   0  0  1  0  0  0  0  0  0  0  0  0
   18.4542   -2.6962  -16.5712 C   0  0  0  0  0  0  0  0  0  0  0  0
   17.8994   -3.3207  -15.3711 C   0  0  0  0  0  0  0  0  0  0  0  0
   16.6940   -3.6452  -15.2206 O   0  0  0  0  0  0  0  0  0  0  0  0
   19.8065   -4.6119  -17.1898 C   0  0  0  0  0  0  0  0  0  0  0  0
   19.3598   -5.0336  -18.2840 O   0  0  0  0  0  0  0  0  0  0  0  0
   18.7561   -3.5807  -14.3103 O   0  0  0  0  0  0  0  0  0  0  0  0
   20.2684   -5.5682  -16.2452 N   0  0  0  0  0  0  0  0  0  0  0  0
   20.2891   -7.0036  -16.5173 C   0  0  1  0  0  0  0  0  0  0  0  0
   21.6655   -7.5655  -16.3840 C   0  0  0  0  0  0  0  0  0  0  0  0
   21.9857   -7.8891  -14.9787 C   0  0  0  0  0  0  0  0  0  0  0  0
   22.1230   -6.8948  -14.0107 C   0  0  0  0  0  0  0  0  0  0  0  0
   22.3999   -7.1828  -12.7046 C   0  0  0  0  0  0  0  0  0  0  0  0
   22.5595   -8.4851  -12.2723 C   0  0  0  0  0  0  0  0  0  0  0  0
   22.4270   -9.4688  -13.2130 C   0  0  0  0  0  0  0  0  0  0  0  0
   22.1493   -9.1974  -14.5274 C   0  0  0  0  0  0  0  0  0  0  0  0
   19.2875   -7.7148  -15.7035 C   0  0  0  0  0  0  0  0  0  0  0  0
   18.7390   -7.0949  -14.7560 O   0  0  0  0  0  0  0  0  0  0  0  0
   18.9056   -9.0223  -15.9114 O   0  0  0  0  0  0  0  0  0  0  0  0
  1  2  1  0
  3  2  1  0
  4  3  1  0
  5  4  1  0
  5  1  1  0
  5  6  1  1
  7  6  2  0
  8  6  1  0
  9  8  1  0
  9 10  1  6
 11 10  1  0
 12 11  2  0
 13  9  1  0
 13 14  2  0
 15 11  1  0
 16 17  1  0
 16 13  1  0
 17 18  1  1
 19 18  1  0
 19 20  2  0
 20 21  1  0
 22 21  2  0
 23 24  2  0
 23 22  1  0
 24 19  1  0
 25 17  1  0
 26 25  2  0
 27 25  1  0
M  END
$$$$
