PDF.pdb
     RDKit          3D

 27 28  0  0  1  0  0  0  0  0999 V2000
   27.3891  -21.0411  -15.1080 N   0  0  0  0  0  0  0  0  0  0  0  0
   27.0644  -20.6211  -16.4366 C   0  0  0  0  0  0  0  0  0  0  0  0
   28.0028  -19.4591  -16.6751 C   0  0  0  0  0  0  0  0  0  0  0  0
   27.9135  -18.7390  -15.3228 C   0  0  0  0  0  0  0  0  0  0  0  0
   27.8090  -19.8910  -14.3769 C   0  0  1  0  0  0  0  0  0  0  0  0
   26.9738  -19.6623  -13.2073 C   0  0  0  0  0  0  0  0  0  0  0  0
   27.0702  -18.5612  -12.6057 O   0  0  0  0  0  0  0  0  0  0  0  0
   26.0428  -20.5891  -12.6754 N   0  0  0  0  0  0  0  0  0  0  0  0
   25.1851  -20.3606  -11.5547 C   0  0  1  0  0  0  0  0  0  0  0  0
   23.8612  -21.0563  -11.6397 C   0  0  0  0  0  0  0  0  0  0  0  0
   23.0491  -20.6544  -12.7874 C   0  0  0  0  0  0  0  0  0  0  0  0
   22.6452  -19.4845  -13.0086 O   0  0  0  0  0  0  0  0  0  0  0  0
   25.8617  -20.7965  -10.2937 C   0  0  0  0  0  0  0  0  0  0  0  0
   26.1971  -21.9955  -10.1372 O   0  0  0  0  0  0  0  0  0  0  0  0
   22.6896  -21.6271  -13.7102 O   0  0  0  0  0  0  0  0  0  0  0  0
   26.1451  -19.8823   -9.2429 N   0  0  0  0  0  0  0  0  0  0  0  0
   26.7901  -20.2852   -7.9954 C   0  0  1  0  0  0  0  0  0  0  0  0
   27.5281  -19.1487   -7.3695 C   0  0  0  0  0  0  0  0  0  0  0  0
   28.1109  -19.5317   -6.0673 C   0  0  0  0  0  0  0  0  0  0  0  0
   27.5776  -19.0745   -4.8628 C   0  0  0  0  0  0  0  0  0  0  0  0
   28.0959  -19.4369   -3.6522 C   0  0  0  0  0  0  0  0  0  0  0  0
   29.1844  -20.2824   -3.5588 C   0  0  0  0  0  0  0  0  0  0  0  0
   29.7160  -20.7372   -4.7338 C   0  0  0  0  0  0  0  0  0  0  0  0
   29.2083  -20.3835   -5.9567 C   0  0  0  0  0  0  0  0  0  0  0  0
   25.8296  -20.9301   -7.0828 C   0  0  0  0  0  0  0  0  0  0  0  0
   24.6080  -20.6586   -7.2130 O   0  0  0  0  0  0  0  0  0  0  0  0
   26.1795  -21.8187   -6.0896 O   0  0  0  0  0  0  0  0  0  0  0  0
  1  2  1  0
  3  2  1  0
  4  3  1  0
  5  4  1  0
  5  1  1  0
  5  6  1  1
  7  6  2  0
  8  6  1  0
  9  8  1  0
  9 10  1  6
 11 10  1  0
 12 11  2  0
 13  9  1  0
 13 14  2  0
 15 11  1  0
 16 17  1  0
 16 13  1  0
 17 18  1  1
 19 18  1  0
 19 20  2  0
 20 21  1  0
 22 21  2  0
 23 24  2  0
 23 22  1  0
 24 19  1  0
 25 17  1  0
 26 25  2  0
 27 25  1  0
M  END
$$$$
