PDF.pdb
     RDKit          3D

 27 28  0  0  1  0  0  0  0  0999 V2000
   28.0070  -19.0956  -17.7021 N   0  0  0  0  0  0  0  0  0  0  0  0
   28.3616  -18.3829  -18.8909 C   0  0  0  0  0  0  0  0  0  0  0  0
   29.4232  -17.4160  -18.4153 C   0  0  0  0  0  0  0  0  0  0  0  0
   28.8106  -16.9516  -17.0870 C   0  0  0  0  0  0  0  0  0  0  0  0
   28.1708  -18.2098  -16.5967 C   0  0  1  0  0  0  0  0  0  0  0  0
   26.9276  -18.0306  -15.8618 C   0  0  0  0  0  0  0  0  0  0  0  0
   26.9148  -17.2351  -14.8869 O   0  0  0  0  0  0  0  0  0  0  0  0
   25.7054  -18.6864  -16.1533 N   0  0  0  0  0  0  0  0  0  0  0  0
   24.4915  -18.5585  -15.4091 C   0  0  1  0  0  0  0  0  0  0  0  0
   23.3049  -18.1556  -16.2298 C   0  0  0  0  0  0  0  0  0  0  0  0
   22.0902  -17.9256  -15.4488 C   0  0  0  0  0  0  0  0  0  0  0  0
   21.1165  -18.7181  -15.3828 O   0  0  0  0  0  0  0  0  0  0  0  0
   24.1702  -19.8500  -14.7261 C   0  0  0  0  0  0  0  0  0  0  0  0
   23.8326  -20.8546  -15.3980 O   0  0  0  0  0  0  0  0  0  0  0  0
   21.9910  -16.7479  -14.7206 O   0  0  0  0  0  0  0  0  0  0  0  0
   24.2347  -19.9844  -13.3125 N   0  0  0  0  0  0  0  0  0  0  0  0
   23.9880  -21.2500  -12.6255 C   0  0  1  0  0  0  0  0  0  0  0  0
   25.1856  -21.6958  -11.8541 C   0  0  0  0  0  0  0  0  0  0  0  0
   25.3586  -20.9072  -10.6170 C   0  0  0  0  0  0  0  0  0  0  0  0
   24.7975  -21.3112   -9.4060 C   0  0  0  0  0  0  0  0  0  0  0  0
   24.9664  -20.6006   -8.2518 C   0  0  0  0  0  0  0  0  0  0  0  0
   25.7081  -19.4355   -8.2252 C   0  0  0  0  0  0  0  0  0  0  0  0
   26.2633  -19.0295   -9.4072 C   0  0  0  0  0  0  0  0  0  0  0  0
   26.1038  -19.7304  -10.5741 C   0  0  0  0  0  0  0  0  0  0  0  0
   22.7614  -21.1843  -11.8116 C   0  0  0  0  0  0  0  0  0  0  0  0
   22.3009  -20.0513  -11.5164 O   0  0  0  0  0  0  0  0  0  0  0  0
   22.0770  -22.2872  -11.3492 O   0  0  0  0  0  0  0  0  0  0  0  0
  1  2  1  0
  3  2  1  0
  4  3  1  0
  5  4  1  0
  5  1  1  0
  5  6  1  6
  7  6  2  0
  8  6  1  0
  9  8  1  0
  9 10  1  6
 11 10  1  0
 12 11  2  0
 13  9  1  0
 13 14  2  0
 15 11  1  0
 16 17  1  0
 16 13  1  0
 17 18  1  1
 19 18  1  0
 19 20  2  0
 20 21  1  0
 22 21  2  0
 23 24  2  0
 23 22  1  0
 24 19  1  0
 25 17  1  0
 26 25  2  0
 27 25  1  0
M  END
$$$$
