PDF.pdb
     RDKit          3D

 27 28  0  0  1  0  0  0  0  0999 V2000
   21.8829  -12.6901  -16.7357 N   0  0  0  0  0  0  0  0  0  0  0  0
   21.6953  -13.8004  -17.6183 C   0  0  0  0  0  0  0  0  0  0  0  0
   22.9624  -13.8082  -18.4444 C   0  0  0  0  0  0  0  0  0  0  0  0
   23.1383  -12.3069  -18.7100 C   0  0  0  0  0  0  0  0  0  0  0  0
   22.6720  -11.7180  -17.4183 C   0  0  1  0  0  0  0  0  0  0  0  0
   21.9784  -10.4436  -17.5295 C   0  0  0  0  0  0  0  0  0  0  0  0
   22.5987   -9.4619  -18.0143 O   0  0  0  0  0  0  0  0  0  0  0  0
   20.6389  -10.2060  -17.1320 N   0  0  0  0  0  0  0  0  0  0  0  0
   19.9368   -8.9674  -17.2625 C   0  0  1  0  0  0  0  0  0  0  0  0
   18.4492   -9.1099  -17.3647 C   0  0  0  0  0  0  0  0  0  0  0  0
   18.0051   -9.9385  -18.4846 C   0  0  0  0  0  0  0  0  0  0  0  0
   18.4380   -9.8492  -19.6617 O   0  0  0  0  0  0  0  0  0  0  0  0
   20.2422   -8.0797  -16.0977 C   0  0  0  0  0  0  0  0  0  0  0  0
   19.7871   -8.3494  -14.9598 O   0  0  0  0  0  0  0  0  0  0  0  0
   17.0331  -10.9001  -18.2450 O   0  0  0  0  0  0  0  0  0  0  0  0
   21.0468   -6.9161  -16.2353 N   0  0  0  0  0  0  0  0  0  0  0  0
   21.4167   -6.0709  -15.1024 C   0  0  1  0  0  0  0  0  0  0  0  0
   22.8840   -6.1273  -14.8344 C   0  0  0  0  0  0  0  0  0  0  0  0
   23.3356   -7.5099  -14.5760 C   0  0  0  0  0  0  0  0  0  0  0  0
   22.8597   -8.2455  -13.4911 C   0  0  0  0  0  0  0  0  0  0  0  0
   23.2552   -9.5309  -13.2527 C   0  0  0  0  0  0  0  0  0  0  0  0
   24.1546  -10.1732  -14.0815 C   0  0  0  0  0  0  0  0  0  0  0  0
   24.6282   -9.4615  -15.1489 C   0  0  0  0  0  0  0  0  0  0  0  0
   24.2419   -8.1712  -15.4026 C   0  0  0  0  0  0  0  0  0  0  0  0
   20.9072   -4.6987  -15.2725 C   0  0  0  0  0  0  0  0  0  0  0  0
   20.3489   -4.3997  -16.3596 O   0  0  0  0  0  0  0  0  0  0  0  0
   20.9992   -3.7126  -14.3145 O   0  0  0  0  0  0  0  0  0  0  0  0
  1  2  1  0
  3  2  1  0
  4  3  1  0
  5  4  1  0
  5  1  1  0
  5  6  1  6
  7  6  2  0
  8  6  1  0
  9  8  1  0
  9 10  1  1
 11 10  1  0
 12 11  2  0
 13  9  1  0
 13 14  2  0
 15 11  1  0
 16 17  1  0
 16 13  1  0
 17 18  1  6
 19 18  1  0
 19 20  2  0
 20 21  1  0
 22 21  2  0
 23 24  2  0
 23 22  1  0
 24 19  1  0
 25 17  1  0
 26 25  2  0
 27 25  1  0
M  END
$$$$
