PDF.pdb
     RDKit          3D

 27 28  0  0  1  0  0  0  0  0999 V2000
   20.2191  -13.3122  -16.1603 N   0  0  0  0  0  0  0  0  0  0  0  0
   19.4661  -14.3882  -16.7277 C   0  0  0  0  0  0  0  0  0  0  0  0
   19.9133  -14.4040  -18.1726 C   0  0  0  0  0  0  0  0  0  0  0  0
   19.9409  -12.9003  -18.4784 C   0  0  0  0  0  0  0  0  0  0  0  0
   20.4306  -12.3405  -17.1823 C   0  0  1  0  0  0  0  0  0  0  0  0
   19.8788  -11.0449  -16.8157 C   0  0  0  0  0  0  0  0  0  0  0  0
   20.2871  -10.0230  -17.4261 O   0  0  0  0  0  0  0  0  0  0  0  0
   18.9024  -10.8282  -15.8115 N   0  0  0  0  0  0  0  0  0  0  0  0
   18.2973   -9.5728  -15.4928 C   0  0  1  0  0  0  0  0  0  0  0  0
   16.9601   -9.6843  -14.8271 C   0  0  0  0  0  0  0  0  0  0  0  0
   15.9516  -10.3776  -15.6273 C   0  0  0  0  0  0  0  0  0  0  0  0
   15.6054  -10.0488  -16.7904 O   0  0  0  0  0  0  0  0  0  0  0  0
   19.1991   -8.7808  -14.5999 C   0  0  0  0  0  0  0  0  0  0  0  0
   19.5884   -9.2600  -13.5074 O   0  0  0  0  0  0  0  0  0  0  0  0
   15.3209  -11.4835  -15.0741 O   0  0  0  0  0  0  0  0  0  0  0  0
   19.6413   -7.4764  -14.9510 N   0  0  0  0  0  0  0  0  0  0  0  0
   20.3475   -6.6018  -14.0176 C   0  0  1  0  0  0  0  0  0  0  0  0
   21.7981   -6.5003  -14.3544 C   0  0  0  0  0  0  0  0  0  0  0  0
   22.1867   -5.1095  -14.6656 C   0  0  0  0  0  0  0  0  0  0  0  0
   22.6195   -4.7367  -15.9377 C   0  0  0  0  0  0  0  0  0  0  0  0
   22.9632   -3.4505  -16.2426 C   0  0  0  0  0  0  0  0  0  0  0  0
   22.8990   -2.4446  -15.2979 C   0  0  0  0  0  0  0  0  0  0  0  0
   22.4758   -2.7984  -14.0466 C   0  0  0  0  0  0  0  0  0  0  0  0
   22.1272   -4.0840  -13.7239 C   0  0  0  0  0  0  0  0  0  0  0  0
   19.6814   -5.2921  -13.9067 C   0  0  0  0  0  0  0  0  0  0  0  0
   19.7027   -4.7039  -12.7947 O   0  0  0  0  0  0  0  0  0  0  0  0
   19.0330   -4.6608  -14.9458 O   0  0  0  0  0  0  0  0  0  0  0  0
  1  2  1  0
  3  2  1  0
  4  3  1  0
  5  4  1  0
  5  1  1  0
  5  6  1  1
  7  6  2  0
  8  6  1  0
  9  8  1  0
  9 10  1  1
 11 10  1  0
 12 11  2  0
 13  9  1  0
 13 14  2  0
 15 11  1  0
 16 17  1  0
 16 13  1  0
 17 18  1  6
 19 18  1  0
 19 20  2  0
 20 21  1  0
 22 21  2  0
 23 24  2  0
 23 22  1  0
 24 19  1  0
 25 17  1  0
 26 25  2  0
 27 25  1  0
M  END
$$$$
