PDF.pdb
     RDKit          3D

 27 28  0  0  1  0  0  0  0  0999 V2000
   29.0350  -19.9422  -18.3331 N   0  0  0  0  0  0  0  0  0  0  0  0
   29.0866  -18.6757  -18.9965 C   0  0  0  0  0  0  0  0  0  0  0  0
   29.3856  -17.7056  -17.8752 C   0  0  0  0  0  0  0  0  0  0  0  0
   28.4635  -18.2488  -16.7754 C   0  0  0  0  0  0  0  0  0  0  0  0
   28.5560  -19.7220  -17.0082 C   0  0  1  0  0  0  0  0  0  0  0  0
   27.3367  -20.4716  -16.7452 C   0  0  0  0  0  0  0  0  0  0  0  0
   26.2295  -19.9057  -16.9389 O   0  0  0  0  0  0  0  0  0  0  0  0
   27.2854  -21.8096  -16.2808 N   0  0  0  0  0  0  0  0  0  0  0  0
   26.1015  -22.5184  -15.9067 C   0  0  1  0  0  0  0  0  0  0  0  0
   26.2912  -23.9960  -15.7499 C   0  0  0  0  0  0  0  0  0  0  0  0
   25.0997  -24.7039  -15.2840 C   0  0  0  0  0  0  0  0  0  0  0  0
   24.9769  -25.2387  -14.1528 O   0  0  0  0  0  0  0  0  0  0  0  0
   25.5650  -21.9771  -14.6194 C   0  0  0  0  0  0  0  0  0  0  0  0
   26.3072  -21.8890  -13.6114 O   0  0  0  0  0  0  0  0  0  0  0  0
   24.0149  -24.8006  -16.1446 O   0  0  0  0  0  0  0  0  0  0  0  0
   24.2154  -21.5493  -14.4931 N   0  0  0  0  0  0  0  0  0  0  0  0
   23.6631  -21.0302  -13.2440 C   0  0  1  0  0  0  0  0  0  0  0  0
   23.4941  -19.5480  -13.2951 C   0  0  0  0  0  0  0  0  0  0  0  0
   22.5898  -19.1426  -14.3906 C   0  0  0  0  0  0  0  0  0  0  0  0
   21.2303  -18.9197  -14.1742 C   0  0  0  0  0  0  0  0  0  0  0  0
   20.3882  -18.5262  -15.1749 C   0  0  0  0  0  0  0  0  0  0  0  0
   20.8443  -18.3272  -16.4635 C   0  0  0  0  0  0  0  0  0  0  0  0
   22.1759  -18.5428  -16.6878 C   0  0  0  0  0  0  0  0  0  0  0  0
   23.0346  -18.9378  -15.6953 C   0  0  0  0  0  0  0  0  0  0  0  0
   22.4306  -21.7452  -12.8685 C   0  0  0  0  0  0  0  0  0  0  0  0
   21.8935  -21.4698  -11.7646 O   0  0  0  0  0  0  0  0  0  0  0  0
   21.8194  -22.7012  -13.6502 O   0  0  0  0  0  0  0  0  0  0  0  0
  1  2  1  0
  3  2  1  0
  4  3  1  0
  5  4  1  0
  5  1  1  0
  5  6  1  6
  7  6  2  0
  8  6  1  0
  9  8  1  0
  9 10  1  1
 11 10  1  0
 12 11  2  0
 13  9  1  0
 13 14  2  0
 15 11  1  0
 16 17  1  0
 16 13  1  0
 17 18  1  6
 19 18  1  0
 19 20  2  0
 20 21  1  0
 22 21  2  0
 23 24  2  0
 23 22  1  0
 24 19  1  0
 25 17  1  0
 26 25  2  0
 27 25  1  0
M  END
$$$$
