PDF.pdb
     RDKit          3D

 27 28  0  0  1  0  0  0  0  0999 V2000
   20.8623  -12.3933  -17.5775 N   0  0  0  0  0  0  0  0  0  0  0  0
   20.7006  -13.3297  -18.6471 C   0  0  0  0  0  0  0  0  0  0  0  0
   22.1197  -13.7453  -18.9653 C   0  0  0  0  0  0  0  0  0  0  0  0
   22.8368  -12.3905  -18.8898 C   0  0  0  0  0  0  0  0  0  0  0  0
   22.1114  -11.7307  -17.7623 C   0  0  1  0  0  0  0  0  0  0  0  0
   21.9433  -10.2907  -17.8882 C   0  0  0  0  0  0  0  0  0  0  0  0
   22.9662   -9.5791  -18.0638 O   0  0  0  0  0  0  0  0  0  0  0  0
   20.7041   -9.6054  -17.8291 N   0  0  0  0  0  0  0  0  0  0  0  0
   20.5177   -8.2003  -18.0156 C   0  0  1  0  0  0  0  0  0  0  0  0
   19.1907   -7.8269  -18.6016 C   0  0  0  0  0  0  0  0  0  0  0  0
   18.9770   -8.3255  -19.9594 C   0  0  0  0  0  0  0  0  0  0  0  0
   19.7163   -8.0710  -20.9440 O   0  0  0  0  0  0  0  0  0  0  0  0
   20.6700   -7.4851  -16.7105 C   0  0  0  0  0  0  0  0  0  0  0  0
   20.0137   -7.8535  -15.7064 O   0  0  0  0  0  0  0  0  0  0  0  0
   17.8793   -9.1423  -20.1938 O   0  0  0  0  0  0  0  0  0  0  0  0
   21.5502   -6.3790  -16.5625 N   0  0  0  0  0  0  0  0  0  0  0  0
   21.8298   -5.7570  -15.2703 C   0  0  1  0  0  0  0  0  0  0  0  0
   23.2490   -5.9667  -14.8582 C   0  0  0  0  0  0  0  0  0  0  0  0
   23.5938   -7.4024  -14.8108 C   0  0  0  0  0  0  0  0  0  0  0  0
   24.5003   -7.9683  -15.7066 C   0  0  0  0  0  0  0  0  0  0  0  0
   24.8414   -9.2900  -15.6606 C   0  0  0  0  0  0  0  0  0  0  0  0
   24.3009  -10.1409  -14.7160 C   0  0  0  0  0  0  0  0  0  0  0  0
   23.4105   -9.5970  -13.8321 C   0  0  0  0  0  0  0  0  0  0  0  0
   23.0573   -8.2731  -13.8642 C   0  0  0  0  0  0  0  0  0  0  0  0
   21.4230   -4.3408  -15.2614 C   0  0  0  0  0  0  0  0  0  0  0  0
   21.0115   -3.8312  -16.3355 O   0  0  0  0  0  0  0  0  0  0  0  0
   21.4608   -3.5297  -14.1482 O   0  0  0  0  0  0  0  0  0  0  0  0
  1  2  1  0
  3  2  1  0
  4  3  1  0
  5  4  1  0
  5  1  1  0
  5  6  1  6
  7  6  2  0
  8  6  1  0
  9  8  1  0
  9 10  1  1
 11 10  1  0
 12 11  2  0
 13  9  1  0
 13 14  2  0
 15 11  1  0
 16 17  1  0
 16 13  1  0
 17 18  1  6
 19 18  1  0
 19 20  2  0
 20 21  1  0
 22 21  2  0
 23 24  2  0
 23 22  1  0
 24 19  1  0
 25 17  1  0
 26 25  2  0
 27 25  1  0
M  END
$$$$
