PDF.pdb
     RDKit          3D

 27 28  0  0  1  0  0  0  0  0999 V2000
   28.3038  -18.7734  -15.0644 N   0  0  0  0  0  0  0  0  0  0  0  0
   27.9844  -18.3913  -16.4055 C   0  0  0  0  0  0  0  0  0  0  0  0
   27.7386  -16.9028  -16.2958 C   0  0  0  0  0  0  0  0  0  0  0  0
   26.9289  -16.8433  -14.9934 C   0  0  0  0  0  0  0  0  0  0  0  0
   27.5882  -17.9112  -14.1824 C   0  0  1  0  0  0  0  0  0  0  0  0
   26.7043  -18.6577  -13.2997 C   0  0  0  0  0  0  0  0  0  0  0  0
   25.8142  -18.0301  -12.6692 O   0  0  0  0  0  0  0  0  0  0  0  0
   26.7587  -20.0573  -13.0833 N   0  0  0  0  0  0  0  0  0  0  0  0
   25.9275  -20.7957  -12.1845 C   0  0  1  0  0  0  0  0  0  0  0  0
   25.5844  -22.1758  -12.6551 C   0  0  0  0  0  0  0  0  0  0  0  0
   24.9273  -22.2143  -13.9607 C   0  0  0  0  0  0  0  0  0  0  0  0
   25.2602  -22.9662  -14.9119 O   0  0  0  0  0  0  0  0  0  0  0  0
   26.5909  -20.9092  -10.8485 C   0  0  0  0  0  0  0  0  0  0  0  0
   27.8309  -21.0851  -10.7703 O   0  0  0  0  0  0  0  0  0  0  0  0
   23.8537  -21.3623  -14.1809 O   0  0  0  0  0  0  0  0  0  0  0  0
   25.8521  -20.8231   -9.6373 N   0  0  0  0  0  0  0  0  0  0  0  0
   26.4849  -20.8473   -8.3206 C   0  0  1  0  0  0  0  0  0  0  0  0
   27.5090  -19.7697   -8.1862 C   0  0  0  0  0  0  0  0  0  0  0  0
   28.1232  -19.7693   -6.8427 C   0  0  0  0  0  0  0  0  0  0  0  0
   27.7272  -18.8669   -5.8562 C   0  0  0  0  0  0  0  0  0  0  0  0
   28.2741  -18.8693   -4.6046 C   0  0  0  0  0  0  0  0  0  0  0  0
   29.2559  -19.7739   -4.2494 C   0  0  0  0  0  0  0  0  0  0  0  0
   29.6523  -20.6639   -5.2089 C   0  0  0  0  0  0  0  0  0  0  0  0
   29.1141  -20.6752   -6.4693 C   0  0  0  0  0  0  0  0  0  0  0  0
   25.4778  -20.8321   -7.2450 C   0  0  0  0  0  0  0  0  0  0  0  0
   24.4305  -20.1567   -7.4173 O   0  0  0  0  0  0  0  0  0  0  0  0
   25.6041  -21.5138   -6.0542 O   0  0  0  0  0  0  0  0  0  0  0  0
  1  2  1  0
  3  2  1  0
  4  3  1  0
  5  4  1  0
  5  1  1  0
  5  6  1  6
  7  6  2  0
  8  6  1  0
  9  8  1  0
  9 10  1  6
 11 10  1  0
 12 11  2  0
 13  9  1  0
 13 14  2  0
 15 11  1  0
 16 17  1  0
 16 13  1  0
 17 18  1  1
 19 18  1  0
 19 20  2  0
 20 21  1  0
 22 21  2  0
 23 24  2  0
 23 22  1  0
 24 19  1  0
 25 17  1  0
 26 25  2  0
 27 25  1  0
M  END
$$$$
