PDF.pdb
     RDKit          3D

 27 28  0  0  1  0  0  0  0  0999 V2000
   20.7844  -11.7891  -16.8041 N   0  0  0  0  0  0  0  0  0  0  0  0
   20.0310  -12.8337  -17.4270 C   0  0  0  0  0  0  0  0  0  0  0  0
   21.0193  -13.4497  -18.3923 C   0  0  0  0  0  0  0  0  0  0  0  0
   21.6859  -12.1893  -18.9600 C   0  0  0  0  0  0  0  0  0  0  0  0
   21.7307  -11.3063  -17.7554 C   0  0  1  0  0  0  0  0  0  0  0  0
   21.5533   -9.8859  -18.0177 C   0  0  0  0  0  0  0  0  0  0  0  0
   22.4264   -9.2865  -18.6976 O   0  0  0  0  0  0  0  0  0  0  0  0
   20.4621   -9.1026  -17.5659 N   0  0  0  0  0  0  0  0  0  0  0  0
   20.2915   -7.7010  -17.7902 C   0  0  1  0  0  0  0  0  0  0  0  0
   19.0583   -7.3459  -18.5628 C   0  0  0  0  0  0  0  0  0  0  0  0
   18.9764   -5.9355  -18.9399 C   0  0  0  0  0  0  0  0  0  0  0  0
   17.9069   -5.2921  -19.0911 O   0  0  0  0  0  0  0  0  0  0  0  0
   20.2496   -6.9739  -16.4835 C   0  0  0  0  0  0  0  0  0  0  0  0
   19.4613   -7.3420  -15.5792 O   0  0  0  0  0  0  0  0  0  0  0  0
   20.1606   -5.2422  -19.1500 O   0  0  0  0  0  0  0  0  0  0  0  0
   21.0886   -5.8566  -16.2224 N   0  0  0  0  0  0  0  0  0  0  0  0
   21.1371   -5.1893  -14.9235 C   0  0  1  0  0  0  0  0  0  0  0  0
   22.3577   -5.5751  -14.1559 C   0  0  0  0  0  0  0  0  0  0  0  0
   22.3115   -6.9917  -13.7394 C   0  0  0  0  0  0  0  0  0  0  0  0
   23.1091   -7.9607  -14.3474 C   0  0  0  0  0  0  0  0  0  0  0  0
   23.0891   -9.2697  -13.9582 C   0  0  0  0  0  0  0  0  0  0  0  0
   22.2707   -9.7042  -12.9337 C   0  0  0  0  0  0  0  0  0  0  0  0
   21.4840   -8.7626  -12.3299 C   0  0  0  0  0  0  0  0  0  0  0  0
   21.4917   -7.4453  -12.7079 C   0  0  0  0  0  0  0  0  0  0  0  0
   20.9746   -3.7318  -15.0667 C   0  0  0  0  0  0  0  0  0  0  0  0
   20.8996   -3.2507  -16.2268 O   0  0  0  0  0  0  0  0  0  0  0  0
   20.8967   -2.8522  -14.0091 O   0  0  0  0  0  0  0  0  0  0  0  0
  1  2  1  0
  3  2  1  0
  4  3  1  0
  5  4  1  0
  5  1  1  0
  5  6  1  6
  7  6  2  0
  8  6  1  0
  9  8  1  0
  9 10  1  1
 11 10  1  0
 12 11  2  0
 13  9  1  0
 13 14  2  0
 15 11  1  0
 16 17  1  0
 16 13  1  0
 17 18  1  6
 19 18  1  0
 19 20  2  0
 20 21  1  0
 22 21  2  0
 23 24  2  0
 23 22  1  0
 24 19  1  0
 25 17  1  0
 26 25  2  0
 27 25  1  0
M  END
$$$$
