PDF.pdb
     RDKit          3D

 27 28  0  0  1  0  0  0  0  0999 V2000
   27.5977  -18.6992  -18.3833 N   0  0  0  0  0  0  0  0  0  0  0  0
   28.0905  -18.5167  -19.7140 C   0  0  0  0  0  0  0  0  0  0  0  0
   28.2444  -17.0162  -19.8272 C   0  0  0  0  0  0  0  0  0  0  0  0
   26.9563  -16.5453  -19.1384 C   0  0  0  0  0  0  0  0  0  0  0  0
   26.8137  -17.5564  -18.0475 C   0  0  1  0  0  0  0  0  0  0  0  0
   25.4455  -17.9220  -17.7124 C   0  0  0  0  0  0  0  0  0  0  0  0
   24.6676  -17.0239  -17.2978 O   0  0  0  0  0  0  0  0  0  0  0  0
   24.9012  -19.2266  -17.8140 N   0  0  0  0  0  0  0  0  0  0  0  0
   23.6072  -19.6288  -17.3582 C   0  0  1  0  0  0  0  0  0  0  0  0
   22.8000  -20.3756  -18.3753 C   0  0  0  0  0  0  0  0  0  0  0  0
   21.4216  -20.6403  -17.9651 C   0  0  0  0  0  0  0  0  0  0  0  0
   20.4279  -19.9413  -18.2886 O   0  0  0  0  0  0  0  0  0  0  0  0
   23.7367  -20.4891  -16.1413 C   0  0  0  0  0  0  0  0  0  0  0  0
   24.6270  -21.3714  -16.0816 O   0  0  0  0  0  0  0  0  0  0  0  0
   21.1770  -21.7427  -17.1577 O   0  0  0  0  0  0  0  0  0  0  0  0
   22.8691  -20.3409  -15.0252 N   0  0  0  0  0  0  0  0  0  0  0  0
   23.2381  -20.7587  -13.6746 C   0  0  1  0  0  0  0  0  0  0  0  0
   24.2823  -19.8653  -13.0920 C   0  0  0  0  0  0  0  0  0  0  0  0
   24.6798  -20.3057  -11.7392 C   0  0  0  0  0  0  0  0  0  0  0  0
   23.9916  -19.8878  -10.6007 C   0  0  0  0  0  0  0  0  0  0  0  0
   24.3378  -20.3033   -9.3465 C   0  0  0  0  0  0  0  0  0  0  0  0
   25.3966  -21.1662   -9.1403 C   0  0  0  0  0  0  0  0  0  0  0  0
   26.0791  -21.5828  -10.2496 C   0  0  0  0  0  0  0  0  0  0  0  0
   25.7451  -21.1758  -11.5149 C   0  0  0  0  0  0  0  0  0  0  0  0
   22.0482  -20.9015  -12.8172 C   0  0  0  0  0  0  0  0  0  0  0  0
   21.1719  -19.9997  -12.8573 O   0  0  0  0  0  0  0  0  0  0  0  0
   21.8263  -21.9643  -11.9688 O   0  0  0  0  0  0  0  0  0  0  0  0
  1  2  1  0
  3  2  1  0
  4  3  1  0
  5  4  1  0
  5  1  1  0
  5  6  1  6
  7  6  2  0
  8  6  1  0
  9  8  1  0
  9 10  1  6
 11 10  1  0
 12 11  2  0
 13  9  1  0
 13 14  2  0
 15 11  1  0
 16 17  1  0
 16 13  1  0
 17 18  1  1
 19 18  1  0
 19 20  2  0
 20 21  1  0
 22 21  2  0
 23 24  2  0
 23 22  1  0
 24 19  1  0
 25 17  1  0
 26 25  2  0
 27 25  1  0
M  END
$$$$
