PDF.pdb
     RDKit          3D

 27 28  0  0  1  0  0  0  0  0999 V2000
   26.8844  -12.8273  -24.0317 N   0  0  0  0  0  0  0  0  0  0  0  0
   28.0312  -12.8968  -24.8843 C   0  0  0  0  0  0  0  0  0  0  0  0
   27.5948  -13.8427  -25.9809 C   0  0  0  0  0  0  0  0  0  0  0  0
   26.8631  -14.9127  -25.1594 C   0  0  0  0  0  0  0  0  0  0  0  0
   26.2128  -14.0835  -24.0999 C   0  0  1  0  0  0  0  0  0  0  0  0
   26.1128  -14.7120  -22.7913 C   0  0  0  0  0  0  0  0  0  0  0  0
   25.4277  -15.7616  -22.6793 O   0  0  0  0  0  0  0  0  0  0  0  0
   26.7315  -14.2367  -21.6081 N   0  0  0  0  0  0  0  0  0  0  0  0
   26.6447  -14.8465  -20.3180 C   0  0  1  0  0  0  0  0  0  0  0  0
   27.9642  -15.2582  -19.7407 C   0  0  0  0  0  0  0  0  0  0  0  0
   28.7644  -16.1037  -20.6255 C   0  0  0  0  0  0  0  0  0  0  0  0
   28.4557  -17.2702  -20.9790 O   0  0  0  0  0  0  0  0  0  0  0  0
   25.9833  -13.9139  -19.3533 C   0  0  0  0  0  0  0  0  0  0  0  0
   26.3959  -12.7354  -19.2281 O   0  0  0  0  0  0  0  0  0  0  0  0
   29.9568  -15.5933  -21.1199 O   0  0  0  0  0  0  0  0  0  0  0  0
   24.8802  -14.3223  -18.5555 N   0  0  0  0  0  0  0  0  0  0  0  0
   24.1428  -13.4016  -17.6933 C   0  0  1  0  0  0  0  0  0  0  0  0
   24.3818  -11.9800  -18.0805 C   0  0  0  0  0  0  0  0  0  0  0  0
   25.6996  -11.5043  -17.6123 C   0  0  0  0  0  0  0  0  0  0  0  0
   26.0429  -11.5101  -16.2607 C   0  0  0  0  0  0  0  0  0  0  0  0
   27.2649  -11.0908  -15.8176 C   0  0  0  0  0  0  0  0  0  0  0  0
   28.2314  -10.6357  -16.6935 C   0  0  0  0  0  0  0  0  0  0  0  0
   27.9059  -10.6255  -18.0216 C   0  0  0  0  0  0  0  0  0  0  0  0
   26.6847  -11.0427  -18.4831 C   0  0  0  0  0  0  0  0  0  0  0  0
   22.7141  -13.7572  -17.6324 C   0  0  0  0  0  0  0  0  0  0  0  0
   21.9505  -13.0429  -16.9328 O   0  0  0  0  0  0  0  0  0  0  0  0
   22.1515  -14.8259  -18.2958 O   0  0  0  0  0  0  0  0  0  0  0  0
  1  2  1  0
  3  2  1  0
  4  3  1  0
  5  4  1  0
  5  1  1  0
  5  6  1  1
  7  6  2  0
  8  6  1  0
  9  8  1  0
  9 10  1  1
 11 10  1  0
 12 11  2  0
 13  9  1  0
 13 14  2  0
 15 11  1  0
 16 17  1  0
 16 13  1  0
 17 18  1  6
 19 18  1  0
 19 20  2  0
 20 21  1  0
 22 21  2  0
 23 24  2  0
 23 22  1  0
 24 19  1  0
 25 17  1  0
 26 25  2  0
 27 25  1  0
M  END
$$$$
