HLQ.pdb
     RDKit          3D

 28 28  0  0  1  0  0  0  0  0999 V2000
   22.7952  -16.1046  -18.6939 N   0  0  0  0  0  0  0  0  0  0  0  0
   23.1631  -14.7805  -19.1325 C   0  0  1  0  0  0  0  0  0  0  0  0
   22.1497  -14.2036  -20.0972 C   0  0  0  0  0  0  0  0  0  0  0  0
   22.2342  -14.9636  -21.3606 C   0  0  0  0  0  0  0  0  0  0  0  0
   23.1678  -14.7517  -22.3503 C   0  0  0  0  0  0  0  0  0  0  0  0
   22.8924  -15.6449  -23.3097 N   0  0  0  0  0  0  0  0  0  0  0  0
   21.8319  -16.3747  -22.9221 C   0  0  0  0  0  0  0  0  0  0  0  0
   21.4071  -15.9569  -21.6971 N   0  0  0  0  0  0  0  0  0  0  0  0
   23.1401  -13.8918  -17.9226 C   0  0  0  0  0  0  0  0  0  0  0  0
   22.1895  -13.9506  -17.0726 O   0  0  0  0  0  0  0  0  0  0  0  0
   27.8494  -12.5193  -16.2372 C   0  0  0  0  0  0  0  0  0  0  0  0
   26.4455  -12.9764  -16.0759 C   0  0  1  0  0  0  0  0  0  0  0  0
   26.3083  -14.0777  -15.0336 C   0  0  0  0  0  0  0  0  0  0  0  0
   25.4225  -11.9132  -15.8172 C   0  0  0  0  0  0  0  0  0  0  0  0
   24.1196  -12.1278  -16.4932 C   0  0  2  0  0  0  0  0  0  0  0  0
   24.1611  -12.9537  -17.6660 N   0  0  0  0  0  0  0  0  0  0  0  0
   23.4399  -10.8266  -16.8256 C   0  0  0  0  0  0  0  0  0  0  0  0
   23.5217  -10.2964  -17.9462 O   0  0  0  0  0  0  0  0  0  0  0  0
   17.7116   -9.6880  -16.6054 N   0  0  0  0  0  0  0  0  0  0  0  0
   18.1764   -8.3527  -16.6254 C   0  0  0  0  0  0  0  0  0  0  0  0
   17.3478   -7.4357  -16.7883 O   0  0  0  0  0  0  0  0  0  0  0  0
   19.5928   -8.0676  -16.4591 C   0  0  0  0  0  0  0  0  0  0  0  0
   20.4854   -9.2432  -16.2905 C   0  0  0  0  0  0  0  0  0  0  0  0
   21.9398   -8.9331  -16.1130 C   0  0  2  0  0  0  0  0  0  0  0  0
   22.6758  -10.1749  -15.8284 N   0  0  0  0  0  0  0  0  0  0  0  0
   22.2180   -8.0066  -14.9950 C   0  0  0  0  0  0  0  0  0  0  0  0
   22.0174   -6.6371  -15.0709 O   0  0  0  0  0  0  0  0  0  0  0  0
   22.6578   -8.4613  -13.9159 O   0  0  0  0  0  0  0  0  0  0  0  0
  2  1  1  1
  3  4  1  0
  3  2  1  0
  4  5  2  0
  6  5  1  0
  7  6  1  0
  8  7  2  0
  8  4  1  0
  9  2  1  0
  9 16  1  0
 10  9  2  0
 12 11  1  1
 12 14  1  0
 13 12  1  0
 15 16  1  0
 15 14  1  6
 17 15  1  0
 18 17  2  0
 19 20  1  0
 20 21  2  0
 20 22  1  0
 22 23  1  0
 24 23  1  1
 24 26  1  0
 24 25  1  0
 25 17  1  0
 26 27  1  0
 28 26  2  0
M  END
$$$$
