HLQ.pdb
     RDKit          3D

 28 28  0  0  1  0  0  0  0  0999 V2000
   25.4176  -37.6401  -10.9293 N   0  0  0  0  0  0  0  0  0  0  0  0
   24.5473  -37.3379   -9.8192 C   0  0  1  0  0  0  0  0  0  0  0  0
   24.0863  -38.5907   -9.1062 C   0  0  0  0  0  0  0  0  0  0  0  0
   23.2123  -39.3469  -10.0255 C   0  0  0  0  0  0  0  0  0  0  0  0
   22.0114  -38.8956  -10.5258 C   0  0  0  0  0  0  0  0  0  0  0  0
   21.5498  -39.8785  -11.3101 N   0  0  0  0  0  0  0  0  0  0  0  0
   22.4337  -40.8914  -11.2903 C   0  0  0  0  0  0  0  0  0  0  0  0
   23.4851  -40.5707  -10.4858 N   0  0  0  0  0  0  0  0  0  0  0  0
   25.3578  -36.5637   -8.8203 C   0  0  0  0  0  0  0  0  0  0  0  0
   26.6328  -36.5370   -8.8764 O   0  0  0  0  0  0  0  0  0  0  0  0
   24.7896  -31.4269   -8.5933 C   0  0  0  0  0  0  0  0  0  0  0  0
   25.3184  -32.8048   -8.4263 C   0  0  1  0  0  0  0  0  0  0  0  0
   26.8048  -32.8997   -8.7414 C   0  0  0  0  0  0  0  0  0  0  0  0
   25.0421  -33.4717   -7.1138 C   0  0  0  0  0  0  0  0  0  0  0  0
   25.5117  -34.8758   -7.0199 C   0  0  2  0  0  0  0  0  0  0  0  0
   24.7549  -35.8318   -7.7767 N   0  0  0  0  0  0  0  0  0  0  0  0
   25.6106  -35.3390   -5.5913 C   0  0  0  0  0  0  0  0  0  0  0  0
   26.2367  -34.7060   -4.7247 O   0  0  0  0  0  0  0  0  0  0  0  0
   26.7374  -36.8891   -0.9759 N   0  0  0  0  0  0  0  0  0  0  0  0
   25.3659  -36.7343   -0.6683 C   0  0  0  0  0  0  0  0  0  0  0  0
   24.9097  -37.3216    0.3322 O   0  0  0  0  0  0  0  0  0  0  0  0
   24.5157  -35.9060   -1.5085 C   0  0  0  0  0  0  0  0  0  0  0  0
   24.9443  -35.7443   -2.9218 C   0  0  0  0  0  0  0  0  0  0  0  0
   24.3108  -36.6820   -3.9029 C   0  0  2  0  0  0  0  0  0  0  0  0
   24.9682  -36.5417   -5.2117 N   0  0  0  0  0  0  0  0  0  0  0  0
   22.8701  -36.4307   -4.1202 C   0  0  0  0  0  0  0  0  0  0  0  0
   22.0145  -37.3517   -4.7043 O   0  0  0  0  0  0  0  0  0  0  0  0
   22.3776  -35.3368   -3.7662 O   0  0  0  0  0  0  0  0  0  0  0  0
  2  1  1  6
  3  4  1  0
  3  2  1  0
  4  5  2  0
  6  5  1  0
  7  6  1  0
  8  7  2  0
  8  4  1  0
  9  2  1  0
  9 16  1  0
 10  9  2  0
 12 11  1  1
 12 14  1  0
 13 12  1  0
 15 16  1  0
 15 14  1  1
 17 15  1  0
 18 17  2  0
 19 20  1  0
 20 21  2  0
 20 22  1  0
 22 23  1  0
 24 23  1  1
 24 26  1  0
 24 25  1  0
 25 17  1  0
 26 27  1  0
 28 26  2  0
M  END
$$$$
