HLQ.pdb
     RDKit          3D

 28 28  0  0  1  0  0  0  0  0999 V2000
   20.5015  -21.0998  -14.4937 N   0  0  0  0  0  0  0  0  0  0  0  0
   20.9649  -19.7356  -14.5663 C   0  0  1  0  0  0  0  0  0  0  0  0
   19.9624  -18.7669  -13.9770 C   0  0  0  0  0  0  0  0  0  0  0  0
   18.6941  -18.9104  -14.7197 C   0  0  0  0  0  0  0  0  0  0  0  0
   18.5412  -18.7010  -16.0720 C   0  0  0  0  0  0  0  0  0  0  0  0
   17.2488  -18.9360  -16.3344 N   0  0  0  0  0  0  0  0  0  0  0  0
   16.6352  -19.2759  -15.1873 C   0  0  0  0  0  0  0  0  0  0  0  0
   17.5327  -19.2639  -14.1627 N   0  0  0  0  0  0  0  0  0  0  0  0
   22.1925  -19.6395  -13.7073 C   0  0  0  0  0  0  0  0  0  0  0  0
   22.7484  -18.5161  -13.4657 O   0  0  0  0  0  0  0  0  0  0  0  0
   26.5288  -21.6044  -11.0635 C   0  0  0  0  0  0  0  0  0  0  0  0
   25.2708  -21.3822  -10.3057 C   0  0  1  0  0  0  0  0  0  0  0  0
   25.2933  -20.0853   -9.5086 C   0  0  0  0  0  0  0  0  0  0  0  0
   23.9962  -21.4660  -11.0880 C   0  0  0  0  0  0  0  0  0  0  0  0
   23.9772  -20.6583  -12.3322 C   0  0  2  0  0  0  0  0  0  0  0  0
   22.7892  -20.7783  -13.1281 N   0  0  0  0  0  0  0  0  0  0  0  0
   25.1817  -20.9279  -13.1935 C   0  0  0  0  0  0  0  0  0  0  0  0
   26.3378  -20.9494  -12.7389 O   0  0  0  0  0  0  0  0  0  0  0  0
   24.8828  -25.3201  -14.3356 N   0  0  0  0  0  0  0  0  0  0  0  0
   24.6587  -24.9787  -15.6893 C   0  0  0  0  0  0  0  0  0  0  0  0
   23.8647  -25.6718  -16.3551 O   0  0  0  0  0  0  0  0  0  0  0  0
   25.3456  -23.8419  -16.2814 C   0  0  0  0  0  0  0  0  0  0  0  0
   26.2519  -23.0802  -15.3837 C   0  0  0  0  0  0  0  0  0  0  0  0
   26.1153  -21.5897  -15.4371 C   0  0  2  0  0  0  0  0  0  0  0  0
   24.9993  -21.1674  -14.5764 N   0  0  0  0  0  0  0  0  0  0  0  0
   25.8315  -21.0669  -16.7906 C   0  0  0  0  0  0  0  0  0  0  0  0
   26.8004  -20.9215  -17.7712 O   0  0  0  0  0  0  0  0  0  0  0  0
   24.6632  -20.7323  -17.0869 O   0  0  0  0  0  0  0  0  0  0  0  0
  2  1  1  1
  3  4  1  0
  3  2  1  0
  4  5  2  0
  6  5  1  0
  7  6  1  0
  8  7  2  0
  8  4  1  0
  9  2  1  0
  9 16  1  0
 10  9  2  0
 12 11  1  6
 12 14  1  0
 13 12  1  0
 15 16  1  0
 15 14  1  1
 17 15  1  0
 18 17  2  0
 19 20  1  0
 20 21  2  0
 20 22  1  0
 22 23  1  0
 24 23  1  6
 24 26  1  0
 24 25  1  0
 25 17  1  0
 26 27  1  0
 28 26  2  0
M  END
$$$$
