HLQ.pdb
     RDKit          3D

 28 28  0  0  1  0  0  0  0  0999 V2000
   22.8877  -13.5563  -19.7324 N   0  0  0  0  0  0  0  0  0  0  0  0
   23.2338  -12.1795  -19.9886 C   0  0  1  0  0  0  0  0  0  0  0  0
   22.2235  -11.5017  -20.8888 C   0  0  0  0  0  0  0  0  0  0  0  0
   22.3755  -12.0566  -22.2490 C   0  0  0  0  0  0  0  0  0  0  0  0
   23.1663  -11.5180  -23.2392 C   0  0  0  0  0  0  0  0  0  0  0  0
   23.0188  -12.3204  -24.3016 N   0  0  0  0  0  0  0  0  0  0  0  0
   22.1709  -13.3111  -23.9739 C   0  0  0  0  0  0  0  0  0  0  0  0
   21.7580  -13.1578  -22.6849 N   0  0  0  0  0  0  0  0  0  0  0  0
   23.1727  -11.4564  -18.6743 C   0  0  0  0  0  0  0  0  0  0  0  0
   22.1805  -11.5974  -17.8836 O   0  0  0  0  0  0  0  0  0  0  0  0
   27.7864  -10.4666  -15.8480 C   0  0  0  0  0  0  0  0  0  0  0  0
   26.3785  -10.7858  -16.1975 C   0  0  1  0  0  0  0  0  0  0  0  0
   25.7611  -11.8061  -15.2511 C   0  0  0  0  0  0  0  0  0  0  0  0
   25.4486   -9.6217  -16.3532 C   0  0  0  0  0  0  0  0  0  0  0  0
   24.1389   -9.9513  -16.9669 C   0  0  2  0  0  0  0  0  0  0  0  0
   24.2017  -10.5907  -18.2501 N   0  0  0  0  0  0  0  0  0  0  0  0
   23.2428   -8.7453  -17.0561 C   0  0  0  0  0  0  0  0  0  0  0  0
   23.3481   -7.8991  -17.9597 O   0  0  0  0  0  0  0  0  0  0  0  0
   17.2077   -8.7390  -16.4719 N   0  0  0  0  0  0  0  0  0  0  0  0
   17.4792   -7.3530  -16.4035 C   0  0  0  0  0  0  0  0  0  0  0  0
   16.5261   -6.5542  -16.4894 O   0  0  0  0  0  0  0  0  0  0  0  0
   18.8448   -6.8814  -16.2369 C   0  0  0  0  0  0  0  0  0  0  0  0
   19.9013   -7.9252  -16.1977 C   0  0  0  0  0  0  0  0  0  0  0  0
   21.3098   -7.4203  -16.1333 C   0  0  2  0  0  0  0  0  0  0  0  0
   22.2384   -8.5602  -16.0763 N   0  0  0  0  0  0  0  0  0  0  0  0
   21.5878   -6.5840  -14.9462 C   0  0  0  0  0  0  0  0  0  0  0  0
   22.3423   -7.0174  -13.8671 O   0  0  0  0  0  0  0  0  0  0  0  0
   21.1275   -5.4222  -14.8924 O   0  0  0  0  0  0  0  0  0  0  0  0
  2  1  1  1
  3  4  1  0
  3  2  1  0
  4  5  2  0
  6  5  1  0
  7  6  1  0
  8  7  2  0
  8  4  1  0
  9  2  1  0
  9 16  1  0
 10  9  2  0
 12 11  1  1
 12 14  1  0
 13 12  1  0
 15 16  1  0
 15 14  1  6
 17 15  1  0
 18 17  2  0
 19 20  1  0
 20 21  2  0
 20 22  1  0
 22 23  1  0
 24 23  1  1
 24 26  1  0
 24 25  1  0
 25 17  1  0
 26 27  1  0
 28 26  2  0
M  END
$$$$
