HLQ.pdb
     RDKit          3D

 28 28  0  0  1  0  0  0  0  0999 V2000
   27.5325  -20.5912  -16.1805 N   0  0  0  0  0  0  0  0  0  0  0  0
   26.8057  -19.5584  -15.4832 C   0  0  1  0  0  0  0  0  0  0  0  0
   26.0747  -18.6397  -16.4382 C   0  0  0  0  0  0  0  0  0  0  0  0
   27.0766  -17.7974  -17.1223 C   0  0  0  0  0  0  0  0  0  0  0  0
   28.2915  -17.4249  -16.5920 C   0  0  0  0  0  0  0  0  0  0  0  0
   28.8839  -16.6728  -17.5289 N   0  0  0  0  0  0  0  0  0  0  0  0
   28.0634  -16.5886  -18.5907 C   0  0  0  0  0  0  0  0  0  0  0  0
   26.9221  -17.2917  -18.3488 N   0  0  0  0  0  0  0  0  0  0  0  0
   25.7461  -20.2388  -14.6656 C   0  0  0  0  0  0  0  0  0  0  0  0
   25.0565  -21.2024  -15.1406 O   0  0  0  0  0  0  0  0  0  0  0  0
   25.8990  -20.7114   -9.0597 C   0  0  0  0  0  0  0  0  0  0  0  0
   25.7246  -20.9152  -10.5206 C   0  0  1  0  0  0  0  0  0  0  0  0
   25.8661  -22.3761  -10.9252 C   0  0  0  0  0  0  0  0  0  0  0  0
   24.4805  -20.3459  -11.1305 C   0  0  0  0  0  0  0  0  0  0  0  0
   24.3980  -20.4739  -12.6062 C   0  0  2  0  0  0  0  0  0  0  0  0
   25.4613  -19.8499  -13.3405 N   0  0  0  0  0  0  0  0  0  0  0  0
   23.0759  -19.9889  -13.1374 C   0  0  0  0  0  0  0  0  0  0  0  0
   22.8255  -18.7842  -13.3095 O   0  0  0  0  0  0  0  0  0  0  0  0
   19.8996  -22.2230  -17.8295 N   0  0  0  0  0  0  0  0  0  0  0  0
   18.9435  -21.3719  -17.2288 C   0  0  0  0  0  0  0  0  0  0  0  0
   17.8981  -21.1133  -17.8566 O   0  0  0  0  0  0  0  0  0  0  0  0
   19.1857  -20.8157  -15.9071 C   0  0  0  0  0  0  0  0  0  0  0  0
   20.5063  -21.1188  -15.2975 C   0  0  0  0  0  0  0  0  0  0  0  0
   20.7505  -20.5183  -13.9474 C   0  0  2  0  0  0  0  0  0  0  0  0
   22.0731  -20.9355  -13.4559 N   0  0  0  0  0  0  0  0  0  0  0  0
   19.7657  -20.9326  -12.9255 C   0  0  0  0  0  0  0  0  0  0  0  0
   18.5947  -20.2370  -12.6679 O   0  0  0  0  0  0  0  0  0  0  0  0
   19.9811  -21.9610  -12.2468 O   0  0  0  0  0  0  0  0  0  0  0  0
  2  1  1  6
  3  4  1  0
  3  2  1  0
  4  5  2  0
  6  5  1  0
  7  6  1  0
  8  7  2  0
  8  4  1  0
  9  2  1  0
  9 16  1  0
 10  9  2  0
 12 11  1  1
 12 14  1  0
 13 12  1  0
 15 16  1  0
 15 14  1  1
 17 15  1  0
 18 17  2  0
 19 20  1  0
 20 21  2  0
 20 22  1  0
 22 23  1  0
 24 23  1  6
 24 26  1  0
 24 25  1  0
 25 17  1  0
 26 27  1  0
 28 26  2  0
M  END
$$$$
