HLQ.pdb
     RDKit          3D

 28 28  0  0  1  0  0  0  0  0999 V2000
   27.0035  -33.5403   -5.6330 N   0  0  0  0  0  0  0  0  0  0  0  0
   27.5893  -34.3304   -6.6883 C   0  0  1  0  0  0  0  0  0  0  0  0
   27.9360  -33.4888   -7.8974 C   0  0  0  0  0  0  0  0  0  0  0  0
   26.6791  -32.9597   -8.4642 C   0  0  0  0  0  0  0  0  0  0  0  0
   25.9787  -33.5294   -9.5038 C   0  0  0  0  0  0  0  0  0  0  0  0
   24.9129  -32.7424   -9.7010 N   0  0  0  0  0  0  0  0  0  0  0  0
   24.9596  -31.7308   -8.8166 C   0  0  0  0  0  0  0  0  0  0  0  0
   26.0659  -31.8548   -8.0316 N   0  0  0  0  0  0  0  0  0  0  0  0
   28.8906  -34.8683   -6.1674 C   0  0  0  0  0  0  0  0  0  0  0  0
   29.5160  -35.8000   -6.7759 O   0  0  0  0  0  0  0  0  0  0  0  0
   33.4946  -32.8763   -6.2577 C   0  0  0  0  0  0  0  0  0  0  0  0
   32.4491  -33.9080   -6.0368 C   0  0  1  0  0  0  0  0  0  0  0  0
   32.8787  -35.2851   -6.5234 C   0  0  0  0  0  0  0  0  0  0  0  0
   31.9019  -34.0173   -4.6467 C   0  0  0  0  0  0  0  0  0  0  0  0
   30.7260  -34.9115   -4.5111 C   0  0  2  0  0  0  0  0  0  0  0  0
   29.4835  -34.3743   -4.9872 N   0  0  0  0  0  0  0  0  0  0  0  0
   30.5492  -35.3937   -3.0962 C   0  0  0  0  0  0  0  0  0  0  0  0
   29.6775  -34.9368   -2.3379 O   0  0  0  0  0  0  0  0  0  0  0  0
   30.2259  -40.0449    1.5828 N   0  0  0  0  0  0  0  0  0  0  0  0
   30.9704  -39.9314    0.3861 C   0  0  0  0  0  0  0  0  0  0  0  0
   30.7689  -40.7614   -0.5220 O   0  0  0  0  0  0  0  0  0  0  0  0
   31.9476  -38.8658    0.2296 C   0  0  0  0  0  0  0  0  0  0  0  0
   32.0064  -38.2178   -1.1061 C   0  0  0  0  0  0  0  0  0  0  0  0
   31.2850  -36.9107   -1.2252 C   0  0  2  0  0  0  0  0  0  0  0  0
   31.4052  -36.4068   -2.6023 N   0  0  0  0  0  0  0  0  0  0  0  0
   31.8167  -35.8552   -0.3369 C   0  0  0  0  0  0  0  0  0  0  0  0
   31.4044  -35.6829    0.9752 O   0  0  0  0  0  0  0  0  0  0  0  0
   32.6841  -35.0661   -0.7723 O   0  0  0  0  0  0  0  0  0  0  0  0
  2  1  1  1
  3  4  1  0
  3  2  1  0
  4  5  2  0
  6  5  1  0
  7  6  1  0
  8  7  2  0
  8  4  1  0
  9  2  1  0
  9 16  1  0
 10  9  2  0
 12 11  1  1
 12 14  1  0
 13 12  1  0
 15 16  1  0
 15 14  1  1
 17 15  1  0
 18 17  2  0
 19 20  1  0
 20 21  2  0
 20 22  1  0
 22 23  1  0
 24 23  1  6
 24 26  1  0
 24 25  1  0
 25 17  1  0
 26 27  1  0
 28 26  2  0
M  END
$$$$
