LNK.pdb
     RDKit          3D

 26 25  0  0  1  0  0  0  0  0999 V2000
   17.5594  -24.7780   -7.1388 C   0  0  0  0  0  0  0  0  0  0  0  0
   16.4384  -25.3006   -6.2657 C   0  0  1  0  0  0  0  0  0  0  0  0
   16.4138  -26.7838   -6.3665 C   0  0  0  0  0  0  0  0  0  0  0  0
   16.5192  -24.7498   -4.8862 C   0  0  0  0  0  0  0  0  0  0  0  0
   15.4017  -25.0901   -3.9789 C   0  0  2  0  0  0  0  0  0  0  0  0
   14.0885  -24.8126   -4.4743 N   0  0  0  0  0  0  0  0  0  0  0  0
   15.5614  -24.2916   -2.7256 C   0  0  0  0  0  0  0  0  0  0  0  0
   16.7120  -24.2639   -2.2210 O   0  0  0  0  0  0  0  0  0  0  0  0
   14.9695  -20.8499    1.0613 N   0  0  0  0  0  0  0  0  0  0  0  0
   13.7967  -20.7710    0.2351 C   0  0  0  0  0  0  0  0  0  0  0  0
   12.9896  -19.8653    0.4949 O   0  0  0  0  0  0  0  0  0  0  0  0
   13.5913  -21.7267   -0.8523 C   0  0  0  0  0  0  0  0  0  0  0  0
   14.7037  -22.7086   -0.9370 C   0  0  2  0  0  0  0  0  0  0  0  0
   14.5205  -23.5972   -2.1097 N   0  0  0  0  0  0  0  0  0  0  0  0
   14.5874  -23.6478    0.2461 C   0  0  0  0  0  0  0  0  0  0  0  0
   14.6646  -23.1938    1.3931 O   0  0  0  0  0  0  0  0  0  0  0  0
   14.3914  -25.0487    0.0823 N   0  0  0  0  0  0  0  0  0  0  0  0
   14.3359  -25.9451    1.2487 C   0  0  1  0  0  0  0  0  0  0  0  0
   15.5145  -26.8493    1.2730 C   0  0  0  0  0  0  0  0  0  0  0  0
   15.6953  -27.5490   -0.0430 C   0  0  0  0  0  0  0  0  0  0  0  0
   16.8877  -28.5065    0.0099 C   0  0  0  0  0  0  0  0  0  0  0  0
   17.0096  -29.3330   -1.2404 C   0  0  0  0  0  0  0  0  0  0  0  0
   18.1490  -30.2330   -1.1812 N   0  0  0  0  0  0  0  0  0  0  0  0
   14.2306  -25.1434    2.4856 C   0  0  0  0  0  0  0  0  0  0  0  0
   15.2069  -24.3191    3.0020 O   0  0  0  0  0  0  0  0  0  0  0  0
   13.1489  -25.1929    3.1731 O   0  0  0  0  0  0  0  0  0  0  0  0
  2  1  1  6
  2  4  1  0
  3  2  1  0
  4  5  1  0
  5  6  1  6
  7  5  1  0
  7  8  2  0
  9 10  1  0
 10 11  2  0
 10 12  1  0
 13 12  1  1
 13 14  1  0
 13 15  1  0
 14  7  1  0
 15 17  1  0
 16 15  2  0
 17 18  1  0
 18 24  1  0
 18 19  1  1
 20 19  1  0
 21 20  1  0
 22 21  1  0
 23 22  1  0
 24 26  2  0
 24 25  1  0
M  END
$$$$
