LNK.pdb
     RDKit          3D

 26 25  0  0  1  0  0  0  0  0999 V2000
   21.0733  -22.0252  -15.1675 C   0  0  0  0  0  0  0  0  0  0  0  0
   21.5619  -21.3832  -16.4486 C   0  0  1  0  0  0  0  0  0  0  0  0
   21.6415  -22.4304  -17.5009 C   0  0  0  0  0  0  0  0  0  0  0  0
   20.7592  -20.1800  -16.7963 C   0  0  0  0  0  0  0  0  0  0  0  0
   21.1996  -18.9027  -16.1943 C   0  0  2  0  0  0  0  0  0  0  0  0
   21.2499  -18.8707  -14.7647 N   0  0  0  0  0  0  0  0  0  0  0  0
   20.2379  -17.8371  -16.6103 C   0  0  0  0  0  0  0  0  0  0  0  0
   19.0433  -18.1919  -16.7725 O   0  0  0  0  0  0  0  0  0  0  0  0
   16.3682  -15.1469  -16.3527 N   0  0  0  0  0  0  0  0  0  0  0  0
   17.5249  -15.8454  -15.8647 C   0  0  0  0  0  0  0  0  0  0  0  0
   17.3580  -17.0210  -15.5050 O   0  0  0  0  0  0  0  0  0  0  0  0
   18.8238  -15.1763  -15.8059 C   0  0  0  0  0  0  0  0  0  0  0  0
   19.6191  -15.4134  -17.0388 C   0  0  2  0  0  0  0  0  0  0  0  0
   20.5974  -16.5061  -16.8206 N   0  0  0  0  0  0  0  0  0  0  0  0
   20.4888  -14.1953  -17.2737 C   0  0  0  0  0  0  0  0  0  0  0  0
   21.2084  -13.7762  -16.3604 O   0  0  0  0  0  0  0  0  0  0  0  0
   20.5062  -13.5085  -18.5210 N   0  0  0  0  0  0  0  0  0  0  0  0
   21.2914  -12.2753  -18.6935 C   0  0  1  0  0  0  0  0  0  0  0  0
   21.1864  -11.7764  -20.0889 C   0  0  0  0  0  0  0  0  0  0  0  0
   21.9268  -10.4821  -20.2651 C   0  0  0  0  0  0  0  0  0  0  0  0
   23.4377  -10.7214  -20.3045 C   0  0  0  0  0  0  0  0  0  0  0  0
   24.2102   -9.4474  -20.5078 C   0  0  0  0  0  0  0  0  0  0  0  0
   25.6347   -9.6989  -20.6481 N   0  0  0  0  0  0  0  0  0  0  0  0
   20.8479  -11.2638  -17.7117 C   0  0  0  0  0  0  0  0  0  0  0  0
   21.6686  -10.4723  -16.9375 O   0  0  0  0  0  0  0  0  0  0  0  0
   19.5921  -11.0759  -17.5308 O   0  0  0  0  0  0  0  0  0  0  0  0
  2  1  1  1
  2  4  1  0
  3  2  1  0
  4  5  1  0
  5  6  1  1
  7  5  1  0
  7  8  2  0
  9 10  1  0
 10 11  2  0
 10 12  1  0
 13 12  1  1
 13 14  1  0
 13 15  1  0
 14  7  1  0
 15 17  1  0
 16 15  2  0
 17 18  1  0
 18 24  1  0
 18 19  1  6
 20 19  1  0
 21 20  1  0
 22 21  1  0
 23 22  1  0
 24 26  2  0
 24 25  1  0
M  END
$$$$
