LNK.pdb
     RDKit          3D

 26 25  0  0  1  0  0  0  0  0999 V2000
   19.6134  -17.4621    1.0019 C   0  0  0  0  0  0  0  0  0  0  0  0
   18.4351  -18.0405    1.7563 C   0  0  1  0  0  0  0  0  0  0  0  0
   18.4625  -19.5201    1.6123 C   0  0  0  0  0  0  0  0  0  0  0  0
   18.3774  -17.5299    3.1524 C   0  0  0  0  0  0  0  0  0  0  0  0
   17.2891  -18.0634    4.0002 C   0  0  2  0  0  0  0  0  0  0  0  0
   15.9615  -17.6866    3.6225 N   0  0  0  0  0  0  0  0  0  0  0  0
   17.4950  -17.5594    5.3920 C   0  0  0  0  0  0  0  0  0  0  0  0
   16.9215  -16.4812    5.6886 O   0  0  0  0  0  0  0  0  0  0  0  0
   16.0419  -20.4883    8.6367 N   0  0  0  0  0  0  0  0  0  0  0  0
   16.5854  -19.1637    8.7549 C   0  0  0  0  0  0  0  0  0  0  0  0
   15.7760  -18.2413    8.9373 O   0  0  0  0  0  0  0  0  0  0  0  0
   18.0280  -18.9440    8.6602 C   0  0  0  0  0  0  0  0  0  0  0  0
   18.3511  -17.7994    7.7690 C   0  0  2  0  0  0  0  0  0  0  0  0
   18.2727  -18.2131    6.3473 N   0  0  0  0  0  0  0  0  0  0  0  0
   19.8141  -17.4567    7.9625 C   0  0  0  0  0  0  0  0  0  0  0  0
   20.6767  -18.1158    7.3716 O   0  0  0  0  0  0  0  0  0  0  0  0
   20.2352  -16.3926    8.8099 N   0  0  0  0  0  0  0  0  0  0  0  0
   21.6654  -16.1028    9.0047 C   0  0  1  0  0  0  0  0  0  0  0  0
   21.8619  -14.6959    9.4397 C   0  0  0  0  0  0  0  0  0  0  0  0
   21.5447  -13.7313    8.3337 C   0  0  0  0  0  0  0  0  0  0  0  0
   21.6693  -12.2860    8.8207 C   0  0  0  0  0  0  0  0  0  0  0  0
   21.4119  -11.2915    7.7227 C   0  0  0  0  0  0  0  0  0  0  0  0
   21.6530   -9.9282    8.1645 N   0  0  0  0  0  0  0  0  0  0  0  0
   22.2389  -17.0634    9.9701 C   0  0  0  0  0  0  0  0  0  0  0  0
   23.5575  -17.4590   10.0328 O   0  0  0  0  0  0  0  0  0  0  0  0
   21.4726  -17.6040   10.8452 O   0  0  0  0  0  0  0  0  0  0  0  0
  2  1  1  1
  2  4  1  0
  3  2  1  0
  4  5  1  0
  5  6  1  6
  7  5  1  0
  7  8  2  0
  9 10  1  0
 10 11  2  0
 10 12  1  0
 13 12  1  1
 13 14  1  0
 13 15  1  0
 14  7  1  0
 15 17  1  0
 16 15  2  0
 17 18  1  0
 18 24  1  0
 18 19  1  1
 20 19  1  0
 21 20  1  0
 22 21  1  0
 23 22  1  0
 24 26  2  0
 24 25  1  0
M  END
$$$$
