LNK.pdb
     RDKit          3D

 26 25  0  0  1  0  0  0  0  0999 V2000
   25.6722  -13.3530  -17.5849 C   0  0  0  0  0  0  0  0  0  0  0  0
   25.6150  -12.0359  -16.8406 C   0  0  1  0  0  0  0  0  0  0  0  0
   26.6933  -11.1533  -17.3592 C   0  0  0  0  0  0  0  0  0  0  0  0
   24.2445  -11.4578  -16.8592 C   0  0  0  0  0  0  0  0  0  0  0  0
   24.0845  -10.1317  -16.2238 C   0  0  2  0  0  0  0  0  0  0  0  0
   24.2734  -10.0917  -14.8061 N   0  0  0  0  0  0  0  0  0  0  0  0
   22.6905   -9.6585  -16.4810 C   0  0  0  0  0  0  0  0  0  0  0  0
   22.3072   -9.6666  -17.6778 O   0  0  0  0  0  0  0  0  0  0  0  0
   19.1656  -11.2660  -15.5217 N   0  0  0  0  0  0  0  0  0  0  0  0
   18.9814  -10.3346  -14.4434 C   0  0  0  0  0  0  0  0  0  0  0  0
   18.2796  -10.7118  -13.4924 O   0  0  0  0  0  0  0  0  0  0  0  0
   19.6036   -9.0123  -14.4926 C   0  0  0  0  0  0  0  0  0  0  0  0
   20.4126   -8.8323  -15.7263 C   0  0  2  0  0  0  0  0  0  0  0  0
   21.8224   -9.2208  -15.4811 N   0  0  0  0  0  0  0  0  0  0  0  0
   20.4952   -7.3478  -16.0169 C   0  0  0  0  0  0  0  0  0  0  0  0
   21.2366   -6.6340  -15.3323 O   0  0  0  0  0  0  0  0  0  0  0  0
   19.7411   -6.7390  -17.0602 N   0  0  0  0  0  0  0  0  0  0  0  0
   19.8246   -5.2900  -17.3062 C   0  0  1  0  0  0  0  0  0  0  0  0
   19.2576   -4.9492  -18.6364 C   0  0  0  0  0  0  0  0  0  0  0  0
   19.3292   -3.4730  -18.9006 C   0  0  0  0  0  0  0  0  0  0  0  0
   18.7254   -3.1352  -20.2655 C   0  0  0  0  0  0  0  0  0  0  0  0
   18.7972   -1.6647  -20.5711 C   0  0  0  0  0  0  0  0  0  0  0  0
   18.2940   -0.8613  -19.4695 N   0  0  0  0  0  0  0  0  0  0  0  0
   19.1453   -4.5618  -16.2145 C   0  0  0  0  0  0  0  0  0  0  0  0
   19.5499   -3.3642  -15.6653 O   0  0  0  0  0  0  0  0  0  0  0  0
   18.0793   -5.0567  -15.7008 O   0  0  0  0  0  0  0  0  0  0  0  0
  2  1  1  6
  2  4  1  0
  3  2  1  0
  4  5  1  0
  5  6  1  1
  7  5  1  0
  7  8  2  0
  9 10  1  0
 10 11  2  0
 10 12  1  0
 13 12  1  1
 13 14  1  0
 13 15  1  0
 14  7  1  0
 15 17  1  0
 16 15  2  0
 17 18  1  0
 18 24  1  0
 18 19  1  6
 20 19  1  0
 21 20  1  0
 22 21  1  0
 23 22  1  0
 24 26  2  0
 24 25  1  0
M  END
$$$$
