LNK.pdb
     RDKit          3D

 26 25  0  0  1  0  0  0  0  0999 V2000
   20.5716   -9.5869  -15.6239 C   0  0  0  0  0  0  0  0  0  0  0  0
   20.7625   -8.7627  -14.3684 C   0  0  1  0  0  0  0  0  0  0  0  0
   21.6209   -7.5940  -14.6969 C   0  0  0  0  0  0  0  0  0  0  0  0
   19.4612   -8.4449  -13.7214 C   0  0  0  0  0  0  0  0  0  0  0  0
   19.5211   -7.5908  -12.5153 C   0  0  2  0  0  0  0  0  0  0  0  0
   20.2311   -8.1355  -11.3989 N   0  0  0  0  0  0  0  0  0  0  0  0
   18.1222   -7.3443  -12.0508 C   0  0  0  0  0  0  0  0  0  0  0  0
   17.3259   -6.8665  -12.8976 O   0  0  0  0  0  0  0  0  0  0  0  0
   15.4978  -11.0977   -9.9635 N   0  0  0  0  0  0  0  0  0  0  0  0
   15.2817   -9.7206  -10.3114 C   0  0  0  0  0  0  0  0  0  0  0  0
   14.5893   -9.4998  -11.3169 O   0  0  0  0  0  0  0  0  0  0  0  0
   15.8631   -8.6519   -9.5002 C   0  0  0  0  0  0  0  0  0  0  0  0
   16.2602   -7.4861  -10.3321 C   0  0  2  0  0  0  0  0  0  0  0  0
   17.6750   -7.6127  -10.7573 N   0  0  0  0  0  0  0  0  0  0  0  0
   16.2612   -6.2587   -9.4440 C   0  0  0  0  0  0  0  0  0  0  0  0
   17.2585   -6.0034   -8.7600 O   0  0  0  0  0  0  0  0  0  0  0  0
   15.1429   -5.3805   -9.3675 N   0  0  0  0  0  0  0  0  0  0  0  0
   15.1714   -4.1953   -8.4948 C   0  0  1  0  0  0  0  0  0  0  0  0
   16.3632   -3.3573   -8.7855 C   0  0  0  0  0  0  0  0  0  0  0  0
   16.3431   -2.0825   -7.9926 C   0  0  0  0  0  0  0  0  0  0  0  0
   17.5560   -1.2130   -8.3306 C   0  0  0  0  0  0  0  0  0  0  0  0
   17.5860    0.0583   -7.5281 C   0  0  0  0  0  0  0  0  0  0  0  0
   18.7968    0.8226   -7.7766 N   0  0  0  0  0  0  0  0  0  0  0  0
   13.9130   -3.4361   -8.6485 C   0  0  0  0  0  0  0  0  0  0  0  0
   13.3649   -2.5798   -7.7181 O   0  0  0  0  0  0  0  0  0  0  0  0
   13.2364   -3.5589   -9.7313 O   0  0  0  0  0  0  0  0  0  0  0  0
  2  1  1  6
  2  4  1  0
  3  2  1  0
  4  5  1  0
  5  6  1  1
  7  5  1  0
  7  8  2  0
  9 10  1  0
 10 11  2  0
 10 12  1  0
 13 12  1  1
 13 14  1  0
 13 15  1  0
 14  7  1  0
 15 17  1  0
 16 15  2  0
 17 18  1  0
 18 24  1  0
 18 19  1  6
 20 19  1  0
 21 20  1  0
 22 21  1  0
 23 22  1  0
 24 26  2  0
 24 25  1  0
M  END
$$$$
