LNK.pdb
     RDKit          3D

 26 25  0  0  1  0  0  0  0  0999 V2000
   29.6580  -21.6159  -17.6736 C   0  0  0  0  0  0  0  0  0  0  0  0
   28.2874  -20.9784  -17.5900 C   0  0  1  0  0  0  0  0  0  0  0  0
   27.5637  -21.2466  -18.8608 C   0  0  0  0  0  0  0  0  0  0  0  0
   27.5752  -21.3771  -16.3463 C   0  0  0  0  0  0  0  0  0  0  0  0
   26.2014  -20.8541  -16.1823 C   0  0  2  0  0  0  0  0  0  0  0  0
   26.0766  -19.4295  -16.1388 N   0  0  0  0  0  0  0  0  0  0  0  0
   25.6601  -21.3685  -14.8877 C   0  0  0  0  0  0  0  0  0  0  0  0
   25.7740  -22.6032  -14.6831 O   0  0  0  0  0  0  0  0  0  0  0  0
   25.5522  -22.0907  -10.3090 N   0  0  0  0  0  0  0  0  0  0  0  0
   25.2773  -20.6812  -10.3515 C   0  0  0  0  0  0  0  0  0  0  0  0
   25.5297  -20.0309   -9.3255 O   0  0  0  0  0  0  0  0  0  0  0  0
   24.7260  -20.0704  -11.5603 C   0  0  0  0  0  0  0  0  0  0  0  0
   24.5231  -21.0734  -12.6381 C   0  0  2  0  0  0  0  0  0  0  0  0
   25.0518  -20.5626  -13.9257 N   0  0  0  0  0  0  0  0  0  0  0  0
   23.0336  -21.1965  -12.8857 C   0  0  0  0  0  0  0  0  0  0  0  0
   22.3489  -20.1736  -12.9981 O   0  0  0  0  0  0  0  0  0  0  0  0
   22.3875  -22.4609  -12.9937 N   0  0  0  0  0  0  0  0  0  0  0  0
   20.9240  -22.5527  -13.1236 C   0  0  1  0  0  0  0  0  0  0  0  0
   20.2651  -22.3335  -11.8102 C   0  0  0  0  0  0  0  0  0  0  0  0
   20.0058  -23.6327  -11.1037 C   0  0  0  0  0  0  0  0  0  0  0  0
   19.2073  -23.4027   -9.8188 C   0  0  0  0  0  0  0  0  0  0  0  0
   18.8836  -24.6899   -9.1121 C   0  0  0  0  0  0  0  0  0  0  0  0
   18.0844  -24.4625   -7.9199 N   0  0  0  0  0  0  0  0  0  0  0  0
   20.4553  -21.5908  -14.1427 C   0  0  0  0  0  0  0  0  0  0  0  0
   21.1721  -20.5236  -14.6393 O   0  0  0  0  0  0  0  0  0  0  0  0
   19.2782  -21.7240  -14.6344 O   0  0  0  0  0  0  0  0  0  0  0  0
  2  1  1  6
  2  4  1  0
  3  2  1  0
  4  5  1  0
  5  6  1  1
  7  5  1  0
  7  8  2  0
  9 10  1  0
 10 11  2  0
 10 12  1  0
 13 12  1  1
 13 14  1  0
 13 15  1  0
 14  7  1  0
 15 17  1  0
 16 15  2  0
 17 18  1  0
 18 24  1  0
 18 19  1  1
 20 19  1  0
 21 20  1  0
 22 21  1  0
 23 22  1  0
 24 26  2  0
 24 25  1  0
M  END
$$$$
