LNK.pdb
     RDKit          3D

 26 25  0  0  1  0  0  0  0  0999 V2000
   19.0626  -12.8669    3.7793 C   0  0  0  0  0  0  0  0  0  0  0  0
   17.8992  -13.6736    3.2430 C   0  0  1  0  0  0  0  0  0  0  0  0
   18.2690  -14.2024    1.9035 C   0  0  0  0  0  0  0  0  0  0  0  0
   17.4362  -14.6858    4.2299 C   0  0  0  0  0  0  0  0  0  0  0  0
   16.2079  -15.4305    3.8769 C   0  0  2  0  0  0  0  0  0  0  0  0
   14.9773  -14.7198    4.0434 N   0  0  0  0  0  0  0  0  0  0  0  0
   16.1260  -16.6354    4.7573 C   0  0  0  0  0  0  0  0  0  0  0  0
   15.5840  -16.4742    5.8796 O   0  0  0  0  0  0  0  0  0  0  0  0
   16.9413  -22.8202    4.7440 N   0  0  0  0  0  0  0  0  0  0  0  0
   16.6437  -21.5272    5.2950 C   0  0  0  0  0  0  0  0  0  0  0  0
   16.2336  -21.4990    6.4656 O   0  0  0  0  0  0  0  0  0  0  0  0
   16.8251  -20.3198    4.4904 C   0  0  0  0  0  0  0  0  0  0  0  0
   16.5123  -19.0914    5.2664 C   0  0  2  0  0  0  0  0  0  0  0  0
   16.6105  -17.8930    4.3988 N   0  0  0  0  0  0  0  0  0  0  0  0
   17.6166  -18.8891    6.2837 C   0  0  0  0  0  0  0  0  0  0  0  0
   18.6381  -18.2738    5.9586 O   0  0  0  0  0  0  0  0  0  0  0  0
   17.5193  -19.3881    7.6138 N   0  0  0  0  0  0  0  0  0  0  0  0
   18.3048  -18.7885    8.7050 C   0  0  1  0  0  0  0  0  0  0  0  0
   17.9909  -17.3432    8.8456 C   0  0  0  0  0  0  0  0  0  0  0  0
   18.7054  -16.7392   10.0198 C   0  0  0  0  0  0  0  0  0  0  0  0
   18.3917  -15.2461   10.1376 C   0  0  0  0  0  0  0  0  0  0  0  0
   19.1024  -14.6053   11.2975 C   0  0  0  0  0  0  0  0  0  0  0  0
   18.8088  -13.1850   11.3897 N   0  0  0  0  0  0  0  0  0  0  0  0
   18.0586  -19.5305    9.9589 C   0  0  0  0  0  0  0  0  0  0  0  0
   16.9397  -20.2807   10.2497 O   0  0  0  0  0  0  0  0  0  0  0  0
   18.9411  -19.4974   10.8891 O   0  0  0  0  0  0  0  0  0  0  0  0
  2  1  1  1
  2  4  1  0
  3  2  1  0
  4  5  1  0
  5  6  1  1
  7  5  1  0
  7  8  2  0
  9 10  1  0
 10 11  2  0
 10 12  1  0
 13 12  1  6
 13 14  1  0
 13 15  1  0
 14  7  1  0
 15 17  1  0
 16 15  2  0
 17 18  1  0
 18 24  1  0
 18 19  1  1
 20 19  1  0
 21 20  1  0
 22 21  1  0
 23 22  1  0
 24 26  2  0
 24 25  1  0
M  END
$$$$
