PHY.pdb
     RDKit          3D

 30 32  0  0  1  0  0  0  0  0999 V2000
   27.6377  -18.7778  -17.1036 N   0  0  0  0  0  0  0  0  0  0  0  0
   28.3840  -18.1512  -18.1545 C   0  0  0  0  0  0  0  0  0  0  0  0
   28.9184  -16.8477  -17.6149 C   0  0  0  0  0  0  0  0  0  0  0  0
   28.1038  -16.5724  -16.3896 C   0  0  0  0  0  0  0  0  0  0  0  0
   27.5674  -17.9084  -15.9776 C   0  0  1  0  0  0  0  0  0  0  0  0
   26.1512  -17.8167  -15.5011 C   0  0  0  0  0  0  0  0  0  0  0  0
   25.8674  -17.0312  -14.5539 O   0  0  0  0  0  0  0  0  0  0  0  0
   25.1137  -18.5720  -16.0652 N   0  0  0  0  0  0  0  0  0  0  0  0
   23.7207  -18.4209  -15.4993 C   0  0  1  0  0  0  0  0  0  0  0  0
   22.9654  -17.8543  -16.6630 C   0  0  0  0  0  0  0  0  0  0  0  0
   23.2860  -16.5084  -17.1001 C   0  0  0  0  0  0  0  0  0  0  0  0
   23.9386  -16.2106  -18.3072 C   0  0  0  0  0  0  0  0  0  0  0  0
   24.0599  -14.8946  -18.3696 N   0  0  0  0  0  0  0  0  0  0  0  0
   23.5246  -14.3230  -17.2748 C   0  0  0  0  0  0  0  0  0  0  0  0
   23.0674  -15.3412  -16.5331 N   0  0  0  0  0  0  0  0  0  0  0  0
   23.3043  -19.7699  -15.0715 C   0  0  0  0  0  0  0  0  0  0  0  0
   22.7748  -20.5831  -15.9268 O   0  0  0  0  0  0  0  0  0  0  0  0
   26.0737  -19.5576   -8.2160 O   0  0  0  0  0  0  0  0  0  0  0  0
   25.6526  -20.2085   -9.3753 C   0  0  0  0  0  0  0  0  0  0  0  0
   26.1995  -19.9269  -10.6056 C   0  0  0  0  0  0  0  0  0  0  0  0
   25.7806  -20.5697  -11.7350 C   0  0  0  0  0  0  0  0  0  0  0  0
   24.7744  -21.5301  -11.6178 C   0  0  0  0  0  0  0  0  0  0  0  0
   24.2791  -22.2467  -12.7948 C   0  0  0  0  0  0  0  0  0  0  0  0
   23.0482  -21.5925  -13.3668 C   0  0  2  0  0  0  0  0  0  0  0  0
   23.4659  -20.2246  -13.7536 N   0  0  0  0  0  0  0  0  0  0  0  0
   21.9637  -21.5353  -12.3897 C   0  0  0  0  0  0  0  0  0  0  0  0
   21.3248  -22.5452  -12.0205 O   0  0  0  0  0  0  0  0  0  0  0  0
   24.2150  -21.8234  -10.3835 C   0  0  0  0  0  0  0  0  0  0  0  0
   24.6669  -21.1529   -9.2759 C   0  0  0  0  0  0  0  0  0  0  0  0
   21.6119  -20.2967  -11.8313 O   0  0  0  0  0  0  0  0  0  0  0  0
  1  2  1  0
  1  5  1  0
  2  3  1  0
  3  4  1  0
  5  4  1  0
  5  6  1  6
  6  7  2  0
  8  6  1  0
  9  8  1  0
  9 10  1  6
 11 10  1  0
 11 15  1  0
 12 13  1  0
 12 11  2  0
 13 14  1  0
 14 15  2  0
 16  9  1  0
 17 16  2  0
 18 19  1  0
 19 29  2  0
 19 20  1  0
 20 21  2  0
 21 22  1  0
 22 23  1  0
 24 23  1  1
 24 25  1  0
 25 16  1  0
 26 24  1  0
 26 30  1  0
 27 26  2  0
 28 22  2  0
 29 28  1  0
M  END
$$$$
