PHY.pdb
     RDKit          3D

 30 32  0  0  1  0  0  0  0  0999 V2000
   29.2300  -26.1326  -18.4039 N   0  0  0  0  0  0  0  0  0  0  0  0
   29.7656  -27.2940  -17.7570 C   0  0  0  0  0  0  0  0  0  0  0  0
   28.6418  -27.9412  -16.9861 C   0  0  0  0  0  0  0  0  0  0  0  0
   27.5861  -26.8852  -16.8802 C   0  0  0  0  0  0  0  0  0  0  0  0
   27.8773  -25.9378  -18.0027 C   0  0  1  0  0  0  0  0  0  0  0  0
   27.6747  -24.5120  -17.5941 C   0  0  0  0  0  0  0  0  0  0  0  0
   28.6593  -23.8448  -17.1694 O   0  0  0  0  0  0  0  0  0  0  0  0
   26.4272  -23.8764  -17.6622 N   0  0  0  0  0  0  0  0  0  0  0  0
   26.3358  -22.4211  -17.2654 C   0  0  1  0  0  0  0  0  0  0  0  0
   25.3444  -21.8847  -18.2530 C   0  0  0  0  0  0  0  0  0  0  0  0
   25.5305  -20.5336  -18.7479 C   0  0  0  0  0  0  0  0  0  0  0  0
   26.5642  -19.6805  -18.3289 C   0  0  0  0  0  0  0  0  0  0  0  0
   26.4201  -18.5421  -18.9874 N   0  0  0  0  0  0  0  0  0  0  0  0
   25.3549  -18.6076  -19.8077 C   0  0  0  0  0  0  0  0  0  0  0  0
   24.8466  -19.8345  -19.6283 N   0  0  0  0  0  0  0  0  0  0  0  0
   25.8963  -22.4077  -15.8573 C   0  0  0  0  0  0  0  0  0  0  0  0
   24.9816  -23.2313  -15.4592 O   0  0  0  0  0  0  0  0  0  0  0  0
   25.3264  -19.9818   -7.4161 O   0  0  0  0  0  0  0  0  0  0  0  0
   25.7132  -20.1361   -8.7471 C   0  0  0  0  0  0  0  0  0  0  0  0
   25.2640  -19.2925   -9.7363 C   0  0  0  0  0  0  0  0  0  0  0  0
   25.6484  -19.4517  -11.0367 C   0  0  0  0  0  0  0  0  0  0  0  0
   26.5164  -20.4994  -11.3489 C   0  0  0  0  0  0  0  0  0  0  0  0
   26.9573  -20.7244  -12.7270 C   0  0  0  0  0  0  0  0  0  0  0  0
   25.9483  -21.5239  -13.5100 C   0  0  2  0  0  0  0  0  0  0  0  0
   26.4406  -21.5296  -14.9075 N   0  0  0  0  0  0  0  0  0  0  0  0
   24.6168  -20.9268  -13.4428 C   0  0  0  0  0  0  0  0  0  0  0  0
   23.7382  -21.3087  -12.6386 O   0  0  0  0  0  0  0  0  0  0  0  0
   26.9766  -21.3568  -10.3611 C   0  0  0  0  0  0  0  0  0  0  0  0
   26.5641  -21.1589   -9.0683 C   0  0  0  0  0  0  0  0  0  0  0  0
   24.2948  -19.8754  -14.3149 O   0  0  0  0  0  0  0  0  0  0  0  0
  1  2  1  0
  1  5  1  0
  2  3  1  0
  3  4  1  0
  5  4  1  0
  5  6  1  1
  6  7  2  0
  8  6  1  0
  9  8  1  0
  9 10  1  6
 11 10  1  0
 11 15  1  0
 12 13  1  0
 12 11  2  0
 13 14  1  0
 14 15  2  0
 16  9  1  0
 17 16  2  0
 18 19  1  0
 19 29  2  0
 19 20  1  0
 20 21  2  0
 21 22  1  0
 22 23  1  0
 24 23  1  1
 24 25  1  0
 25 16  1  0
 26 24  1  0
 26 30  1  0
 27 26  2  0
 28 22  2  0
 29 28  1  0
M  END
$$$$
