PHY.pdb
     RDKit          3D

 30 32  0  0  1  0  0  0  0  0999 V2000
   43.2647  -12.3223   -9.0554 N   0  0  0  0  0  0  0  0  0  0  0  0
   44.3461  -13.2624   -9.0852 C   0  0  0  0  0  0  0  0  0  0  0  0
   44.3409  -13.9999   -7.7691 C   0  0  0  0  0  0  0  0  0  0  0  0
   43.5040  -13.1586   -6.8567 C   0  0  0  0  0  0  0  0  0  0  0  0
   42.6505  -12.3345   -7.7704 C   0  0  1  0  0  0  0  0  0  0  0  0
   42.4974  -10.9308   -7.2732 C   0  0  0  0  0  0  0  0  0  0  0  0
   41.9534  -10.7281   -6.1517 O   0  0  0  0  0  0  0  0  0  0  0  0
   42.9353   -9.8181   -8.0048 N   0  0  0  0  0  0  0  0  0  0  0  0
   42.7950   -8.4466   -7.3860 C   0  0  1  0  0  0  0  0  0  0  0  0
   44.1131   -7.8139   -7.7148 C   0  0  0  0  0  0  0  0  0  0  0  0
   45.2897   -8.2650   -6.9956 C   0  0  0  0  0  0  0  0  0  0  0  0
   45.3713   -8.3425   -5.5959 C   0  0  0  0  0  0  0  0  0  0  0  0
   46.5803   -8.7918   -5.3009 N   0  0  0  0  0  0  0  0  0  0  0  0
   47.2859   -9.0097   -6.4263 C   0  0  0  0  0  0  0  0  0  0  0  0
   46.4622   -8.6761   -7.4293 N   0  0  0  0  0  0  0  0  0  0  0  0
   41.6190   -7.8273   -8.0261 C   0  0  0  0  0  0  0  0  0  0  0  0
   41.5610   -7.7329   -9.3149 O   0  0  0  0  0  0  0  0  0  0  0  0
   37.8230  -12.8280   -8.8944 O   0  0  0  0  0  0  0  0  0  0  0  0
   37.8983  -11.4794   -8.5474 C   0  0  0  0  0  0  0  0  0  0  0  0
   37.7538  -10.4801   -9.4815 C   0  0  0  0  0  0  0  0  0  0  0  0
   37.8291   -9.1624   -9.1320 C   0  0  0  0  0  0  0  0  0  0  0  0
   38.0586   -8.8429   -7.7926 C   0  0  0  0  0  0  0  0  0  0  0  0
   38.1567   -7.4476   -7.3593 C   0  0  0  0  0  0  0  0  0  0  0  0
   39.3500   -6.7587   -7.9692 C   0  0  2  0  0  0  0  0  0  0  0  0
   40.5339   -7.3316   -7.2869 N   0  0  0  0  0  0  0  0  0  0  0  0
   39.2989   -5.3125   -7.7694 C   0  0  0  0  0  0  0  0  0  0  0  0
   40.0691   -4.7037   -6.9945 O   0  0  0  0  0  0  0  0  0  0  0  0
   38.2060   -9.8407   -6.8412 C   0  0  0  0  0  0  0  0  0  0  0  0
   38.1227  -11.1508   -7.2378 C   0  0  0  0  0  0  0  0  0  0  0  0
   38.3467   -4.5589   -8.4731 O   0  0  0  0  0  0  0  0  0  0  0  0
  1  2  1  0
  1  5  1  0
  2  3  1  0
  3  4  1  0
  5  4  1  0
  5  6  1  1
  6  7  2  0
  8  6  1  0
  9  8  1  0
  9 10  1  6
 11 10  1  0
 11 15  1  0
 12 13  1  0
 12 11  2  0
 13 14  1  0
 14 15  2  0
 16  9  1  0
 17 16  2  0
 18 19  1  0
 19 29  2  0
 19 20  1  0
 20 21  2  0
 21 22  1  0
 22 23  1  0
 24 23  1  1
 24 25  1  0
 25 16  1  0
 26 24  1  0
 26 30  1  0
 27 26  2  0
 28 22  2  0
 29 28  1  0
M  END
$$$$
