PHY.pdb
     RDKit          3D

 30 32  0  0  1  0  0  0  0  0999 V2000
   13.5629  -22.6871    0.9410 N   0  0  0  0  0  0  0  0  0  0  0  0
   12.9296  -22.4100   -0.3145 C   0  0  0  0  0  0  0  0  0  0  0  0
   14.0083  -22.3812   -1.3688 C   0  0  0  0  0  0  0  0  0  0  0  0
   15.2890  -22.2297   -0.6089 C   0  0  0  0  0  0  0  0  0  0  0  0
   14.9766  -22.7207    0.7709 C   0  0  1  0  0  0  0  0  0  0  0  0
   15.6294  -21.8785    1.8223 C   0  0  0  0  0  0  0  0  0  0  0  0
   16.8778  -21.6930    1.7788 O   0  0  0  0  0  0  0  0  0  0  0  0
   14.9094  -21.2794    2.8653 N   0  0  0  0  0  0  0  0  0  0  0  0
   15.6715  -20.5121    3.9208 C   0  0  1  0  0  0  0  0  0  0  0  0
   15.0645  -19.1456    3.8198 C   0  0  0  0  0  0  0  0  0  0  0  0
   15.7927  -18.1229    3.0925 C   0  0  0  0  0  0  0  0  0  0  0  0
   15.7233  -17.9510    1.7006 C   0  0  0  0  0  0  0  0  0  0  0  0
   16.5104  -16.9325    1.3947 N   0  0  0  0  0  0  0  0  0  0  0  0
   17.0850  -16.4350    2.5056 C   0  0  0  0  0  0  0  0  0  0  0  0
   16.6199  -17.1889    3.5111 N   0  0  0  0  0  0  0  0  0  0  0  0
   15.4311  -21.2183    5.1935 C   0  0  0  0  0  0  0  0  0  0  0  0
   14.4420  -22.0456    5.2953 O   0  0  0  0  0  0  0  0  0  0  0  0
   14.7873  -26.2647   11.8293 O   0  0  0  0  0  0  0  0  0  0  0  0
   15.1435  -25.4962   10.7215 C   0  0  0  0  0  0  0  0  0  0  0  0
   16.4013  -24.9560   10.5866 C   0  0  0  0  0  0  0  0  0  0  0  0
   16.7407  -24.2049    9.4980 C   0  0  0  0  0  0  0  0  0  0  0  0
   15.7762  -23.9917    8.5118 C   0  0  0  0  0  0  0  0  0  0  0  0
   16.0795  -23.1884    7.3256 C   0  0  0  0  0  0  0  0  0  0  0  0
   15.9345  -21.7141    7.6007 C   0  0  2  0  0  0  0  0  0  0  0  0
   16.2470  -21.0362    6.3208 N   0  0  0  0  0  0  0  0  0  0  0  0
   16.8493  -21.2678    8.6486 C   0  0  0  0  0  0  0  0  0  0  0  0
   17.9567  -20.7391    8.4069 O   0  0  0  0  0  0  0  0  0  0  0  0
   14.5047  -24.5306    8.6356 C   0  0  0  0  0  0  0  0  0  0  0  0
   14.2083  -25.2787    9.7461 C   0  0  0  0  0  0  0  0  0  0  0  0
   16.4814  -21.4337    9.9927 O   0  0  0  0  0  0  0  0  0  0  0  0
  1  2  1  0
  1  5  1  0
  2  3  1  0
  3  4  1  0
  5  4  1  0
  5  6  1  1
  6  7  2  0
  8  6  1  0
  9  8  1  0
  9 10  1  1
 11 10  1  0
 11 15  1  0
 12 13  1  0
 12 11  2  0
 13 14  1  0
 14 15  2  0
 16  9  1  0
 17 16  2  0
 18 19  1  0
 19 29  2  0
 19 20  1  0
 20 21  2  0
 21 22  1  0
 22 23  1  0
 24 23  1  6
 24 25  1  0
 25 16  1  0
 26 24  1  0
 26 30  1  0
 27 26  2  0
 28 22  2  0
 29 28  1  0
M  END
$$$$
