PHY.pdb
     RDKit          3D

 30 32  0  0  1  0  0  0  0  0999 V2000
   19.3548  -11.5571  -17.9370 N   0  0  0  0  0  0  0  0  0  0  0  0
   19.3629  -12.8376  -18.5807 C   0  0  0  0  0  0  0  0  0  0  0  0
   19.1604  -13.8828  -17.5118 C   0  0  0  0  0  0  0  0  0  0  0  0
   19.4618  -13.1829  -16.2234 C   0  0  0  0  0  0  0  0  0  0  0  0
   19.2770  -11.7278  -16.5250 C   0  0  1  0  0  0  0  0  0  0  0  0
   20.3192  -10.8846  -15.8587 C   0  0  0  0  0  0  0  0  0  0  0  0
   20.4235  -10.9104  -14.6005 O   0  0  0  0  0  0  0  0  0  0  0  0
   21.1947  -10.0580  -16.5765 N   0  0  0  0  0  0  0  0  0  0  0  0
   22.1883   -9.2184  -15.8075 C   0  0  1  0  0  0  0  0  0  0  0  0
   23.4798   -9.5494  -16.4916 C   0  0  0  0  0  0  0  0  0  0  0  0
   23.6134   -9.2263  -17.8998 C   0  0  0  0  0  0  0  0  0  0  0  0
   22.5585   -8.7600  -18.7007 C   0  0  0  0  0  0  0  0  0  0  0  0
   23.0462   -8.5730  -19.9163 N   0  0  0  0  0  0  0  0  0  0  0  0
   24.3539   -8.8904  -19.9498 C   0  0  0  0  0  0  0  0  0  0  0  0
   24.6539   -9.2815  -18.7037 N   0  0  0  0  0  0  0  0  0  0  0  0
   21.7383   -7.8206  -15.9481 C   0  0  0  0  0  0  0  0  0  0  0  0
   20.9310   -7.4960  -16.9053 O   0  0  0  0  0  0  0  0  0  0  0  0
   19.6865    0.4674  -14.1027 O   0  0  0  0  0  0  0  0  0  0  0  0
   20.1004   -0.8636  -14.0582 C   0  0  0  0  0  0  0  0  0  0  0  0
   19.2042   -1.9052  -14.1220 C   0  0  0  0  0  0  0  0  0  0  0  0
   19.6192   -3.2052  -14.0778 C   0  0  0  0  0  0  0  0  0  0  0  0
   20.9866   -3.4621  -13.9649 C   0  0  0  0  0  0  0  0  0  0  0  0
   21.4905   -4.8357  -13.9052 C   0  0  0  0  0  0  0  0  0  0  0  0
   21.7255   -5.4021  -15.2815 C   0  0  2  0  0  0  0  0  0  0  0  0
   22.1480   -6.8062  -15.0690 N   0  0  0  0  0  0  0  0  0  0  0  0
   22.7609   -4.6631  -15.9999 C   0  0  0  0  0  0  0  0  0  0  0  0
   22.5042   -3.7936  -16.8616 O   0  0  0  0  0  0  0  0  0  0  0  0
   21.9003   -2.4212  -13.8998 C   0  0  0  0  0  0  0  0  0  0  0  0
   21.4381   -1.1310  -13.9478 C   0  0  0  0  0  0  0  0  0  0  0  0
   24.1098   -4.9310  -15.7203 O   0  0  0  0  0  0  0  0  0  0  0  0
  1  2  1  0
  1  5  1  0
  2  3  1  0
  3  4  1  0
  5  4  1  0
  5  6  1  1
  6  7  2  0
  8  6  1  0
  9  8  1  0
  9 10  1  6
 11 10  1  0
 11 15  1  0
 12 13  1  0
 12 11  2  0
 13 14  1  0
 14 15  2  0
 16  9  1  0
 17 16  2  0
 18 19  1  0
 19 29  2  0
 19 20  1  0
 20 21  2  0
 21 22  1  0
 22 23  1  0
 24 23  1  1
 24 25  1  0
 25 16  1  0
 26 24  1  0
 26 30  1  0
 27 26  2  0
 28 22  2  0
 29 28  1  0
M  END
$$$$
