PHY.pdb
     RDKit          3D

 30 32  0  0  1  0  0  0  0  0999 V2000
   21.3770  -18.7191  -17.3626 N   0  0  0  0  0  0  0  0  0  0  0  0
   22.1522  -19.8591  -17.7546 C   0  0  0  0  0  0  0  0  0  0  0  0
   23.2347  -20.0473  -16.7208 C   0  0  0  0  0  0  0  0  0  0  0  0
   23.2986  -18.7453  -15.9850 C   0  0  0  0  0  0  0  0  0  0  0  0
   21.9641  -18.1072  -16.2182 C   0  0  1  0  0  0  0  0  0  0  0  0
   22.0843  -16.6321  -16.4432 C   0  0  0  0  0  0  0  0  0  0  0  0
   22.6707  -15.9209  -15.5800 O   0  0  0  0  0  0  0  0  0  0  0  0
   21.5694  -15.9970  -17.5819 N   0  0  0  0  0  0  0  0  0  0  0  0
   21.6891  -14.4942  -17.6864 C   0  0  1  0  0  0  0  0  0  0  0  0
   21.8878  -14.2935  -19.1582 C   0  0  0  0  0  0  0  0  0  0  0  0
   22.0755  -12.9405  -19.6475 C   0  0  0  0  0  0  0  0  0  0  0  0
   22.0041  -11.7965  -18.8364 C   0  0  0  0  0  0  0  0  0  0  0  0
   22.2258  -10.7516  -19.6172 N   0  0  0  0  0  0  0  0  0  0  0  0
   22.4364  -11.1512  -20.8852 C   0  0  0  0  0  0  0  0  0  0  0  0
   22.3355  -12.4872  -20.8552 N   0  0  0  0  0  0  0  0  0  0  0  0
   20.4352  -13.9446  -17.1369 C   0  0  0  0  0  0  0  0  0  0  0  0
   19.3058  -14.5095  -17.4173 O   0  0  0  0  0  0  0  0  0  0  0  0
   18.3805  -17.9009  -12.8985 O   0  0  0  0  0  0  0  0  0  0  0  0
   18.6275  -16.5686  -13.2287 C   0  0  0  0  0  0  0  0  0  0  0  0
   19.8809  -16.0132  -13.1173 C   0  0  0  0  0  0  0  0  0  0  0  0
   20.1128  -14.7077  -13.4432 C   0  0  0  0  0  0  0  0  0  0  0  0
   19.0415  -13.9365  -13.8971 C   0  0  0  0  0  0  0  0  0  0  0  0
   19.2276  -12.5286  -14.2542 C   0  0  0  0  0  0  0  0  0  0  0  0
   19.1329  -12.3154  -15.7428 C   0  0  2  0  0  0  0  0  0  0  0  0
   20.4104  -12.8180  -16.3004 N   0  0  0  0  0  0  0  0  0  0  0  0
   18.9534  -10.9044  -16.0759 C   0  0  0  0  0  0  0  0  0  0  0  0
   19.8260  -10.2258  -16.6611 O   0  0  0  0  0  0  0  0  0  0  0  0
   17.7732  -14.4842  -14.0140 C   0  0  0  0  0  0  0  0  0  0  0  0
   17.5868  -15.8000  -13.6754 C   0  0  0  0  0  0  0  0  0  0  0  0
   17.7514  -10.2683  -15.7293 O   0  0  0  0  0  0  0  0  0  0  0  0
  1  2  1  0
  1  5  1  0
  2  3  1  0
  3  4  1  0
  5  4  1  0
  5  6  1  6
  6  7  2  0
  8  6  1  0
  9  8  1  0
  9 10  1  6
 11 10  1  0
 11 15  1  0
 12 13  1  0
 12 11  2  0
 13 14  1  0
 14 15  2  0
 16  9  1  0
 17 16  2  0
 18 19  1  0
 19 29  2  0
 19 20  1  0
 20 21  2  0
 21 22  1  0
 22 23  1  0
 24 23  1  1
 24 25  1  0
 25 16  1  0
 26 24  1  0
 26 30  1  0
 27 26  2  0
 28 22  2  0
 29 28  1  0
M  END
$$$$
