PHY.pdb
     RDKit          3D

 30 32  0  0  1  0  0  0  0  0999 V2000
   28.6517  -23.1688  -16.8505 N   0  0  0  0  0  0  0  0  0  0  0  0
   29.0738  -23.7166  -18.1058 C   0  0  0  0  0  0  0  0  0  0  0  0
   29.7761  -22.6187  -18.8655 C   0  0  0  0  0  0  0  0  0  0  0  0
   29.3629  -21.3510  -18.1850 C   0  0  0  0  0  0  0  0  0  0  0  0
   28.9364  -21.7736  -16.8132 C   0  0  1  0  0  0  0  0  0  0  0  0
   27.7244  -21.0256  -16.3522 C   0  0  0  0  0  0  0  0  0  0  0  0
   27.7903  -19.7732  -16.2038 O   0  0  0  0  0  0  0  0  0  0  0  0
   26.5054  -21.6596  -16.0745 N   0  0  0  0  0  0  0  0  0  0  0  0
   25.2986  -20.8023  -15.7705 C   0  0  1  0  0  0  0  0  0  0  0  0
   24.3537  -21.1838  -16.8693 C   0  0  0  0  0  0  0  0  0  0  0  0
   23.1352  -20.4118  -17.0259 C   0  0  0  0  0  0  0  0  0  0  0  0
   22.7917  -19.3164  -16.2172 C   0  0  0  0  0  0  0  0  0  0  0  0
   21.6251  -18.8652  -16.6484 N   0  0  0  0  0  0  0  0  0  0  0  0
   21.1931  -19.6033  -17.6879 C   0  0  0  0  0  0  0  0  0  0  0  0
   22.1419  -20.5297  -17.8810 N   0  0  0  0  0  0  0  0  0  0  0  0
   24.8672  -21.1712  -14.4089 C   0  0  0  0  0  0  0  0  0  0  0  0
   24.7311  -22.4177  -14.0909 O   0  0  0  0  0  0  0  0  0  0  0  0
   30.5243  -21.1371  -11.3731 O   0  0  0  0  0  0  0  0  0  0  0  0
   29.1665  -20.8280  -11.2979 C   0  0  0  0  0  0  0  0  0  0  0  0
   28.2428  -21.7267  -10.8169 C   0  0  0  0  0  0  0  0  0  0  0  0
   26.9154  -21.4147  -10.7471 C   0  0  0  0  0  0  0  0  0  0  0  0
   26.5067  -20.1516  -11.1783 C   0  0  0  0  0  0  0  0  0  0  0  0
   25.0955  -19.7630  -11.1344 C   0  0  0  0  0  0  0  0  0  0  0  0
   24.2532  -20.6252  -12.0386 C   0  0  2  0  0  0  0  0  0  0  0  0
   24.5987  -20.2131  -13.4192 N   0  0  0  0  0  0  0  0  0  0  0  0
   22.8261  -20.4322  -11.7929 C   0  0  0  0  0  0  0  0  0  0  0  0
   22.2488  -20.8500  -10.7651 O   0  0  0  0  0  0  0  0  0  0  0  0
   27.4277  -19.2366  -11.6651 C   0  0  0  0  0  0  0  0  0  0  0  0
   28.7508  -19.5931  -11.7169 C   0  0  0  0  0  0  0  0  0  0  0  0
   22.0554  -19.7480  -12.7455 O   0  0  0  0  0  0  0  0  0  0  0  0
  1  2  1  0
  1  5  1  0
  2  3  1  0
  3  4  1  0
  5  4  1  0
  5  6  1  6
  6  7  2  0
  8  6  1  0
  9  8  1  0
  9 10  1  6
 11 10  1  0
 11 15  1  0
 12 13  1  0
 12 11  2  0
 13 14  1  0
 14 15  2  0
 16  9  1  0
 17 16  2  0
 18 19  1  0
 19 29  2  0
 19 20  1  0
 20 21  2  0
 21 22  1  0
 22 23  1  0
 24 23  1  1
 24 25  1  0
 25 16  1  0
 26 24  1  0
 26 30  1  0
 27 26  2  0
 28 22  2  0
 29 28  1  0
M  END
$$$$
