PHY.pdb
     RDKit          3D

 30 32  0  0  1  0  0  0  0  0999 V2000
   27.1110  -22.1262  -16.0288 N   0  0  0  0  0  0  0  0  0  0  0  0
   26.9169  -21.9910  -17.4424 C   0  0  0  0  0  0  0  0  0  0  0  0
   27.4460  -20.6366  -17.8443 C   0  0  0  0  0  0  0  0  0  0  0  0
   27.5480  -19.8653  -16.5655 C   0  0  0  0  0  0  0  0  0  0  0  0
   27.6191  -20.9081  -15.4933 C   0  0  1  0  0  0  0  0  0  0  0  0
   26.8241  -20.5198  -14.2857 C   0  0  0  0  0  0  0  0  0  0  0  0
   26.9740  -19.3674  -13.7913 O   0  0  0  0  0  0  0  0  0  0  0  0
   25.9102  -21.3874  -13.6716 N   0  0  0  0  0  0  0  0  0  0  0  0
   25.0270  -20.8450  -12.5719 C   0  0  1  0  0  0  0  0  0  0  0  0
   23.7254  -21.5377  -12.8399 C   0  0  0  0  0  0  0  0  0  0  0  0
   22.8343  -20.9650  -13.8314 C   0  0  0  0  0  0  0  0  0  0  0  0
   22.5000  -19.6025  -13.8915 C   0  0  0  0  0  0  0  0  0  0  0  0
   21.6746  -19.4491  -14.9140 N   0  0  0  0  0  0  0  0  0  0  0  0
   21.4548  -20.6311  -15.5193 C   0  0  0  0  0  0  0  0  0  0  0  0
   22.1791  -21.5216  -14.8278 N   0  0  0  0  0  0  0  0  0  0  0  0
   25.6859  -21.2061  -11.3024 C   0  0  0  0  0  0  0  0  0  0  0  0
   26.0495  -22.4291  -11.0894 O   0  0  0  0  0  0  0  0  0  0  0  0
   29.2003  -20.0087   -3.3172 O   0  0  0  0  0  0  0  0  0  0  0  0
   28.7549  -19.8737   -4.6319 C   0  0  0  0  0  0  0  0  0  0  0  0
   27.6750  -19.0856   -4.9554 C   0  0  0  0  0  0  0  0  0  0  0  0
   27.2465  -18.9598   -6.2457 C   0  0  0  0  0  0  0  0  0  0  0  0
   27.9322  -19.6542   -7.2437 C   0  0  0  0  0  0  0  0  0  0  0  0
   27.5143  -19.5642   -8.6442 C   0  0  0  0  0  0  0  0  0  0  0  0
   26.5659  -20.6752   -9.0139 C   0  0  2  0  0  0  0  0  0  0  0  0
   25.9488  -20.2634  -10.2965 N   0  0  0  0  0  0  0  0  0  0  0  0
   25.5376  -20.8688   -7.9944 C   0  0  0  0  0  0  0  0  0  0  0  0
   24.4144  -20.3211   -8.0465 O   0  0  0  0  0  0  0  0  0  0  0  0
   29.0223  -20.4519   -6.9309 C   0  0  0  0  0  0  0  0  0  0  0  0
   29.4175  -20.5486   -5.6213 C   0  0  0  0  0  0  0  0  0  0  0  0
   25.8090  -21.7054   -6.9007 O   0  0  0  0  0  0  0  0  0  0  0  0
  1  2  1  0
  1  5  1  0
  2  3  1  0
  3  4  1  0
  5  4  1  0
  5  6  1  1
  6  7  2  0
  8  6  1  0
  9  8  1  0
  9 10  1  1
 11 10  1  0
 11 15  1  0
 12 13  1  0
 12 11  2  0
 13 14  1  0
 14 15  2  0
 16  9  1  0
 17 16  2  0
 18 19  1  0
 19 29  2  0
 19 20  1  0
 20 21  2  0
 21 22  1  0
 22 23  1  0
 24 23  1  1
 24 25  1  0
 25 16  1  0
 26 24  1  0
 26 30  1  0
 27 26  2  0
 28 22  2  0
 29 28  1  0
M  END
$$$$
