SDR.pdb
     RDKit          3D

 26 25  0  0  1  0  0  0  0  0999 V2000
   16.7604  -24.0395   -4.3584 O   0  0  0  0  0  0  0  0  0  0  0  0
   17.6259  -25.0663   -4.6882 C   0  0  0  0  0  0  0  0  0  0  0  0
   16.8792  -26.3920   -4.7023 C   0  0  2  0  0  0  0  0  0  0  0  0
   15.7612  -26.2618   -5.6003 N   0  0  0  0  0  0  0  0  0  0  0  0
   16.4414  -26.7491   -3.3375 C   0  0  0  0  0  0  0  0  0  0  0  0
   15.2264  -26.8602   -3.0188 O   0  0  0  0  0  0  0  0  0  0  0  0
   17.3743  -26.9976   -2.2658 N   0  0  0  0  0  0  0  0  0  0  0  0
   16.9203  -27.4631   -0.9721 C   0  0  1  0  0  0  0  0  0  0  0  0
   17.7579  -28.6768   -0.6221 C   0  0  0  0  0  0  0  0  0  0  0  0
   17.1628  -29.4658    0.4692 C   0  0  0  0  0  0  0  0  0  0  0  0
   16.7144  -28.8767    1.4974 O   0  0  0  0  0  0  0  0  0  0  0  0
   17.0495  -26.4054    0.0659 C   0  0  0  0  0  0  0  0  0  0  0  0
   18.0636  -25.7055    0.2081 O   0  0  0  0  0  0  0  0  0  0  0  0
   17.0467  -30.8522    0.4674 O   0  0  0  0  0  0  0  0  0  0  0  0
   11.4299  -21.2032   -0.7213 N   0  0  0  0  0  0  0  0  0  0  0  0
   12.3919  -20.4464    0.0080 C   0  0  0  0  0  0  0  0  0  0  0  0
   12.2566  -19.1835    0.1896 N   0  0  0  0  0  0  0  0  0  0  0  0
   13.5275  -21.1560    0.5317 N   0  0  0  0  0  0  0  0  0  0  0  0
   13.7286  -22.5317    0.2051 C   0  0  0  0  0  0  0  0  0  0  0  0
   14.9593  -23.1647    0.7663 C   0  0  0  0  0  0  0  0  0  0  0  0
   14.7701  -24.2079    1.8150 C   0  0  0  0  0  0  0  0  0  0  0  0
   15.9095  -25.1236    1.9335 C   0  0  2  0  0  0  0  0  0  0  0  0
   15.9706  -26.1734    0.9434 N   0  0  0  0  0  0  0  0  0  0  0  0
   16.2082  -25.6525    3.2574 C   0  0  0  0  0  0  0  0  0  0  0  0
   16.8332  -24.8477    4.2293 O   0  0  0  0  0  0  0  0  0  0  0  0
   15.9319  -26.8277    3.6037 O   0  0  0  0  0  0  0  0  0  0  0  0
  1  2  1  0
  3  2  1  0
  3  4  1  6
  5  6  2  0
  5  3  1  0
  7  5  1  0
  8  7  1  0
  9 10  1  0
  8  9  1  1
 10 14  1  0
 10 11  2  0
 12 23  1  0
 12  8  1  0
 13 12  2  0
 16 15  1  0
 17 16  2  0
 18 16  1  0
 19 18  1  0
 20 19  1  0
 21 20  1  0
 22 21  1  1
 22 23  1  0
 24 22  1  0
 25 24  1  0
 26 24  2  0
M  END
$$$$
