SDR.pdb
     RDKit          3D

 26 25  0  0  1  0  0  0  0  0999 V2000
   15.3935  -11.4547  -16.6941 O   0  0  0  0  0  0  0  0  0  0  0  0
   15.9212  -10.6374  -15.7113 C   0  0  0  0  0  0  0  0  0  0  0  0
   17.3657  -11.0255  -15.4319 C   0  0  2  0  0  0  0  0  0  0  0  0
   17.4088  -12.4483  -15.2155 N   0  0  0  0  0  0  0  0  0  0  0  0
   17.8802  -10.2821  -14.2638 C   0  0  0  0  0  0  0  0  0  0  0  0
   17.7425  -10.6936  -13.0797 O   0  0  0  0  0  0  0  0  0  0  0  0
   18.5798   -9.0273  -14.3919 N   0  0  0  0  0  0  0  0  0  0  0  0
   19.1168   -8.3486  -13.2312 C   0  0  1  0  0  0  0  0  0  0  0  0
   20.1890   -7.4016  -13.7318 C   0  0  0  0  0  0  0  0  0  0  0  0
   20.8479   -6.6779  -12.6318 C   0  0  0  0  0  0  0  0  0  0  0  0
   21.5427   -5.6491  -12.8849 O   0  0  0  0  0  0  0  0  0  0  0  0
   18.0577   -7.6143  -12.4883 C   0  0  0  0  0  0  0  0  0  0  0  0
   17.2601   -6.8319  -13.0271 O   0  0  0  0  0  0  0  0  0  0  0  0
   20.7695   -7.0403  -11.2909 O   0  0  0  0  0  0  0  0  0  0  0  0
   11.4732   -9.9105   -7.7979 N   0  0  0  0  0  0  0  0  0  0  0  0
   11.4048   -9.0216   -8.9094 C   0  0  0  0  0  0  0  0  0  0  0  0
   10.3953   -9.0114   -9.7012 N   0  0  0  0  0  0  0  0  0  0  0  0
   12.5183   -8.1348   -9.1121 N   0  0  0  0  0  0  0  0  0  0  0  0
   13.7568   -8.3712   -8.4414 C   0  0  0  0  0  0  0  0  0  0  0  0
   14.9036   -7.5119   -8.8619 C   0  0  0  0  0  0  0  0  0  0  0  0
   16.0091   -8.1727   -9.6134 C   0  0  0  0  0  0  0  0  0  0  0  0
   16.9231   -7.2216  -10.2547 C   0  0  2  0  0  0  0  0  0  0  0  0
   17.9407   -7.8064  -11.0964 N   0  0  0  0  0  0  0  0  0  0  0  0
   17.4923   -6.1731   -9.4191 C   0  0  0  0  0  0  0  0  0  0  0  0
   18.8689   -5.8807   -9.4698 O   0  0  0  0  0  0  0  0  0  0  0  0
   16.8070   -5.4830   -8.6244 O   0  0  0  0  0  0  0  0  0  0  0  0
  1  2  1  0
  3  2  1  0
  3  4  1  1
  5  6  2  0
  5  3  1  0
  7  5  1  0
  8  7  1  0
  9 10  1  0
  8  9  1  6
 10 14  1  0
 10 11  2  0
 12 23  1  0
 12  8  1  0
 13 12  2  0
 16 15  1  0
 17 16  2  0
 18 16  1  0
 19 18  1  0
 20 19  1  0
 21 20  1  0
 22 21  1  1
 22 23  1  0
 24 22  1  0
 25 24  1  0
 26 24  2  0
M  END
$$$$
