SDR.pdb
     RDKit          3D

 26 25  0  0  1  0  0  0  0  0999 V2000
   19.4854  -11.4993  -15.9279 O   0  0  0  0  0  0  0  0  0  0  0  0
   18.4494  -12.1603  -15.2940 C   0  0  0  0  0  0  0  0  0  0  0  0
   17.3952  -11.1614  -14.8398 C   0  0  2  0  0  0  0  0  0  0  0  0
   16.8940  -10.4840  -16.0073 N   0  0  0  0  0  0  0  0  0  0  0  0
   17.9730  -10.2121  -13.8668 C   0  0  0  0  0  0  0  0  0  0  0  0
   18.3205  -10.5550  -12.7040 O   0  0  0  0  0  0  0  0  0  0  0  0
   18.1830   -8.8189  -14.1760 N   0  0  0  0  0  0  0  0  0  0  0  0
   18.6776   -7.8971  -13.1750 C   0  0  1  0  0  0  0  0  0  0  0  0
   19.4847   -6.8437  -13.9071 C   0  0  0  0  0  0  0  0  0  0  0  0
   20.8095   -7.3421  -14.3125 C   0  0  0  0  0  0  0  0  0  0  0  0
   21.2332   -7.1163  -15.4849 O   0  0  0  0  0  0  0  0  0  0  0  0
   17.5659   -7.2797  -12.4032 C   0  0  0  0  0  0  0  0  0  0  0  0
   16.4079   -7.1741  -12.8352 O   0  0  0  0  0  0  0  0  0  0  0  0
   21.6660   -8.0653  -13.4884 O   0  0  0  0  0  0  0  0  0  0  0  0
   11.5091   -9.7296   -7.9805 N   0  0  0  0  0  0  0  0  0  0  0  0
   11.4300   -8.3690   -7.5649 C   0  0  0  0  0  0  0  0  0  0  0  0
   10.4029   -7.9141   -6.9449 N   0  0  0  0  0  0  0  0  0  0  0  0
   12.5496   -7.5210   -7.8722 N   0  0  0  0  0  0  0  0  0  0  0  0
   13.5876   -7.9859   -8.7359 C   0  0  0  0  0  0  0  0  0  0  0  0
   14.7280   -7.0465   -8.9537 C   0  0  0  0  0  0  0  0  0  0  0  0
   15.7893   -7.4748   -9.9097 C   0  0  0  0  0  0  0  0  0  0  0  0
   16.8224   -6.4559  -10.1230 C   0  0  2  0  0  0  0  0  0  0  0  0
   17.8254   -6.7828  -11.1095 N   0  0  0  0  0  0  0  0  0  0  0  0
   17.4406   -5.8719   -8.9405 C   0  0  0  0  0  0  0  0  0  0  0  0
   16.7702   -4.8860   -8.1909 O   0  0  0  0  0  0  0  0  0  0  0  0
   18.5790   -6.2049   -8.5276 O   0  0  0  0  0  0  0  0  0  0  0  0
  1  2  1  0
  3  2  1  0
  3  4  1  6
  5  6  2  0
  5  3  1  0
  7  5  1  0
  8  7  1  0
  9 10  1  0
  8  9  1  6
 10 14  1  0
 10 11  2  0
 12 23  1  0
 12  8  1  0
 13 12  2  0
 16 15  1  0
 17 16  2  0
 18 16  1  0
 19 18  1  0
 20 19  1  0
 21 20  1  0
 22 21  1  1
 22 23  1  0
 24 22  1  0
 25 24  1  0
 26 24  2  0
M  END
$$$$
