SDR.pdb
     RDKit          3D

 26 25  0  0  1  0  0  0  0  0999 V2000
   32.7665  -23.6494  -19.8672 O   0  0  0  0  0  0  0  0  0  0  0  0
   31.6411  -22.8831  -19.6250 C   0  0  0  0  0  0  0  0  0  0  0  0
   30.8877  -23.4305  -18.4217 C   0  0  2  0  0  0  0  0  0  0  0  0
   30.4834  -24.7782  -18.7272 N   0  0  0  0  0  0  0  0  0  0  0  0
   29.7267  -22.5724  -18.1092 C   0  0  0  0  0  0  0  0  0  0  0  0
   29.8470  -21.3844  -17.7035 O   0  0  0  0  0  0  0  0  0  0  0  0
   28.3661  -23.0315  -18.2456 N   0  0  0  0  0  0  0  0  0  0  0  0
   27.2491  -22.1540  -17.9651 C   0  0  1  0  0  0  0  0  0  0  0  0
   26.1981  -22.4275  -19.0222 C   0  0  0  0  0  0  0  0  0  0  0  0
   25.0198  -21.5577  -18.8715 C   0  0  0  0  0  0  0  0  0  0  0  0
   25.1740  -20.3043  -18.7694 O   0  0  0  0  0  0  0  0  0  0  0  0
   26.7061  -22.3796  -16.5987 C   0  0  0  0  0  0  0  0  0  0  0  0
   26.5625  -23.5043  -16.0956 O   0  0  0  0  0  0  0  0  0  0  0  0
   23.7051  -22.0109  -18.8303 O   0  0  0  0  0  0  0  0  0  0  0  0
   25.5809  -19.3639   -9.2309 N   0  0  0  0  0  0  0  0  0  0  0  0
   25.2211  -20.7309   -9.0519 C   0  0  0  0  0  0  0  0  0  0  0  0
   24.4038  -21.0962   -8.1328 N   0  0  0  0  0  0  0  0  0  0  0  0
   25.8155  -21.6898   -9.9433 N   0  0  0  0  0  0  0  0  0  0  0  0
   26.6407  -21.2518  -11.0234 C   0  0  0  0  0  0  0  0  0  0  0  0
   25.9428  -20.5330  -12.1310 C   0  0  0  0  0  0  0  0  0  0  0  0
   26.5888  -20.5625  -13.4746 C   0  0  0  0  0  0  0  0  0  0  0  0
   25.8245  -21.3235  -14.4684 C   0  0  2  0  0  0  0  0  0  0  0  0
   26.3295  -21.2659  -15.8203 N   0  0  0  0  0  0  0  0  0  0  0  0
   24.3758  -21.1722  -14.4577 C   0  0  0  0  0  0  0  0  0  0  0  0
   23.5965  -21.7790  -13.4539 O   0  0  0  0  0  0  0  0  0  0  0  0
   23.7504  -20.5069  -15.3201 O   0  0  0  0  0  0  0  0  0  0  0  0
  1  2  1  0
  3  2  1  0
  3  4  1  6
  5  6  2  0
  5  3  1  0
  7  5  1  0
  8  7  1  0
  9 10  1  0
  8  9  1  6
 10 14  1  0
 10 11  2  0
 12 23  1  0
 12  8  1  0
 13 12  2  0
 16 15  1  0
 17 16  2  0
 18 16  1  0
 19 18  1  0
 20 19  1  0
 21 20  1  0
 22 21  1  1
 22 23  1  0
 24 22  1  0
 25 24  1  0
 26 24  2  0
M  END
$$$$
