SDR.pdb
     RDKit          3D

 26 25  0  0  1  0  0  0  0  0999 V2000
   18.2363  -14.8694  -15.6525 O   0  0  0  0  0  0  0  0  0  0  0  0
   18.4238  -13.5767  -15.1987 C   0  0  0  0  0  0  0  0  0  0  0  0
   18.6022  -12.6318  -16.3779 C   0  0  2  0  0  0  0  0  0  0  0  0
   19.7162  -13.1029  -17.1591 N   0  0  0  0  0  0  0  0  0  0  0  0
   18.8183  -11.2506  -15.9009 C   0  0  0  0  0  0  0  0  0  0  0  0
   17.9412  -10.6037  -15.2665 O   0  0  0  0  0  0  0  0  0  0  0  0
   20.0521  -10.5383  -16.1263 N   0  0  0  0  0  0  0  0  0  0  0  0
   20.2598   -9.2121  -15.5836 C   0  0  1  0  0  0  0  0  0  0  0  0
   21.7556   -9.0342  -15.4163 C   0  0  0  0  0  0  0  0  0  0  0  0
   22.0965   -7.7306  -14.8229 C   0  0  0  0  0  0  0  0  0  0  0  0
   21.7330   -7.4658  -13.6385 O   0  0  0  0  0  0  0  0  0  0  0  0
   19.6913   -8.1626  -16.4713 C   0  0  0  0  0  0  0  0  0  0  0  0
   19.7918   -8.1829  -17.7075 O   0  0  0  0  0  0  0  0  0  0  0  0
   22.8092   -6.7294  -15.4752 O   0  0  0  0  0  0  0  0  0  0  0  0
   12.3748   -6.9536  -14.5152 N   0  0  0  0  0  0  0  0  0  0  0  0
   12.5900   -6.8929  -15.9224 C   0  0  0  0  0  0  0  0  0  0  0  0
   11.7029   -7.2979  -16.7563 N   0  0  0  0  0  0  0  0  0  0  0  0
   13.8474   -6.3611  -16.3733 N   0  0  0  0  0  0  0  0  0  0  0  0
   14.8108   -5.8943  -15.4281 C   0  0  0  0  0  0  0  0  0  0  0  0
   16.0600   -5.3095  -16.0009 C   0  0  0  0  0  0  0  0  0  0  0  0
   16.9039   -6.2025  -16.8458 C   0  0  0  0  0  0  0  0  0  0  0  0
   18.3422   -6.0209  -16.6237 C   0  0  2  0  0  0  0  0  0  0  0  0
   18.9983   -7.0797  -15.8927 N   0  0  0  0  0  0  0  0  0  0  0  0
   18.7863   -4.7189  -16.1450 C   0  0  0  0  0  0  0  0  0  0  0  0
   18.4887   -3.5471  -16.8672 O   0  0  0  0  0  0  0  0  0  0  0  0
   19.4431   -4.5663  -15.0855 O   0  0  0  0  0  0  0  0  0  0  0  0
  1  2  1  0
  3  2  1  0
  3  4  1  1
  5  6  2  0
  5  3  1  0
  7  5  1  0
  8  7  1  0
  9 10  1  0
  8  9  1  6
 10 14  1  0
 10 11  2  0
 12 23  1  0
 12  8  1  0
 13 12  2  0
 16 15  1  0
 17 16  2  0
 18 16  1  0
 19 18  1  0
 20 19  1  0
 21 20  1  0
 22 21  1  1
 22 23  1  0
 24 22  1  0
 25 24  1  0
 26 24  2  0
M  END
$$$$
