SDR.pdb
     RDKit          3D

 26 25  0  0  1  0  0  0  0  0999 V2000
   23.8811  -24.8588  -17.8261 O   0  0  0  0  0  0  0  0  0  0  0  0
   25.1781  -24.8985  -18.3040 C   0  0  0  0  0  0  0  0  0  0  0  0
   26.1617  -24.7424  -17.1536 C   0  0  2  0  0  0  0  0  0  0  0  0
   26.2390  -26.0031  -16.4622 N   0  0  0  0  0  0  0  0  0  0  0  0
   25.7299  -23.6541  -16.2531 C   0  0  0  0  0  0  0  0  0  0  0  0
   25.2988  -23.8653  -15.0870 O   0  0  0  0  0  0  0  0  0  0  0  0
   25.7698  -22.2659  -16.6425 N   0  0  0  0  0  0  0  0  0  0  0  0
   25.4002  -21.2180  -15.7143 C   0  0  1  0  0  0  0  0  0  0  0  0
   26.1327  -19.9649  -16.1504 C   0  0  0  0  0  0  0  0  0  0  0  0
   25.9184  -18.8443  -15.2198 C   0  0  0  0  0  0  0  0  0  0  0  0
   25.1534  -18.9954  -14.2212 O   0  0  0  0  0  0  0  0  0  0  0  0
   23.9290  -20.9990  -15.6943 C   0  0  0  0  0  0  0  0  0  0  0  0
   23.2548  -20.7818  -16.7125 O   0  0  0  0  0  0  0  0  0  0  0  0
   26.5051  -17.5894  -15.3481 O   0  0  0  0  0  0  0  0  0  0  0  0
   17.1145  -23.4953  -11.0922 N   0  0  0  0  0  0  0  0  0  0  0  0
   18.4687  -23.8662  -10.8504 C   0  0  0  0  0  0  0  0  0  0  0  0
   18.7715  -24.9856  -10.3014 N   0  0  0  0  0  0  0  0  0  0  0  0
   19.4873  -22.9310  -11.2441 N   0  0  0  0  0  0  0  0  0  0  0  0
   19.1293  -21.6168  -11.6735 C   0  0  0  0  0  0  0  0  0  0  0  0
   19.7935  -21.1316  -12.9200 C   0  0  0  0  0  0  0  0  0  0  0  0
   21.2591  -21.3748  -13.0488 C   0  0  0  0  0  0  0  0  0  0  0  0
   21.8328  -20.8185  -14.2786 C   0  0  2  0  0  0  0  0  0  0  0  0
   23.2490  -21.0370  -14.4597 N   0  0  0  0  0  0  0  0  0  0  0  0
   21.4799  -19.4475  -14.6212 C   0  0  0  0  0  0  0  0  0  0  0  0
   22.2546  -18.3675  -14.1559 O   0  0  0  0  0  0  0  0  0  0  0  0
   20.4896  -19.1534  -15.3355 O   0  0  0  0  0  0  0  0  0  0  0  0
  1  2  1  0
  3  2  1  0
  3  4  1  1
  5  6  2  0
  5  3  1  0
  7  5  1  0
  8  7  1  0
  9 10  1  0
  8  9  1  6
 10 14  1  0
 10 11  2  0
 12 23  1  0
 12  8  1  0
 13 12  2  0
 16 15  1  0
 17 16  2  0
 18 16  1  0
 19 18  1  0
 20 19  1  0
 21 20  1  0
 22 21  1  1
 22 23  1  0
 24 22  1  0
 25 24  1  0
 26 24  2  0
M  END
$$$$
