SVN.pdb
     RDKit          3D

 22 21  0  0  1  0  0  0  0  0999 V2000
    7.3618  -16.0751   20.9058 O   0  0  0  0  0  0  0  0  0  0  0  0
    6.2994  -15.1863   20.9991 C   0  0  0  0  0  0  0  0  0  0  0  0
    6.8890  -13.8204   21.2738 C   0  0  2  0  0  0  0  0  0  0  0  0
    7.6113  -13.3653   20.1243 N   0  0  0  0  0  0  0  0  0  0  0  0
    7.8267  -13.8826   22.4346 C   0  0  0  0  0  0  0  0  0  0  0  0
    9.0537  -14.0207   22.3355 O   0  0  0  0  0  0  0  0  0  0  0  0
    6.0270  -13.6077   26.3269 C   0  0  0  0  0  0  0  0  0  0  0  0
    7.4120  -13.0411   26.0044 C   0  0  2  0  0  0  0  0  0  0  0  0
    7.2794  -11.5822   25.7266 C   0  0  0  0  0  0  0  0  0  0  0  0
    8.1031  -13.8373   24.9473 C   0  0  2  0  0  0  0  0  0  0  0  0
    7.2606  -13.7746   23.7455 N   0  0  0  0  0  0  0  0  0  0  0  0
    8.3769  -15.2434   25.3234 C   0  0  0  0  0  0  0  0  0  0  0  0
    7.4730  -16.1058   25.2035 O   0  0  0  0  0  0  0  0  0  0  0  0
   12.4205  -16.5282   23.5112 N   0  0  0  0  0  0  0  0  0  0  0  0
   11.4887  -17.3589   24.1900 C   0  0  0  0  0  0  0  0  0  0  0  0
   10.7695  -18.0808   23.4076 O   0  0  0  0  0  0  0  0  0  0  0  0
   11.2932  -17.4559   25.6300 C   0  0  0  0  0  0  0  0  0  0  0  0
    9.9321  -17.0784   26.1399 C   0  0  2  0  0  0  0  0  0  0  0  0
    9.6271  -15.6852   25.8226 N   0  0  0  0  0  0  0  0  0  0  0  0
    9.8922  -17.1712   27.6208 C   0  0  0  0  0  0  0  0  0  0  0  0
    9.8061  -18.3782   28.3100 O   0  0  0  0  0  0  0  0  0  0  0  0
    9.9383  -16.0937   28.2933 O   0  0  0  0  0  0  0  0  0  0  0  0
  1  2  1  0
  3  5  1  0
  3  2  1  0
  3  4  1  6
  5  6  2  0
  5 11  1  0
  8  7  1  6
  8  9  1  0
  8 10  1  0
 10 12  1  0
 10 11  1  6
 12 13  2  0
 12 19  1  0
 15 17  1  0
 15 14  1  0
 16 15  2  0
 18 17  1  1
 19 18  1  0
 20 18  1  0
 20 21  1  0
 22 20  2  0
M  END
$$$$
