SVN.pdb
     RDKit          3D

 22 21  0  0  1  0  0  0  0  0999 V2000
    5.7540  -19.9743   19.4029 O   0  0  0  0  0  0  0  0  0  0  0  0
    5.9650  -18.7442   20.0109 C   0  0  0  0  0  0  0  0  0  0  0  0
    6.5456  -17.8252   18.9586 C   0  0  2  0  0  0  0  0  0  0  0  0
    7.2082  -18.5993   17.9527 N   0  0  0  0  0  0  0  0  0  0  0  0
    7.5356  -16.8910   19.5732 C   0  0  0  0  0  0  0  0  0  0  0  0
    8.7459  -17.1301   19.6860 O   0  0  0  0  0  0  0  0  0  0  0  0
    7.4200  -12.9597   19.1377 C   0  0  0  0  0  0  0  0  0  0  0  0
    7.3855  -13.3492   20.6176 C   0  0  2  0  0  0  0  0  0  0  0  0
    8.0563  -12.2790   21.4100 C   0  0  0  0  0  0  0  0  0  0  0  0
    7.9022  -14.7326   20.8378 C   0  0  2  0  0  0  0  0  0  0  0  0
    7.0440  -15.6380   20.0618 N   0  0  0  0  0  0  0  0  0  0  0  0
    7.9520  -15.1465   22.2589 C   0  0  0  0  0  0  0  0  0  0  0  0
    6.8843  -15.2785   22.9053 O   0  0  0  0  0  0  0  0  0  0  0  0
    6.5727  -16.4431   25.5660 N   0  0  0  0  0  0  0  0  0  0  0  0
    7.2957  -17.4767   24.9121 C   0  0  0  0  0  0  0  0  0  0  0  0
    6.6815  -18.6049   24.8865 O   0  0  0  0  0  0  0  0  0  0  0  0
    8.6110  -17.3669   24.2963 C   0  0  0  0  0  0  0  0  0  0  0  0
    9.2247  -15.9964   24.2864 C   0  0  2  0  0  0  0  0  0  0  0  0
    9.1606  -15.4088   22.9502 N   0  0  0  0  0  0  0  0  0  0  0  0
   10.6685  -16.0754   24.6219 C   0  0  0  0  0  0  0  0  0  0  0  0
   11.1521  -16.0729   25.9277 O   0  0  0  0  0  0  0  0  0  0  0  0
   11.5053  -16.1484   23.6680 O   0  0  0  0  0  0  0  0  0  0  0  0
  1  2  1  0
  3  5  1  0
  3  2  1  0
  3  4  1  6
  5  6  2  0
  5 11  1  0
  8  7  1  6
  8  9  1  0
  8 10  1  0
 10 12  1  0
 10 11  1  6
 12 13  2  0
 12 19  1  0
 15 17  1  0
 15 14  1  0
 16 15  2  0
 18 17  1  6
 19 18  1  0
 20 18  1  0
 20 21  1  0
 22 20  2  0
M  END
$$$$
