SVN.pdb
     RDKit          3D

 22 21  0  0  1  0  0  0  0  0999 V2000
    5.9947  -17.1626   20.9451 O   0  0  0  0  0  0  0  0  0  0  0  0
    6.8522  -16.7484   21.9554 C   0  0  0  0  0  0  0  0  0  0  0  0
    7.0228  -15.2528   21.8043 C   0  0  2  0  0  0  0  0  0  0  0  0
    7.6223  -14.9598   20.5374 N   0  0  0  0  0  0  0  0  0  0  0  0
    7.9034  -14.7181   22.8856 C   0  0  0  0  0  0  0  0  0  0  0  0
    9.1407  -14.6905   22.8300 O   0  0  0  0  0  0  0  0  0  0  0  0
    6.8578  -11.6774   25.2351 C   0  0  0  0  0  0  0  0  0  0  0  0
    7.2256  -12.9136   26.0596 C   0  0  2  0  0  0  0  0  0  0  0  0
    7.8306  -12.4675   27.3473 C   0  0  0  0  0  0  0  0  0  0  0  0
    8.0390  -13.8842   25.2686 C   0  0  2  0  0  0  0  0  0  0  0  0
    7.2663  -14.2051   24.0610 N   0  0  0  0  0  0  0  0  0  0  0  0
    8.4011  -15.1182   26.0031 C   0  0  0  0  0  0  0  0  0  0  0  0
    7.5105  -15.9552   26.2885 O   0  0  0  0  0  0  0  0  0  0  0  0
   12.5451  -16.3491   24.3048 N   0  0  0  0  0  0  0  0  0  0  0  0
   11.7257  -17.1812   25.1141 C   0  0  0  0  0  0  0  0  0  0  0  0
   11.1321  -18.1169   24.4638 O   0  0  0  0  0  0  0  0  0  0  0  0
   11.5155  -17.0675   26.5507 C   0  0  0  0  0  0  0  0  0  0  0  0
   10.1272  -16.6995   26.9893 C   0  0  2  0  0  0  0  0  0  0  0  0
    9.7235  -15.4188   26.4135 N   0  0  0  0  0  0  0  0  0  0  0  0
   10.0847  -16.5097   28.4609 C   0  0  0  0  0  0  0  0  0  0  0  0
    9.9873  -17.5634   29.3660 O   0  0  0  0  0  0  0  0  0  0  0  0
   10.1391  -15.3246   28.9171 O   0  0  0  0  0  0  0  0  0  0  0  0
  1  2  1  0
  3  5  1  0
  3  2  1  0
  3  4  1  6
  5  6  2  0
  5 11  1  0
  8  7  1  6
  8  9  1  0
  8 10  1  0
 10 12  1  0
 10 11  1  6
 12 13  2  0
 12 19  1  0
 15 17  1  0
 15 14  1  0
 16 15  2  0
 18 17  1  6
 19 18  1  0
 20 18  1  0
 20 21  1  0
 22 20  2  0
M  END
$$$$
