SVN.pdb
     RDKit          3D

 22 21  0  0  1  0  0  0  0  0999 V2000
    6.5112  -16.7360   20.1308 O   0  0  0  0  0  0  0  0  0  0  0  0
    6.9501  -16.3842   21.4000 C   0  0  0  0  0  0  0  0  0  0  0  0
    7.2110  -14.8941   21.3799 C   0  0  2  0  0  0  0  0  0  0  0  0
    7.9959  -14.5560   20.2311 N   0  0  0  0  0  0  0  0  0  0  0  0
    7.9552  -14.4800   22.6068 C   0  0  0  0  0  0  0  0  0  0  0  0
    9.1896  -14.4860   22.7112 O   0  0  0  0  0  0  0  0  0  0  0  0
    6.6156  -11.7178   25.2716 C   0  0  0  0  0  0  0  0  0  0  0  0
    6.8473  -13.0993   25.8889 C   0  0  2  0  0  0  0  0  0  0  0  0
    7.2306  -12.9263   27.3193 C   0  0  0  0  0  0  0  0  0  0  0  0
    7.7831  -13.9226   25.0669 C   0  0  2  0  0  0  0  0  0  0  0  0
    7.1821  -14.0487   23.7323 N   0  0  0  0  0  0  0  0  0  0  0  0
    8.0825  -15.2569   25.6357 C   0  0  0  0  0  0  0  0  0  0  0  0
    7.1624  -16.1020   25.7551 O   0  0  0  0  0  0  0  0  0  0  0  0
   12.6919  -19.1936   26.4201 N   0  0  0  0  0  0  0  0  0  0  0  0
   11.3419  -18.8642   26.1240 C   0  0  0  0  0  0  0  0  0  0  0  0
   10.5245  -19.8454   26.2644 O   0  0  0  0  0  0  0  0  0  0  0  0
   10.8331  -17.5679   25.6975 C   0  0  0  0  0  0  0  0  0  0  0  0
    9.7125  -16.9948   26.5165 C   0  0  2  0  0  0  0  0  0  0  0  0
    9.3755  -15.6470   26.0639 N   0  0  0  0  0  0  0  0  0  0  0  0
   10.1309  -16.8500   27.9333 C   0  0  0  0  0  0  0  0  0  0  0  0
   10.0070  -17.8676   28.8757 O   0  0  0  0  0  0  0  0  0  0  0  0
   10.6268  -15.7402   28.3044 O   0  0  0  0  0  0  0  0  0  0  0  0
  1  2  1  0
  3  5  1  0
  3  2  1  0
  3  4  1  6
  5  6  2  0
  5 11  1  0
  8  7  1  6
  8  9  1  0
  8 10  1  0
 10 12  1  0
 10 11  1  6
 12 13  2  0
 12 19  1  0
 15 17  1  0
 15 14  1  0
 16 15  2  0
 18 17  1  6
 19 18  1  0
 20 18  1  0
 20 21  1  0
 22 20  2  0
M  END
$$$$
