SVN.pdb
     RDKit          3D

 22 21  0  0  1  0  0  0  0  0999 V2000
    6.0346  -16.9081   20.9301 O   0  0  0  0  0  0  0  0  0  0  0  0
    6.9139  -16.5518   21.9437 C   0  0  0  0  0  0  0  0  0  0  0  0
    7.2211  -15.0812   21.7653 C   0  0  2  0  0  0  0  0  0  0  0  0
    7.9093  -14.8777   20.5263 N   0  0  0  0  0  0  0  0  0  0  0  0
    8.0868  -14.5919   22.8796 C   0  0  0  0  0  0  0  0  0  0  0  0
    9.3253  -14.6114   22.8631 O   0  0  0  0  0  0  0  0  0  0  0  0
    8.0688  -12.3190   27.3140 C   0  0  0  0  0  0  0  0  0  0  0  0
    7.3505  -12.7900   26.0470 C   0  0  2  0  0  0  0  0  0  0  0  0
    5.9933  -13.2815   26.4207 C   0  0  0  0  0  0  0  0  0  0  0  0
    8.1863  -13.7443   25.2595 C   0  0  2  0  0  0  0  0  0  0  0  0
    7.4328  -14.0671   24.0404 N   0  0  0  0  0  0  0  0  0  0  0  0
    8.5558  -14.9784   25.9902 C   0  0  0  0  0  0  0  0  0  0  0  0
    7.7215  -15.9097   26.0982 O   0  0  0  0  0  0  0  0  0  0  0  0
   10.5628  -17.5593   24.5900 N   0  0  0  0  0  0  0  0  0  0  0  0
   11.6391  -17.3878   25.5016 C   0  0  0  0  0  0  0  0  0  0  0  0
   12.7814  -17.7378   25.0290 O   0  0  0  0  0  0  0  0  0  0  0  0
   11.5578  -16.8707   26.8606 C   0  0  0  0  0  0  0  0  0  0  0  0
   10.2065  -16.3910   27.3065 C   0  0  2  0  0  0  0  0  0  0  0  0
    9.8243  -15.1766   26.5894 N   0  0  0  0  0  0  0  0  0  0  0  0
   10.2402  -16.0160   28.7423 C   0  0  0  0  0  0  0  0  0  0  0  0
   10.2659  -16.9482   29.7764 O   0  0  0  0  0  0  0  0  0  0  0  0
   10.2452  -14.7809   29.0422 O   0  0  0  0  0  0  0  0  0  0  0  0
  1  2  1  0
  3  5  1  0
  3  2  1  0
  3  4  1  6
  5  6  2  0
  5 11  1  0
  8  7  1  1
  8  9  1  0
  8 10  1  0
 10 12  1  0
 10 11  1  6
 12 13  2  0
 12 19  1  0
 15 17  1  0
 15 14  1  0
 16 15  2  0
 18 17  1  6
 19 18  1  0
 20 18  1  0
 20 21  1  0
 22 20  2  0
M  END
$$$$
