SVN.pdb
     RDKit          3D

 22 21  0  0  1  0  0  0  0  0999 V2000
    7.7134  -17.2102   22.2444 O   0  0  0  0  0  0  0  0  0  0  0  0
    6.5737  -16.4412   22.0516 C   0  0  0  0  0  0  0  0  0  0  0  0
    7.0371  -15.0338   21.7462 C   0  0  2  0  0  0  0  0  0  0  0  0
    7.7394  -15.0157   20.4986 N   0  0  0  0  0  0  0  0  0  0  0  0
    7.9539  -14.5440   22.8187 C   0  0  0  0  0  0  0  0  0  0  0  0
    9.1888  -14.6327   22.7772 O   0  0  0  0  0  0  0  0  0  0  0  0
    8.2047  -11.8628   26.9921 C   0  0  0  0  0  0  0  0  0  0  0  0
    7.3862  -12.4924   25.8622 C   0  0  2  0  0  0  0  0  0  0  0  0
    6.0775  -12.9458   26.4144 C   0  0  0  0  0  0  0  0  0  0  0  0
    8.1673  -13.5293   25.1246 C   0  0  2  0  0  0  0  0  0  0  0  0
    7.3567  -13.9325   23.9676 N   0  0  0  0  0  0  0  0  0  0  0  0
    8.5400  -14.7078   25.9405 C   0  0  0  0  0  0  0  0  0  0  0  0
    7.7214  -15.6484   26.0833 O   0  0  0  0  0  0  0  0  0  0  0  0
   12.7958  -15.6373   24.8334 N   0  0  0  0  0  0  0  0  0  0  0  0
   12.0182  -16.5223   25.6277 C   0  0  0  0  0  0  0  0  0  0  0  0
   11.6167  -17.5683   24.9990 O   0  0  0  0  0  0  0  0  0  0  0  0
   11.6585  -16.3505   27.0285 C   0  0  0  0  0  0  0  0  0  0  0  0
   10.2162  -16.0393   27.3079 C   0  0  2  0  0  0  0  0  0  0  0  0
    9.7944  -14.8414   26.5855 N   0  0  0  0  0  0  0  0  0  0  0  0
   10.0251  -15.7290   28.7468 C   0  0  0  0  0  0  0  0  0  0  0  0
   10.1792  -16.6716   29.7601 O   0  0  0  0  0  0  0  0  0  0  0  0
    9.7036  -14.5424   29.0695 O   0  0  0  0  0  0  0  0  0  0  0  0
  1  2  1  0
  3  5  1  0
  3  2  1  0
  3  4  1  6
  5  6  2  0
  5 11  1  0
  8  7  1  1
  8  9  1  0
  8 10  1  0
 10 12  1  0
 10 11  1  6
 12 13  2  0
 12 19  1  0
 15 17  1  0
 15 14  1  0
 16 15  2  0
 18 17  1  1
 19 18  1  0
 20 18  1  0
 20 21  1  0
 22 20  2  0
M  END
$$$$
