SVN.pdb
     RDKit          3D

 22 21  0  0  1  0  0  0  0  0999 V2000
    7.6396  -17.2150   22.4166 O   0  0  0  0  0  0  0  0  0  0  0  0
    6.5857  -16.4046   22.0167 C   0  0  0  0  0  0  0  0  0  0  0  0
    7.1711  -15.0487   21.6882 C   0  0  2  0  0  0  0  0  0  0  0  0
    8.0309  -15.1564   20.5483 N   0  0  0  0  0  0  0  0  0  0  0  0
    7.9677  -14.5330   22.8415 C   0  0  0  0  0  0  0  0  0  0  0  0
    9.1813  -14.7274   22.9955 O   0  0  0  0  0  0  0  0  0  0  0  0
    7.6531  -11.8635   27.0499 C   0  0  0  0  0  0  0  0  0  0  0  0
    6.9956  -12.4670   25.8062 C   0  0  2  0  0  0  0  0  0  0  0  0
    5.6525  -12.9937   26.1827 C   0  0  0  0  0  0  0  0  0  0  0  0
    7.8982  -13.4379   25.1192 C   0  0  2  0  0  0  0  0  0  0  0  0
    7.2738  -13.7636   23.8299 N   0  0  0  0  0  0  0  0  0  0  0  0
    8.1736  -14.6692   25.8948 C   0  0  0  0  0  0  0  0  0  0  0  0
    7.6528  -15.7552   25.5418 O   0  0  0  0  0  0  0  0  0  0  0  0
   12.8194  -17.7735   26.7474 N   0  0  0  0  0  0  0  0  0  0  0  0
   11.4110  -17.5977   26.8150 C   0  0  0  0  0  0  0  0  0  0  0  0
   10.7770  -18.6347   27.2311 O   0  0  0  0  0  0  0  0  0  0  0  0
   10.6639  -16.3960   26.4702 C   0  0  0  0  0  0  0  0  0  0  0  0
    9.7060  -15.8911   27.5108 C   0  0  2  0  0  0  0  0  0  0  0  0
    9.0091  -14.6968   27.0387 N   0  0  0  0  0  0  0  0  0  0  0  0
   10.4425  -15.4714   28.7293 C   0  0  0  0  0  0  0  0  0  0  0  0
   10.8013  -16.3506   29.7477 O   0  0  0  0  0  0  0  0  0  0  0  0
   10.7608  -14.2467   28.8486 O   0  0  0  0  0  0  0  0  0  0  0  0
  1  2  1  0
  3  5  1  0
  3  2  1  0
  3  4  1  6
  5  6  2  0
  5 11  1  0
  8  7  1  1
  8  9  1  0
  8 10  1  0
 10 12  1  0
 10 11  1  6
 12 13  2  0
 12 19  1  0
 15 17  1  0
 15 14  1  0
 16 15  2  0
 18 17  1  6
 19 18  1  0
 20 18  1  0
 20 21  1  0
 22 20  2  0
M  END
$$$$
