SVN.pdb
     RDKit          3D

 22 21  0  0  1  0  0  0  0  0999 V2000
    7.2746  -16.2621   21.2170 O   0  0  0  0  0  0  0  0  0  0  0  0
    6.2569  -15.3208   21.2920 C   0  0  0  0  0  0  0  0  0  0  0  0
    6.9174  -13.9640   21.4012 C   0  0  2  0  0  0  0  0  0  0  0  0
    7.7766  -13.7523   20.2756 N   0  0  0  0  0  0  0  0  0  0  0  0
    7.7342  -13.8823   22.6489 C   0  0  0  0  0  0  0  0  0  0  0  0
    8.9511  -14.1075   22.7040 O   0  0  0  0  0  0  0  0  0  0  0  0
    6.5078  -11.4478   25.7054 C   0  0  0  0  0  0  0  0  0  0  0  0
    6.8472  -12.8760   26.1391 C   0  0  2  0  0  0  0  0  0  0  0  0
    7.3430  -12.8444   27.5449 C   0  0  0  0  0  0  0  0  0  0  0  0
    7.7428  -13.5547   25.1559 C   0  0  2  0  0  0  0  0  0  0  0  0
    7.0571  -13.5186   23.8571 N   0  0  0  0  0  0  0  0  0  0  0  0
    8.1062  -14.9437   25.5190 C   0  0  0  0  0  0  0  0  0  0  0  0
    7.2526  -15.8575   25.4115 O   0  0  0  0  0  0  0  0  0  0  0  0
    9.6705  -17.5627   23.4673 N   0  0  0  0  0  0  0  0  0  0  0  0
   10.8854  -17.4700   24.1982 C   0  0  0  0  0  0  0  0  0  0  0  0
   11.9277  -17.7855   23.5165 O   0  0  0  0  0  0  0  0  0  0  0  0
   11.0388  -17.0642   25.5885 C   0  0  0  0  0  0  0  0  0  0  0  0
    9.7776  -16.6853   26.3102 C   0  0  2  0  0  0  0  0  0  0  0  0
    9.3897  -15.3131   25.9918 N   0  0  0  0  0  0  0  0  0  0  0  0
    9.9960  -16.7108   27.7782 C   0  0  0  0  0  0  0  0  0  0  0  0
   10.1468  -15.5614   28.5497 O   0  0  0  0  0  0  0  0  0  0  0  0
   10.0486  -17.8398   28.3597 O   0  0  0  0  0  0  0  0  0  0  0  0
  1  2  1  0
  3  5  1  0
  3  2  1  0
  3  4  1  6
  5  6  2  0
  5 11  1  0
  8  7  1  6
  8  9  1  0
  8 10  1  0
 10 12  1  0
 10 11  1  6
 12 13  2  0
 12 19  1  0
 15 17  1  0
 15 14  1  0
 16 15  2  0
 18 17  1  6
 19 18  1  0
 20 18  1  0
 20 21  1  0
 22 20  2  0
M  END
$$$$
