SVN.pdb
     RDKit          3D

 22 21  0  0  1  0  0  0  0  0999 V2000
    8.9660  -18.9134   19.1859 O   0  0  0  0  0  0  0  0  0  0  0  0
    8.0925  -18.1742   18.3998 C   0  0  0  0  0  0  0  0  0  0  0  0
    8.8865  -17.0253   17.8179 C   0  0  2  0  0  0  0  0  0  0  0  0
    9.9820  -17.5346   17.0494 N   0  0  0  0  0  0  0  0  0  0  0  0
    9.4282  -16.1620   18.9096 C   0  0  0  0  0  0  0  0  0  0  0  0
   10.6266  -16.0903   19.2148 O   0  0  0  0  0  0  0  0  0  0  0  0
    6.6132  -14.2519   21.5420 C   0  0  0  0  0  0  0  0  0  0  0  0
    7.7830  -13.4856   20.9195 C   0  0  2  0  0  0  0  0  0  0  0  0
    7.2774  -12.7037   19.7549 C   0  0  0  0  0  0  0  0  0  0  0  0
    8.9439  -14.3813   20.6380 C   0  0  2  0  0  0  0  0  0  0  0  0
    8.4924  -15.3678   19.6473 N   0  0  0  0  0  0  0  0  0  0  0  0
    9.4989  -15.0553   21.8343 C   0  0  0  0  0  0  0  0  0  0  0  0
    9.9407  -14.3669   22.7861 O   0  0  0  0  0  0  0  0  0  0  0  0
    9.8121  -19.8471   25.2755 N   0  0  0  0  0  0  0  0  0  0  0  0
   10.5024  -19.4295   24.1059 C   0  0  0  0  0  0  0  0  0  0  0  0
   11.7249  -19.8215   24.0560 O   0  0  0  0  0  0  0  0  0  0  0  0
    9.9635  -18.6342   23.0113 C   0  0  0  0  0  0  0  0  0  0  0  0
   10.0485  -17.1436   23.1720 C   0  0  2  0  0  0  0  0  0  0  0  0
    9.5634  -16.4638   21.9731 N   0  0  0  0  0  0  0  0  0  0  0  0
   11.4631  -16.7217   23.3285 C   0  0  0  0  0  0  0  0  0  0  0  0
   12.2062  -16.1405   22.3042 O   0  0  0  0  0  0  0  0  0  0  0  0
   12.0240  -16.9011   24.4548 O   0  0  0  0  0  0  0  0  0  0  0  0
  1  2  1  0
  3  5  1  0
  3  2  1  0
  3  4  1  1
  5  6  2  0
  5 11  1  0
  8  7  1  6
  8  9  1  0
  8 10  1  0
 10 12  1  0
 10 11  1  6
 12 13  2  0
 12 19  1  0
 15 17  1  0
 15 14  1  0
 16 15  2  0
 18 17  1  6
 19 18  1  0
 20 18  1  0
 20 21  1  0
 22 20  2  0
M  END
$$$$
