DRC.pdb
     RDKit          3D

 26 25  0  0  1  0  0  0  0  0999 V2000
   12.0995  -16.3250   18.7945 N   0  0  0  0  0  0  0  0  0  0  0  0
   12.4162  -15.8197   20.1392 C   0  0  1  0  0  0  0  0  0  0  0  0
   12.9173  -14.4072   19.9574 C   0  0  0  0  0  0  0  0  0  0  0  0
   14.2735  -14.4636   19.3647 C   0  0  0  0  0  0  0  0  0  0  0  0
   15.1334  -15.2033   19.8841 O   0  0  0  0  0  0  0  0  0  0  0  0
   11.2164  -15.8667   21.0091 C   0  0  0  0  0  0  0  0  0  0  0  0
   10.2041  -15.1775   20.6923 O   0  0  0  0  0  0  0  0  0  0  0  0
   14.5937  -13.7043   18.2418 O   0  0  0  0  0  0  0  0  0  0  0  0
    7.8893  -21.9703   26.9084 N   0  0  0  0  0  0  0  0  0  0  0  0
    6.9145  -21.2012   26.1921 C   0  0  0  0  0  0  0  0  0  0  0  0
    5.7000  -21.6124   26.1406 N   0  0  0  0  0  0  0  0  0  0  0  0
    7.2803  -19.9953   25.5425 N   0  0  0  0  0  0  0  0  0  0  0  0
    8.5149  -19.8586   24.7981 C   0  0  0  0  0  0  0  0  0  0  0  0
    8.6143  -18.4151   24.2964 C   0  0  0  0  0  0  0  0  0  0  0  0
    9.8237  -18.2288   23.4336 C   0  0  0  0  0  0  0  0  0  0  0  0
    9.9682  -16.8143   22.9939 C   0  0  2  0  0  0  0  0  0  0  0  0
   11.1728  -16.6506   22.1680 N   0  0  0  0  0  0  0  0  0  0  0  0
    9.9890  -15.8448   24.1048 C   0  0  0  0  0  0  0  0  0  0  0  0
   10.9815  -15.6463   24.8383 O   0  0  0  0  0  0  0  0  0  0  0  0
    4.9317  -21.0701   25.7045 N   0  0  0  0  0  0  0  0  0  0  0  0
    8.8205  -15.0458   24.4133 C   0  0  2  0  0  0  0  0  0  0  0  0
    8.8187  -14.1484   25.5550 C   0  0  0  0  0  0  0  0  0  0  0  0
    7.6075  -13.2327   25.5285 S   0  0  0  0  0  0  0  0  0  0  0  0
    7.5027  -12.2238   27.0380 C   0  0  0  0  0  0  0  0  0  0  0  0
    8.8634  -14.9053   26.8207 O   0  0  0  0  0  0  0  0  0  0  0  0
    9.6997  -14.4053   27.8250 O   0  0  0  0  0  0  0  0  0  0  0  0
  2  1  1  6
  3  2  1  0
  3  4  1  0
  4  8  1  0
  4  5  2  0
  6  2  1  0
  6  7  2  0
  9 10  1  0
 10 11  2  0
 10 12  1  0
 12 13  1  0
 14 15  1  0
 14 13  1  0
 16 15  1  1
 16 17  1  0
 17  6  1  0
 18 16  1  0
 19 18  2  0
 20 18  1  0
 21 20  1  0
 21 24  1  0
 21 22  1  6
 23 22  1  0
 24 25  1  0
 26 24  2  0
M  END
$$$$
