DRC.pdb
     RDKit          3D

 26 25  0  0  1  0  0  0  0  0999 V2000
    9.1453  -17.1623   18.3400 N   0  0  0  0  0  0  0  0  0  0  0  0
    9.4040  -17.8904   19.5917 C   0  0  1  0  0  0  0  0  0  0  0  0
   10.9024  -17.9041   19.7757 C   0  0  0  0  0  0  0  0  0  0  0  0
   11.4968  -18.7539   18.7181 C   0  0  0  0  0  0  0  0  0  0  0  0
   12.1870  -18.2204   17.8262 O   0  0  0  0  0  0  0  0  0  0  0  0
    8.7193  -17.2302   20.7292 C   0  0  0  0  0  0  0  0  0  0  0  0
    8.8068  -15.9741   20.8500 O   0  0  0  0  0  0  0  0  0  0  0  0
   11.2934  -20.1317   18.7115 O   0  0  0  0  0  0  0  0  0  0  0  0
    1.0474  -20.4185   22.6872 N   0  0  0  0  0  0  0  0  0  0  0  0
    2.1591  -20.1092   21.8367 C   0  0  0  0  0  0  0  0  0  0  0  0
    1.9456  -19.7686   20.6180 N   0  0  0  0  0  0  0  0  0  0  0  0
    3.4868  -20.1770   22.3291 N   0  0  0  0  0  0  0  0  0  0  0  0
    4.6161  -19.6515   21.5904 C   0  0  0  0  0  0  0  0  0  0  0  0
    4.9112  -18.2402   22.1068 C   0  0  0  0  0  0  0  0  0  0  0  0
    6.0341  -18.2549   23.0971 C   0  0  0  0  0  0  0  0  0  0  0  0
    7.1300  -17.3322   22.6937 C   0  0  2  0  0  0  0  0  0  0  0  0
    7.9806  -17.9566   21.6706 N   0  0  0  0  0  0  0  0  0  0  0  0
    7.9619  -16.8679   23.8192 C   0  0  0  0  0  0  0  0  0  0  0  0
    9.0029  -17.4449   24.2010 O   0  0  0  0  0  0  0  0  0  0  0  0
    2.7034  -19.6008   19.9310 N   0  0  0  0  0  0  0  0  0  0  0  0
    7.6028  -15.6791   24.5653 C   0  0  2  0  0  0  0  0  0  0  0  0
    8.4652  -15.1806   25.6219 C   0  0  0  0  0  0  0  0  0  0  0  0
    7.9860  -13.8313   26.1278 S   0  0  0  0  0  0  0  0  0  0  0  0
    6.1702  -13.7512   26.1922 C   0  0  0  0  0  0  0  0  0  0  0  0
    8.5487  -16.1465   26.7341 O   0  0  0  0  0  0  0  0  0  0  0  0
    9.5386  -15.9162   27.6961 O   0  0  0  0  0  0  0  0  0  0  0  0
  2  1  1  6
  3  2  1  0
  3  4  1  0
  4  8  1  0
  4  5  2  0
  6  2  1  0
  6  7  2  0
  9 10  1  0
 10 11  2  0
 10 12  1  0
 12 13  1  0
 14 15  1  0
 14 13  1  0
 16 15  1  1
 16 17  1  0
 17  6  1  0
 18 16  1  0
 19 18  2  0
 20 18  1  0
 21 20  1  0
 21 24  1  0
 21 22  1  6
 23 22  1  0
 24 25  1  0
 26 24  2  0
M  END
$$$$
