DRC.pdb
     RDKit          3D

 26 25  0  0  1  0  0  0  0  0999 V2000
   11.4263  -17.3513   21.0091 N   0  0  0  0  0  0  0  0  0  0  0  0
   10.0987  -16.7194   20.9636 C   0  0  1  0  0  0  0  0  0  0  0  0
    9.2455  -17.5827   20.0657 C   0  0  0  0  0  0  0  0  0  0  0  0
    9.9397  -17.7372   18.7665 C   0  0  0  0  0  0  0  0  0  0  0  0
   11.1350  -17.3927   18.6714 O   0  0  0  0  0  0  0  0  0  0  0  0
    9.5252  -16.6140   22.3268 C   0  0  0  0  0  0  0  0  0  0  0  0
    8.3423  -16.1866   22.4612 O   0  0  0  0  0  0  0  0  0  0  0  0
    9.2747  -18.2595   17.6597 O   0  0  0  0  0  0  0  0  0  0  0  0
    9.9615  -20.0839   31.3073 N   0  0  0  0  0  0  0  0  0  0  0  0
   10.8191  -19.4397   30.3564 C   0  0  0  0  0  0  0  0  0  0  0  0
   12.0910  -19.5739   30.4614 N   0  0  0  0  0  0  0  0  0  0  0  0
   10.2754  -18.6582   29.3058 N   0  0  0  0  0  0  0  0  0  0  0  0
   11.0491  -18.2756   28.1430 C   0  0  0  0  0  0  0  0  0  0  0  0
   10.1308  -17.5070   27.1884 C   0  0  0  0  0  0  0  0  0  0  0  0
   10.5415  -17.7161   25.7638 C   0  0  0  0  0  0  0  0  0  0  0  0
    9.7177  -16.8982   24.8324 C   0  0  2  0  0  0  0  0  0  0  0  0
   10.2546  -16.9733   23.4663 N   0  0  0  0  0  0  0  0  0  0  0  0
    9.5831  -15.4872   25.2391 C   0  0  0  0  0  0  0  0  0  0  0  0
   10.5235  -14.6640   25.2216 O   0  0  0  0  0  0  0  0  0  0  0  0
   12.7637  -19.2006   29.7667 N   0  0  0  0  0  0  0  0  0  0  0  0
    8.3108  -14.9655   25.6952 C   0  0  2  0  0  0  0  0  0  0  0  0
    8.2017  -13.6001   26.1772 C   0  0  0  0  0  0  0  0  0  0  0  0
    6.8012  -13.0542   25.9603 S   0  0  0  0  0  0  0  0  0  0  0  0
    5.5543  -14.0581   26.8235 C   0  0  0  0  0  0  0  0  0  0  0  0
    8.5723  -13.5128   27.6027 O   0  0  0  0  0  0  0  0  0  0  0  0
    8.7049  -12.2284   28.1421 O   0  0  0  0  0  0  0  0  0  0  0  0
  2  1  1  1
  3  2  1  0
  3  4  1  0
  4  8  1  0
  4  5  2  0
  6  2  1  0
  6  7  2  0
  9 10  1  0
 10 11  2  0
 10 12  1  0
 12 13  1  0
 14 15  1  0
 14 13  1  0
 16 15  1  1
 16 17  1  0
 17  6  1  0
 18 16  1  0
 19 18  2  0
 20 18  1  0
 21 20  1  0
 21 24  1  0
 21 22  1  6
 23 22  1  0
 24 25  1  0
 26 24  2  0
M  END
$$$$
