DRC.pdb
     RDKit          3D

 26 25  0  0  1  0  0  0  0  0999 V2000
   12.7914  -18.1190   20.9298 N   0  0  0  0  0  0  0  0  0  0  0  0
   13.3336  -18.0447   22.2952 C   0  0  1  0  0  0  0  0  0  0  0  0
   14.8324  -17.9318   22.1539 C   0  0  0  0  0  0  0  0  0  0  0  0
   15.1686  -17.9328   20.7114 C   0  0  0  0  0  0  0  0  0  0  0  0
   15.6623  -16.9065   20.2018 O   0  0  0  0  0  0  0  0  0  0  0  0
   12.7635  -16.8831   23.0192 C   0  0  0  0  0  0  0  0  0  0  0  0
   13.4952  -16.2525   23.8359 O   0  0  0  0  0  0  0  0  0  0  0  0
   14.9403  -19.0602   19.9261 O   0  0  0  0  0  0  0  0  0  0  0  0
    7.4893  -12.4275   20.9423 N   0  0  0  0  0  0  0  0  0  0  0  0
    7.5200  -13.7646   20.4265 C   0  0  0  0  0  0  0  0  0  0  0  0
    7.6579  -13.9509   19.1643 N   0  0  0  0  0  0  0  0  0  0  0  0
    7.3990  -14.8778   21.2960 N   0  0  0  0  0  0  0  0  0  0  0  0
    7.1409  -14.7309   22.7133 C   0  0  0  0  0  0  0  0  0  0  0  0
    8.3211  -15.3346   23.4801 C   0  0  0  0  0  0  0  0  0  0  0  0
    9.6252  -14.8524   22.9246 C   0  0  0  0  0  0  0  0  0  0  0  0
   10.7809  -15.4457   23.6508 C   0  0  2  0  0  0  0  0  0  0  0  0
   11.4415  -16.4660   22.8245 N   0  0  0  0  0  0  0  0  0  0  0  0
   10.4290  -16.0176   24.9637 C   0  0  0  0  0  0  0  0  0  0  0  0
   10.1597  -17.2240   25.1489 O   0  0  0  0  0  0  0  0  0  0  0  0
    7.6957  -14.8898   18.7266 N   0  0  0  0  0  0  0  0  0  0  0  0
   10.3756  -15.1818   26.1458 C   0  0  2  0  0  0  0  0  0  0  0  0
   10.2446  -15.7745   27.4650 C   0  0  0  0  0  0  0  0  0  0  0  0
    9.9759  -14.7128   28.5171 S   0  0  0  0  0  0  0  0  0  0  0  0
   11.0517  -13.2640   28.2906 C   0  0  0  0  0  0  0  0  0  0  0  0
    9.1793  -16.7952   27.4811 O   0  0  0  0  0  0  0  0  0  0  0  0
    9.1558  -17.6647   28.5773 O   0  0  0  0  0  0  0  0  0  0  0  0
  2  1  1  6
  3  2  1  0
  3  4  1  0
  4  8  1  0
  4  5  2  0
  6  2  1  0
  6  7  2  0
  9 10  1  0
 10 11  2  0
 10 12  1  0
 12 13  1  0
 14 15  1  0
 14 13  1  0
 16 15  1  6
 16 17  1  0
 17  6  1  0
 18 16  1  0
 19 18  2  0
 20 18  1  0
 21 20  1  0
 21 24  1  0
 21 22  1  6
 23 22  1  0
 24 25  1  0
 26 24  2  0
M  END
$$$$
