DRC.pdb
     RDKit          3D

 26 25  0  0  1  0  0  0  0  0999 V2000
   14.2223  -18.0456   15.2468 N   0  0  0  0  0  0  0  0  0  0  0  0
   14.0919  -18.6928   16.5614 C   0  0  1  0  0  0  0  0  0  0  0  0
   15.4950  -18.8774   17.0873 C   0  0  0  0  0  0  0  0  0  0  0  0
   16.1400  -19.9732   16.3277 C   0  0  0  0  0  0  0  0  0  0  0  0
   15.4505  -20.9463   15.9612 O   0  0  0  0  0  0  0  0  0  0  0  0
   13.2713  -17.8596   17.4729 C   0  0  0  0  0  0  0  0  0  0  0  0
   13.4234  -16.6040   17.4568 O   0  0  0  0  0  0  0  0  0  0  0  0
   17.4979  -19.9265   16.0219 O   0  0  0  0  0  0  0  0  0  0  0  0
    7.2371  -13.2403   18.0195 N   0  0  0  0  0  0  0  0  0  0  0  0
    7.5516  -13.5236   19.3890 C   0  0  0  0  0  0  0  0  0  0  0  0
    7.4162  -12.6016   20.2712 N   0  0  0  0  0  0  0  0  0  0  0  0
    8.0096  -14.8087   19.7747 N   0  0  0  0  0  0  0  0  0  0  0  0
    8.8576  -15.6177   18.9241 C   0  0  0  0  0  0  0  0  0  0  0  0
    9.1168  -16.9497   19.6341 C   0  0  0  0  0  0  0  0  0  0  0  0
   10.0285  -17.8201   18.8260 C   0  0  0  0  0  0  0  0  0  0  0  0
   11.4524  -17.6287   19.2146 C   0  0  2  0  0  0  0  0  0  0  0  0
   12.3353  -18.4226   18.3484 N   0  0  0  0  0  0  0  0  0  0  0  0
   11.7302  -17.9389   20.6292 C   0  0  0  0  0  0  0  0  0  0  0  0
   11.7908  -19.0994   21.0895 O   0  0  0  0  0  0  0  0  0  0  0  0
    7.7028  -12.7121   21.2612 N   0  0  0  0  0  0  0  0  0  0  0  0
   11.9546  -16.8782   21.5902 C   0  0  2  0  0  0  0  0  0  0  0  0
   12.1494  -17.1837   22.9965 C   0  0  0  0  0  0  0  0  0  0  0  0
   12.7584  -16.0034   23.7329 S   0  0  0  0  0  0  0  0  0  0  0  0
   14.5094  -15.7778   23.2962 C   0  0  0  0  0  0  0  0  0  0  0  0
   10.8786  -17.5847   23.6300 O   0  0  0  0  0  0  0  0  0  0  0  0
   10.9446  -18.0093   24.9617 O   0  0  0  0  0  0  0  0  0  0  0  0
  2  1  1  6
  3  2  1  0
  3  4  1  0
  4  8  1  0
  4  5  2  0
  6  2  1  0
  6  7  2  0
  9 10  1  0
 10 11  2  0
 10 12  1  0
 12 13  1  0
 14 15  1  0
 14 13  1  0
 16 15  1  6
 16 17  1  0
 17  6  1  0
 18 16  1  0
 19 18  2  0
 20 18  1  0
 21 20  1  0
 21 24  1  0
 21 22  1  6
 23 22  1  0
 24 25  1  0
 26 24  2  0
M  END
$$$$
