DRC.pdb
     RDKit          3D

 26 25  0  0  1  0  0  0  0  0999 V2000
    8.4112  -13.1387   18.8245 N   0  0  0  0  0  0  0  0  0  0  0  0
    9.1593  -14.0692   19.6839 C   0  0  1  0  0  0  0  0  0  0  0  0
   10.4970  -13.4221   19.9506 C   0  0  0  0  0  0  0  0  0  0  0  0
   11.4467  -13.8594   18.9014 C   0  0  0  0  0  0  0  0  0  0  0  0
   11.1537  -14.8390   18.1865 O   0  0  0  0  0  0  0  0  0  0  0  0
    8.4168  -14.3285   20.9408 C   0  0  0  0  0  0  0  0  0  0  0  0
    7.7599  -13.3852   21.4687 O   0  0  0  0  0  0  0  0  0  0  0  0
   12.6534  -13.1914   18.7079 O   0  0  0  0  0  0  0  0  0  0  0  0
    6.5594  -19.7423   26.9857 N   0  0  0  0  0  0  0  0  0  0  0  0
    7.5550  -20.1141   26.0238 C   0  0  0  0  0  0  0  0  0  0  0  0
    8.6465  -20.6580   26.4235 N   0  0  0  0  0  0  0  0  0  0  0  0
    7.3445  -19.8862   24.6405 N   0  0  0  0  0  0  0  0  0  0  0  0
    6.2049  -19.1455   24.1408 C   0  0  0  0  0  0  0  0  0  0  0  0
    6.5782  -17.6607   24.1025 C   0  0  0  0  0  0  0  0  0  0  0  0
    7.2715  -17.3144   22.8214 C   0  0  0  0  0  0  0  0  0  0  0  0
    7.6895  -15.8862   22.7956 C   0  0  2  0  0  0  0  0  0  0  0  0
    8.4226  -15.5850   21.5579 N   0  0  0  0  0  0  0  0  0  0  0  0
    8.4930  -15.4798   23.9633 C   0  0  0  0  0  0  0  0  0  0  0  0
    9.7391  -15.5633   24.0152 O   0  0  0  0  0  0  0  0  0  0  0  0
    9.4025  -20.9597   25.7816 N   0  0  0  0  0  0  0  0  0  0  0  0
    7.8575  -14.9450   25.1503 C   0  0  2  0  0  0  0  0  0  0  0  0
    8.6563  -14.4334   26.2499 C   0  0  0  0  0  0  0  0  0  0  0  0
    7.8526  -13.4727   27.1086 S   0  0  0  0  0  0  0  0  0  0  0  0
    6.9779  -12.2438   26.0925 C   0  0  0  0  0  0  0  0  0  0  0  0
    9.1885  -15.5362   27.0728 O   0  0  0  0  0  0  0  0  0  0  0  0
    8.8617  -16.8365   26.6719 O   0  0  0  0  0  0  0  0  0  0  0  0
  2  1  1  6
  3  2  1  0
  3  4  1  0
  4  8  1  0
  4  5  2  0
  6  2  1  0
  6  7  2  0
  9 10  1  0
 10 11  2  0
 10 12  1  0
 12 13  1  0
 14 15  1  0
 14 13  1  0
 16 15  1  1
 16 17  1  0
 17  6  1  0
 18 16  1  0
 19 18  2  0
 20 18  1  0
 21 20  1  0
 21 24  1  0
 21 22  1  6
 23 22  1  0
 24 25  1  0
 26 24  2  0
M  END
$$$$
