DRC.pdb
     RDKit          3D

 26 25  0  0  1  0  0  0  0  0999 V2000
   14.7041  -13.9308   17.1120 N   0  0  0  0  0  0  0  0  0  0  0  0
   14.4181  -15.2228   17.7544 C   0  0  1  0  0  0  0  0  0  0  0  0
   15.7552  -15.8656   18.0344 C   0  0  0  0  0  0  0  0  0  0  0  0
   16.3683  -16.2536   16.7431 C   0  0  0  0  0  0  0  0  0  0  0  0
   15.6346  -16.4216   15.7481 O   0  0  0  0  0  0  0  0  0  0  0  0
   13.6356  -15.0241   18.9980 C   0  0  0  0  0  0  0  0  0  0  0  0
   14.0835  -14.2397   19.8835 O   0  0  0  0  0  0  0  0  0  0  0  0
   17.7453  -16.4305   16.6315 O   0  0  0  0  0  0  0  0  0  0  0  0
    8.2596  -13.6759   15.0535 N   0  0  0  0  0  0  0  0  0  0  0  0
    8.3382  -13.7282   16.4838 C   0  0  0  0  0  0  0  0  0  0  0  0
    8.6186  -12.6615   17.1398 N   0  0  0  0  0  0  0  0  0  0  0  0
    8.1101  -14.9441   17.1764 N   0  0  0  0  0  0  0  0  0  0  0  0
    8.1985  -15.0440   18.6184 C   0  0  0  0  0  0  0  0  0  0  0  0
    9.6342  -14.7109   19.0344 C   0  0  0  0  0  0  0  0  0  0  0  0
   10.1357  -15.6824   20.0574 C   0  0  0  0  0  0  0  0  0  0  0  0
   11.5650  -15.4353   20.3906 C   0  0  2  0  0  0  0  0  0  0  0  0
   12.4181  -15.6787   19.2188 N   0  0  0  0  0  0  0  0  0  0  0  0
   12.0541  -16.2238   21.5367 C   0  0  0  0  0  0  0  0  0  0  0  0
   13.1782  -16.7688   21.5789 O   0  0  0  0  0  0  0  0  0  0  0  0
    8.8706  -12.6593   18.1453 N   0  0  0  0  0  0  0  0  0  0  0  0
   11.2286  -16.4136   22.7120 C   0  0  2  0  0  0  0  0  0  0  0  0
   11.6108  -17.3677   23.7378 C   0  0  0  0  0  0  0  0  0  0  0  0
   11.5408  -16.7419   25.1197 S   0  0  0  0  0  0  0  0  0  0  0  0
   10.0214  -15.7653   25.3321 C   0  0  0  0  0  0  0  0  0  0  0  0
   10.7647  -18.5749   23.6767 O   0  0  0  0  0  0  0  0  0  0  0  0
   11.2001  -19.6874   24.4054 O   0  0  0  0  0  0  0  0  0  0  0  0
  2  1  1  1
  3  2  1  0
  3  4  1  0
  4  8  1  0
  4  5  2  0
  6  2  1  0
  6  7  2  0
  9 10  1  0
 10 11  2  0
 10 12  1  0
 12 13  1  0
 14 15  1  0
 14 13  1  0
 16 15  1  6
 16 17  1  0
 17  6  1  0
 18 16  1  0
 19 18  2  0
 20 18  1  0
 21 20  1  0
 21 24  1  0
 21 22  1  1
 23 22  1  0
 24 25  1  0
 26 24  2  0
M  END
$$$$
