DRC.pdb
     RDKit          3D

 26 25  0  0  1  0  0  0  0  0999 V2000
    9.7125  -18.7165   22.2959 N   0  0  0  0  0  0  0  0  0  0  0  0
   10.7869  -17.8989   21.7119 C   0  0  1  0  0  0  0  0  0  0  0  0
   10.7111  -18.0988   20.2174 C   0  0  0  0  0  0  0  0  0  0  0  0
   11.4613  -19.3278   19.8702 C   0  0  0  0  0  0  0  0  0  0  0  0
   11.9445  -20.0239   20.7859 O   0  0  0  0  0  0  0  0  0  0  0  0
   10.6164  -16.4734   22.0824 C   0  0  0  0  0  0  0  0  0  0  0  0
   11.6170  -15.7020   22.0219 O   0  0  0  0  0  0  0  0  0  0  0  0
   11.6302  -19.7094   18.5414 O   0  0  0  0  0  0  0  0  0  0  0  0
    7.5236  -12.2317   18.3671 N   0  0  0  0  0  0  0  0  0  0  0  0
    7.8153  -13.5919   18.0211 C   0  0  0  0  0  0  0  0  0  0  0  0
    8.3724  -13.8507   16.8944 N   0  0  0  0  0  0  0  0  0  0  0  0
    7.4938  -14.6488   18.9096 N   0  0  0  0  0  0  0  0  0  0  0  0
    6.8405  -14.4213   20.1818 C   0  0  0  0  0  0  0  0  0  0  0  0
    7.7792  -13.5889   21.0602 C   0  0  0  0  0  0  0  0  0  0  0  0
    7.8033  -14.1098   22.4637 C   0  0  0  0  0  0  0  0  0  0  0  0
    9.1687  -14.5508   22.8591 C   0  0  2  0  0  0  0  0  0  0  0  0
    9.3820  -15.9589   22.4961 N   0  0  0  0  0  0  0  0  0  0  0  0
    9.4672  -14.3532   24.2896 C   0  0  0  0  0  0  0  0  0  0  0  0
    9.4768  -13.2369   24.8519 O   0  0  0  0  0  0  0  0  0  0  0  0
    8.6031  -14.8107   16.5787 N   0  0  0  0  0  0  0  0  0  0  0  0
    9.7752  -15.4811   25.1451 C   0  0  1  0  0  0  0  0  0  0  0  0
    9.9290  -15.3019   26.5779 C   0  0  0  0  0  0  0  0  0  0  0  0
    8.7106  -14.6223   27.1778 S   0  0  0  0  0  0  0  0  0  0  0  0
    9.0532  -12.8846   27.5905 C   0  0  0  0  0  0  0  0  0  0  0  0
   10.1790  -16.5930   27.2470 O   0  0  0  0  0  0  0  0  0  0  0  0
   10.4509  -16.5498   28.6190 O   0  0  0  0  0  0  0  0  0  0  0  0
  2  1  1  1
  3  2  1  0
  3  4  1  0
  4  8  1  0
  4  5  2  0
  6  2  1  0
  6  7  2  0
  9 10  1  0
 10 11  2  0
 10 12  1  0
 12 13  1  0
 14 15  1  0
 14 13  1  0
 16 15  1  1
 16 17  1  0
 17  6  1  0
 18 16  1  0
 19 18  2  0
 20 18  1  0
 21 20  1  0
 21 24  1  0
 21 22  1  6
 23 22  1  0
 24 25  1  0
 26 24  2  0
M  END
$$$$
