MID.pdb
     RDKit          3D

 25 24  0  0  1  0  0  0  0  0999 V2000
    3.2695  -18.8385   21.2427 C   0  0  0  0  0  0  0  0  0  0  0  0
    4.7422  -19.0085   20.2194 S   0  0  0  0  0  0  0  0  0  0  0  0
    5.6066  -17.4436   19.9796 C   0  0  0  0  0  0  0  0  0  0  0  0
    6.2770  -16.9216   21.2077 C   0  0  0  0  0  0  0  0  0  0  0  0
    6.8307  -15.5270   21.0778 C   0  0  2  0  0  0  0  0  0  0  0  0
    7.4172  -15.3083   19.7851 N   0  0  0  0  0  0  0  0  0  0  0  0
    7.6838  -15.1435   22.2190 C   0  0  0  0  0  0  0  0  0  0  0  0
    8.9122  -15.3630   22.0870 O   0  0  0  0  0  0  0  0  0  0  0  0
    7.4517  -11.7596   27.4642 C   0  0  0  0  0  0  0  0  0  0  0  0
    8.2077  -12.7219   26.5819 C   0  0  0  0  0  0  0  0  0  0  0  0
    7.3173  -13.2074   25.4385 C   0  0  2  0  0  0  0  0  0  0  0  0
    6.1171  -13.8902   26.0482 C   0  0  0  0  0  0  0  0  0  0  0  0
    8.0924  -14.1228   24.5202 C   0  0  2  0  0  0  0  0  0  0  0  0
    7.2273  -14.5614   23.4220 N   0  0  0  0  0  0  0  0  0  0  0  0
    8.6036  -15.2728   25.2748 C   0  0  0  0  0  0  0  0  0  0  0  0
    7.7640  -16.1694   25.6562 O   0  0  0  0  0  0  0  0  0  0  0  0
    9.9327  -15.5388   25.6450 N   0  0  0  0  0  0  0  0  0  0  0  0
   10.3405  -16.8123   26.2668 C   0  0  1  0  0  0  0  0  0  0  0  0
   11.8412  -16.9029   25.9176 C   0  0  0  0  0  0  0  0  0  0  0  0
   12.0489  -17.7307   24.7222 C   0  0  0  0  0  0  0  0  0  0  0  0
   11.0223  -18.1987   24.1472 O   0  0  0  0  0  0  0  0  0  0  0  0
   10.2973  -16.7051   27.7447 C   0  0  0  0  0  0  0  0  0  0  0  0
   10.1879  -17.8700   28.4812 O   0  0  0  0  0  0  0  0  0  0  0  0
   13.3034  -18.0053   24.2170 O   0  0  0  0  0  0  0  0  0  0  0  0
   10.3570  -15.5912   28.3358 O   0  0  0  0  0  0  0  0  0  0  0  0
  2  3  1  0
  2  1  1  0
  4  5  1  0
  4  3  1  0
  5  7  1  0
  5  6  1  6
  7 14  1  0
  8  7  2  0
 10  9  1  0
 11 12  1  1
 11 13  1  0
 11 10  1  0
 13 14  1  6
 15 17  1  0
 15 13  1  0
 16 15  2  0
 18 17  1  0
 18 19  1  1
 19 20  1  0
 20 24  1  0
 21 20  2  0
 22 18  1  0
 23 22  1  0
 25 22  2  0
M  END
$$$$
