MID.pdb
     RDKit          3D

 25 24  0  0  1  0  0  0  0  0999 V2000
    8.3441  -11.3266   19.1771 C   0  0  0  0  0  0  0  0  0  0  0  0
    7.4664  -12.6758   18.3683 S   0  0  0  0  0  0  0  0  0  0  0  0
    7.3611  -14.1530   19.3981 C   0  0  0  0  0  0  0  0  0  0  0  0
    8.2056  -14.1012   20.6287 C   0  0  0  0  0  0  0  0  0  0  0  0
    8.1131  -15.3212   21.5071 C   0  0  2  0  0  0  0  0  0  0  0  0
    6.7817  -15.8597   21.5271 N   0  0  0  0  0  0  0  0  0  0  0  0
    8.7184  -15.1138   22.8366 C   0  0  0  0  0  0  0  0  0  0  0  0
    9.9686  -15.0108   22.8630 O   0  0  0  0  0  0  0  0  0  0  0  0
    6.0828  -12.1150   26.3164 C   0  0  0  0  0  0  0  0  0  0  0  0
    7.1963  -12.7701   25.5373 C   0  0  0  0  0  0  0  0  0  0  0  0
    7.6692  -14.0377   26.2485 C   0  0  2  0  0  0  0  0  0  0  0  0
    8.3054  -13.6230   27.5531 C   0  0  0  0  0  0  0  0  0  0  0  0
    8.6212  -14.8115   25.3671 C   0  0  2  0  0  0  0  0  0  0  0  0
    8.0078  -15.0260   24.0540 N   0  0  0  0  0  0  0  0  0  0  0  0
    8.9621  -16.0905   26.0005 C   0  0  0  0  0  0  0  0  0  0  0  0
    8.0083  -16.9160   26.2516 O   0  0  0  0  0  0  0  0  0  0  0  0
   10.2339  -16.5534   26.3779 N   0  0  0  0  0  0  0  0  0  0  0  0
   10.4540  -17.9077   26.9186 C   0  0  1  0  0  0  0  0  0  0  0  0
   11.7988  -18.3198   26.2826 C   0  0  0  0  0  0  0  0  0  0  0  0
   12.2401  -19.6233   26.7959 C   0  0  0  0  0  0  0  0  0  0  0  0
   11.4111  -20.5798   26.7584 O   0  0  0  0  0  0  0  0  0  0  0  0
   10.7222  -17.8474   28.3752 C   0  0  0  0  0  0  0  0  0  0  0  0
   10.9259  -16.6073   28.9512 O   0  0  0  0  0  0  0  0  0  0  0  0
   13.5058  -19.8318   27.3049 O   0  0  0  0  0  0  0  0  0  0  0  0
   10.7679  -18.8873   29.0897 O   0  0  0  0  0  0  0  0  0  0  0  0
  2  3  1  0
  2  1  1  0
  4  5  1  0
  4  3  1  0
  5  7  1  0
  5  6  1  1
  7 14  1  0
  8  7  2  0
 10  9  1  0
 11 12  1  1
 11 13  1  0
 11 10  1  0
 13 14  1  6
 15 17  1  0
 15 13  1  0
 16 15  2  0
 18 17  1  0
 18 19  1  6
 19 20  1  0
 20 24  1  0
 21 20  2  0
 22 18  1  0
 23 22  1  0
 25 22  2  0
M  END
$$$$
