MID.pdb
     RDKit          3D

 25 24  0  0  1  0  0  0  0  0999 V2000
    6.1930  -21.1147   17.9816 C   0  0  0  0  0  0  0  0  0  0  0  0
    7.9760  -21.2720   17.7796 S   0  0  0  0  0  0  0  0  0  0  0  0
    8.7444  -19.7543   17.1799 C   0  0  0  0  0  0  0  0  0  0  0  0
    7.8086  -18.5950   17.0775 C   0  0  0  0  0  0  0  0  0  0  0  0
    8.4310  -17.3285   16.5509 C   0  0  2  0  0  0  0  0  0  0  0  0
    9.2055  -17.5720   15.3661 N   0  0  0  0  0  0  0  0  0  0  0  0
    9.1261  -16.5563   17.5986 C   0  0  0  0  0  0  0  0  0  0  0  0
   10.3782  -16.5267   17.5223 O   0  0  0  0  0  0  0  0  0  0  0  0
    6.6875  -12.2593   20.1507 C   0  0  0  0  0  0  0  0  0  0  0  0
    7.7302  -13.1091   19.4677 C   0  0  0  0  0  0  0  0  0  0  0  0
    8.2260  -14.2043   20.4116 C   0  0  2  0  0  0  0  0  0  0  0  0
    8.8435  -13.5311   21.6133 C   0  0  0  0  0  0  0  0  0  0  0  0
    9.2012  -15.1115   19.6989 C   0  0  2  0  0  0  0  0  0  0  0  0
    8.4977  -15.8647   18.6575 N   0  0  0  0  0  0  0  0  0  0  0  0
    9.8364  -16.0185   20.6617 C   0  0  0  0  0  0  0  0  0  0  0  0
    9.1769  -17.0539   21.0455 O   0  0  0  0  0  0  0  0  0  0  0  0
   11.1137  -15.9078   21.2367 N   0  0  0  0  0  0  0  0  0  0  0  0
   11.6529  -16.9185   22.1655 C   0  0  1  0  0  0  0  0  0  0  0  0
   13.1743  -16.6648   22.1076 C   0  0  0  0  0  0  0  0  0  0  0  0
   13.8882  -17.5684   23.0194 C   0  0  0  0  0  0  0  0  0  0  0  0
   13.6044  -18.8013   22.9649 O   0  0  0  0  0  0  0  0  0  0  0  0
   11.2647  -16.6006   23.5604 C   0  0  0  0  0  0  0  0  0  0  0  0
   10.5732  -15.4267   23.7947 O   0  0  0  0  0  0  0  0  0  0  0  0
   14.8406  -17.1223   23.9130 O   0  0  0  0  0  0  0  0  0  0  0  0
   11.5475  -17.3663   24.5236 O   0  0  0  0  0  0  0  0  0  0  0  0
  2  3  1  0
  2  1  1  0
  4  5  1  0
  4  3  1  0
  5  7  1  0
  5  6  1  6
  7 14  1  0
  8  7  2  0
 10  9  1  0
 11 12  1  1
 11 13  1  0
 11 10  1  0
 13 14  1  6
 15 17  1  0
 15 13  1  0
 16 15  2  0
 18 17  1  0
 18 19  1  1
 19 20  1  0
 20 24  1  0
 21 20  2  0
 22 18  1  0
 23 22  1  0
 25 22  2  0
M  END
$$$$
