MID.pdb
     RDKit          3D

 25 24  0  0  1  0  0  0  0  0999 V2000
   10.5210  -14.5640   30.0384 C   0  0  0  0  0  0  0  0  0  0  0  0
   10.7268  -16.2894   30.5136 S   0  0  0  0  0  0  0  0  0  0  0  0
    9.5915  -17.3898   29.6453 C   0  0  0  0  0  0  0  0  0  0  0  0
    9.2760  -16.9639   28.2491 C   0  0  0  0  0  0  0  0  0  0  0  0
    8.1458  -17.7196   27.6010 C   0  0  2  0  0  0  0  0  0  0  0  0
    8.3585  -19.1390   27.6544 N   0  0  0  0  0  0  0  0  0  0  0  0
    7.7997  -17.1940   26.2664 C   0  0  0  0  0  0  0  0  0  0  0  0
    7.7889  -18.0298   25.3307 O   0  0  0  0  0  0  0  0  0  0  0  0
    6.4316  -12.0874   26.3506 C   0  0  0  0  0  0  0  0  0  0  0  0
    6.2668  -13.3705   25.5743 C   0  0  0  0  0  0  0  0  0  0  0  0
    7.5549  -13.7076   24.8239 C   0  0  2  0  0  0  0  0  0  0  0  0
    7.5090  -13.0011   23.4907 C   0  0  0  0  0  0  0  0  0  0  0  0
    7.7009  -15.2037   24.6748 C   0  0  2  0  0  0  0  0  0  0  0  0
    7.4878  -15.8481   25.9732 N   0  0  0  0  0  0  0  0  0  0  0  0
    9.0296  -15.5264   24.1423 C   0  0  0  0  0  0  0  0  0  0  0  0
   10.0550  -14.9953   24.7086 O   0  0  0  0  0  0  0  0  0  0  0  0
    9.3443  -16.3703   23.0639 N   0  0  0  0  0  0  0  0  0  0  0  0
   10.7116  -16.4863   22.5236 C   0  0  1  0  0  0  0  0  0  0  0  0
   10.8769  -18.0080   22.3243 C   0  0  0  0  0  0  0  0  0  0  0  0
   11.3633  -18.6448   23.5554 C   0  0  0  0  0  0  0  0  0  0  0  0
   11.5774  -17.8993   24.5563 O   0  0  0  0  0  0  0  0  0  0  0  0
   10.7805  -15.9119   21.1588 C   0  0  0  0  0  0  0  0  0  0  0  0
    9.5940  -15.6565   20.4968 O   0  0  0  0  0  0  0  0  0  0  0  0
   11.5865  -20.0033   23.6512 O   0  0  0  0  0  0  0  0  0  0  0  0
   11.8815  -15.6552   20.5968 O   0  0  0  0  0  0  0  0  0  0  0  0
  2  3  1  0
  2  1  1  0
  4  5  1  0
  4  3  1  0
  5  7  1  0
  5  6  1  6
  7 14  1  0
  8  7  2  0
 10  9  1  0
 11 12  1  6
 11 13  1  0
 11 10  1  0
 13 14  1  1
 15 17  1  0
 15 13  1  0
 16 15  2  0
 18 17  1  0
 18 19  1  6
 19 20  1  0
 20 24  1  0
 21 20  2  0
 22 18  1  0
 23 22  1  0
 25 22  2  0
M  END
$$$$
