MID.pdb
     RDKit          3D

 25 24  0  0  1  0  0  0  0  0999 V2000
    8.2907  -11.4154   19.2703 C   0  0  0  0  0  0  0  0  0  0  0  0
    7.3389  -12.7563   18.5350 S   0  0  0  0  0  0  0  0  0  0  0  0
    7.4388  -14.2841   19.4886 C   0  0  0  0  0  0  0  0  0  0  0  0
    8.0855  -14.1285   20.8256 C   0  0  0  0  0  0  0  0  0  0  0  0
    8.0784  -15.3713   21.6765 C   0  0  2  0  0  0  0  0  0  0  0  0
    6.7739  -15.9700   21.7286 N   0  0  0  0  0  0  0  0  0  0  0  0
    8.7202  -15.1673   22.9894 C   0  0  0  0  0  0  0  0  0  0  0  0
    9.9431  -14.8872   22.9675 O   0  0  0  0  0  0  0  0  0  0  0  0
    6.0555  -12.3664   26.4209 C   0  0  0  0  0  0  0  0  0  0  0  0
    7.1687  -13.0134   25.6347 C   0  0  0  0  0  0  0  0  0  0  0  0
    7.7400  -14.2048   26.4029 C   0  0  2  0  0  0  0  0  0  0  0  0
    8.3999  -13.6731   27.6521 C   0  0  0  0  0  0  0  0  0  0  0  0
    8.7011  -14.9801   25.5328 C   0  0  2  0  0  0  0  0  0  0  0  0
    8.0718  -15.2634   24.2404 N   0  0  0  0  0  0  0  0  0  0  0  0
    9.0952  -16.2228   26.2063 C   0  0  0  0  0  0  0  0  0  0  0  0
    8.1698  -17.0512   26.5401 O   0  0  0  0  0  0  0  0  0  0  0  0
   10.3918  -16.6470   26.5426 N   0  0  0  0  0  0  0  0  0  0  0  0
   10.6591  -17.9593   27.1601 C   0  0  1  0  0  0  0  0  0  0  0  0
   12.1652  -18.1666   26.8938 C   0  0  0  0  0  0  0  0  0  0  0  0
   12.4542  -18.0975   25.4553 C   0  0  0  0  0  0  0  0  0  0  0  0
   13.5327  -17.5370   25.0999 O   0  0  0  0  0  0  0  0  0  0  0  0
   10.5396  -17.8725   28.6351 C   0  0  0  0  0  0  0  0  0  0  0  0
   10.6360  -19.0407   29.3682 O   0  0  0  0  0  0  0  0  0  0  0  0
   11.6037  -18.6168   24.5005 O   0  0  0  0  0  0  0  0  0  0  0  0
   10.3547  -16.7727   29.2269 O   0  0  0  0  0  0  0  0  0  0  0  0
  2  3  1  0
  2  1  1  0
  4  5  1  0
  4  3  1  0
  5  7  1  0
  5  6  1  1
  7 14  1  0
  8  7  2  0
 10  9  1  0
 11 12  1  1
 11 13  1  0
 11 10  1  0
 13 14  1  6
 15 17  1  0
 15 13  1  0
 16 15  2  0
 18 17  1  0
 18 19  1  1
 19 20  1  0
 20 24  1  0
 21 20  2  0
 22 18  1  0
 23 22  1  0
 25 22  2  0
M  END
$$$$
