MID.pdb
     RDKit          3D

 25 24  0  0  1  0  0  0  0  0999 V2000
    4.3780  -19.9091   22.7867 C   0  0  0  0  0  0  0  0  0  0  0  0
    5.4933  -19.9118   21.3722 S   0  0  0  0  0  0  0  0  0  0  0  0
    6.1517  -18.2736   21.0028 C   0  0  0  0  0  0  0  0  0  0  0  0
    6.6510  -17.5319   22.1989 C   0  0  0  0  0  0  0  0  0  0  0  0
    7.0334  -16.0989   21.9363 C   0  0  2  0  0  0  0  0  0  0  0  0
    7.5513  -15.9239   20.6082 N   0  0  0  0  0  0  0  0  0  0  0  0
    7.8695  -15.5262   23.0087 C   0  0  0  0  0  0  0  0  0  0  0  0
    9.1097  -15.5682   22.8225 O   0  0  0  0  0  0  0  0  0  0  0  0
    5.8486  -11.6298   26.2595 C   0  0  0  0  0  0  0  0  0  0  0  0
    6.8094  -12.4168   25.4031 C   0  0  0  0  0  0  0  0  0  0  0  0
    7.4151  -13.5690   26.2040 C   0  0  2  0  0  0  0  0  0  0  0  0
    8.2452  -12.9713   27.3140 C   0  0  0  0  0  0  0  0  0  0  0  0
    8.2273  -14.4676   25.3012 C   0  0  2  0  0  0  0  0  0  0  0  0
    7.3852  -14.9482   24.2029 N   0  0  0  0  0  0  0  0  0  0  0  0
    8.7729  -15.5906   26.0722 C   0  0  0  0  0  0  0  0  0  0  0  0
    7.9466  -16.4349   26.5809 O   0  0  0  0  0  0  0  0  0  0  0  0
   10.1223  -15.8812   26.3344 N   0  0  0  0  0  0  0  0  0  0  0  0
   10.5476  -17.1241   27.0047 C   0  0  1  0  0  0  0  0  0  0  0  0
   12.0426  -17.2230   26.6336 C   0  0  0  0  0  0  0  0  0  0  0  0
   12.2055  -17.5738   25.2166 C   0  0  0  0  0  0  0  0  0  0  0  0
   11.1941  -18.0279   24.6047 O   0  0  0  0  0  0  0  0  0  0  0  0
   10.5294  -16.9518   28.4770 C   0  0  0  0  0  0  0  0  0  0  0  0
   10.2460  -15.6975   28.9845 O   0  0  0  0  0  0  0  0  0  0  0  0
   13.4027  -17.4236   24.5466 O   0  0  0  0  0  0  0  0  0  0  0  0
   10.7633  -17.9104   29.2646 O   0  0  0  0  0  0  0  0  0  0  0  0
  2  3  1  0
  2  1  1  0
  4  5  1  0
  4  3  1  0
  5  7  1  0
  5  6  1  6
  7 14  1  0
  8  7  2  0
 10  9  1  0
 11 12  1  1
 11 13  1  0
 11 10  1  0
 13 14  1  6
 15 17  1  0
 15 13  1  0
 16 15  2  0
 18 17  1  0
 18 19  1  6
 19 20  1  0
 20 24  1  0
 21 20  2  0
 22 18  1  0
 23 22  1  0
 25 22  2  0
M  END
$$$$
