MID.pdb
     RDKit          3D

 25 24  0  0  1  0  0  0  0  0999 V2000
    7.6240  -21.9186   19.5745 C   0  0  0  0  0  0  0  0  0  0  0  0
    7.0210  -21.8260   17.8796 S   0  0  0  0  0  0  0  0  0  0  0  0
    7.4319  -20.2623   17.0799 C   0  0  0  0  0  0  0  0  0  0  0  0
    8.2998  -19.3660   17.9006 C   0  0  0  0  0  0  0  0  0  0  0  0
    8.4325  -17.9620   17.3718 C   0  0  2  0  0  0  0  0  0  0  0  0
    9.0254  -17.9425   16.0638 N   0  0  0  0  0  0  0  0  0  0  0  0
    9.0493  -17.0415   18.3463 C   0  0  0  0  0  0  0  0  0  0  0  0
   10.2891  -16.8788   18.2423 O   0  0  0  0  0  0  0  0  0  0  0  0
    6.5857  -12.5095   20.2428 C   0  0  0  0  0  0  0  0  0  0  0  0
    7.6463  -13.4707   19.7661 C   0  0  0  0  0  0  0  0  0  0  0  0
    7.9899  -14.4731   20.8675 C   0  0  2  0  0  0  0  0  0  0  0  0
    8.5058  -13.6946   22.0535 C   0  0  0  0  0  0  0  0  0  0  0  0
    8.9938  -15.4838   20.3648 C   0  0  2  0  0  0  0  0  0  0  0  0
    8.3603  -16.3473   19.3650 N   0  0  0  0  0  0  0  0  0  0  0  0
    9.5120  -16.2751   21.4866 C   0  0  0  0  0  0  0  0  0  0  0  0
    8.7360  -17.1511   22.0202 O   0  0  0  0  0  0  0  0  0  0  0  0
   10.7869  -16.2067   22.0733 N   0  0  0  0  0  0  0  0  0  0  0  0
   11.2461  -17.1792   23.0824 C   0  0  1  0  0  0  0  0  0  0  0  0
   12.7362  -16.8172   23.2587 C   0  0  0  0  0  0  0  0  0  0  0  0
   13.5148  -17.2283   22.0830 C   0  0  0  0  0  0  0  0  0  0  0  0
   13.1813  -18.3050   21.5058 O   0  0  0  0  0  0  0  0  0  0  0  0
   10.6248  -16.8943   24.3978 C   0  0  0  0  0  0  0  0  0  0  0  0
    9.8973  -15.7271   24.5376 O   0  0  0  0  0  0  0  0  0  0  0  0
   14.5749  -16.4896   21.5983 O   0  0  0  0  0  0  0  0  0  0  0  0
   10.7439  -17.6817   25.3775 O   0  0  0  0  0  0  0  0  0  0  0  0
  2  3  1  0
  2  1  1  0
  4  5  1  0
  4  3  1  0
  5  7  1  0
  5  6  1  6
  7 14  1  0
  8  7  2  0
 10  9  1  0
 11 12  1  1
 11 13  1  0
 11 10  1  0
 13 14  1  6
 15 17  1  0
 15 13  1  0
 16 15  2  0
 18 17  1  0
 18 19  1  1
 19 20  1  0
 20 24  1  0
 21 20  2  0
 22 18  1  0
 23 22  1  0
 25 22  2  0
M  END
$$$$
