MID.pdb
     RDKit          3D

 25 24  0  0  1  0  0  0  0  0999 V2000
   10.6047  -14.2957   30.0195 C   0  0  0  0  0  0  0  0  0  0  0  0
   11.1363  -16.0160   30.0730 S   0  0  0  0  0  0  0  0  0  0  0  0
    9.9555  -17.1332   29.2912 C   0  0  0  0  0  0  0  0  0  0  0  0
    9.2161  -16.5330   28.1409 C   0  0  0  0  0  0  0  0  0  0  0  0
    8.1732  -17.4296   27.5267 C   0  0  2  0  0  0  0  0  0  0  0  0
    8.6273  -18.7896   27.4421 N   0  0  0  0  0  0  0  0  0  0  0  0
    7.6167  -16.8824   26.2744 C   0  0  0  0  0  0  0  0  0  0  0  0
    7.3382  -17.7201   25.3828 O   0  0  0  0  0  0  0  0  0  0  0  0
    6.4426  -11.6988   26.3824 C   0  0  0  0  0  0  0  0  0  0  0  0
    6.0794  -12.9302   25.5900 C   0  0  0  0  0  0  0  0  0  0  0  0
    7.2832  -13.4193   24.7852 C   0  0  2  0  0  0  0  0  0  0  0  0
    7.2372  -12.7471   23.4344 C   0  0  0  0  0  0  0  0  0  0  0  0
    7.2664  -14.9260   24.6764 C   0  0  2  0  0  0  0  0  0  0  0  0
    7.3815  -15.5145   26.0131 N   0  0  0  0  0  0  0  0  0  0  0  0
    8.3611  -15.3774   23.8099 C   0  0  0  0  0  0  0  0  0  0  0  0
    8.2496  -15.1865   22.5428 O   0  0  0  0  0  0  0  0  0  0  0  0
    9.5582  -16.0068   24.1907 N   0  0  0  0  0  0  0  0  0  0  0  0
   10.6138  -16.3514   23.2202 C   0  0  1  0  0  0  0  0  0  0  0  0
   11.8733  -15.7045   23.8347 C   0  0  0  0  0  0  0  0  0  0  0  0
   13.0589  -15.9933   23.0171 C   0  0  0  0  0  0  0  0  0  0  0  0
   12.9875  -15.7552   21.7755 O   0  0  0  0  0  0  0  0  0  0  0  0
   10.8828  -17.8090   23.2422 C   0  0  0  0  0  0  0  0  0  0  0  0
   10.2228  -18.5811   24.1799 O   0  0  0  0  0  0  0  0  0  0  0  0
   14.2243  -16.5034   23.5521 O   0  0  0  0  0  0  0  0  0  0  0  0
   11.6888  -18.3518   22.4361 O   0  0  0  0  0  0  0  0  0  0  0  0
  2  3  1  0
  2  1  1  0
  4  5  1  0
  4  3  1  0
  5  7  1  0
  5  6  1  6
  7 14  1  0
  8  7  2  0
 10  9  1  0
 11 12  1  6
 11 13  1  0
 11 10  1  0
 13 14  1  1
 15 17  1  0
 15 13  1  0
 16 15  2  0
 18 17  1  0
 18 19  1  1
 19 20  1  0
 20 24  1  0
 21 20  2  0
 22 18  1  0
 23 22  1  0
 25 22  2  0
M  END
$$$$
