VVY.pdb
     RDKit          3D

 27 27  0  0  1  0  0  0  0  0999 V2000
   24.7037  -17.5988  -16.2407 C   0  0  0  0  0  0  0  0  0  0  0  0
   25.4592  -18.3187  -17.3447 C   0  0  1  0  0  0  0  0  0  0  0  0
   25.9757  -17.3467  -18.3683 C   0  0  0  0  0  0  0  0  0  0  0  0
   26.5768  -19.1512  -16.7500 C   0  0  2  0  0  0  0  0  0  0  0  0
   27.3112  -19.8748  -17.7420 N   0  0  0  0  0  0  0  0  0  0  0  0
   25.9721  -20.0757  -15.7572 C   0  0  0  0  0  0  0  0  0  0  0  0
   25.2719  -21.0522  -16.1801 O   0  0  0  0  0  0  0  0  0  0  0  0
   27.8960  -21.4680  -12.7362 C   0  0  0  0  0  0  0  0  0  0  0  0
   26.6214  -20.8320  -12.2668 C   0  0  2  0  0  0  0  0  0  0  0  0
   25.9909  -21.6829  -11.1862 C   0  0  0  0  0  0  0  0  0  0  0  0
   25.6098  -20.7325  -13.4190 C   0  0  2  0  0  0  0  0  0  0  0  0
   26.1886  -19.8476  -14.3882 N   0  0  0  0  0  0  0  0  0  0  0  0
   24.3513  -20.0840  -12.9250 C   0  0  0  0  0  0  0  0  0  0  0  0
   24.3559  -18.9861  -12.3186 O   0  0  0  0  0  0  0  0  0  0  0  0
   20.6169  -19.6405  -18.7979 O   0  0  0  0  0  0  0  0  0  0  0  0
   20.8969  -19.4471  -17.4497 C   0  0  0  0  0  0  0  0  0  0  0  0
   20.6513  -18.2292  -16.8457 C   0  0  0  0  0  0  0  0  0  0  0  0
   20.9197  -18.0160  -15.5174 C   0  0  0  0  0  0  0  0  0  0  0  0
   21.4496  -19.0446  -14.7609 C   0  0  0  0  0  0  0  0  0  0  0  0
   21.7456  -18.8015  -13.3454 C   0  0  0  0  0  0  0  0  0  0  0  0
   21.8983  -20.0968  -12.6146 C   0  0  2  0  0  0  0  0  0  0  0  0
   23.1134  -20.7281  -13.1478 N   0  0  0  0  0  0  0  0  0  0  0  0
   20.7540  -20.9941  -12.8473 C   0  0  0  0  0  0  0  0  0  0  0  0
   19.4566  -20.7367  -12.4482 O   0  0  0  0  0  0  0  0  0  0  0  0
   21.6953  -20.2538  -15.3545 C   0  0  0  0  0  0  0  0  0  0  0  0
   21.4228  -20.4582  -16.6873 C   0  0  0  0  0  0  0  0  0  0  0  0
   20.9447  -22.0979  -13.4586 O   0  0  0  0  0  0  0  0  0  0  0  0
  2  1  1  1
  2  4  1  0
  2  3  1  0
  4  6  1  0
  4  5  1  6
  6  7  2  0
  9  8  1  6
  9 11  1  0
 10  9  1  0
 11 13  1  0
 11 12  1  6
 12  6  1  0
 13 14  2  0
 15 16  1  0
 16 26  2  0
 16 17  1  0
 17 18  2  0
 18 19  1  0
 19 20  1  0
 21 20  1  6
 21 22  1  0
 21 23  1  0
 22 13  1  0
 23 27  2  0
 23 24  1  0
 25 19  2  0
 26 25  1  0
M  END
$$$$
