VVY.pdb
     RDKit          3D

 27 27  0  0  1  0  0  0  0  0999 V2000
   23.9108  -19.5992  -19.1399 C   0  0  0  0  0  0  0  0  0  0  0  0
   23.9589  -20.9997  -18.5533 C   0  0  1  0  0  0  0  0  0  0  0  0
   25.3010  -21.6361  -18.7840 C   0  0  0  0  0  0  0  0  0  0  0  0
   23.6058  -20.9571  -17.0805 C   0  0  2  0  0  0  0  0  0  0  0  0
   23.1276  -19.6738  -16.6665 N   0  0  0  0  0  0  0  0  0  0  0  0
   24.8176  -21.3449  -16.3142 C   0  0  0  0  0  0  0  0  0  0  0  0
   25.2165  -22.5533  -16.3738 O   0  0  0  0  0  0  0  0  0  0  0  0
   28.7194  -20.1167  -13.7354 C   0  0  0  0  0  0  0  0  0  0  0  0
   27.6309  -19.7827  -14.7116 C   0  0  2  0  0  0  0  0  0  0  0  0
   27.0803  -18.4050  -14.4149 C   0  0  0  0  0  0  0  0  0  0  0  0
   26.4666  -20.7774  -14.5854 C   0  0  2  0  0  0  0  0  0  0  0  0
   25.4851  -20.3734  -15.5503 N   0  0  0  0  0  0  0  0  0  0  0  0
   25.8370  -20.6411  -13.2315 C   0  0  0  0  0  0  0  0  0  0  0  0
   24.8128  -19.9442  -13.0350 O   0  0  0  0  0  0  0  0  0  0  0  0
   28.4434  -18.7195   -5.6730 O   0  0  0  0  0  0  0  0  0  0  0  0
   27.9750  -19.5298   -6.7013 C   0  0  0  0  0  0  0  0  0  0  0  0
   28.8181  -19.9408   -7.7156 C   0  0  0  0  0  0  0  0  0  0  0  0
   28.3777  -20.7403   -8.7397 C   0  0  0  0  0  0  0  0  0  0  0  0
   27.0567  -21.1469   -8.7603 C   0  0  0  0  0  0  0  0  0  0  0  0
   26.5931  -21.9898   -9.8671 C   0  0  0  0  0  0  0  0  0  0  0  0
   25.7663  -21.1894  -10.8214 C   0  0  2  0  0  0  0  0  0  0  0  0
   26.4137  -21.3195  -12.1342 N   0  0  0  0  0  0  0  0  0  0  0  0
   25.7266  -19.7651  -10.4490 C   0  0  0  0  0  0  0  0  0  0  0  0
   24.7077  -19.1654   -9.7342 O   0  0  0  0  0  0  0  0  0  0  0  0
   26.2164  -20.7423   -7.7576 C   0  0  0  0  0  0  0  0  0  0  0  0
   26.6673  -19.9406   -6.7346 C   0  0  0  0  0  0  0  0  0  0  0  0
   26.6893  -19.0045  -10.7999 O   0  0  0  0  0  0  0  0  0  0  0  0
  2  1  1  1
  2  4  1  0
  2  3  1  0
  4  6  1  0
  4  5  1  1
  6  7  2  0
  9  8  1  1
  9 11  1  0
 10  9  1  0
 11 13  1  0
 11 12  1  6
 12  6  1  0
 13 14  2  0
 15 16  1  0
 16 26  2  0
 16 17  1  0
 17 18  2  0
 18 19  1  0
 19 20  1  0
 21 20  1  1
 21 22  1  0
 21 23  1  0
 22 13  1  0
 23 27  2  0
 23 24  1  0
 25 19  2  0
 26 25  1  0
M  END
$$$$
