VVY.pdb
     RDKit          3D

 27 27  0  0  1  0  0  0  0  0999 V2000
   16.5098  -13.3979  -17.0946 C   0  0  0  0  0  0  0  0  0  0  0  0
   17.4260  -12.7251  -16.0867 C   0  0  1  0  0  0  0  0  0  0  0  0
   18.4850  -13.6749  -15.6012 C   0  0  0  0  0  0  0  0  0  0  0  0
   18.0310  -11.4741  -16.6907 C   0  0  2  0  0  0  0  0  0  0  0  0
   18.7973  -11.7468  -17.8677 N   0  0  0  0  0  0  0  0  0  0  0  0
   18.8699  -10.8296  -15.6481 C   0  0  0  0  0  0  0  0  0  0  0  0
   18.3854  -10.6839  -14.4790 O   0  0  0  0  0  0  0  0  0  0  0  0
   22.4111  -11.8258  -14.6847 C   0  0  0  0  0  0  0  0  0  0  0  0
   22.3939  -10.3992  -15.1469 C   0  0  2  0  0  0  0  0  0  0  0  0
   23.3453   -9.5758  -14.3064 C   0  0  0  0  0  0  0  0  0  0  0  0
   20.9924   -9.7923  -14.9780 C   0  0  2  0  0  0  0  0  0  0  0  0
   20.1661  -10.4018  -15.9796 N   0  0  0  0  0  0  0  0  0  0  0  0
   21.0431   -8.3247  -15.2806 C   0  0  0  0  0  0  0  0  0  0  0  0
   21.3274   -7.8841  -16.4200 O   0  0  0  0  0  0  0  0  0  0  0  0
   20.0734    0.2847  -14.7829 O   0  0  0  0  0  0  0  0  0  0  0  0
   20.0033   -1.0875  -14.5695 C   0  0  0  0  0  0  0  0  0  0  0  0
   19.3605   -1.9104  -15.4741 C   0  0  0  0  0  0  0  0  0  0  0  0
   19.2793   -3.2665  -15.2839 C   0  0  0  0  0  0  0  0  0  0  0  0
   19.8545   -3.8274  -14.1589 C   0  0  0  0  0  0  0  0  0  0  0  0
   19.7496   -5.2762  -13.9585 C   0  0  0  0  0  0  0  0  0  0  0  0
   20.9429   -5.9700  -14.5327 C   0  0  2  0  0  0  0  0  0  0  0  0
   20.7617   -7.4005  -14.2493 N   0  0  0  0  0  0  0  0  0  0  0  0
   22.1947   -5.5149  -13.9046 C   0  0  0  0  0  0  0  0  0  0  0  0
   23.1081   -4.6624  -14.4944 O   0  0  0  0  0  0  0  0  0  0  0  0
   20.4925   -3.0165  -13.2587 C   0  0  0  0  0  0  0  0  0  0  0  0
   20.5690   -1.6575  -13.4582 C   0  0  0  0  0  0  0  0  0  0  0  0
   22.4843   -5.9225  -12.7305 O   0  0  0  0  0  0  0  0  0  0  0  0
  2  1  1  6
  2  4  1  0
  2  3  1  0
  4  6  1  0
  4  5  1  6
  6  7  2  0
  9  8  1  1
  9 11  1  0
 10  9  1  0
 11 13  1  0
 11 12  1  6
 12  6  1  0
 13 14  2  0
 15 16  1  0
 16 26  2  0
 16 17  1  0
 17 18  2  0
 18 19  1  0
 19 20  1  0
 21 20  1  1
 21 22  1  0
 21 23  1  0
 22 13  1  0
 23 27  2  0
 23 24  1  0
 25 19  2  0
 26 25  1  0
M  END
$$$$
