VVY.pdb
     RDKit          3D

 27 27  0  0  1  0  0  0  0  0999 V2000
   27.2585  -16.8019  -17.9819 C   0  0  0  0  0  0  0  0  0  0  0  0
   27.0429  -17.8331  -16.8873 C   0  0  1  0  0  0  0  0  0  0  0  0
   25.6525  -18.4012  -16.9468 C   0  0  0  0  0  0  0  0  0  0  0  0
   28.0953  -18.9187  -16.9835 C   0  0  2  0  0  0  0  0  0  0  0  0
   28.1129  -19.5558  -18.2644 N   0  0  0  0  0  0  0  0  0  0  0  0
   27.8283  -19.9034  -15.9041 C   0  0  0  0  0  0  0  0  0  0  0  0
   26.9916  -20.8383  -16.1243 O   0  0  0  0  0  0  0  0  0  0  0  0
   29.0946  -21.4405  -11.4079 C   0  0  0  0  0  0  0  0  0  0  0  0
   29.3593  -20.5899  -12.6145 C   0  0  2  0  0  0  0  0  0  0  0  0
   29.5230  -19.1446  -12.1977 C   0  0  0  0  0  0  0  0  0  0  0  0
   28.1751  -20.6528  -13.5915 C   0  0  2  0  0  0  0  0  0  0  0  0
   28.5025  -19.7759  -14.6784 N   0  0  0  0  0  0  0  0  0  0  0  0
   26.9503  -20.0967  -12.9291 C   0  0  0  0  0  0  0  0  0  0  0  0
   26.7447  -18.8637  -12.8260 O   0  0  0  0  0  0  0  0  0  0  0  0
   18.9209  -19.0498   -9.9292 O   0  0  0  0  0  0  0  0  0  0  0  0
   20.0841  -19.5348  -10.5165 C   0  0  0  0  0  0  0  0  0  0  0  0
   20.5820  -18.9644  -11.6720 C   0  0  0  0  0  0  0  0  0  0  0  0
   21.7277  -19.4264  -12.2685 C   0  0  0  0  0  0  0  0  0  0  0  0
   22.4039  -20.4903  -11.7011 C   0  0  0  0  0  0  0  0  0  0  0  0
   23.6197  -20.9852  -12.3547 C   0  0  0  0  0  0  0  0  0  0  0  0
   24.8350  -20.4220  -11.6907 C   0  0  2  0  0  0  0  0  0  0  0  0
   25.9902  -20.9887  -12.4004 N   0  0  0  0  0  0  0  0  0  0  0  0
   24.9114  -20.8084  -10.2717 C   0  0  0  0  0  0  0  0  0  0  0  0
   24.5452  -19.9991   -9.2135 O   0  0  0  0  0  0  0  0  0  0  0  0
   21.9148  -21.0598  -10.5559 C   0  0  0  0  0  0  0  0  0  0  0  0
   20.7651  -20.5894   -9.9649 C   0  0  0  0  0  0  0  0  0  0  0  0
   25.3450  -21.9692   -9.9667 O   0  0  0  0  0  0  0  0  0  0  0  0
  2  1  1  6
  2  4  1  0
  2  3  1  0
  4  6  1  0
  4  5  1  6
  6  7  2  0
  9  8  1  1
  9 11  1  0
 10  9  1  0
 11 13  1  0
 11 12  1  6
 12  6  1  0
 13 14  2  0
 15 16  1  0
 16 26  2  0
 16 17  1  0
 17 18  2  0
 18 19  1  0
 19 20  1  0
 21 20  1  6
 21 22  1  0
 21 23  1  0
 22 13  1  0
 23 27  2  0
 23 24  1  0
 25 19  2  0
 26 25  1  0
M  END
$$$$
