VVY.pdb
     RDKit          3D

 27 27  0  0  1  0  0  0  0  0999 V2000
   20.7340  -16.0713  -17.4554 C   0  0  0  0  0  0  0  0  0  0  0  0
   21.7809  -17.1655  -17.3337 C   0  0  1  0  0  0  0  0  0  0  0  0
   22.6910  -17.1777  -18.5300 C   0  0  0  0  0  0  0  0  0  0  0  0
   22.5563  -16.9996  -16.0426 C   0  0  2  0  0  0  0  0  0  0  0  0
   23.0642  -15.6730  -15.8727 N   0  0  0  0  0  0  0  0  0  0  0  0
   23.6593  -17.9943  -16.0474 C   0  0  0  0  0  0  0  0  0  0  0  0
   23.3857  -19.2075  -16.3230 O   0  0  0  0  0  0  0  0  0  0  0  0
   27.1724  -17.6569  -17.6534 C   0  0  0  0  0  0  0  0  0  0  0  0
   27.2859  -17.8707  -16.1732 C   0  0  2  0  0  0  0  0  0  0  0  0
   28.4459  -18.7956  -15.8758 C   0  0  0  0  0  0  0  0  0  0  0  0
   26.0160  -18.5387  -15.6238 C   0  0  2  0  0  0  0  0  0  0  0  0
   24.9649  -17.5707  -15.7494 N   0  0  0  0  0  0  0  0  0  0  0  0
   26.1894  -18.8148  -14.1603 C   0  0  0  0  0  0  0  0  0  0  0  0
   26.4572  -17.9099  -13.3340 O   0  0  0  0  0  0  0  0  0  0  0  0
   26.5123  -20.2129   -5.9872 O   0  0  0  0  0  0  0  0  0  0  0  0
   26.2533  -20.0332   -7.3414 C   0  0  0  0  0  0  0  0  0  0  0  0
   25.5316  -20.9724   -8.0526 C   0  0  0  0  0  0  0  0  0  0  0  0
   25.2642  -20.8156   -9.3889 C   0  0  0  0  0  0  0  0  0  0  0  0
   25.7275  -19.6899  -10.0439 C   0  0  0  0  0  0  0  0  0  0  0  0
   25.4480  -19.5392  -11.4755 C   0  0  0  0  0  0  0  0  0  0  0  0
   26.3587  -20.4108  -12.2793 C   0  0  2  0  0  0  0  0  0  0  0  0
   26.0471  -20.1396  -13.6895 N   0  0  0  0  0  0  0  0  0  0  0  0
   26.1291  -21.8397  -12.0070 C   0  0  0  0  0  0  0  0  0  0  0  0
   25.4173  -22.6940  -12.8270 O   0  0  0  0  0  0  0  0  0  0  0  0
   26.4437  -18.7559   -9.3440 C   0  0  0  0  0  0  0  0  0  0  0  0
   26.7067  -18.9217   -8.0040 C   0  0  0  0  0  0  0  0  0  0  0  0
   26.6095  -22.3540  -10.9425 O   0  0  0  0  0  0  0  0  0  0  0  0
  2  1  1  6
  2  4  1  0
  2  3  1  0
  4  6  1  0
  4  5  1  6
  6  7  2  0
  9  8  1  6
  9 11  1  0
 10  9  1  0
 11 13  1  0
 11 12  1  1
 12  6  1  0
 13 14  2  0
 15 16  1  0
 16 26  2  0
 16 17  1  0
 17 18  2  0
 18 19  1  0
 19 20  1  0
 21 20  1  1
 21 22  1  0
 21 23  1  0
 22 13  1  0
 23 27  2  0
 23 24  1  0
 25 19  2  0
 26 25  1  0
M  END
$$$$
