NPA.pdb
     RDKit          3D

 21 21  0  0  1  0  0  0  0  0999 V2000
   32.7998  -11.8626  -21.6435 N   0  0  0  0  0  0  0  0  0  0  0  0
   31.7032  -11.4828  -20.8256 C   0  0  0  0  0  0  0  0  0  0  0  0
   30.6040  -12.0424  -21.0506 O   0  0  0  0  0  0  0  0  0  0  0  0
   31.8957  -10.4651  -19.7642 C   0  0  0  0  0  0  0  0  0  0  0  0
   31.7448  -11.1071  -18.3896 C   0  0  2  0  0  0  0  0  0  0  0  0
   30.3309  -11.5166  -18.2836 N   0  0  0  0  0  0  0  0  0  0  0  0
   32.0829  -10.1501  -17.3086 C   0  0  0  0  0  0  0  0  0  0  0  0
   31.1240   -9.4861  -16.8683 O   0  0  0  0  0  0  0  0  0  0  0  0
   33.3675   -9.9668  -16.7849 N   0  0  0  0  0  0  0  0  0  0  0  0
   34.2154  -11.1997  -16.5705 C   0  0  0  0  0  0  0  0  0  0  0  0
   35.4721  -10.8011  -17.2892 C   0  0  0  0  0  0  0  0  0  0  0  0
   35.4401   -9.2771  -17.3307 C   0  0  0  0  0  0  0  0  0  0  0  0
   34.2666   -9.0152  -16.3357 C   0  0  1  0  0  0  0  0  0  0  0  0
   34.1475   -7.6185  -16.1953 C   0  0  0  0  0  0  0  0  0  0  0  0
   34.0302   -7.0110  -17.3579 O   0  0  0  0  0  0  0  0  0  0  0  0
   32.5879   -4.8222  -14.7667 C   0  0  0  0  0  0  0  0  0  0  0  0
   33.8673   -5.2965  -15.3490 C   0  0  2  0  0  0  0  0  0  0  0  0
   34.1260   -6.7275  -15.1272 N   0  0  0  0  0  0  0  0  0  0  0  0
   35.0017   -4.5227  -14.7382 C   0  0  0  0  0  0  0  0  0  0  0  0
   35.0379   -3.2724  -14.8954 O   0  0  0  0  0  0  0  0  0  0  0  0
   36.0134   -5.1241  -14.0079 O   0  0  0  0  0  0  0  0  0  0  0  0
  2  1  1  0
  2  3  2  0
  4  2  1  0
  5  4  1  0
  5  6  1  1
  5  7  1  0
  7  8  2  0
  9  7  1  0
  9 13  1  0
 10 11  1  0
 10  9  1  0
 11 12  1  0
 13 12  1  0
 13 14  1  6
 14 15  2  0
 14 18  1  0
 17 16  1  1
 17 19  1  0
 18 17  1  0
 19 21  1  0
 20 19  2  0
M  END
$$$$
