NPA.pdb
     RDKit          3D

 21 21  0  0  1  0  0  0  0  0999 V2000
   27.6993  -20.1504  -19.6657 N   0  0  0  0  0  0  0  0  0  0  0  0
   27.0494  -21.0827  -18.8146 C   0  0  0  0  0  0  0  0  0  0  0  0
   25.9215  -20.7600  -18.3721 O   0  0  0  0  0  0  0  0  0  0  0  0
   27.7128  -22.3689  -18.4907 C   0  0  0  0  0  0  0  0  0  0  0  0
   28.2432  -22.3391  -17.0616 C   0  0  2  0  0  0  0  0  0  0  0  0
   28.9235  -23.6319  -16.8520 N   0  0  0  0  0  0  0  0  0  0  0  0
   27.1421  -22.1755  -16.0821 C   0  0  0  0  0  0  0  0  0  0  0  0
   26.3792  -23.1555  -15.9724 O   0  0  0  0  0  0  0  0  0  0  0  0
   26.9300  -21.0267  -15.3120 N   0  0  0  0  0  0  0  0  0  0  0  0
   28.1457  -20.2259  -14.9051 C   0  0  0  0  0  0  0  0  0  0  0  0
   27.7402  -18.8539  -15.3611 C   0  0  0  0  0  0  0  0  0  0  0  0
   26.2178  -18.8946  -15.4386 C   0  0  0  0  0  0  0  0  0  0  0  0
   25.9570  -20.2489  -14.7084 C   0  0  1  0  0  0  0  0  0  0  0  0
   24.5601  -20.4103  -14.6230 C   0  0  0  0  0  0  0  0  0  0  0  0
   23.9949  -20.4790  -15.8106 O   0  0  0  0  0  0  0  0  0  0  0  0
   21.4470  -21.2146  -12.6697 C   0  0  0  0  0  0  0  0  0  0  0  0
   22.2263  -20.8280  -13.8714 C   0  0  2  0  0  0  0  0  0  0  0  0
   23.6350  -20.5125  -13.5891 N   0  0  0  0  0  0  0  0  0  0  0  0
   21.5976  -19.6133  -14.4945 C   0  0  0  0  0  0  0  0  0  0  0  0
   20.4187  -19.6972  -14.9331 O   0  0  0  0  0  0  0  0  0  0  0  0
   22.2583  -18.4014  -14.6096 O   0  0  0  0  0  0  0  0  0  0  0  0
  2  1  1  0
  2  3  2  0
  4  2  1  0
  5  4  1  0
  5  6  1  1
  5  7  1  0
  7  8  2  0
  9  7  1  0
  9 13  1  0
 10 11  1  0
 10  9  1  0
 11 12  1  0
 13 12  1  0
 13 14  1  6
 14 15  2  0
 14 18  1  0
 17 16  1  1
 17 19  1  0
 18 17  1  0
 19 21  1  0
 20 19  2  0
M  END
$$$$
