NPA.pdb
     RDKit          3D

 21 21  0  0  1  0  0  0  0  0999 V2000
   24.2965  -16.7080  -18.1228 N   0  0  0  0  0  0  0  0  0  0  0  0
   23.2612  -17.5093  -17.5738 C   0  0  0  0  0  0  0  0  0  0  0  0
   22.1765  -17.5474  -18.2016 O   0  0  0  0  0  0  0  0  0  0  0  0
   23.4969  -18.2513  -16.3115 C   0  0  0  0  0  0  0  0  0  0  0  0
   24.5702  -19.3136  -16.5210 C   0  0  2  0  0  0  0  0  0  0  0  0
   24.0516  -20.2167  -17.5668 N   0  0  0  0  0  0  0  0  0  0  0  0
   24.8287  -20.0711  -15.2728 C   0  0  0  0  0  0  0  0  0  0  0  0
   23.8326  -20.6339  -14.7774 O   0  0  0  0  0  0  0  0  0  0  0  0
   26.0795  -20.1782  -14.6548 N   0  0  0  0  0  0  0  0  0  0  0  0
   27.2838  -20.3724  -15.5475 C   0  0  0  0  0  0  0  0  0  0  0  0
   28.1794  -19.2752  -15.0486 C   0  0  0  0  0  0  0  0  0  0  0  0
   27.6830  -18.9664  -13.6402 C   0  0  0  0  0  0  0  0  0  0  0  0
   26.7254  -20.1807  -13.4306 C   0  0  1  0  0  0  0  0  0  0  0  0
   26.2251  -20.0908  -12.1167 C   0  0  0  0  0  0  0  0  0  0  0  0
   25.9331  -18.8514  -11.7805 O   0  0  0  0  0  0  0  0  0  0  0  0
   24.6184  -21.6125   -9.1093 C   0  0  0  0  0  0  0  0  0  0  0  0
   25.3486  -20.5433   -9.8334 C   0  0  2  0  0  0  0  0  0  0  0  0
   25.9674  -20.9932  -11.0898 N   0  0  0  0  0  0  0  0  0  0  0  0
   26.4389  -20.0073   -8.9486 C   0  0  0  0  0  0  0  0  0  0  0  0
   27.6302  -20.3502   -9.1775 O   0  0  0  0  0  0  0  0  0  0  0  0
   26.1924  -19.1506   -7.8885 O   0  0  0  0  0  0  0  0  0  0  0  0
  2  1  1  0
  2  3  2  0
  4  2  1  0
  5  4  1  0
  5  6  1  6
  5  7  1  0
  7  8  2  0
  9  7  1  0
  9 13  1  0
 10 11  1  0
 10  9  1  0
 11 12  1  0
 13 12  1  0
 13 14  1  1
 14 15  2  0
 14 18  1  0
 17 16  1  1
 17 19  1  0
 18 17  1  0
 19 21  1  0
 20 19  2  0
M  END
$$$$
