NPA.pdb
     RDKit          3D

 21 21  0  0  1  0  0  0  0  0999 V2000
   27.9967  -24.3047  -16.4790 N   0  0  0  0  0  0  0  0  0  0  0  0
   27.1729  -23.4824  -17.2920 C   0  0  0  0  0  0  0  0  0  0  0  0
   27.7291  -22.8789  -18.2399 O   0  0  0  0  0  0  0  0  0  0  0  0
   25.7239  -23.3723  -16.9962 C   0  0  0  0  0  0  0  0  0  0  0  0
   25.3928  -24.1252  -15.7125 C   0  0  2  0  0  0  0  0  0  0  0  0
   25.6546  -25.5497  -15.9960 N   0  0  0  0  0  0  0  0  0  0  0  0
   23.9743  -23.9326  -15.3262 C   0  0  0  0  0  0  0  0  0  0  0  0
   23.1606  -24.6806  -15.9030 O   0  0  0  0  0  0  0  0  0  0  0  0
   23.5281  -22.9946  -14.3886 N   0  0  0  0  0  0  0  0  0  0  0  0
   24.4591  -22.6516  -13.2483 C   0  0  0  0  0  0  0  0  0  0  0  0
   24.4734  -21.1530  -13.3424 C   0  0  0  0  0  0  0  0  0  0  0  0
   23.1924  -20.7890  -14.0853 C   0  0  0  0  0  0  0  0  0  0  0  0
   22.4690  -22.1713  -14.0473 C   0  0  1  0  0  0  0  0  0  0  0  0
   21.2037  -21.9922  -14.6404 C   0  0  0  0  0  0  0  0  0  0  0  0
   21.2814  -21.3645  -15.7956 O   0  0  0  0  0  0  0  0  0  0  0  0
   17.6392  -23.0403  -15.0180 C   0  0  0  0  0  0  0  0  0  0  0  0
   18.8051  -22.1601  -15.2764 C   0  0  2  0  0  0  0  0  0  0  0  0
   19.8942  -22.3158  -14.3001 N   0  0  0  0  0  0  0  0  0  0  0  0
   18.3555  -20.7265  -15.2410 C   0  0  0  0  0  0  0  0  0  0  0  0
   18.6532  -20.0213  -14.2394 O   0  0  0  0  0  0  0  0  0  0  0  0
   17.6252  -20.1431  -16.2632 O   0  0  0  0  0  0  0  0  0  0  0  0
  2  1  1  0
  2  3  2  0
  4  2  1  0
  5  4  1  0
  5  6  1  6
  5  7  1  0
  7  8  2  0
  9  7  1  0
  9 13  1  0
 10 11  1  0
 10  9  1  0
 11 12  1  0
 13 12  1  0
 13 14  1  6
 14 15  2  0
 14 18  1  0
 17 16  1  1
 17 19  1  0
 18 17  1  0
 19 21  1  0
 20 19  2  0
M  END
$$$$
