NPA.pdb
     RDKit          3D

 21 21  0  0  1  0  0  0  0  0999 V2000
   21.8049  -22.7622  -13.8346 N   0  0  0  0  0  0  0  0  0  0  0  0
   21.3350  -21.5508  -13.2626 C   0  0  0  0  0  0  0  0  0  0  0  0
   20.0970  -21.3532  -13.2841 O   0  0  0  0  0  0  0  0  0  0  0  0
   22.3018  -20.5908  -12.6768 C   0  0  0  0  0  0  0  0  0  0  0  0
   23.7142  -21.1603  -12.7489 C   0  0  2  0  0  0  0  0  0  0  0  0
   23.9152  -21.9125  -11.4952 N   0  0  0  0  0  0  0  0  0  0  0  0
   24.7243  -20.0812  -12.8659 C   0  0  0  0  0  0  0  0  0  0  0  0
   24.4038  -18.9951  -12.3443 O   0  0  0  0  0  0  0  0  0  0  0  0
   25.9618  -20.2192  -13.5043 N   0  0  0  0  0  0  0  0  0  0  0  0
   26.8387  -21.3759  -13.0827 C   0  0  0  0  0  0  0  0  0  0  0  0
   27.1409  -21.9961  -14.4164 C   0  0  0  0  0  0  0  0  0  0  0  0
   26.9155  -20.8821  -15.4331 C   0  0  0  0  0  0  0  0  0  0  0  0
   26.7936  -19.6661  -14.4625 C   0  0  1  0  0  0  0  0  0  0  0  0
   26.6534  -18.5131  -15.2599 C   0  0  0  0  0  0  0  0  0  0  0  0
   25.7831  -18.6856  -16.2333 O   0  0  0  0  0  0  0  0  0  0  0  0
   26.8948  -14.8097  -15.6165 C   0  0  0  0  0  0  0  0  0  0  0  0
   26.6574  -16.1821  -16.1274 C   0  0  2  0  0  0  0  0  0  0  0  0
   27.2127  -17.2395  -15.2686 N   0  0  0  0  0  0  0  0  0  0  0  0
   27.2845  -16.3154  -17.4867 C   0  0  0  0  0  0  0  0  0  0  0  0
   28.4060  -16.8826  -17.5851 O   0  0  0  0  0  0  0  0  0  0  0  0
   26.6833  -15.8406  -18.6407 O   0  0  0  0  0  0  0  0  0  0  0  0
  2  1  1  0
  2  3  2  0
  4  2  1  0
  5  4  1  0
  5  6  1  1
  5  7  1  0
  7  8  2  0
  9  7  1  0
  9 13  1  0
 10 11  1  0
 10  9  1  0
 11 12  1  0
 13 12  1  0
 13 14  1  6
 14 15  2  0
 14 18  1  0
 17 16  1  1
 17 19  1  0
 18 17  1  0
 19 21  1  0
 20 19  2  0
M  END
$$$$
