NPA.pdb
     RDKit          3D

 21 21  0  0  1  0  0  0  0  0999 V2000
   19.9997   -6.8022  -18.3771 N   0  0  0  0  0  0  0  0  0  0  0  0
   19.3365   -7.9190  -17.8038 C   0  0  0  0  0  0  0  0  0  0  0  0
   19.2495   -8.9529  -18.5077 O   0  0  0  0  0  0  0  0  0  0  0  0
   18.7867   -7.8217  -16.4300 C   0  0  0  0  0  0  0  0  0  0  0  0
   19.7018   -8.5437  -15.4473 C   0  0  2  0  0  0  0  0  0  0  0  0
   19.5699   -9.9824  -15.7486 N   0  0  0  0  0  0  0  0  0  0  0  0
   19.3033   -8.2759  -14.0444 C   0  0  0  0  0  0  0  0  0  0  0  0
   18.2765   -8.8705  -13.6614 O   0  0  0  0  0  0  0  0  0  0  0  0
   19.9936   -7.4271  -13.1721 N   0  0  0  0  0  0  0  0  0  0  0  0
   21.5033   -7.5007  -13.1771 C   0  0  0  0  0  0  0  0  0  0  0  0
   21.8516   -6.0515  -13.3599 C   0  0  0  0  0  0  0  0  0  0  0  0
   20.6222   -5.2842  -12.8854 C   0  0  0  0  0  0  0  0  0  0  0  0
   19.8361   -6.4486  -12.2058 C   0  0  1  0  0  0  0  0  0  0  0  0
   18.6779   -5.8868  -11.6334 C   0  0  0  0  0  0  0  0  0  0  0  0
   18.0218   -5.1267  -12.4856 O   0  0  0  0  0  0  0  0  0  0  0  0
   16.0155   -5.8854   -8.9965 C   0  0  0  0  0  0  0  0  0  0  0  0
   16.7279   -5.3541  -10.1843 C   0  0  2  0  0  0  0  0  0  0  0  0
   18.0621   -5.9394  -10.3871 N   0  0  0  0  0  0  0  0  0  0  0  0
   16.8944   -3.8681  -10.0333 C   0  0  0  0  0  0  0  0  0  0  0  0
   18.0556   -3.3986   -9.8904 O   0  0  0  0  0  0  0  0  0  0  0  0
   15.8249   -2.9879  -10.0434 O   0  0  0  0  0  0  0  0  0  0  0  0
  2  1  1  0
  2  3  2  0
  4  2  1  0
  5  4  1  0
  5  6  1  6
  5  7  1  0
  7  8  2  0
  9  7  1  0
  9 13  1  0
 10 11  1  0
 10  9  1  0
 11 12  1  0
 13 12  1  0
 13 14  1  6
 14 15  2  0
 14 18  1  0
 17 16  1  1
 17 19  1  0
 18 17  1  0
 19 21  1  0
 20 19  2  0
M  END
$$$$
