GLS.pdb
     RDKit          3D

 19 18  0  0  1  0  0  0  0  0999 V2000
   31.0429  -37.7097   -6.4081 N   0  0  0  0  0  0  0  0  0  0  0  0
   29.6746  -37.3158   -6.6788 C   0  0  0  0  0  0  0  0  0  0  0  0
   29.2230  -36.4179   -5.5748 C   0  0  0  0  0  0  0  0  0  0  0  0
   29.9938  -36.1713   -4.5985 O   0  0  0  0  0  0  0  0  0  0  0  0
   26.7308  -32.2890   -3.3762 C   0  0  0  0  0  0  0  0  0  0  0  0
   25.6528  -33.2621   -3.8948 C   0  0  1  0  0  0  0  0  0  0  0  0
   24.4793  -32.4548   -4.2561 C   0  0  0  0  0  0  0  0  0  0  0  0
   26.2969  -34.1063   -4.8952 C   0  0  0  0  0  0  0  0  0  0  0  0
   27.3863  -35.0283   -4.5116 C   0  0  2  0  0  0  0  0  0  0  0  0
   27.9315  -35.8235   -5.5907 N   0  0  0  0  0  0  0  0  0  0  0  0
   27.1161  -35.8506   -3.3245 C   0  0  0  0  0  0  0  0  0  0  0  0
   26.4360  -36.8964   -3.4619 O   0  0  0  0  0  0  0  0  0  0  0  0
   29.2430  -37.5583   -0.1007 O   0  0  0  0  0  0  0  0  0  0  0  0
   28.4805  -36.4095    0.1010 C   0  0  0  0  0  0  0  0  0  0  0  0
   27.3324  -36.4302   -0.8739 C   0  0  2  0  0  0  0  0  0  0  0  0
   27.5642  -35.5618   -2.0128 N   0  0  0  0  0  0  0  0  0  0  0  0
   26.0692  -36.0646   -0.1995 C   0  0  0  0  0  0  0  0  0  0  0  0
   25.5447  -36.8308    0.8209 O   0  0  0  0  0  0  0  0  0  0  0  0
   25.4561  -35.0362   -0.5584 O   0  0  0  0  0  0  0  0  0  0  0  0
  2  1  1  0
  2  3  1  0
  3 10  1  0
  3  4  2  0
  6  8  1  0
  6  5  1  6
  7  6  1  0
  9  8  1  6
 10  9  1  0
 11  9  1  0
 11 16  1  0
 12 11  2  0
 13 14  1  0
 15 14  1  1
 15 16  1  0
 17 15  1  0
 18 17  1  0
 19 17  2  0
M  END
$$$$
