GLS.pdb
     RDKit          3D

 19 18  0  0  1  0  0  0  0  0999 V2000
   17.8069  -11.5151  -17.0851 N   0  0  0  0  0  0  0  0  0  0  0  0
   18.4134  -10.3149  -17.6255 C   0  0  0  0  0  0  0  0  0  0  0  0
   19.2184   -9.6740  -16.5437 C   0  0  0  0  0  0  0  0  0  0  0  0
   18.6834   -9.4045  -15.4261 O   0  0  0  0  0  0  0  0  0  0  0  0
   24.4027  -11.0568  -15.0471 C   0  0  0  0  0  0  0  0  0  0  0  0
   22.9108  -10.6785  -14.9509 C   0  0  1  0  0  0  0  0  0  0  0  0
   22.5036  -10.8774  -13.5530 C   0  0  0  0  0  0  0  0  0  0  0  0
   22.7699   -9.3675  -15.5752 C   0  0  0  0  0  0  0  0  0  0  0  0
   21.4367   -8.7494  -15.7320 C   0  0  2  0  0  0  0  0  0  0  0  0
   20.5900   -9.3536  -16.7379 N   0  0  0  0  0  0  0  0  0  0  0  0
   21.4396   -7.2845  -15.8446 C   0  0  0  0  0  0  0  0  0  0  0  0
   21.7863   -6.7678  -16.9346 O   0  0  0  0  0  0  0  0  0  0  0  0
   19.1520   -4.7214  -13.6905 O   0  0  0  0  0  0  0  0  0  0  0  0
   19.7540   -4.3205  -14.8816 C   0  0  0  0  0  0  0  0  0  0  0  0
   21.1243   -4.9425  -14.9482 C   0  0  2  0  0  0  0  0  0  0  0  0
   21.0787   -6.3862  -14.8114 N   0  0  0  0  0  0  0  0  0  0  0  0
   22.0124   -4.3585  -13.9212 C   0  0  0  0  0  0  0  0  0  0  0  0
   22.2947   -3.0083  -13.8908 O   0  0  0  0  0  0  0  0  0  0  0  0
   22.5234   -5.1015  -13.0559 O   0  0  0  0  0  0  0  0  0  0  0  0
  2  1  1  0
  2  3  1  0
  3 10  1  0
  3  4  2  0
  6  8  1  0
  6  5  1  1
  7  6  1  0
  9  8  1  6
 10  9  1  0
 11  9  1  0
 11 16  1  0
 12 11  2  0
 13 14  1  0
 15 14  1  1
 15 16  1  0
 17 15  1  0
 18 17  1  0
 19 17  2  0
M  END
$$$$
