GLS.pdb
     RDKit          3D

 19 18  0  0  1  0  0  0  0  0999 V2000
   20.1295  -20.1914  -14.0372 N   0  0  0  0  0  0  0  0  0  0  0  0
   21.0560  -21.1582  -13.4826 C   0  0  0  0  0  0  0  0  0  0  0  0
   22.4283  -20.5730  -13.5418 C   0  0  0  0  0  0  0  0  0  0  0  0
   22.6009  -19.3973  -13.9844 O   0  0  0  0  0  0  0  0  0  0  0  0
   26.2916  -21.5446   -9.6117 C   0  0  0  0  0  0  0  0  0  0  0  0
   25.2467  -20.9400  -10.5711 C   0  0  1  0  0  0  0  0  0  0  0  0
   24.9891  -19.5655  -10.1195 C   0  0  0  0  0  0  0  0  0  0  0  0
   25.7288  -21.1874  -11.9256 C   0  0  0  0  0  0  0  0  0  0  0  0
   24.9154  -20.7968  -13.0959 C   0  0  2  0  0  0  0  0  0  0  0  0
   23.5630  -21.3116  -13.1080 N   0  0  0  0  0  0  0  0  0  0  0  0
   25.5700  -20.9816  -14.3981 C   0  0  0  0  0  0  0  0  0  0  0  0
   25.3898  -22.0616  -15.0116 O   0  0  0  0  0  0  0  0  0  0  0  0
   26.7864  -18.1161  -17.0612 O   0  0  0  0  0  0  0  0  0  0  0  0
   27.7868  -19.0536  -16.8120 C   0  0  0  0  0  0  0  0  0  0  0  0
   27.1396  -20.2951  -16.2564 C   0  0  2  0  0  0  0  0  0  0  0  0
   26.4028  -20.0300  -15.0349 N   0  0  0  0  0  0  0  0  0  0  0  0
   28.1481  -21.3509  -16.0275 C   0  0  0  0  0  0  0  0  0  0  0  0
   28.7925  -21.9763  -17.0749 O   0  0  0  0  0  0  0  0  0  0  0  0
   28.4284  -21.6900  -14.8576 O   0  0  0  0  0  0  0  0  0  0  0  0
  2  1  1  0
  2  3  1  0
  3 10  1  0
  3  4  2  0
  6  8  1  0
  6  5  1  1
  7  6  1  0
  9  8  1  1
 10  9  1  0
 11  9  1  0
 11 16  1  0
 12 11  2  0
 13 14  1  0
 15 14  1  1
 15 16  1  0
 17 15  1  0
 18 17  1  0
 19 17  2  0
M  END
$$$$
