GLS.pdb
     RDKit          3D

 19 18  0  0  1  0  0  0  0  0999 V2000
   29.9385  -27.0000   11.7495 N   0  0  0  0  0  0  0  0  0  0  0  0
   29.4363  -25.6425   11.8239 C   0  0  0  0  0  0  0  0  0  0  0  0
   30.4768  -24.7311   11.2622 C   0  0  0  0  0  0  0  0  0  0  0  0
   31.6935  -25.0881   11.2435 O   0  0  0  0  0  0  0  0  0  0  0  0
   32.3322  -21.1433    7.6548 C   0  0  0  0  0  0  0  0  0  0  0  0
   31.3708  -20.4895    8.6678 C   0  0  1  0  0  0  0  0  0  0  0  0
   30.7496  -19.3403    7.9947 C   0  0  0  0  0  0  0  0  0  0  0  0
   30.5388  -21.5598    9.2068 C   0  0  0  0  0  0  0  0  0  0  0  0
   31.0867  -22.5120   10.1953 C   0  0  2  0  0  0  0  0  0  0  0  0
   30.1330  -23.4541   10.7402 N   0  0  0  0  0  0  0  0  0  0  0  0
   31.9057  -21.9067   11.2543 C   0  0  0  0  0  0  0  0  0  0  0  0
   31.3245  -21.3412   12.2122 O   0  0  0  0  0  0  0  0  0  0  0  0
   36.0128  -22.5016   11.6854 O   0  0  0  0  0  0  0  0  0  0  0  0
   35.2290  -22.2208   12.8028 C   0  0  0  0  0  0  0  0  0  0  0  0
   34.0976  -21.3253   12.3703 C   0  0  2  0  0  0  0  0  0  0  0  0
   33.3211  -21.9051   11.2905 N   0  0  0  0  0  0  0  0  0  0  0  0
   34.6069  -19.9945   11.9778 C   0  0  0  0  0  0  0  0  0  0  0  0
   35.3162  -19.2023   12.8568 O   0  0  0  0  0  0  0  0  0  0  0  0
   34.3927  -19.5708   10.8216 O   0  0  0  0  0  0  0  0  0  0  0  0
  2  1  1  0
  2  3  1  0
  3 10  1  0
  3  4  2  0
  6  8  1  0
  6  5  1  6
  7  6  1  0
  9  8  1  1
 10  9  1  0
 11  9  1  0
 11 16  1  0
 12 11  2  0
 13 14  1  0
 15 14  1  6
 15 16  1  0
 17 15  1  0
 18 17  1  0
 19 17  2  0
M  END
$$$$
