GLS.pdb
     RDKit          3D

 19 18  0  0  1  0  0  0  0  0999 V2000
   19.3816  -13.3039  -18.8333 N   0  0  0  0  0  0  0  0  0  0  0  0
   20.2680  -12.2460  -19.2758 C   0  0  0  0  0  0  0  0  0  0  0  0
   20.8558  -11.5968  -18.0667 C   0  0  0  0  0  0  0  0  0  0  0  0
   20.1544  -11.4433  -17.0215 O   0  0  0  0  0  0  0  0  0  0  0  0
   24.4193  -10.5201  -14.3807 C   0  0  0  0  0  0  0  0  0  0  0  0
   24.9715   -9.9501  -15.7029 C   0  0  1  0  0  0  0  0  0  0  0  0
   26.4369  -10.0325  -15.6307 C   0  0  0  0  0  0  0  0  0  0  0  0
   24.2527  -10.6207  -16.7809 C   0  0  0  0  0  0  0  0  0  0  0  0
   22.8041  -10.3981  -16.9704 C   0  0  2  0  0  0  0  0  0  0  0  0
   22.2020  -11.1395  -18.0575 N   0  0  0  0  0  0  0  0  0  0  0  0
   22.3885   -8.9890  -16.9888 C   0  0  0  0  0  0  0  0  0  0  0  0
   22.7166   -8.2802  -17.9713 O   0  0  0  0  0  0  0  0  0  0  0  0
   19.0248   -7.5335  -16.8552 O   0  0  0  0  0  0  0  0  0  0  0  0
   19.6847   -6.8644  -15.8264 C   0  0  0  0  0  0  0  0  0  0  0  0
   21.1673   -6.9770  -16.0676 C   0  0  2  0  0  0  0  0  0  0  0  0
   21.6355   -8.3472  -15.9761 N   0  0  0  0  0  0  0  0  0  0  0  0
   21.9153   -6.1162  -15.1275 C   0  0  0  0  0  0  0  0  0  0  0  0
   21.7036   -4.7542  -15.0675 O   0  0  0  0  0  0  0  0  0  0  0  0
   22.7625   -6.6294  -14.3652 O   0  0  0  0  0  0  0  0  0  0  0  0
  2  1  1  0
  2  3  1  0
  3 10  1  0
  3  4  2  0
  6  8  1  0
  6  5  1  1
  7  6  1  0
  9  8  1  6
 10  9  1  0
 11  9  1  0
 11 16  1  0
 12 11  2  0
 13 14  1  0
 15 14  1  1
 15 16  1  0
 17 15  1  0
 18 17  1  0
 19 17  2  0
M  END
$$$$
