SWF.pdb
     RDKit          3D

 32 34  0  0  1  0  0  0  0  0999 V2000
   10.2011  -17.8654   19.8803 O   0  0  0  0  0  0  0  0  0  0  0  0
    9.6096  -16.8362   19.1826 C   0  0  0  0  0  0  0  0  0  0  0  0
    8.3868  -16.3447   19.8832 C   0  0  2  0  0  0  0  0  0  0  0  0
    7.6649  -15.3225   19.1959 N   0  0  0  0  0  0  0  0  0  0  0  0
    8.8083  -15.8197   21.2239 C   0  0  0  0  0  0  0  0  0  0  0  0
    9.3816  -14.7057   21.2372 O   0  0  0  0  0  0  0  0  0  0  0  0
    8.5652  -16.5508   22.3853 N   0  0  0  0  0  0  0  0  0  0  0  0
    8.9499  -15.9772   23.6891 C   0  0  1  0  0  0  0  0  0  0  0  0
    7.9122  -16.3944   24.6612 C   0  0  0  0  0  0  0  0  0  0  0  0
    6.9325  -15.4001   25.0786 C   0  0  0  0  0  0  0  0  0  0  0  0
    5.5886  -15.5588   25.3394 C   0  0  0  0  0  0  0  0  0  0  0  0
    5.0480  -14.3731   25.6729 N   0  0  0  0  0  0  0  0  0  0  0  0
    6.0321  -13.4499   25.6297 C   0  0  0  0  0  0  0  0  0  0  0  0
    6.0080  -12.0949   25.8845 C   0  0  0  0  0  0  0  0  0  0  0  0
    7.1442  -11.3353   25.7801 C   0  0  0  0  0  0  0  0  0  0  0  0
    8.3342  -11.9341   25.4138 C   0  0  0  0  0  0  0  0  0  0  0  0
    8.3500  -13.2840   25.1618 C   0  0  0  0  0  0  0  0  0  0  0  0
    7.1952  -14.0605   25.2671 C   0  0  0  0  0  0  0  0  0  0  0  0
   10.2680  -16.5827   24.0210 C   0  0  0  0  0  0  0  0  0  0  0  0
   10.6502  -17.6522   23.4145 O   0  0  0  0  0  0  0  0  0  0  0  0
   11.1684  -16.0536   24.9811 N   0  0  0  0  0  0  0  0  0  0  0  0
   12.3240  -16.8688   25.3749 C   0  0  1  0  0  0  0  0  0  0  0  0
   13.1735  -16.0369   26.3491 C   0  0  0  0  0  0  0  0  0  0  0  0
   12.2827  -15.4028   27.3320 C   0  0  0  0  0  0  0  0  0  0  0  0
   12.0607  -15.9985   28.5771 C   0  0  0  0  0  0  0  0  0  0  0  0
   11.2612  -15.4123   29.5271 C   0  0  0  0  0  0  0  0  0  0  0  0
   10.6410  -14.2015   29.2856 C   0  0  0  0  0  0  0  0  0  0  0  0
   10.8590  -13.6046   28.0473 C   0  0  0  0  0  0  0  0  0  0  0  0
   11.6594  -14.1914   27.0969 C   0  0  0  0  0  0  0  0  0  0  0  0
   11.9195  -18.0959   26.0758 C   0  0  0  0  0  0  0  0  0  0  0  0
   10.7389  -18.3027   26.4106 O   0  0  0  0  0  0  0  0  0  0  0  0
   12.8668  -19.0485   26.3731 O   0  0  0  0  0  0  0  0  0  0  0  0
  1  2  1  0
  3  2  1  0
  3  4  1  6
  5  6  2  0
  5  3  1  0
  7  5  1  0
  8  7  1  0
  8  9  1  1
 10  9  1  0
 11 10  2  0
 12 13  1  0
 12 11  1  0
 13 18  2  0
 14 13  1  0
 14 15  2  0
 15 16  1  0
 16 17  2  0
 18 10  1  0
 18 17  1  0
 19  8  1  0
 19 21  1  0
 20 19  2  0
 22 21  1  0
 22 30  1  0
 22 23  1  1
 24 23  1  0
 25 24  2  0
 26 25  1  0
 27 26  2  0
 27 28  1  0
 28 29  2  0
 29 24  1  0
 30 31  2  0
 30 32  1  0
M  END
$$$$
