SWF.pdb
     RDKit          3D

 32 34  0  0  1  0  0  0  0  0999 V2000
   11.8835  -18.1242   19.6018 O   0  0  0  0  0  0  0  0  0  0  0  0
   10.5368  -18.3999   19.5220 C   0  0  0  0  0  0  0  0  0  0  0  0
    9.7412  -17.1490   19.3494 C   0  0  2  0  0  0  0  0  0  0  0  0
   10.2718  -16.2195   18.4044 N   0  0  0  0  0  0  0  0  0  0  0  0
    9.6496  -16.4773   20.6878 C   0  0  0  0  0  0  0  0  0  0  0  0
   10.3683  -15.4655   20.8600 O   0  0  0  0  0  0  0  0  0  0  0  0
    8.8011  -16.9706   21.6773 N   0  0  0  0  0  0  0  0  0  0  0  0
    8.7729  -16.3081   22.9954 C   0  0  1  0  0  0  0  0  0  0  0  0
    7.5417  -16.7698   23.6783 C   0  0  0  0  0  0  0  0  0  0  0  0
    6.9210  -15.8708   24.6424 C   0  0  0  0  0  0  0  0  0  0  0  0
    5.8807  -16.1128   25.5133 C   0  0  0  0  0  0  0  0  0  0  0  0
    5.6038  -14.9965   26.2107 N   0  0  0  0  0  0  0  0  0  0  0  0
    6.4571  -14.0354   25.7972 C   0  0  0  0  0  0  0  0  0  0  0  0
    6.5930  -12.7211   26.1915 C   0  0  0  0  0  0  0  0  0  0  0  0
    7.5442  -11.9091   25.6305 C   0  0  0  0  0  0  0  0  0  0  0  0
    8.3817  -12.4130   24.6538 C   0  0  0  0  0  0  0  0  0  0  0  0
    8.2399  -13.7230   24.2666 C   0  0  0  0  0  0  0  0  0  0  0  0
    7.2726  -14.5525   24.8357 C   0  0  0  0  0  0  0  0  0  0  0  0
    9.9899  -16.7815   23.7088 C   0  0  0  0  0  0  0  0  0  0  0  0
   10.4705  -17.9469   23.4472 O   0  0  0  0  0  0  0  0  0  0  0  0
   10.6879  -16.0224   24.6830 N   0  0  0  0  0  0  0  0  0  0  0  0
   11.8321  -16.6439   25.3609 C   0  0  1  0  0  0  0  0  0  0  0  0
   12.5034  -15.5672   26.2286 C   0  0  0  0  0  0  0  0  0  0  0  0
   11.4930  -14.9794   27.1204 C   0  0  0  0  0  0  0  0  0  0  0  0
   11.2686  -15.5173   28.3911 C   0  0  0  0  0  0  0  0  0  0  0  0
   10.3560  -14.9686   29.2579 C   0  0  0  0  0  0  0  0  0  0  0  0
    9.6191  -13.8549   28.9033 C   0  0  0  0  0  0  0  0  0  0  0  0
    9.8390  -13.3159   27.6391 C   0  0  0  0  0  0  0  0  0  0  0  0
   10.7526  -13.8651   26.7719 C   0  0  0  0  0  0  0  0  0  0  0  0
   11.4174  -17.7366   26.2523 C   0  0  0  0  0  0  0  0  0  0  0  0
   10.2185  -17.9782   26.4821 O   0  0  0  0  0  0  0  0  0  0  0  0
   12.3759  -18.5202   26.8528 O   0  0  0  0  0  0  0  0  0  0  0  0
  1  2  1  0
  3  2  1  0
  3  4  1  6
  5  6  2  0
  5  3  1  0
  7  5  1  0
  8  7  1  0
  8  9  1  1
 10  9  1  0
 11 10  2  0
 12 13  1  0
 12 11  1  0
 13 18  2  0
 14 13  1  0
 14 15  2  0
 15 16  1  0
 16 17  2  0
 18 10  1  0
 18 17  1  0
 19  8  1  0
 19 21  1  0
 20 19  2  0
 22 21  1  0
 22 30  1  0
 22 23  1  1
 24 23  1  0
 25 24  2  0
 26 25  1  0
 27 26  2  0
 27 28  1  0
 28 29  2  0
 29 24  1  0
 30 31  2  0
 30 32  1  0
M  END
$$$$
