SWF.pdb
     RDKit          3D

 32 34  0  0  1  0  0  0  0  0999 V2000
   11.6029  -18.6514   20.1283 O   0  0  0  0  0  0  0  0  0  0  0  0
   11.3486  -17.6940   19.1720 C   0  0  0  0  0  0  0  0  0  0  0  0
    9.9440  -17.1983   19.2676 C   0  0  2  0  0  0  0  0  0  0  0  0
    9.5451  -16.3048   18.2279 N   0  0  0  0  0  0  0  0  0  0  0  0
    9.7945  -16.5006   20.5873 C   0  0  0  0  0  0  0  0  0  0  0  0
   10.2661  -15.3426   20.6682 O   0  0  0  0  0  0  0  0  0  0  0  0
    9.1595  -17.1272   21.6580 N   0  0  0  0  0  0  0  0  0  0  0  0
    8.9655  -16.3799   22.9155 C   0  0  1  0  0  0  0  0  0  0  0  0
    7.7160  -16.8908   23.5265 C   0  0  0  0  0  0  0  0  0  0  0  0
    6.9771  -15.9988   24.4104 C   0  0  0  0  0  0  0  0  0  0  0  0
    5.9705  -16.2963   25.3034 C   0  0  0  0  0  0  0  0  0  0  0  0
    5.5463  -15.1685   25.9012 N   0  0  0  0  0  0  0  0  0  0  0  0
    6.2710  -14.1449   25.4013 C   0  0  0  0  0  0  0  0  0  0  0  0
    6.2328  -12.7946   25.6781 C   0  0  0  0  0  0  0  0  0  0  0  0
    7.0750  -11.9186   25.0439 C   0  0  0  0  0  0  0  0  0  0  0  0
    7.9778  -12.3933   24.1118 C   0  0  0  0  0  0  0  0  0  0  0  0
    8.0096  -13.7395   23.8419 C   0  0  0  0  0  0  0  0  0  0  0  0
    7.1537  -14.6342   24.4857 C   0  0  0  0  0  0  0  0  0  0  0  0
   10.1459  -16.7040   23.7614 C   0  0  0  0  0  0  0  0  0  0  0  0
   10.7036  -17.8604   23.6632 O   0  0  0  0  0  0  0  0  0  0  0  0
   10.7273  -15.8075   24.6945 N   0  0  0  0  0  0  0  0  0  0  0  0
   11.9118  -16.2504   25.4401 C   0  0  1  0  0  0  0  0  0  0  0  0
   12.3631  -15.0861   26.3365 C   0  0  0  0  0  0  0  0  0  0  0  0
   11.3170  -14.8247   27.3361 C   0  0  0  0  0  0  0  0  0  0  0  0
   10.3226  -13.8732   27.0907 C   0  0  0  0  0  0  0  0  0  0  0  0
    9.3142  -13.6324   27.9909 C   0  0  0  0  0  0  0  0  0  0  0  0
    9.2442  -14.3274   29.1830 C   0  0  0  0  0  0  0  0  0  0  0  0
   10.2322  -15.2758   29.4317 C   0  0  0  0  0  0  0  0  0  0  0  0
   11.2411  -15.5167   28.5305 C   0  0  0  0  0  0  0  0  0  0  0  0
   11.6164  -17.3945   26.3145 C   0  0  0  0  0  0  0  0  0  0  0  0
   12.5068  -17.9724   26.9639 O   0  0  0  0  0  0  0  0  0  0  0  0
   10.3209  -17.8448   26.4245 O   0  0  0  0  0  0  0  0  0  0  0  0
  1  2  1  0
  3  2  1  0
  3  4  1  6
  5  6  2  0
  5  3  1  0
  7  5  1  0
  8  7  1  0
  8  9  1  1
 10  9  1  0
 11 10  2  0
 12 13  1  0
 12 11  1  0
 13 18  2  0
 14 13  1  0
 14 15  2  0
 15 16  1  0
 16 17  2  0
 18 10  1  0
 18 17  1  0
 19  8  1  0
 19 21  1  0
 20 19  2  0
 22 21  1  0
 22 30  1  0
 22 23  1  1
 24 23  1  0
 25 24  2  0
 26 25  1  0
 27 26  2  0
 27 28  1  0
 28 29  2  0
 29 24  1  0
 30 31  2  0
 30 32  1  0
M  END
$$$$
