SWF.pdb
     RDKit          3D

 32 34  0  0  1  0  0  0  0  0999 V2000
   11.7470  -18.3531   19.8978 O   0  0  0  0  0  0  0  0  0  0  0  0
   10.4122  -18.6139   19.6836 C   0  0  0  0  0  0  0  0  0  0  0  0
    9.6498  -17.3534   19.4437 C   0  0  2  0  0  0  0  0  0  0  0  0
   10.2030  -16.4910   18.4494 N   0  0  0  0  0  0  0  0  0  0  0  0
    9.5789  -16.6079   20.7438 C   0  0  0  0  0  0  0  0  0  0  0  0
   10.2404  -15.5466   20.8206 O   0  0  0  0  0  0  0  0  0  0  0  0
    8.8097  -17.0893   21.8015 N   0  0  0  0  0  0  0  0  0  0  0  0
    8.7993  -16.3488   23.0777 C   0  0  1  0  0  0  0  0  0  0  0  0
    7.5927  -16.7894   23.8164 C   0  0  0  0  0  0  0  0  0  0  0  0
    6.8753  -15.7941   24.6022 C   0  0  0  0  0  0  0  0  0  0  0  0
    5.7242  -15.9376   25.3463 C   0  0  0  0  0  0  0  0  0  0  0  0
    5.3880  -14.7562   25.8944 N   0  0  0  0  0  0  0  0  0  0  0  0
    6.3128  -13.8507   25.5102 C   0  0  0  0  0  0  0  0  0  0  0  0
    6.4305  -12.5068   25.7954 C   0  0  0  0  0  0  0  0  0  0  0  0
    7.4678  -11.7652   25.2924 C   0  0  0  0  0  0  0  0  0  0  0  0
    8.4120  -12.3714   24.4862 C   0  0  0  0  0  0  0  0  0  0  0  0
    8.2878  -13.7102   24.2069 C   0  0  0  0  0  0  0  0  0  0  0  0
    7.2331  -14.4683   24.7173 C   0  0  0  0  0  0  0  0  0  0  0  0
   10.0408  -16.7571   23.7890 C   0  0  0  0  0  0  0  0  0  0  0  0
   10.5832  -17.8946   23.5250 O   0  0  0  0  0  0  0  0  0  0  0  0
   10.6981  -15.9631   24.7636 N   0  0  0  0  0  0  0  0  0  0  0  0
   11.9231  -16.4885   25.3786 C   0  0  1  0  0  0  0  0  0  0  0  0
   12.4956  -15.3928   26.2921 C   0  0  0  0  0  0  0  0  0  0  0  0
   11.4692  -15.0092   27.2724 C   0  0  0  0  0  0  0  0  0  0  0  0
   10.5661  -13.9803   26.9889 C   0  0  0  0  0  0  0  0  0  0  0  0
    9.5761  -13.6236   27.8709 C   0  0  0  0  0  0  0  0  0  0  0  0
    9.4345  -14.2737   29.0818 C   0  0  0  0  0  0  0  0  0  0  0  0
   10.3314  -15.2987   29.3685 C   0  0  0  0  0  0  0  0  0  0  0  0
   11.3219  -15.6557   28.4855 C   0  0  0  0  0  0  0  0  0  0  0  0
   11.6579  -17.6684   26.2141 C   0  0  0  0  0  0  0  0  0  0  0  0
   10.5020  -18.0797   26.4225 O   0  0  0  0  0  0  0  0  0  0  0  0
   12.7121  -18.3438   26.7848 O   0  0  0  0  0  0  0  0  0  0  0  0
  1  2  1  0
  3  2  1  0
  3  4  1  6
  5  6  2  0
  5  3  1  0
  7  5  1  0
  8  7  1  0
  8  9  1  1
 10  9  1  0
 11 10  2  0
 12 13  1  0
 12 11  1  0
 13 18  2  0
 14 13  1  0
 14 15  2  0
 15 16  1  0
 16 17  2  0
 18 10  1  0
 18 17  1  0
 19  8  1  0
 19 21  1  0
 20 19  2  0
 22 21  1  0
 22 30  1  0
 22 23  1  1
 24 23  1  0
 25 24  2  0
 26 25  1  0
 27 26  2  0
 27 28  1  0
 28 29  2  0
 29 24  1  0
 30 31  2  0
 30 32  1  0
M  END
$$$$
