SWF.pdb
     RDKit          3D

 32 34  0  0  1  0  0  0  0  0999 V2000
   12.5011  -19.6437   21.3339 O   0  0  0  0  0  0  0  0  0  0  0  0
   12.7213  -18.6592   20.3969 C   0  0  0  0  0  0  0  0  0  0  0  0
   11.4502  -17.9634   20.0393 C   0  0  2  0  0  0  0  0  0  0  0  0
   11.5319  -17.0972   18.9072 N   0  0  0  0  0  0  0  0  0  0  0  0
   11.0178  -17.1608   21.2308 C   0  0  0  0  0  0  0  0  0  0  0  0
   11.6040  -16.0691   21.4167 O   0  0  0  0  0  0  0  0  0  0  0  0
   10.0122  -17.6246   22.0769 N   0  0  0  0  0  0  0  0  0  0  0  0
    9.5528  -16.7656   23.1852 C   0  0  1  0  0  0  0  0  0  0  0  0
    8.0747  -16.8653   23.2173 C   0  0  0  0  0  0  0  0  0  0  0  0
    7.3209  -16.1157   22.2211 C   0  0  0  0  0  0  0  0  0  0  0  0
    6.2311  -16.5111   21.4757 C   0  0  0  0  0  0  0  0  0  0  0  0
    5.8586  -15.5145   20.6528 N   0  0  0  0  0  0  0  0  0  0  0  0
    6.6990  -14.4785   20.8608 C   0  0  0  0  0  0  0  0  0  0  0  0
    6.7497  -13.2290   20.2798 C   0  0  0  0  0  0  0  0  0  0  0  0
    7.7026  -12.3155   20.6489 C   0  0  0  0  0  0  0  0  0  0  0  0
    8.6287  -12.6493   21.6184 C   0  0  0  0  0  0  0  0  0  0  0  0
    8.5716  -13.8956   22.1923 C   0  0  0  0  0  0  0  0  0  0  0  0
    7.6027  -14.8282   21.8190 C   0  0  0  0  0  0  0  0  0  0  0  0
   10.1548  -17.3435   24.4172 C   0  0  0  0  0  0  0  0  0  0  0  0
   10.6387  -18.5364   24.3923 O   0  0  0  0  0  0  0  0  0  0  0  0
   10.2448  -16.6588   25.6563 N   0  0  0  0  0  0  0  0  0  0  0  0
   11.0922  -17.2328   26.7087 C   0  0  1  0  0  0  0  0  0  0  0  0
   11.9384  -16.0946   27.3012 C   0  0  0  0  0  0  0  0  0  0  0  0
   11.0407  -15.0165   27.7412 C   0  0  0  0  0  0  0  0  0  0  0  0
   10.4070  -14.1939   26.8051 C   0  0  0  0  0  0  0  0  0  0  0  0
    9.5375  -13.2017   27.1855 C   0  0  0  0  0  0  0  0  0  0  0  0
    9.2542  -12.9773   28.5191 C   0  0  0  0  0  0  0  0  0  0  0  0
    9.8828  -13.7937   29.4548 C   0  0  0  0  0  0  0  0  0  0  0  0
   10.7527  -14.7869   29.0738 C   0  0  0  0  0  0  0  0  0  0  0  0
   10.2976  -17.8101   27.8022 C   0  0  0  0  0  0  0  0  0  0  0  0
    9.0551  -17.7422   27.8187 O   0  0  0  0  0  0  0  0  0  0  0  0
   10.9380  -18.4464   28.8407 O   0  0  0  0  0  0  0  0  0  0  0  0
  1  2  1  0
  3  2  1  0
  3  4  1  6
  5  6  2  0
  5  3  1  0
  7  5  1  0
  8  7  1  0
  8  9  1  1
 10  9  1  0
 11 10  2  0
 12 13  1  0
 12 11  1  0
 13 18  2  0
 14 13  1  0
 14 15  2  0
 15 16  1  0
 16 17  2  0
 18 10  1  0
 18 17  1  0
 19  8  1  0
 19 21  1  0
 20 19  2  0
 22 21  1  0
 22 30  1  0
 22 23  1  1
 24 23  1  0
 25 24  2  0
 26 25  1  0
 27 26  2  0
 27 28  1  0
 28 29  2  0
 29 24  1  0
 30 31  2  0
 30 32  1  0
M  END
$$$$
