SWF.pdb
     RDKit          3D

 32 34  0  0  1  0  0  0  0  0999 V2000
   10.4231  -18.4890   19.9222 O   0  0  0  0  0  0  0  0  0  0  0  0
    9.1397  -18.4627   20.4203 C   0  0  0  0  0  0  0  0  0  0  0  0
    8.6003  -17.0712   20.4435 C   0  0  2  0  0  0  0  0  0  0  0  0
    8.8652  -16.2995   19.2718 N   0  0  0  0  0  0  0  0  0  0  0  0
    9.1963  -16.3699   21.6283 C   0  0  0  0  0  0  0  0  0  0  0  0
   10.1485  -15.5884   21.3993 O   0  0  0  0  0  0  0  0  0  0  0  0
    8.7008  -16.5908   22.9121 N   0  0  0  0  0  0  0  0  0  0  0  0
    9.4009  -15.9930   24.0651 C   0  0  1  0  0  0  0  0  0  0  0  0
    8.5261  -16.1914   25.2446 C   0  0  0  0  0  0  0  0  0  0  0  0
    7.3134  -15.3889   25.3344 C   0  0  0  0  0  0  0  0  0  0  0  0
    5.9970  -15.7910   25.2670 C   0  0  0  0  0  0  0  0  0  0  0  0
    5.1896  -14.7202   25.3700 N   0  0  0  0  0  0  0  0  0  0  0  0
    5.9741  -13.6295   25.5033 C   0  0  0  0  0  0  0  0  0  0  0  0
    5.6481  -12.2972   25.6451 C   0  0  0  0  0  0  0  0  0  0  0  0
    6.6216  -11.3401   25.7687 C   0  0  0  0  0  0  0  0  0  0  0  0
    7.9517  -11.7134   25.7513 C   0  0  0  0  0  0  0  0  0  0  0  0
    8.2682  -13.0423   25.6098 C   0  0  0  0  0  0  0  0  0  0  0  0
    7.2797  -14.0194   25.4838 C   0  0  0  0  0  0  0  0  0  0  0  0
   10.6695  -16.7579   24.2054 C   0  0  0  0  0  0  0  0  0  0  0  0
   11.5476  -16.7161   23.2646 O   0  0  0  0  0  0  0  0  0  0  0  0
   11.0004  -17.5517   25.3336 N   0  0  0  0  0  0  0  0  0  0  0  0
   12.3949  -17.5627   25.7920 C   0  0  1  0  0  0  0  0  0  0  0  0
   12.7929  -16.1136   26.1152 C   0  0  0  0  0  0  0  0  0  0  0  0
   11.8484  -15.5720   27.1033 C   0  0  0  0  0  0  0  0  0  0  0  0
   11.1085  -14.4199   26.8210 C   0  0  0  0  0  0  0  0  0  0  0  0
   10.1948  -13.9111   27.7107 C   0  0  0  0  0  0  0  0  0  0  0  0
    9.9707  -14.5241   28.9284 C   0  0  0  0  0  0  0  0  0  0  0  0
   10.7051  -15.6714   29.2140 C   0  0  0  0  0  0  0  0  0  0  0  0
   11.6193  -16.1805   28.3234 C   0  0  0  0  0  0  0  0  0  0  0  0
   12.5652  -18.3535   27.0192 C   0  0  0  0  0  0  0  0  0  0  0  0
   13.6769  -18.4965   27.5600 O   0  0  0  0  0  0  0  0  0  0  0  0
   11.4692  -18.9553   27.5935 O   0  0  0  0  0  0  0  0  0  0  0  0
  1  2  1  0
  3  2  1  0
  3  4  1  6
  5  6  2  0
  5  3  1  0
  7  5  1  0
  8  7  1  0
  8  9  1  1
 10  9  1  0
 11 10  2  0
 12 13  1  0
 12 11  1  0
 13 18  2  0
 14 13  1  0
 14 15  2  0
 15 16  1  0
 16 17  2  0
 18 10  1  0
 18 17  1  0
 19  8  1  0
 19 21  1  0
 20 19  2  0
 22 21  1  0
 22 30  1  0
 22 23  1  1
 24 23  1  0
 25 24  2  0
 26 25  1  0
 27 26  2  0
 27 28  1  0
 28 29  2  0
 29 24  1  0
 30 31  2  0
 30 32  1  0
M  END
$$$$
