SWF.pdb
     RDKit          3D

 32 34  0  0  1  0  0  0  0  0999 V2000
   10.5443  -21.2347   23.2331 O   0  0  0  0  0  0  0  0  0  0  0  0
    9.1895  -21.3341   23.0083 C   0  0  0  0  0  0  0  0  0  0  0  0
    8.7750  -20.4981   21.8434 C   0  0  2  0  0  0  0  0  0  0  0  0
    9.2987  -20.9148   20.5822 N   0  0  0  0  0  0  0  0  0  0  0  0
    9.2206  -19.0904   22.1097 C   0  0  0  0  0  0  0  0  0  0  0  0
   10.2059  -18.6786   21.4545 O   0  0  0  0  0  0  0  0  0  0  0  0
    8.5577  -18.2967   23.0440 N   0  0  0  0  0  0  0  0  0  0  0  0
    8.9024  -16.8656   23.1445 C   0  0  1  0  0  0  0  0  0  0  0  0
    7.7121  -16.1783   23.6980 C   0  0  0  0  0  0  0  0  0  0  0  0
    7.6914  -14.7218   23.6654 C   0  0  0  0  0  0  0  0  0  0  0  0
    8.1165  -13.8677   22.6708 C   0  0  0  0  0  0  0  0  0  0  0  0
    7.9392  -12.5928   23.0612 N   0  0  0  0  0  0  0  0  0  0  0  0
    7.4030  -12.6167   24.3001 C   0  0  0  0  0  0  0  0  0  0  0  0
    7.0307  -11.5888   25.1405 C   0  0  0  0  0  0  0  0  0  0  0  0
    6.4956  -11.8443   26.3763 C   0  0  0  0  0  0  0  0  0  0  0  0
    6.3254  -13.1518   26.7893 C   0  0  0  0  0  0  0  0  0  0  0  0
    6.6986  -14.1698   25.9465 C   0  0  0  0  0  0  0  0  0  0  0  0
    7.2436  -13.9134   24.6876 C   0  0  0  0  0  0  0  0  0  0  0  0
   10.0491  -16.7941   24.0900 C   0  0  0  0  0  0  0  0  0  0  0  0
   10.9768  -15.9210   23.9036 O   0  0  0  0  0  0  0  0  0  0  0  0
   10.2029  -17.6370   25.2206 N   0  0  0  0  0  0  0  0  0  0  0  0
   11.4006  -17.4727   26.0535 C   0  0  1  0  0  0  0  0  0  0  0  0
   10.9445  -17.3972   27.5195 C   0  0  0  0  0  0  0  0  0  0  0  0
   10.3736  -16.0657   27.7701 C   0  0  0  0  0  0  0  0  0  0  0  0
    9.2184  -15.9230   28.5445 C   0  0  0  0  0  0  0  0  0  0  0  0
    8.6824  -14.6900   28.8233 C   0  0  0  0  0  0  0  0  0  0  0  0
    9.2698  -13.5347   28.3447 C   0  0  0  0  0  0  0  0  0  0  0  0
   10.4201  -13.6718   27.5732 C   0  0  0  0  0  0  0  0  0  0  0  0
   10.9564  -14.9059   27.2946 C   0  0  0  0  0  0  0  0  0  0  0  0
   12.3169  -18.6156   25.9325 C   0  0  0  0  0  0  0  0  0  0  0  0
   13.4107  -18.6467   26.5252 O   0  0  0  0  0  0  0  0  0  0  0  0
   11.9622  -19.6863   25.1442 O   0  0  0  0  0  0  0  0  0  0  0  0
  1  2  1  0
  3  2  1  0
  3  4  1  6
  5  6  2  0
  5  3  1  0
  7  5  1  0
  8  7  1  0
  8  9  1  1
 10  9  1  0
 11 10  2  0
 12 13  1  0
 12 11  1  0
 13 18  2  0
 14 13  1  0
 14 15  2  0
 15 16  1  0
 16 17  2  0
 18 10  1  0
 18 17  1  0
 19  8  1  0
 19 21  1  0
 20 19  2  0
 22 21  1  0
 22 30  1  0
 22 23  1  1
 24 23  1  0
 25 24  2  0
 26 25  1  0
 27 26  2  0
 27 28  1  0
 28 29  2  0
 29 24  1  0
 30 31  2  0
 30 32  1  0
M  END
$$$$
