SWF.pdb
     RDKit          3D

 32 34  0  0  1  0  0  0  0  0999 V2000
    6.8195  -17.7100   18.4996 O   0  0  0  0  0  0  0  0  0  0  0  0
    7.1236  -18.9558   19.0009 C   0  0  0  0  0  0  0  0  0  0  0  0
    7.3095  -18.9091   20.4811 C   0  0  2  0  0  0  0  0  0  0  0  0
    6.1388  -18.5780   21.2282 N   0  0  0  0  0  0  0  0  0  0  0  0
    8.3737  -17.8935   20.7761 C   0  0  0  0  0  0  0  0  0  0  0  0
    9.4340  -17.9810   20.1143 O   0  0  0  0  0  0  0  0  0  0  0  0
    8.1730  -16.9097   21.7426 N   0  0  0  0  0  0  0  0  0  0  0  0
    9.2635  -15.9611   22.0395 C   0  0  1  0  0  0  0  0  0  0  0  0
    8.6343  -14.7647   22.6464 C   0  0  0  0  0  0  0  0  0  0  0  0
    7.7509  -14.9659   23.7874 C   0  0  0  0  0  0  0  0  0  0  0  0
    7.2070  -16.1362   24.2710 C   0  0  0  0  0  0  0  0  0  0  0  0
    6.4242  -15.8685   25.3315 N   0  0  0  0  0  0  0  0  0  0  0  0
    6.4581  -14.5345   25.5368 C   0  0  0  0  0  0  0  0  0  0  0  0
    5.8363  -13.7534   26.4878 C   0  0  0  0  0  0  0  0  0  0  0  0
    6.0147  -12.3945   26.5138 C   0  0  0  0  0  0  0  0  0  0  0  0
    6.8301  -11.7951   25.5731 C   0  0  0  0  0  0  0  0  0  0  0  0
    7.4458  -12.5801   24.6292 C   0  0  0  0  0  0  0  0  0  0  0  0
    7.2665  -13.9638   24.5998 C   0  0  0  0  0  0  0  0  0  0  0  0
   10.1449  -16.6556   23.0166 C   0  0  0  0  0  0  0  0  0  0  0  0
    9.8418  -17.8400   23.4205 O   0  0  0  0  0  0  0  0  0  0  0  0
   11.3349  -16.0989   23.5518 N   0  0  0  0  0  0  0  0  0  0  0  0
   11.4047  -15.8664   24.9996 C   0  0  1  0  0  0  0  0  0  0  0  0
   10.0466  -15.3044   25.4496 C   0  0  0  0  0  0  0  0  0  0  0  0
   10.0945  -15.0515   26.8971 C   0  0  0  0  0  0  0  0  0  0  0  0
   10.0877  -16.1152   27.8042 C   0  0  0  0  0  0  0  0  0  0  0  0
   10.1659  -15.9103   29.1597 C   0  0  0  0  0  0  0  0  0  0  0  0
   10.2550  -14.6342   29.6818 C   0  0  0  0  0  0  0  0  0  0  0  0
   10.2621  -13.5720   28.7826 C   0  0  0  0  0  0  0  0  0  0  0  0
   10.1841  -13.7774   27.4261 C   0  0  0  0  0  0  0  0  0  0  0  0
   11.6393  -17.1104   25.7467 C   0  0  0  0  0  0  0  0  0  0  0  0
   10.9039  -18.1054   25.6139 O   0  0  0  0  0  0  0  0  0  0  0  0
   12.7009  -17.1854   26.6189 O   0  0  0  0  0  0  0  0  0  0  0  0
  1  2  1  0
  3  2  1  0
  3  4  1  1
  5  6  2  0
  5  3  1  0
  7  5  1  0
  8  7  1  0
  8  9  1  1
 10  9  1  0
 11 10  2  0
 12 13  1  0
 12 11  1  0
 13 18  2  0
 14 13  1  0
 14 15  2  0
 15 16  1  0
 16 17  2  0
 18 10  1  0
 18 17  1  0
 19  8  1  0
 19 21  1  0
 20 19  2  0
 22 21  1  0
 22 30  1  0
 22 23  1  1
 24 23  1  0
 25 24  2  0
 26 25  1  0
 27 26  2  0
 27 28  1  0
 28 29  2  0
 29 24  1  0
 30 31  2  0
 30 32  1  0
M  END
$$$$
