SWF.pdb
     RDKit          3D

 32 34  0  0  1  0  0  0  0  0999 V2000
    9.3427  -17.3767   19.4557 O   0  0  0  0  0  0  0  0  0  0  0  0
    8.0857  -17.5241   19.9980 C   0  0  0  0  0  0  0  0  0  0  0  0
    7.5397  -16.2120   20.4541 C   0  0  2  0  0  0  0  0  0  0  0  0
    7.4748  -15.2006   19.4484 N   0  0  0  0  0  0  0  0  0  0  0  0
    8.4063  -15.7217   21.5764 C   0  0  0  0  0  0  0  0  0  0  0  0
    9.3023  -14.8986   21.2772 O   0  0  0  0  0  0  0  0  0  0  0  0
    8.2082  -16.1723   22.8803 N   0  0  0  0  0  0  0  0  0  0  0  0
    9.0303  -15.6084   23.9680 C   0  0  1  0  0  0  0  0  0  0  0  0
    8.2692  -15.8058   25.2239 C   0  0  0  0  0  0  0  0  0  0  0  0
    7.1405  -14.9212   25.4811 C   0  0  0  0  0  0  0  0  0  0  0  0
    5.8054  -15.2327   25.6227 C   0  0  0  0  0  0  0  0  0  0  0  0
    5.0962  -14.1081   25.8260 N   0  0  0  0  0  0  0  0  0  0  0  0
    5.9625  -13.0726   25.8169 C   0  0  0  0  0  0  0  0  0  0  0  0
    5.7511  -11.7198   25.9802 C   0  0  0  0  0  0  0  0  0  0  0  0
    6.7934  -10.8307   25.9354 C   0  0  0  0  0  0  0  0  0  0  0  0
    8.0775  -11.2945   25.7234 C   0  0  0  0  0  0  0  0  0  0  0  0
    8.2797  -12.6432   25.5618 C   0  0  0  0  0  0  0  0  0  0  0  0
    7.2210  -13.5513   25.6068 C   0  0  0  0  0  0  0  0  0  0  0  0
   10.2881  -16.4034   23.9743 C   0  0  0  0  0  0  0  0  0  0  0  0
   11.1380  -16.2613   23.0175 O   0  0  0  0  0  0  0  0  0  0  0  0
   10.6382  -17.3324   24.9876 N   0  0  0  0  0  0  0  0  0  0  0  0
   12.0602  -17.5153   25.3031 C   0  0  1  0  0  0  0  0  0  0  0  0
   12.6253  -16.1497   25.7258 C   0  0  0  0  0  0  0  0  0  0  0  0
   11.8285  -15.6342   26.8488 C   0  0  0  0  0  0  0  0  0  0  0  0
   11.7969  -16.3161   28.0688 C   0  0  0  0  0  0  0  0  0  0  0  0
   11.0892  -15.8405   29.1450 C   0  0  0  0  0  0  0  0  0  0  0  0
   10.3758  -14.6603   29.0614 C   0  0  0  0  0  0  0  0  0  0  0  0
   10.4043  -13.9778   27.8486 C   0  0  0  0  0  0  0  0  0  0  0  0
   11.1128  -14.4539   26.7719 C   0  0  0  0  0  0  0  0  0  0  0  0
   12.2607  -18.4444   26.4242 C   0  0  0  0  0  0  0  0  0  0  0  0
   13.3946  -18.7103   26.8627 O   0  0  0  0  0  0  0  0  0  0  0  0
   11.1687  -19.0408   27.0119 O   0  0  0  0  0  0  0  0  0  0  0  0
  1  2  1  0
  3  2  1  0
  3  4  1  6
  5  6  2  0
  5  3  1  0
  7  5  1  0
  8  7  1  0
  8  9  1  1
 10  9  1  0
 11 10  2  0
 12 13  1  0
 12 11  1  0
 13 18  2  0
 14 13  1  0
 14 15  2  0
 15 16  1  0
 16 17  2  0
 18 10  1  0
 18 17  1  0
 19  8  1  0
 19 21  1  0
 20 19  2  0
 22 21  1  0
 22 30  1  0
 22 23  1  1
 24 23  1  0
 25 24  2  0
 26 25  1  0
 27 26  2  0
 27 28  1  0
 28 29  2  0
 29 24  1  0
 30 31  2  0
 30 32  1  0
M  END
$$$$
