SWF.pdb
     RDKit          3D

 32 34  0  0  1  0  0  0  0  0999 V2000
    9.9446  -20.0083   23.8734 O   0  0  0  0  0  0  0  0  0  0  0  0
    8.9634  -20.0028   22.9075 C   0  0  0  0  0  0  0  0  0  0  0  0
    9.3791  -19.1948   21.7234 C   0  0  2  0  0  0  0  0  0  0  0  0
   10.4430  -19.7535   20.9525 N   0  0  0  0  0  0  0  0  0  0  0  0
    9.8001  -17.8424   22.2181 C   0  0  0  0  0  0  0  0  0  0  0  0
   11.0008  -17.5288   22.0455 O   0  0  0  0  0  0  0  0  0  0  0  0
    8.8853  -16.9922   22.8367 N   0  0  0  0  0  0  0  0  0  0  0  0
    9.2848  -15.6042   23.1385 C   0  0  1  0  0  0  0  0  0  0  0  0
    8.0625  -14.7744   23.0244 C   0  0  0  0  0  0  0  0  0  0  0  0
    7.4136  -14.6951   21.7223 C   0  0  0  0  0  0  0  0  0  0  0  0
    6.2913  -15.3534   21.2679 C   0  0  0  0  0  0  0  0  0  0  0  0
    6.0490  -15.0084   19.9906 N   0  0  0  0  0  0  0  0  0  0  0  0
    7.0059  -14.1325   19.6164 C   0  0  0  0  0  0  0  0  0  0  0  0
    7.2117  -13.4805   18.4190 C   0  0  0  0  0  0  0  0  0  0  0  0
    8.2641  -12.6175   18.2554 C   0  0  0  0  0  0  0  0  0  0  0  0
    9.1341  -12.3955   19.3054 C   0  0  0  0  0  0  0  0  0  0  0  0
    8.9222  -13.0486   20.4948 C   0  0  0  0  0  0  0  0  0  0  0  0
    7.8519  -13.9278   20.6649 C   0  0  0  0  0  0  0  0  0  0  0  0
    9.7875  -15.6264   24.5388 C   0  0  0  0  0  0  0  0  0  0  0  0
   10.5679  -14.6894   24.9519 O   0  0  0  0  0  0  0  0  0  0  0  0
    9.4594  -16.6293   25.4870 N   0  0  0  0  0  0  0  0  0  0  0  0
    9.7886  -16.3882   26.8971 C   0  0  1  0  0  0  0  0  0  0  0  0
    8.4692  -16.1714   27.6554 C   0  0  0  0  0  0  0  0  0  0  0  0
    7.9410  -14.8417   27.3165 C   0  0  0  0  0  0  0  0  0  0  0  0
    8.6797  -13.6901   27.6037 C   0  0  0  0  0  0  0  0  0  0  0  0
    8.2270  -12.4380   27.2681 C   0  0  0  0  0  0  0  0  0  0  0  0
    7.0140  -12.2683   26.6287 C   0  0  0  0  0  0  0  0  0  0  0  0
    6.2749  -13.4120   26.3408 C   0  0  0  0  0  0  0  0  0  0  0  0
    6.7284  -14.6649   26.6765 C   0  0  0  0  0  0  0  0  0  0  0  0
   10.4675  -17.5394   27.5090 C   0  0  0  0  0  0  0  0  0  0  0  0
   10.8027  -17.5439   28.7074 O   0  0  0  0  0  0  0  0  0  0  0  0
   10.7430  -18.6481   26.7420 O   0  0  0  0  0  0  0  0  0  0  0  0
  1  2  1  0
  3  2  1  0
  3  4  1  1
  5  6  2  0
  5  3  1  0
  7  5  1  0
  8  7  1  0
  8  9  1  1
 10  9  1  0
 11 10  2  0
 12 13  1  0
 12 11  1  0
 13 18  2  0
 14 13  1  0
 14 15  2  0
 15 16  1  0
 16 17  2  0
 18 10  1  0
 18 17  1  0
 19  8  1  0
 19 21  1  0
 20 19  2  0
 22 21  1  0
 22 30  1  0
 22 23  1  1
 24 23  1  0
 25 24  2  0
 26 25  1  0
 27 26  2  0
 27 28  1  0
 28 29  2  0
 29 24  1  0
 30 31  2  0
 30 32  1  0
M  END
$$$$
