SVK.pdb
     RDKit          3D

 23 22  0  0  1  0  0  0  0  0999 V2000
   16.8321  -11.0438  -18.8313 O   0  0  0  0  0  0  0  0  0  0  0  0
   17.5485  -10.8283  -17.6742 C   0  0  0  0  0  0  0  0  0  0  0  0
   18.7111  -11.7681  -17.5183 C   0  0  2  0  0  0  0  0  0  0  0  0
   18.2761  -13.1183  -17.3045 N   0  0  0  0  0  0  0  0  0  0  0  0
   19.5789  -11.2678  -16.4231 C   0  0  0  0  0  0  0  0  0  0  0  0
   19.2048  -11.5223  -15.2416 O   0  0  0  0  0  0  0  0  0  0  0  0
   23.1944  -11.9650  -15.6027 C   0  0  0  0  0  0  0  0  0  0  0  0
   23.0285  -10.4887  -15.7668 C   0  0  2  0  0  0  0  0  0  0  0  0
   24.0005   -9.8326  -14.7860 C   0  0  0  0  0  0  0  0  0  0  0  0
   21.6232  -10.0576  -15.5393 C   0  0  2  0  0  0  0  0  0  0  0  0
   20.7640  -10.5445  -16.6311 N   0  0  0  0  0  0  0  0  0  0  0  0
   21.5218   -8.5859  -15.5622 C   0  0  0  0  0  0  0  0  0  0  0  0
   21.5576   -7.9685  -16.6875 O   0  0  0  0  0  0  0  0  0  0  0  0
   21.3786   -7.7609  -14.4264 N   0  0  0  0  0  0  0  0  0  0  0  0
   21.3589   -6.2826  -14.5874 C   0  0  1  0  0  0  0  0  0  0  0  0
   19.9239   -5.9203  -14.8041 C   0  0  0  0  0  0  0  0  0  0  0  0
   19.7054   -4.4579  -14.9323 C   0  0  0  0  0  0  0  0  0  0  0  0
   18.2459   -4.0948  -15.1118 C   0  0  0  0  0  0  0  0  0  0  0  0
   18.0542   -2.6303  -15.3860 C   0  0  0  0  0  0  0  0  0  0  0  0
   16.6439   -2.3406  -15.6695 N   0  0  0  0  0  0  0  0  0  0  0  0
   21.9919   -5.6475  -13.4192 C   0  0  0  0  0  0  0  0  0  0  0  0
   21.9264   -6.2275  -12.3068 O   0  0  0  0  0  0  0  0  0  0  0  0
   22.6696   -4.4406  -13.4379 O   0  0  0  0  0  0  0  0  0  0  0  0
  2  1  1  0
  3  4  1  1
  3  2  1  0
  5  6  2  0
  5  3  1  0
  8  7  1  1
  8 10  1  0
  9  8  1  0
 10 11  1  6
 10 12  1  0
 11  5  1  0
 12 14  1  0
 13 12  2  0
 14 15  1  0
 15 21  1  0
 15 16  1  1
 17 16  1  0
 18 17  1  0
 19 18  1  0
 20 19  1  0
 21 22  2  0
 21 23  1  0
M  END
$$$$
