SVK.pdb
     RDKit          3D

 23 22  0  0  1  0  0  0  0  0999 V2000
   23.1614  -12.6965  -18.6087 O   0  0  0  0  0  0  0  0  0  0  0  0
   22.4302  -12.0851  -19.6039 C   0  0  0  0  0  0  0  0  0  0  0  0
   22.3297  -10.5956  -19.4296 C   0  0  2  0  0  0  0  0  0  0  0  0
   23.5996   -9.9537  -19.6118 N   0  0  0  0  0  0  0  0  0  0  0  0
   21.7340  -10.3152  -18.0994 C   0  0  0  0  0  0  0  0  0  0  0  0
   20.5857  -10.7984  -17.8789 O   0  0  0  0  0  0  0  0  0  0  0  0
   23.3845  -10.8450  -14.6234 C   0  0  0  0  0  0  0  0  0  0  0  0
   22.8577   -9.4502  -14.7289 C   0  0  2  0  0  0  0  0  0  0  0  0
   22.3527   -9.0722  -13.3364 C   0  0  0  0  0  0  0  0  0  0  0  0
   21.7956   -9.3329  -15.7635 C   0  0  2  0  0  0  0  0  0  0  0  0
   22.3679   -9.5589  -17.1009 N   0  0  0  0  0  0  0  0  0  0  0  0
   21.2370   -7.9675  -15.7813 C   0  0  0  0  0  0  0  0  0  0  0  0
   21.8792   -7.0310  -16.3807 O   0  0  0  0  0  0  0  0  0  0  0  0
   20.0183   -7.5775  -15.1865 N   0  0  0  0  0  0  0  0  0  0  0  0
   19.4757   -6.2167  -15.4428 C   0  0  1  0  0  0  0  0  0  0  0  0
   19.3417   -6.1101  -16.9288 C   0  0  0  0  0  0  0  0  0  0  0  0
   18.7642   -4.8161  -17.3701 C   0  0  0  0  0  0  0  0  0  0  0  0
   18.6785   -4.6938  -18.8773 C   0  0  0  0  0  0  0  0  0  0  0  0
   18.0543   -3.3969  -19.3078 C   0  0  0  0  0  0  0  0  0  0  0  0
   18.1368   -3.2453  -20.7650 N   0  0  0  0  0  0  0  0  0  0  0  0
   18.2238   -6.0315  -14.6897 C   0  0  0  0  0  0  0  0  0  0  0  0
   17.5183   -7.0388  -14.4335 O   0  0  0  0  0  0  0  0  0  0  0  0
   17.7442   -4.8182  -14.2271 O   0  0  0  0  0  0  0  0  0  0  0  0
  2  1  1  0
  3  4  1  1
  3  2  1  0
  5  6  2  0
  5  3  1  0
  8  7  1  1
  8 10  1  0
  9  8  1  0
 10 11  1  6
 10 12  1  0
 11  5  1  0
 12 14  1  0
 13 12  2  0
 14 15  1  0
 15 21  1  0
 15 16  1  6
 17 16  1  0
 18 17  1  0
 19 18  1  0
 20 19  1  0
 21 22  2  0
 21 23  1  0
M  END
$$$$
