SVK.pdb
     RDKit          3D

 23 22  0  0  1  0  0  0  0  0999 V2000
   26.5006  -18.9302  -15.6945 O   0  0  0  0  0  0  0  0  0  0  0  0
   27.3323  -19.9488  -16.1059 C   0  0  0  0  0  0  0  0  0  0  0  0
   27.8132  -20.8101  -14.9717 C   0  0  2  0  0  0  0  0  0  0  0  0
   28.7486  -21.8016  -15.4189 N   0  0  0  0  0  0  0  0  0  0  0  0
   26.6324  -21.4029  -14.2957 C   0  0  0  0  0  0  0  0  0  0  0  0
   26.1282  -22.4314  -14.8331 O   0  0  0  0  0  0  0  0  0  0  0  0
   25.0576  -19.8617  -10.5912 C   0  0  0  0  0  0  0  0  0  0  0  0
   25.0528  -21.3111  -10.9562 C   0  0  2  0  0  0  0  0  0  0  0  0
   26.3485  -21.9016  -10.3997 C   0  0  0  0  0  0  0  0  0  0  0  0
   24.9266  -21.5152  -12.4242 C   0  0  2  0  0  0  0  0  0  0  0  0
   26.0636  -20.8898  -13.1193 N   0  0  0  0  0  0  0  0  0  0  0  0
   23.7145  -20.8496  -12.9383 C   0  0  0  0  0  0  0  0  0  0  0  0
   23.7430  -19.5897  -13.1846 O   0  0  0  0  0  0  0  0  0  0  0  0
   22.4833  -21.4873  -13.2004 N   0  0  0  0  0  0  0  0  0  0  0  0
   21.3304  -20.6884  -13.6947 C   0  0  1  0  0  0  0  0  0  0  0  0
   20.9679  -21.2816  -15.0192 C   0  0  0  0  0  0  0  0  0  0  0  0
   19.7311  -20.7007  -15.5986 C   0  0  0  0  0  0  0  0  0  0  0  0
   19.2719  -21.4226  -16.8484 C   0  0  0  0  0  0  0  0  0  0  0  0
   18.0669  -20.7744  -17.4688 C   0  0  0  0  0  0  0  0  0  0  0  0
   17.6178  -21.5375  -18.6389 N   0  0  0  0  0  0  0  0  0  0  0  0
   20.2523  -20.6992  -12.6915 C   0  0  0  0  0  0  0  0  0  0  0  0
   20.2313  -21.6200  -11.8373 O   0  0  0  0  0  0  0  0  0  0  0  0
   19.2368  -19.7627  -12.6029 O   0  0  0  0  0  0  0  0  0  0  0  0
  2  1  1  0
  3  4  1  6
  3  2  1  0
  5  6  2  0
  5  3  1  0
  8  7  1  6
  8 10  1  0
  9  8  1  0
 10 11  1  6
 10 12  1  0
 11  5  1  0
 12 14  1  0
 13 12  2  0
 14 15  1  0
 15 21  1  0
 15 16  1  6
 17 16  1  0
 18 17  1  0
 19 18  1  0
 20 19  1  0
 21 22  2  0
 21 23  1  0
M  END
$$$$
