SVK.pdb
     RDKit          3D

 23 22  0  0  1  0  0  0  0  0999 V2000
   16.4204  -10.1086  -16.8985 O   0  0  0  0  0  0  0  0  0  0  0  0
   17.3699   -9.3919  -16.2032 C   0  0  0  0  0  0  0  0  0  0  0  0
   18.0003  -10.1780  -15.0879 C   0  0  2  0  0  0  0  0  0  0  0  0
   17.0405  -10.5363  -14.0837 N   0  0  0  0  0  0  0  0  0  0  0  0
   19.1343   -9.3930  -14.5394 C   0  0  0  0  0  0  0  0  0  0  0  0
   18.8678   -8.5971  -13.5927 O   0  0  0  0  0  0  0  0  0  0  0  0
   23.1741  -10.1694  -15.6580 C   0  0  0  0  0  0  0  0  0  0  0  0
   22.7808   -9.5910  -14.3371 C   0  0  2  0  0  0  0  0  0  0  0  0
   22.5578  -10.7747  -13.3957 C   0  0  0  0  0  0  0  0  0  0  0  0
   21.5772   -8.7237  -14.4451 C   0  0  2  0  0  0  0  0  0  0  0  0
   20.4536   -9.4894  -15.0093 N   0  0  0  0  0  0  0  0  0  0  0  0
   21.8237   -7.6081  -15.3784 C   0  0  0  0  0  0  0  0  0  0  0  0
   22.6416   -6.6759  -15.0453 O   0  0  0  0  0  0  0  0  0  0  0  0
   21.2304   -7.4632  -16.6505 N   0  0  0  0  0  0  0  0  0  0  0  0
   21.4474   -6.2132  -17.4266 C   0  0  1  0  0  0  0  0  0  0  0  0
   21.7671   -6.6546  -18.8196 C   0  0  0  0  0  0  0  0  0  0  0  0
   22.0955   -5.5270  -19.7269 C   0  0  0  0  0  0  0  0  0  0  0  0
   22.4208   -5.9806  -21.1349 C   0  0  0  0  0  0  0  0  0  0  0  0
   22.8800   -4.8459  -22.0058 C   0  0  0  0  0  0  0  0  0  0  0  0
   23.0594   -5.2999  -23.3896 N   0  0  0  0  0  0  0  0  0  0  0  0
   20.2664   -5.3419  -17.3050 C   0  0  0  0  0  0  0  0  0  0  0  0
   20.3701   -4.1343  -17.6352 O   0  0  0  0  0  0  0  0  0  0  0  0
   19.0227   -5.7444  -16.8498 O   0  0  0  0  0  0  0  0  0  0  0  0
  2  1  1  0
  3  4  1  1
  3  2  1  0
  5  6  2  0
  5  3  1  0
  8  7  1  6
  8 10  1  0
  9  8  1  0
 10 11  1  6
 10 12  1  0
 11  5  1  0
 12 14  1  0
 13 12  2  0
 14 15  1  0
 15 21  1  0
 15 16  1  6
 17 16  1  0
 18 17  1  0
 19 18  1  0
 20 19  1  0
 21 22  2  0
 21 23  1  0
M  END
$$$$
