SVK.pdb
     RDKit          3D

 23 22  0  0  1  0  0  0  0  0999 V2000
   20.6194  -18.5928  -18.1632 O   0  0  0  0  0  0  0  0  0  0  0  0
   19.6056  -17.6601  -18.1956 C   0  0  0  0  0  0  0  0  0  0  0  0
   18.8594  -17.5567  -16.8949 C   0  0  2  0  0  0  0  0  0  0  0  0
   18.1515  -18.7672  -16.5923 N   0  0  0  0  0  0  0  0  0  0  0  0
   17.9660  -16.3731  -16.9561 C   0  0  0  0  0  0  0  0  0  0  0  0
   16.7491  -16.5941  -17.2227 O   0  0  0  0  0  0  0  0  0  0  0  0
   15.5112  -15.1449  -15.8770 C   0  0  0  0  0  0  0  0  0  0  0  0
   16.5066  -14.0697  -15.5817 C   0  0  2  0  0  0  0  0  0  0  0  0
   15.7026  -12.7962  -15.3193 C   0  0  0  0  0  0  0  0  0  0  0  0
   17.4861  -13.8987  -16.6879 C   0  0  2  0  0  0  0  0  0  0  0  0
   18.3962  -15.0547  -16.7380 N   0  0  0  0  0  0  0  0  0  0  0  0
   18.3364  -12.7167  -16.4500 C   0  0  0  0  0  0  0  0  0  0  0  0
   19.0870  -12.6788  -15.4088 O   0  0  0  0  0  0  0  0  0  0  0  0
   18.4117  -11.5845  -17.2888 N   0  0  0  0  0  0  0  0  0  0  0  0
   19.3364  -10.4720  -16.9436 C   0  0  1  0  0  0  0  0  0  0  0  0
   19.5580   -9.7223  -18.2188 C   0  0  0  0  0  0  0  0  0  0  0  0
   20.4834   -8.5722  -18.0649 C   0  0  0  0  0  0  0  0  0  0  0  0
   20.7395   -7.8448  -19.3686 C   0  0  0  0  0  0  0  0  0  0  0  0
   21.7868   -6.7771  -19.2275 C   0  0  0  0  0  0  0  0  0  0  0  0
   21.9826   -6.0773  -20.5023 N   0  0  0  0  0  0  0  0  0  0  0  0
   18.7660   -9.6755  -15.8440 C   0  0  0  0  0  0  0  0  0  0  0  0
   17.5212   -9.5134  -15.7981 O   0  0  0  0  0  0  0  0  0  0  0  0
   19.4961   -9.0764  -14.8320 O   0  0  0  0  0  0  0  0  0  0  0  0
  2  1  1  0
  3  4  1  6
  3  2  1  0
  5  6  2  0
  5  3  1  0
  8  7  1  6
  8 10  1  0
  9  8  1  0
 10 11  1  1
 10 12  1  0
 11  5  1  0
 12 14  1  0
 13 12  2  0
 14 15  1  0
 15 21  1  0
 15 16  1  6
 17 16  1  0
 18 17  1  0
 19 18  1  0
 20 19  1  0
 21 22  2  0
 21 23  1  0
M  END
$$$$
