SVK.pdb
     RDKit          3D

 23 22  0  0  1  0  0  0  0  0999 V2000
   20.1071  -14.2870  -18.7778 O   0  0  0  0  0  0  0  0  0  0  0  0
   20.5885  -13.7979  -17.5829 C   0  0  0  0  0  0  0  0  0  0  0  0
   22.0251  -14.1630  -17.3338 C   0  0  2  0  0  0  0  0  0  0  0  0
   22.1527  -15.5014  -16.8335 N   0  0  0  0  0  0  0  0  0  0  0  0
   22.6173  -13.1535  -16.4211 C   0  0  0  0  0  0  0  0  0  0  0  0
   22.2804  -13.2228  -15.2035 O   0  0  0  0  0  0  0  0  0  0  0  0
   26.2802  -12.2820  -15.8105 C   0  0  0  0  0  0  0  0  0  0  0  0
   25.5495  -11.0264  -16.1620 C   0  0  2  0  0  0  0  0  0  0  0  0
   26.1798   -9.9112  -15.3278 C   0  0  0  0  0  0  0  0  0  0  0  0
   24.0863  -11.1485  -15.9240 C   0  0  2  0  0  0  0  0  0  0  0  0
   23.5100  -12.1519  -16.8342 N   0  0  0  0  0  0  0  0  0  0  0  0
   23.4031   -9.8770  -16.2289 C   0  0  0  0  0  0  0  0  0  0  0  0
   23.0890   -9.6052  -17.4440 O   0  0  0  0  0  0  0  0  0  0  0  0
   23.0433   -8.8969  -15.2797 N   0  0  0  0  0  0  0  0  0  0  0  0
   22.2189   -7.7324  -15.6994 C   0  0  1  0  0  0  0  0  0  0  0  0
   20.9672   -8.3127  -16.2775 C   0  0  0  0  0  0  0  0  0  0  0  0
   19.9816   -7.2810  -16.6860 C   0  0  0  0  0  0  0  0  0  0  0  0
   18.6674   -7.8741  -17.1499 C   0  0  0  0  0  0  0  0  0  0  0  0
   17.6919   -6.8199  -17.5903 C   0  0  0  0  0  0  0  0  0  0  0  0
   18.0078   -6.3623  -18.9482 N   0  0  0  0  0  0  0  0  0  0  0  0
   22.0154   -6.8295  -14.5540 C   0  0  0  0  0  0  0  0  0  0  0  0
   22.0610   -7.3069  -13.3929 O   0  0  0  0  0  0  0  0  0  0  0  0
   21.7738   -5.4695  -14.6443 O   0  0  0  0  0  0  0  0  0  0  0  0
  2  1  1  0
  3  4  1  1
  3  2  1  0
  5  6  2  0
  5  3  1  0
  8  7  1  1
  8 10  1  0
  9  8  1  0
 10 11  1  6
 10 12  1  0
 11  5  1  0
 12 14  1  0
 13 12  2  0
 14 15  1  0
 15 21  1  0
 15 16  1  1
 17 16  1  0
 18 17  1  0
 19 18  1  0
 20 19  1  0
 21 22  2  0
 21 23  1  0
M  END
$$$$
