SVK.pdb
     RDKit          3D

 23 22  0  0  1  0  0  0  0  0999 V2000
   26.9773  -21.1380  -15.7450 O   0  0  0  0  0  0  0  0  0  0  0  0
   26.7902  -22.1964  -16.6072 C   0  0  0  0  0  0  0  0  0  0  0  0
   28.0215  -23.0415  -16.7772 C   0  0  2  0  0  0  0  0  0  0  0  0
   29.0538  -22.3383  -17.4828 N   0  0  0  0  0  0  0  0  0  0  0  0
   27.6353  -24.3094  -17.4451 C   0  0  0  0  0  0  0  0  0  0  0  0
   27.4235  -24.2524  -18.6911 O   0  0  0  0  0  0  0  0  0  0  0  0
   27.7962  -29.1123  -17.8585 C   0  0  0  0  0  0  0  0  0  0  0  0
   28.2324  -27.7216  -17.5275 C   0  0  2  0  0  0  0  0  0  0  0  0
   29.0051  -27.8122  -16.2116 C   0  0  0  0  0  0  0  0  0  0  0  0
   27.0818  -26.7830  -17.4407 C   0  0  2  0  0  0  0  0  0  0  0  0
   27.4976  -25.5364  -16.7771 N   0  0  0  0  0  0  0  0  0  0  0  0
   26.0080  -27.3543  -16.6058 C   0  0  0  0  0  0  0  0  0  0  0  0
   26.1423  -27.3696  -15.3289 O   0  0  0  0  0  0  0  0  0  0  0  0
   24.8010  -27.9006  -17.0915 N   0  0  0  0  0  0  0  0  0  0  0  0
   23.8346  -28.5130  -16.1413 C   0  0  1  0  0  0  0  0  0  0  0  0
   23.4913  -27.4336  -15.1644 C   0  0  0  0  0  0  0  0  0  0  0  0
   22.4933  -27.8600  -14.1521 C   0  0  0  0  0  0  0  0  0  0  0  0
   21.1815  -27.1117  -14.2678 C   0  0  0  0  0  0  0  0  0  0  0  0
   20.1799  -27.5584  -13.2412 C   0  0  0  0  0  0  0  0  0  0  0  0
   18.9367  -26.7891  -13.3671 N   0  0  0  0  0  0  0  0  0  0  0  0
   22.6904  -29.0668  -16.8850 C   0  0  0  0  0  0  0  0  0  0  0  0
   22.2505  -30.1983  -16.5618 O   0  0  0  0  0  0  0  0  0  0  0  0
   22.0402  -28.4367  -17.9320 O   0  0  0  0  0  0  0  0  0  0  0  0
  2  1  1  0
  3  4  1  6
  3  2  1  0
  5  6  2  0
  5  3  1  0
  8  7  1  1
  8 10  1  0
  9  8  1  0
 10 11  1  1
 10 12  1  0
 11  5  1  0
 12 14  1  0
 13 12  2  0
 14 15  1  0
 15 21  1  0
 15 16  1  1
 17 16  1  0
 18 17  1  0
 19 18  1  0
 20 19  1  0
 21 22  2  0
 21 23  1  0
M  END
$$$$
