SVK.pdb
     RDKit          3D

 23 22  0  0  1  0  0  0  0  0999 V2000
   15.0073  -13.7787  -11.4359 O   0  0  0  0  0  0  0  0  0  0  0  0
   14.6848  -12.4648  -11.6974 C   0  0  0  0  0  0  0  0  0  0  0  0
   13.7734  -11.8657  -10.6631 C   0  0  2  0  0  0  0  0  0  0  0  0
   12.4728  -12.4707  -10.6884 N   0  0  0  0  0  0  0  0  0  0  0  0
   13.7239  -10.3971  -10.8714 C   0  0  0  0  0  0  0  0  0  0  0  0
   12.8458   -9.9674  -11.6744 O   0  0  0  0  0  0  0  0  0  0  0  0
   14.8082   -5.8914   -9.1802 C   0  0  0  0  0  0  0  0  0  0  0  0
   14.6226   -7.3693   -9.0554 C   0  0  2  0  0  0  0  0  0  0  0  0
   15.8338   -7.8937   -8.2840 C   0  0  0  0  0  0  0  0  0  0  0  0
   14.4731   -8.0256  -10.3818 C   0  0  2  0  0  0  0  0  0  0  0  0
   14.5830   -9.4864  -10.2362 N   0  0  0  0  0  0  0  0  0  0  0  0
   15.5649   -7.6199  -11.2874 C   0  0  0  0  0  0  0  0  0  0  0  0
   16.7531   -8.0603  -11.0799 O   0  0  0  0  0  0  0  0  0  0  0  0
   15.4242   -6.7681  -12.4035 N   0  0  0  0  0  0  0  0  0  0  0  0
   16.5915   -6.5164  -13.2900 C   0  0  1  0  0  0  0  0  0  0  0  0
   16.1054   -6.7785  -14.6801 C   0  0  0  0  0  0  0  0  0  0  0  0
   17.1166   -6.4635  -15.7198 C   0  0  0  0  0  0  0  0  0  0  0  0
   16.6044   -6.6920  -17.1267 C   0  0  0  0  0  0  0  0  0  0  0  0
   17.6907   -6.5583  -18.1558 C   0  0  0  0  0  0  0  0  0  0  0  0
   17.1872   -6.9224  -19.4851 N   0  0  0  0  0  0  0  0  0  0  0  0
   17.1079   -5.1571  -13.0568 C   0  0  0  0  0  0  0  0  0  0  0  0
   18.3377   -4.9450  -13.2013 O   0  0  0  0  0  0  0  0  0  0  0  0
   16.3412   -4.0662  -12.6850 O   0  0  0  0  0  0  0  0  0  0  0  0
  2  1  1  0
  3  4  1  6
  3  2  1  0
  5  6  2  0
  5  3  1  0
  8  7  1  6
  8 10  1  0
  9  8  1  0
 10 11  1  1
 10 12  1  0
 11  5  1  0
 12 14  1  0
 13 12  2  0
 14 15  1  0
 15 21  1  0
 15 16  1  6
 17 16  1  0
 18 17  1  0
 19 18  1  0
 20 19  1  0
 21 22  2  0
 21 23  1  0
M  END
$$$$
