SVK.pdb
     RDKit          3D

 23 22  0  0  1  0  0  0  0  0999 V2000
   18.4506  -11.0023  -20.4920 O   0  0  0  0  0  0  0  0  0  0  0  0
   18.7805  -10.6921  -19.1906 C   0  0  0  0  0  0  0  0  0  0  0  0
   19.6080  -11.7552  -18.5241 C   0  0  2  0  0  0  0  0  0  0  0  0
   18.8878  -12.9901  -18.4042 N   0  0  0  0  0  0  0  0  0  0  0  0
   20.0753  -11.2374  -17.2139 C   0  0  0  0  0  0  0  0  0  0  0  0
   19.2323  -11.2382  -16.2705 O   0  0  0  0  0  0  0  0  0  0  0  0
   22.9724  -12.3521  -15.0144 C   0  0  0  0  0  0  0  0  0  0  0  0
   23.1284  -10.8954  -15.3107 C   0  0  2  0  0  0  0  0  0  0  0  0
   23.7543  -10.2655  -14.0662 C   0  0  0  0  0  0  0  0  0  0  0  0
   21.8337  -10.2590  -15.6727 C   0  0  2  0  0  0  0  0  0  0  0  0
   21.3741  -10.7595  -16.9786 N   0  0  0  0  0  0  0  0  0  0  0  0
   21.9972   -8.8008  -15.8262 C   0  0  0  0  0  0  0  0  0  0  0  0
   22.7712   -8.3460  -16.7443 O   0  0  0  0  0  0  0  0  0  0  0  0
   21.3582   -7.8212  -15.0368 N   0  0  0  0  0  0  0  0  0  0  0  0
   21.6664   -6.3828  -15.2554 C   0  0  1  0  0  0  0  0  0  0  0  0
   20.4776   -5.8201  -15.9678 C   0  0  0  0  0  0  0  0  0  0  0  0
   20.5608   -4.3521  -16.1700 C   0  0  0  0  0  0  0  0  0  0  0  0
   19.3267   -3.7792  -16.8355 C   0  0  0  0  0  0  0  0  0  0  0  0
   19.4371   -2.2977  -17.0585 C   0  0  0  0  0  0  0  0  0  0  0  0
   18.2130   -1.7785  -17.6792 N   0  0  0  0  0  0  0  0  0  0  0  0
   21.9819   -5.7414  -13.9678 C   0  0  0  0  0  0  0  0  0  0  0  0
   21.5172   -6.2422  -12.9136 O   0  0  0  0  0  0  0  0  0  0  0  0
   22.7640   -4.6100  -13.8115 O   0  0  0  0  0  0  0  0  0  0  0  0
  2  1  1  0
  3  4  1  1
  3  2  1  0
  5  6  2  0
  5  3  1  0
  8  7  1  1
  8 10  1  0
  9  8  1  0
 10 11  1  6
 10 12  1  0
 11  5  1  0
 12 14  1  0
 13 12  2  0
 14 15  1  0
 15 21  1  0
 15 16  1  1
 17 16  1  0
 18 17  1  0
 19 18  1  0
 20 19  1  0
 21 22  2  0
 21 23  1  0
M  END
$$$$
