SVK.pdb
     RDKit          3D

 23 22  0  0  1  0  0  0  0  0999 V2000
   18.1816  -13.4544  -18.4660 O   0  0  0  0  0  0  0  0  0  0  0  0
   18.4126  -12.5230  -17.4771 C   0  0  0  0  0  0  0  0  0  0  0  0
   19.6566  -12.8052  -16.6820 C   0  0  2  0  0  0  0  0  0  0  0  0
   19.5556  -14.0411  -15.9607 N   0  0  0  0  0  0  0  0  0  0  0  0
   19.9223  -11.6460  -15.7940 C   0  0  0  0  0  0  0  0  0  0  0  0
   19.1698  -11.5205  -14.7847 O   0  0  0  0  0  0  0  0  0  0  0  0
   23.6181   -9.8139  -15.5746 C   0  0  0  0  0  0  0  0  0  0  0  0
   22.5569   -9.6736  -14.5314 C   0  0  2  0  0  0  0  0  0  0  0  0
   22.6857  -10.8918  -13.6169 C   0  0  0  0  0  0  0  0  0  0  0  0
   21.1998   -9.5601  -15.1294 C   0  0  2  0  0  0  0  0  0  0  0  0
   20.9422  -10.7071  -16.0155 N   0  0  0  0  0  0  0  0  0  0  0  0
   21.1055   -8.3567  -15.9777 C   0  0  0  0  0  0  0  0  0  0  0  0
   21.7442   -8.3180  -17.0910 O   0  0  0  0  0  0  0  0  0  0  0  0
   20.3498   -7.2039  -15.6760 N   0  0  0  0  0  0  0  0  0  0  0  0
   20.3460   -6.0569  -16.6228 C   0  0  1  0  0  0  0  0  0  0  0  0
   18.9802   -6.0428  -17.2327 C   0  0  0  0  0  0  0  0  0  0  0  0
   18.7713   -4.9089  -18.1672 C   0  0  0  0  0  0  0  0  0  0  0  0
   17.3872   -4.9009  -18.7822 C   0  0  0  0  0  0  0  0  0  0  0  0
   17.2500   -3.8632  -19.8598 C   0  0  0  0  0  0  0  0  0  0  0  0
   15.8849   -3.8583  -20.3980 N   0  0  0  0  0  0  0  0  0  0  0  0
   20.7227   -4.8241  -15.9107 C   0  0  0  0  0  0  0  0  0  0  0  0
   20.5686   -4.7750  -14.6649 O   0  0  0  0  0  0  0  0  0  0  0  0
   21.2448   -3.6883  -16.5052 O   0  0  0  0  0  0  0  0  0  0  0  0
  2  1  1  0
  3  4  1  1
  3  2  1  0
  5  6  2  0
  5  3  1  0
  8  7  1  6
  8 10  1  0
  9  8  1  0
 10 11  1  6
 10 12  1  0
 11  5  1  0
 12 14  1  0
 13 12  2  0
 14 15  1  0
 15 21  1  0
 15 16  1  1
 17 16  1  0
 18 17  1  0
 19 18  1  0
 20 19  1  0
 21 22  2  0
 21 23  1  0
M  END
$$$$
