TMM.pdb
     RDKit          3D

 24 23  0  0  1  0  0  0  0  0999 V2000
    8.4923  -19.4987   18.7213 C   0  0  0  0  0  0  0  0  0  0  0  0
    8.8326  -18.7822   20.0248 C   0  0  1  0  0  0  0  0  0  0  0  0
   10.2203  -19.0589   20.2148 O   0  0  0  0  0  0  0  0  0  0  0  0
    8.7563  -17.2884   19.9037 C   0  0  2  0  0  0  0  0  0  0  0  0
    9.7279  -16.8262   18.8846 N   0  0  0  0  0  0  0  0  0  0  0  0
    9.0204  -16.5105   21.1017 C   0  0  0  0  0  0  0  0  0  0  0  0
   10.1871  -15.9866   21.2288 O   0  0  0  0  0  0  0  0  0  0  0  0
    5.9831  -12.9241   26.2737 C   0  0  0  0  0  0  0  0  0  0  0  0
    7.3876  -12.3185   25.2959 S   0  0  0  0  0  0  0  0  0  0  0  0
    7.4954  -13.2209   23.7153 C   0  0  0  0  0  0  0  0  0  0  0  0
    7.4493  -14.6816   23.9508 C   0  0  0  0  0  0  0  0  0  0  0  0
    8.5437  -15.5098   23.3859 C   0  0  2  0  0  0  0  0  0  0  0  0
    8.1571  -16.2334   22.1830 N   0  0  0  0  0  0  0  0  0  0  0  0
    9.2907  -16.3438   24.3164 C   0  0  0  0  0  0  0  0  0  0  0  0
    8.9096  -17.4480   24.7776 O   0  0  0  0  0  0  0  0  0  0  0  0
    9.6347  -13.4647   30.4844 C   0  0  0  0  0  0  0  0  0  0  0  0
   11.0207  -13.9766   29.5114 S   0  0  0  0  0  0  0  0  0  0  0  0
   10.8341  -15.4331   28.5027 C   0  0  0  0  0  0  0  0  0  0  0  0
   10.5210  -15.1774   27.0824 C   0  0  0  0  0  0  0  0  0  0  0  0
   11.0501  -16.1959   26.1444 C   0  0  2  0  0  0  0  0  0  0  0  0
   10.5659  -15.9108   24.7689 N   0  0  0  0  0  0  0  0  0  0  0  0
   10.8366  -17.5959   26.4857 C   0  0  0  0  0  0  0  0  0  0  0  0
    9.5014  -18.0348   26.6635 O   0  0  0  0  0  0  0  0  0  0  0  0
   11.7385  -18.4154   26.6283 O   0  0  0  0  0  0  0  0  0  0  0  0
  2  1  1  6
  2  3  1  0
  4  6  1  0
  4  2  1  0
  4  5  1  6
  6  7  2  0
  8  9  1  0
 10 11  1  0
 10  9  1  0
 12 11  1  1
 12 14  1  0
 13 12  1  0
 13  6  1  0
 14 21  1  0
 14 15  2  0
 16 17  1  0
 17 18  1  0
 18 19  1  0
 20 19  1  1
 20 22  1  0
 21 20  1  0
 22 24  2  0
 22 23  1  0
M  END
$$$$
