TMM.pdb
     RDKit          3D

 24 23  0  0  1  0  0  0  0  0999 V2000
    7.8402  -19.2897   21.1695 C   0  0  0  0  0  0  0  0  0  0  0  0
    8.7048  -18.6550   20.0842 C   0  0  1  0  0  0  0  0  0  0  0  0
    8.1634  -19.1734   18.8690 O   0  0  0  0  0  0  0  0  0  0  0  0
    8.5125  -17.1702   19.9826 C   0  0  2  0  0  0  0  0  0  0  0  0
    9.2710  -16.6533   18.8191 N   0  0  0  0  0  0  0  0  0  0  0  0
    8.9189  -16.3681   21.1235 C   0  0  0  0  0  0  0  0  0  0  0  0
   10.1694  -16.0995   21.2499 O   0  0  0  0  0  0  0  0  0  0  0  0
    5.3916  -13.1423   26.4165 C   0  0  0  0  0  0  0  0  0  0  0  0
    6.7794  -12.2726   25.6335 S   0  0  0  0  0  0  0  0  0  0  0  0
    8.0743  -13.4584   25.1422 C   0  0  0  0  0  0  0  0  0  0  0  0
    7.7336  -14.0870   23.8459 C   0  0  0  0  0  0  0  0  0  0  0  0
    8.6347  -15.1484   23.3321 C   0  0  2  0  0  0  0  0  0  0  0  0
    8.1180  -15.8199   22.1479 N   0  0  0  0  0  0  0  0  0  0  0  0
    9.1772  -16.0849   24.3058 C   0  0  0  0  0  0  0  0  0  0  0  0
    8.5228  -16.9638   24.9194 O   0  0  0  0  0  0  0  0  0  0  0  0
   10.0300  -13.0499   29.0497 C   0  0  0  0  0  0  0  0  0  0  0  0
   10.9706  -14.4674   29.5354 S   0  0  0  0  0  0  0  0  0  0  0  0
   11.2268  -15.7484   28.3242 C   0  0  0  0  0  0  0  0  0  0  0  0
   10.8503  -15.3902   26.9421 C   0  0  0  0  0  0  0  0  0  0  0  0
   11.0819  -16.4627   25.9454 C   0  0  2  0  0  0  0  0  0  0  0  0
   10.5619  -16.0369   24.6203 N   0  0  0  0  0  0  0  0  0  0  0  0
   10.6099  -17.8000   26.2786 C   0  0  0  0  0  0  0  0  0  0  0  0
    9.2562  -18.1099   25.9983 O   0  0  0  0  0  0  0  0  0  0  0  0
   11.3096  -18.6712   26.7850 O   0  0  0  0  0  0  0  0  0  0  0  0
  2  1  1  1
  2  3  1  0
  4  6  1  0
  4  2  1  0
  4  5  1  6
  6  7  2  0
  8  9  1  0
 10 11  1  0
 10  9  1  0
 12 11  1  1
 12 14  1  0
 13 12  1  0
 13  6  1  0
 14 21  1  0
 14 15  2  0
 16 17  1  0
 17 18  1  0
 18 19  1  0
 20 19  1  1
 20 22  1  0
 21 20  1  0
 22 24  2  0
 22 23  1  0
M  END
$$$$
