TMM.pdb
     RDKit          3D

 24 23  0  0  1  0  0  0  0  0999 V2000
    9.3317  -18.6171   18.7495 C   0  0  0  0  0  0  0  0  0  0  0  0
    9.4590  -18.0302   20.1522 C   0  0  1  0  0  0  0  0  0  0  0  0
   10.8540  -18.1303   20.4395 O   0  0  0  0  0  0  0  0  0  0  0  0
    9.1669  -16.5589   20.1952 C   0  0  2  0  0  0  0  0  0  0  0  0
   10.1674  -15.8336   19.3770 N   0  0  0  0  0  0  0  0  0  0  0  0
    9.1659  -15.9197   21.4995 C   0  0  0  0  0  0  0  0  0  0  0  0
   10.2634  -15.3880   21.9053 O   0  0  0  0  0  0  0  0  0  0  0  0
    6.9300  -11.2833   25.1121 C   0  0  0  0  0  0  0  0  0  0  0  0
    5.9882  -12.6718   25.8057 S   0  0  0  0  0  0  0  0  0  0  0  0
    6.9591  -14.2114   25.7007 C   0  0  0  0  0  0  0  0  0  0  0  0
    6.9545  -14.7310   24.3145 C   0  0  0  0  0  0  0  0  0  0  0  0
    8.2329  -15.2441   23.7622 C   0  0  2  0  0  0  0  0  0  0  0  0
    8.1028  -15.7895   22.4184 N   0  0  0  0  0  0  0  0  0  0  0  0
    9.0340  -16.0962   24.6291 C   0  0  0  0  0  0  0  0  0  0  0  0
    8.9729  -17.3494   24.6829 O   0  0  0  0  0  0  0  0  0  0  0  0
   10.6659  -13.3626   30.3720 C   0  0  0  0  0  0  0  0  0  0  0  0
   11.3140  -15.0051   30.4816 S   0  0  0  0  0  0  0  0  0  0  0  0
   11.1862  -16.0457   29.0413 C   0  0  0  0  0  0  0  0  0  0  0  0
   10.7131  -15.3686   27.8173 C   0  0  0  0  0  0  0  0  0  0  0  0
   10.5853  -16.2548   26.6360 C   0  0  2  0  0  0  0  0  0  0  0  0
    9.9797  -15.5019   25.5072 N   0  0  0  0  0  0  0  0  0  0  0  0
    9.9086  -17.5308   26.8260 C   0  0  0  0  0  0  0  0  0  0  0  0
   10.7068  -18.7006   26.8660 O   0  0  0  0  0  0  0  0  0  0  0  0
    8.6946  -17.6544   26.9532 O   0  0  0  0  0  0  0  0  0  0  0  0
  2  1  1  6
  2  3  1  0
  4  6  1  0
  4  2  1  0
  4  5  1  6
  6  7  2  0
  8  9  1  0
 10 11  1  0
 10  9  1  0
 12 11  1  1
 12 14  1  0
 13 12  1  0
 13  6  1  0
 14 21  1  0
 14 15  2  0
 16 17  1  0
 17 18  1  0
 18 19  1  0
 20 19  1  1
 20 22  1  0
 21 20  1  0
 22 24  2  0
 22 23  1  0
M  END
$$$$
