TMM.pdb
     RDKit          3D

 24 23  0  0  1  0  0  0  0  0999 V2000
    7.4339  -18.7931   18.6778 C   0  0  0  0  0  0  0  0  0  0  0  0
    7.7907  -18.2054   20.0400 C   0  0  1  0  0  0  0  0  0  0  0  0
    8.9615  -18.9250   20.4268 O   0  0  0  0  0  0  0  0  0  0  0  0
    8.2345  -16.7743   19.9571 C   0  0  2  0  0  0  0  0  0  0  0  0
    9.4308  -16.6787   19.0876 N   0  0  0  0  0  0  0  0  0  0  0  0
    8.5818  -16.1133   21.2031 C   0  0  0  0  0  0  0  0  0  0  0  0
    9.8200  -15.8362   21.4075 O   0  0  0  0  0  0  0  0  0  0  0  0
    6.5938  -11.1845   26.9574 C   0  0  0  0  0  0  0  0  0  0  0  0
    6.0434  -12.6591   26.0529 S   0  0  0  0  0  0  0  0  0  0  0  0
    7.4794  -13.5842   25.4154 C   0  0  0  0  0  0  0  0  0  0  0  0
    7.1389  -14.2491   24.1373 C   0  0  0  0  0  0  0  0  0  0  0  0
    8.1844  -15.0778   23.4870 C   0  0  2  0  0  0  0  0  0  0  0  0
    7.7333  -15.7151   22.2580 N   0  0  0  0  0  0  0  0  0  0  0  0
    8.9318  -15.9904   24.3404 C   0  0  0  0  0  0  0  0  0  0  0  0
    8.4694  -17.0177   24.8953 O   0  0  0  0  0  0  0  0  0  0  0  0
    9.6619  -13.2834   29.3878 C   0  0  0  0  0  0  0  0  0  0  0  0
   10.3533  -14.8815   29.7008 S   0  0  0  0  0  0  0  0  0  0  0  0
   10.9798  -15.8018   28.3100 C   0  0  0  0  0  0  0  0  0  0  0  0
   10.4074  -15.4287   27.0010 C   0  0  0  0  0  0  0  0  0  0  0  0
   10.9673  -16.1772   25.8505 C   0  0  2  0  0  0  0  0  0  0  0  0
   10.3061  -15.7359   24.5952 N   0  0  0  0  0  0  0  0  0  0  0  0
   10.9830  -17.6310   25.9410 C   0  0  0  0  0  0  0  0  0  0  0  0
   10.1093  -18.3537   25.0915 O   0  0  0  0  0  0  0  0  0  0  0  0
   11.7033  -18.2659   26.7046 O   0  0  0  0  0  0  0  0  0  0  0  0
  2  1  1  6
  2  3  1  0
  4  6  1  0
  4  2  1  0
  4  5  1  6
  6  7  2  0
  8  9  1  0
 10 11  1  0
 10  9  1  0
 12 11  1  1
 12 14  1  0
 13 12  1  0
 13  6  1  0
 14 21  1  0
 14 15  2  0
 16 17  1  0
 17 18  1  0
 18 19  1  0
 20 19  1  1
 20 22  1  0
 21 20  1  0
 22 24  2  0
 22 23  1  0
M  END
$$$$
