TMM.pdb
     RDKit          3D

 24 23  0  0  1  0  0  0  0  0999 V2000
    7.9250  -14.5753   17.3802 C   0  0  0  0  0  0  0  0  0  0  0  0
    8.3248  -14.7019   18.8473 C   0  0  1  0  0  0  0  0  0  0  0  0
    9.7480  -14.5903   18.8247 O   0  0  0  0  0  0  0  0  0  0  0  0
    7.8658  -13.5389   19.6770 C   0  0  2  0  0  0  0  0  0  0  0  0
    8.4775  -12.2922   19.1595 N   0  0  0  0  0  0  0  0  0  0  0  0
    8.1618  -13.5790   21.0985 C   0  0  0  0  0  0  0  0  0  0  0  0
    9.3611  -13.3005   21.4672 O   0  0  0  0  0  0  0  0  0  0  0  0
    6.1090  -11.2976   26.1071 C   0  0  0  0  0  0  0  0  0  0  0  0
    6.1624  -12.8884   26.9800 S   0  0  0  0  0  0  0  0  0  0  0  0
    7.0265  -14.1367   25.9703 C   0  0  0  0  0  0  0  0  0  0  0  0
    6.6642  -13.9866   24.5429 C   0  0  0  0  0  0  0  0  0  0  0  0
    7.7376  -14.1619   23.5330 C   0  0  2  0  0  0  0  0  0  0  0  0
    7.2992  -13.8873   22.1720 N   0  0  0  0  0  0  0  0  0  0  0  0
    8.5383  -15.3745   23.6216 C   0  0  0  0  0  0  0  0  0  0  0  0
    9.1177  -15.9407   22.6619 O   0  0  0  0  0  0  0  0  0  0  0  0
   10.4196  -13.5571   29.3448 C   0  0  0  0  0  0  0  0  0  0  0  0
   11.6027  -14.8269   29.0018 S   0  0  0  0  0  0  0  0  0  0  0  0
   11.4310  -15.7313   27.4766 C   0  0  0  0  0  0  0  0  0  0  0  0
   10.1986  -15.4484   26.7141 C   0  0  0  0  0  0  0  0  0  0  0  0
   10.0501  -16.2422   25.4711 C   0  0  2  0  0  0  0  0  0  0  0  0
    8.7061  -16.0065   24.8829 N   0  0  0  0  0  0  0  0  0  0  0  0
   10.3353  -17.6686   25.5492 C   0  0  0  0  0  0  0  0  0  0  0  0
    9.2957  -18.5682   25.2073 O   0  0  0  0  0  0  0  0  0  0  0  0
   11.4162  -18.1372   25.8915 O   0  0  0  0  0  0  0  0  0  0  0  0
  2  1  1  6
  2  3  1  0
  4  6  1  0
  4  2  1  0
  4  5  1  6
  6  7  2  0
  8  9  1  0
 10 11  1  0
 10  9  1  0
 12 11  1  1
 12 14  1  0
 13 12  1  0
 13  6  1  0
 14 21  1  0
 14 15  2  0
 16 17  1  0
 17 18  1  0
 18 19  1  0
 20 19  1  1
 20 22  1  0
 21 20  1  0
 22 24  2  0
 22 23  1  0
M  END
$$$$
