TMM.pdb
     RDKit          3D

 24 23  0  0  1  0  0  0  0  0999 V2000
   12.7462  -16.1995   19.3865 C   0  0  0  0  0  0  0  0  0  0  0  0
   11.3363  -16.5768   18.9417 C   0  0  1  0  0  0  0  0  0  0  0  0
   11.5499  -17.5210   17.8923 O   0  0  0  0  0  0  0  0  0  0  0  0
   10.5807  -17.3390   19.9905 C   0  0  2  0  0  0  0  0  0  0  0  0
    9.3236  -17.8650   19.4079 N   0  0  0  0  0  0  0  0  0  0  0  0
   10.2024  -16.6173   21.1930 C   0  0  0  0  0  0  0  0  0  0  0  0
   11.1437  -16.1134   21.9085 O   0  0  0  0  0  0  0  0  0  0  0  0
    6.6472  -11.9895   25.7237 C   0  0  0  0  0  0  0  0  0  0  0  0
    7.1600  -12.8796   24.2269 S   0  0  0  0  0  0  0  0  0  0  0  0
    6.8153  -14.6616   24.3998 C   0  0  0  0  0  0  0  0  0  0  0  0
    7.2012  -15.3839   23.1666 C   0  0  0  0  0  0  0  0  0  0  0  0
    8.6372  -15.7041   22.9714 C   0  0  2  0  0  0  0  0  0  0  0  0
    8.9114  -16.3773   21.7098 N   0  0  0  0  0  0  0  0  0  0  0  0
    9.3361  -16.3205   24.0899 C   0  0  0  0  0  0  0  0  0  0  0  0
    9.5679  -17.5478   24.2213 O   0  0  0  0  0  0  0  0  0  0  0  0
   10.4575  -12.8663   29.9573 C   0  0  0  0  0  0  0  0  0  0  0  0
   10.4566  -14.6177   30.2075 S   0  0  0  0  0  0  0  0  0  0  0  0
   10.7733  -15.6578   28.7963 C   0  0  0  0  0  0  0  0  0  0  0  0
   10.1956  -15.1822   27.5233 C   0  0  0  0  0  0  0  0  0  0  0  0
   10.4384  -16.0772   26.3669 C   0  0  2  0  0  0  0  0  0  0  0  0
    9.8149  -15.5013   25.1473 N   0  0  0  0  0  0  0  0  0  0  0  0
   10.0754  -17.4799   26.5177 C   0  0  0  0  0  0  0  0  0  0  0  0
   11.1139  -18.4035   26.7927 O   0  0  0  0  0  0  0  0  0  0  0  0
    8.9302  -17.9092   26.4216 O   0  0  0  0  0  0  0  0  0  0  0  0
  2  1  1  1
  2  3  1  0
  4  6  1  0
  4  2  1  0
  4  5  1  6
  6  7  2  0
  8  9  1  0
 10 11  1  0
 10  9  1  0
 12 11  1  1
 12 14  1  0
 13 12  1  0
 13  6  1  0
 14 21  1  0
 14 15  2  0
 16 17  1  0
 17 18  1  0
 18 19  1  0
 20 19  1  1
 20 22  1  0
 21 20  1  0
 22 24  2  0
 22 23  1  0
M  END
$$$$
