TMM.pdb
     RDKit          3D

 24 23  0  0  1  0  0  0  0  0999 V2000
    8.3472  -18.7893   18.3318 C   0  0  0  0  0  0  0  0  0  0  0  0
    8.7582  -18.2450   19.6967 C   0  0  1  0  0  0  0  0  0  0  0  0
   10.1813  -18.3602   19.6965 O   0  0  0  0  0  0  0  0  0  0  0  0
    8.4963  -16.7742   19.8386 C   0  0  2  0  0  0  0  0  0  0  0  0
    9.3020  -16.0315   18.8408 N   0  0  0  0  0  0  0  0  0  0  0  0
    8.7844  -16.1694   21.1274 C   0  0  0  0  0  0  0  0  0  0  0  0
    9.8965  -15.5383   21.2561 O   0  0  0  0  0  0  0  0  0  0  0  0
    6.0730  -12.3309   26.2569 C   0  0  0  0  0  0  0  0  0  0  0  0
    7.3099  -12.1559   24.9396 S   0  0  0  0  0  0  0  0  0  0  0  0
    7.0565  -13.4289   23.6592 C   0  0  0  0  0  0  0  0  0  0  0  0
    7.3323  -14.7755   24.2086 C   0  0  0  0  0  0  0  0  0  0  0  0
    8.4020  -15.5802   23.5673 C   0  0  2  0  0  0  0  0  0  0  0  0
    7.9977  -16.1702   22.2990 N   0  0  0  0  0  0  0  0  0  0  0  0
    9.1171  -16.5249   24.4132 C   0  0  0  0  0  0  0  0  0  0  0  0
    8.6609  -17.6132   24.8431 O   0  0  0  0  0  0  0  0  0  0  0  0
    9.4059  -13.1461   29.1387 C   0  0  0  0  0  0  0  0  0  0  0  0
   10.6680  -14.2942   29.6069 S   0  0  0  0  0  0  0  0  0  0  0  0
   11.0147  -15.6444   28.4977 C   0  0  0  0  0  0  0  0  0  0  0  0
   10.6361  -15.4132   27.0893 C   0  0  0  0  0  0  0  0  0  0  0  0
   10.9463  -16.5399   26.1775 C   0  0  2  0  0  0  0  0  0  0  0  0
   10.4488  -16.2317   24.8117 N   0  0  0  0  0  0  0  0  0  0  0  0
   10.5247  -17.8716   26.5909 C   0  0  0  0  0  0  0  0  0  0  0  0
   11.5262  -18.7751   27.0244 O   0  0  0  0  0  0  0  0  0  0  0  0
    9.3602  -18.2577   26.5868 O   0  0  0  0  0  0  0  0  0  0  0  0
  2  1  1  6
  2  3  1  0
  4  6  1  0
  4  2  1  0
  4  5  1  6
  6  7  2  0
  8  9  1  0
 10 11  1  0
 10  9  1  0
 12 11  1  1
 12 14  1  0
 13 12  1  0
 13  6  1  0
 14 21  1  0
 14 15  2  0
 16 17  1  0
 17 18  1  0
 18 19  1  0
 20 19  1  1
 20 22  1  0
 21 20  1  0
 22 24  2  0
 22 23  1  0
M  END
$$$$
