TMM.pdb
     RDKit          3D

 24 23  0  0  1  0  0  0  0  0999 V2000
    8.3301  -19.2705   20.9787 C   0  0  0  0  0  0  0  0  0  0  0  0
    9.3382  -18.6488   20.0168 C   0  0  1  0  0  0  0  0  0  0  0  0
    8.9421  -19.1454   18.7382 O   0  0  0  0  0  0  0  0  0  0  0  0
    9.1940  -17.1591   19.9069 C   0  0  2  0  0  0  0  0  0  0  0  0
   10.1410  -16.6459   18.8890 N   0  0  0  0  0  0  0  0  0  0  0  0
    9.4258  -16.3787   21.1099 C   0  0  0  0  0  0  0  0  0  0  0  0
   10.6434  -16.1144   21.4254 O   0  0  0  0  0  0  0  0  0  0  0  0
    6.7318  -11.8579   27.1375 C   0  0  0  0  0  0  0  0  0  0  0  0
    6.5334  -12.5858   25.4863 S   0  0  0  0  0  0  0  0  0  0  0  0
    7.9347  -13.6889   25.1074 C   0  0  0  0  0  0  0  0  0  0  0  0
    7.8112  -14.2269   23.7338 C   0  0  0  0  0  0  0  0  0  0  0  0
    8.8140  -15.2262   23.2880 C   0  0  2  0  0  0  0  0  0  0  0  0
    8.4812  -15.8481   22.0141 N   0  0  0  0  0  0  0  0  0  0  0  0
    9.2662  -16.1962   24.2749 C   0  0  0  0  0  0  0  0  0  0  0  0
    8.5276  -16.9725   24.9299 O   0  0  0  0  0  0  0  0  0  0  0  0
    9.3196  -14.0286   30.1238 C   0  0  0  0  0  0  0  0  0  0  0  0
   10.7980  -13.9618   29.1545 S   0  0  0  0  0  0  0  0  0  0  0  0
   11.2088  -15.3871   28.1679 C   0  0  0  0  0  0  0  0  0  0  0  0
   10.9170  -15.2582   26.7262 C   0  0  0  0  0  0  0  0  0  0  0  0
   11.1664  -16.4880   25.9371 C   0  0  2  0  0  0  0  0  0  0  0  0
   10.6547  -16.3089   24.5537 N   0  0  0  0  0  0  0  0  0  0  0  0
   10.7026  -17.7496   26.4986 C   0  0  0  0  0  0  0  0  0  0  0  0
    9.3455  -18.1022   26.2953 O   0  0  0  0  0  0  0  0  0  0  0  0
   11.4119  -18.5229   27.1344 O   0  0  0  0  0  0  0  0  0  0  0  0
  2  1  1  1
  2  3  1  0
  4  6  1  0
  4  2  1  0
  4  5  1  6
  6  7  2  0
  8  9  1  0
 10 11  1  0
 10  9  1  0
 12 11  1  1
 12 14  1  0
 13 12  1  0
 13  6  1  0
 14 21  1  0
 14 15  2  0
 16 17  1  0
 17 18  1  0
 18 19  1  0
 20 19  1  1
 20 22  1  0
 21 20  1  0
 22 24  2  0
 22 23  1  0
M  END
$$$$
