TMM.pdb
     RDKit          3D

 24 23  0  0  1  0  0  0  0  0999 V2000
    8.0136  -18.6426   18.8585 C   0  0  0  0  0  0  0  0  0  0  0  0
    8.2461  -18.0685   20.2530 C   0  0  1  0  0  0  0  0  0  0  0  0
    9.4290  -18.7298   20.7022 O   0  0  0  0  0  0  0  0  0  0  0  0
    8.6106  -16.6130   20.2286 C   0  0  2  0  0  0  0  0  0  0  0  0
    9.8817  -16.4354   19.4875 N   0  0  0  0  0  0  0  0  0  0  0  0
    8.7893  -15.9514   21.5093 C   0  0  0  0  0  0  0  0  0  0  0  0
    9.9898  -15.6791   21.8789 O   0  0  0  0  0  0  0  0  0  0  0  0
    6.3325  -11.1880   25.6112 C   0  0  0  0  0  0  0  0  0  0  0  0
    7.6660  -12.3508   26.0179 S   0  0  0  0  0  0  0  0  0  0  0  0
    7.0722  -14.0692   25.8801 C   0  0  0  0  0  0  0  0  0  0  0  0
    6.9325  -14.4544   24.4576 C   0  0  0  0  0  0  0  0  0  0  0  0
    8.0865  -15.1198   23.8030 C   0  0  2  0  0  0  0  0  0  0  0  0
    7.8078  -15.5478   22.4395 N   0  0  0  0  0  0  0  0  0  0  0  0
    8.7848  -16.1407   24.5708 C   0  0  0  0  0  0  0  0  0  0  0  0
    8.2426  -17.0866   25.1940 O   0  0  0  0  0  0  0  0  0  0  0  0
    9.9003  -14.2306   30.9212 C   0  0  0  0  0  0  0  0  0  0  0  0
   10.4183  -13.8082   29.2831 S   0  0  0  0  0  0  0  0  0  0  0  0
   10.9545  -15.1297   28.2155 C   0  0  0  0  0  0  0  0  0  0  0  0
   10.4333  -15.0725   26.8351 C   0  0  0  0  0  0  0  0  0  0  0  0
   10.9194  -16.1576   25.9500 C   0  0  2  0  0  0  0  0  0  0  0  0
   10.2029  -16.1032   24.6495 N   0  0  0  0  0  0  0  0  0  0  0  0
   10.9126  -17.5123   26.4856 C   0  0  0  0  0  0  0  0  0  0  0  0
    9.6933  -18.2324   26.4415 O   0  0  0  0  0  0  0  0  0  0  0  0
   11.8941  -18.0662   26.9706 O   0  0  0  0  0  0  0  0  0  0  0  0
  2  1  1  6
  2  3  1  0
  4  6  1  0
  4  2  1  0
  4  5  1  6
  6  7  2  0
  8  9  1  0
 10 11  1  0
 10  9  1  0
 12 11  1  1
 12 14  1  0
 13 12  1  0
 13  6  1  0
 14 21  1  0
 14 15  2  0
 16 17  1  0
 17 18  1  0
 18 19  1  0
 20 19  1  1
 20 22  1  0
 21 20  1  0
 22 24  2  0
 22 23  1  0
M  END
$$$$
