TMM.pdb
     RDKit          3D

 24 23  0  0  1  0  0  0  0  0999 V2000
    7.7613  -18.8635   18.8758 C   0  0  0  0  0  0  0  0  0  0  0  0
    8.1353  -18.2246   20.2100 C   0  0  1  0  0  0  0  0  0  0  0  0
    9.4276  -18.7604   20.4954 O   0  0  0  0  0  0  0  0  0  0  0  0
    8.3531  -16.7436   20.1042 C   0  0  2  0  0  0  0  0  0  0  0  0
    9.4732  -16.4754   19.1716 N   0  0  0  0  0  0  0  0  0  0  0  0
    8.6627  -16.0284   21.3300 C   0  0  0  0  0  0  0  0  0  0  0  0
    9.8706  -15.6218   21.4958 O   0  0  0  0  0  0  0  0  0  0  0  0
    6.5785  -10.8633   25.9363 C   0  0  0  0  0  0  0  0  0  0  0  0
    6.1194  -12.6050   26.1628 S   0  0  0  0  0  0  0  0  0  0  0  0
    7.4827  -13.6938   25.6334 C   0  0  0  0  0  0  0  0  0  0  0  0
    7.1619  -14.3283   24.3350 C   0  0  0  0  0  0  0  0  0  0  0  0
    8.2379  -15.0865   23.6492 C   0  0  2  0  0  0  0  0  0  0  0  0
    7.8054  -15.7010   22.4021 N   0  0  0  0  0  0  0  0  0  0  0  0
    9.0325  -15.9931   24.4654 C   0  0  0  0  0  0  0  0  0  0  0  0
    8.6796  -17.1376   24.8432 O   0  0  0  0  0  0  0  0  0  0  0  0
   10.2998  -12.8243   28.6552 C   0  0  0  0  0  0  0  0  0  0  0  0
   10.2620  -14.4694   29.3048 S   0  0  0  0  0  0  0  0  0  0  0  0
   10.4080  -15.8204   28.1527 C   0  0  0  0  0  0  0  0  0  0  0  0
   11.3958  -15.6212   27.0734 C   0  0  0  0  0  0  0  0  0  0  0  0
   11.1277  -16.4046   25.8439 C   0  0  2  0  0  0  0  0  0  0  0  0
   10.3254  -15.5900   24.8949 N   0  0  0  0  0  0  0  0  0  0  0  0
   10.5433  -17.7289   26.0076 C   0  0  0  0  0  0  0  0  0  0  0  0
    9.1457  -17.8608   25.8165 O   0  0  0  0  0  0  0  0  0  0  0  0
   11.1844  -18.7334   26.2996 O   0  0  0  0  0  0  0  0  0  0  0  0
  2  1  1  6
  2  3  1  0
  4  6  1  0
  4  2  1  0
  4  5  1  6
  6  7  2  0
  8  9  1  0
 10 11  1  0
 10  9  1  0
 12 11  1  1
 12 14  1  0
 13 12  1  0
 13  6  1  0
 14 21  1  0
 14 15  2  0
 16 17  1  0
 17 18  1  0
 18 19  1  0
 20 19  1  1
 20 22  1  0
 21 20  1  0
 22 24  2  0
 22 23  1  0
M  END
$$$$
