QTD.pdb
     RDKit          3D

 25 24  0  0  1  0  0  0  0  0999 V2000
   17.5373  -15.6157  -14.8394 N   0  0  0  0  0  0  0  0  0  0  0  0
   16.8270  -15.1512  -15.9907 C   0  0  0  0  0  0  0  0  0  0  0  0
   15.8910  -15.8832  -16.4122 O   0  0  0  0  0  0  0  0  0  0  0  0
   17.1956  -13.8751  -16.6280 C   0  0  0  0  0  0  0  0  0  0  0  0
   18.2616  -13.1015  -15.9347 C   0  0  0  0  0  0  0  0  0  0  0  0
   18.5522  -11.7493  -16.5283 C   0  0  2  0  0  0  0  0  0  0  0  0
   18.9173  -11.8413  -17.9291 N   0  0  0  0  0  0  0  0  0  0  0  0
   19.5401  -10.9960  -15.7392 C   0  0  0  0  0  0  0  0  0  0  0  0
   19.4649  -11.0333  -14.4888 O   0  0  0  0  0  0  0  0  0  0  0  0
   23.8902   -9.0596  -14.7485 C   0  0  0  0  0  0  0  0  0  0  0  0
   22.9620   -9.9061  -15.6012 C   0  0  1  0  0  0  0  0  0  0  0  0
   23.2016  -11.2625  -15.4433 O   0  0  0  0  0  0  0  0  0  0  0  0
   21.5301   -9.5249  -15.4478 C   0  0  2  0  0  0  0  0  0  0  0  0
   20.5945  -10.2127  -16.2573 N   0  0  0  0  0  0  0  0  0  0  0  0
   21.4362   -8.0434  -15.6560 C   0  0  0  0  0  0  0  0  0  0  0  0
   21.6246   -7.5353  -16.8054 O   0  0  0  0  0  0  0  0  0  0  0  0
   21.1387   -7.1218  -14.6200 N   0  0  0  0  0  0  0  0  0  0  0  0
   21.1388   -5.6843  -14.8200 C   0  0  1  0  0  0  0  0  0  0  0  0
   19.7275   -5.2042  -14.5720 C   0  0  0  0  0  0  0  0  0  0  0  0
   19.5787   -3.7532  -14.8192 C   0  0  0  0  0  0  0  0  0  0  0  0
   19.9997   -3.1522  -15.8355 O   0  0  0  0  0  0  0  0  0  0  0  0
   21.9926   -4.9978  -13.8156 C   0  0  0  0  0  0  0  0  0  0  0  0
   22.3196   -3.8088  -14.0429 O   0  0  0  0  0  0  0  0  0  0  0  0
   18.9175   -3.0177  -13.8349 O   0  0  0  0  0  0  0  0  0  0  0  0
   22.4467   -5.5859  -12.6513 O   0  0  0  0  0  0  0  0  0  0  0  0
  2  1  1  0
  2  3  2  0
  4  2  1  0
  5  4  1  0
  6  5  1  0
  6  8  1  0
  6  7  1  6
  8  9  2  0
 11 10  1  1
 12 11  1  0
 13 11  1  0
 14  8  1  0
 13 14  1  6
 15 16  2  0
 15 13  1  0
 17 15  1  0
 18 17  1  0
 19 20  1  0
 18 19  1  1
 20 21  2  0
 22 18  1  0
 22 25  1  0
 23 22  2  0
 24 20  1  0
M  END
$$$$
