QTD.pdb
     RDKit          3D

 25 24  0  0  1  0  0  0  0  0999 V2000
   12.6785   -7.8938  -13.5019 N   0  0  0  0  0  0  0  0  0  0  0  0
   12.2651   -8.5846  -14.6841 C   0  0  0  0  0  0  0  0  0  0  0  0
   11.0251   -8.6342  -14.9067 O   0  0  0  0  0  0  0  0  0  0  0  0
   13.2648   -9.1961  -15.5770 C   0  0  0  0  0  0  0  0  0  0  0  0
   14.6851   -8.9494  -15.2063 C   0  0  0  0  0  0  0  0  0  0  0  0
   15.5834  -10.1535  -15.2997 C   0  0  2  0  0  0  0  0  0  0  0  0
   15.0056  -11.3107  -14.6431 N   0  0  0  0  0  0  0  0  0  0  0  0
   16.9488   -9.8664  -14.8318 C   0  0  0  0  0  0  0  0  0  0  0  0
   17.2729  -10.2162  -13.6729 O   0  0  0  0  0  0  0  0  0  0  0  0
   21.7355   -9.4928  -15.1879 C   0  0  0  0  0  0  0  0  0  0  0  0
   20.3497   -9.8648  -15.6845 C   0  0  1  0  0  0  0  0  0  0  0  0
   20.1090  -11.2266  -15.5857 O   0  0  0  0  0  0  0  0  0  0  0  0
   19.2777   -9.0183  -15.0900 C   0  0  2  0  0  0  0  0  0  0  0  0
   17.9621   -9.2194  -15.5724 N   0  0  0  0  0  0  0  0  0  0  0  0
   19.6968   -7.5878  -15.2487 C   0  0  0  0  0  0  0  0  0  0  0  0
   19.2333   -6.8757  -16.1936 O   0  0  0  0  0  0  0  0  0  0  0  0
   20.6137   -6.9374  -14.3843 N   0  0  0  0  0  0  0  0  0  0  0  0
   21.0299   -5.5594  -14.5697 C   0  0  1  0  0  0  0  0  0  0  0  0
   19.8141   -4.6949  -14.3284 C   0  0  0  0  0  0  0  0  0  0  0  0
   20.1111   -3.2545  -14.4888 C   0  0  0  0  0  0  0  0  0  0  0  0
   21.1779   -2.7901  -14.9552 O   0  0  0  0  0  0  0  0  0  0  0  0
   22.0344   -5.1553  -13.5516 C   0  0  0  0  0  0  0  0  0  0  0  0
   22.1216   -5.8487  -12.5105 O   0  0  0  0  0  0  0  0  0  0  0  0
   19.1159   -2.3640  -14.0843 O   0  0  0  0  0  0  0  0  0  0  0  0
   22.8751   -4.0669  -13.6802 O   0  0  0  0  0  0  0  0  0  0  0  0
  2  1  1  0
  2  3  2  0
  4  2  1  0
  5  4  1  0
  6  5  1  0
  6  8  1  0
  6  7  1  1
  8  9  2  0
 11 10  1  1
 12 11  1  0
 13 11  1  0
 14  8  1  0
 13 14  1  6
 15 16  2  0
 15 13  1  0
 17 15  1  0
 18 17  1  0
 19 20  1  0
 18 19  1  1
 20 21  2  0
 22 18  1  0
 22 25  1  0
 23 22  2  0
 24 20  1  0
M  END
$$$$
