QTD.pdb
     RDKit          3D

 25 24  0  0  1  0  0  0  0  0999 V2000
   23.4958  -21.3630   -7.6954 N   0  0  0  0  0  0  0  0  0  0  0  0
   24.0476  -20.6887   -8.8297 C   0  0  0  0  0  0  0  0  0  0  0  0
   23.2468  -20.0148   -9.5327 O   0  0  0  0  0  0  0  0  0  0  0  0
   25.4853  -20.7962   -9.1328 C   0  0  0  0  0  0  0  0  0  0  0  0
   25.9119  -20.1857  -10.4215 C   0  0  0  0  0  0  0  0  0  0  0  0
   25.9326  -21.1289  -11.5942 C   0  0  2  0  0  0  0  0  0  0  0  0
   27.2729  -21.6020  -11.8834 N   0  0  0  0  0  0  0  0  0  0  0  0
   25.2711  -20.5585  -12.7786 C   0  0  0  0  0  0  0  0  0  0  0  0
   25.8704  -19.6744  -13.4341 O   0  0  0  0  0  0  0  0  0  0  0  0
   24.9739  -21.5839  -16.1093 C   0  0  0  0  0  0  0  0  0  0  0  0
   23.5443  -21.3251  -15.6681 C   0  0  1  0  0  0  0  0  0  0  0  0
   22.8206  -22.4998  -15.5313 O   0  0  0  0  0  0  0  0  0  0  0  0
   23.4602  -20.4238  -14.4850 C   0  0  2  0  0  0  0  0  0  0  0  0
   23.9951  -20.9123  -13.2689 N   0  0  0  0  0  0  0  0  0  0  0  0
   22.0226  -20.0316  -14.3221 C   0  0  0  0  0  0  0  0  0  0  0  0
   21.5151  -19.8876  -13.1660 O   0  0  0  0  0  0  0  0  0  0  0  0
   21.1440  -19.7975  -15.4103 N   0  0  0  0  0  0  0  0  0  0  0  0
   19.7867  -19.3135  -15.2374 C   0  0  1  0  0  0  0  0  0  0  0  0
   19.8855  -17.8813  -14.7655 C   0  0  0  0  0  0  0  0  0  0  0  0
   18.5603  -17.2307  -14.6711 C   0  0  0  0  0  0  0  0  0  0  0  0
   17.5413  -17.7504  -14.1584 O   0  0  0  0  0  0  0  0  0  0  0  0
   19.0567  -19.2740  -16.5314 C   0  0  0  0  0  0  0  0  0  0  0  0
   19.7305  -19.1155  -17.5770 O   0  0  0  0  0  0  0  0  0  0  0  0
   18.4592  -15.9427  -15.1984 O   0  0  0  0  0  0  0  0  0  0  0  0
   17.6867  -19.4006  -16.6537 O   0  0  0  0  0  0  0  0  0  0  0  0
  2  1  1  0
  2  3  2  0
  4  2  1  0
  5  4  1  0
  6  5  1  0
  6  8  1  0
  6  7  1  6
  8  9  2  0
 11 10  1  1
 12 11  1  0
 13 11  1  0
 14  8  1  0
 13 14  1  1
 15 16  2  0
 15 13  1  0
 17 15  1  0
 18 17  1  0
 19 20  1  0
 18 19  1  6
 20 21  2  0
 22 18  1  0
 22 25  1  0
 23 22  2  0
 24 20  1  0
M  END
$$$$
