QTD.pdb
     RDKit          3D

 25 24  0  0  1  0  0  0  0  0999 V2000
   21.7150  -14.4360  -20.9569 N   0  0  0  0  0  0  0  0  0  0  0  0
   20.9297  -13.3904  -20.3773 C   0  0  0  0  0  0  0  0  0  0  0  0
   20.8490  -12.3146  -21.0297 O   0  0  0  0  0  0  0  0  0  0  0  0
   20.2602  -13.5937  -19.0807 C   0  0  0  0  0  0  0  0  0  0  0  0
   20.6328  -12.6259  -18.0130 C   0  0  0  0  0  0  0  0  0  0  0  0
   22.0120  -12.8131  -17.4403 C   0  0  2  0  0  0  0  0  0  0  0  0
   22.1782  -14.1279  -16.8506 N   0  0  0  0  0  0  0  0  0  0  0  0
   22.3808  -11.7315  -16.5129 C   0  0  0  0  0  0  0  0  0  0  0  0
   21.8070  -11.6722  -15.4003 O   0  0  0  0  0  0  0  0  0  0  0  0
   25.9832  -10.7447  -15.2871 C   0  0  0  0  0  0  0  0  0  0  0  0
   25.1896   -9.5016  -15.6478 C   0  0  1  0  0  0  0  0  0  0  0  0
   25.7389   -8.8279  -16.7279 O   0  0  0  0  0  0  0  0  0  0  0  0
   23.7301   -9.7681  -15.7823 C   0  0  2  0  0  0  0  0  0  0  0  0
   23.3407  -10.7238  -16.7512 N   0  0  0  0  0  0  0  0  0  0  0  0
   23.0547   -8.4516  -16.0225 C   0  0  0  0  0  0  0  0  0  0  0  0
   22.5750   -8.1658  -17.1640 O   0  0  0  0  0  0  0  0  0  0  0  0
   22.9022   -7.4536  -15.0266 N   0  0  0  0  0  0  0  0  0  0  0  0
   22.2400   -6.1864  -15.2756 C   0  0  1  0  0  0  0  0  0  0  0  0
   20.7563   -6.4677  -15.3335 C   0  0  0  0  0  0  0  0  0  0  0  0
   19.9596   -5.2339  -15.5115 C   0  0  0  0  0  0  0  0  0  0  0  0
   20.3800   -4.1795  -16.0433 O   0  0  0  0  0  0  0  0  0  0  0  0
   22.4386   -5.2404  -14.1466 C   0  0  0  0  0  0  0  0  0  0  0  0
   22.1697   -4.0317  -14.3440 O   0  0  0  0  0  0  0  0  0  0  0  0
   18.6448   -5.2683  -15.0455 O   0  0  0  0  0  0  0  0  0  0  0  0
   22.8995   -5.6085  -12.8977 O   0  0  0  0  0  0  0  0  0  0  0  0
  2  1  1  0
  2  3  2  0
  4  2  1  0
  5  4  1  0
  6  5  1  0
  6  8  1  0
  6  7  1  1
  8  9  2  0
 11 10  1  6
 12 11  1  0
 13 11  1  0
 14  8  1  0
 13 14  1  6
 15 16  2  0
 15 13  1  0
 17 15  1  0
 18 17  1  0
 19 20  1  0
 18 19  1  1
 20 21  2  0
 22 18  1  0
 22 25  1  0
 23 22  2  0
 24 20  1  0
M  END
$$$$
