QTD.pdb
     RDKit          3D

 25 24  0  0  1  0  0  0  0  0999 V2000
   15.5645  -11.6173  -12.9799 N   0  0  0  0  0  0  0  0  0  0  0  0
   14.9377  -12.3479  -14.0378 C   0  0  0  0  0  0  0  0  0  0  0  0
   13.9547  -13.0712  -13.7215 O   0  0  0  0  0  0  0  0  0  0  0  0
   15.4404  -12.2375  -15.4183 C   0  0  0  0  0  0  0  0  0  0  0  0
   16.4974  -11.2114  -15.6310 C   0  0  0  0  0  0  0  0  0  0  0  0
   17.6276  -11.6412  -16.5272 C   0  0  2  0  0  0  0  0  0  0  0  0
   17.7533  -13.0852  -16.5834 N   0  0  0  0  0  0  0  0  0  0  0  0
   18.8957  -10.9806  -16.1791 C   0  0  0  0  0  0  0  0  0  0  0  0
   19.6824  -11.5642  -15.3973 O   0  0  0  0  0  0  0  0  0  0  0  0
   22.0713  -10.9693  -17.3828 C   0  0  0  0  0  0  0  0  0  0  0  0
   21.6901   -9.4996  -17.3691 C   0  0  1  0  0  0  0  0  0  0  0  0
   21.4360   -9.0154  -18.6431 O   0  0  0  0  0  0  0  0  0  0  0  0
   20.6180   -9.1912  -16.3819 C   0  0  2  0  0  0  0  0  0  0  0  0
   19.3326   -9.7218  -16.6463 N   0  0  0  0  0  0  0  0  0  0  0  0
   20.5646   -7.7009  -16.2296 C   0  0  0  0  0  0  0  0  0  0  0  0
   19.5690   -7.0388  -16.6597 O   0  0  0  0  0  0  0  0  0  0  0  0
   21.5880   -6.9372  -15.6127 N   0  0  0  0  0  0  0  0  0  0  0  0
   21.4900   -5.5028  -15.4142 C   0  0  1  0  0  0  0  0  0  0  0  0
   22.4332   -5.1476  -14.2882 C   0  0  0  0  0  0  0  0  0  0  0  0
   21.9664   -5.6650  -12.9832 C   0  0  0  0  0  0  0  0  0  0  0  0
   22.6999   -5.8612  -11.9858 O   0  0  0  0  0  0  0  0  0  0  0  0
   21.9692   -4.7569  -16.6071 C   0  0  0  0  0  0  0  0  0  0  0  0
   21.8446   -3.5092  -16.6039 O   0  0  0  0  0  0  0  0  0  0  0  0
   20.6045   -5.9493  -12.8765 O   0  0  0  0  0  0  0  0  0  0  0  0
   22.5413   -5.3504  -17.7153 O   0  0  0  0  0  0  0  0  0  0  0  0
  2  1  1  0
  2  3  2  0
  4  2  1  0
  5  4  1  0
  6  5  1  0
  6  8  1  0
  6  7  1  1
  8  9  2  0
 11 10  1  6
 12 11  1  0
 13 11  1  0
 14  8  1  0
 13 14  1  6
 15 16  2  0
 15 13  1  0
 17 15  1  0
 18 17  1  0
 19 20  1  0
 18 19  1  1
 20 21  2  0
 22 18  1  0
 22 25  1  0
 23 22  2  0
 24 20  1  0
M  END
$$$$
