QTD.pdb
     RDKit          3D

 25 24  0  0  1  0  0  0  0  0999 V2000
   14.6857  -12.5300  -14.7073 N   0  0  0  0  0  0  0  0  0  0  0  0
   15.4902  -13.5826  -14.1682 C   0  0  0  0  0  0  0  0  0  0  0  0
   15.0284  -14.1915  -13.1654 O   0  0  0  0  0  0  0  0  0  0  0  0
   16.7892  -13.9141  -14.7791 C   0  0  0  0  0  0  0  0  0  0  0  0
   17.1733  -13.0801  -15.9507 C   0  0  0  0  0  0  0  0  0  0  0  0
   18.4991  -13.4302  -16.5711 C   0  0  2  0  0  0  0  0  0  0  0  0
   19.0939  -14.5989  -15.9512 N   0  0  0  0  0  0  0  0  0  0  0  0
   19.4191  -12.2820  -16.6023 C   0  0  0  0  0  0  0  0  0  0  0  0
   20.5899  -12.4386  -16.1836 O   0  0  0  0  0  0  0  0  0  0  0  0
   20.3030  -10.1048  -19.7261 C   0  0  0  0  0  0  0  0  0  0  0  0
   20.0523   -9.2146  -18.5219 C   0  0  1  0  0  0  0  0  0  0  0  0
   18.9266   -8.4219  -18.6855 O   0  0  0  0  0  0  0  0  0  0  0  0
   20.0801   -9.9641  -17.2349 C   0  0  2  0  0  0  0  0  0  0  0  0
   19.1132  -10.9844  -17.0675 N   0  0  0  0  0  0  0  0  0  0  0  0
   19.9973   -8.9567  -16.1280 C   0  0  0  0  0  0  0  0  0  0  0  0
   18.9871   -8.9185  -15.3580 O   0  0  0  0  0  0  0  0  0  0  0  0
   21.0077   -7.9981  -15.8611 N   0  0  0  0  0  0  0  0  0  0  0  0
   20.9343   -7.0633  -14.7533 C   0  0  1  0  0  0  0  0  0  0  0  0
   22.3512   -6.6468  -14.4327 C   0  0  0  0  0  0  0  0  0  0  0  0
   22.4085   -5.6589  -13.3330 C   0  0  0  0  0  0  0  0  0  0  0  0
   22.2118   -5.9207  -12.1230 O   0  0  0  0  0  0  0  0  0  0  0  0
   20.2146   -5.8215  -15.1392 C   0  0  0  0  0  0  0  0  0  0  0  0
   20.1960   -5.5113  -16.3540 O   0  0  0  0  0  0  0  0  0  0  0  0
   22.7052   -4.3434  -13.6917 O   0  0  0  0  0  0  0  0  0  0  0  0
   19.5671   -4.9904  -14.2459 O   0  0  0  0  0  0  0  0  0  0  0  0
  2  1  1  0
  2  3  2  0
  4  2  1  0
  5  4  1  0
  6  5  1  0
  6  8  1  0
  6  7  1  1
  8  9  2  0
 11 10  1  6
 12 11  1  0
 13 11  1  0
 14  8  1  0
 13 14  1  6
 15 16  2  0
 15 13  1  0
 17 15  1  0
 18 17  1  0
 19 20  1  0
 18 19  1  6
 20 21  2  0
 22 18  1  0
 22 25  1  0
 23 22  2  0
 24 20  1  0
M  END
$$$$
