NQH.pdb
     RDKit          3D

 28 28  0  0  1  0  0  0  0  0999 V2000
   20.1601  -15.3564  -18.8142 N   0  0  0  0  0  0  0  0  0  0  0  0
   18.7587  -15.4259  -18.9430 C   0  0  0  0  0  0  0  0  0  0  0  0
   18.2482  -16.2995  -19.6863 O   0  0  0  0  0  0  0  0  0  0  0  0
   17.9139  -14.4667  -18.1993 C   0  0  0  0  0  0  0  0  0  0  0  0
   18.6750  -13.4985  -17.3732 C   0  0  2  0  0  0  0  0  0  0  0  0
   18.8583  -13.9783  -15.9884 N   0  0  0  0  0  0  0  0  0  0  0  0
   18.0822  -12.1413  -17.2701 C   0  0  0  0  0  0  0  0  0  0  0  0
   18.2985  -11.3223  -18.2302 O   0  0  0  0  0  0  0  0  0  0  0  0
   13.4026  -10.8242  -13.5459 N   0  0  0  0  0  0  0  0  0  0  0  0
   13.4387  -11.7387  -14.6128 C   0  0  0  0  0  0  0  0  0  0  0  0
   12.5775  -12.6311  -14.7122 O   0  0  0  0  0  0  0  0  0  0  0  0
   14.5130  -11.6506  -15.6421 C   0  0  0  0  0  0  0  0  0  0  0  0
   15.4532  -10.5480  -15.2545 C   0  0  0  0  0  0  0  0  0  0  0  0
   16.6719  -10.3927  -16.1021 C   0  0  2  0  0  0  0  0  0  0  0  0
   17.3160  -11.7379  -16.1778 N   0  0  0  0  0  0  0  0  0  0  0  0
   17.6947   -9.4669  -15.6132 C   0  0  0  0  0  0  0  0  0  0  0  0
   18.5393   -9.8452  -14.7195 O   0  0  0  0  0  0  0  0  0  0  0  0
   17.8832   -8.1242  -16.0304 N   0  0  0  0  0  0  0  0  0  0  0  0
   18.7956   -7.1940  -15.3731 C   0  0  1  0  0  0  0  0  0  0  0  0
   19.7780   -6.6177  -16.3584 C   0  0  0  0  0  0  0  0  0  0  0  0
   20.6605   -5.6566  -15.6807 C   0  0  0  0  0  0  0  0  0  0  0  0
   21.6726   -5.9263  -14.7906 C   0  0  0  0  0  0  0  0  0  0  0  0
   22.1933   -4.7440  -14.4126 N   0  0  0  0  0  0  0  0  0  0  0  0
   21.5511   -3.7328  -15.0280 C   0  0  0  0  0  0  0  0  0  0  0  0
   20.6091   -4.3238  -15.8055 N   0  0  0  0  0  0  0  0  0  0  0  0
   18.0672   -6.1896  -14.5894 C   0  0  0  0  0  0  0  0  0  0  0  0
   16.7301   -5.8790  -14.7442 O   0  0  0  0  0  0  0  0  0  0  0  0
   18.6551   -5.5083  -13.6743 O   0  0  0  0  0  0  0  0  0  0  0  0
  1  2  1  0
  2  3  2  0
  4  5  1  0
  4  2  1  0
  5  6  1  1
  7  5  1  0
  7  8  2  0
 10  9  1  0
 10 12  1  0
 11 10  2  0
 13 12  1  0
 14 13  1  1
 14 15  1  0
 15  7  1  0
 16 14  1  0
 17 16  2  0
 18 16  1  0
 19 18  1  0
 19 26  1  0
 20 21  1  0
 19 20  1  6
 21 22  2  0
 23 22  1  0
 24 23  1  0
 25 24  2  0
 25 21  1  0
 26 27  1  0
 28 26  2  0
M  END
$$$$
