NQH.pdb
     RDKit          3D

 28 28  0  0  1  0  0  0  0  0999 V2000
   20.9210  -32.9798  -17.6542 N   0  0  0  0  0  0  0  0  0  0  0  0
   21.2565  -32.2181  -16.5173 C   0  0  0  0  0  0  0  0  0  0  0  0
   20.4056  -31.4398  -16.0208 O   0  0  0  0  0  0  0  0  0  0  0  0
   22.6070  -32.3495  -15.9294 C   0  0  0  0  0  0  0  0  0  0  0  0
   23.4995  -33.2836  -16.6572 C   0  0  2  0  0  0  0  0  0  0  0  0
   22.7676  -34.4590  -17.1714 N   0  0  0  0  0  0  0  0  0  0  0  0
   24.6446  -33.8139  -15.8751 C   0  0  0  0  0  0  0  0  0  0  0  0
   24.6292  -35.0557  -15.5637 O   0  0  0  0  0  0  0  0  0  0  0  0
   30.2003  -31.3006  -15.7542 N   0  0  0  0  0  0  0  0  0  0  0  0
   29.7916  -32.2458  -16.7109 C   0  0  0  0  0  0  0  0  0  0  0  0
   30.4187  -32.3805  -17.7770 O   0  0  0  0  0  0  0  0  0  0  0  0
   28.5975  -33.1016  -16.4596 C   0  0  0  0  0  0  0  0  0  0  0  0
   28.0675  -32.7878  -15.0919 C   0  0  0  0  0  0  0  0  0  0  0  0
   26.8530  -33.5441  -14.6664 C   0  0  2  0  0  0  0  0  0  0  0  0
   25.7134  -33.0144  -15.4732 N   0  0  0  0  0  0  0  0  0  0  0  0
   26.4638  -33.4185  -13.2610 C   0  0  0  0  0  0  0  0  0  0  0  0
   25.4970  -32.6404  -12.9220 O   0  0  0  0  0  0  0  0  0  0  0  0
   27.0542  -34.0917  -12.1607 N   0  0  0  0  0  0  0  0  0  0  0  0
   26.5693  -33.9783  -10.7889 C   0  0  1  0  0  0  0  0  0  0  0  0
   25.0829  -34.2111  -10.7230 C   0  0  0  0  0  0  0  0  0  0  0  0
   24.4797  -33.3126   -9.7277 C   0  0  0  0  0  0  0  0  0  0  0  0
   25.0896  -32.2946   -9.0341 C   0  0  0  0  0  0  0  0  0  0  0  0
   24.1616  -31.7585   -8.2197 N   0  0  0  0  0  0  0  0  0  0  0  0
   22.9850  -32.3964   -8.3688 C   0  0  0  0  0  0  0  0  0  0  0  0
   23.2088  -33.3518   -9.3060 N   0  0  0  0  0  0  0  0  0  0  0  0
   27.3524  -34.8136   -9.8710 C   0  0  0  0  0  0  0  0  0  0  0  0
   27.5313  -34.5607   -8.5248 O   0  0  0  0  0  0  0  0  0  0  0  0
   27.9457  -35.8747  -10.2825 O   0  0  0  0  0  0  0  0  0  0  0  0
  1  2  1  0
  2  3  2  0
  4  5  1  0
  4  2  1  0
  5  6  1  1
  7  5  1  0
  7  8  2  0
 10  9  1  0
 10 12  1  0
 11 10  2  0
 13 12  1  0
 14 13  1  1
 14 15  1  0
 15  7  1  0
 16 14  1  0
 17 16  2  0
 18 16  1  0
 19 18  1  0
 19 26  1  0
 20 21  1  0
 19 20  1  6
 21 22  2  0
 23 22  1  0
 24 23  1  0
 25 24  2  0
 25 21  1  0
 26 27  1  0
 28 26  2  0
M  END
$$$$
