NQH.pdb
     RDKit          3D

 28 28  0  0  1  0  0  0  0  0999 V2000
   28.7133  -22.2758  -15.1978 N   0  0  0  0  0  0  0  0  0  0  0  0
   28.4088  -22.9110  -16.4180 C   0  0  0  0  0  0  0  0  0  0  0  0
   29.1331  -23.8533  -16.8228 O   0  0  0  0  0  0  0  0  0  0  0  0
   27.2400  -22.4550  -17.2008 C   0  0  0  0  0  0  0  0  0  0  0  0
   26.5087  -21.3160  -16.5952 C   0  0  2  0  0  0  0  0  0  0  0  0
   27.4254  -20.2546  -16.1321 N   0  0  0  0  0  0  0  0  0  0  0  0
   25.6431  -21.6549  -15.4376 C   0  0  0  0  0  0  0  0  0  0  0  0
   24.6652  -22.4564  -15.6394 O   0  0  0  0  0  0  0  0  0  0  0  0
   27.2172  -20.9151   -9.5898 N   0  0  0  0  0  0  0  0  0  0  0  0
   25.8375  -21.0483   -9.3566 C   0  0  0  0  0  0  0  0  0  0  0  0
   25.3887  -21.0571   -8.1962 O   0  0  0  0  0  0  0  0  0  0  0  0
   24.8913  -21.1814  -10.5004 C   0  0  0  0  0  0  0  0  0  0  0  0
   25.6834  -21.1861  -11.7742 C   0  0  0  0  0  0  0  0  0  0  0  0
   24.9026  -21.3541  -13.0351 C   0  0  2  0  0  0  0  0  0  0  0  0
   25.8562  -21.1327  -14.1629 N   0  0  0  0  0  0  0  0  0  0  0  0
   23.7884  -20.4279  -13.2424 C   0  0  0  0  0  0  0  0  0  0  0  0
   23.9996  -19.2570  -13.7319 O   0  0  0  0  0  0  0  0  0  0  0  0
   22.4216  -20.6779  -12.9562 N   0  0  0  0  0  0  0  0  0  0  0  0
   21.3179  -20.1097  -13.7235 C   0  0  1  0  0  0  0  0  0  0  0  0
   21.4757  -20.4051  -15.1918 C   0  0  0  0  0  0  0  0  0  0  0  0
   20.3961  -19.7573  -15.9510 C   0  0  0  0  0  0  0  0  0  0  0  0
   19.3453  -19.0208  -15.4580 C   0  0  0  0  0  0  0  0  0  0  0  0
   18.5972  -18.6434  -16.5113 N   0  0  0  0  0  0  0  0  0  0  0  0
   19.1317  -19.1115  -17.6554 C   0  0  0  0  0  0  0  0  0  0  0  0
   20.2420  -19.7960  -17.2811 N   0  0  0  0  0  0  0  0  0  0  0  0
   20.0180  -20.5000  -13.1655 C   0  0  0  0  0  0  0  0  0  0  0  0
   19.0807  -19.6256  -12.6504 O   0  0  0  0  0  0  0  0  0  0  0  0
   19.6591  -21.7313  -13.1187 O   0  0  0  0  0  0  0  0  0  0  0  0
  1  2  1  0
  2  3  2  0
  4  5  1  0
  4  2  1  0
  5  6  1  1
  7  5  1  0
  7  8  2  0
 10  9  1  0
 10 12  1  0
 11 10  2  0
 13 12  1  0
 14 13  1  1
 14 15  1  0
 15  7  1  0
 16 14  1  0
 17 16  2  0
 18 16  1  0
 19 18  1  0
 19 26  1  0
 20 21  1  0
 19 20  1  6
 21 22  2  0
 23 22  1  0
 24 23  1  0
 25 24  2  0
 25 21  1  0
 26 27  1  0
 28 26  2  0
M  END
$$$$
