NQH.pdb
     RDKit          3D

 28 28  0  0  1  0  0  0  0  0999 V2000
   15.1103  -14.0140  -11.6858 N   0  0  0  0  0  0  0  0  0  0  0  0
   16.1491  -13.4509  -12.4533 C   0  0  0  0  0  0  0  0  0  0  0  0
   16.9845  -14.2041  -13.0112 O   0  0  0  0  0  0  0  0  0  0  0  0
   16.2365  -11.9808  -12.5873 C   0  0  0  0  0  0  0  0  0  0  0  0
   15.2221  -11.2367  -11.8024 C   0  0  2  0  0  0  0  0  0  0  0  0
   13.8563  -11.4489  -12.3231 N   0  0  0  0  0  0  0  0  0  0  0  0
   15.4192   -9.7668  -11.7332 C   0  0  0  0  0  0  0  0  0  0  0  0
   14.9621   -9.0585  -12.6969 O   0  0  0  0  0  0  0  0  0  0  0  0
   15.3586   -6.4627   -6.7564 N   0  0  0  0  0  0  0  0  0  0  0  0
   14.2700   -6.5131   -7.6442 C   0  0  0  0  0  0  0  0  0  0  0  0
   13.1198   -6.2457   -7.2527 O   0  0  0  0  0  0  0  0  0  0  0  0
   14.4806   -6.8890   -9.0711 C   0  0  0  0  0  0  0  0  0  0  0  0
   15.9320   -7.2126   -9.2679 C   0  0  0  0  0  0  0  0  0  0  0  0
   16.3250   -7.6748  -10.6317 C   0  0  2  0  0  0  0  0  0  0  0  0
   16.0787   -9.1471  -10.6730 N   0  0  0  0  0  0  0  0  0  0  0  0
   17.7242   -7.4746  -11.0118 C   0  0  0  0  0  0  0  0  0  0  0  0
   18.6374   -8.2637  -10.5664 O   0  0  0  0  0  0  0  0  0  0  0  0
   18.2276   -6.4588  -11.8646 N   0  0  0  0  0  0  0  0  0  0  0  0
   19.3728   -6.6414  -12.7507 C   0  0  1  0  0  0  0  0  0  0  0  0
   19.2812   -7.9533  -13.4844 C   0  0  0  0  0  0  0  0  0  0  0  0
   20.5136   -8.1838  -14.2523 C   0  0  0  0  0  0  0  0  0  0  0  0
   21.6402   -7.3973  -14.2914 C   0  0  0  0  0  0  0  0  0  0  0  0
   22.5040   -7.9842  -15.1406 N   0  0  0  0  0  0  0  0  0  0  0  0
   21.9700   -9.1138  -15.6432 C   0  0  0  0  0  0  0  0  0  0  0  0
   20.7403   -9.2138  -15.0782 N   0  0  0  0  0  0  0  0  0  0  0  0
   19.5710   -5.4759  -13.6202 C   0  0  0  0  0  0  0  0  0  0  0  0
   20.7836   -4.8567  -13.8531 O   0  0  0  0  0  0  0  0  0  0  0  0
   18.5859   -4.9374  -14.2421 O   0  0  0  0  0  0  0  0  0  0  0  0
  1  2  1  0
  2  3  2  0
  4  5  1  0
  4  2  1  0
  5  6  1  6
  7  5  1  0
  7  8  2  0
 10  9  1  0
 10 12  1  0
 11 10  2  0
 13 12  1  0
 14 13  1  1
 14 15  1  0
 15  7  1  0
 16 14  1  0
 17 16  2  0
 18 16  1  0
 19 18  1  0
 19 26  1  0
 20 21  1  0
 19 20  1  6
 21 22  2  0
 23 22  1  0
 24 23  1  0
 25 24  2  0
 25 21  1  0
 26 27  1  0
 28 26  2  0
M  END
$$$$
