NQH.pdb
     RDKit          3D

 28 28  0  0  1  0  0  0  0  0999 V2000
   14.5790  -10.8421  -12.0319 N   0  0  0  0  0  0  0  0  0  0  0  0
   14.5199   -9.5566  -12.6056 C   0  0  0  0  0  0  0  0  0  0  0  0
   13.4319   -9.1355  -13.0696 O   0  0  0  0  0  0  0  0  0  0  0  0
   15.7426   -8.7261  -12.6510 C   0  0  0  0  0  0  0  0  0  0  0  0
   16.9253   -9.3483  -12.0084 C   0  0  2  0  0  0  0  0  0  0  0  0
   16.8051   -9.3727  -10.5365 N   0  0  0  0  0  0  0  0  0  0  0  0
   18.2292   -8.7058  -12.3105 C   0  0  0  0  0  0  0  0  0  0  0  0
   18.5781   -7.7018  -11.5965 O   0  0  0  0  0  0  0  0  0  0  0  0
   22.7065  -11.5048  -15.3592 N   0  0  0  0  0  0  0  0  0  0  0  0
   23.2077  -10.2029  -15.5315 C   0  0  0  0  0  0  0  0  0  0  0  0
   24.2637  -10.0082  -16.1598 O   0  0  0  0  0  0  0  0  0  0  0  0
   22.4779   -9.0350  -14.9616 C   0  0  0  0  0  0  0  0  0  0  0  0
   21.2151   -9.5303  -14.3212 C   0  0  0  0  0  0  0  0  0  0  0  0
   20.3773   -8.5029  -13.6353 C   0  0  2  0  0  0  0  0  0  0  0  0
   19.0666   -9.1513  -13.3318 N   0  0  0  0  0  0  0  0  0  0  0  0
   20.0766   -7.2898  -14.3971 C   0  0  0  0  0  0  0  0  0  0  0  0
   19.2141   -7.3192  -15.3512 O   0  0  0  0  0  0  0  0  0  0  0  0
   20.6507   -6.0078  -14.1993 N   0  0  0  0  0  0  0  0  0  0  0  0
   20.3796   -4.8594  -15.0580 C   0  0  1  0  0  0  0  0  0  0  0  0
   19.5689   -3.8214  -14.3277 C   0  0  0  0  0  0  0  0  0  0  0  0
   19.3565   -2.6524  -15.1937 C   0  0  0  0  0  0  0  0  0  0  0  0
   20.1443   -1.5312  -15.3021 C   0  0  0  0  0  0  0  0  0  0  0  0
   19.5543   -0.7173  -16.1971 N   0  0  0  0  0  0  0  0  0  0  0  0
   18.4215   -1.2777  -16.6622 C   0  0  0  0  0  0  0  0  0  0  0  0
   18.3227   -2.4724  -16.0264 N   0  0  0  0  0  0  0  0  0  0  0  0
   21.6094   -4.3437  -15.6706 C   0  0  0  0  0  0  0  0  0  0  0  0
   21.6656   -3.6029  -16.8352 O   0  0  0  0  0  0  0  0  0  0  0  0
   22.7569   -4.5613  -15.1387 O   0  0  0  0  0  0  0  0  0  0  0  0
  1  2  1  0
  2  3  2  0
  4  5  1  0
  4  2  1  0
  5  6  1  1
  7  5  1  0
  7  8  2  0
 10  9  1  0
 10 12  1  0
 11 10  2  0
 13 12  1  0
 14 13  1  6
 14 15  1  0
 15  7  1  0
 16 14  1  0
 17 16  2  0
 18 16  1  0
 19 18  1  0
 19 26  1  0
 20 21  1  0
 19 20  1  1
 21 22  2  0
 23 22  1  0
 24 23  1  0
 25 24  2  0
 25 21  1  0
 26 27  1  0
 28 26  2  0
M  END
$$$$
