TAW.pdb
     RDKit          3D

 27 28  0  0  1  0  0  0  0  0999 V2000
   26.1063  -19.8314  -16.2378 C   0  0  0  0  0  0  0  0  0  0  0  0
   27.0422  -19.2548  -15.1781 C   0  0  1  0  0  0  0  0  0  0  0  0
   26.4095  -18.2844  -14.4221 O   0  0  0  0  0  0  0  0  0  0  0  0
   27.6049  -20.3806  -14.3247 C   0  0  2  0  0  0  0  0  0  0  0  0
   28.2643  -21.3050  -15.1924 N   0  0  0  0  0  0  0  0  0  0  0  0
   26.5340  -21.0186  -13.5131 C   0  0  0  0  0  0  0  0  0  0  0  0
   25.8585  -21.9691  -13.9883 O   0  0  0  0  0  0  0  0  0  0  0  0
   25.1483  -20.7587  -10.0371 C   0  0  0  0  0  0  0  0  0  0  0  0
   25.1304  -21.1859  -11.4948 C   0  0  2  0  0  0  0  0  0  0  0  0
   26.2254  -20.5983  -12.1916 N   0  0  0  0  0  0  0  0  0  0  0  0
   23.8150  -20.9025  -12.1217 C   0  0  0  0  0  0  0  0  0  0  0  0
   22.7946  -21.4714  -11.6464 O   0  0  0  0  0  0  0  0  0  0  0  0
   23.6380  -20.0322  -13.2207 N   0  0  0  0  0  0  0  0  0  0  0  0
   22.3249  -19.7586  -13.8400 C   0  0  1  0  0  0  0  0  0  0  0  0
   22.2943  -18.3990  -14.4244 C   0  0  0  0  0  0  0  0  0  0  0  0
   21.1871  -18.0257  -15.2801 C   0  0  0  0  0  0  0  0  0  0  0  0
   19.9472  -17.4917  -14.9138 C   0  0  0  0  0  0  0  0  0  0  0  0
   19.2043  -17.3173  -16.0119 N   0  0  0  0  0  0  0  0  0  0  0  0
   19.9185  -17.7198  -17.0875 C   0  0  0  0  0  0  0  0  0  0  0  0
   19.5682  -17.7132  -18.4244 C   0  0  0  0  0  0  0  0  0  0  0  0
   20.4647  -18.1573  -19.3646 C   0  0  0  0  0  0  0  0  0  0  0  0
   21.7051  -18.6048  -18.9621 C   0  0  0  0  0  0  0  0  0  0  0  0
   22.0441  -18.6084  -17.6350 C   0  0  0  0  0  0  0  0  0  0  0  0
   21.1609  -18.1673  -16.6651 C   0  0  0  0  0  0  0  0  0  0  0  0
   21.8878  -20.8713  -14.6869 C   0  0  0  0  0  0  0  0  0  0  0  0
   22.6794  -21.6377  -15.2327 O   0  0  0  0  0  0  0  0  0  0  0  0
   20.5189  -21.0530  -14.8697 O   0  0  0  0  0  0  0  0  0  0  0  0
  2  1  1  6
  2  4  1  0
  2  3  1  0
  4  6  1  0
  4  5  1  6
  6  7  2  0
  9  8  1  1
 10  9  1  0
 10  6  1  0
 11 12  2  0
 11  9  1  0
 13 11  1  0
 14 13  1  0
 14 25  1  0
 14 15  1  6
 16 15  1  0
 17 16  2  0
 18 19  1  0
 18 17  1  0
 19 24  2  0
 20 19  1  0
 20 21  2  0
 21 22  1  0
 22 23  2  0
 24 16  1  0
 24 23  1  0
 25 27  1  0
 26 25  2  0
M  END
$$$$
