TAW.pdb
     RDKit          3D

 27 28  0  0  1  0  0  0  0  0999 V2000
   26.4154  -22.1992  -14.8618 C   0  0  0  0  0  0  0  0  0  0  0  0
   26.6583  -20.8973  -15.6218 C   0  0  1  0  0  0  0  0  0  0  0  0
   27.1213  -21.1408  -16.9023 O   0  0  0  0  0  0  0  0  0  0  0  0
   25.3921  -20.0552  -15.6124 C   0  0  2  0  0  0  0  0  0  0  0  0
   25.6267  -18.8964  -16.4151 N   0  0  0  0  0  0  0  0  0  0  0  0
   24.9885  -19.7179  -14.2211 C   0  0  0  0  0  0  0  0  0  0  0  0
   25.5724  -18.7928  -13.5973 O   0  0  0  0  0  0  0  0  0  0  0  0
   22.2188  -20.4730  -11.8575 C   0  0  0  0  0  0  0  0  0  0  0  0
   23.6506  -20.0847  -12.1846 C   0  0  2  0  0  0  0  0  0  0  0  0
   23.9482  -20.4055  -13.5405 N   0  0  0  0  0  0  0  0  0  0  0  0
   24.6041  -20.6823  -11.2165 C   0  0  0  0  0  0  0  0  0  0  0  0
   24.9390  -21.8874  -11.3783 O   0  0  0  0  0  0  0  0  0  0  0  0
   25.1594  -19.9805  -10.1231 N   0  0  0  0  0  0  0  0  0  0  0  0
   26.0682  -20.5979   -9.1355 C   0  0  1  0  0  0  0  0  0  0  0  0
   27.2035  -19.6974   -8.8334 C   0  0  0  0  0  0  0  0  0  0  0  0
   28.1814  -20.1049   -7.8460 C   0  0  0  0  0  0  0  0  0  0  0  0
   29.1339  -21.1254   -7.9356 C   0  0  0  0  0  0  0  0  0  0  0  0
   29.8199  -21.1855   -6.7894 N   0  0  0  0  0  0  0  0  0  0  0  0
   29.3475  -20.2357   -5.9505 C   0  0  0  0  0  0  0  0  0  0  0  0
   29.7556  -19.9165   -4.6693 C   0  0  0  0  0  0  0  0  0  0  0  0
   29.1407  -18.8907   -3.9953 C   0  0  0  0  0  0  0  0  0  0  0  0
   28.1220  -18.1909   -4.6065 C   0  0  0  0  0  0  0  0  0  0  0  0
   27.7233  -18.5141   -5.8765 C   0  0  0  0  0  0  0  0  0  0  0  0
   28.3242  -19.5434   -6.5797 C   0  0  0  0  0  0  0  0  0  0  0  0
   25.3287  -21.1610   -8.0030 C   0  0  0  0  0  0  0  0  0  0  0  0
   24.2256  -20.7407   -7.6588 O   0  0  0  0  0  0  0  0  0  0  0  0
   25.9130  -22.2124   -7.3007 O   0  0  0  0  0  0  0  0  0  0  0  0
  2  1  1  6
  2  4  1  0
  2  3  1  0
  4  6  1  0
  4  5  1  6
  6  7  2  0
  9  8  1  1
 10  9  1  0
 10  6  1  0
 11 12  2  0
 11  9  1  0
 13 11  1  0
 14 13  1  0
 14 25  1  0
 14 15  1  1
 16 15  1  0
 17 16  2  0
 18 19  1  0
 18 17  1  0
 19 24  2  0
 20 19  1  0
 20 21  2  0
 21 22  1  0
 22 23  2  0
 24 16  1  0
 24 23  1  0
 25 27  1  0
 26 25  2  0
M  END
$$$$
