TAW.pdb
     RDKit          3D

 27 28  0  0  1  0  0  0  0  0999 V2000
   25.7059  -25.4283  -17.3661 C   0  0  0  0  0  0  0  0  0  0  0  0
   25.7291  -24.3690  -16.2666 C   0  0  1  0  0  0  0  0  0  0  0  0
   26.0051  -24.9301  -15.0328 O   0  0  0  0  0  0  0  0  0  0  0  0
   26.7108  -23.2683  -16.6367 C   0  0  2  0  0  0  0  0  0  0  0  0
   27.9876  -23.8713  -16.8571 N   0  0  0  0  0  0  0  0  0  0  0  0
   26.7470  -22.2138  -15.5883 C   0  0  0  0  0  0  0  0  0  0  0  0
   27.7481  -22.1044  -14.8323 O   0  0  0  0  0  0  0  0  0  0  0  0
   24.8306  -19.1529  -14.6782 C   0  0  0  0  0  0  0  0  0  0  0  0
   25.7719  -20.3053  -14.3723 C   0  0  2  0  0  0  0  0  0  0  0  0
   25.6794  -21.2976  -15.3905 N   0  0  0  0  0  0  0  0  0  0  0  0
   25.5401  -20.8408  -13.0074 C   0  0  0  0  0  0  0  0  0  0  0  0
   24.7553  -21.8195  -12.8778 O   0  0  0  0  0  0  0  0  0  0  0  0
   26.1471  -20.3184  -11.8432 N   0  0  0  0  0  0  0  0  0  0  0  0
   25.8302  -20.7874  -10.4787 C   0  0  1  0  0  0  0  0  0  0  0  0
   26.8987  -20.4005   -9.5302 C   0  0  0  0  0  0  0  0  0  0  0  0
   26.6340  -20.4642   -8.1078 C   0  0  0  0  0  0  0  0  0  0  0  0
   25.4954  -20.9502   -7.4565 C   0  0  0  0  0  0  0  0  0  0  0  0
   25.6485  -20.7994   -6.1367 N   0  0  0  0  0  0  0  0  0  0  0  0
   26.8525  -20.2301   -5.9017 C   0  0  0  0  0  0  0  0  0  0  0  0
   27.4451  -19.8986   -4.6979 C   0  0  0  0  0  0  0  0  0  0  0  0
   28.6978  -19.3369   -4.6884 C   0  0  0  0  0  0  0  0  0  0  0  0
   29.3495  -19.1103   -5.8821 C   0  0  0  0  0  0  0  0  0  0  0  0
   28.7548  -19.4414   -7.0708 C   0  0  0  0  0  0  0  0  0  0  0  0
   27.4929  -20.0082   -7.1112 C   0  0  0  0  0  0  0  0  0  0  0  0
   24.4480  -20.4718  -10.1094 C   0  0  0  0  0  0  0  0  0  0  0  0
   23.7087  -21.2848   -9.5577 O   0  0  0  0  0  0  0  0  0  0  0  0
   23.9697  -19.1968  -10.4023 O   0  0  0  0  0  0  0  0  0  0  0  0
  2  1  1  6
  2  4  1  0
  2  3  1  0
  4  6  1  0
  4  5  1  1
  6  7  2  0
  9  8  1  6
 10  9  1  0
 10  6  1  0
 11 12  2  0
 11  9  1  0
 13 11  1  0
 14 13  1  0
 14 25  1  0
 14 15  1  1
 16 15  1  0
 17 16  2  0
 18 19  1  0
 18 17  1  0
 19 24  2  0
 20 19  1  0
 20 21  2  0
 21 22  1  0
 22 23  2  0
 24 16  1  0
 24 23  1  0
 25 27  1  0
 26 25  2  0
M  END
$$$$
