TAW.pdb
     RDKit          3D

 27 28  0  0  1  0  0  0  0  0999 V2000
   28.6601  -22.1279  -19.2951 C   0  0  0  0  0  0  0  0  0  0  0  0
   28.0842  -21.6501  -17.9641 C   0  0  1  0  0  0  0  0  0  0  0  0
   26.9888  -22.4069  -17.5889 O   0  0  0  0  0  0  0  0  0  0  0  0
   29.1764  -21.6449  -16.9060 C   0  0  2  0  0  0  0  0  0  0  0  0
   29.6624  -22.9815  -16.7667 N   0  0  0  0  0  0  0  0  0  0  0  0
   28.6729  -21.0804  -15.6253 C   0  0  0  0  0  0  0  0  0  0  0  0
   28.6778  -21.7796  -14.5780 O   0  0  0  0  0  0  0  0  0  0  0  0
   27.2861  -17.8220  -14.3774 C   0  0  0  0  0  0  0  0  0  0  0  0
   27.5906  -19.3082  -14.2987 C   0  0  2  0  0  0  0  0  0  0  0  0
   28.1724  -19.7550  -15.5201 N   0  0  0  0  0  0  0  0  0  0  0  0
   26.3879  -20.0831  -13.9029 C   0  0  0  0  0  0  0  0  0  0  0  0
   25.7185  -20.6473  -14.8107 O   0  0  0  0  0  0  0  0  0  0  0  0
   25.9479  -20.2263  -12.5678 N   0  0  0  0  0  0  0  0  0  0  0  0
   24.7584  -21.0128  -12.1819 C   0  0  1  0  0  0  0  0  0  0  0  0
   24.9201  -21.5744  -10.8220 C   0  0  0  0  0  0  0  0  0  0  0  0
   25.8028  -20.9091   -9.8862 C   0  0  0  0  0  0  0  0  0  0  0  0
   25.4646  -20.0802   -8.8114 C   0  0  0  0  0  0  0  0  0  0  0  0
   26.5847  -19.6516   -8.2201 N   0  0  0  0  0  0  0  0  0  0  0  0
   27.6475  -20.1741   -8.8732 C   0  0  0  0  0  0  0  0  0  0  0  0
   28.9965  -20.0217   -8.6144 C   0  0  0  0  0  0  0  0  0  0  0  0
   29.9174  -20.6644   -9.4042 C   0  0  0  0  0  0  0  0  0  0  0  0
   29.4836  -21.4549  -10.4472 C   0  0  0  0  0  0  0  0  0  0  0  0
   28.1447  -21.6000  -10.6971 C   0  0  0  0  0  0  0  0  0  0  0  0
   27.1938  -20.9640   -9.9184 C   0  0  0  0  0  0  0  0  0  0  0  0
   23.5181  -20.2900  -12.4746 C   0  0  0  0  0  0  0  0  0  0  0  0
   23.5000  -19.0916  -12.7491 O   0  0  0  0  0  0  0  0  0  0  0  0
   22.3226  -21.0038  -12.4356 O   0  0  0  0  0  0  0  0  0  0  0  0
  2  1  1  6
  2  4  1  0
  2  3  1  0
  4  6  1  0
  4  5  1  1
  6  7  2  0
  9  8  1  6
 10  9  1  0
 10  6  1  0
 11 12  2  0
 11  9  1  0
 13 11  1  0
 14 13  1  0
 14 25  1  0
 14 15  1  1
 16 15  1  0
 17 16  2  0
 18 19  1  0
 18 17  1  0
 19 24  2  0
 20 19  1  0
 20 21  2  0
 21 22  1  0
 22 23  2  0
 24 16  1  0
 24 23  1  0
 25 27  1  0
 26 25  2  0
M  END
$$$$
