TAW.pdb
     RDKit          3D

 27 28  0  0  1  0  0  0  0  0999 V2000
   34.4777  -37.6224   -5.5078 C   0  0  0  0  0  0  0  0  0  0  0  0
   34.8164  -36.8887   -6.8033 C   0  0  1  0  0  0  0  0  0  0  0  0
   36.1272  -37.1154   -7.1824 O   0  0  0  0  0  0  0  0  0  0  0  0
   33.8229  -37.2779   -7.8868 C   0  0  2  0  0  0  0  0  0  0  0  0
   34.1636  -36.5620   -9.0758 N   0  0  0  0  0  0  0  0  0  0  0  0
   32.4261  -37.0232   -7.4435 C   0  0  0  0  0  0  0  0  0  0  0  0
   31.9035  -35.8898   -7.6110 O   0  0  0  0  0  0  0  0  0  0  0  0
   29.5539  -39.0255   -6.1046 C   0  0  0  0  0  0  0  0  0  0  0  0
   30.2727  -37.7426   -6.4859 C   0  0  2  0  0  0  0  0  0  0  0  0
   31.6286  -38.0218   -6.8229 N   0  0  0  0  0  0  0  0  0  0  0  0
   30.1308  -36.7120   -5.4270 C   0  0  0  0  0  0  0  0  0  0  0  0
   30.8001  -36.8520   -4.3672 O   0  0  0  0  0  0  0  0  0  0  0  0
   29.2893  -35.5821   -5.5359 N   0  0  0  0  0  0  0  0  0  0  0  0
   29.1720  -34.5495   -4.4860 C   0  0  1  0  0  0  0  0  0  0  0  0
   28.9543  -33.2142   -5.0864 C   0  0  0  0  0  0  0  0  0  0  0  0
   27.6182  -32.8375   -5.4992 C   0  0  0  0  0  0  0  0  0  0  0  0
   26.4396  -32.8512   -4.7460 C   0  0  0  0  0  0  0  0  0  0  0  0
   25.4227  -32.4527   -5.5175 N   0  0  0  0  0  0  0  0  0  0  0  0
   25.8976  -32.1774   -6.7535 C   0  0  0  0  0  0  0  0  0  0  0  0
   25.2224  -31.7237   -7.8707 C   0  0  0  0  0  0  0  0  0  0  0  0
   25.9124  -31.4908   -9.0345 C   0  0  0  0  0  0  0  0  0  0  0  0
   27.2726  -31.7128   -9.0736 C   0  0  0  0  0  0  0  0  0  0  0  0
   27.9341  -32.1630   -7.9618 C   0  0  0  0  0  0  0  0  0  0  0  0
   27.2647  -32.4071   -6.7754 C   0  0  0  0  0  0  0  0  0  0  0  0
   28.2615  -34.9699   -3.4179 C   0  0  0  0  0  0  0  0  0  0  0  0
   27.3790  -35.8080   -3.5929 O   0  0  0  0  0  0  0  0  0  0  0  0
   28.4160  -34.3870   -2.1623 O   0  0  0  0  0  0  0  0  0  0  0  0
  2  1  1  1
  2  4  1  0
  2  3  1  0
  4  6  1  0
  4  5  1  6
  6  7  2  0
  9  8  1  1
 10  9  1  0
 10  6  1  0
 11 12  2  0
 11  9  1  0
 13 11  1  0
 14 13  1  0
 14 25  1  0
 14 15  1  6
 16 15  1  0
 17 16  2  0
 18 19  1  0
 18 17  1  0
 19 24  2  0
 20 19  1  0
 20 21  2  0
 21 22  1  0
 22 23  2  0
 24 16  1  0
 24 23  1  0
 25 27  1  0
 26 25  2  0
M  END
$$$$
