TAW.pdb
     RDKit          3D

 27 28  0  0  1  0  0  0  0  0999 V2000
   25.7973  -17.1047  -14.0079 C   0  0  0  0  0  0  0  0  0  0  0  0
   25.8167  -16.7080  -15.4822 C   0  0  1  0  0  0  0  0  0  0  0  0
   25.5881  -15.3532  -15.6420 O   0  0  0  0  0  0  0  0  0  0  0  0
   27.1250  -17.1550  -16.1155 C   0  0  2  0  0  0  0  0  0  0  0  0
   27.1663  -16.6451  -17.4499 N   0  0  0  0  0  0  0  0  0  0  0  0
   27.2631  -18.6350  -16.0618 C   0  0  0  0  0  0  0  0  0  0  0  0
   26.5884  -19.3641  -16.8357 O   0  0  0  0  0  0  0  0  0  0  0  0
   29.5421  -21.1738  -14.6013 C   0  0  0  0  0  0  0  0  0  0  0  0
   28.1864  -20.7100  -15.1059 C   0  0  2  0  0  0  0  0  0  0  0  0
   28.1423  -19.2868  -15.1561 N   0  0  0  0  0  0  0  0  0  0  0  0
   27.0841  -21.3041  -14.3085 C   0  0  0  0  0  0  0  0  0  0  0  0
   26.8628  -22.5400  -14.4280 O   0  0  0  0  0  0  0  0  0  0  0  0
   26.2672  -20.5664  -13.4226 N   0  0  0  0  0  0  0  0  0  0  0  0
   25.0925  -21.1366  -12.7317 C   0  0  1  0  0  0  0  0  0  0  0  0
   25.5085  -21.8993  -11.5333 C   0  0  0  0  0  0  0  0  0  0  0  0
   26.1308  -21.1947  -10.4317 C   0  0  0  0  0  0  0  0  0  0  0  0
   25.5539  -20.2704   -9.5545 C   0  0  0  0  0  0  0  0  0  0  0  0
   26.4865  -19.8380   -8.6992 N   0  0  0  0  0  0  0  0  0  0  0  0
   27.6573  -20.4503   -8.9876 C   0  0  0  0  0  0  0  0  0  0  0  0
   28.8862  -20.3283   -8.3672 C   0  0  0  0  0  0  0  0  0  0  0  0
   29.9523  -21.0660   -8.8187 C   0  0  0  0  0  0  0  0  0  0  0  0
   29.7828  -21.9207   -9.8873 C   0  0  0  0  0  0  0  0  0  0  0  0
   28.5615  -22.0353  -10.4968 C   0  0  0  0  0  0  0  0  0  0  0  0
   27.4694  -21.3039  -10.0639 C   0  0  0  0  0  0  0  0  0  0  0  0
   24.0300  -20.1411  -12.5675 C   0  0  0  0  0  0  0  0  0  0  0  0
   24.2064  -18.9437  -12.7841 O   0  0  0  0  0  0  0  0  0  0  0  0
   22.7783  -20.5864  -12.1491 O   0  0  0  0  0  0  0  0  0  0  0  0
  2  1  1  1
  2  4  1  0
  2  3  1  0
  4  6  1  0
  4  5  1  6
  6  7  2  0
  9  8  1  1
 10  9  1  0
 10  6  1  0
 11 12  2  0
 11  9  1  0
 13 11  1  0
 14 13  1  0
 14 25  1  0
 14 15  1  1
 16 15  1  0
 17 16  2  0
 18 19  1  0
 18 17  1  0
 19 24  2  0
 20 19  1  0
 20 21  2  0
 21 22  1  0
 22 23  2  0
 24 16  1  0
 24 23  1  0
 25 27  1  0
 26 25  2  0
M  END
$$$$
