TAW.pdb
     RDKit          3D

 27 28  0  0  1  0  0  0  0  0999 V2000
   26.1696  -23.1430  -18.2883 C   0  0  0  0  0  0  0  0  0  0  0  0
   26.4534  -22.5282  -16.9197 C   0  0  1  0  0  0  0  0  0  0  0  0
   26.3746  -23.4764  -15.9157 O   0  0  0  0  0  0  0  0  0  0  0  0
   27.7989  -21.8201  -16.9456 C   0  0  2  0  0  0  0  0  0  0  0  0
   28.8049  -22.7942  -17.2310 N   0  0  0  0  0  0  0  0  0  0  0  0
   28.0443  -21.0984  -15.6683 C   0  0  0  0  0  0  0  0  0  0  0  0
   28.8350  -21.5747  -14.8118 O   0  0  0  0  0  0  0  0  0  0  0  0
   27.1506  -17.8264  -14.0888 C   0  0  0  0  0  0  0  0  0  0  0  0
   27.5890  -19.2807  -14.0682 C   0  0  2  0  0  0  0  0  0  0  0  0
   27.4143  -19.8639  -15.3563 N   0  0  0  0  0  0  0  0  0  0  0  0
   26.9062  -20.0325  -12.9855 C   0  0  0  0  0  0  0  0  0  0  0  0
   25.8820  -20.7055  -13.2832 O   0  0  0  0  0  0  0  0  0  0  0  0
   27.3362  -20.0389  -11.6395 N   0  0  0  0  0  0  0  0  0  0  0  0
   26.6032  -20.7210  -10.5533 C   0  0  1  0  0  0  0  0  0  0  0  0
   27.4773  -20.9198   -9.3755 C   0  0  0  0  0  0  0  0  0  0  0  0
   26.8933  -20.8793   -8.0509 C   0  0  0  0  0  0  0  0  0  0  0  0
   25.6483  -21.3626   -7.6348 C   0  0  0  0  0  0  0  0  0  0  0  0
   25.4887  -21.0977   -6.3338 N   0  0  0  0  0  0  0  0  0  0  0  0
   26.5906  -20.4561   -5.8832 C   0  0  0  0  0  0  0  0  0  0  0  0
   26.8806  -20.0005   -4.6110 C   0  0  0  0  0  0  0  0  0  0  0  0
   28.0821  -19.3826   -4.3673 C   0  0  0  0  0  0  0  0  0  0  0  0
   28.9855  -19.2244   -5.3967 C   0  0  0  0  0  0  0  0  0  0  0  0
   28.6900  -19.6784   -6.6548 C   0  0  0  0  0  0  0  0  0  0  0  0
   27.4868  -20.3043   -6.9301 C   0  0  0  0  0  0  0  0  0  0  0  0
   25.2888  -20.1141  -10.3283 C   0  0  0  0  0  0  0  0  0  0  0  0
   24.3067  -20.7709   -9.9877 O   0  0  0  0  0  0  0  0  0  0  0  0
   25.1655  -18.7389  -10.5120 O   0  0  0  0  0  0  0  0  0  0  0  0
  2  1  1  6
  2  4  1  0
  2  3  1  0
  4  6  1  0
  4  5  1  1
  6  7  2  0
  9  8  1  6
 10  9  1  0
 10  6  1  0
 11 12  2  0
 11  9  1  0
 13 11  1  0
 14 13  1  0
 14 25  1  0
 14 15  1  1
 16 15  1  0
 17 16  2  0
 18 19  1  0
 18 17  1  0
 19 24  2  0
 20 19  1  0
 20 21  2  0
 21 22  1  0
 22 23  2  0
 24 16  1  0
 24 23  1  0
 25 27  1  0
 26 25  2  0
M  END
$$$$
