TAW.pdb
     RDKit          3D

 27 28  0  0  1  0  0  0  0  0999 V2000
   26.4637  -23.2590  -17.6906 C   0  0  0  0  0  0  0  0  0  0  0  0
   27.8801  -23.7781  -17.9269 C   0  0  1  0  0  0  0  0  0  0  0  0
   28.0328  -24.2554  -19.2162 O   0  0  0  0  0  0  0  0  0  0  0  0
   28.8873  -22.6907  -17.5871 C   0  0  2  0  0  0  0  0  0  0  0  0
   30.1779  -23.2975  -17.4951 N   0  0  0  0  0  0  0  0  0  0  0  0
   28.4985  -21.9765  -16.3416 C   0  0  0  0  0  0  0  0  0  0  0  0
   28.5493  -22.5656  -15.2298 O   0  0  0  0  0  0  0  0  0  0  0  0
   27.3996  -18.5201  -15.3624 C   0  0  0  0  0  0  0  0  0  0  0  0
   27.7441  -19.9784  -15.1126 C   0  0  2  0  0  0  0  0  0  0  0  0
   28.0602  -20.6251  -16.3422 N   0  0  0  0  0  0  0  0  0  0  0  0
   26.6700  -20.6612  -14.3488 C   0  0  0  0  0  0  0  0  0  0  0  0
   25.7103  -21.1656  -14.9933 O   0  0  0  0  0  0  0  0  0  0  0  0
   26.6587  -20.7799  -12.9408 N   0  0  0  0  0  0  0  0  0  0  0  0
   25.6205  -21.5191  -12.1938 C   0  0  1  0  0  0  0  0  0  0  0  0
   26.1663  -22.0507  -10.9249 C   0  0  0  0  0  0  0  0  0  0  0  0
   26.3267  -21.1554   -9.7979 C   0  0  0  0  0  0  0  0  0  0  0  0
   25.3878  -20.2792   -9.2435 C   0  0  0  0  0  0  0  0  0  0  0  0
   25.9539  -19.6156   -8.2299 N   0  0  0  0  0  0  0  0  0  0  0  0
   27.2348  -20.0298   -8.1015 C   0  0  0  0  0  0  0  0  0  0  0  0
   28.1955  -19.6370   -7.1889 C   0  0  0  0  0  0  0  0  0  0  0  0
   29.4441  -20.2065   -7.2280 C   0  0  0  0  0  0  0  0  0  0  0  0
   29.7239  -21.1648   -8.1791 C   0  0  0  0  0  0  0  0  0  0  0  0
   28.7661  -21.5479   -9.0802 C   0  0  0  0  0  0  0  0  0  0  0  0
   27.4994  -20.9909   -9.0651 C   0  0  0  0  0  0  0  0  0  0  0  0
   24.3654  -20.7658  -12.1299 C   0  0  0  0  0  0  0  0  0  0  0  0
   23.2746  -21.3104  -11.9706 O   0  0  0  0  0  0  0  0  0  0  0  0
   24.4294  -19.3801  -12.2565 O   0  0  0  0  0  0  0  0  0  0  0  0
  2  1  1  6
  2  4  1  0
  2  3  1  0
  4  6  1  0
  4  5  1  1
  6  7  2  0
  9  8  1  6
 10  9  1  0
 10  6  1  0
 11 12  2  0
 11  9  1  0
 13 11  1  0
 14 13  1  0
 14 25  1  0
 14 15  1  1
 16 15  1  0
 17 16  2  0
 18 19  1  0
 18 17  1  0
 19 24  2  0
 20 19  1  0
 20 21  2  0
 21 22  1  0
 22 23  2  0
 24 16  1  0
 24 23  1  0
 25 27  1  0
 26 25  2  0
M  END
$$$$
