TAW.pdb
     RDKit          3D

 27 28  0  0  1  0  0  0  0  0999 V2000
   25.2225  -15.3385  -14.6962 C   0  0  0  0  0  0  0  0  0  0  0  0
   25.6487  -16.7828  -14.4441 C   0  0  1  0  0  0  0  0  0  0  0  0
   24.5959  -17.5423  -13.9664 O   0  0  0  0  0  0  0  0  0  0  0  0
   26.2577  -17.3654  -15.7098 C   0  0  2  0  0  0  0  0  0  0  0  0
   25.2468  -17.3799  -16.7198 N   0  0  0  0  0  0  0  0  0  0  0  0
   26.8313  -18.7133  -15.4520 C   0  0  0  0  0  0  0  0  0  0  0  0
   26.2686  -19.7414  -15.9127 O   0  0  0  0  0  0  0  0  0  0  0  0
   29.9550  -20.1339  -13.9445 C   0  0  0  0  0  0  0  0  0  0  0  0
   28.5591  -20.2139  -14.5384 C   0  0  2  0  0  0  0  0  0  0  0  0
   28.0153  -18.9059  -14.6909 N   0  0  0  0  0  0  0  0  0  0  0  0
   27.6906  -21.1230  -13.7493 C   0  0  0  0  0  0  0  0  0  0  0  0
   28.0986  -22.2967  -13.5335 O   0  0  0  0  0  0  0  0  0  0  0  0
   26.4323  -20.7510  -13.2249 N   0  0  0  0  0  0  0  0  0  0  0  0
   25.6638  -21.5875  -12.2804 C   0  0  1  0  0  0  0  0  0  0  0  0
   26.4634  -21.8806  -11.0698 C   0  0  0  0  0  0  0  0  0  0  0  0
   26.4808  -20.9182   -9.9878 C   0  0  0  0  0  0  0  0  0  0  0  0
   25.4386  -20.1041   -9.5318 C   0  0  0  0  0  0  0  0  0  0  0  0
   25.8862  -19.3410   -8.5292 N   0  0  0  0  0  0  0  0  0  0  0  0
   27.1896  -19.6294   -8.3126 C   0  0  0  0  0  0  0  0  0  0  0  0
   28.0592  -19.1046   -7.3753 C   0  0  0  0  0  0  0  0  0  0  0  0
   29.3535  -19.5592   -7.3188 C   0  0  0  0  0  0  0  0  0  0  0  0
   29.7695  -20.5351   -8.1994 C   0  0  0  0  0  0  0  0  0  0  0  0
   28.9013  -21.0495   -9.1255 C   0  0  0  0  0  0  0  0  0  0  0  0
   27.5914  -20.6102   -9.2063 C   0  0  0  0  0  0  0  0  0  0  0  0
   24.3058  -21.0722  -12.0883 C   0  0  0  0  0  0  0  0  0  0  0  0
   23.9679  -19.9471  -12.4514 O   0  0  0  0  0  0  0  0  0  0  0  0
   23.3748  -21.9025  -11.4688 O   0  0  0  0  0  0  0  0  0  0  0  0
  2  1  1  6
  2  4  1  0
  2  3  1  0
  4  6  1  0
  4  5  1  6
  6  7  2  0
  9  8  1  1
 10  9  1  0
 10  6  1  0
 11 12  2  0
 11  9  1  0
 13 11  1  0
 14 13  1  0
 14 25  1  0
 14 15  1  1
 16 15  1  0
 17 16  2  0
 18 19  1  0
 18 17  1  0
 19 24  2  0
 20 19  1  0
 20 21  2  0
 21 22  1  0
 22 23  2  0
 24 16  1  0
 24 23  1  0
 25 27  1  0
 26 25  2  0
M  END
$$$$
