EKL.pdb
     RDKit          3D

 27 26  0  0  1  0  0  0  0  0999 V2000
   10.0766  -13.9562   19.0955 N   0  0  0  0  0  0  0  0  0  0  0  0
    8.6491  -13.8451   19.3798 C   0  0  1  0  0  0  0  0  0  0  0  0
    7.9331  -14.1692   18.0912 C   0  0  0  0  0  0  0  0  0  0  0  0
    8.8854  -14.1336   16.9084 C   0  0  0  0  0  0  0  0  0  0  0  0
    8.1932  -14.4148   15.6457 C   0  0  0  0  0  0  0  0  0  0  0  0
    8.6631  -15.3278   14.8911 O   0  0  0  0  0  0  0  0  0  0  0  0
    8.3262  -14.7539   20.4842 C   0  0  0  0  0  0  0  0  0  0  0  0
    7.1282  -14.8990   20.8945 O   0  0  0  0  0  0  0  0  0  0  0  0
    7.0719  -13.7416   15.2436 O   0  0  0  0  0  0  0  0  0  0  0  0
    9.2962  -15.5248   21.1667 N   0  0  0  0  0  0  0  0  0  0  0  0
    8.9432  -16.4196   22.2874 C   0  0  1  0  0  0  0  0  0  0  0  0
    9.8848  -17.5778   22.1873 C   0  0  0  0  0  0  0  0  0  0  0  0
    9.7283  -18.6410   23.2131 C   0  0  0  0  0  0  0  0  0  0  0  0
   10.7142  -19.7496   22.9420 C   0  0  0  0  0  0  0  0  0  0  0  0
   10.5846  -20.8866   23.9191 C   0  0  0  0  0  0  0  0  0  0  0  0
   11.6615  -20.8417   24.8812 N   0  0  0  0  0  0  0  0  0  0  0  0
    9.2118  -15.7009   23.5729 C   0  0  0  0  0  0  0  0  0  0  0  0
   10.2763  -15.0815   23.7269 O   0  0  0  0  0  0  0  0  0  0  0  0
    8.1760  -11.9930   26.2856 C   0  0  0  0  0  0  0  0  0  0  0  0
    7.0761  -12.8975   25.7898 C   0  0  2  0  0  0  0  0  0  0  0  0
    5.6890  -12.3884   26.0014 C   0  0  0  0  0  0  0  0  0  0  0  0
    7.2271  -14.3094   26.1630 C   0  0  0  0  0  0  0  0  0  0  0  0
    8.4959  -15.0247   25.8815 C   0  0  2  0  0  0  0  0  0  0  0  0
    8.2485  -15.7324   24.6089 N   0  0  0  0  0  0  0  0  0  0  0  0
    8.9331  -16.0318   26.8439 C   0  0  0  0  0  0  0  0  0  0  0  0
    8.4903  -17.2146   26.7417 O   0  0  0  0  0  0  0  0  0  0  0  0
    9.8193  -15.8272   27.8995 O   0  0  0  0  0  0  0  0  0  0  0  0
  2  1  1  6
  2  7  1  0
  3  2  1  0
  4  3  1  0
  5  4  1  0
  5  9  1  0
  6  5  2  0
  7  8  2  0
 10  7  1  0
 10 11  1  0
 11 12  1  1
 13 14  1  0
 13 12  1  0
 14 15  1  0
 16 15  1  0
 17 11  1  0
 17 18  2  0
 20 19  1  1
 20 21  1  0
 20 22  1  0
 23 22  1  1
 23 24  1  0
 24 17  1  0
 25 27  1  0
 25 23  1  0
 26 25  2  0
M  END
$$$$
