EKL.pdb
     RDKit          3D

 27 26  0  0  1  0  0  0  0  0999 V2000
   10.6938  -18.2899   19.4237 N   0  0  0  0  0  0  0  0  0  0  0  0
   10.3822  -16.8651   19.3639 C   0  0  1  0  0  0  0  0  0  0  0  0
    9.9713  -16.5798   17.9398 C   0  0  0  0  0  0  0  0  0  0  0  0
   10.3187  -17.7405   17.0237 C   0  0  0  0  0  0  0  0  0  0  0  0
    9.8235  -17.5224   15.6599 C   0  0  0  0  0  0  0  0  0  0  0  0
   10.4891  -16.7527   14.8929 O   0  0  0  0  0  0  0  0  0  0  0  0
    9.3380  -16.5789   20.3527 C   0  0  0  0  0  0  0  0  0  0  0  0
    8.7326  -15.4575   20.3715 O   0  0  0  0  0  0  0  0  0  0  0  0
    8.6827  -18.1047   15.1784 O   0  0  0  0  0  0  0  0  0  0  0  0
    8.9283  -17.5036   21.3417 N   0  0  0  0  0  0  0  0  0  0  0  0
    7.8035  -17.2278   22.2582 C   0  0  1  0  0  0  0  0  0  0  0  0
    7.3675  -18.5638   22.7708 C   0  0  0  0  0  0  0  0  0  0  0  0
    6.6028  -19.4131   21.8216 C   0  0  0  0  0  0  0  0  0  0  0  0
    6.2617  -20.7246   22.4835 C   0  0  0  0  0  0  0  0  0  0  0  0
    5.4947  -21.6458   21.5739 C   0  0  0  0  0  0  0  0  0  0  0  0
    5.2448  -22.9053   22.2362 N   0  0  0  0  0  0  0  0  0  0  0  0
    8.3159  -16.4225   23.4115 C   0  0  0  0  0  0  0  0  0  0  0  0
    9.5019  -16.5260   23.7624 O   0  0  0  0  0  0  0  0  0  0  0  0
    7.5363  -12.9273   27.6068 C   0  0  0  0  0  0  0  0  0  0  0  0
    7.2938  -12.4506   26.1969 C   0  0  2  0  0  0  0  0  0  0  0  0
    6.3124  -11.3341   26.0621 C   0  0  0  0  0  0  0  0  0  0  0  0
    7.0762  -13.5210   25.2157 C   0  0  0  0  0  0  0  0  0  0  0  0
    7.9375  -14.7287   25.2247 C   0  0  2  0  0  0  0  0  0  0  0  0
    7.4428  -15.5457   24.0979 N   0  0  0  0  0  0  0  0  0  0  0  0
    7.8972  -15.5801   26.4100 C   0  0  0  0  0  0  0  0  0  0  0  0
    6.8829  -16.3135   26.6074 O   0  0  0  0  0  0  0  0  0  0  0  0
    8.8904  -15.6802   27.3821 O   0  0  0  0  0  0  0  0  0  0  0  0
  2  1  1  6
  2  7  1  0
  3  2  1  0
  4  3  1  0
  5  4  1  0
  5  9  1  0
  6  5  2  0
  7  8  2  0
 10  7  1  0
 10 11  1  0
 11 12  1  1
 13 14  1  0
 13 12  1  0
 14 15  1  0
 16 15  1  0
 17 11  1  0
 17 18  2  0
 20 19  1  1
 20 21  1  0
 20 22  1  0
 23 22  1  1
 23 24  1  0
 24 17  1  0
 25 27  1  0
 25 23  1  0
 26 25  2  0
M  END
$$$$
