EKL.pdb
     RDKit          3D

 27 26  0  0  1  0  0  0  0  0999 V2000
    8.6875  -13.4034   18.8710 N   0  0  0  0  0  0  0  0  0  0  0  0
    9.1509  -14.6896   19.3825 C   0  0  1  0  0  0  0  0  0  0  0  0
   10.6238  -14.5267   19.6697 C   0  0  0  0  0  0  0  0  0  0  0  0
   11.3739  -14.0428   18.4407 C   0  0  0  0  0  0  0  0  0  0  0  0
   12.8190  -13.9665   18.6822 C   0  0  0  0  0  0  0  0  0  0  0  0
   13.2919  -12.8901   19.1739 O   0  0  0  0  0  0  0  0  0  0  0  0
    8.3497  -15.0334   20.5614 C   0  0  0  0  0  0  0  0  0  0  0  0
    7.5971  -14.1730   21.1252 O   0  0  0  0  0  0  0  0  0  0  0  0
   13.6776  -14.9944   18.4019 O   0  0  0  0  0  0  0  0  0  0  0  0
    8.3480  -16.3181   21.1535 N   0  0  0  0  0  0  0  0  0  0  0  0
    7.4848  -16.6524   22.3042 C   0  0  1  0  0  0  0  0  0  0  0  0
    7.3420  -18.1413   22.2790 C   0  0  0  0  0  0  0  0  0  0  0  0
    6.6140  -18.7500   23.4220 C   0  0  0  0  0  0  0  0  0  0  0  0
    6.5633  -20.2470   23.2454 C   0  0  0  0  0  0  0  0  0  0  0  0
    5.7362  -20.9236   24.3049 C   0  0  0  0  0  0  0  0  0  0  0  0
    4.3419  -20.9196   23.9265 N   0  0  0  0  0  0  0  0  0  0  0  0
    8.1985  -16.2666   23.5624 C   0  0  0  0  0  0  0  0  0  0  0  0
    9.4238  -16.4390   23.6586 O   0  0  0  0  0  0  0  0  0  0  0  0
    8.4218  -12.1954   25.4400 C   0  0  0  0  0  0  0  0  0  0  0  0
    7.1204  -12.8858   25.7619 C   0  0  2  0  0  0  0  0  0  0  0  0
    6.0870  -12.0262   26.4108 C   0  0  0  0  0  0  0  0  0  0  0  0
    7.2639  -14.1935   26.4138 C   0  0  0  0  0  0  0  0  0  0  0  0
    8.1728  -15.2172   25.8423 C   0  0  2  0  0  0  0  0  0  0  0  0
    7.4702  -15.7066   24.6387 N   0  0  0  0  0  0  0  0  0  0  0  0
    8.4714  -16.3894   26.6598 C   0  0  0  0  0  0  0  0  0  0  0  0
    7.7720  -17.4359   26.5148 O   0  0  0  0  0  0  0  0  0  0  0  0
    9.4810  -16.4873   27.6151 O   0  0  0  0  0  0  0  0  0  0  0  0
  2  1  1  1
  2  7  1  0
  3  2  1  0
  4  3  1  0
  5  4  1  0
  5  9  1  0
  6  5  2  0
  7  8  2  0
 10  7  1  0
 10 11  1  0
 11 12  1  1
 13 14  1  0
 13 12  1  0
 14 15  1  0
 16 15  1  0
 17 11  1  0
 17 18  2  0
 20 19  1  1
 20 21  1  0
 20 22  1  0
 23 22  1  1
 23 24  1  0
 24 17  1  0
 25 27  1  0
 25 23  1  0
 26 25  2  0
M  END
$$$$
