EKL.pdb
     RDKit          3D

 27 26  0  0  1  0  0  0  0  0999 V2000
   10.3577  -16.9156   18.3584 N   0  0  0  0  0  0  0  0  0  0  0  0
   10.9036  -16.6819   19.6918 C   0  0  1  0  0  0  0  0  0  0  0  0
   11.8485  -15.5117   19.5646 C   0  0  0  0  0  0  0  0  0  0  0  0
   13.1457  -15.9227   18.8897 C   0  0  0  0  0  0  0  0  0  0  0  0
   14.0843  -14.7996   18.7885 C   0  0  0  0  0  0  0  0  0  0  0  0
   13.7230  -13.6686   19.2513 O   0  0  0  0  0  0  0  0  0  0  0  0
    9.7873  -16.4472   20.6131 C   0  0  0  0  0  0  0  0  0  0  0  0
    9.1130  -15.3663   20.5755 O   0  0  0  0  0  0  0  0  0  0  0  0
   15.3238  -14.9120   18.2199 O   0  0  0  0  0  0  0  0  0  0  0  0
    9.3789  -17.3804   21.5945 N   0  0  0  0  0  0  0  0  0  0  0  0
    8.2075  -17.1462   22.4630 C   0  0  1  0  0  0  0  0  0  0  0  0
    7.8249  -18.4924   22.9914 C   0  0  0  0  0  0  0  0  0  0  0  0
    7.0952  -19.3828   22.0522 C   0  0  0  0  0  0  0  0  0  0  0  0
    6.8028  -20.6974   22.7310 C   0  0  0  0  0  0  0  0  0  0  0  0
    6.1664  -21.6956   21.8021 C   0  0  0  0  0  0  0  0  0  0  0  0
    5.9002  -22.9300   22.5040 N   0  0  0  0  0  0  0  0  0  0  0  0
    8.6325  -16.2891   23.6144 C   0  0  0  0  0  0  0  0  0  0  0  0
    9.7709  -16.4127   24.0931 O   0  0  0  0  0  0  0  0  0  0  0  0
    8.0289  -12.2749   27.3892 C   0  0  0  0  0  0  0  0  0  0  0  0
    7.3765  -12.1849   26.0327 C   0  0  2  0  0  0  0  0  0  0  0  0
    6.2477  -11.2136   25.9321 C   0  0  0  0  0  0  0  0  0  0  0  0
    7.0702  -13.4796   25.4116 C   0  0  0  0  0  0  0  0  0  0  0  0
    8.1105  -14.5341   25.3312 C   0  0  2  0  0  0  0  0  0  0  0  0
    7.7314  -15.3403   24.1530 N   0  0  0  0  0  0  0  0  0  0  0  0
    8.2242  -15.4599   26.4544 C   0  0  0  0  0  0  0  0  0  0  0  0
    9.0974  -15.2420   27.3463 O   0  0  0  0  0  0  0  0  0  0  0  0
    7.4463  -16.5972   26.6617 O   0  0  0  0  0  0  0  0  0  0  0  0
  2  1  1  6
  2  7  1  0
  3  2  1  0
  4  3  1  0
  5  4  1  0
  5  9  1  0
  6  5  2  0
  7  8  2  0
 10  7  1  0
 10 11  1  0
 11 12  1  1
 13 14  1  0
 13 12  1  0
 14 15  1  0
 16 15  1  0
 17 11  1  0
 17 18  2  0
 20 19  1  1
 20 21  1  0
 20 22  1  0
 23 22  1  1
 23 24  1  0
 24 17  1  0
 25 27  1  0
 25 23  1  0
 26 25  2  0
M  END
$$$$
