EKL.pdb
     RDKit          3D

 27 26  0  0  1  0  0  0  0  0999 V2000
    6.5957  -19.6154   19.5045 N   0  0  0  0  0  0  0  0  0  0  0  0
    7.2516  -18.3855   19.9381 C   0  0  1  0  0  0  0  0  0  0  0  0
    6.9552  -17.3505   18.8800 C   0  0  0  0  0  0  0  0  0  0  0  0
    8.1575  -17.1238   17.9798 C   0  0  0  0  0  0  0  0  0  0  0  0
    8.1352  -18.0105   16.8111 C   0  0  0  0  0  0  0  0  0  0  0  0
    8.7333  -19.1326   16.8944 O   0  0  0  0  0  0  0  0  0  0  0  0
    6.7452  -18.0366   21.2692 C   0  0  0  0  0  0  0  0  0  0  0  0
    5.5455  -17.6415   21.4393 O   0  0  0  0  0  0  0  0  0  0  0  0
    7.5054  -17.6861   15.6405 O   0  0  0  0  0  0  0  0  0  0  0  0
    7.5299  -18.1095   22.4439 N   0  0  0  0  0  0  0  0  0  0  0  0
    7.0064  -17.7078   23.7652 C   0  0  1  0  0  0  0  0  0  0  0  0
    7.3324  -18.8404   24.6866 C   0  0  0  0  0  0  0  0  0  0  0  0
    7.2155  -20.2064   24.1141 C   0  0  0  0  0  0  0  0  0  0  0  0
    7.5399  -21.2260   25.1769 C   0  0  0  0  0  0  0  0  0  0  0  0
    7.3237  -22.6382   24.7046 C   0  0  0  0  0  0  0  0  0  0  0  0
    7.7077  -23.5731   25.7370 N   0  0  0  0  0  0  0  0  0  0  0  0
    7.7534  -16.4943   24.2241 C   0  0  0  0  0  0  0  0  0  0  0  0
    8.9733  -16.4009   24.0158 O   0  0  0  0  0  0  0  0  0  0  0  0
    5.9408  -11.1572   26.7264 C   0  0  0  0  0  0  0  0  0  0  0  0
    7.1114  -11.9534   26.2072 C   0  0  2  0  0  0  0  0  0  0  0  0
    8.0844  -11.1862   25.3750 C   0  0  0  0  0  0  0  0  0  0  0  0
    6.7585  -13.2513   25.6186 C   0  0  0  0  0  0  0  0  0  0  0  0
    7.7980  -14.2922   25.4278 C   0  0  2  0  0  0  0  0  0  0  0  0
    7.0628  -15.4577   24.8956 N   0  0  0  0  0  0  0  0  0  0  0  0
    8.5183  -14.7546   26.6106 C   0  0  0  0  0  0  0  0  0  0  0  0
    7.9877  -15.6370   27.3490 O   0  0  0  0  0  0  0  0  0  0  0  0
    9.7732  -14.3173   27.0296 O   0  0  0  0  0  0  0  0  0  0  0  0
  2  1  1  6
  2  7  1  0
  3  2  1  0
  4  3  1  0
  5  4  1  0
  5  9  1  0
  6  5  2  0
  7  8  2  0
 10  7  1  0
 10 11  1  0
 11 12  1  1
 13 14  1  0
 13 12  1  0
 14 15  1  0
 16 15  1  0
 17 11  1  0
 17 18  2  0
 20 19  1  6
 20 21  1  0
 20 22  1  0
 23 22  1  1
 23 24  1  0
 24 17  1  0
 25 27  1  0
 25 23  1  0
 26 25  2  0
M  END
$$$$
