EKL.pdb
     RDKit          3D

 27 26  0  0  1  0  0  0  0  0999 V2000
    9.1346  -16.0239   18.3042 N   0  0  0  0  0  0  0  0  0  0  0  0
    9.7824  -16.9219   19.2554 C   0  0  1  0  0  0  0  0  0  0  0  0
   11.2345  -16.5126   19.3045 C   0  0  0  0  0  0  0  0  0  0  0  0
   11.3804  -15.0440   19.6638 C   0  0  0  0  0  0  0  0  0  0  0  0
   12.7875  -14.6296   19.6925 C   0  0  0  0  0  0  0  0  0  0  0  0
   13.4901  -14.9516   20.7058 O   0  0  0  0  0  0  0  0  0  0  0  0
    9.0891  -16.8093   20.5425 C   0  0  0  0  0  0  0  0  0  0  0  0
    8.4368  -15.7596   20.8543 O   0  0  0  0  0  0  0  0  0  0  0  0
   13.3753  -13.9142   18.6851 O   0  0  0  0  0  0  0  0  0  0  0  0
    9.0886  -17.8333   21.5184 N   0  0  0  0  0  0  0  0  0  0  0  0
    8.2593  -17.7566   22.7380 C   0  0  1  0  0  0  0  0  0  0  0  0
    8.4576  -19.0626   23.4402 C   0  0  0  0  0  0  0  0  0  0  0  0
    7.8306  -19.1884   24.7812 C   0  0  0  0  0  0  0  0  0  0  0  0
    7.1228  -20.5162   24.8822 C   0  0  0  0  0  0  0  0  0  0  0  0
    6.3513  -20.6608   26.1660 C   0  0  0  0  0  0  0  0  0  0  0  0
    7.2511  -20.9543   27.2576 N   0  0  0  0  0  0  0  0  0  0  0  0
    8.7953  -16.6642   23.6101 C   0  0  0  0  0  0  0  0  0  0  0  0
   10.0200  -16.4795   23.6913 O   0  0  0  0  0  0  0  0  0  0  0  0
    7.8791  -12.8631   27.4937 C   0  0  0  0  0  0  0  0  0  0  0  0
    7.3708  -12.5897   26.1006 C   0  0  2  0  0  0  0  0  0  0  0  0
    6.1564  -11.7252   26.0240 C   0  0  0  0  0  0  0  0  0  0  0  0
    7.2823  -13.7731   25.2360 C   0  0  0  0  0  0  0  0  0  0  0  0
    8.4102  -14.7341   25.1678 C   0  0  2  0  0  0  0  0  0  0  0  0
    7.9006  -15.8463   24.3399 N   0  0  0  0  0  0  0  0  0  0  0  0
    8.8752  -15.3222   26.4206 C   0  0  0  0  0  0  0  0  0  0  0  0
    9.9387  -14.8820   26.9504 O   0  0  0  0  0  0  0  0  0  0  0  0
    8.2523  -16.3507   27.1247 O   0  0  0  0  0  0  0  0  0  0  0  0
  2  1  1  6
  2  7  1  0
  3  2  1  0
  4  3  1  0
  5  4  1  0
  5  9  1  0
  6  5  2  0
  7  8  2  0
 10  7  1  0
 10 11  1  0
 11 12  1  1
 13 14  1  0
 13 12  1  0
 14 15  1  0
 16 15  1  0
 17 11  1  0
 17 18  2  0
 20 19  1  1
 20 21  1  0
 20 22  1  0
 23 22  1  1
 23 24  1  0
 24 17  1  0
 25 27  1  0
 25 23  1  0
 26 25  2  0
M  END
$$$$
