EKL.pdb
     RDKit          3D

 27 26  0  0  1  0  0  0  0  0999 V2000
   12.0756  -18.7728   20.7326 N   0  0  0  0  0  0  0  0  0  0  0  0
   12.2320  -17.3263   20.8503 C   0  0  1  0  0  0  0  0  0  0  0  0
   12.6568  -16.8329   19.4885 C   0  0  0  0  0  0  0  0  0  0  0  0
   13.1154  -17.9808   18.6057 C   0  0  0  0  0  0  0  0  0  0  0  0
   14.5720  -17.9814   18.4296 C   0  0  0  0  0  0  0  0  0  0  0  0
   15.0806  -17.1469   17.6119 O   0  0  0  0  0  0  0  0  0  0  0  0
   10.9623  -16.7612   21.3180 C   0  0  0  0  0  0  0  0  0  0  0  0
   10.7500  -15.5045   21.3010 O   0  0  0  0  0  0  0  0  0  0  0  0
   15.4041  -18.8361   19.0999 O   0  0  0  0  0  0  0  0  0  0  0  0
    9.8961  -17.5476   21.8136 N   0  0  0  0  0  0  0  0  0  0  0  0
    8.5986  -16.9583   22.2014 C   0  0  1  0  0  0  0  0  0  0  0  0
    7.6641  -18.1156   22.3596 C   0  0  0  0  0  0  0  0  0  0  0  0
    7.0032  -18.5994   21.1201 C   0  0  0  0  0  0  0  0  0  0  0  0
    6.1546  -19.8042   21.4407 C   0  0  0  0  0  0  0  0  0  0  0  0
    5.3356  -20.2607   20.2639 C   0  0  0  0  0  0  0  0  0  0  0  0
    4.5417  -21.4122   20.6261 N   0  0  0  0  0  0  0  0  0  0  0  0
    8.7574  -16.2926   23.5329 C   0  0  0  0  0  0  0  0  0  0  0  0
    9.6265  -16.6891   24.3253 O   0  0  0  0  0  0  0  0  0  0  0  0
    5.5610  -11.8077   26.3218 C   0  0  0  0  0  0  0  0  0  0  0  0
    6.8281  -12.6246   26.3554 C   0  0  2  0  0  0  0  0  0  0  0  0
    8.0480  -11.8896   26.8020 C   0  0  0  0  0  0  0  0  0  0  0  0
    7.0629  -13.4430   25.1592 C   0  0  0  0  0  0  0  0  0  0  0  0
    8.0628  -14.5384   25.1883 C   0  0  2  0  0  0  0  0  0  0  0  0
    7.9127  -15.2125   23.8825 N   0  0  0  0  0  0  0  0  0  0  0  0
    7.9096  -15.5678   26.2122 C   0  0  0  0  0  0  0  0  0  0  0  0
    8.7129  -15.5863   27.1920 O   0  0  0  0  0  0  0  0  0  0  0  0
    6.9387  -16.5670   26.2318 O   0  0  0  0  0  0  0  0  0  0  0  0
  2  1  1  6
  2  7  1  0
  3  2  1  0
  4  3  1  0
  5  4  1  0
  5  9  1  0
  6  5  2  0
  7  8  2  0
 10  7  1  0
 10 11  1  0
 11 12  1  1
 13 14  1  0
 13 12  1  0
 14 15  1  0
 16 15  1  0
 17 11  1  0
 17 18  2  0
 20 19  1  6
 20 21  1  0
 20 22  1  0
 23 22  1  1
 23 24  1  0
 24 17  1  0
 25 27  1  0
 25 23  1  0
 26 25  2  0
M  END
$$$$
