CSR.pdb
     RDKit          3D

 24 23  0  0  1  0  0  0  0  0999 V2000
   26.0154  -12.8306  -18.2659 N   0  0  0  0  0  0  0  0  0  0  0  0
   25.4087  -11.5334  -18.2135 C   0  0  1  0  0  0  0  0  0  0  0  0
   25.2701  -10.9677  -19.5821 C   0  0  0  0  0  0  0  0  0  0  0  0
   26.8599  -10.7311  -20.4120 S   0  0  0  0  0  0  0  0  0  0  0  0
   24.1464  -11.5165  -17.4335 C   0  0  0  0  0  0  0  0  0  0  0  0
   23.2564  -12.3803  -17.6823 O   0  0  0  0  0  0  0  0  0  0  0  0
   23.7731   -9.0873  -14.1622 O   0  0  0  0  0  0  0  0  0  0  0  0
   22.9842  -10.2081  -14.2345 C   0  0  0  0  0  0  0  0  0  0  0  0
   22.6079  -10.5824  -15.6533 C   0  0  2  0  0  0  0  0  0  0  0  0
   23.8528  -10.5894  -16.4100 N   0  0  0  0  0  0  0  0  0  0  0  0
   21.6783   -9.5334  -16.1476 C   0  0  0  0  0  0  0  0  0  0  0  0
   22.1987   -8.5054  -16.6505 O   0  0  0  0  0  0  0  0  0  0  0  0
   13.1180   -9.9338  -16.4830 N   0  0  0  0  0  0  0  0  0  0  0  0
   13.8500   -9.3001  -15.4543 C   0  0  0  0  0  0  0  0  0  0  0  0
   13.3150   -9.1322  -14.2785 N   0  0  0  0  0  0  0  0  0  0  0  0
   15.1746   -8.8315  -15.6640 N   0  0  0  0  0  0  0  0  0  0  0  0
   15.5866   -8.5328  -17.0178 C   0  0  0  0  0  0  0  0  0  0  0  0
   16.9976   -7.9387  -17.0032 C   0  0  0  0  0  0  0  0  0  0  0  0
   17.9696   -9.0011  -16.5559 C   0  0  0  0  0  0  0  0  0  0  0  0
   19.3857   -8.5314  -16.5117 C   0  0  2  0  0  0  0  0  0  0  0  0
   20.2872   -9.6164  -16.0897 N   0  0  0  0  0  0  0  0  0  0  0  0
   19.6239   -7.4003  -15.6043 C   0  0  0  0  0  0  0  0  0  0  0  0
   19.9386   -7.5743  -14.3850 O   0  0  0  0  0  0  0  0  0  0  0  0
   19.5247   -6.0853  -16.0101 O   0  0  0  0  0  0  0  0  0  0  0  0
  2  1  1  6
  2  3  1  0
  4  3  1  0
  5  2  1  0
  6  5  2  0
  7  8  1  0
  9  8  1  1
  9 11  1  0
  9 10  1  0
 10  5  1  0
 11 21  1  0
 12 11  2  0
 14 13  1  0
 15 14  2  0
 16 14  1  0
 17 16  1  0
 18 17  1  0
 19 18  1  0
 20 19  1  1
 20 22  1  0
 21 20  1  0
 22 23  2  0
 22 24  1  0
M  END
$$$$
