CSR.pdb
     RDKit          3D

 24 23  0  0  1  0  0  0  0  0999 V2000
   27.5435  -33.0547  -17.8501 N   0  0  0  0  0  0  0  0  0  0  0  0
   28.5407  -32.6644  -16.8979 C   0  0  1  0  0  0  0  0  0  0  0  0
   28.2724  -33.2915  -15.5761 C   0  0  0  0  0  0  0  0  0  0  0  0
   26.9885  -32.4323  -14.6352 S   0  0  0  0  0  0  0  0  0  0  0  0
   29.9244  -32.8812  -17.3880 C   0  0  0  0  0  0  0  0  0  0  0  0
   30.1454  -33.8077  -18.2205 O   0  0  0  0  0  0  0  0  0  0  0  0
   33.2756  -31.4142  -19.7519 O   0  0  0  0  0  0  0  0  0  0  0  0
   32.1231  -31.5107  -19.0128 C   0  0  0  0  0  0  0  0  0  0  0  0
   32.3348  -32.1564  -17.6589 C   0  0  2  0  0  0  0  0  0  0  0  0
   31.0419  -32.1164  -16.9887 N   0  0  0  0  0  0  0  0  0  0  0  0
   33.3445  -31.3368  -16.9396 C   0  0  0  0  0  0  0  0  0  0  0  0
   33.0151  -30.1596  -16.6462 O   0  0  0  0  0  0  0  0  0  0  0  0
   36.7390  -32.6484  -10.9569 N   0  0  0  0  0  0  0  0  0  0  0  0
   36.5719  -34.0077  -11.3033 C   0  0  0  0  0  0  0  0  0  0  0  0
   36.0993  -34.8519  -10.4309 N   0  0  0  0  0  0  0  0  0  0  0  0
   36.9086  -34.4930  -12.5952 N   0  0  0  0  0  0  0  0  0  0  0  0
   37.3758  -33.5431  -13.5807 C   0  0  0  0  0  0  0  0  0  0  0  0
   36.2076  -32.6655  -14.0385 C   0  0  0  0  0  0  0  0  0  0  0  0
   36.6489  -31.8459  -15.2248 C   0  0  0  0  0  0  0  0  0  0  0  0
   35.5679  -30.9847  -15.7883 C   0  0  2  0  0  0  0  0  0  0  0  0
   34.6143  -31.7844  -16.5752 N   0  0  0  0  0  0  0  0  0  0  0  0
   36.0440  -29.9042  -16.6631 C   0  0  0  0  0  0  0  0  0  0  0  0
   36.1939  -30.0721  -17.9143 O   0  0  0  0  0  0  0  0  0  0  0  0
   36.3565  -28.6458  -16.1912 O   0  0  0  0  0  0  0  0  0  0  0  0
  2  1  1  6
  2  3  1  0
  4  3  1  0
  5  2  1  0
  6  5  2  0
  7  8  1  0
  9  8  1  6
  9 11  1  0
  9 10  1  0
 10  5  1  0
 11 21  1  0
 12 11  2  0
 14 13  1  0
 15 14  2  0
 16 14  1  0
 17 16  1  0
 18 17  1  0
 19 18  1  0
 20 19  1  6
 20 22  1  0
 21 20  1  0
 22 23  2  0
 22 24  1  0
M  END
$$$$
