CSR.pdb
     RDKit          3D

 24 23  0  0  1  0  0  0  0  0999 V2000
   23.7773  -20.3959  -18.8208 N   0  0  0  0  0  0  0  0  0  0  0  0
   24.6680  -20.7014  -17.7406 C   0  0  1  0  0  0  0  0  0  0  0  0
   25.9070  -19.8846  -17.8405 C   0  0  0  0  0  0  0  0  0  0  0  0
   25.7290  -18.2403  -17.1080 S   0  0  0  0  0  0  0  0  0  0  0  0
   24.0125  -20.6256  -16.4115 C   0  0  0  0  0  0  0  0  0  0  0  0
   24.5879  -21.1413  -15.4100 O   0  0  0  0  0  0  0  0  0  0  0  0
   20.7668  -18.5092  -13.5480 O   0  0  0  0  0  0  0  0  0  0  0  0
   21.4160  -18.6730  -14.7461 C   0  0  0  0  0  0  0  0  0  0  0  0
   22.0879  -20.0240  -14.8809 C   0  0  2  0  0  0  0  0  0  0  0  0
   22.7661  -20.0079  -16.1702 N   0  0  0  0  0  0  0  0  0  0  0  0
   21.0128  -21.0495  -14.8460 C   0  0  0  0  0  0  0  0  0  0  0  0
   20.3095  -21.1696  -15.8811 O   0  0  0  0  0  0  0  0  0  0  0  0
   17.7561  -26.5851  -10.1189 N   0  0  0  0  0  0  0  0  0  0  0  0
   17.4957  -27.3562  -11.2736 C   0  0  0  0  0  0  0  0  0  0  0  0
   16.5368  -28.2380  -11.2689 N   0  0  0  0  0  0  0  0  0  0  0  0
   18.2591  -27.1986  -12.4612 N   0  0  0  0  0  0  0  0  0  0  0  0
   19.3065  -26.2014  -12.4719 C   0  0  0  0  0  0  0  0  0  0  0  0
   18.6815  -24.8037  -12.4692 C   0  0  0  0  0  0  0  0  0  0  0  0
   19.7822  -23.7769  -12.5592 C   0  0  0  0  0  0  0  0  0  0  0  0
   19.6466  -22.8604  -13.7294 C   0  0  2  0  0  0  0  0  0  0  0  0
   20.7395  -21.8739  -13.7547 N   0  0  0  0  0  0  0  0  0  0  0  0
   18.3871  -22.1043  -13.7678 C   0  0  0  0  0  0  0  0  0  0  0  0
   18.2398  -21.0151  -13.1291 O   0  0  0  0  0  0  0  0  0  0  0  0
   17.2898  -22.5200  -14.4937 O   0  0  0  0  0  0  0  0  0  0  0  0
  2  1  1  6
  2  3  1  0
  4  3  1  0
  5  2  1  0
  6  5  2  0
  7  8  1  0
  9  8  1  6
  9 11  1  0
  9 10  1  0
 10  5  1  0
 11 21  1  0
 12 11  2  0
 14 13  1  0
 15 14  2  0
 16 14  1  0
 17 16  1  0
 18 17  1  0
 19 18  1  0
 20 19  1  1
 20 22  1  0
 21 20  1  0
 22 23  2  0
 22 24  1  0
M  END
$$$$
