IET.pdb
     RDKit          3D

 25 24  0  0  1  0  0  0  0  0999 V2000
    7.1122  -11.9539   19.3419 C   0  0  0  0  0  0  0  0  0  0  0  0
    7.5875  -13.3032   18.9203 C   0  0  0  0  0  0  0  0  0  0  0  0
    7.9669  -14.1934   20.0704 C   0  0  2  0  0  0  0  0  0  0  0  0
    9.0710  -13.5258   20.8600 C   0  0  0  0  0  0  0  0  0  0  0  0
    8.4812  -15.5267   19.5856 C   0  0  2  0  0  0  0  0  0  0  0  0
    7.4855  -16.1762   18.8334 N   0  0  0  0  0  0  0  0  0  0  0  0
    8.8549  -16.4111   20.7367 C   0  0  0  0  0  0  0  0  0  0  0  0
    7.9777  -17.0047   21.4338 O   0  0  0  0  0  0  0  0  0  0  0  0
   10.2063  -16.6311   21.1069 N   0  0  0  0  0  0  0  0  0  0  0  0
   10.6009  -17.5110   22.2090 C   0  0  1  0  0  0  0  0  0  0  0  0
   12.0517  -17.8102   21.9973 C   0  0  0  0  0  0  0  0  0  0  0  0
   12.7009  -18.5968   23.0958 C   0  0  0  0  0  0  0  0  0  0  0  0
   14.1258  -18.8032   22.7762 C   0  0  0  0  0  0  0  0  0  0  0  0
   14.9848  -17.9954   23.1769 O   0  0  0  0  0  0  0  0  0  0  0  0
   10.2875  -16.8474   23.4760 C   0  0  0  0  0  0  0  0  0  0  0  0
   10.7069  -15.7072   23.7996 O   0  0  0  0  0  0  0  0  0  0  0  0
   14.5028  -19.8978   22.0298 O   0  0  0  0  0  0  0  0  0  0  0  0
    7.3583  -15.3383   24.8186 C   0  0  0  0  0  0  0  0  0  0  0  0
    7.7096  -16.4147   25.8084 C   0  0  1  0  0  0  0  0  0  0  0  0
    6.8821  -17.4988   25.5593 O   0  0  0  0  0  0  0  0  0  0  0  0
    9.1578  -16.8417   25.7239 C   0  0  2  0  0  0  0  0  0  0  0  0
    9.4494  -17.4871   24.4604 N   0  0  0  0  0  0  0  0  0  0  0  0
    9.5548  -17.6938   26.8612 C   0  0  0  0  0  0  0  0  0  0  0  0
    9.4660  -17.2899   28.1823 O   0  0  0  0  0  0  0  0  0  0  0  0
    9.9967  -18.8451   26.6268 O   0  0  0  0  0  0  0  0  0  0  0  0
  2  1  1  0
  3  2  1  0
  3  4  1  6
  5  3  1  0
  5  6  1  1
  7  5  1  0
  7  8  2  0
  9  7  1  0
 10  9  1  0
 10 11  1  1
 12 11  1  0
 13 12  1  0
 14 13  2  0
 15 22  1  0
 15 10  1  0
 16 15  2  0
 17 13  1  0
 19 20  1  0
 19 18  1  6
 19 21  1  0
 21 22  1  6
 21 23  1  0
 23 25  2  0
 23 24  1  0
M  END
$$$$
