IET.pdb
     RDKit          3D

 25 24  0  0  1  0  0  0  0  0999 V2000
    8.6280  -12.1721   18.3274 C   0  0  0  0  0  0  0  0  0  0  0  0
    7.4388  -13.0280   18.6059 C   0  0  0  0  0  0  0  0  0  0  0  0
    7.6553  -14.0138   19.7198 C   0  0  2  0  0  0  0  0  0  0  0  0
    7.7513  -13.2587   21.0271 C   0  0  0  0  0  0  0  0  0  0  0  0
    8.9399  -14.7824   19.5300 C   0  0  2  0  0  0  0  0  0  0  0  0
    8.9055  -15.4723   18.3046 N   0  0  0  0  0  0  0  0  0  0  0  0
    9.1369  -15.7827   20.6290 C   0  0  0  0  0  0  0  0  0  0  0  0
    8.1899  -16.1186   21.4024 O   0  0  0  0  0  0  0  0  0  0  0  0
   10.3897  -16.4055   20.8621 N   0  0  0  0  0  0  0  0  0  0  0  0
   10.6022  -17.4088   21.9074 C   0  0  1  0  0  0  0  0  0  0  0  0
   11.9337  -18.0277   21.6189 C   0  0  0  0  0  0  0  0  0  0  0  0
   12.3768  -19.0623   22.6089 C   0  0  0  0  0  0  0  0  0  0  0  0
   13.7157  -19.5563   22.2372 C   0  0  0  0  0  0  0  0  0  0  0  0
   14.4399  -20.1121   23.0844 O   0  0  0  0  0  0  0  0  0  0  0  0
   10.4965  -16.7564   23.2139 C   0  0  0  0  0  0  0  0  0  0  0  0
   11.2388  -15.8168   23.5971 O   0  0  0  0  0  0  0  0  0  0  0  0
   14.1627  -19.3994   20.9437 O   0  0  0  0  0  0  0  0  0  0  0  0
    7.7550  -14.7928   24.8986 C   0  0  0  0  0  0  0  0  0  0  0  0
    8.0674  -15.9830   25.7633 C   0  0  1  0  0  0  0  0  0  0  0  0
    7.0887  -16.9372   25.5315 O   0  0  0  0  0  0  0  0  0  0  0  0
    9.4339  -16.5687   25.4866 C   0  0  2  0  0  0  0  0  0  0  0  0
    9.4987  -17.1694   24.1702 N   0  0  0  0  0  0  0  0  0  0  0  0
    9.8519  -17.5250   26.5295 C   0  0  0  0  0  0  0  0  0  0  0  0
    9.9448  -17.1957   27.8709 O   0  0  0  0  0  0  0  0  0  0  0  0
   10.1396  -18.6990   26.1910 O   0  0  0  0  0  0  0  0  0  0  0  0
  2  1  1  0
  3  2  1  0
  3  4  1  1
  5  3  1  0
  5  6  1  6
  7  5  1  0
  7  8  2  0
  9  7  1  0
 10  9  1  0
 10 11  1  6
 12 11  1  0
 13 12  1  0
 14 13  2  0
 15 22  1  0
 15 10  1  0
 16 15  2  0
 17 13  1  0
 19 20  1  0
 19 18  1  6
 19 21  1  0
 21 22  1  6
 21 23  1  0
 23 25  2  0
 23 24  1  0
M  END
$$$$
