IET.pdb
     RDKit          3D

 25 24  0  0  1  0  0  0  0  0999 V2000
    5.7484  -11.4456   25.6601 C   0  0  0  0  0  0  0  0  0  0  0  0
    5.6332  -12.8506   25.1734 C   0  0  0  0  0  0  0  0  0  0  0  0
    6.8823  -13.6615   25.3767 C   0  0  2  0  0  0  0  0  0  0  0  0
    8.0168  -13.0073   24.6196 C   0  0  0  0  0  0  0  0  0  0  0  0
    6.7171  -15.0651   24.8477 C   0  0  2  0  0  0  0  0  0  0  0  0
    5.5753  -15.6573   25.4172 N   0  0  0  0  0  0  0  0  0  0  0  0
    7.9065  -15.9122   25.1865 C   0  0  0  0  0  0  0  0  0  0  0  0
    7.9817  -16.5490   26.2805 O   0  0  0  0  0  0  0  0  0  0  0  0
    9.0087  -16.0467   24.3039 N   0  0  0  0  0  0  0  0  0  0  0  0
   10.1137  -16.9782   24.5401 C   0  0  1  0  0  0  0  0  0  0  0  0
   10.9048  -17.0082   23.2704 C   0  0  0  0  0  0  0  0  0  0  0  0
   10.1356  -17.4364   22.0571 C   0  0  0  0  0  0  0  0  0  0  0  0
   10.9946  -17.3192   20.8641 C   0  0  0  0  0  0  0  0  0  0  0  0
   10.8619  -16.3574   20.0841 O   0  0  0  0  0  0  0  0  0  0  0  0
   10.8590  -16.5344   25.7197 C   0  0  0  0  0  0  0  0  0  0  0  0
   11.5827  -15.5069   25.7534 O   0  0  0  0  0  0  0  0  0  0  0  0
   11.9478  -18.2823   20.6162 O   0  0  0  0  0  0  0  0  0  0  0  0
   10.4550  -14.5495   28.1392 C   0  0  0  0  0  0  0  0  0  0  0  0
   10.7187  -15.8114   28.9136 C   0  0  1  0  0  0  0  0  0  0  0  0
    9.4911  -16.3501   29.2669 O   0  0  0  0  0  0  0  0  0  0  0  0
   11.5202  -16.8261   28.1294 C   0  0  2  0  0  0  0  0  0  0  0  0
   10.8032  -17.2776   26.9547 N   0  0  0  0  0  0  0  0  0  0  0  0
   11.9456  -17.9659   28.9644 C   0  0  0  0  0  0  0  0  0  0  0  0
   12.7206  -17.8278   30.1030 O   0  0  0  0  0  0  0  0  0  0  0  0
   11.5904  -19.1229   28.6316 O   0  0  0  0  0  0  0  0  0  0  0  0
  2  1  1  0
  3  2  1  0
  3  4  1  6
  5  3  1  0
  5  6  1  1
  7  5  1  0
  7  8  2  0
  9  7  1  0
 10  9  1  0
 10 11  1  6
 12 11  1  0
 13 12  1  0
 14 13  2  0
 15 22  1  0
 15 10  1  0
 16 15  2  0
 17 13  1  0
 19 20  1  0
 19 18  1  6
 19 21  1  0
 21 22  1  6
 21 23  1  0
 23 25  2  0
 23 24  1  0
M  END
$$$$
