IET.pdb
     RDKit          3D

 25 24  0  0  1  0  0  0  0  0999 V2000
    6.6091  -12.0359   19.0977 C   0  0  0  0  0  0  0  0  0  0  0  0
    7.5275  -12.8042   18.2087 C   0  0  0  0  0  0  0  0  0  0  0  0
    8.5576  -13.6042   18.9558 C   0  0  2  0  0  0  0  0  0  0  0  0
    9.4246  -12.6569   19.7554 C   0  0  0  0  0  0  0  0  0  0  0  0
    9.4513  -14.3677   18.0095 C   0  0  2  0  0  0  0  0  0  0  0  0
    8.6747  -15.2230   17.2068 N   0  0  0  0  0  0  0  0  0  0  0  0
   10.4459  -15.2003   18.7611 C   0  0  0  0  0  0  0  0  0  0  0  0
   10.1624  -16.3642   19.1767 O   0  0  0  0  0  0  0  0  0  0  0  0
   11.7539  -14.7321   19.0468 N   0  0  0  0  0  0  0  0  0  0  0  0
   12.7230  -15.4966   19.8347 C   0  0  1  0  0  0  0  0  0  0  0  0
   14.0631  -14.9101   19.5201 C   0  0  0  0  0  0  0  0  0  0  0  0
   14.5694  -15.1971   18.1387 C   0  0  0  0  0  0  0  0  0  0  0  0
   15.8886  -14.5633   17.9573 C   0  0  0  0  0  0  0  0  0  0  0  0
   15.9724  -13.3812   17.5741 O   0  0  0  0  0  0  0  0  0  0  0  0
   12.3380  -15.4311   21.2458 C   0  0  0  0  0  0  0  0  0  0  0  0
   11.7646  -14.4465   21.7773 O   0  0  0  0  0  0  0  0  0  0  0  0
   17.0315  -15.2879   18.2148 O   0  0  0  0  0  0  0  0  0  0  0  0
    9.8389  -15.7769   22.3447 C   0  0  0  0  0  0  0  0  0  0  0  0
   10.4489  -16.7935   23.2699 C   0  0  1  0  0  0  0  0  0  0  0  0
   10.1647  -18.0499   22.7573 O   0  0  0  0  0  0  0  0  0  0  0  0
   11.9439  -16.6260   23.4244 C   0  0  2  0  0  0  0  0  0  0  0  0
   12.6044  -16.5322   22.1388 N   0  0  0  0  0  0  0  0  0  0  0  0
   12.5411  -17.6905   24.2535 C   0  0  0  0  0  0  0  0  0  0  0  0
   12.3590  -17.7811   25.6228 O   0  0  0  0  0  0  0  0  0  0  0  0
   13.2520  -18.5619   23.6959 O   0  0  0  0  0  0  0  0  0  0  0  0
  2  1  1  0
  3  2  1  0
  3  4  1  6
  5  3  1  0
  5  6  1  1
  7  5  1  0
  7  8  2  0
  9  7  1  0
 10  9  1  0
 10 11  1  1
 12 11  1  0
 13 12  1  0
 14 13  2  0
 15 22  1  0
 15 10  1  0
 16 15  2  0
 17 13  1  0
 19 20  1  0
 19 18  1  6
 19 21  1  0
 21 22  1  6
 21 23  1  0
 23 25  2  0
 23 24  1  0
M  END
$$$$
