IET.pdb
     RDKit          3D

 25 24  0  0  1  0  0  0  0  0999 V2000
    7.3631  -11.9112   19.5300 C   0  0  0  0  0  0  0  0  0  0  0  0
    7.8284  -13.3244   19.4265 C   0  0  0  0  0  0  0  0  0  0  0  0
    7.9382  -14.0199   20.7544 C   0  0  2  0  0  0  0  0  0  0  0  0
    8.9133  -13.2580   21.6245 C   0  0  0  0  0  0  0  0  0  0  0  0
    8.4575  -15.4278   20.5948 C   0  0  2  0  0  0  0  0  0  0  0  0
    7.6106  -16.1534   19.7375 N   0  0  0  0  0  0  0  0  0  0  0  0
    8.5106  -16.1355   21.9152 C   0  0  0  0  0  0  0  0  0  0  0  0
    7.4569  -16.4981   22.5202 O   0  0  0  0  0  0  0  0  0  0  0  0
    9.7391  -16.4369   22.5569 N   0  0  0  0  0  0  0  0  0  0  0  0
    9.8195  -17.1054   23.8573 C   0  0  1  0  0  0  0  0  0  0  0  0
   10.7878  -18.2326   23.6812 C   0  0  0  0  0  0  0  0  0  0  0  0
   12.1962  -17.8144   23.3836 C   0  0  0  0  0  0  0  0  0  0  0  0
   13.0267  -19.0117   23.1569 C   0  0  0  0  0  0  0  0  0  0  0  0
   12.5141  -20.1467   23.1747 O   0  0  0  0  0  0  0  0  0  0  0  0
   10.2002  -16.1192   24.8704 C   0  0  0  0  0  0  0  0  0  0  0  0
   10.9562  -15.1384   24.6534 O   0  0  0  0  0  0  0  0  0  0  0  0
   14.3768  -18.8678   22.9247 O   0  0  0  0  0  0  0  0  0  0  0  0
    9.2638  -13.1342   28.3737 C   0  0  0  0  0  0  0  0  0  0  0  0
    8.8914  -14.2902   27.4868 C   0  0  1  0  0  0  0  0  0  0  0  0
    8.4172  -13.7668   26.2938 O   0  0  0  0  0  0  0  0  0  0  0  0
   10.0518  -15.2214   27.2159 C   0  0  2  0  0  0  0  0  0  0  0  0
    9.7118  -16.2205   26.2239 N   0  0  0  0  0  0  0  0  0  0  0  0
   10.5630  -15.8484   28.4498 C   0  0  0  0  0  0  0  0  0  0  0  0
   10.5958  -17.2177   28.6505 O   0  0  0  0  0  0  0  0  0  0  0  0
   10.9919  -15.1090   29.3690 O   0  0  0  0  0  0  0  0  0  0  0  0
  2  1  1  0
  3  2  1  0
  3  4  1  1
  5  3  1  0
  5  6  1  6
  7  5  1  0
  7  8  2  0
  9  7  1  0
 10  9  1  0
 10 11  1  6
 12 11  1  0
 13 12  1  0
 14 13  2  0
 15 22  1  0
 15 10  1  0
 16 15  2  0
 17 13  1  0
 19 20  1  0
 19 18  1  1
 19 21  1  0
 21 22  1  6
 21 23  1  0
 23 25  2  0
 23 24  1  0
M  END
$$$$
