IET.pdb
     RDKit          3D

 25 24  0  0  1  0  0  0  0  0999 V2000
    7.1741  -11.2312   26.4475 C   0  0  0  0  0  0  0  0  0  0  0  0
    7.0365  -12.5735   27.0826 C   0  0  0  0  0  0  0  0  0  0  0  0
    7.4703  -13.7060   26.1946 C   0  0  2  0  0  0  0  0  0  0  0  0
    6.6455  -13.6748   24.9269 C   0  0  0  0  0  0  0  0  0  0  0  0
    7.2494  -15.0415   26.8617 C   0  0  2  0  0  0  0  0  0  0  0  0
    7.8907  -15.0603   28.1136 N   0  0  0  0  0  0  0  0  0  0  0  0
    7.8055  -16.1578   26.0300 C   0  0  0  0  0  0  0  0  0  0  0  0
    9.0536  -16.3075   25.8636 O   0  0  0  0  0  0  0  0  0  0  0  0
    6.9677  -17.1042   25.3864 N   0  0  0  0  0  0  0  0  0  0  0  0
    7.4829  -18.1928   24.5533 C   0  0  1  0  0  0  0  0  0  0  0  0
    6.3482  -19.1534   24.3838 C   0  0  0  0  0  0  0  0  0  0  0  0
    6.6581  -20.3544   23.5420 C   0  0  0  0  0  0  0  0  0  0  0  0
    5.4945  -21.2604   23.5313 C   0  0  0  0  0  0  0  0  0  0  0  0
    5.4055  -22.1816   24.3647 O   0  0  0  0  0  0  0  0  0  0  0  0
    8.0013  -17.6261   23.3067 C   0  0  0  0  0  0  0  0  0  0  0  0
    7.2795  -17.2124   22.3641 O   0  0  0  0  0  0  0  0  0  0  0  0
    4.5033  -21.0817   22.5916 O   0  0  0  0  0  0  0  0  0  0  0  0
    9.6561  -14.6374   22.5968 C   0  0  0  0  0  0  0  0  0  0  0  0
    9.3975  -15.6352   21.5017 C   0  0  1  0  0  0  0  0  0  0  0  0
    9.9913  -15.1517   20.3460 O   0  0  0  0  0  0  0  0  0  0  0  0
    9.9363  -17.0117   21.8208 C   0  0  2  0  0  0  0  0  0  0  0  0
    9.4210  -17.5059   23.0810 N   0  0  0  0  0  0  0  0  0  0  0  0
   11.4110  -17.0525   21.7959 C   0  0  0  0  0  0  0  0  0  0  0  0
   12.1795  -17.4596   22.8729 O   0  0  0  0  0  0  0  0  0  0  0  0
   12.0064  -16.7016   20.7480 O   0  0  0  0  0  0  0  0  0  0  0  0
  2  1  1  0
  3  2  1  0
  3  4  1  6
  5  3  1  0
  5  6  1  1
  7  5  1  0
  7  8  2  0
  9  7  1  0
 10  9  1  0
 10 11  1  6
 12 11  1  0
 13 12  1  0
 14 13  2  0
 15 22  1  0
 15 10  1  0
 16 15  2  0
 17 13  1  0
 19 20  1  0
 19 18  1  1
 19 21  1  0
 21 22  1  1
 21 23  1  0
 23 25  2  0
 23 24  1  0
M  END
$$$$
