IET.pdb
     RDKit          3D

 25 24  0  0  1  0  0  0  0  0999 V2000
    7.1999  -11.8789   19.0406 C   0  0  0  0  0  0  0  0  0  0  0  0
    7.5466  -13.3264   19.1340 C   0  0  0  0  0  0  0  0  0  0  0  0
    7.6668  -13.8258   20.5465 C   0  0  2  0  0  0  0  0  0  0  0  0
    8.8185  -13.1122   21.2195 C   0  0  0  0  0  0  0  0  0  0  0  0
    7.9518  -15.3073   20.5821 C   0  0  2  0  0  0  0  0  0  0  0  0
    6.8831  -16.0119   19.9987 N   0  0  0  0  0  0  0  0  0  0  0  0
    8.1214  -15.7898   21.9912 C   0  0  0  0  0  0  0  0  0  0  0  0
    7.1351  -15.9057   22.7796 O   0  0  0  0  0  0  0  0  0  0  0  0
    9.3909  -16.1418   22.5168 N   0  0  0  0  0  0  0  0  0  0  0  0
    9.5896  -16.5874   23.8975 C   0  0  1  0  0  0  0  0  0  0  0  0
   10.8104  -17.4524   23.8790 C   0  0  0  0  0  0  0  0  0  0  0  0
   11.2344  -17.9749   25.2185 C   0  0  0  0  0  0  0  0  0  0  0  0
   11.5823  -19.4032   25.1010 C   0  0  0  0  0  0  0  0  0  0  0  0
   12.6702  -19.7479   24.6022 O   0  0  0  0  0  0  0  0  0  0  0  0
    9.6823  -15.4099   24.7629 C   0  0  0  0  0  0  0  0  0  0  0  0
   10.5035  -14.4727   24.5960 O   0  0  0  0  0  0  0  0  0  0  0  0
   10.6946  -20.3574   25.5473 O   0  0  0  0  0  0  0  0  0  0  0  0
    7.4360  -12.5517   25.5045 C   0  0  0  0  0  0  0  0  0  0  0  0
    7.6703  -13.2797   26.7994 C   0  0  1  0  0  0  0  0  0  0  0  0
    6.5692  -14.0900   27.0293 O   0  0  0  0  0  0  0  0  0  0  0  0
    8.9308  -14.1151   26.7848 C   0  0  2  0  0  0  0  0  0  0  0  0
    8.8050  -15.2526   25.8971 N   0  0  0  0  0  0  0  0  0  0  0  0
    9.3343  -14.5387   28.1393 C   0  0  0  0  0  0  0  0  0  0  0  0
    9.4932  -15.8639   28.5066 O   0  0  0  0  0  0  0  0  0  0  0  0
    9.5461  -13.6582   29.0086 O   0  0  0  0  0  0  0  0  0  0  0  0
  2  1  1  0
  3  2  1  0
  3  4  1  6
  5  3  1  0
  5  6  1  1
  7  5  1  0
  7  8  2  0
  9  7  1  0
 10  9  1  0
 10 11  1  6
 12 11  1  0
 13 12  1  0
 14 13  2  0
 15 22  1  0
 15 10  1  0
 16 15  2  0
 17 13  1  0
 19 20  1  0
 19 18  1  6
 19 21  1  0
 21 22  1  6
 21 23  1  0
 23 25  2  0
 23 24  1  0
M  END
$$$$
