HQE.pdb
     RDKit          3D

 29 29  0  0  1  0  0  0  0  0999 V2000
   20.4687  -12.3280  -15.6091 N   0  0  0  0  0  0  0  0  0  0  0  0
   19.8378  -11.1799  -16.2318 C   0  0  1  0  0  0  0  0  0  0  0  0
   18.3949  -11.1222  -15.7820 C   0  0  0  0  0  0  0  0  0  0  0  0
   17.7029  -12.3115  -16.3483 C   0  0  0  0  0  0  0  0  0  0  0  0
   17.3673  -13.4764  -15.6958 C   0  0  0  0  0  0  0  0  0  0  0  0
   16.7479  -14.3056  -16.5741 N   0  0  0  0  0  0  0  0  0  0  0  0
   16.6931  -13.6800  -17.7545 C   0  0  0  0  0  0  0  0  0  0  0  0
   17.2748  -12.4695  -17.6103 N   0  0  0  0  0  0  0  0  0  0  0  0
   20.5832   -9.9536  -15.9449 C   0  0  0  0  0  0  0  0  0  0  0  0
   20.8298   -9.6470  -14.7380 O   0  0  0  0  0  0  0  0  0  0  0  0
   25.6838   -8.1650  -18.5016 N   0  0  0  0  0  0  0  0  0  0  0  0
   25.6496   -8.3028  -17.0798 C   0  0  0  0  0  0  0  0  0  0  0  0
   26.7543   -8.4822  -16.5097 O   0  0  0  0  0  0  0  0  0  0  0  0
   24.3420   -8.2281  -16.3827 C   0  0  0  0  0  0  0  0  0  0  0  0
   23.1800   -7.9499  -17.2893 C   0  0  0  0  0  0  0  0  0  0  0  0
   21.8443   -7.8783  -16.6031 C   0  0  2  0  0  0  0  0  0  0  0  0
   21.0501   -9.0811  -16.9371 N   0  0  0  0  0  0  0  0  0  0  0  0
   21.0361   -6.6931  -16.9915 C   0  0  0  0  0  0  0  0  0  0  0  0
   20.1855   -6.7548  -17.9142 O   0  0  0  0  0  0  0  0  0  0  0  0
   21.1762   -5.4333  -16.3491 N   0  0  0  0  0  0  0  0  0  0  0  0
   20.3753   -4.2806  -16.6728 C   0  0  1  0  0  0  0  0  0  0  0  0
   18.9295   -4.5925  -16.8209 C   0  0  0  0  0  0  0  0  0  0  0  0
   18.0401   -4.4072  -15.6697 C   0  0  0  0  0  0  0  0  0  0  0  0
   16.6168   -4.6397  -15.8065 C   0  0  0  0  0  0  0  0  0  0  0  0
   15.8696   -5.3312  -15.0832 O   0  0  0  0  0  0  0  0  0  0  0  0
   20.7073   -3.0622  -15.9240 C   0  0  0  0  0  0  0  0  0  0  0  0
   20.1538   -1.8563  -16.2929 O   0  0  0  0  0  0  0  0  0  0  0  0
   15.9445   -4.0190  -16.8910 O   0  0  0  0  0  0  0  0  0  0  0  0
   21.4899   -3.1109  -14.9580 O   0  0  0  0  0  0  0  0  0  0  0  0
  2  1  1  1
  3  2  1  0
  3  4  1  0
  4  5  2  0
  4  8  1  0
  5  6  1  0
  6  7  1  0
  8  7  2  0
  9 17  1  0
  9  2  1  0
 10  9  2  0
 12 11  1  0
 13 12  2  0
 14 12  1  0
 16 15  1  6
 15 14  1  0
 16 17  1  0
 18 20  1  0
 18 16  1  0
 19 18  2  0
 21 22  1  1
 21 20  1  0
 23 22  1  0
 24 23  1  0
 24 25  2  0
 26 21  1  0
 27 26  1  0
 28 24  1  0
 29 26  2  0
M  END
$$$$
