HQE.pdb
     RDKit          3D

 29 29  0  0  1  0  0  0  0  0999 V2000
   21.3918  -15.1991  -16.1478 N   0  0  0  0  0  0  0  0  0  0  0  0
   20.9248  -13.9047  -16.6064 C   0  0  1  0  0  0  0  0  0  0  0  0
   19.4701  -13.7547  -16.2204 C   0  0  0  0  0  0  0  0  0  0  0  0
   18.7174  -14.8557  -16.8799 C   0  0  0  0  0  0  0  0  0  0  0  0
   18.2988  -16.0403  -16.3170 C   0  0  0  0  0  0  0  0  0  0  0  0
   17.6466  -16.7656  -17.2611 N   0  0  0  0  0  0  0  0  0  0  0  0
   17.6524  -16.0564  -18.3945 C   0  0  0  0  0  0  0  0  0  0  0  0
   18.3044  -14.8977  -18.1561 N   0  0  0  0  0  0  0  0  0  0  0  0
   21.7742  -12.8297  -16.0920 C   0  0  0  0  0  0  0  0  0  0  0  0
   21.7538  -12.5647  -14.8507 O   0  0  0  0  0  0  0  0  0  0  0  0
   27.3366  -10.8767  -18.0979 N   0  0  0  0  0  0  0  0  0  0  0  0
   26.9951   -9.7950  -17.2289 C   0  0  0  0  0  0  0  0  0  0  0  0
   27.8686   -8.9058  -17.0746 O   0  0  0  0  0  0  0  0  0  0  0  0
   25.6617   -9.7908  -16.5781 C   0  0  0  0  0  0  0  0  0  0  0  0
   24.7993  -10.9627  -16.9416 C   0  0  0  0  0  0  0  0  0  0  0  0
   23.4196  -10.9431  -16.3448 C   0  0  2  0  0  0  0  0  0  0  0  0
   22.6238  -12.0608  -16.8986 N   0  0  0  0  0  0  0  0  0  0  0  0
   22.6692   -9.6893  -16.6163 C   0  0  0  0  0  0  0  0  0  0  0  0
   22.1887   -9.4469  -17.7516 O   0  0  0  0  0  0  0  0  0  0  0  0
   22.4533   -8.7010  -15.6183 N   0  0  0  0  0  0  0  0  0  0  0  0
   21.6511   -7.5226  -15.8247 C   0  0  1  0  0  0  0  0  0  0  0  0
   20.3575   -7.8034  -16.5009 C   0  0  0  0  0  0  0  0  0  0  0  0
   19.3375   -8.5814  -15.7906 C   0  0  0  0  0  0  0  0  0  0  0  0
   18.0274   -8.7705  -16.3791 C   0  0  0  0  0  0  0  0  0  0  0  0
   17.4815   -8.1103  -17.2880 O   0  0  0  0  0  0  0  0  0  0  0  0
   21.6061   -6.5938  -14.6886 C   0  0  0  0  0  0  0  0  0  0  0  0
   20.9417   -5.3933  -14.8079 O   0  0  0  0  0  0  0  0  0  0  0  0
   17.2264   -9.8337  -15.8878 O   0  0  0  0  0  0  0  0  0  0  0  0
   22.1682   -6.8827  -13.6169 O   0  0  0  0  0  0  0  0  0  0  0  0
  2  1  1  1
  3  2  1  0
  3  4  1  0
  4  5  2  0
  4  8  1  0
  5  6  1  0
  6  7  1  0
  8  7  2  0
  9 17  1  0
  9  2  1  0
 10  9  2  0
 12 11  1  0
 13 12  2  0
 14 12  1  0
 16 15  1  6
 15 14  1  0
 16 17  1  0
 18 20  1  0
 18 16  1  0
 19 18  2  0
 21 22  1  1
 21 20  1  0
 23 22  1  0
 24 23  1  0
 24 25  2  0
 26 21  1  0
 27 26  1  0
 28 24  1  0
 29 26  2  0
M  END
$$$$
