HQE.pdb
     RDKit          3D

 29 29  0  0  1  0  0  0  0  0999 V2000
   24.9863  -18.7230  -17.7692 N   0  0  0  0  0  0  0  0  0  0  0  0
   23.5890  -18.6838  -18.1567 C   0  0  1  0  0  0  0  0  0  0  0  0
   23.2239  -20.0164  -18.7721 C   0  0  0  0  0  0  0  0  0  0  0  0
   24.0408  -20.1773  -20.0052 C   0  0  0  0  0  0  0  0  0  0  0  0
   24.9059  -21.2040  -20.3102 C   0  0  0  0  0  0  0  0  0  0  0  0
   25.4496  -20.9682  -21.5315 N   0  0  0  0  0  0  0  0  0  0  0  0
   24.9403  -19.8194  -21.9883 C   0  0  0  0  0  0  0  0  0  0  0  0
   24.0855  -19.3444  -21.0565 N   0  0  0  0  0  0  0  0  0  0  0  0
   22.7412  -18.3188  -17.0210 C   0  0  0  0  0  0  0  0  0  0  0  0
   22.9978  -18.8029  -15.8760 O   0  0  0  0  0  0  0  0  0  0  0  0
   20.5760  -12.8593  -15.5368 N   0  0  0  0  0  0  0  0  0  0  0  0
   20.5438  -13.3914  -16.8626 C   0  0  0  0  0  0  0  0  0  0  0  0
   20.5244  -12.5550  -17.7994 O   0  0  0  0  0  0  0  0  0  0  0  0
   20.5346  -14.8638  -17.0450 C   0  0  0  0  0  0  0  0  0  0  0  0
   20.7262  -15.6392  -15.7755 C   0  0  0  0  0  0  0  0  0  0  0  0
   20.7996  -17.1307  -15.9492 C   0  0  2  0  0  0  0  0  0  0  0  0
   21.6441  -17.4526  -17.1206 N   0  0  0  0  0  0  0  0  0  0  0  0
   19.4769  -17.7722  -16.1683 C   0  0  0  0  0  0  0  0  0  0  0  0
   18.9732  -17.8579  -17.3161 O   0  0  0  0  0  0  0  0  0  0  0  0
   18.7120  -18.3205  -15.1036 N   0  0  0  0  0  0  0  0  0  0  0  0
   17.4146  -18.9205  -15.2817 C   0  0  1  0  0  0  0  0  0  0  0  0
   17.3052  -20.2741  -14.6771 C   0  0  0  0  0  0  0  0  0  0  0  0
   16.0247  -20.9849  -14.7507 C   0  0  0  0  0  0  0  0  0  0  0  0
   15.9198  -22.3451  -14.2635 C   0  0  0  0  0  0  0  0  0  0  0  0
   16.8342  -23.1085  -13.8884 O   0  0  0  0  0  0  0  0  0  0  0  0
   16.2770  -18.0170  -15.0702 C   0  0  0  0  0  0  0  0  0  0  0  0
   16.3887  -16.9657  -14.1875 O   0  0  0  0  0  0  0  0  0  0  0  0
   14.6267  -22.9243  -14.1865 O   0  0  0  0  0  0  0  0  0  0  0  0
   15.2085  -18.1966  -15.6820 O   0  0  0  0  0  0  0  0  0  0  0  0
  2  1  1  1
  3  2  1  0
  3  4  1  0
  4  5  2  0
  4  8  1  0
  5  6  1  0
  6  7  1  0
  8  7  2  0
  9 17  1  0
  9  2  1  0
 10  9  2  0
 12 11  1  0
 13 12  2  0
 14 12  1  0
 16 15  1  6
 15 14  1  0
 16 17  1  0
 18 20  1  0
 18 16  1  0
 19 18  2  0
 21 22  1  1
 21 20  1  0
 23 22  1  0
 24 23  1  0
 24 25  2  0
 26 21  1  0
 27 26  1  0
 28 24  1  0
 29 26  2  0
M  END
$$$$
