HQE.pdb
     RDKit          3D

 29 29  0  0  1  0  0  0  0  0999 V2000
   23.4266  -13.7893  -17.7895 N   0  0  0  0  0  0  0  0  0  0  0  0
   23.4887  -12.6448  -16.9005 C   0  0  1  0  0  0  0  0  0  0  0  0
   24.8630  -12.0233  -17.0131 C   0  0  0  0  0  0  0  0  0  0  0  0
   25.8414  -13.0014  -16.4656 C   0  0  0  0  0  0  0  0  0  0  0  0
   26.5710  -13.9379  -17.1628 C   0  0  0  0  0  0  0  0  0  0  0  0
   27.3447  -14.6287  -16.2870 N   0  0  0  0  0  0  0  0  0  0  0  0
   27.1100  -14.1405  -15.0645 C   0  0  0  0  0  0  0  0  0  0  0  0
   26.1961  -13.1526  -15.1802 N   0  0  0  0  0  0  0  0  0  0  0  0
   22.4032  -11.7043  -17.1818 C   0  0  0  0  0  0  0  0  0  0  0  0
   21.8592  -11.7118  -18.3287 O   0  0  0  0  0  0  0  0  0  0  0  0
   18.1671  -13.1177  -17.6679 N   0  0  0  0  0  0  0  0  0  0  0  0
   18.4027  -12.9827  -16.2651 C   0  0  0  0  0  0  0  0  0  0  0  0
   17.8789  -13.8519  -15.5249 O   0  0  0  0  0  0  0  0  0  0  0  0
   19.2311  -11.8505  -15.7820 C   0  0  0  0  0  0  0  0  0  0  0  0
   19.5539  -10.8344  -16.8369 C   0  0  0  0  0  0  0  0  0  0  0  0
   20.7267   -9.9473  -16.5241 C   0  0  2  0  0  0  0  0  0  0  0  0
   21.9181  -10.7797  -16.2472 N   0  0  0  0  0  0  0  0  0  0  0  0
   20.5147   -9.0718  -15.3420 C   0  0  0  0  0  0  0  0  0  0  0  0
   21.2803   -9.1191  -14.3468 O   0  0  0  0  0  0  0  0  0  0  0  0
   19.4450   -8.1393  -15.2683 N   0  0  0  0  0  0  0  0  0  0  0  0
   19.5655   -6.8343  -14.6706 C   0  0  1  0  0  0  0  0  0  0  0  0
   20.8550   -6.1629  -14.9807 C   0  0  0  0  0  0  0  0  0  0  0  0
   21.1262   -4.8422  -14.4038 C   0  0  0  0  0  0  0  0  0  0  0  0
   22.3875   -4.1799  -14.6666 C   0  0  0  0  0  0  0  0  0  0  0  0
   23.3830   -4.6196  -15.2793 O   0  0  0  0  0  0  0  0  0  0  0  0
   18.3597   -6.0005  -14.7486 C   0  0  0  0  0  0  0  0  0  0  0  0
   17.8894   -5.3646  -13.6211 O   0  0  0  0  0  0  0  0  0  0  0  0
   22.5557   -2.8570  -14.1817 O   0  0  0  0  0  0  0  0  0  0  0  0
   17.7560   -5.8664  -15.8283 O   0  0  0  0  0  0  0  0  0  0  0  0
  2  1  1  6
  3  2  1  0
  3  4  1  0
  4  5  2  0
  4  8  1  0
  5  6  1  0
  6  7  1  0
  8  7  2  0
  9 17  1  0
  9  2  1  0
 10  9  2  0
 12 11  1  0
 13 12  2  0
 14 12  1  0
 16 15  1  1
 15 14  1  0
 16 17  1  0
 18 20  1  0
 18 16  1  0
 19 18  2  0
 21 22  1  6
 21 20  1  0
 23 22  1  0
 24 23  1  0
 24 25  2  0
 26 21  1  0
 27 26  1  0
 28 24  1  0
 29 26  2  0
M  END
$$$$
