HQE.pdb
     RDKit          3D

 29 29  0  0  1  0  0  0  0  0999 V2000
   26.7942  -33.3022   -0.0437 N   0  0  0  0  0  0  0  0  0  0  0  0
   27.0762  -33.8835    1.2549 C   0  0  1  0  0  0  0  0  0  0  0  0
   28.5659  -33.8022    1.5041 C   0  0  0  0  0  0  0  0  0  0  0  0
   29.2151  -34.8535    0.6753 C   0  0  0  0  0  0  0  0  0  0  0  0
   28.5998  -35.8484   -0.0506 C   0  0  0  0  0  0  0  0  0  0  0  0
   29.5536  -36.5955   -0.6628 N   0  0  0  0  0  0  0  0  0  0  0  0
   30.7443  -36.0851   -0.3320 C   0  0  0  0  0  0  0  0  0  0  0  0
   30.5315  -35.0274    0.4808 N   0  0  0  0  0  0  0  0  0  0  0  0
   26.2784  -33.2411    2.3002 C   0  0  0  0  0  0  0  0  0  0  0  0
   26.1765  -31.9759    2.3116 O   0  0  0  0  0  0  0  0  0  0  0  0
   22.0620  -32.7429    1.4975 N   0  0  0  0  0  0  0  0  0  0  0  0
   22.3661  -33.7263    2.4886 C   0  0  0  0  0  0  0  0  0  0  0  0
   22.5571  -34.8964    2.0737 O   0  0  0  0  0  0  0  0  0  0  0  0
   22.4348  -33.3135    3.9120 C   0  0  0  0  0  0  0  0  0  0  0  0
   23.5857  -33.9087    4.6672 C   0  0  0  0  0  0  0  0  0  0  0  0
   24.9153  -33.2539    4.4149 C   0  0  2  0  0  0  0  0  0  0  0  0
   25.6079  -33.9483    3.3072 N   0  0  0  0  0  0  0  0  0  0  0  0
   25.8255  -33.2781    5.5896 C   0  0  0  0  0  0  0  0  0  0  0  0
   27.0741  -33.2838    5.4500 O   0  0  0  0  0  0  0  0  0  0  0  0
   25.3423  -33.2963    6.9258 N   0  0  0  0  0  0  0  0  0  0  0  0
   26.1962  -33.2122    8.0828 C   0  0  1  0  0  0  0  0  0  0  0  0
   27.2491  -32.1699    7.9616 C   0  0  0  0  0  0  0  0  0  0  0  0
   28.1388  -31.9216    9.1005 C   0  0  0  0  0  0  0  0  0  0  0  0
   29.0502  -30.7958    9.0784 C   0  0  0  0  0  0  0  0  0  0  0  0
   29.0215  -29.7875    8.3419 O   0  0  0  0  0  0  0  0  0  0  0  0
   25.5033  -33.2935    9.3746 C   0  0  0  0  0  0  0  0  0  0  0  0
   26.2053  -33.6276   10.5114 O   0  0  0  0  0  0  0  0  0  0  0  0
   30.1311  -30.7990    9.9976 O   0  0  0  0  0  0  0  0  0  0  0  0
   24.2825  -33.0654    9.4494 O   0  0  0  0  0  0  0  0  0  0  0  0
  2  1  1  6
  3  2  1  0
  3  4  1  0
  4  5  2  0
  4  8  1  0
  5  6  1  0
  6  7  1  0
  8  7  2  0
  9 17  1  0
  9  2  1  0
 10  9  2  0
 12 11  1  0
 13 12  2  0
 14 12  1  0
 16 15  1  1
 15 14  1  0
 16 17  1  0
 18 20  1  0
 18 16  1  0
 19 18  2  0
 21 22  1  1
 21 20  1  0
 23 22  1  0
 24 23  1  0
 24 25  2  0
 26 21  1  0
 27 26  1  0
 28 24  1  0
 29 26  2  0
M  END
$$$$
