RDA.pdb
     RDKit          3D

 25 24  0  0  1  0  0  0  0  0999 V2000
   25.5547  -22.6094  -11.2612 N   0  0  0  0  0  0  0  0  0  0  0  0
   25.1301  -21.2576  -11.1818 C   0  0  0  0  0  0  0  0  0  0  0  0
   24.8393  -20.7755   -9.9984 N   0  0  0  0  0  0  0  0  0  0  0  0
   25.0196  -20.4500  -12.3460 N   0  0  0  0  0  0  0  0  0  0  0  0
   24.7234  -21.0354  -13.6372 C   0  0  0  0  0  0  0  0  0  0  0  0
   25.8083  -20.7868  -14.6403 C   0  0  0  0  0  0  0  0  0  0  0  0
   25.4660  -21.4053  -15.9540 C   0  0  0  0  0  0  0  0  0  0  0  0
   25.1438  -22.8533  -15.8258 C   0  0  2  0  0  0  0  0  0  0  0  0
   26.1501  -23.6123  -16.5382 N   0  0  0  0  0  0  0  0  0  0  0  0
   23.8194  -23.1740  -16.4554 C   0  0  0  0  0  0  0  0  0  0  0  0
   23.7107  -23.1994  -17.7035 O   0  0  0  0  0  0  0  0  0  0  0  0
   24.4932  -19.7983   -9.8855 N   0  0  0  0  0  0  0  0  0  0  0  0
   22.6692  -23.4527  -15.6794 C   0  0  2  0  0  0  0  0  0  0  0  0
   21.3680  -23.7312  -16.2325 C   0  0  0  0  0  0  0  0  0  0  0  0
   20.9104  -25.0817  -15.6776 C   0  0  0  0  0  0  0  0  0  0  0  0
   19.6209  -25.4554  -16.3070 O   0  0  0  0  0  0  0  0  0  0  0  0
   19.5156  -25.3502  -17.5590 C   0  0  0  0  0  0  0  0  0  0  0  0
   20.4186  -22.6640  -15.8611 O   0  0  0  0  0  0  0  0  0  0  0  0
   20.4509  -22.1094  -14.7092 O   0  0  0  0  0  0  0  0  0  0  0  0
   18.5120  -25.9167  -15.6006 C   0  0  0  0  0  0  0  0  0  0  0  0
   17.6872  -21.6668  -15.1340 C   0  0  2  0  0  0  0  0  0  0  0  0
   18.4944  -21.1455  -16.3226 N   0  0  0  0  0  0  0  0  0  0  0  0
   19.4197  -22.1907  -16.7515 C   0  0  0  0  0  0  0  0  0  0  0  0
   19.2813  -19.9862  -15.8469 O   0  0  0  0  0  0  0  0  0  0  0  0
   20.6636  -20.0490  -15.6800 O   0  0  0  0  0  0  0  0  0  0  0  0
  2  3  2  0
  2  1  1  0
  4  2  1  0
  5  4  1  0
  6  5  1  0
  7  6  1  0
  8  7  1  0
  8 10  1  0
  8  9  1  6
 10 12  1  0
 11 10  2  0
 12 13  1  0
 13 14  1  1
 14 15  1  0
 15 19  1  0
 16 15  2  0
 17 13  1  0
 17 18  2  0
 21 20  1  6
 21 22  1  0
 21 23  1  0
 22 17  1  0
 23 25  2  0
 23 24  1  0
M  END
$$$$
