RDA.pdb
     RDKit          3D

 25 24  0  0  1  0  0  0  0  0999 V2000
   15.1826  -12.9499  -15.0186 N   0  0  0  0  0  0  0  0  0  0  0  0
   15.9422  -14.1249  -15.2552 C   0  0  0  0  0  0  0  0  0  0  0  0
   15.2977  -15.2620  -15.3511 N   0  0  0  0  0  0  0  0  0  0  0  0
   17.3569  -14.0752  -15.3821 N   0  0  0  0  0  0  0  0  0  0  0  0
   18.0599  -12.8098  -15.4261 C   0  0  0  0  0  0  0  0  0  0  0  0
   17.7419  -12.0213  -16.6599 C   0  0  0  0  0  0  0  0  0  0  0  0
   18.4288  -10.6974  -16.6334 C   0  0  0  0  0  0  0  0  0  0  0  0
   17.9609   -9.8003  -17.7259 C   0  0  2  0  0  0  0  0  0  0  0  0
   18.0966  -10.5014  -18.9853 N   0  0  0  0  0  0  0  0  0  0  0  0
   18.8069   -8.5635  -17.8145 C   0  0  0  0  0  0  0  0  0  0  0  0
   19.7690   -8.5208  -18.6162 O   0  0  0  0  0  0  0  0  0  0  0  0
   15.8096  -16.1622  -15.4730 N   0  0  0  0  0  0  0  0  0  0  0  0
   18.5553   -7.4249  -17.0126 C   0  0  1  0  0  0  0  0  0  0  0  0
   19.3144   -6.2021  -17.0826 C   0  0  0  0  0  0  0  0  0  0  0  0
   18.3173   -5.0432  -17.1459 C   0  0  0  0  0  0  0  0  0  0  0  0
   19.0616   -3.7657  -17.2582 O   0  0  0  0  0  0  0  0  0  0  0  0
   19.9689   -3.6785  -18.1294 C   0  0  0  0  0  0  0  0  0  0  0  0
   20.1875   -6.0772  -15.8992 O   0  0  0  0  0  0  0  0  0  0  0  0
   19.7564   -6.3190  -14.7198 O   0  0  0  0  0  0  0  0  0  0  0  0
   18.8227   -2.6499  -16.4585 C   0  0  0  0  0  0  0  0  0  0  0  0
   23.8394   -5.4751  -15.2221 C   0  0  1  0  0  0  0  0  0  0  0  0
   22.3796   -5.6298  -14.7964 N   0  0  0  0  0  0  0  0  0  0  0  0
   21.5481   -5.6848  -15.9957 C   0  0  0  0  0  0  0  0  0  0  0  0
   22.0145   -4.4207  -14.0255 O   0  0  0  0  0  0  0  0  0  0  0  0
   22.2619   -4.3129  -12.6580 O   0  0  0  0  0  0  0  0  0  0  0  0
  2  3  2  0
  2  1  1  0
  4  2  1  0
  5  4  1  0
  6  5  1  0
  7  6  1  0
  8  7  1  0
  8 10  1  0
  8  9  1  6
 10 12  1  0
 11 10  2  0
 12 13  1  0
 13 14  1  1
 14 15  1  0
 15 19  1  0
 16 15  2  0
 17 13  1  0
 17 18  2  0
 21 20  1  6
 21 22  1  0
 21 23  1  0
 22 17  1  0
 23 25  2  0
 23 24  1  0
M  END
$$$$
