RDA.pdb
     RDKit          3D

 25 24  0  0  1  0  0  0  0  0999 V2000
   29.5700  -20.7558  -10.0439 N   0  0  0  0  0  0  0  0  0  0  0  0
   29.7512  -21.6703  -11.1138 C   0  0  0  0  0  0  0  0  0  0  0  0
   30.9769  -21.9210  -11.5044 N   0  0  0  0  0  0  0  0  0  0  0  0
   28.6420  -22.2944  -11.7461 N   0  0  0  0  0  0  0  0  0  0  0  0
   27.3023  -21.7637  -11.6008 C   0  0  0  0  0  0  0  0  0  0  0  0
   27.1518  -20.4110  -12.2274 C   0  0  0  0  0  0  0  0  0  0  0  0
   26.1103  -20.4354  -13.2952 C   0  0  0  0  0  0  0  0  0  0  0  0
   25.0932  -21.4977  -13.0632 C   0  0  2  0  0  0  0  0  0  0  0  0
   25.6638  -22.7714  -13.4480 N   0  0  0  0  0  0  0  0  0  0  0  0
   23.8767  -21.2820  -13.9158 C   0  0  0  0  0  0  0  0  0  0  0  0
   23.8943  -21.6121  -15.1245 O   0  0  0  0  0  0  0  0  0  0  0  0
   31.1693  -22.6048  -12.2677 N   0  0  0  0  0  0  0  0  0  0  0  0
   22.6908  -20.7094  -13.3975 C   0  0  1  0  0  0  0  0  0  0  0  0
   21.4755  -20.5420  -14.1537 C   0  0  0  0  0  0  0  0  0  0  0  0
   20.3093  -20.5656  -13.1634 C   0  0  0  0  0  0  0  0  0  0  0  0
   19.0349  -20.6699  -13.9140 O   0  0  0  0  0  0  0  0  0  0  0  0
   19.0800  -20.6378  -15.1736 C   0  0  0  0  0  0  0  0  0  0  0  0
   21.5085  -19.2652  -14.8931 O   0  0  0  0  0  0  0  0  0  0  0  0
   22.0378  -18.2143  -14.3923 O   0  0  0  0  0  0  0  0  0  0  0  0
   17.7839  -20.8008  -13.3143 C   0  0  0  0  0  0  0  0  0  0  0  0
   21.4464  -16.7691  -15.8734 C   0  0  2  0  0  0  0  0  0  0  0  0
   21.0270  -17.8386  -16.8816 N   0  0  0  0  0  0  0  0  0  0  0  0
   20.9601  -19.1255  -16.1947 C   0  0  0  0  0  0  0  0  0  0  0  0
   22.0846  -17.9103  -17.9140 O   0  0  0  0  0  0  0  0  0  0  0  0
   22.3454  -16.8502  -18.7805 O   0  0  0  0  0  0  0  0  0  0  0  0
  2  3  2  0
  2  1  1  0
  4  2  1  0
  5  4  1  0
  6  5  1  0
  7  6  1  0
  8  7  1  0
  8 10  1  0
  8  9  1  6
 10 12  1  0
 11 10  2  0
 12 13  1  0
 13 14  1  6
 14 15  1  0
 15 19  1  0
 16 15  2  0
 17 13  1  0
 17 18  2  0
 21 20  1  1
 21 22  1  0
 21 23  1  0
 22 17  1  0
 23 25  2  0
 23 24  1  0
M  END
$$$$
