RDA.pdb
     RDKit          3D

 25 24  0  0  1  0  0  0  0  0999 V2000
   28.6139  -24.0244  -17.2456 N   0  0  0  0  0  0  0  0  0  0  0  0
   29.5275  -23.1320  -17.8642 C   0  0  0  0  0  0  0  0  0  0  0  0
   30.1363  -23.5356  -18.9523 N   0  0  0  0  0  0  0  0  0  0  0  0
   29.7794  -21.8423  -17.3229 N   0  0  0  0  0  0  0  0  0  0  0  0
   28.9266  -21.2830  -16.2946 C   0  0  0  0  0  0  0  0  0  0  0  0
   27.8918  -20.3540  -16.8525 C   0  0  0  0  0  0  0  0  0  0  0  0
   27.1001  -19.7241  -15.7562 C   0  0  0  0  0  0  0  0  0  0  0  0
   26.0255  -20.6231  -15.2519 C   0  0  2  0  0  0  0  0  0  0  0  0
   25.5653  -21.4485  -16.3488 N   0  0  0  0  0  0  0  0  0  0  0  0
   24.8435  -19.8375  -14.7630 C   0  0  0  0  0  0  0  0  0  0  0  0
   24.9871  -19.0013  -13.8409 O   0  0  0  0  0  0  0  0  0  0  0  0
   30.8167  -22.9203  -19.4481 N   0  0  0  0  0  0  0  0  0  0  0  0
   23.5508  -20.0092  -15.3129 C   0  0  1  0  0  0  0  0  0  0  0  0
   22.3793  -19.3012  -14.8626 C   0  0  0  0  0  0  0  0  0  0  0  0
   21.4886  -19.0600  -16.0831 C   0  0  0  0  0  0  0  0  0  0  0  0
   20.3659  -18.1710  -15.6989 O   0  0  0  0  0  0  0  0  0  0  0  0
   19.4727  -17.9332  -16.5564 C   0  0  0  0  0  0  0  0  0  0  0  0
   21.6662  -20.0949  -13.8429 O   0  0  0  0  0  0  0  0  0  0  0  0
   21.2977  -21.2987  -14.0676 O   0  0  0  0  0  0  0  0  0  0  0  0
   20.2340  -17.5772  -14.4452 C   0  0  0  0  0  0  0  0  0  0  0  0
   20.7646  -19.7755  -10.2128 C   0  0  1  0  0  0  0  0  0  0  0  0
   20.6165  -20.3984  -11.6007 N   0  0  0  0  0  0  0  0  0  0  0  0
   21.3481  -19.5762  -12.5606 C   0  0  0  0  0  0  0  0  0  0  0  0
   19.1789  -20.3624  -11.9492 O   0  0  0  0  0  0  0  0  0  0  0  0
   18.2449  -21.1845  -11.3211 O   0  0  0  0  0  0  0  0  0  0  0  0
  2  3  2  0
  2  1  1  0
  4  2  1  0
  5  4  1  0
  6  5  1  0
  7  6  1  0
  8  7  1  0
  8 10  1  0
  8  9  1  6
 10 12  1  0
 11 10  2  0
 12 13  1  0
 13 14  1  1
 14 15  1  0
 15 19  1  0
 16 15  2  0
 17 13  1  0
 17 18  2  0
 21 20  1  1
 21 22  1  0
 21 23  1  0
 22 17  1  0
 23 25  2  0
 23 24  1  0
M  END
$$$$
