RDA.pdb
     RDKit          3D

 25 24  0  0  1  0  0  0  0  0999 V2000
   25.8174  -21.8753  -12.7368 N   0  0  0  0  0  0  0  0  0  0  0  0
   26.4020  -20.9901  -11.7941 C   0  0  0  0  0  0  0  0  0  0  0  0
   26.4164  -21.3573  -10.5361 N   0  0  0  0  0  0  0  0  0  0  0  0
   26.9529  -19.7434  -12.1965 N   0  0  0  0  0  0  0  0  0  0  0  0
   26.3103  -18.9345  -13.2116 C   0  0  0  0  0  0  0  0  0  0  0  0
   26.5351  -19.4665  -14.5941 C   0  0  0  0  0  0  0  0  0  0  0  0
   25.4364  -19.0421  -15.5096 C   0  0  0  0  0  0  0  0  0  0  0  0
   24.1037  -19.5163  -15.0446 C   0  0  2  0  0  0  0  0  0  0  0  0
   24.1248  -20.9630  -14.9897 N   0  0  0  0  0  0  0  0  0  0  0  0
   23.0205  -19.1257  -16.0076 C   0  0  0  0  0  0  0  0  0  0  0  0
   22.9356  -19.6992  -17.1185 O   0  0  0  0  0  0  0  0  0  0  0  0
   26.7787  -20.7210   -9.7938 N   0  0  0  0  0  0  0  0  0  0  0  0
   22.0762  -18.1165  -15.7035 C   0  0  1  0  0  0  0  0  0  0  0  0
   20.9721  -17.7577  -16.5573 C   0  0  0  0  0  0  0  0  0  0  0  0
   19.9969  -16.9236  -15.7239 C   0  0  0  0  0  0  0  0  0  0  0  0
   18.7046  -16.8217  -16.4437 O   0  0  0  0  0  0  0  0  0  0  0  0
   18.6114  -17.3576  -17.5812 C   0  0  0  0  0  0  0  0  0  0  0  0
   21.4573  -16.9890  -17.7199 O   0  0  0  0  0  0  0  0  0  0  0  0
   22.5986  -16.4120  -17.7128 O   0  0  0  0  0  0  0  0  0  0  0  0
   17.5810  -16.1677  -15.9423 C   0  0  0  0  0  0  0  0  0  0  0  0
   22.8596  -16.7236  -19.9988 C   0  0  2  0  0  0  0  0  0  0  0  0
   21.3562  -16.5028  -20.1643 N   0  0  0  0  0  0  0  0  0  0  0  0
   20.6944  -16.8437  -18.9079 C   0  0  0  0  0  0  0  0  0  0  0  0
   20.8862  -17.4356  -21.2123 O   0  0  0  0  0  0  0  0  0  0  0  0
   19.8613  -17.1001  -22.0954 O   0  0  0  0  0  0  0  0  0  0  0  0
  2  3  2  0
  2  1  1  0
  4  2  1  0
  5  4  1  0
  6  5  1  0
  7  6  1  0
  8  7  1  0
  8 10  1  0
  8  9  1  6
 10 12  1  0
 11 10  2  0
 12 13  1  0
 13 14  1  6
 14 15  1  0
 15 19  1  0
 16 15  2  0
 17 13  1  0
 17 18  2  0
 21 20  1  1
 21 22  1  0
 21 23  1  0
 22 17  1  0
 23 25  2  0
 23 24  1  0
M  END
$$$$
